data_functionalizedCrystal
_audit_creation_method	'MofGen! by Chris Wilmer'
_symmetry_space_group_name_H-M	'P1'
_symmetry_Int_Tables_number	1
_symmetry_cell_setting	triclinic
loop_
_symmetry_equiv_pos_as_xyz
  x,y,z
_cell_length_a	18.215407
_cell_length_b	16.625548
_cell_length_c	18.215405
_cell_angle_alpha	89.985220
_cell_angle_beta	89.977656
_cell_angle_gamma	90.005465
loop_
_atom_site_label
_atom_site_type_symbol
_atom_site_fract_x
_atom_site_fract_y
_atom_site_fract_z
Zn1	Zn	1.124989	0.455830	0.293156
Zn2	Zn	1.124922	0.320989	0.416194
Zn3	Zn	1.001946	0.321017	0.293140
Zn4	Zn	1.001887	0.455785	0.416180
O5	O	1.063436	0.388405	0.354668
O6	O	1.227964	0.437950	0.309490
O7	O	1.108605	0.208160	0.399869
O8	O	1.018320	0.338931	0.190158
O9	O	1.227915	0.338883	0.399885
O10	O	1.108720	0.437977	0.190170
O11	O	1.018255	0.208181	0.309462
O12	O	0.898954	0.338887	0.309449
O13	O	1.018220	0.568624	0.399862
O14	O	0.898911	0.437901	0.399846
O15	O	1.108663	0.568656	0.309477
O16	O	1.108548	0.338840	0.519176
O17	O	1.018155	0.437874	0.519166
C18	C	0.872230	0.388393	0.354645
C19	C	0.790431	0.388407	0.354653
C20	C	0.525370	0.439891	0.401815
C21	C	0.602229	0.439887	0.401808
C22	C	0.602243	0.336934	0.307537
C23	C	0.525386	0.336934	0.307548
C24	C	0.486951	0.388418	0.354685
C25	C	0.640667	0.388413	0.354668
C26	C	0.724001	0.388409	0.354661
C27	C	0.403612	0.388421	0.354694
C28	C	1.063442	0.598714	0.354670
C29	C	1.063445	0.688335	0.354671
C30	C	1.063415	1.016511	0.354677
C31	C	1.063421	0.925203	0.354678
C32	C	1.063430	0.852426	0.354674
C33	C	1.063436	0.761112	0.354674
C34	C	1.255389	0.388418	0.354691
C35	C	1.337188	0.388424	0.354701
C36	C	1.063422	1.178915	0.354680
C37	C	1.063415	1.089293	0.354675
C38	C	1.063358	0.388367	0.545874
C39	C	1.063392	0.388377	0.627673
C40	C	1.063534	0.388462	0.162715
C41	C	1.063576	0.388486	0.080916
C42	C	1.110570	0.336905	0.815847
C43	C	1.110603	0.336924	0.892706
C44	C	1.016396	0.439964	0.892736
C45	C	1.016367	0.439948	0.815878
C46	C	1.063453	0.388414	0.777436
C47	C	1.063515	0.388449	0.931152
C48	C	1.063550	0.388471	1.014486
C49	C	1.063419	0.388393	0.694097
H50	H	0.494079	0.481812	0.440197
H51	H	0.633506	0.481801	0.440186
C52	C	0.643877	0.281088	0.256239
C53	C	0.625186	0.298767	0.183452
C54	C	0.663513	0.247329	0.136175
H55	H	0.695165	0.288405	0.262879
H56	H	0.631255	0.226880	0.266897
H57	H	0.637812	0.352962	0.172798
H58	H	0.573904	0.291444	0.176789
H59	H	0.650892	0.193121	0.146833
H60	H	0.714800	0.254651	0.142822
H61	H	0.650832	0.259312	0.086785
H62	H	0.978059	0.481920	0.924045
C63	C	0.965127	0.495906	0.774302
C64	C	0.923879	0.541022	0.824416
C65	C	0.876668	0.592571	0.786142
H66	H	0.993162	0.531130	0.744282
H67	H	0.933035	0.465042	0.744371
H68	H	0.955967	0.571884	0.854334
H69	H	0.895830	0.505820	0.854437
H70	H	0.844576	0.561706	0.756212
H71	H	0.904709	0.627789	0.756124
H72	H	0.848671	0.623182	0.820139
H73	H	0.494104	0.295015	0.269168
H74	H	1.148912	0.294944	0.784550
C75	C	1.161786	0.280909	0.934277
C76	C	1.203000	0.235764	0.884158
C77	C	1.250153	0.184145	0.922425
H78	H	1.193907	0.311700	0.964223
H79	H	1.133687	0.245713	0.964281
H80	H	1.231096	0.270955	0.854167
H81	H	1.170898	0.204956	0.854210
H82	H	1.222054	0.148950	0.952429
H83	H	1.282269	0.214943	0.952370
H84	H	1.278117	0.153503	0.888425
