data_functionalizedCrystal
_audit_creation_method	'MofGen! by Chris Wilmer'
_symmetry_space_group_name_H-M	'P1'
_symmetry_Int_Tables_number	1
_symmetry_cell_setting	triclinic
loop_
_symmetry_equiv_pos_as_xyz
  x,y,z
_cell_length_a	13.032721
_cell_length_b	13.033385
_cell_length_c	11.169409
_cell_angle_alpha	82.834311
_cell_angle_beta	97.146154
_cell_angle_gamma	90.863225
loop_
_atom_site_label
_atom_site_type_symbol
_atom_site_fract_x
_atom_site_fract_y
_atom_site_fract_z
Zn1	Zn	-0.608865	-1.520165	-0.545263
Zn2	Zn	-0.780864	-1.498194	-0.372858
Zn3	Zn	-0.587100	-1.348182	-0.366544
Zn4	Zn	-0.758967	-1.326334	-0.595411
O5	O	-0.683949	-1.423219	-0.470019
O6	O	-0.649953	-1.661150	-0.504049
O7	O	-0.755216	-1.478242	-0.204086
O8	O	-0.446078	-1.389334	-0.366622
O9	O	-0.776321	-1.645008	-0.377383
O10	O	-0.462068	-1.515690	-0.497926
O11	O	-0.612859	-1.368029	-0.199447
O12	O	-0.591626	-1.201384	-0.415248
O13	O	-0.739000	-1.352098	-0.756693
O14	O	-0.717896	-1.185333	-0.583396
O15	O	-0.628721	-1.494505	-0.719850
O16	O	-0.921868	-1.457058	-0.426010
O17	O	-0.905781	-1.330793	-0.589519
C18	C	-0.951142	-1.389198	-0.513914
C19	C	-1.065460	-1.374738	-0.532720
C20	C	-0.650024	-1.156047	-0.504080
C21	C	-0.635535	-1.041746	-0.518683
C22	C	-1.124359	-1.430820	-0.460251
C23	C	-1.242514	-1.415876	-0.479686
C24	C	-0.676529	-0.864674	-0.477489
C25	C	-0.691508	-0.982809	-0.462390
C26	C	-0.415716	-1.457400	-0.425976
C27	C	-0.301411	-1.471966	-0.407207
C28	C	-0.683845	-1.423316	-0.783032
C29	C	-0.683801	-1.423357	-0.916420
C30	C	-0.718001	-0.691435	-0.435813
C31	C	-0.732494	-0.805735	-0.421203
C32	C	-0.683985	-1.423191	-0.158204
C33	C	-0.683765	-1.423386	-0.024744
H34	H	-1.087315	-1.489902	-0.383822
H35	H	-1.279557	-1.356800	-0.556128
H36	H	-0.791502	-0.842733	-0.361843
H37	H	-0.617531	-0.827674	-0.536861
O38	O	-1.257168	-1.542310	-0.315897
C39	C	-1.187680	-1.491592	-0.235668
H40	H	-1.209915	-1.406521	-0.243816
H41	H	-1.191115	-1.528984	-0.138382
H42	H	-1.105823	-1.498259	-0.259930
H43	H	-1.102508	-1.315666	-0.609156
O44	O	-0.761828	-1.027104	-0.391563
C45	C	-0.761142	-1.135193	-0.392272
H46	H	-0.683651	-1.159874	-0.416848
H47	H	-0.773175	-1.175171	-0.298309
H48	H	-0.826045	-1.157937	-0.462228
H49	H	-0.576531	-1.004753	-0.578058
