data_functionalizedCrystal
_audit_creation_method	'MofGen! by Chris Wilmer'
_symmetry_space_group_name_H-M	'P1'
_symmetry_Int_Tables_number	1
_symmetry_cell_setting	triclinic
loop_
_symmetry_equiv_pos_as_xyz
  x,y,z
_cell_length_a	11.169417
_cell_length_b	21.295417
_cell_length_c	11.169409
_cell_angle_alpha	89.959648
_cell_angle_beta	89.980176
_cell_angle_gamma	90.030581
loop_
_atom_site_label
_atom_site_type_symbol
_atom_site_fract_x
_atom_site_fract_y
_atom_site_fract_z
Zn1	Zn	1.834801	-0.250543	-0.678476
Zn2	Zn	2.168134	0.082790	-0.345143
Zn3	Zn	2.501468	0.416123	-0.011809
Zn4	Zn	1.834622	-0.355832	-0.477765
Zn5	Zn	2.167956	-0.022498	-0.144431
Zn6	Zn	2.501289	0.310835	0.188902
Zn7	Zn	1.634087	-0.250582	-0.477810
Zn8	Zn	1.967420	0.082751	-0.144477
Zn9	Zn	2.300753	0.416085	0.188856
Zn10	Zn	1.634026	-0.355780	-0.678410
Zn11	Zn	1.967360	-0.022447	-0.345076
Zn12	Zn	2.300693	0.310886	-0.011743
O13	O	1.734384	-0.303184	-0.578115
O14	O	2.067717	0.030149	-0.244782
O15	O	2.401051	0.363482	0.088552
O16	O	2.002727	-0.264516	-0.651860
O17	O	2.336060	0.068818	-0.318526
O18	O	2.669394	0.402151	0.014807
O19	O	1.807971	-0.341908	-0.309821
O20	O	2.141305	-0.008574	0.023512
O21	O	2.474638	0.324759	0.356846
O22	O	1.660812	-0.162487	-0.504476
O23	O	1.994145	0.170846	-0.171142
O24	O	2.327478	0.504179	0.162191
O25	O	2.002596	-0.341870	-0.504398
O26	O	2.335929	-0.008537	-0.171065
O27	O	2.669262	0.324796	0.162269
O28	O	1.808276	-0.162459	-0.651904
O29	O	2.141609	0.170874	-0.318571
O30	O	2.474942	0.504207	0.014763
O31	O	1.660639	-0.264581	-0.309854
O32	O	1.993972	0.068752	0.023479
O33	O	2.327305	0.402086	0.356812
O34	O	1.466129	-0.264531	-0.504411
O35	O	1.799462	0.068802	-0.171078
O36	O	2.132796	0.402135	0.162255
O37	O	1.660709	-0.341783	-0.846368
O38	O	1.994042	-0.008450	-0.513035
O39	O	2.327376	0.324884	-0.179702
O40	O	1.466085	-0.341820	-0.651791
O41	O	1.799418	-0.008487	-0.318458
O42	O	2.132751	0.324846	0.014876
O43	O	1.808217	-0.264466	-0.846417
O44	O	2.141550	0.068867	-0.513084
O45	O	2.474884	0.402201	-0.179750
O46	O	1.807913	-0.443914	-0.504334
O47	O	2.141246	-0.110581	-0.171001
O48	O	2.474580	0.222752	0.162333
O49	O	1.660536	-0.443877	-0.651747
O50	O	1.993869	-0.110543	-0.318413
O51	O	2.327203	0.222790	0.014920
C52	C	1.422559	-0.303175	-0.578100
C53	C	1.755893	0.030159	-0.244766
C54	C	2.089226	0.363492	0.088567
C55	C	1.289159	-0.303186	-0.578122
C56	C	1.622493	0.030147	-0.244788
C57	C	1.955826	0.363481	0.088545
C58	C	1.734231	-0.466736	-0.578054
C59	C	2.067564	-0.133403	-0.244721
C60	C	2.400898	0.199931	0.088612
C61	C	1.734276	-0.536704	-0.578068
C62	C	2.067609	-0.203371	-0.244735
C63	C	2.400942	0.129963	0.088598
C64	C	1.811016	-0.569499	-0.654889
C65	C	2.144349	-0.236166	-0.321556
C66	C	2.477683	0.097168	0.011777
C67	C	1.811058	-0.635241	-0.654919
C68	C	2.144392	-0.301908	-0.321585
C69	C	2.477725	0.031425	0.011748
C70	C	1.734373	-0.668187	-0.578106
C71	C	2.067706	-0.334853	-0.244773
C72	C	2.401040	-0.001520	0.088560
C73	C	1.657617	-0.635384	-0.501280
C74	C	1.990951	-0.302051	-0.167947
C75	C	2.324284	0.031283	0.165386
C76	C	1.657569	-0.569643	-0.501261
C77	C	1.990902	-0.236309	-0.167928
C78	C	2.324235	0.097024	0.165405
N79	N	1.725301	-0.771458	-0.473071
N80	N	2.058634	-0.438125	-0.139738
N81	N	2.391968	-0.104791	0.193596
N82	N	1.725354	-0.833909	-0.473093
N83	N	2.058688	-0.500576	-0.139759
N84	N	2.392021	-0.167243	0.193574
C85	C	1.734513	-0.866261	-0.578160
C86	C	2.067846	-0.532928	-0.244827
C87	C	2.401180	-0.199595	0.088506
N88	N	1.743640	-0.833802	-0.683209
N89	N	2.076973	-0.500469	-0.349875
N90	N	2.410307	-0.167136	-0.016542
N91	N	1.743593	-0.771345	-0.683186
N92	N	2.076926	-0.438012	-0.349852
N93	N	2.410260	-0.104679	-0.016519
C94	C	1.734417	-0.739472	-0.578119
C95	C	2.067750	-0.406139	-0.244785
C96	C	2.401083	-0.072805	0.088548
C97	C	1.811303	-0.970342	-0.655020
C98	C	2.144637	-0.637008	-0.321686
C99	C	2.477970	-0.303675	0.011647
C100	C	1.811337	-1.036085	-0.655051
C101	C	2.144671	-0.702752	-0.321718
C102	C	2.478004	-0.369419	0.011615
C103	C	1.657903	-1.036226	-0.501402
C104	C	1.991236	-0.702893	-0.168069
C105	C	2.324569	-0.369560	0.165265
C106	C	1.657863	-0.970484	-0.501381
C107	C	1.991196	-0.637151	-0.168048
C108	C	2.324529	-0.303817	0.165286
C109	C	1.734569	-0.937545	-0.578188
C110	C	2.067903	-0.604212	-0.244855
C111	C	2.401236	-0.270879	0.088478
C112	C	2.047426	-0.303194	-0.578131
C113	C	2.380760	0.030139	-0.244798
C114	C	2.714093	0.363472	0.088535
C115	C	2.180826	-0.303199	-0.578138
C116	C	2.514160	0.030135	-0.244805
C117	C	2.847493	0.363468	0.088528
C118	C	1.734476	-0.303114	-0.891158
C119	C	2.067810	0.030219	-0.557824
C120	C	2.401143	0.363552	-0.224491
C121	C	1.734516	-0.303085	-1.024558
C122	C	2.067849	0.030249	-0.691224
C123	C	2.401182	0.363582	-0.357891
C124	C	1.734570	-0.138994	-0.578202
C125	C	2.067904	0.194339	-0.244869
C126	C	2.401237	0.527673	0.088464
C127	C	1.734650	-0.069026	-0.578240
C128	C	2.067983	0.264307	-0.244906
C129	C	2.401316	0.597641	0.088427
C130	C	1.734361	-0.303209	-0.266290
C131	C	2.067695	0.030125	0.067043
C132	C	2.401028	0.363458	0.400376
C133	C	1.734555	-0.303061	-0.132891
C134	C	2.067888	0.030272	0.200442
C135	C	2.401221	0.363606	0.533776
H136	H	1.873472	-0.542682	-0.717433
H137	H	2.206805	-0.209349	-0.384100
H138	H	2.540139	0.123984	-0.050766
H139	H	1.873759	-0.943522	-0.717565
H140	H	2.207092	-0.610189	-0.384231
H141	H	2.540426	-0.276855	-0.050898
N142	N	1.893837	-0.670620	-0.737779
N143	N	2.227170	-0.337286	-0.404446
N144	N	2.560503	-0.003953	-0.071112
H145	H	1.979587	-0.659145	-0.719198
H146	H	2.312921	-0.325812	-0.385865
H147	H	2.646254	0.007521	-0.052532
H148	H	1.882127	-0.717253	-0.726096
H149	H	2.215461	-0.383920	-0.392763
H150	H	2.548794	-0.050587	-0.059430
H151	H	1.595177	-0.662212	-0.438742
H152	H	1.928510	-0.328879	-0.105408
H153	H	2.261844	0.004455	0.227925
H154	H	1.873828	-1.062786	-0.717614
H155	H	2.207162	-0.729452	-0.384280
H156	H	2.540495	-0.396119	-0.050947
N157	N	1.575180	-1.071750	-0.418561
N158	N	1.908514	-0.738417	-0.085228
N159	N	2.241847	-0.405084	0.248105
H160	H	1.586851	-1.118374	-0.430231
H161	H	1.920185	-0.785041	-0.096898
H162	H	2.253518	-0.451708	0.236435
H163	H	1.593894	-1.060290	-0.332857
H164	H	1.927227	-0.726957	0.000476
H165	H	2.260560	-0.393624	0.333810
N166	N	1.574798	-0.534266	-0.418399
N167	N	1.908131	-0.200933	-0.085066
N168	N	2.241465	0.132400	0.248268
H169	H	1.526220	-0.565110	-0.369742
H170	H	1.859553	-0.231777	-0.036409
H171	H	2.192887	0.101557	0.296924
H172	H	1.623666	-0.506994	-0.362891
H173	H	1.956999	-0.173661	-0.029558
H174	H	2.290332	0.159673	0.303776
H175	H	1.595378	-0.943781	-0.438821
H176	H	1.928712	-0.610447	-0.105488
H177	H	2.262045	-0.277114	0.227845
