data_functionalizedCrystal
_audit_creation_method	'MofGen! by Chris Wilmer'
_symmetry_space_group_name_H-M	'P1'
_symmetry_Int_Tables_number	1
_symmetry_cell_setting	triclinic
loop_
_symmetry_equiv_pos_as_xyz
  x,y,z
_cell_length_a	18.050582
_cell_length_b	11.169417
_cell_length_c	11.169416
_cell_angle_alpha	89.988781
_cell_angle_beta	89.983773
_cell_angle_gamma	90.011564
loop_
_atom_site_label
_atom_site_type_symbol
_atom_site_fract_x
_atom_site_fract_y
_atom_site_fract_z
Zn1	Zn	-0.419879	-1.834864	-0.477855
Zn2	Zn	0.080121	-1.334864	0.022145
Zn3	Zn	-0.295703	-1.834783	-0.678545
Zn4	Zn	0.204297	-1.334783	-0.178545
Zn5	Zn	-0.295710	-1.634179	-0.477877
Zn6	Zn	0.204290	-1.134179	0.022123
Zn7	Zn	-0.419858	-1.634158	-0.678498
Zn8	Zn	0.080142	-1.134158	-0.178498
O9	O	-0.357787	-1.734496	-0.578194
O10	O	0.142213	-1.234496	-0.078194
O11	O	-0.403412	-2.002803	-0.504487
O12	O	0.096588	-1.502803	-0.004487
O13	O	-0.191779	-1.808147	-0.651954
O14	O	0.308221	-1.308147	-0.151954
O15	O	-0.312193	-1.660844	-0.309925
O16	O	0.187807	-1.160844	0.190075
O17	O	-0.312180	-2.002743	-0.651933
O18	O	0.187820	-1.502743	-0.151933
O19	O	-0.403419	-1.808286	-0.309908
O20	O	0.096581	-1.308286	0.190092
O21	O	-0.191785	-1.660765	-0.504525
O22	O	0.308215	-1.160765	-0.004525
O23	O	-0.312173	-1.466227	-0.504480
O24	O	0.187827	-0.966227	-0.004480
O25	O	-0.523786	-1.660807	-0.651854
O26	O	-0.023786	-1.160807	-0.151854
O27	O	-0.403384	-1.466211	-0.651875
O28	O	0.096616	-0.966211	-0.151875
O29	O	-0.523801	-1.808266	-0.504442
O30	O	-0.023801	-1.308266	-0.004442
O31	O	-0.312160	-1.808126	-0.846488
O32	O	0.187840	-1.308126	-0.346488
O33	O	-0.403377	-1.660728	-0.846454
O34	O	0.096623	-1.160728	-0.346454
C35	C	-0.357778	-1.422671	-0.578176
C36	C	0.142222	-0.922671	-0.078176
C37	C	-0.357791	-1.289271	-0.578197
C38	C	0.142209	-0.789271	-0.078197
C39	C	-0.551493	-1.734543	-0.578141
C40	C	-0.051493	-1.234543	-0.078141
C41	C	-0.634039	-1.734563	-0.578118
C42	C	-0.134039	-1.234563	-0.078118
C43	C	-0.357782	-1.734449	-0.890018
C44	C	0.142218	-1.234449	-0.390018
C45	C	-0.357804	-1.734538	-1.023418
C46	C	0.142196	-1.234538	-0.523418
C47	C	-0.833482	-1.654437	-0.658171
C48	C	-0.333482	-1.154437	-0.158171
C49	C	-0.882871	-1.763943	-0.687506
C50	C	-0.382871	-1.263943	-0.187506
C51	C	-0.785169	-1.734622	-0.578026
C52	C	-0.285169	-1.234622	-0.078026
C53	C	-0.882862	-1.625176	-0.548657
C54	C	-0.382862	-1.125176	-0.048657
C55	C	-0.931155	-1.734670	-0.577940
C56	C	-0.431155	-1.234670	-0.077940
C57	C	-0.833472	-1.844186	-0.607419
C58	C	-0.333472	-1.344186	-0.107419
C59	C	-0.833458	-1.705345	-0.468519
C60	C	-0.333458	-1.205345	0.031481
C61	C	-0.882825	-1.814927	-0.497813
C62	C	-0.382825	-1.314927	0.002187
C63	C	-0.701071	-1.734593	-0.578079
C64	C	-0.201071	-1.234593	-0.078079
C65	C	-1.015251	-1.734711	-0.577887
C66	C	-0.515251	-1.234711	-0.077887
C67	C	-0.164835	-1.734518	-0.578160
C68	C	0.335165	-1.234518	-0.078160
C69	C	-0.082290	-1.734731	-0.577845
C70	C	0.417710	-1.234731	-0.077845
C71	C	-0.357797	-2.047538	-0.578213
C72	C	0.142203	-1.547538	-0.078213
C73	C	-0.357802	-2.180938	-0.578221
C74	C	0.142198	-1.680938	-0.078221
C75	C	-0.357809	-1.734577	-0.265151
C76	C	0.142191	-1.234577	0.234849
C77	C	-0.357819	-1.734611	-0.131751
C78	C	0.142181	-1.234611	0.368249
H79	H	-0.811816	-1.586690	-0.726035
H80	H	-0.311816	-1.086690	-0.226035
N81	N	-0.804861	-1.966819	-0.640538
N82	N	-0.304861	-1.466819	-0.140538
H83	H	-0.848033	-2.022382	-0.655453
H84	H	-0.348033	-1.522382	-0.155453
H85	H	-0.773637	-1.999267	-0.572897
H86	H	-0.273637	-1.499267	-0.072897
H87	H	-0.904575	-1.788735	-0.780077
H88	H	-0.404575	-1.288735	-0.280077
N89	N	-0.911358	-1.904878	-0.408001
N90	N	-0.411358	-1.404878	0.091999
H91	H	-0.892589	-1.883501	-0.325552
H92	H	-0.392589	-1.383501	0.174448
H93	H	-0.893286	-1.987457	-0.430421
H94	H	-0.393286	-1.487457	0.069579
N95	N	-0.804674	-1.672467	-0.345940
N96	N	-0.304674	-1.172467	0.154060
H97	H	-0.822605	-1.589713	-0.323860
H98	H	-0.322605	-1.089713	0.176140
H99	H	-0.748729	-1.673539	-0.346800
H100	H	-0.248729	-1.173539	0.153200
H101	H	-0.904557	-1.532599	-0.523853
H102	H	-0.404557	-1.032599	-0.023853
