data_functionalizedCrystal
_audit_creation_method	'MofGen! by Chris Wilmer'
_symmetry_space_group_name_H-M	'P1'
_symmetry_Int_Tables_number	1
_symmetry_cell_setting	triclinic
loop_
_symmetry_equiv_pos_as_xyz
  x,y,z
_cell_length_a	16.109301
_cell_length_b	15.186229
_cell_length_c	16.109295
_cell_angle_alpha	90.002834
_cell_angle_beta	83.460334
_cell_angle_gamma	89.997109
loop_
_atom_site_label
_atom_site_type_symbol
_atom_site_fract_x
_atom_site_fract_y
_atom_site_fract_z
O1	O	-1.103132	0.073167	-0.106862
O2	O	-0.769798	0.406500	0.226472
O3	O	-0.436465	0.739833	0.559805
O4	O	-0.861069	0.073180	-0.120161
O5	O	-0.527736	0.406513	0.213172
O6	O	-0.194403	0.739847	0.546506
O7	O	-0.988753	0.073174	0.007520
O8	O	-0.655419	0.406507	0.340853
O9	O	-0.322086	0.739841	0.674186
O10	O	-0.975448	0.073173	-0.234543
O11	O	-0.642115	0.406506	0.098791
O12	O	-0.308782	0.739839	0.432124
O13	O	-0.988738	-0.073283	0.007513
O14	O	-0.655404	0.260050	0.340846
O15	O	-0.322071	0.593384	0.674179
O16	O	-0.861054	-0.073277	-0.120168
O17	O	-0.527721	0.260056	0.213165
O18	O	-0.194388	0.593389	0.546498
O19	O	-1.103117	-0.073291	-0.106869
O20	O	-0.769783	0.260043	0.226464
O21	O	-0.436450	0.593376	0.559798
Zn22	Zn	-0.982083	-0.096537	-0.113520
Zn23	Zn	-0.648750	0.236796	0.219813
Zn24	Zn	-0.315417	0.570129	0.553147
Zn25	Zn	-0.982103	0.096427	-0.113510
Zn26	Zn	-0.648770	0.429760	0.219823
Zn27	Zn	-0.315436	0.763093	0.553156
O28	O	-0.975433	-0.073285	-0.234550
O29	O	-0.642100	0.260049	0.098783
O30	O	-0.308767	0.593382	0.432117
C31	C	-0.830087	-0.000047	-0.119626
C32	C	-0.496754	0.333286	0.213707
C33	C	-0.163420	0.666620	0.547041
C34	C	-0.737792	-0.000042	-0.118011
C35	C	-0.404458	0.333292	0.215322
C36	C	-0.071125	0.666625	0.548656
N37	N	-0.982076	-0.228230	-0.113526
N38	N	-0.648742	0.105103	0.219807
N39	N	-0.315409	0.438437	0.553141
C40	C	-0.988207	-0.000052	0.038491
C41	C	-0.654874	0.333281	0.371824
C42	C	-0.321540	0.666614	0.705158
C43	C	-0.986594	-0.000046	0.130787
C44	C	-0.653261	0.333288	0.464120
C45	C	-0.319927	0.666621	0.797453
C46	C	-1.134099	-0.000062	-0.107404
C47	C	-0.800766	0.333272	0.225929
C48	C	-0.467432	0.666605	0.559263
C49	C	-1.226394	-0.000061	-0.109019
C50	C	-0.893061	0.333272	0.224314
C51	C	-0.559728	0.666605	0.557647
C52	C	-0.515518	-0.000052	-0.190019
C53	C	-0.182185	0.333281	0.143314
C54	C	0.151149	0.666614	0.476648
C55	C	-0.428798	-0.000058	-0.188495
C56	C	-0.095464	0.333275	0.144839
C57	C	0.237869	0.666609	0.478172
C58	C	-0.448675	-0.000053	-0.037006
C59	C	-0.115342	0.333280	0.296328
C60	C	0.217992	0.666613	0.629661
C61	C	-0.535394	-0.000054	-0.038531
C62	C	-0.202060	0.333279	0.294803
C63	C	0.131273	0.666613	0.628136
C64	C	-0.568813	-0.000049	-0.115040
C65	C	-0.235479	0.333284	0.218294
C66	C	0.097854	0.666618	0.551627
C67	C	-0.395374	-0.000054	-0.111991
C68	C	-0.062040	0.333279	0.221343
C69	C	0.271293	0.666613	0.554676
C70	C	-0.301348	-0.000060	-0.110338
C71	C	0.031986	0.333273	0.222996
C72	C	0.365319	0.666607	0.556329
C73	C	-0.662845	-0.000044	-0.116693
C74	C	-0.329511	0.333289	0.216640
C75	C	0.003822	0.666622	0.549974
C76	C	-1.032499	-0.453956	-0.163954
C77	C	-0.699165	-0.120623	0.169379
C78	C	-0.365832	0.212711	0.502713
C79	C	-1.032508	-0.546146	-0.163948
C80	C	-0.699174	-0.212812	0.169385
C81	C	-0.365841	0.120521	0.502718
C82	C	-0.931692	-0.546148	-0.063064
C83	C	-0.598359	-0.212815	0.270270
C84	C	-0.265025	0.120518	0.603603
C85	C	-0.931688	-0.453960	-0.063066
C86	C	-0.598355	-0.120627	0.270268
C87	C	-0.265021	0.212706	0.603601
C88	C	-0.982090	-0.407866	-0.113516
C89	C	-0.648756	-0.074533	0.219817
C90	C	-0.315423	0.258800	0.553151
C91	C	-0.982103	-0.592244	-0.113508
C92	C	-0.648770	-0.258911	0.219826
C93	C	-0.315436	0.074423	0.553159
C94	C	-0.982112	-0.692200	-0.113501
C95	C	-0.648779	-0.358867	0.219832
C96	C	-0.315446	-0.025534	0.553166
C97	C	-0.982082	-0.307904	-0.113522
C98	C	-0.648748	0.025429	0.219812
C99	C	-0.315415	0.358763	0.553145
N100	N	-0.982117	0.228119	-0.113498
N101	N	-0.648784	0.561453	0.219836
N102	N	-0.315450	0.894786	0.553169
C103	C	-1.058606	-0.000017	0.353060
C104	C	-0.725273	0.333316	0.686393
C105	C	-0.391939	0.666649	1.019726
C106	C	-1.057084	-0.000003	0.439780
C107	C	-0.723750	0.333331	0.773114
C108	C	-0.390417	0.666664	1.106447
C109	C	-0.905595	0.000001	0.419906
C110	C	-0.572261	0.333334	0.753239
C111	C	-0.238928	0.666668	1.086573
C112	C	-0.907118	-0.000007	0.333187
C113	C	-0.573784	0.333326	0.666520
C114	C	-0.240451	0.666659	0.999854
C115	C	-0.983626	-0.000021	0.299766
C116	C	-0.650293	0.333312	0.633100
C117	C	-0.316959	0.666646	0.966433
C118	C	-0.980580	0.000002	0.473206
C119	C	-0.647247	0.333335	0.806539
C120	C	-0.313914	0.666669	1.139873
C121	C	-0.978929	0.000018	0.567232
C122	C	-0.645596	0.333351	0.900566
C123	C	-0.312263	0.666685	1.233899
C124	C	-0.985277	-0.000035	0.205734
C125	C	-0.651944	0.333298	0.539068
C126	C	-0.318611	0.666632	0.872401
C127	C	-0.975984	-0.000035	0.734479
C128	C	-0.642651	0.333298	1.067813
C129	C	-0.309317	0.666631	1.401146
C130	C	-0.977612	0.000027	0.642186
C131	C	-0.644279	0.333360	0.975519
C132	C	-0.310946	0.666694	1.308852
H133	H	-0.542724	-0.000055	-0.252317
H134	H	-0.209391	0.333278	0.081016
H135	H	0.123942	0.666612	0.414349
H136	H	-0.385408	-0.000062	-0.249551
H137	H	-0.052075	0.333271	0.083783
H138	H	0.281259	0.666604	0.417116
H139	H	-1.073539	-0.416429	-0.205034
H140	H	-0.740206	-0.083096	0.128300
H141	H	-0.406872	0.250238	0.461633
H142	H	-0.421454	-0.000063	0.025285
H143	H	-0.088121	0.333271	0.358619
H144	H	0.245212	0.666604	0.691952
H145	H	-0.890639	-0.416433	-0.021989
H146	H	-0.557305	-0.083100	0.311345
H147	H	-0.223972	0.250233	0.644678
Cl148	Cl	-1.151349	0.000004	0.506775
Cl149	Cl	-0.818016	0.333337	0.840108
Cl150	Cl	-0.484682	0.666670	1.173441
Cl151	Cl	-0.809418	0.000018	0.461927
Cl152	Cl	-0.476085	0.333351	0.795260
Cl153	Cl	-0.142752	0.666685	1.128594
Cl154	Cl	-0.602398	-0.000057	0.055737
Cl155	Cl	-0.269065	0.333277	0.389070
Cl156	Cl	0.064269	0.666610	0.722404
H157	H	-0.846056	-0.000007	0.289793
H158	H	-0.512723	0.333326	0.623126
H159	H	-0.179389	0.666659	0.956460
Cl160	Cl	-0.868327	-0.604101	0.000349
Cl161	Cl	-0.534994	-0.270768	0.333682
Cl162	Cl	-0.201660	0.062566	0.667016
Cl163	Cl	-1.095883	-0.604083	-0.227358
Cl164	Cl	-0.762550	-0.270749	0.105975
Cl165	Cl	-0.429216	0.062584	0.439308
H166	H	-1.120904	-0.000027	0.325852
H167	H	-0.787570	0.333307	0.659185
H168	H	-0.454237	0.666640	0.992519
