data_functionalizedCrystal
_audit_creation_method	'MofGen! by Chris Wilmer'
_symmetry_space_group_name_H-M	'P1'
_symmetry_Int_Tables_number	1
_symmetry_cell_setting	triclinic
loop_
_symmetry_equiv_pos_as_xyz
  x,y,z
_cell_length_a	23.532361
_cell_length_b	14.519709
_cell_length_c	22.010155
_cell_angle_alpha	89.999101
_cell_angle_beta	89.989902
_cell_angle_gamma	96.745093
loop_
_atom_site_label
_atom_site_type_symbol
_atom_site_fract_x
_atom_site_fract_y
_atom_site_fract_z
O1	O	0.755790	-0.111734	-0.050466
O2	O	1.089123	0.221599	0.282868
O3	O	1.422456	0.554933	0.616201
O4	O	0.589996	-0.127977	-0.050480
O5	O	0.923329	0.205356	0.282853
O6	O	1.256663	0.538689	0.616186
O7	O	0.677289	0.014436	-0.050467
O8	O	1.010622	0.347769	0.282866
O9	O	1.343955	0.681103	0.616200
O10	O	0.668497	-0.254147	-0.050479
O11	O	1.001830	0.079186	0.282855
O12	O	1.335164	0.412519	0.616188
O13	O	0.677263	0.014419	0.050583
O14	O	1.010597	0.347753	0.383917
O15	O	1.343930	0.681086	0.717250
O16	O	0.589971	-0.127994	0.050570
O17	O	0.923304	0.205339	0.383903
O18	O	1.256637	0.538673	0.717237
O19	O	0.755764	-0.111751	0.050585
O20	O	1.089098	0.221582	0.383918
O21	O	1.422431	0.554916	0.717251
Cu22	Cu	0.672865	-0.119874	0.059804
Cu23	Cu	1.006199	0.213459	0.393137
Cu24	Cu	1.339532	0.546793	0.726471
Cu25	Cu	0.672895	-0.119854	-0.059700
Cu26	Cu	1.006229	0.213479	0.273634
Cu27	Cu	1.339562	0.546813	0.606967
O28	O	0.668472	-0.254164	0.050572
O29	O	1.001805	0.079169	0.383905
O30	O	1.335138	0.412503	0.717238
C31	C	0.568765	-0.127579	0.000043
C32	C	0.902098	0.205755	0.333376
C33	C	1.235432	0.539088	0.666710
C34	C	0.505541	-0.126356	0.000038
C35	C	0.838874	0.206978	0.333371
C36	C	1.172208	0.540311	0.666704
C37	C	0.232287	-0.120997	-0.055041
C38	C	0.565620	0.212336	0.278292
C39	C	0.898954	0.545669	0.611626
C40	C	0.291692	-0.122155	-0.055043
C41	C	0.625025	0.211178	0.278291
C42	C	0.958359	0.544512	0.611624
O43	O	0.322432	-0.122714	-0.101887
O44	O	0.655765	0.210619	0.231446
O45	O	0.989099	0.543953	0.564779
N46	N	0.321386	-0.122749	0.000040
N47	N	0.654720	0.210584	0.333373
N48	N	0.988053	0.543918	0.666707
C49	C	0.291673	-0.122176	0.055128
C50	C	0.625007	0.211158	0.388461
C51	C	0.958340	0.544491	0.721795
O52	O	0.322386	-0.122786	0.101980
O53	O	0.655719	0.210547	0.435313
O54	O	0.989052	0.543880	0.768647
C55	C	0.232270	-0.121011	0.055129
C56	C	0.565603	0.212322	0.388462
C57	C	0.898937	0.545655	0.721796
C58	C	0.202578	-0.120427	0.000043
C59	C	0.535911	0.212906	0.333376
C60	C	0.869245	0.546240	0.666709
C61	C	0.202595	-0.120412	-0.110123
C62	C	0.535928	0.212921	0.223210
C63	C	0.869261	0.546255	0.556544
C64	C	0.143194	-0.119256	-0.110121
C65	C	0.476527	0.214077	0.223212
C66	C	0.809860	0.547411	0.556545
C67	C	0.113485	-0.118686	-0.055038
C68	C	0.446818	0.214648	0.278296
C69	C	0.780152	0.547981	0.611629
C70	C	0.143177	-0.119271	0.000044
C71	C	0.476510	0.214062	0.333378
C72	C	0.809844	0.547395	0.666711
C73	C	0.202559	-0.120432	0.110216
C74	C	0.535892	0.212902	0.443549
C75	C	0.869226	0.546235	0.776883
C76	C	0.143152	-0.119267	0.110212
C77	C	0.476485	0.214067	0.443546
C78	C	0.809818	0.547400	0.776879
C79	C	0.113459	-0.118682	0.055126
C80	C	0.446793	0.214651	0.388459
C81	C	0.780126	0.547985	0.721793
C82	C	0.054067	-0.117545	0.055130
C83	C	0.387400	0.215788	0.388463
C84	C	0.720734	0.549122	0.721796
N85	N	0.024373	-0.116951	0.000047
N86	N	0.357706	0.216382	0.333380
N87	N	0.691039	0.549716	0.666714
C88	C	0.054081	-0.117521	-0.055037
C89	C	0.387415	0.215812	0.278297
C90	C	0.720748	0.549145	0.611630
C91	C	0.416425	-0.124619	0.055122
C92	C	0.749758	0.208714	0.388455
C93	C	1.083091	0.542047	0.721789
C94	C	0.475826	-0.125790	0.055122
C95	C	0.809160	0.207543	0.388455
C96	C	1.142493	0.540876	0.721788
C97	C	0.475841	-0.125768	-0.055049
C98	C	0.809174	0.207566	0.278284
C99	C	1.142508	0.540899	0.611617
C100	C	0.416437	-0.124603	-0.055048
C101	C	0.749771	0.208730	0.278285
C102	C	1.083104	0.542063	0.611618
C103	C	0.386730	-0.124025	0.000039
C104	C	0.720064	0.209308	0.333372
C105	C	1.053397	0.542641	0.666706
C106	C	-0.070665	-0.115095	-0.055029
C107	C	0.262668	0.218239	0.278305
C108	C	0.596002	0.551572	0.611638
C109	C	-0.130072	-0.113943	-0.055022
C110	C	0.203262	0.219391	0.278311
C111	C	0.536595	0.552724	0.611645
C112	C	-0.130080	-0.113960	0.055148
C113	C	0.203253	0.219373	0.388482
C114	C	0.536586	0.552706	0.721815
C115	C	-0.070679	-0.115117	0.055142
C116	C	0.262654	0.218216	0.388475
C117	C	0.595987	0.551549	0.721809
C118	C	-0.040973	-0.115681	0.000049
C119	C	0.292360	0.217652	0.333382
C120	C	0.625694	0.550985	0.666715
O121	O	0.023289	-0.116981	0.101950
O122	O	0.356623	0.216352	0.435284
O123	O	0.689956	0.549685	0.768617
O124	O	0.023363	-0.116898	-0.101881
O125	O	0.356696	0.216435	0.231453
O126	O	0.690030	0.549768	0.564786
C127	C	0.676866	0.048782	0.000058
C128	C	1.010200	0.382116	0.333392
C129	C	1.343533	0.715449	0.666725
C130	C	0.675638	0.151149	0.000058
C131	C	1.008972	0.484482	0.333392
C132	C	1.342305	0.817815	0.666725
C133	C	0.776995	-0.112149	0.000060
C134	C	1.110329	0.221184	0.333393
C135	C	1.443662	0.554517	0.666727
C136	C	0.840219	-0.113372	0.000062
C137	C	1.173553	0.219961	0.333395
C138	C	1.506886	0.553294	0.666728
C139	C	0.668894	-0.288510	0.000045
C140	C	1.002228	0.044823	0.333378
C141	C	1.335561	0.378156	0.666712
C142	C	0.670122	-0.390877	0.000041
C143	C	1.003455	-0.057544	0.333374
C144	C	1.336789	0.275790	0.666707
N145	N	0.672848	-0.119887	0.143857
N146	N	1.006182	0.213446	0.477190
N147	N	1.339515	0.546779	0.810523
C148	C	0.671118	0.525990	0.000042
C149	C	1.004452	0.859323	0.333376
C150	C	1.337785	1.192657	0.666709
C151	C	0.672374	0.421697	0.000047
C152	C	1.005707	0.755031	0.333380
C153	C	1.339040	1.088364	0.666714
C154	C	0.673378	0.338573	0.000051
C155	C	1.006712	0.671906	0.333384
C156	C	1.340045	1.005239	0.666718
C157	C	0.674634	0.234273	0.000054
C158	C	1.007967	0.567607	0.333388
C159	C	1.341300	0.900940	0.666721
N160	N	0.672917	-0.119833	-0.143752
N161	N	1.006250	0.213500	0.189581
N162	N	1.339583	0.546833	0.522915
C163	C	0.638287	-0.064207	0.436461
C164	C	0.971620	0.269127	0.769794
C165	C	1.304953	0.602460	1.103128
C166	C	0.638282	-0.064211	0.372853
C167	C	0.971615	0.269122	0.706187
C168	C	1.304948	0.602456	1.039520
O169	O	0.608875	-0.016871	0.339955
O170	O	0.942208	0.316462	0.673289
O171	O	1.275541	0.649796	1.006622
N172	N	0.672871	-0.119858	0.341041
N173	N	1.006204	0.213475	0.674374
N174	N	1.339537	0.546808	1.007707
C175	C	0.707471	-0.175498	0.372839
C176	C	1.040804	0.157835	0.706173
C177	C	1.374138	0.491168	1.039506
O178	O	0.736891	-0.222831	0.339940
O179	O	1.070225	0.110503	0.673273
O180	O	1.403558	0.443836	1.006606
C181	C	0.707479	-0.175489	0.436446
C182	C	1.040812	0.157845	0.769779
C183	C	1.374145	0.491178	1.103112
C184	C	0.672883	-0.119844	0.468255
C185	C	1.006217	0.213489	0.801588
C186	C	1.339550	0.546822	1.134921
C187	C	0.603695	-0.008566	0.468270
C188	C	0.937028	0.324767	0.801603
C189	C	1.270361	0.658100	1.134937
C190	C	0.603699	-0.008564	0.531873
C191	C	0.937032	0.324770	0.865207
C192	C	1.270366	0.658103	1.198540
C193	C	0.638296	-0.064201	0.563667
C194	C	0.971629	0.269132	0.897001
C195	C	1.304962	0.602465	1.230334
C196	C	0.672888	-0.119842	0.531858
C197	C	1.006221	0.213492	0.865191
C198	C	1.339554	0.546825	1.198525
C199	C	0.742082	-0.231123	0.468243
C200	C	1.075415	0.102211	0.801576
C201	C	1.408748	0.435544	1.134910
C202	C	0.742087	-0.231108	0.531854
C203	C	1.075420	0.102226	0.865187
C204	C	1.408753	0.435559	1.198520
C205	C	0.707491	-0.175464	0.563663
C206	C	1.040825	0.157870	0.896996
C207	C	1.374158	0.491203	1.230330
C208	C	0.707488	-0.175477	0.627255
C209	C	1.040822	0.157857	0.960589
C210	C	1.374155	0.491190	1.293922
N211	N	0.672900	-0.119829	0.659068
N212	N	1.006233	0.213504	0.992401
N213	N	1.339566	0.546838	1.325734
C214	C	0.638303	-0.064191	0.627274
C215	C	0.971637	0.269142	0.960607
C216	C	1.304970	0.602475	1.293940
C217	C	0.707453	-0.175514	0.239261
C218	C	1.040786	0.157820	0.572595
C219	C	1.374120	0.491153	0.905928
C220	C	0.707443	-0.175529	0.175656
C221	C	1.040776	0.157804	0.508989
C222	C	1.374109	0.491138	0.842323
C223	C	0.638254	-0.064240	0.175675
C224	C	0.971588	0.269093	0.509008
C225	C	1.304921	0.602427	0.842341
C226	C	0.638262	-0.064230	0.239281
C227	C	0.971595	0.269103	0.572614
C228	C	1.304929	0.602437	0.905948
C229	C	0.672864	-0.119866	0.271074
C230	C	1.006198	0.213467	0.604407
C231	C	1.339531	0.546801	0.937741
C232	C	0.638315	-0.064191	0.760845
C233	C	0.971648	0.269143	1.094178
C234	C	1.304981	0.602476	1.427512
C235	C	0.638320	-0.064196	0.824454
C236	C	0.971654	0.269138	1.157787
C237	C	1.304987	0.602471	1.491121
C238	C	0.707511	-0.175481	0.824430
C239	C	1.040844	0.157853	1.157763
C240	C	1.374177	0.491186	1.491097
C241	C	0.707503	-0.175480	0.760827
C242	C	1.040836	0.157854	1.094160
C243	C	1.374170	0.491187	1.427493
C244	C	0.672903	-0.119827	0.729036
C245	C	1.006237	0.213506	1.062369
C246	C	1.339570	0.546839	1.395702
O247	O	0.736882	-0.222789	0.660194
O248	O	1.070215	0.110544	0.993527
O249	O	1.403549	0.443877	1.326860
O250	O	0.608893	-0.016858	0.660181
O251	O	0.942227	0.316475	0.993514
O252	O	1.275560	0.649809	1.326848
H253	H	-0.154245	-0.113469	-0.099882
H254	H	0.179089	0.219864	0.233451
H255	H	0.512422	0.553197	0.566785
H256	H	-0.154280	-0.113500	0.099996
H257	H	0.179053	0.219834	0.433329
H258	H	0.512386	0.553167	0.766663
H259	H	0.575522	0.036745	0.442390
H260	H	0.908855	0.370079	0.775724
H261	H	1.242189	0.703412	1.109057
H262	H	-0.046485	-0.115555	-0.099891
H263	H	0.286848	0.217778	0.233442
H264	H	0.620182	0.551111	0.566776
H265	H	0.770266	-0.276413	0.557736
H266	H	1.103599	0.056920	0.891069
H267	H	1.436932	0.390254	1.224403
H268	H	0.392266	-0.124127	-0.099905
H269	H	0.725599	0.209206	0.233429
H270	H	1.058933	0.542539	0.566762
H271	H	0.500041	-0.126231	-0.099901
H272	H	0.833374	0.207102	0.233432
H273	H	1.166707	0.540435	0.566765
H274	H	0.735665	-0.220803	0.734926
H275	H	1.068999	0.112530	1.068260
H276	H	1.402332	0.445864	1.401593
H277	H	0.226724	-0.120905	0.155073
H278	H	0.560058	0.212429	0.488407
H279	H	0.893391	0.545762	0.821740
H280	H	0.499996	-0.126281	0.099978
H281	H	0.833329	0.207052	0.433312
H282	H	1.166662	0.540386	0.766645
H283	H	0.735677	-0.220782	0.850328
H284	H	1.069010	0.112552	1.183661
H285	H	1.402344	0.445885	1.516995
H286	H	0.770254	-0.276433	0.442355
H287	H	1.103587	0.056901	0.775688
H288	H	1.436921	0.390234	1.109021
H289	H	0.610146	-0.018884	0.850350
H290	H	0.943479	0.314450	1.183683
H291	H	1.276813	0.647783	1.517017
H292	H	0.118966	-0.118804	0.155072
H293	H	0.452300	0.214529	0.488406
H294	H	0.785633	0.547863	0.821739
H295	H	0.119024	-0.118776	-0.154978
H296	H	0.452357	0.214557	0.178355
H297	H	0.785691	0.547891	0.511688
H298	H	0.392240	-0.124161	0.099984
H299	H	0.725573	0.209173	0.433317
H300	H	1.058906	0.542506	0.766650
H301	H	0.226778	-0.120873	-0.154981
H302	H	0.560111	0.212460	0.178352
H303	H	0.893444	0.545793	0.511686
H304	H	-0.046504	-0.115612	0.099998
H305	H	0.286829	0.217722	0.433331
H306	H	0.620162	0.551055	0.766665
H307	H	0.610140	-0.018873	0.734968
H308	H	0.943473	0.314460	1.068302
H309	H	1.276807	0.647793	1.401635
H310	H	0.575530	0.036751	0.557767
H311	H	0.908863	0.370084	0.891100
H312	H	1.242197	0.703418	1.224433
H313	H	0.610091	-0.018920	0.265176
H314	H	0.943425	0.314414	0.598509
H315	H	1.276758	0.647747	0.931843
H316	H	0.610084	-0.018937	0.149776
H317	H	0.943417	0.314397	0.483110
H318	H	1.276751	0.647730	0.816443
H319	H	0.735607	-0.220851	0.149762
H320	H	1.068940	0.112482	0.483096
H321	H	1.402273	0.445815	0.816429
H322	H	0.735629	-0.220828	0.265143
H323	H	1.068962	0.112506	0.598477
H324	H	1.402295	0.445839	0.931810
