data_functionalizedCrystal
_audit_creation_method	'MofGen! by Chris Wilmer'
_symmetry_space_group_name_H-M	'P1'
_symmetry_Int_Tables_number	1
_symmetry_cell_setting	triclinic
loop_
_symmetry_equiv_pos_as_xyz
  x,y,z
_cell_length_a	18.215407
_cell_length_b	12.827892
_cell_length_c	18.215399
_cell_angle_alpha	90.023838
_cell_angle_beta	90.019833
_cell_angle_gamma	90.015840
loop_
_atom_site_label
_atom_site_type_symbol
_atom_site_fract_x
_atom_site_fract_y
_atom_site_fract_z
Zn1	Zn	1.125121	-0.416031	0.416137
Zn2	Zn	1.125049	-0.590790	0.293079
Zn3	Zn	1.002053	-0.416065	0.293084
Zn4	Zn	1.002039	-0.590732	0.416104
O5	O	1.063566	-0.503405	0.354601
O6	O	1.228095	-0.439223	0.399825
O7	O	1.108710	-0.567651	0.190096
O8	O	1.018414	-0.269825	0.309423
O9	O	1.228043	-0.567618	0.309415
O10	O	1.108831	-0.269800	0.399829
O11	O	1.018345	-0.439282	0.190099
O12	O	0.899067	-0.439225	0.309392
O13	O	1.018390	-0.567519	0.519093
O14	O	0.899057	-0.567552	0.399774
O15	O	1.108818	-0.439167	0.519117
O16	O	1.108696	-0.737019	0.309383
O17	O	1.018321	-0.736976	0.399769
C18	C	0.872359	-0.503387	0.354580
C19	C	0.790560	-0.503405	0.354589
C20	C	0.602380	-0.570329	0.401592
C21	C	0.525522	-0.570333	0.401601
C22	C	0.525503	-0.436499	0.307627
C23	C	0.602360	-0.436491	0.307622
C24	C	0.640797	-0.503413	0.354603
C25	C	0.487081	-0.503424	0.354617
C26	C	0.403747	-0.503427	0.354627
C27	C	0.724136	-0.503408	0.354595
C28	C	1.063520	-0.774915	0.354588
C29	C	1.063567	-0.891068	0.354607
C30	C	1.108341	-0.942839	0.309931
C31	C	1.108391	-1.062889	0.309950
C32	C	1.255518	-0.503424	0.354623
C33	C	1.337317	-0.503432	0.354632
C34	C	1.063610	-0.503333	0.546554
C35	C	1.063629	-0.503302	0.628353
C36	C	1.063632	-0.230835	0.354630
C37	C	1.063660	-0.114682	0.354643
C38	C	1.063563	-0.503401	0.163395
C39	C	1.063687	-0.503138	0.081597
C40	C	1.110732	-0.436407	0.816561
C41	C	1.110741	-0.436376	0.893420
C42	C	1.016579	-0.570036	0.893383
C43	C	1.016567	-0.570060	0.816526
C44	C	1.063648	-0.503247	0.778117
C45	C	1.063668	-0.503192	0.931833
C46	C	1.063678	-0.503160	1.015167
C47	C	1.063638	-0.503278	0.694778
H48	H	0.633639	-0.381993	0.269358
C49	C	1.162537	-0.362857	0.935705
H50	H	1.190576	-0.323077	0.901820
H51	H	1.134403	-0.317309	0.965688
H52	H	1.194599	-0.402832	0.965687
C53	C	1.160173	-1.123027	0.258274
H54	H	1.153416	-1.195824	0.265068
H55	H	1.149435	-1.105245	0.208804
H56	H	1.209622	-1.105123	0.269079
C57	C	1.162509	-0.362903	0.774313
H58	H	1.190545	-0.323083	0.808220
H59	H	1.194563	-0.402880	0.744329
H60	H	1.134353	-0.317377	0.744335
C61	C	0.964799	-0.643534	0.935633
H62	H	0.936751	-0.683339	0.901727
H63	H	0.992946	-0.689058	0.965613
H64	H	0.932744	-0.603544	0.965614
C65	C	0.483267	-0.643939	0.453290
H66	H	0.517168	-0.683794	0.481265
H67	H	0.453307	-0.604022	0.485405
H68	H	0.453264	-0.689429	0.425085
H69	H	1.025275	-0.935621	0.392873
C70	C	0.964777	-0.643595	0.774235
H71	H	0.936748	-0.683395	0.808116
H72	H	0.932716	-0.603632	0.744250
H73	H	0.992923	-0.689139	0.744254
H74	H	0.633674	-0.624818	0.439849
C75	C	1.160077	-0.882662	0.258240
H76	H	1.153253	-0.809868	0.265006
H77	H	1.209536	-0.900428	0.269047
H78	H	1.149349	-0.900554	0.208772
H79	H	1.025323	-1.070167	0.392891
C80	C	0.483220	-0.362904	0.255944
H81	H	0.431944	-0.372500	0.262670
H82	H	0.495827	-0.292706	0.266791
H83	H	0.495796	-0.378121	0.206477
