data_functionalizedCrystal
_audit_creation_method	'MofGen! by Chris Wilmer'
_symmetry_space_group_name_H-M	'P1'
_symmetry_Int_Tables_number	1
_symmetry_cell_setting	triclinic
loop_
_symmetry_equiv_pos_as_xyz
  x,y,z
_cell_length_a	17.077404
_cell_length_b	11.169416
_cell_length_c	17.077396
_cell_angle_alpha	89.976843
_cell_angle_beta	89.980499
_cell_angle_gamma	90.010374
loop_
_atom_site_label
_atom_site_type_symbol
_atom_site_fract_x
_atom_site_fract_y
_atom_site_fract_z
Zn1	Zn	1.200124	-0.477800	-0.443872
Zn2	Zn	1.200060	-0.678512	-0.312618
Zn3	Zn	1.068856	-0.477842	-0.312620
Zn4	Zn	1.068853	-0.678440	-0.443842
O5	O	1.134473	-0.578149	-0.378238
O6	O	1.309963	-0.504437	-0.426473
O7	O	1.182630	-0.651940	-0.202771
O8	O	1.086297	-0.309887	-0.330044
O9	O	1.309916	-0.651899	-0.330041
O10	O	1.182739	-0.309856	-0.426474
O11	O	1.086235	-0.504509	-0.202773
O12	O	0.959009	-0.504440	-0.330015
O13	O	1.086292	-0.651778	-0.553693
O14	O	0.959007	-0.651818	-0.426423
O15	O	1.182736	-0.504368	-0.553715
O16	O	1.182628	-0.846452	-0.330012
O17	O	1.086230	-0.846400	-0.426421
C18	C	0.930526	-0.578127	-0.378216
C19	C	0.843276	-0.578146	-0.378225
C20	C	0.802305	-0.655002	-0.428345
C21	C	0.720325	-0.655005	-0.428357
C22	C	0.679316	-0.578157	-0.378246
C23	C	0.720293	-0.501292	-0.328125
C24	C	0.802272	-0.501285	-0.328117
C25	C	0.549423	-0.501316	-0.328143
C26	C	0.467438	-0.501325	-0.328150
C27	C	0.467476	-0.655036	-0.428384
C28	C	0.549455	-0.655029	-0.428376
C29	C	0.590425	-0.578165	-0.378253
C30	C	1.134443	-0.889973	-0.378230
C31	C	1.134502	-1.023373	-0.378253
C32	C	1.339218	-0.578171	-0.378260
C33	C	1.426467	-0.578181	-0.378269
C34	C	1.134521	-0.578060	-0.582982
C35	C	1.134541	-0.578022	-0.670232
C36	C	1.134525	-0.265106	-0.378263
C37	C	1.134547	-0.131706	-0.378273
C38	C	1.184761	-0.501260	-0.711235
C39	C	1.184771	-0.501220	-0.793215
C40	C	1.134563	-0.577949	-0.834191
C41	C	1.084337	-0.654715	-0.793183
C42	C	1.084325	-0.654748	-0.711204
C43	C	1.084369	-0.654643	-0.964053
C44	C	1.084383	-0.654612	-1.046038
C45	C	1.184815	-0.501115	-1.046065
C46	C	1.184802	-0.501148	-0.964086
C47	C	1.134577	-0.577916	-0.923083
C48	C	1.134471	-0.578150	-0.174290
C49	C	1.134603	-0.577850	-0.087041
H50	H	0.582779	-0.438715	-0.287335
H51	H	0.434113	-0.717618	-0.469198
H52	H	1.043498	-0.717090	-1.079398
C53	C	0.847407	-0.739543	-0.483472
N54	N	0.881375	-0.803219	-0.524997
C55	C	1.029101	-0.739107	-0.838259
N56	N	0.987495	-0.802673	-0.872210
H57	H	0.582841	-0.717612	-0.469177
C58	C	1.240063	-0.416668	-1.091169
N59	N	1.281676	-0.353069	-1.125146
C60	C	0.675181	-0.416755	-0.273004
N61	N	0.641203	-0.353083	-0.231483
H62	H	0.835629	-0.438694	-0.287308
C63	C	1.029080	-0.739196	-0.666101
N64	N	0.987466	-0.802802	-0.632130
C65	C	1.239994	-0.416848	-0.666169
N66	N	1.281594	-0.353263	-0.632227
H67	H	0.686970	-0.717590	-0.469169
H68	H	0.434051	-0.438734	-0.287355
H69	H	1.225667	-0.438715	-0.826596
H70	H	1.043458	-0.717137	-0.930671
C71	C	1.240032	-0.416739	-0.919014
N72	N	1.281628	-0.353155	-0.885065
