data_functionalizedCrystal
_audit_creation_method	'MofGen! by Chris Wilmer'
_symmetry_space_group_name_H-M	'P1'
_symmetry_Int_Tables_number	1
_symmetry_cell_setting	triclinic
loop_
_symmetry_equiv_pos_as_xyz
  x,y,z
_cell_length_a	19.077105
_cell_length_b	17.640280
_cell_length_c	17.640968
_cell_angle_alpha	65.682561
_cell_angle_beta	76.072762
_cell_angle_gamma	76.093206
loop_
_atom_site_label
_atom_site_type_symbol
_atom_site_fract_x
_atom_site_fract_y
_atom_site_fract_z
Zn1	Zn	1.206422	-0.279225	-0.444938
Zn2	Zn	1.206364	-0.444891	-0.279297
Zn3	Zn	1.067051	-0.301870	-0.301913
Zn4	Zn	1.107160	-0.413257	-0.413357
O5	O	1.146749	-0.359811	-0.359876
O6	O	1.306259	-0.304962	-0.426718
O7	O	1.171074	-0.448635	-0.166337
O8	O	1.068778	-0.182918	-0.343568
O9	O	1.306216	-0.426677	-0.305022
O10	O	1.171173	-0.166281	-0.448647
O11	O	1.068722	-0.343558	-0.182952
O12	O	0.972527	-0.312884	-0.312944
O13	O	1.137137	-0.372761	-0.533507
O14	O	1.001995	-0.394720	-0.394821
O15	O	1.210065	-0.274288	-0.556710
O16	O	1.209965	-0.556643	-0.274399
O17	O	1.137080	-0.533401	-0.372891
C18	C	0.961373	-0.352827	-0.352910
C19	C	0.882073	-0.349856	-0.349946
C20	C	0.860178	-0.391163	-0.391083
C21	C	0.785667	-0.388359	-0.388304
C22	C	0.733053	-0.344253	-0.344381
C23	C	0.754952	-0.302940	-0.303243
C24	C	0.829461	-0.305739	-0.306028
C25	C	0.508564	-0.331297	-0.331497
C26	C	0.434050	-0.328503	-0.328713
C27	C	0.464771	-0.413921	-0.413775
C28	C	0.539281	-0.416721	-0.416552
C29	C	0.561173	-0.375404	-0.375417
N30	N	0.656890	-0.341388	-0.341537
N31	N	0.637335	-0.378265	-0.378267
C32	C	1.177891	-0.575083	-0.317783
C33	C	1.191282	-0.667175	-0.299805
C34	C	1.045351	-0.909740	-0.496763
C35	C	1.057932	-0.996279	-0.479844
C36	C	1.133899	-1.020396	-0.377393
C37	C	1.121327	-0.933856	-0.394306
C38	C	1.077052	-0.878535	-0.453991
C39	C	1.153028	-0.902652	-0.351534
C40	C	1.140454	-0.816120	-0.368444
C41	C	1.096179	-0.760794	-0.428124
C42	C	1.064477	-0.792003	-0.470900
C43	C	1.197299	-0.957975	-0.291845
C44	C	1.229000	-0.926771	-0.249074
C45	C	1.216430	-0.840237	-0.265987
C46	C	1.172155	-0.784911	-0.325667
C47	C	1.248132	-0.809027	-0.223211
C48	C	1.235558	-0.722496	-0.240120
C49	C	1.159581	-0.698379	-0.342577
C50	C	1.332850	-0.366822	-0.366870
C51	C	1.412155	-0.369810	-0.369851
C52	C	1.178081	-0.317470	-0.576016
C53	C	1.191433	-0.299427	-0.668122
C54	C	1.115508	-0.143695	-0.402153
C55	C	1.102195	-0.051599	-0.420169
C56	C	1.045526	-0.496442	-0.910644
C57	C	1.058085	-0.479478	-0.997194
C58	C	1.134018	-0.376946	-1.021343
C59	C	1.121462	-0.393899	-0.934794
C60	C	1.077216	-0.453648	-0.879450
C61	C	1.153153	-0.351106	-0.903600
C62	C	1.140601	-0.368060	-0.817057
C63	C	1.096358	-0.427809	-0.761709
C64	C	1.064664	-0.470603	-0.792908
C65	C	1.197403	-0.291361	-0.958944
C66	C	1.229093	-0.248567	-0.927750
C67	C	1.216537	-0.265517	-0.841207
C68	C	1.172295	-0.325266	-0.785858
C69	C	1.248232	-0.222723	-0.810008
C70	C	1.235679	-0.239678	-0.723465
C71	C	1.159743	-0.342220	-0.699316
C72	C	1.115572	-0.401929	-0.144590
C73	C	1.102324	-0.419743	-0.052536
H74	H	0.767845	-0.421997	-0.421801
H75	H	0.582117	-0.452639	-0.452316
H76	H	1.261371	-0.697090	-0.205290
H77	H	1.086142	-0.441615	-0.691240
H78	H	1.032124	-1.021679	-0.514688
H79	H	1.207623	-0.277560	-1.029411
H80	H	1.265121	-0.199922	-0.972822
H81	H	0.847286	-0.272097	-0.272535
H82	H	1.009476	-0.545075	-0.865583
F83	F	1.276121	-0.985656	-0.185555
F84	F	1.017565	-0.534189	-0.734003
H85	H	0.446937	-0.447557	-0.447266
F86	F	0.378053	-0.281562	-0.281957
F87	F	1.181019	-1.079281	-0.313874
H88	H	1.207537	-1.028434	-0.278082
F89	F	0.916170	-0.438113	-0.437826
H90	H	1.284175	-0.854084	-0.174609
F91	F	1.181109	-0.313362	-1.080251
H92	H	0.712106	-0.267023	-0.267485
F93	F	1.112644	-0.405806	-0.640411
H94	H	1.085936	-0.690336	-0.441885
F95	F	1.017361	-0.733120	-0.534432
H96	H	0.526379	-0.297661	-0.297995
F97	F	1.024350	-0.525027	-1.030389
H98	H	1.123534	-0.653332	-0.391185
F99	F	1.269410	-0.194134	-0.690264
F100	F	0.998234	-0.850856	-0.560294
F101	F	1.295328	-0.159144	-0.868916
