data_functionalizedCrystal
_audit_creation_method	'MofGen! by Chris Wilmer'
_symmetry_space_group_name_H-M	'P1'
_symmetry_Int_Tables_number	1
_symmetry_cell_setting	triclinic
loop_
_symmetry_equiv_pos_as_xyz
  x,y,z
_cell_length_a	23.532361
_cell_length_b	23.532407
_cell_length_c	15.072220
_cell_angle_alpha	90.014049
_cell_angle_beta	89.999371
_cell_angle_gamma	97.160831
loop_
_atom_site_label
_atom_site_type_symbol
_atom_site_fract_x
_atom_site_fract_y
_atom_site_fract_z
O1	O	0.755277	-0.069011	-0.073705
O2	O	1.255277	0.430989	0.426295
O3	O	0.589410	-0.079042	-0.073728
O4	O	1.089410	0.420958	0.426272
O5	O	0.677345	0.008906	-0.073696
O6	O	1.177345	0.508906	0.426304
O7	O	0.667341	-0.156959	-0.073736
O8	O	1.167341	0.343041	0.426264
O9	O	0.677337	0.008914	0.073869
O10	O	1.177337	0.508914	0.573869
O11	O	0.589402	-0.079034	0.073837
O12	O	1.089402	0.420966	0.573837
O13	O	0.755269	-0.069003	0.073860
O14	O	1.255269	0.430997	0.573860
Zn15	Zn	0.672334	-0.074017	0.097278
Zn16	Zn	1.172334	0.425983	0.597278
Zn17	Zn	0.672344	-0.074028	-0.097146
Zn18	Zn	1.172344	0.425972	0.402854
O19	O	0.667334	-0.156951	0.073829
O20	O	1.167334	0.343049	0.573829
C21	C	0.568189	-0.078787	0.000052
C22	C	1.068189	0.421213	0.500052
C23	C	0.504971	-0.078032	0.000044
C24	C	1.004971	0.421968	0.500044
C25	C	0.231731	-0.074733	-0.080387
C26	C	0.731731	0.425267	0.419613
C27	C	0.291131	-0.075448	-0.080390
C28	C	0.791131	0.424552	0.419610
O29	O	0.321860	-0.075801	-0.148798
O30	O	0.821860	0.424199	0.351202
N31	N	0.320832	-0.075804	0.000048
N32	N	0.820832	0.424196	0.500048
C33	C	0.291132	-0.075440	0.080494
C34	C	0.791132	0.424560	0.580494
O35	O	0.321850	-0.075809	0.148912
O36	O	0.821850	0.424191	0.648912
C37	C	0.231734	-0.074721	0.080495
C38	C	0.731734	0.425279	0.580495
C39	C	0.202035	-0.074370	0.000052
C40	C	0.702035	0.425630	0.500052
C41	C	0.202032	-0.074381	-0.160824
C42	C	0.702032	0.425619	0.339176
C43	C	0.142636	-0.073667	-0.160821
C44	C	0.642636	0.426333	0.339179
C45	C	0.112940	-0.073305	-0.080382
C46	C	0.612940	0.426695	0.419618
C47	C	0.142639	-0.073657	0.000055
C48	C	0.642639	0.426343	0.500055
C49	C	0.202035	-0.074353	0.160940
C50	C	0.702035	0.425647	0.660940
C51	C	0.142633	-0.073634	0.160934
C52	C	0.642633	0.426366	0.660934
C53	C	0.112934	-0.073283	0.080491
C54	C	0.612934	0.426717	0.580491
C55	C	0.053546	-0.072580	0.080497
C56	C	0.553546	0.427420	0.580497
N57	N	0.023845	-0.072224	0.000059
N58	N	0.523845	0.427776	0.500059
C59	C	0.053541	-0.072586	-0.080381
C60	C	0.553541	0.427414	0.419619
C61	C	0.415872	-0.076949	0.080485
C62	C	0.915872	0.423051	0.580485
C63	C	0.475269	-0.077672	0.080484
C64	C	0.975269	0.422328	0.580484
C65	C	0.475264	-0.077679	-0.080400
C66	C	0.975264	0.422321	0.419600
C67	C	0.415865	-0.076960	-0.080398
C68	C	0.915865	0.423040	0.419602
C69	C	0.386171	-0.076593	0.000047
C70	C	0.886171	0.423407	0.500047
C71	C	-0.071194	-0.071087	-0.080369
C72	C	0.428806	0.428913	0.419631
C73	C	-0.130595	-0.070376	-0.080359
C74	C	0.369405	0.429624	0.419641
C75	C	-0.130585	-0.070367	0.080524
C76	C	0.369415	0.429633	0.580524
C77	C	-0.071189	-0.071081	0.080515
C78	C	0.428811	0.428919	0.580515
C79	C	-0.041495	-0.071440	0.000061
C80	C	0.458505	0.428560	0.500061
O81	O	0.022780	-0.072224	0.148870
O82	O	0.522780	0.427776	0.648870
O83	O	0.022817	-0.072210	-0.148788
O84	O	0.522817	0.427790	0.351212
C85	C	0.677086	0.030126	0.000089
C86	C	1.177086	0.530126	0.500089
C87	C	0.676320	0.093343	0.000098
C88	C	1.176320	0.593343	0.500098
C89	C	0.723555	0.492454	0.000071
C90	C	1.223555	0.992454	0.500071
C91	C	0.722844	0.551854	0.000066
C92	C	1.222844	1.051854	0.500066
O93	O	0.766630	0.588606	0.000040
O94	O	1.266630	1.088606	0.500040
N95	N	0.670566	0.574471	0.000060
N96	N	1.170566	1.074471	0.500060
C97	C	0.618997	0.537685	0.000050
C98	C	1.118997	1.037685	0.500050
O99	O	0.574465	0.562377	0.000044
O100	O	1.074465	1.062377	0.500044
C101	C	0.619709	0.478286	0.000049
C102	C	1.119709	0.978286	0.500049
C103	C	0.671990	0.455672	0.000063
C104	C	1.171990	0.955672	0.500063
C105	C	0.775832	0.469839	0.000084
C106	C	1.275832	0.969839	0.500084
C107	C	0.776543	0.410443	0.000090
C108	C	1.276543	0.910443	0.500090
C109	C	0.724977	0.373662	0.000083
C110	C	1.224977	0.873662	0.500083
C111	C	0.672701	0.396276	0.000069
C112	C	1.172701	0.896276	0.500069
C113	C	0.568140	0.441501	0.000032
C114	C	1.068140	0.941501	0.500032
C115	C	0.568857	0.382099	0.000030
C116	C	1.068857	0.882099	0.500030
C117	C	0.621137	0.359485	0.000044
C118	C	1.121137	0.859485	0.500044
C119	C	0.621847	0.300099	0.000068
C120	C	1.121847	0.800099	0.500068
N121	N	0.674124	0.277481	0.000074
N122	N	1.174124	0.777481	0.500074
C123	C	0.725690	0.314263	0.000081
C124	C	1.225690	0.814263	0.500081
C125	C	0.617505	0.662427	0.000052
C126	C	1.117505	1.162427	0.500052
C127	C	0.616793	0.721825	0.000060
C128	C	1.116793	1.221825	0.500060
C129	C	0.720640	0.735990	0.000074
C130	C	1.220640	1.235990	0.500074
C131	C	0.721352	0.676591	0.000073
C132	C	1.221352	1.176591	0.500073
C133	C	0.669783	0.639810	0.000058
C134	C	1.169783	1.139810	0.500058
C135	C	0.727179	0.189526	0.000095
C136	C	1.227179	0.689526	0.500095
C137	C	0.727886	0.130124	0.000105
C138	C	1.227886	0.630124	0.500105
C139	C	0.624039	0.115965	0.000087
C140	C	1.124039	0.615965	0.500087
C141	C	0.623332	0.175361	0.000081
C142	C	1.123332	0.675361	0.500081
C143	C	0.674907	0.212141	0.000083
C144	C	1.174907	0.712141	0.500083
O145	O	0.578083	0.263312	0.000090
O146	O	1.078083	0.763312	0.500090
O147	O	0.770214	0.289562	0.000076
O148	O	1.270214	0.789562	0.500076
C149	C	0.776489	-0.069258	0.000078
C150	C	1.276489	0.430742	0.500078
C151	C	0.839708	-0.070014	0.000080
C152	C	1.339708	0.429986	0.500080
C153	C	0.667592	0.821829	0.000050
C154	C	1.167592	1.321829	0.500050
C155	C	0.668358	0.758612	0.000063
C156	C	1.168358	1.258612	0.500063
N157	N	0.672332	-0.074010	0.229967
N158	N	1.172332	0.425990	0.729967
N159	N	0.672351	-0.074031	-0.229834
N160	N	1.172351	0.425969	0.270166
C161	C	0.672338	-0.074017	0.410964
C162	C	1.172338	0.425983	0.910964
C163	C	0.719402	-0.026974	0.448622
C164	C	1.219402	0.473026	0.948622
C165	C	0.719571	-0.027097	0.551448
C166	C	1.219571	0.472903	1.051448
C167	C	0.672345	-0.074024	0.589168
C168	C	1.172345	0.425976	1.089168
C169	C	0.684742	-0.133447	0.551810
C170	C	1.184742	0.366553	1.051810
C171	C	0.685075	-0.133167	0.448953
C172	C	1.185075	0.366833	0.948953
C173	C	0.612735	-0.062174	0.448879
C174	C	1.112735	0.437826	0.948879
C175	C	0.613147	-0.060825	0.551743
C176	C	1.113147	0.439175	1.051743
C177	C	0.672347	-0.074031	0.689882
C178	C	1.172347	0.425969	1.189882
C179	C	0.672337	-0.074014	0.310251
C180	C	1.172337	0.425986	0.810251
H181	H	0.226205	-0.074674	-0.226331
H182	H	0.726205	0.425326	0.273669
F183	F	0.710030	0.030964	0.416320
F184	F	1.210030	0.530964	0.916320
H185	H	0.712275	0.017078	0.576708
H186	H	1.212275	0.517078	1.076708
H187	H	0.582056	0.086007	0.000084
H188	H	1.082056	0.586007	0.500084
F189	F	-0.162201	-0.070004	-0.165982
F190	F	0.337799	0.429996	0.334018
H191	H	0.763394	-0.034414	0.422760
H192	H	1.263394	0.465586	0.922760
H193	H	-0.047008	-0.071378	0.146018
H194	H	0.452992	0.428622	0.646018
F195	F	0.832188	0.386384	0.000087
F196	F	1.332188	0.886384	0.500087
F197	F	-0.162201	-0.069983	0.166129
F198	F	0.337799	0.430017	0.666129
F199	F	0.777399	-0.036979	0.583612
F200	F	1.277399	0.463021	1.083612
H201	H	0.770461	0.111716	0.000120
H202	H	1.270461	0.611716	0.500120
F203	F	0.741868	-0.146832	0.417588
F204	F	1.241868	0.353168	0.917588
H205	H	0.651977	-0.169136	0.424038
H206	H	1.151977	0.330864	0.924038
F207	F	0.776996	0.652529	0.000088
F208	F	1.276996	1.152529	0.500088
H209	H	0.651351	-0.169294	0.576240
H210	H	1.151351	0.330706	1.076240
H211	H	0.580761	0.193774	0.000094
H212	H	1.080761	0.693774	0.500094
H213	H	0.727693	-0.144162	0.577568
H214	H	1.227693	0.355838	1.077568
F215	F	0.782071	0.228662	0.000097
F216	F	1.282071	0.728662	0.500097
F217	F	0.111036	-0.073290	-0.246441
F218	F	0.611036	0.426710	0.253559
H219	H	0.817825	0.499782	0.000087
H220	H	1.317825	0.999782	0.500087
F221	F	0.506869	-0.078057	0.166103
F222	F	1.006869	0.421943	0.666103
H223	H	0.600678	-0.019774	0.422954
H224	H	1.100678	0.480226	0.922954
H225	H	0.762627	0.765949	0.000077
H226	H	1.262627	1.265949	0.500077
H227	H	0.603726	-0.017111	0.576162
H228	H	1.103726	0.482889	1.076162
H229	H	0.391688	-0.076674	-0.145902
H230	H	0.891688	0.423326	0.354098
H231	H	0.574220	0.740232	0.000064
H232	H	1.074220	1.240232	0.500064
H233	H	0.576528	-0.092880	0.577417
H234	H	1.076528	0.407120	1.077417
H235	H	0.525567	0.459902	0.000015
H236	H	1.025567	0.959902	0.500015
F237	F	-0.039600	-0.071469	-0.165997
F238	F	0.460400	0.428531	0.334003
F239	F	0.384273	-0.076565	0.166111
F240	F	0.884273	0.423435	0.666111
F241	F	0.506879	-0.078065	-0.166011
F242	F	1.006879	0.421935	0.333989
F243	F	0.233630	-0.074727	0.246560
F244	F	0.733630	0.425273	0.746560
F245	F	0.566966	-0.107016	0.417044
F246	F	1.066966	0.392984	0.917044
F247	F	0.513968	0.342956	0.000012
F248	F	1.013968	0.842956	0.500012
F249	F	0.562615	0.623286	0.000045
F250	F	1.062615	1.123286	0.500045
F251	F	0.111033	-0.073240	0.246558
F252	F	0.611033	0.426760	0.746558
