data_functionalizedCrystal
_audit_creation_method	'MofGen! by Chris Wilmer'
_symmetry_space_group_name_H-M	'P1'
_symmetry_Int_Tables_number	1
_symmetry_cell_setting	triclinic
loop_
_symmetry_equiv_pos_as_xyz
  x,y,z
_cell_length_a	10.686220
_cell_length_b	18.050582
_cell_length_c	10.686203
_cell_angle_alpha	94.388161
_cell_angle_beta	89.645579
_cell_angle_gamma	94.355462
loop_
_atom_site_label
_atom_site_type_symbol
_atom_site_fract_x
_atom_site_fract_y
_atom_site_fract_z
Zn1	Zn	1.956062	-0.315837	0.352152
Zn2	Zn	2.289396	0.017496	0.685485
Zn3	Zn	2.622729	0.350829	1.018819
Zn4	Zn	1.972049	-0.181476	0.561918
Zn5	Zn	2.305383	0.151857	0.895252
Zn6	Zn	2.638716	0.485191	1.228585
Zn7	Zn	1.746309	-0.200394	0.368286
Zn8	Zn	2.079642	0.132940	0.701619
Zn9	Zn	2.412975	0.466273	1.034952
Zn10	Zn	1.762353	-0.314357	0.577976
Zn11	Zn	2.095687	0.018976	0.911309
Zn12	Zn	2.429020	0.352309	1.244643
O13	O	1.859193	-0.253016	0.465083
O14	O	2.192527	0.080317	0.798416
O15	O	2.525860	0.413651	1.131750
O16	O	2.133724	-0.290716	0.366506
O17	O	2.467058	0.042617	0.699839
O18	O	2.800391	0.375950	1.033173
O19	O	1.942080	-0.080060	0.536265
O20	O	2.275414	0.253273	0.869598
O21	O	2.608747	0.586606	1.202931
O22	O	1.760728	-0.224244	0.190601
O23	O	2.094061	0.109089	0.523935
O24	O	2.427394	0.442423	0.857268
O25	O	2.145470	-0.192002	0.520620
O26	O	2.478803	0.141332	0.853954
O27	O	2.812136	0.474665	1.187287
O28	O	1.914833	-0.309060	0.178748
O29	O	2.248166	0.024273	0.512082
O30	O	2.581500	0.357606	0.845415
O31	O	1.776230	-0.093959	0.394003
O32	O	2.109563	0.239374	0.727337
O33	O	2.442896	0.572707	1.060670
O34	O	1.572896	-0.222809	0.409574
O35	O	1.906229	0.110524	0.742907
O36	O	2.239563	0.443858	1.076240
O37	O	1.788073	-0.418479	0.547988
O38	O	2.121407	-0.085145	0.881321
O39	O	2.454740	0.248188	1.214655
O40	O	1.584684	-0.306537	0.563632
O41	O	1.918017	0.026796	0.896965
O42	O	2.251350	0.360129	1.230299
O43	O	1.930391	-0.419566	0.382076
O44	O	2.263724	-0.086233	0.715410
O45	O	2.597057	0.247101	1.048743
O46	O	1.957638	-0.190566	0.739593
O47	O	2.290971	0.142767	1.072926
O48	O	2.624305	0.476100	1.406259
O49	O	1.803575	-0.288194	0.751390
O50	O	2.136908	0.045140	1.084723
O51	O	2.470242	0.378473	1.418057
C52	C	1.533274	-0.266566	0.490097
C53	C	1.866607	0.066768	0.823430
C54	C	2.199941	0.400101	1.156764
C55	C	1.393847	-0.272379	0.500828
C56	C	1.727180	0.060955	0.834162
C57	C	2.060513	0.394288	1.167495
C58	C	1.859238	-0.446722	0.465024
C59	C	2.192572	-0.113389	0.798357
C60	C	2.525905	0.219944	1.131690
C61	C	1.859257	-0.529269	0.464998
C62	C	2.192591	-0.195935	0.798332
C63	C	2.525924	0.137398	1.131665
C64	C	1.781921	-0.728131	0.555102
C65	C	2.115254	-0.394797	0.888435
C66	C	2.448587	-0.061464	1.221768
C67	C	1.898726	-0.771269	0.576972
C68	C	2.232059	-0.437936	0.910306
C69	C	2.565393	-0.104603	1.243639
C70	C	1.859312	-0.680401	0.464898
C71	C	2.192645	-0.347068	0.798231
C72	C	2.525979	-0.013734	1.131564
C73	C	1.742567	-0.784343	0.442988
C74	C	2.075900	-0.451010	0.776321
C75	C	2.409234	-0.117677	1.109654
C76	C	1.859355	-0.826389	0.464804
C77	C	2.192688	-0.493055	0.798137
C78	C	2.526021	-0.159722	1.131471
C79	C	1.976182	-0.722447	0.486824
C80	C	2.309515	-0.389114	0.820157
C81	C	2.642848	-0.055780	1.153490
C82	C	1.819942	-0.735522	0.352792
C83	C	2.153275	-0.402189	0.686125
C84	C	2.486608	-0.068856	1.019458
C85	C	1.936823	-0.778637	0.374613
C86	C	2.270156	-0.445304	0.707946
C87	C	2.603489	-0.111971	1.041279
C88	C	1.859286	-0.596301	0.464955
C89	C	2.192619	-0.262968	0.798289
C90	C	2.525953	0.070365	1.131622
C91	C	1.859394	-0.910486	0.464745
C92	C	2.192727	-0.577153	0.798079
C93	C	2.526060	-0.243819	1.131412
C94	C	2.186386	-0.239414	0.439972
C95	C	2.519719	0.093919	0.773306
C96	C	2.853052	0.427253	1.106639
C97	C	2.325815	-0.233617	0.429272
C98	C	2.659149	0.099716	0.762605
C99	C	2.992482	0.433049	1.095938
C100	C	1.884116	-0.237181	0.791005
C101	C	2.217450	0.096152	1.124339
C102	C	2.550783	0.429485	1.457672
C103	C	1.894893	-0.230427	0.930427
C104	C	2.228227	0.102906	1.263761
C105	C	2.561560	0.436239	1.597094
C106	C	1.859214	-0.060065	0.465046
C107	C	2.192547	0.273269	0.798379
C108	C	2.525881	0.606602	1.131713
C109	C	1.859411	0.022474	0.464699
C110	C	2.192744	0.355807	0.798033
C111	C	2.526077	0.689141	1.131366
C112	C	1.834169	-0.268921	1.137889
C113	C	2.167502	0.064412	1.471222
C114	C	2.500835	0.397745	1.804555
C115	C	1.823406	-0.275683	0.998465
C116	C	2.156739	0.057650	1.331799
C117	C	2.490073	0.390983	1.665132
H118	H	1.345420	-0.310008	0.570312
H119	H	1.678753	0.023325	0.903646
H120	H	2.012086	0.356658	1.236979
H121	H	1.716547	-0.705966	0.631472
H122	H	2.049880	-0.372632	0.964805
H123	H	2.383214	-0.039299	1.298138
H124	H	1.964332	-0.186509	0.978840
H125	H	2.297665	0.146824	1.312173
H126	H	2.630998	0.480158	1.645506
H127	H	1.932052	-0.787196	0.671737
H128	H	2.265385	-0.453863	1.005070
H129	H	2.598718	-0.120529	1.338404
C130	C	1.729591	-0.335016	0.933068
C131	C	2.062925	-0.001683	1.266401
C132	C	2.396258	0.331650	1.599734
H133	H	1.734421	-0.331934	0.844795
H134	H	2.067754	0.001400	1.178128
H135	H	2.401088	0.334733	1.511462
H136	H	1.646960	-0.326584	0.961030
H137	H	1.980293	0.006749	1.294363
H138	H	2.313627	0.340083	1.627697
H139	H	1.749538	-0.383141	0.953017
H140	H	2.082871	-0.049808	1.286350
H141	H	2.416204	0.283526	1.619684
C142	C	1.774881	-0.713977	0.224818
C143	C	2.108215	-0.380644	0.558152
C144	C	2.441548	-0.047311	0.891485
H145	H	1.691858	-0.735295	0.209411
H146	H	2.025191	-0.401961	0.542744
H147	H	2.358524	-0.068628	0.876078
H148	H	1.829025	-0.732067	0.160561
H149	H	2.162359	-0.398733	0.493895
H150	H	2.495692	-0.065400	0.827228
H151	H	1.775930	-0.661273	0.225544
H152	H	2.109264	-0.327939	0.558877
H153	H	2.442597	0.005394	0.892211
H154	H	2.074966	-0.695552	0.505425
H155	H	2.408300	-0.362218	0.838758
H156	H	2.741633	-0.028885	1.172091
H157	H	1.374237	-0.195985	0.359800
H158	H	1.707570	0.137349	0.693134
H159	H	2.040904	0.470682	1.026467
H160	H	1.643819	-0.811323	0.424494
H161	H	1.977152	-0.477990	0.757828
H162	H	2.310486	-0.144657	1.091161
H163	H	2.002370	-0.800657	0.298284
H164	H	2.335703	-0.467323	0.631617
H165	H	2.669037	-0.133990	0.964950
