data_functionalizedCrystal
_audit_creation_method	'MofGen! by Chris Wilmer'
_symmetry_space_group_name_H-M	'P1'
_symmetry_Int_Tables_number	1
_symmetry_cell_setting	triclinic
loop_
_symmetry_equiv_pos_as_xyz
  x,y,z
_cell_length_a	14.044220
_cell_length_b	15.944545
_cell_length_c	13.101039
_cell_angle_alpha	93.360364
_cell_angle_beta	86.340132
_cell_angle_gamma	88.342525
loop_
_atom_site_label
_atom_site_type_symbol
_atom_site_fract_x
_atom_site_fract_y
_atom_site_fract_z
O1	O	1.262923	0.198266	-0.085114
O2	O	1.762923	0.698266	0.414886
O3	O	0.986955	0.190957	-0.085140
O4	O	1.486955	0.690957	0.414860
O5	O	1.132477	0.072901	-0.085114
O6	O	1.632477	0.572901	0.414886
O7	O	1.117400	0.316321	-0.085140
O8	O	1.617400	0.816321	0.414860
O9	O	1.122036	0.081387	0.085314
O10	O	1.622036	0.581387	0.585314
O11	O	0.976514	0.199443	0.085288
O12	O	1.476514	0.699443	0.585288
O13	O	1.252481	0.206752	0.085314
O14	O	1.752481	0.706752	0.585314
Zn15	Zn	1.112840	0.204444	0.112360
Zn16	Zn	1.612840	0.704444	0.612360
Zn17	Zn	1.126596	0.193264	-0.112186
Zn18	Zn	1.626596	0.693264	0.387814
O19	O	1.106959	0.324807	0.085288
O20	O	1.606959	0.824807	0.585288
C21	C	0.946420	0.192001	0.000071
C22	C	1.446420	0.692001	0.500071
C23	C	0.841194	0.182459	0.000062
C24	C	1.341194	0.682459	0.500062
C25	C	1.126631	0.045803	0.000101
C26	C	1.626631	0.545803	0.500101
C27	C	1.124758	-0.047583	0.000103
C28	C	1.624758	0.452417	0.500103
C29	C	0.648531	0.165017	0.000084
C30	C	1.148531	0.665017	0.500084
C31	C	0.590900	0.232688	0.000081
C32	C	1.090900	0.732688	0.500081
C33	C	0.483696	0.222982	0.000093
C34	C	0.983696	0.722982	0.500093
C35	C	0.755745	0.174721	0.000072
C36	C	1.255745	0.674721	0.500072
C37	C	1.028959	-0.325390	0.000074
C38	C	1.528959	0.174610	0.500074
C39	C	1.080294	-0.275530	-0.083952
C40	C	1.580294	0.224470	0.416048
C41	C	1.118078	-0.383729	0.000074
C42	C	1.618078	0.116271	0.500074
C43	C	1.070024	-0.267189	0.084076
C44	C	1.570024	0.232811	0.584076
C45	C	1.121355	-0.218569	0.000090
C46	C	1.621355	0.281431	0.500090
C47	C	1.169394	-0.335102	-0.084022
C48	C	1.669394	0.164898	0.415978
C49	C	1.159106	-0.326762	0.084082
C50	C	1.659106	0.173238	0.584082
C51	C	1.210508	-0.276930	0.000036
C52	C	1.710508	0.223070	0.500036
C53	C	1.116188	-0.478873	0.000063
C54	C	1.616188	0.021127	0.500063
C55	C	1.123253	-0.123427	0.000093
C56	C	1.623253	0.376573	0.500093
C57	C	1.293016	0.205707	0.000101
C58	C	1.793016	0.705707	0.500101
C59	C	1.398242	0.215249	0.000103
C60	C	1.898242	0.715249	0.500103
C61	C	1.112805	0.351905	0.000071
C62	C	1.612805	0.851905	0.500071
C63	C	1.114679	0.445291	0.000061
C64	C	1.614679	0.945291	0.500061
N65	N	1.103458	0.212075	0.265607
N66	N	1.603458	0.712075	0.765607
N67	N	1.135985	0.185628	-0.265433
N68	N	1.635985	0.685628	0.234567
C69	C	1.090694	0.222463	0.474647
C70	C	1.590694	0.722463	0.974647
C71	C	1.148746	0.175242	0.525533
C72	C	1.648746	0.675242	1.025533
C73	C	1.141644	0.181022	0.641850
C74	C	1.641644	0.681022	1.141850
C75	C	1.097795	0.216684	0.358320
C76	C	1.597795	0.716684	0.858320
H77	H	0.622075	0.297911	0.000069
H78	H	1.122075	0.797911	0.500069
H79	H	0.617358	0.099799	0.000096
H80	H	1.117358	0.599799	0.500096
H81	H	0.952214	-0.346794	-0.000015
H82	H	1.452214	0.153206	0.499985
H83	H	1.047009	-0.252951	-0.154998
H84	H	1.547009	0.247049	0.345002
H85	H	1.211360	-0.364633	-0.155138
H86	H	1.711360	0.135367	0.344862
H87	H	1.287320	-0.255690	-0.000005
H88	H	1.787320	0.244310	0.499995
H89	H	1.192358	-0.349358	0.155130
H90	H	1.692358	0.150642	0.655130
H91	H	1.035665	0.267230	0.518435
H92	H	1.535665	0.767230	1.018435
H93	H	1.203781	0.130473	0.481741
H94	H	1.703781	0.630473	0.981741
H95	H	1.028019	-0.237558	0.155112
H96	H	1.528019	0.262442	0.655112
