data_functionalizedCrystal
_audit_creation_method	'MofGen! by Chris Wilmer'
_symmetry_space_group_name_H-M	'P1'
_symmetry_Int_Tables_number	1
_symmetry_cell_setting	triclinic
loop_
_symmetry_equiv_pos_as_xyz
  x,y,z
_cell_length_a	12.827893
_cell_length_b	19.121063
_cell_length_c	12.827885
_cell_angle_alpha	87.596033
_cell_angle_beta	90.019272
_cell_angle_gamma	92.468878
loop_
_atom_site_label
_atom_site_type_symbol
_atom_site_fract_x
_atom_site_fract_y
_atom_site_fract_z
Zn1	Zn	1.579835	-0.279579	0.608539
Zn2	Zn	1.572236	-0.397046	0.441232
Zn3	Zn	1.405075	-0.279614	0.433815
Zn4	Zn	1.397572	-0.396994	0.615928
O5	O	1.488680	-0.338308	0.524878
O6	O	1.725063	-0.295169	0.586357
O7	O	1.550022	-0.381505	0.294014
O8	O	1.434577	-0.181325	0.450796
O9	O	1.719480	-0.381471	0.463437
O10	O	1.562973	-0.181300	0.579165
O11	O	1.427209	-0.295227	0.288565
O12	O	1.257844	-0.295177	0.457961
O13	O	1.421790	-0.381382	0.761182
O14	O	1.252332	-0.381415	0.591759
O15	O	1.555698	-0.295118	0.755753
O16	O	1.542747	-0.495323	0.470602
O17	O	1.414422	-0.495285	0.598951
C18	C	1.217171	-0.338295	0.524858
C19	C	1.101017	-0.338306	0.524875
C20	C	1.046528	-0.381046	0.590989
C21	C	0.926477	-0.381059	0.591008
C22	C	1.476974	-0.520788	0.536406
C23	C	1.472062	-0.598854	0.541373
C24	C	1.536618	-0.635526	0.476937
C25	C	1.532005	-0.708877	0.481615
C26	C	1.462829	-0.745554	0.550723
C27	C	1.398270	-0.708877	0.615166
C28	C	1.402890	-0.635528	0.610493
C29	C	1.445540	-0.967023	0.568177
C30	C	1.440923	-1.040378	0.572842
C31	C	1.574660	-1.040373	0.439292
C32	C	1.579269	-0.967021	0.434621
C33	C	1.514714	-0.930351	0.499067
C34	C	1.458109	-0.820531	0.555503
C35	C	1.519440	-0.855375	0.494292
C36	C	1.761249	-0.338322	0.524900
C37	C	1.877402	-0.338328	0.524909
C38	C	1.488755	-0.338241	0.797445
C39	C	1.488787	-0.338212	0.913596
C40	C	1.500460	-0.155116	0.513328
C41	C	1.505479	-0.077050	0.508407
C42	C	1.488668	-0.338325	0.253370
C43	C	1.488851	-0.338156	0.137206
C44	C	1.555057	-0.295518	0.962694
C45	C	1.555091	-0.295487	1.082742
H46	H	1.058790	-0.301721	0.468290
H47	H	1.341950	-0.738746	0.671440
H48	H	0.879628	-0.417652	0.647607
H49	H	0.924244	-0.301737	0.468300
O50	O	1.097017	-0.424593	0.658547
C51	C	1.162722	-0.384614	0.723565
H52	H	1.182353	-0.331346	0.683457
H53	H	1.237699	-0.413177	0.739222
H54	H	1.121247	-0.376990	0.800589
H55	H	1.592944	-0.605668	0.420657
H56	H	1.584572	-0.738732	0.429143
O57	O	1.340331	-0.599869	0.673193
C58	C	1.402473	-0.557360	0.738012
H59	H	1.483383	-0.579419	0.745942
H60	H	1.364691	-0.556503	0.818348
H61	H	1.409594	-0.501786	0.702164
O62	O	1.622880	-0.251855	1.132954
C63	C	1.684443	-0.212174	1.058995
H64	H	1.686263	-0.240914	0.982976
H65	H	1.767239	-0.204696	1.090146
H66	H	1.649610	-0.158827	1.044060
O67	O	1.421275	-0.381871	0.969516
C68	C	1.477935	-0.427170	1.035532
H69	H	1.559921	-0.431537	1.002856
H70	H	1.436670	-0.481219	1.040281
H71	H	1.483029	-0.405384	1.116839
H72	H	1.384604	-1.070239	0.629137
O73	O	1.646568	-0.931504	0.367471
C74	C	1.702544	-0.979601	0.311584
H75	H	1.702842	-1.031864	0.357716
H76	H	1.786224	-0.958370	0.299167
H77	H	1.663831	-0.987463	0.232680
H78	H	1.627218	-1.070238	0.386825
H79	H	1.575767	-0.825511	0.438028
O80	O	1.382713	-0.931516	0.630802
C81	C	1.320680	-0.979620	0.692808
H82	H	1.313806	-1.031931	0.653332
H83	H	1.239664	-0.958472	0.702520
H84	H	1.358404	-0.987355	0.772708
O85	O	1.391047	-0.856240	0.622682
C86	C	1.447842	-0.898585	0.692943
H87	H	1.526372	-0.909541	0.656860
H88	H	1.402028	-0.950185	0.710186
H89	H	1.461052	-0.870273	0.768598
O90	O	1.421019	-0.381737	1.086955
C91	C	1.317833	-0.366384	1.112552
H92	H	1.317347	-0.339407	1.190121
H93	H	1.267719	-0.417074	1.119375
H94	H	1.284994	-0.330257	1.048859
O95	O	1.622574	-0.251904	0.906704
C96	C	1.565920	-0.206579	0.840724
H97	H	1.485110	-0.231357	0.826040
H98	H	1.608995	-0.197239	0.763340
H99	H	1.557843	-0.154492	0.879436
