data_functionalizedCrystal
_audit_creation_method	'MofGen! by Chris Wilmer'
_symmetry_space_group_name_H-M	'P1'
_symmetry_Int_Tables_number	1
_symmetry_cell_setting	triclinic
loop_
_symmetry_equiv_pos_as_xyz
  x,y,z
_cell_length_a	15.944551
_cell_length_b	12.811457
_cell_length_c	11.295660
_cell_angle_alpha	99.528890
_cell_angle_beta	94.096494
_cell_angle_gamma	96.228058
loop_
_atom_site_label
_atom_site_type_symbol
_atom_site_fract_x
_atom_site_fract_y
_atom_site_fract_z
O1	O	-0.110185	1.396361	0.051784
O2	O	-0.124379	1.088408	0.018527
O3	O	0.005016	1.250794	0.036057
O4	O	-0.239579	1.233976	0.034254
O5	O	0.016362	1.265021	0.235637
O6	O	-0.113032	1.102636	0.218108
O7	O	-0.098838	1.410589	0.251365
Cu8	Cu	-0.104899	1.257912	0.252960
Cu9	Cu	-0.118318	1.241086	0.016932
O10	O	-0.228233	1.248203	0.233835
C11	C	-0.118258	1.056115	0.114062
C12	C	-0.116915	0.938693	0.101380
C13	C	-0.102005	0.733559	0.295158
C14	C	-0.100743	0.623232	0.283249
C15	C	-0.113122	0.607710	0.065654
C16	C	-0.114385	0.718037	0.077563
C17	C	-0.108827	0.780958	0.192319
C18	C	-0.110096	0.891287	0.204227
C19	C	-0.122469	0.875764	-0.013367
C20	C	-0.121206	0.765436	-0.025276
C21	C	-0.265198	1.241788	0.134122
C22	C	-0.358438	1.243882	0.134353
C23	C	-0.573008	1.349538	0.145745
C24	C	-0.628563	1.307489	0.238851
C25	C	-0.529154	1.247668	0.134751
C26	C	-0.639736	1.293438	0.042078
C27	C	-0.694058	1.251332	0.135132
C28	C	-0.583477	1.205597	0.227936
C29	C	-0.594647	1.191553	0.031076
C30	C	-0.650184	1.149432	0.124198
C31	C	-0.434157	1.245560	0.134534
C32	C	-0.789053	1.253433	0.135357
C33	C	0.041981	1.257209	0.135767
C34	C	0.135220	1.255115	0.135528
C35	C	-0.104959	1.442882	0.155828
C36	C	-0.106302	1.560303	0.168501
N37	N	-0.095461	1.269754	0.418969
C38	C	-0.195745	1.143869	0.654723
C39	C	-0.188605	1.152843	0.780351
C40	C	-0.074045	1.296679	0.795858
C41	C	-0.081185	1.287705	0.670229
C42	C	-0.142036	1.211297	0.599666
C43	C	-0.149172	1.202319	0.474034
C44	C	-0.034617	1.346159	0.489543
C45	C	-0.027476	1.355133	0.615172
N46	N	-0.127756	1.229244	0.850923
H47	H	-0.095192	0.584644	0.366992
C48	C	-0.095900	0.802778	0.421377
H49	H	-0.097635	0.875273	0.413740
H50	H	-0.044181	0.795950	0.465002
H51	H	-0.142134	0.779822	0.463253
H52	H	-0.683569	1.064804	0.115113
H53	H	-0.198718	1.140101	0.416582
C54	C	-0.573994	1.125381	-0.087591
H55	H	-0.546283	1.066855	-0.070460
H56	H	-0.537968	1.168903	-0.128070
H57	H	-0.624996	1.099548	-0.137451
H58	H	-0.664437	1.330614	-0.036456
C59	C	-0.262675	1.059824	0.577100
H60	H	-0.293642	1.020953	0.627885
H61	H	-0.235342	1.012297	0.523343
H62	H	-0.300345	1.094380	0.532199
H63	H	-0.539467	1.434104	0.154974
C64	C	0.024442	1.420362	0.428982
H65	H	0.011467	1.404089	0.344056
H66	H	0.081654	1.410372	0.448320
H67	H	0.016620	1.492416	0.457195
H68	H	-0.024506	1.358895	0.853327
C69	C	-0.247671	1.078655	0.840909
H70	H	-0.284925	1.031858	0.780887
H71	H	-0.279769	1.120190	0.894029
H72	H	-0.214752	1.038126	0.885157
H73	H	-0.558868	1.168480	0.306570
C74	C	-0.103982	0.960503	0.330448
H75	H	-0.105718	1.032999	0.322816
H76	H	-0.052259	0.953673	0.374061
H77	H	-0.150210	0.937546	0.372334
H78	H	0.022066	1.417346	0.672639
C79	C	-0.119230	0.538487	-0.060562
H80	H	-0.117503	0.465992	-0.052921
H81	H	-0.073009	0.561442	-0.102451
H82	H	-0.170960	0.545308	-0.104178
H83	H	-0.128029	0.914366	-0.097106
C84	C	-0.127324	0.696218	-0.151496
H85	H	-0.125601	0.623721	-0.143862
H86	H	-0.081105	0.719171	-0.193391
H87	H	-0.179056	0.703047	-0.195101
H88	H	-0.643824	1.356507	0.326698
