data_functionalizedCrystal
_audit_creation_method	'MofGen! by Chris Wilmer'
_symmetry_space_group_name_H-M	'P1'
_symmetry_Int_Tables_number	1
_symmetry_cell_setting	triclinic
loop_
_symmetry_equiv_pos_as_xyz
  x,y,z
_cell_length_a	20.016444
_cell_length_b	18.760492
_cell_length_c	20.016444
_cell_angle_alpha	59.996421
_cell_angle_beta	89.997881
_cell_angle_gamma	60.000221
loop_
_atom_site_label
_atom_site_type_symbol
_atom_site_fract_x
_atom_site_fract_y
_atom_site_fract_z
Zr1	Zr	0.643556	0.780288	-0.087720
O2	O	0.536880	0.929000	-0.194399
O3	O	0.676261	0.631576	-0.055013
O4	O	0.676258	0.780295	-0.194398
O5	O	0.536881	0.780277	0.054930
O6	O	0.786198	0.780300	-0.194401
O7	O	0.536883	0.780282	-0.055015
O8	O	0.786203	0.514270	0.054932
O9	O	0.536876	1.046307	-0.194403
O10	O	0.772252	0.692748	-0.041071
O11	O	0.690204	0.692741	0.040982
O12	O	0.690200	0.867837	-0.123125
O13	O	0.608152	0.867830	-0.041073
Zr14	Zr	0.818895	0.780290	0.087624
Zr15	Zr	0.818897	0.780297	-0.087725
Zr16	Zr	0.643553	0.780281	0.087629
Zr17	Zr	0.643549	0.967380	-0.087726
Zr18	Zr	0.818901	0.593199	0.087631
O19	O	0.786189	0.929002	0.054918
O20	O	0.786193	0.929013	-0.194406
O21	O	0.536876	0.928990	0.054925
O22	O	0.925571	0.631578	0.194303
O23	O	0.925574	0.631589	-0.055021
O24	O	0.676258	0.631566	0.194310
O25	O	0.925569	0.780301	-0.055026
O26	O	0.786193	0.780284	0.194302
O27	O	0.676253	0.780279	0.194305
O28	O	0.925567	0.780297	0.054919
O29	O	0.676249	1.046314	-0.194407
O30	O	0.786202	0.514264	0.194311
O31	O	0.925575	0.514271	0.194307
O32	O	0.925576	0.514277	0.054928
O33	O	0.536874	1.046301	-0.055024
O34	O	0.676247	1.046308	-0.055028
O35	O	0.772250	0.692741	0.123030
O36	O	0.854298	0.692749	0.040977
O37	O	0.772246	0.867838	-0.041077
O38	O	0.690198	0.867830	0.040975
C39	C	0.731233	0.546267	-0.000040
C40	C	0.731236	0.466842	-0.000037
C41	C	0.688386	0.131043	0.042776
C42	C	0.774046	0.131055	-0.042889
C43	C	0.774052	0.205671	-0.042884
C44	C	0.731224	0.242977	-0.000050
C45	C	0.688389	0.205668	0.042780
C46	C	0.816879	0.242993	-0.085720
C47	C	0.816886	0.317614	-0.085718
C48	C	0.774062	0.354916	-0.042878
C49	C	0.731227	0.317602	-0.000046
C50	C	0.688398	0.354908	0.042789
C51	C	0.645567	0.317589	0.085626
C52	C	0.645565	0.242970	0.085619
C53	C	0.774064	0.429536	-0.042871
C54	C	0.688401	0.429532	0.042793
C55	C	0.511900	0.780278	-0.000042
C56	C	0.437463	0.780275	-0.000040
C57	C	0.239076	0.688896	0.042787
C58	C	0.309022	0.688890	0.042789
C59	C	0.223366	0.871689	-0.042888
C60	C	0.153422	0.871694	-0.042894
C61	C	0.161280	0.780295	-0.000051
C62	C	0.301170	0.780284	-0.000044
C63	C	0.377008	0.780278	-0.000043
C64	C	0.085437	0.780300	-0.000054
C65	C	0.950551	0.780300	-0.000054
C66	C	1.024988	0.780304	-0.000056
C67	C	0.731228	0.780298	-0.219383
C68	C	0.731229	0.780301	-0.293823
C69	C	0.731217	1.014312	-0.000056
C70	C	0.731215	1.093737	-0.000059
C71	C	0.791795	0.780292	-0.465080
C72	C	0.791796	0.780285	-0.535020
C73	C	0.670652	0.780284	-0.535009
C74	C	0.670656	0.780283	-0.465067
C75	C	0.731227	0.780292	-0.430107
C76	C	0.731224	0.780286	-0.569989
C77	C	0.731224	0.780279	-0.645821
C78	C	0.731228	0.780298	-0.354269
C79	C	0.731222	0.780280	0.219287
C80	C	0.731221	0.780277	0.293727
C81	C	0.950558	0.546278	-0.000046
C82	C	1.024998	0.466856	-0.000045
C83	C	0.731230	0.546258	0.219295
C84	C	0.731232	0.466830	0.293738
C85	C	0.950556	0.546269	0.219289
C86	C	1.024994	0.466844	0.293730
C87	C	0.511895	1.014310	-0.219385
C88	C	0.437456	1.093734	-0.293825
C89	C	0.511892	1.014301	-0.000050
C90	C	0.437452	1.093722	-0.000050
C91	C	0.731220	1.014321	-0.219391
C92	C	0.731218	1.093749	-0.293834
C93	C	1.017129	0.429559	-0.042881
C94	C	1.087066	0.354944	-0.042896
C95	C	1.164872	0.317623	-0.000072
C96	C	1.172740	0.354928	0.042765
C97	C	1.102803	0.429547	0.042776
C98	C	0.774060	0.429530	0.371533
C99	C	0.774058	0.354909	0.441487
C100	C	0.731233	0.317584	0.433644
C101	C	0.688400	0.354892	0.355841
C102	C	0.688397	0.429516	0.285889
C103	C	1.102787	0.429550	0.285857
C104	C	1.172737	0.354932	0.355796
C105	C	1.164892	0.317606	0.433606
C106	C	1.087091	0.354908	0.441477
C107	C	1.017143	0.429529	0.371539
C108	C	0.359663	1.131038	-0.285953
C109	C	0.289713	1.205679	-0.355891
C110	C	0.297558	1.243009	-0.433701
C111	C	0.375359	1.205702	-0.441572
C112	C	0.445307	1.131068	-0.371635
C113	C	0.445322	1.131028	0.042778
C114	C	0.375384	1.205663	0.042774
C115	C	0.297578	1.242986	-0.000053
C116	C	0.289710	1.205678	-0.042887
C117	C	0.359647	1.131049	-0.042887
C118	C	0.774052	1.131050	-0.285965
C119	C	0.774066	1.205671	-0.355905
C120	C	0.731242	1.242995	-0.433714
C121	C	0.688407	1.205687	-0.441581
C122	C	0.688398	1.131062	-0.371642
H123	H	0.610695	0.212578	0.120496
O124	O	0.205805	1.245903	-0.347394
H125	H	0.171886	1.231596	-0.377221
H126	H	0.240595	1.303780	-0.490643
O127	O	1.240301	0.237144	-0.000088
H128	H	1.277241	0.169137	0.063689
O129	O	0.529218	1.090842	-0.380118
H130	H	0.563147	1.008519	-0.350300
H131	H	0.610692	0.347978	0.120497
O132	O	1.256661	0.314663	0.088962
H133	H	1.303963	0.256502	0.081761
H134	H	0.731242	0.256820	0.490610
O135	O	0.392930	0.590309	0.088990
H136	H	0.426848	0.585938	0.136324
H137	H	0.841117	0.780283	-0.563493
H138	H	0.653541	1.236088	-0.504942
O139	O	1.240344	0.237109	0.509032
H140	H	1.221827	0.217415	0.564466
O141	O	0.351190	1.090781	-0.202034
H142	H	0.381017	1.105088	-0.168115
H143	H	0.808933	0.459911	0.377934
H144	H	0.381737	1.236106	-0.504934
O145	O	0.205789	1.245937	-0.089078
H146	H	0.158488	1.304090	-0.081870
H147	H	0.653517	0.100652	0.077655
O148	O	0.529233	1.090788	0.088973
H149	H	0.576552	1.032618	0.081790
O150	O	0.820257	1.090792	-0.202049
H151	H	0.795521	1.153433	-0.194934
O152	O	1.111266	0.469800	0.201941
H153	H	1.049563	0.527951	0.154622
H154	H	0.841117	0.780297	-0.436616
H155	H	0.621333	0.780281	-0.436588
O156	O	0.383879	1.245882	0.088986
H157	H	0.449733	1.207371	0.118778
H158	H	0.953782	0.459945	-0.077764
H159	H	0.808941	0.324542	0.504830
H160	H	0.808946	1.236040	-0.349483
H161	H	0.621335	0.780279	-0.563482
O162	O	1.078572	0.314708	-0.089093
H163	H	1.012718	0.353186	-0.118854
H164	H	0.245479	0.614473	0.077670
O165	O	1.111295	0.469758	0.088993
H166	H	1.177149	0.431255	0.118775
O167	O	0.642185	1.090845	-0.380133
H168	H	0.612403	1.129350	-0.445990
H169	H	0.808932	0.459922	-0.077753
H170	H	0.653533	0.324491	0.349467
H171	H	0.808911	0.100684	-0.077768
O172	O	0.863084	0.357859	-0.131913
H173	H	0.892867	0.319377	-0.161695
H174	H	0.653524	0.459876	0.222547
O175	O	1.256645	0.314695	0.347298
H176	H	1.250342	0.353176	0.281441
O177	O	0.731251	1.323489	-0.509146
H178	H	0.667474	1.391490	-0.546080
H179	H	0.216978	0.946104	-0.077768
O180	O	0.863055	0.202776	-0.131933
H181	H	0.855860	0.144615	-0.124735
H182	H	1.080716	0.324506	0.504839
H183	H	0.653526	0.459900	0.077676
H184	H	0.953803	0.459885	0.377960
O185	O	0.069505	0.970280	-0.089107
H186	H	0.035578	0.974655	-0.045876
O187	O	0.222157	1.323454	-0.000018
H188	H	0.222207	1.391450	-0.026803
H189	H	0.353228	1.100677	-0.077761
