data_functionalizedCrystal
_audit_creation_method	'MofGen! by Chris Wilmer'
_symmetry_space_group_name_H-M	'P1'
_symmetry_Int_Tables_number	1
_symmetry_cell_setting	triclinic
loop_
_symmetry_equiv_pos_as_xyz
  x,y,z
_cell_length_a	16.956985
_cell_length_b	10.654541
_cell_length_c	15.455301
_cell_angle_alpha	92.976450
_cell_angle_beta	86.830763
_cell_angle_gamma	99.731441
loop_
_atom_site_label
_atom_site_type_symbol
_atom_site_fract_x
_atom_site_fract_y
_atom_site_fract_z
O1	O	-1.061469	0.056581	0.072161
O2	O	-0.829555	0.100647	0.072156
O3	O	-0.950845	-0.104753	0.072154
O4	O	-0.940179	0.261980	0.072164
O5	O	-0.944552	-0.113918	-0.072109
O6	O	-0.823262	0.091482	-0.072107
O7	O	-1.055177	0.047416	-0.072102
Cu8	Cu	-0.938645	0.068612	-0.085277
Cu9	Cu	-0.946087	0.079450	0.085331
O10	O	-0.933886	0.252816	-0.072099
C11	C	-0.796713	0.098321	0.000024
C12	C	-0.708229	0.105030	0.000022
C13	C	-0.946916	-0.156041	0.000023
C14	C	-0.944574	-0.295209	0.000024
C15	C	-0.675525	-0.007137	0.000017
C16	C	-0.592385	-0.000826	0.000021
C17	C	-0.541950	0.117653	0.000025
C18	C	-0.574659	0.229829	0.000033
C19	C	-0.657798	0.223517	0.000035
C20	C	-0.292350	0.148899	0.000025
C21	C	-0.209206	0.155202	0.000021
C22	C	-0.226937	-0.075453	0.000011
C23	C	-0.310076	-0.081755	0.000007
C24	C	-0.342779	0.030420	0.000020
N25	N	-0.456967	0.124107	0.000026
N26	N	-0.427761	0.023965	0.000025
C27	C	-1.089609	-0.340229	0.000016
C28	C	-1.161023	-0.428118	0.000010
C29	C	-1.158818	-0.558877	0.000013
C30	C	-1.085191	-0.601747	0.000024
C31	C	-1.013777	-0.513858	0.000030
C32	C	-1.015990	-0.383099	0.000024
C33	C	-0.868744	-0.468838	0.000044
C34	C	-0.870947	-0.338080	0.000035
C35	C	-0.795117	-0.511708	0.000055
C36	C	-0.723701	-0.423819	0.000054
C37	C	-0.725909	-0.293054	0.000051
C38	C	-0.799533	-0.250191	0.000041
C39	C	-0.088018	0.049742	0.000026
C40	C	-0.176501	0.043035	0.000015
C41	C	-0.937816	0.304104	0.000034
C42	C	-0.940158	0.443273	0.000038
N43	N	-0.933416	0.060988	-0.205273
C44	C	-0.980192	0.129257	-0.250660
C45	C	-0.976248	0.123482	-0.341469
C46	C	-0.925524	0.049444	-0.386888
C47	C	-0.878747	-0.018833	-0.341495
C48	C	-0.882696	-0.013065	-0.250688
C49	C	-0.908493	0.024555	-0.658472
C50	C	-0.904546	0.018795	-0.749285
C51	C	-1.002048	0.161109	-0.749253
C52	C	-1.005989	0.166877	-0.658445
C53	C	-0.959215	0.098595	-0.613059
N54	N	-0.921490	0.043543	-0.479709
N55	N	-0.963253	0.104490	-0.520240
N56	N	-0.951321	0.087064	0.205327
H57	H	-0.716584	-0.103617	0.000010
H58	H	-1.047295	0.227163	-0.621470
H59	H	-0.351136	-0.178234	0.000000
H60	H	-1.216970	-0.630437	0.000015
O61	O	-1.034896	0.209125	-0.201676
H62	H	-1.079190	0.147182	-0.160291
H63	H	-0.168142	0.251687	0.000020
O64	O	-0.644295	-0.470053	0.000059
H65	H	-0.654759	-0.575743	0.000058
O66	O	-0.849832	-0.061064	-0.798275
H67	H	-0.885869	-0.135064	-0.839653
H68	H	-0.200301	-0.166780	0.000010
H69	H	-0.793327	-0.618180	0.000062
O70	O	-0.557107	-0.121806	-0.000001
H71	H	-0.606144	-0.205252	-0.000019
H72	H	-0.318966	0.240240	0.000042
O73	O	-1.091981	-0.199195	0.000001
H74	H	-1.126434	-0.170679	0.058795
H75	H	-1.014339	0.179072	-0.378419
O76	O	-0.520267	0.357622	0.000027
H77	H	-0.456960	0.343169	0.000012
O78	O	-0.801912	-0.109158	0.000039
H79	H	-0.865105	-0.094118	0.000038
O80	O	-1.240434	-0.381884	-0.000003
H81	H	-1.229974	-0.276196	-0.000012
O82	O	-0.824048	-0.098705	-0.390483
H83	H	-0.792194	-0.145223	-0.343664
O84	O	-0.858027	-0.049066	-0.609532
H85	H	-0.869293	-0.032627	-0.538757
O86	O	-1.082813	-0.742780	0.000026
H87	H	-1.116110	-0.783233	0.058821
O88	O	-1.052511	0.234730	-0.798202
H89	H	-1.041255	0.218271	-0.868976
O90	O	-0.832242	-0.086689	-0.201727
H91	H	-0.796300	-0.139132	-0.248564
H92	H	-0.667755	-0.221499	0.000059
H93	H	-0.684424	0.314855	0.000035
