data_functionalizedCrystal
_audit_creation_method	'MofGen! by Chris Wilmer'
_symmetry_space_group_name_H-M	'P1'
_symmetry_Int_Tables_number	1
_symmetry_cell_setting	triclinic
loop_
_symmetry_equiv_pos_as_xyz
  x,y,z
_cell_length_a	15.538191
_cell_length_b	10.968094
_cell_length_c	9.482934
_cell_angle_alpha	92.547739
_cell_angle_beta	95.623019
_cell_angle_gamma	66.440016
loop_
_atom_site_label
_atom_site_type_symbol
_atom_site_fract_x
_atom_site_fract_y
_atom_site_fract_z
O1	O	0.163624	1.538943	0.264629
O2	O	0.165663	1.188848	0.176928
O3	O	0.030035	1.432046	0.237844
O4	O	0.299252	1.295745	0.203713
O5	O	0.057702	1.382593	0.467250
O6	O	0.193329	1.139395	0.406334
O7	O	0.191291	1.489490	0.494035
Cu8	Cu	0.194836	1.309927	0.471131
Cu9	Cu	0.162117	1.368411	0.199832
O10	O	0.326918	1.246293	0.433119
C11	C	0.177258	1.120409	0.280680
C12	C	0.170580	0.990166	0.248053
C13	C	0.175022	0.771867	0.318615
C14	C	0.181932	0.906474	0.352350
C15	C	0.009300	1.421581	0.356114
C16	C	-0.093703	1.464061	0.366741
C17	C	-0.397107	1.042058	0.261058
C18	C	-0.493894	1.082000	0.271067
C19	C	-0.508023	1.306672	0.327348
C20	C	-0.411236	1.266750	0.317337
C21	C	-0.355785	1.134441	0.284193
C22	C	-0.369913	1.359132	0.340472
C23	C	-0.273134	1.319211	0.330469
C24	C	-0.217676	1.186907	0.297330
C25	C	-0.259005	1.094520	0.274190
C26	C	-0.425365	1.491439	0.373626
C27	C	-0.384043	1.583821	0.396761
C28	C	-0.287262	1.543903	0.386748
C29	C	-0.231805	1.411599	0.353610
C30	C	-0.245934	1.636291	0.409889
C31	C	-0.149154	1.596370	0.399885
C32	C	-0.135025	1.371678	0.343606
C33	C	0.347653	1.256758	0.314845
C34	C	0.450655	1.214280	0.304209
C35	C	0.179695	1.557929	0.390280
C36	C	0.186372	1.688175	0.422898
N37	N	0.217849	1.268802	0.661950
C38	C	0.168903	1.356268	0.756058
C39	C	0.188058	1.322057	0.914906
N40	N	0.139105	1.409536	1.009013
H41	H	0.155746	0.962172	0.133788
C42	C	-0.539345	0.980362	0.245605
N43	N	-0.573579	0.903810	0.226428
C44	C	0.201989	0.944280	0.506714
N45	N	0.217102	0.972754	0.622978
C46	C	0.206428	0.725988	0.577254
N47	N	0.221541	0.754461	0.693518
C48	C	-0.103698	1.697997	0.425328
N49	N	-0.069460	1.774545	0.444494
C50	C	-0.074024	1.226131	0.307144
N51	N	-0.028077	1.116508	0.279688
H52	H	-0.429203	1.691546	0.423752
H53	H	0.273930	1.168589	0.698979
C54	C	0.093117	1.491638	0.706035
N55	N	0.036029	1.593598	0.668360
H56	H	0.244143	1.221837	0.951927
C57	C	-0.306940	1.781824	0.446358
N58	N	-0.352891	1.891441	0.473827
C59	C	-0.198004	0.948973	0.237728
N60	N	-0.152057	0.839350	0.210272
H61	H	-0.138871	1.154404	0.289194
H62	H	-0.351956	0.934321	0.234058
H63	H	0.083013	1.509750	0.971990
H64	H	-0.553183	1.414397	0.354340
C65	C	0.154979	0.734047	0.164257
N66	N	0.139882	0.705563	0.047991
H67	H	-0.504170	1.523941	0.381757
