data_functionalizedCrystal
_audit_creation_method	'MofGen! by Chris Wilmer'
_symmetry_space_group_name_H-M	'P1'
_symmetry_Int_Tables_number	1
_symmetry_cell_setting	triclinic
loop_
_symmetry_equiv_pos_as_xyz
  x,y,z
_cell_length_a	12.759400
_cell_length_b	19.077241
_cell_length_c	19.076919
_cell_angle_alpha	90.113904
_cell_angle_beta	92.274856
_cell_angle_gamma	87.693290
loop_
_atom_site_label
_atom_site_type_symbol
_atom_site_fract_x
_atom_site_fract_y
_atom_site_fract_z
Zn1	Zn	-0.381402	-1.058333	-0.440580
Zn2	Zn	-0.549770	-1.062992	-0.323080
Zn3	Zn	-0.380848	-0.945549	-0.318357
Zn4	Zn	-0.563783	-0.940813	-0.435816
O5	O	-0.468951	-1.001922	-0.379458
O6	O	-0.398103	-1.157284	-0.428963
O7	O	-0.521266	-1.051345	-0.224122
O8	O	-0.233900	-0.960542	-0.334588
O9	O	-0.521803	-1.160707	-0.342636
O10	O	-0.234306	-1.043404	-0.424384
O11	O	-0.397160	-0.965060	-0.220653
O12	O	-0.410748	-0.846588	-0.329968
O13	O	-0.545686	-0.952471	-0.534779
O14	O	-0.545150	-0.843109	-0.416264
O15	O	-0.411691	-1.038812	-0.538279
O16	O	-0.698651	-1.046753	-0.338017
O17	O	-0.708946	-0.956989	-0.420844
C18	C	-0.479410	-0.819352	-0.372087
C19	C	-0.483911	-0.741246	-0.368951
C20	C	-0.421733	-0.702768	-0.412492
C21	C	-0.425956	-0.629380	-0.409538
C22	C	-0.492364	-0.594472	-0.363047
C23	C	-0.554545	-0.632955	-0.319502
C24	C	-0.550315	-0.706342	-0.322452
C25	C	-0.511904	-0.375181	-0.349394
C26	C	-0.516131	-0.301789	-0.346449
C27	C	-0.387540	-0.298219	-0.436484
C28	C	-0.383321	-0.371607	-0.439433
C29	C	-0.445498	-0.410084	-0.395885
N30	N	-0.496686	-0.519458	-0.360029
N31	N	-0.441170	-0.485097	-0.398901
C32	C	-0.741920	-1.001881	-0.379442
C33	C	-0.858695	-1.001927	-0.379461
C34	C	-0.908161	-1.048715	-0.336385
C35	C	-1.017884	-1.048757	-0.336408
C36	C	-1.028665	-0.955217	-0.422586
C37	C	-0.918944	-0.955179	-0.422565
C38	C	-0.847912	-1.095463	-0.293280
C39	C	-0.897378	-1.142254	-0.250200
C40	C	-1.007101	-1.142297	-0.250223
C41	C	-1.067358	-1.095548	-0.293327
C42	C	-0.194916	-1.001982	-0.379491
C43	C	-0.078139	-1.002007	-0.379504
C44	C	-0.480314	-0.994594	-0.562738
C45	C	-0.485156	-0.991471	-0.640840
C46	C	-0.458445	-0.185206	-0.386852
C47	C	-0.453953	-0.263311	-0.389989
C48	C	-0.417670	-1.034955	-0.679357
C49	C	-0.422216	-1.032012	-0.752742
C50	C	-0.494254	-0.985588	-0.787610
C51	C	-0.561743	-0.942100	-0.749089
C52	C	-0.557191	-0.945039	-0.675704
C53	C	-0.515345	-0.971972	-1.006890
C54	C	-0.519894	-0.969037	-1.080280
C55	C	-0.380365	-1.058949	-1.083928
C56	C	-0.375823	-1.061888	-1.010543
C57	C	-0.443309	-1.018397	-0.972027
N58	N	-0.498905	-0.982581	-0.862622
N59	N	-0.438652	-1.021401	-0.897017
C60	C	-0.457554	-1.009262	-0.196893
C61	C	-0.452408	-1.012521	-0.118796
H62	H	-0.367659	-0.731185	-0.450351
C63	C	-0.832146	-1.193086	-0.203380
C64	C	-0.898955	-1.234084	-0.165675
C65	C	-0.838903	-1.280925	-0.122544
H66	H	-0.789029	-1.167518	-0.171591
H67	H	-0.789216	-1.222630	-0.231495
H68	H	-0.941866	-1.204544	-0.137563
H69	H	-0.942072	-1.259667	-0.197447
H70	H	-0.795974	-1.310468	-0.150659
H71	H	-0.795789	-1.255351	-0.090759
H72	H	-0.884224	-1.308752	-0.096961
H73	H	-1.047373	-1.180401	-0.215151
H74	H	-0.570214	-0.273369	-0.308590
H75	H	-0.562533	-0.406500	-0.313935
H76	H	-0.758570	-1.095432	-0.293254
H77	H	-1.156701	-1.095591	-0.293348
C78	C	-1.094266	-0.904489	-0.469301
C79	C	-1.200943	-0.914524	-0.460084
C80	C	-1.261404	-0.867797	-0.503097
H81	H	-1.078717	-0.912794	-0.516959
H82	H	-1.078477	-0.857675	-0.457061
H83	H	-1.216726	-0.961327	-0.472327
H84	H	-1.216524	-0.906214	-0.412434
H85	H	-1.245614	-0.820984	-0.490858
H86	H	-1.245845	-0.876106	-0.550754
H87	H	-1.333790	-0.874595	-0.496845
C88	C	-0.865425	-0.904307	-0.469362
C89	C	-0.941670	-0.863362	-0.507100
C90	C	-0.892407	-0.816490	-0.550216
H91	H	-0.822939	-0.929851	-0.501132
H92	H	-0.822784	-0.874732	-0.441234
H93	H	-0.984293	-0.892933	-0.535226
H94	H	-0.984159	-0.837803	-0.475348
H95	H	-0.849766	-0.786915	-0.522088
H96	H	-0.849922	-0.842039	-0.581981
H97	H	-0.944131	-0.788698	-0.575821
H98	H	-0.336918	-0.266883	-0.471938
H99	H	-0.612135	-0.909623	-0.644345
H100	H	-0.359012	-1.072760	-0.650973
H101	H	-0.375326	-0.598054	-0.444995
H102	H	-0.367264	-1.067423	-0.784099
C103	C	-0.297749	-1.112348	-0.972636
C104	C	-0.352011	-1.159074	-0.932315
C105	C	-0.280116	-1.205563	-0.897385
H106	H	-0.251733	-1.086678	-0.942884
H107	H	-0.258196	-1.137868	-1.006052
H108	H	-0.391546	-1.133557	-0.898903
H109	H	-0.398023	-1.184761	-0.962051
H110	H	-0.240564	-1.231083	-0.930801
H111	H	-0.234104	-1.179887	-0.867637
H112	H	-0.316923	-1.237276	-0.870029
H113	H	-0.600947	-0.737670	-0.286996
H114	H	-0.325421	-1.094356	-1.115295
C115	C	-0.598146	-0.918558	-1.118009
C116	C	-0.656254	-0.881086	-1.068572
C117	C	-0.728338	-0.834576	-1.103302
H118	H	-0.644258	-0.944204	-1.147714
H119	H	-0.561506	-0.886770	-1.145389
H120	H	-0.692892	-0.912869	-1.041204
H121	H	-0.610171	-0.855425	-1.038864
H122	H	-0.691698	-0.802788	-1.130682
H123	H	-0.774442	-0.860228	-1.133006
H124	H	-0.767766	-0.809141	-1.069765
C125	C	-0.626618	-0.594928	-0.269096
C126	C	-0.617039	-0.522422	-0.275845
C127	C	-0.683430	-0.487370	-0.229430
H128	H	-0.607584	-0.608750	-0.222352
H129	H	-0.697198	-0.606504	-0.279787
H130	H	-0.546475	-0.510850	-0.265149
H131	H	-0.636082	-0.508579	-0.322579
H132	H	-0.754010	-0.498947	-0.240121
H133	H	-0.664390	-0.501198	-0.182689
H134	H	-0.676947	-0.438171	-0.234007
C135	C	-0.311102	-0.409378	-0.489925
C136	C	-0.257527	-0.359973	-0.527410
C137	C	-0.190980	-0.394742	-0.573922
H138	H	-0.351488	-0.436789	-0.521710
H139	H	-0.261898	-0.439059	-0.464258
H140	H	-0.306725	-0.330304	-0.553075
H141	H	-0.217121	-0.332559	-0.495643
H142	H	-0.141776	-0.424423	-0.548255
H143	H	-0.231374	-0.422152	-0.605702
H144	H	-0.154614	-0.361226	-0.599356
C145	C	-0.588670	-0.924870	-0.965003
C146	C	-0.651111	-0.966318	-0.924457
C147	C	-0.718665	-0.922948	-0.885855
H148	H	-0.632315	-0.896795	-0.996207
H149	H	-0.548488	-0.895416	-0.935106
H150	H	-0.691290	-0.995761	-0.954351
H151	H	-0.607494	-0.994393	-0.893239
H152	H	-0.678483	-0.893493	-0.855957
H153	H	-0.762303	-0.894874	-0.917064
H154	H	-0.761032	-0.951064	-0.858335
H155	H	-0.620395	-0.904298	-0.777484
