data_functionalizedCrystal
_audit_creation_method	'MofGen! by Chris Wilmer'
_symmetry_space_group_name_H-M	'P1'
_symmetry_Int_Tables_number	1
_symmetry_cell_setting	triclinic
loop_
_symmetry_equiv_pos_as_xyz
  x,y,z
_cell_length_a	18.760492
_cell_length_b	21.606444
_cell_length_c	21.606444
_cell_angle_alpha	90.000833
_cell_angle_beta	59.998298
_cell_angle_gamma	59.999773
loop_
_atom_site_label
_atom_site_type_symbol
_atom_site_fract_x
_atom_site_fract_y
_atom_site_fract_z
Zr1	Zr	0.780286	0.596193	-0.081269
O2	O	0.928999	0.497361	-0.180098
O3	O	0.631574	0.626493	-0.050970
O4	O	0.780293	0.626482	-0.180097
O5	O	0.780275	0.497377	0.050884
O6	O	0.780298	0.728332	-0.180101
O7	O	0.780280	0.497372	-0.050970
O8	O	0.514267	0.728352	0.050884
O9	O	1.046306	0.497357	-0.180101
O10	O	0.692745	0.715422	-0.038055
O11	O	0.692738	0.639416	0.037961
O12	O	0.867835	0.639403	-0.114070
O13	O	0.867827	0.563398	-0.038055
Zr14	Zr	0.780286	0.758640	0.081170
Zr15	Zr	0.780294	0.758631	-0.081275
Zr16	Zr	0.780278	0.596201	0.081176
Zr17	Zr	0.967378	0.596187	-0.081276
Zr18	Zr	0.593195	0.758645	0.081176
O19	O	0.928999	0.728339	0.050871
O20	O	0.929010	0.728327	-0.180106
O21	O	0.928987	0.497372	0.050879
O22	O	0.631574	0.857472	0.179998
O23	O	0.631585	0.857460	-0.050978
O24	O	0.631562	0.626505	0.180007
O25	O	0.780298	0.857455	-0.050983
O26	O	0.780280	0.728350	0.179998
O27	O	0.780275	0.626500	0.180002
O28	O	0.780293	0.857461	0.050871
O29	O	1.046312	0.626474	-0.180106
O30	O	0.514260	0.728358	0.180007
O31	O	0.514267	0.857475	0.180002
O32	O	0.514273	0.857469	0.050879
O33	O	1.046300	0.497363	-0.050979
O34	O	1.046306	0.626480	-0.050983
O35	O	0.692738	0.715429	0.113971
O36	O	0.692745	0.791435	0.037955
O37	O	0.867835	0.715416	-0.038060
O38	O	0.867827	0.639411	0.037955
C39	C	0.546264	0.677423	-0.000042
C40	C	0.466839	0.677426	-0.000040
C41	C	0.780276	0.474230	-0.000042
C42	C	0.780273	0.405271	-0.000040
C43	C	0.780296	0.677406	-0.203244
C44	C	0.780300	0.677402	-0.272207
C45	C	0.131040	0.637732	0.039623
C46	C	0.131053	0.717083	-0.039739
C47	C	0.205668	0.717089	-0.039734
C48	C	0.242974	0.677415	-0.000052
C49	C	0.205665	0.637735	0.039627
C50	C	0.242990	0.756762	-0.079418
C51	C	0.317611	0.756768	-0.079416
C52	C	0.354913	0.717098	-0.039728
C53	C	0.317599	0.677418	-0.000048
C54	C	0.354905	0.637743	0.039635
C55	C	0.317586	0.598067	0.079320
C56	C	0.242967	0.598065	0.079314
C57	C	0.429533	0.717100	-0.039722
C58	C	0.429529	0.637746	0.039639
C59	C	1.014309	0.677409	-0.000057
C60	C	1.093734	0.677406	-0.000060
C61	C	0.688878	0.412553	0.039637
C62	C	0.688881	0.347755	0.039637
C63	C	0.780279	0.275677	-0.000043
C64	C	0.871681	0.268397	-0.039721
C65	C	0.871677	0.333193	-0.039717
C66	C	0.871698	0.007079	-0.039738
C67	C	0.871695	-0.057719	-0.039741
C68	C	0.688903	0.021640	0.039616
C69	C	0.688899	0.086437	0.039621
C70	C	0.780300	0.079151	-0.000054
C71	C	0.780295	0.149413	-0.000053
C72	C	0.780285	0.205417	-0.000049
C73	C	0.780296	0.880602	-0.000057
C74	C	0.780300	0.949561	-0.000060
C75	C	0.871694	0.637721	-0.344285
C76	C	0.871691	0.637728	-0.409080
C77	C	0.780293	0.677411	-0.401795
C78	C	0.688892	0.717098	-0.329709
C79	C	0.688896	0.717095	-0.264916
C80	C	0.688874	0.717110	-0.591012
C81	C	0.688877	0.717107	-0.655813
C82	C	0.871670	0.637742	-0.735176
C83	C	0.871674	0.637740	-0.670382
C84	C	0.780273	0.677429	-0.598303
C85	C	0.780277	0.677422	-0.528045
C86	C	0.780288	0.677414	-0.472051
C87	C	0.780276	0.677426	0.203145
C88	C	0.780273	0.677430	0.272107
C89	C	0.546274	0.880609	-0.000049
C90	C	0.466852	0.949571	-0.000049
C91	C	0.546254	0.677434	0.203152
C92	C	0.466825	0.677440	0.272117
C93	C	0.546264	0.880620	0.203145
C94	C	0.466839	0.949585	0.272108
C95	C	1.014309	0.474213	-0.203244
C96	C	1.093734	0.405247	-0.272207
C97	C	1.014299	0.474223	-0.000050
C98	C	1.093721	0.405261	-0.000050
C99	C	1.014319	0.677399	-0.203252
C100	C	1.093747	0.677393	-0.272217
C101	C	0.429555	0.942278	-0.039733
C102	C	0.354940	1.007069	-0.039748
C103	C	0.317619	1.079152	-0.000075
C104	C	0.354923	1.086443	0.039610
C105	C	0.429542	1.021653	0.039620
C106	C	0.429525	0.717121	0.344187
C107	C	0.354904	0.717123	0.408993
C108	C	0.317579	0.677449	0.401728
C109	C	0.354887	0.637763	0.329651
C110	C	0.429512	0.637757	0.264846
C111	C	0.429544	1.021653	0.264814
C112	C	0.354926	1.086459	0.329605
C113	C	0.317599	1.079196	0.401690
C114	C	0.354901	1.007121	0.408982
C115	C	0.429523	0.942316	0.344191
C116	C	1.131038	0.333180	-0.264913
C117	C	1.205679	0.268373	-0.329705
C118	C	1.243010	0.275636	-0.401789
C119	C	1.205703	0.347711	-0.409081
C120	C	1.131068	0.412516	-0.344290
C121	C	1.131026	0.412554	0.039626
C122	C	1.205661	0.347763	0.039624
C123	C	1.242985	0.275680	-0.000051
C124	C	1.205677	0.268389	-0.039733
C125	C	1.131048	0.333179	-0.039734
C126	C	1.131048	0.717075	-0.264927
C127	C	1.205670	0.717084	-0.329721
C128	C	1.242994	0.677406	-0.401803
C129	C	1.205686	0.637723	-0.409092
C130	C	1.131061	0.637719	-0.344299
H131	H	0.459897	0.605439	0.071955
Br132	Br	0.995717	0.323310	-0.093560
Br133	Br	1.256290	0.770940	-0.319812
H134	H	0.459872	0.605446	0.206166
H135	H	1.236042	0.209693	-0.323752
H136	H	1.100670	0.749385	-0.206240
Br137	Br	0.995744	-0.155544	-0.093598
H138	H	1.236088	0.605419	-0.467790
Br139	Br	0.564855	0.770962	-0.167093
Br140	Br	1.344301	0.187678	-0.489713
H141	H	0.614473	0.145124	0.071930
Br142	Br	0.304326	0.997156	-0.093607
Br143	Br	1.344275	0.677419	-0.489730
Br144	Br	0.480190	1.031531	0.166993
H145	H	0.946123	0.001136	-0.072057
Br146	Br	0.304286	0.770988	0.506803
H147	H	0.459941	0.883591	-0.072048
H148	H	1.236025	0.353715	0.071940
Br149	Br	0.368234	0.544217	0.133165
Br150	Br	0.192304	0.544234	0.133179
H151	H	1.100699	0.605402	-0.350245
H152	H	0.324562	1.145140	0.323654
Br153	Br	0.480146	1.031565	0.093485
H154	H	1.236107	0.353616	-0.467780
Br155	Br	1.256339	0.170556	-0.093572
Br156	Br	1.080389	0.323302	-0.167093
H157	H	1.100642	0.471242	0.071940
Br158	Br	1.344268	0.187757	-0.000042
Br159	Br	0.080383	0.583900	0.093492
H160	H	0.256837	1.131971	0.454440
H161	H	0.100681	0.749380	-0.072052
H162	H	0.459879	0.883638	0.350140
Br163	Br	0.192370	0.810592	-0.133279
H164	H	1.100696	0.471195	-0.350238
H165	H	0.347990	0.789076	-0.111729
Br166	Br	0.304221	0.583924	0.319803
H167	H	1.100676	0.327230	-0.072041
H168	H	0.459919	0.749400	-0.072038
H169	H	0.614451	0.471239	0.071953
H170	H	0.614459	0.353691	0.071947
H171	H	0.614480	0.027566	0.071923
Br172	Br	0.304259	1.184277	0.093450
Br173	Br	0.995723	0.170576	-0.093567
H174	H	0.946114	0.605417	-0.467767
Br175	Br	0.995742	0.583858	-0.354180
H176	H	0.946100	0.605422	-0.676321
Br177	Br	0.304233	0.997277	0.506817
H178	H	0.946093	0.605427	-0.793873
H179	H	0.256815	0.677461	0.454502
Br180	Br	0.564830	0.770939	-0.493198
Br181	Br	0.564849	0.770959	-0.319821
Br182	Br	0.564828	0.770967	-0.645923
H183	H	0.459906	0.749428	0.350117
Br184	Br	0.216349	1.167075	-0.000096
