data_functionalizedCrystal
_audit_creation_method	'MofGen! by Chris Wilmer'
_symmetry_space_group_name_H-M	'P1'
_symmetry_Int_Tables_number	1
_symmetry_cell_setting	triclinic
loop_
_symmetry_equiv_pos_as_xyz
  x,y,z
_cell_length_a	16.109302
_cell_length_b	23.532357
_cell_length_c	22.610064
_cell_angle_alpha	90.016169
_cell_angle_beta	89.994664
_cell_angle_gamma	83.145036
loop_
_atom_site_label
_atom_site_type_symbol
_atom_site_fract_x
_atom_site_fract_y
_atom_site_fract_z
O1	O	1.102521	0.073212	0.049218
O2	O	0.860386	0.082322	0.049215
O3	O	0.988777	-0.005139	0.049205
O4	O	0.974130	0.160674	0.049229
O5	O	0.988796	-0.005154	-0.049165
O6	O	0.860405	0.082307	-0.049155
O7	O	1.102541	0.073198	-0.049151
Zn8	Zn	0.981476	0.077750	-0.064771
Zn9	Zn	0.981450	0.077770	0.064835
O10	O	0.974150	0.160659	-0.049141
C11	C	0.829423	0.081946	0.000029
C12	C	0.737137	0.080839	0.000027
C13	C	0.524828	0.078272	-0.053588
C14	C	0.438116	0.077227	-0.053586
C15	C	0.438105	0.077246	0.053661
C16	C	0.524816	0.078287	0.053659
C17	C	0.568174	0.078804	0.000032
C18	C	0.394752	0.076716	0.000037
C19	C	0.300736	0.075582	0.000039
C20	C	0.662197	0.079937	0.000030
C21	C	0.988420	-0.026365	0.000018
C22	C	0.987319	-0.089587	0.000012
C23	C	0.980393	-0.481616	0.053665
C24	C	0.979346	-0.541019	0.053669
O25	O	0.978767	-0.571731	0.099271
N26	N	0.978838	-0.570741	0.000048
C27	C	0.979368	-0.541055	-0.053579
O28	O	0.978838	-0.571790	-0.099187
C29	C	0.980409	-0.481652	-0.053582
C30	C	0.980926	-0.451935	0.000042
C31	C	0.980909	-0.451899	0.107285
C32	C	0.981958	-0.392499	0.107281
C33	C	0.982490	-0.362818	0.053658
C34	C	0.981974	-0.392535	0.000039
C35	C	0.980933	-0.451967	-0.107208
C36	C	0.981973	-0.392560	-0.107206
C37	C	0.982490	-0.362842	-0.053582
C38	C	0.983555	-0.303455	-0.053588
N39	N	0.984064	-0.273734	0.000032
C40	C	0.983531	-0.303415	0.053655
C41	C	0.977180	-0.665804	-0.053569
C42	C	0.976145	-0.725207	-0.053567
C43	C	0.976122	-0.725167	0.053681
C44	C	0.977163	-0.665764	0.053678
C45	C	0.977688	-0.636083	0.000051
C46	C	0.985734	-0.178673	0.053644
C47	C	0.986786	-0.119269	0.053636
C48	C	0.986805	-0.119313	-0.053612
C49	C	0.985757	-0.178712	-0.053604
C50	C	0.985219	-0.208391	0.000029
O51	O	0.984131	-0.272705	-0.099167
O52	O	0.984050	-0.272672	0.099256
C53	C	1.133503	0.073574	0.000036
C54	C	1.225789	0.074681	0.000042
C55	C	0.974506	0.181884	0.000047
C56	C	0.975608	0.245107	0.000057
N57	N	0.981500	0.077736	-0.153223
N58	N	0.981433	0.077779	0.153287
C59	C	1.038445	0.039107	0.561924
C60	C	1.038451	0.039105	0.623844
O61	O	1.086911	0.006248	0.655859
N62	N	0.981493	0.077751	0.654824
C63	C	0.924531	0.116406	0.623882
O64	O	0.876085	0.149277	0.655918
C65	C	0.924529	0.116411	0.561963
C66	C	0.981485	0.077758	0.530986
C67	C	1.095397	0.000459	0.530947
C68	C	1.095390	0.000461	0.469031
C69	C	1.038430	0.039112	0.438093
C70	C	0.981478	0.077761	0.469070
C71	C	0.867572	0.155068	0.531021
C72	C	0.867575	0.155070	0.469098
C73	C	0.924531	0.116418	0.438121
C74	C	0.924511	0.116414	0.376216
N75	N	0.981469	0.077768	0.345236
C76	C	1.038428	0.039117	0.376174
C77	C	0.924540	0.116393	0.753915
C78	C	0.924537	0.116385	0.815833
C79	C	1.038458	0.039085	0.815791
C80	C	1.038457	0.039090	0.753872
C81	C	0.981498	0.077747	0.722935
C82	C	1.038408	0.039124	0.246147
C83	C	1.038393	0.039128	0.184226
C84	C	0.924475	0.116430	0.184273
C85	C	0.924486	0.116424	0.246189
C86	C	0.981460	0.077769	0.277124
O87	O	0.876078	0.149255	0.344162
O88	O	1.086874	0.006256	0.344130
H89	H	0.560127	0.078693	-0.097254
H90	H	0.982389	-0.368395	-0.150877
O91	O	0.395851	0.076773	0.105698
C92	C	0.310025	0.075727	0.094204
H93	H	0.294591	0.093595	0.048122
H94	H	0.271553	0.102972	0.128454
H95	H	0.294529	0.029770	0.096743
O96	O	0.869115	0.153896	0.154146
C97	C	0.818170	0.123313	0.118333
H98	H	0.851775	0.078785	0.109047
H99	H	0.804762	0.147068	0.074798
H100	H	0.756780	0.119356	0.142195
H101	H	0.402827	0.076794	-0.097249
O102	O	0.987453	-0.090517	-0.105717
C103	C	1.059196	-0.111512	-0.138362
H104	H	1.109256	-0.132349	-0.106997
H105	H	1.084039	-0.074622	-0.162693
H106	H	1.042306	-0.144543	-0.171791
O107	O	0.977620	-0.636983	0.105821
C108	C	0.976952	-0.675929	0.153146
H109	H	0.949890	-0.715914	0.137423
H110	H	0.936875	-0.655134	0.190651
H111	H	1.043548	-0.688231	0.169634
H112	H	0.560110	0.078719	0.097326
H113	H	0.987209	-0.095076	0.097304
O114	O	1.150762	-0.037147	0.560903
C115	C	1.201036	-0.071242	0.520272
H116	H	1.166956	-0.071922	0.476139
H117	H	1.214230	-0.116720	0.538134
H118	H	1.262572	-0.052654	0.513688
O119	O	0.985236	-0.207411	0.105795
C120	C	0.985887	-0.168431	0.153113
H121	H	1.012975	-0.128464	0.137387
H122	H	1.025931	-0.189204	0.190628
H123	H	0.919282	-0.156105	0.169589
H124	H	0.982376	-0.368309	0.150947
O125	O	0.980433	-0.480641	0.159432
C126	C	0.981090	-0.441660	0.206749
H127	H	1.008155	-0.401687	0.191015
H128	H	1.021158	-0.462427	0.244255
H129	H	0.914490	-0.429346	0.223239
H130	H	1.084774	0.007651	0.159006
H131	H	0.975685	-0.749344	0.097344
H132	H	0.975736	-0.749399	-0.097233
O133	O	0.977735	-0.637066	-0.105719
C134	C	0.977040	-0.676041	-0.153039
H135	H	1.002620	-0.720741	-0.137310
H136	H	1.017718	-0.662520	-0.190546
H137	H	0.910224	-0.676376	-0.169526
O138	O	1.150757	-0.037003	0.438878
C139	C	1.201700	-0.006413	0.403082
H140	H	1.168085	0.038110	0.393820
H141	H	1.215128	-0.030169	0.359533
H142	H	1.263081	-0.002446	0.426946
H143	H	0.878150	0.147870	0.728729
H144	H	0.980513	-0.476152	-0.150874
O145	O	1.093821	0.001623	0.723720
C146	C	1.144773	0.032207	0.687924
H147	H	1.111166	0.076733	0.678661
H148	H	1.158198	0.008450	0.644376
H149	H	1.206154	0.036169	0.711790
H150	H	0.878099	0.147893	0.271411
O151	O	1.093780	0.001518	0.276100
C152	C	1.144052	-0.032581	0.235471
H153	H	1.109970	-0.033265	0.191339
H154	H	1.157249	-0.078058	0.253337
H155	H	1.205588	-0.013993	0.228883
H156	H	0.985344	-0.202910	-0.097269
H157	H	0.821193	0.186551	0.443912
O158	O	1.093828	0.001487	0.845759
C159	C	1.144120	-0.032617	0.805145
H160	H	1.110053	-0.033317	0.761009
H161	H	1.157322	-0.078089	0.823025
H162	H	1.205652	-0.014024	0.798562
O163	O	0.869172	0.153983	0.845829
C164	C	0.818886	0.188084	0.805236
H165	H	0.852956	0.188777	0.761096
H166	H	0.805687	0.233558	0.823138
H167	H	0.757352	0.169493	0.798650
H168	H	0.821193	0.186542	0.556234
