data_functionalizedCrystal
_audit_creation_method	'MofGen! by Chris Wilmer'
_symmetry_space_group_name_H-M	'P1'
_symmetry_Int_Tables_number	1
_symmetry_cell_setting	triclinic
loop_
_symmetry_equiv_pos_as_xyz
  x,y,z
_cell_length_a	18.426585
_cell_length_b	14.628931
_cell_length_c	14.628931
_cell_angle_alpha	59.999807
_cell_angle_beta	60.001356
_cell_angle_gamma	89.999756
loop_
_atom_site_label
_atom_site_type_symbol
_atom_site_fract_x
_atom_site_fract_y
_atom_site_fract_z
Zr1	Zr	0.699112	-0.119985	1.000616
O2	O	0.583235	-0.265942	1.191316
O3	O	0.734634	-0.075241	0.809912
O4	O	0.734634	-0.265947	1.000618
O5	O	0.583236	0.075196	1.000609
O6	O	0.854060	-0.265951	1.000625
O7	O	0.583235	-0.075236	1.000610
O8	O	0.854060	0.075188	0.659486
O9	O	0.583236	-0.265943	1.341748
O10	O	0.838910	-0.056161	0.888358
O11	O	0.749784	0.056108	0.888353
O12	O	0.749784	-0.168424	1.112885
O13	O	0.660658	-0.056156	1.112880
Zr14	Zr	0.889582	0.119931	1.000626
Zr15	Zr	0.889582	-0.119991	1.000626
Zr16	Zr	0.699112	0.119937	1.000615
Zr17	Zr	0.699112	-0.119985	1.240538
Zr18	Zr	0.889582	0.119931	0.760704
O19	O	0.854060	0.075187	1.191329
O20	O	0.854060	-0.265951	1.191330
O21	O	0.583236	0.075196	1.191315
O22	O	1.005459	0.265889	0.809926
O23	O	1.005458	-0.075249	0.809927
O24	O	0.734634	0.265897	0.809911
O25	O	1.005459	-0.075250	1.000632
O26	O	0.854060	0.265893	1.000623
O27	O	0.734634	0.265897	1.000617
O28	O	1.005459	0.075182	1.000632
O29	O	0.734634	-0.265947	1.341756
O30	O	0.854060	0.265894	0.659486
O31	O	1.005459	0.265889	0.659494
O32	O	1.005458	0.075183	0.659494
O33	O	0.583236	-0.075237	1.341747
O34	O	0.734634	-0.075242	1.341755
O35	O	0.838910	0.168371	0.888357
O36	O	0.928036	0.056102	0.888362
O37	O	0.838910	-0.056161	1.112889
O38	O	0.749784	0.056107	1.112884
C39	C	0.556098	-0.000019	1.000608
C40	C	0.475238	-0.000017	1.000604
C41	C	0.794347	-0.000026	0.700516
C42	C	0.794347	-0.000026	0.598663
C43	C	0.794347	0.300079	1.000620
C44	C	0.794348	0.401932	1.000620
C45	C	0.179123	-0.000036	1.000643
C46	C	0.261509	-0.000034	1.000637
C47	C	0.327178	-0.000027	1.000623
C48	C	0.409569	-0.000023	1.000618
C49	C	1.032597	-0.000035	1.000634
C50	C	1.113456	-0.000037	1.000638
C51	C	0.794347	-0.300133	1.000622
C52	C	0.794347	-0.401986	1.000622
C53	C	0.750135	0.391651	1.112000
C54	C	0.750134	0.496920	1.112002
C55	C	0.750135	0.055665	0.447986
C56	C	0.750134	0.055666	0.553256
C57	C	0.794347	-0.000027	1.300726
C58	C	0.794348	-0.000027	1.402579
C59	C	1.032596	-0.000034	0.700528
C60	C	1.113456	-0.000037	0.598680
C61	C	0.794347	0.300079	0.700515
C62	C	0.794347	0.401932	0.598661
C63	C	1.032597	0.300072	0.700527
C64	C	1.113456	0.401922	0.598679
C65	C	0.556098	-0.300125	1.300714
C66	C	0.475238	-0.401976	1.402563
C67	C	0.556098	-0.000020	1.300713
C68	C	0.475238	-0.000017	1.402562
C69	C	0.794347	-0.300133	1.300727
C70	C	0.794347	-0.401986	1.402580
C71	C	1.104905	-0.058648	0.550848
C72	C	1.180874	-0.058673	0.455164
C73	C	1.265393	-0.000079	0.407306
C74	C	1.273942	0.058534	0.455147
C75	C	1.197974	0.058552	0.550836
C76	C	1.197960	0.391149	0.550852
C77	C	1.273943	0.486840	0.455167
C78	C	1.265422	0.593302	0.407305
C79	C	1.180909	0.604073	0.455141
C80	C	1.104928	0.508383	0.550830
C81	C	0.390734	-0.391203	1.450402
C82	C	0.314751	-0.486893	1.546116
C83	C	0.323273	-0.593356	1.593984
C84	C	0.407785	-0.604126	1.546141
C85	C	0.483767	-0.508437	1.450435
C86	C	0.483789	0.058584	1.450404
C87	C	0.407820	0.058582	1.546114
C88	C	0.323301	-0.000015	1.593975
C89	C	0.314753	-0.058623	1.546130
C90	C	0.390721	-0.058628	1.450427
C91	C	0.838560	0.503032	0.553254
C92	C	0.838561	0.608304	0.447984
H93	H	0.712280	0.304915	1.207355
O94	O	0.249578	-0.000038	1.687059
C95	C	0.249722	-0.046654	1.797770
H96	H	0.320673	-0.038704	1.768859
H97	H	0.221791	-0.000118	1.844070
H98	H	0.206820	-0.138831	1.869902
O99	O	0.839394	-0.057092	0.552293
C100	C	0.805221	-0.171500	0.654358
H101	H	0.734325	-0.192271	0.735761
H102	H	0.805298	-0.224457	0.617804
H103	H	0.848404	-0.190288	0.692040
H104	H	1.342767	0.106239	0.416167
O105	O	0.382559	-0.287732	1.403940
C106	C	0.423713	-0.228885	1.427349
H107	H	0.475493	-0.265433	1.439253
H108	H	0.457446	-0.136785	1.342348
H109	H	0.371481	-0.236849	1.519371
O110	O	1.022763	-0.115655	0.597551
C111	C	0.976041	-0.197915	0.731642
H112	H	1.005050	-0.173275	0.772229
H113	H	0.902923	-0.205013	0.781223
H114	H	0.982368	-0.281973	0.749903
O115	O	0.565818	0.115529	1.404103
C116	C	0.557056	0.167266	1.466847
H117	H	0.489259	0.121296	1.563847
H118	H	0.611547	0.164111	1.483338
H119	H	0.563276	0.258225	1.404095
O120	O	1.206445	0.115600	0.597101
C121	C	1.297335	0.167286	0.534353
H122	H	1.337839	0.178860	0.437368
H123	H	1.307942	0.252426	0.517830
H124	H	1.319722	0.112371	0.597117
O125	O	0.839572	-0.056748	0.449146
C126	C	0.904843	0.018541	0.425738
H127	H	0.885279	0.095688	0.413728
H128	H	0.910428	-0.023908	0.510788
H129	H	0.971601	0.044722	0.333774
H130	H	1.173896	-0.106402	0.416223
O131	O	0.382519	-0.115379	1.403723
C132	C	0.423648	-0.040134	1.269638
H133	H	0.475439	0.036988	1.229044
H134	H	0.457363	-0.082647	1.220044
H135	H	0.371403	-0.013899	1.251401
O136	O	0.232582	-0.115438	1.592724
C137	C	0.167375	-0.102875	1.687467
H138	H	0.197004	-0.023731	1.671743
H139	H	0.108784	-0.096140	1.679704
H140	H	0.143607	-0.178592	1.787565
H141	H	1.173984	0.690767	0.416157
H142	H	1.327244	-0.000101	0.329389
O143	O	0.232711	-0.476273	1.592590
C144	C	0.222979	-0.417234	1.647941
H145	H	0.291377	-0.364428	1.604710
H146	H	0.183033	-0.360331	1.626925
H147	H	0.186660	-0.479199	1.756942
H148	H	0.552571	-0.517222	1.411486
O149	O	1.206092	0.287655	0.597441
C150	C	1.120916	0.205491	0.692183
H151	H	1.070556	0.242780	0.676459
H152	H	1.121762	0.131690	0.684417
H153	H	1.101554	0.175561	0.792281
O154	O	1.339326	0.686134	0.314305
C155	C	1.415735	0.653782	0.282385
H156	H	1.398279	0.565443	0.308767
H157	H	1.469397	0.714229	0.174225
H158	H	1.441314	0.655514	0.338350
O159	O	1.022909	0.519056	0.597091
C160	C	1.031693	0.633544	0.534337
H161	H	1.099500	0.684562	0.437354
H162	H	0.977218	0.646907	0.517812
H163	H	1.025462	0.661743	0.597100
O164	O	0.249368	-0.686188	1.686906
C165	C	0.172959	-0.653836	1.718875
H166	H	0.190415	-0.565498	1.634931
H167	H	0.119296	-0.714283	1.738755
H168	H	0.147381	-0.655566	1.808789
O169	O	0.415897	-0.707631	1.592741
C170	C	0.330707	-0.789766	1.687487
H171	H	0.280359	-0.752443	1.671760
H172	H	0.331522	-0.863569	1.679728
H173	H	0.311354	-0.819702	1.787583
H174	H	0.756492	0.393313	0.559606
O175	O	0.883705	0.513127	0.599945
C176	C	0.873640	0.405770	0.694675
H177	H	0.856497	0.342415	0.678870
H178	H	0.938369	0.406721	0.686979
H179	H	0.817920	0.381364	0.794773
O180	O	0.883642	0.711850	0.401306
C181	C	0.873619	0.793907	0.306576
H182	H	0.810776	0.756512	0.322373
H183	H	0.868262	0.867739	0.314279
H184	H	0.933712	0.823822	0.206477
H185	H	1.342750	0.478050	0.416229
H186	H	0.712285	0.488293	1.207359
H187	H	0.756499	0.511292	0.441615
H188	H	0.832203	0.606650	0.905260
H189	H	0.414798	0.106313	1.585054
H190	H	0.712288	0.103351	0.408920
O191	O	0.839374	0.505459	0.886935
C192	C	0.779599	0.564264	0.880008
H193	H	0.718355	0.527615	0.981796
H194	H	0.813297	0.656348	0.830522
H195	H	0.758809	0.556380	0.822107
H196	H	0.712278	0.103342	0.592310
