data_functionalizedCrystal
_audit_creation_method	'MofGen! by Chris Wilmer'
_symmetry_space_group_name_H-M	'P1'
_symmetry_Int_Tables_number	1
_symmetry_cell_setting	triclinic
loop_
_symmetry_equiv_pos_as_xyz
  x,y,z
_cell_length_a	6.817900
_cell_length_b	16.305681
_cell_length_c	16.305550
_cell_angle_alpha	95.371254
_cell_angle_beta	103.455250
_cell_angle_gamma	103.457389
loop_
_atom_site_label
_atom_site_type_symbol
_atom_site_fract_x
_atom_site_fract_y
_atom_site_fract_z
V1	V	-4.026191	-0.117429	-0.263322
O2	O	-4.013843	0.004910	-0.258012
O3	O	-3.977589	-0.232137	-0.261807
O4	O	-3.977598	-0.115944	-0.378035
O5	O	-4.013834	-0.112087	-0.140979
V6	V	-4.509870	-0.102758	-0.248654
O7	O	-4.287107	-0.149611	-0.295497
O8	O	-4.699152	-0.070575	-0.216479
O9	O	-4.335266	0.011951	-0.250169
O10	O	-4.639615	-0.225097	-0.253964
O11	O	-4.639624	-0.108100	-0.370997
O12	O	-4.335257	-0.104243	-0.133941
C13	C	-3.822547	-0.260091	-0.257726
C14	C	-3.864094	-0.353868	-0.257252
C15	C	-3.940236	-0.525570	-0.256406
C16	C	-3.736017	-0.556086	-0.251127
C17	C	-3.779332	-0.653679	-0.250964
C18	C	-4.015199	-0.694622	-0.255573
C19	C	-4.151340	-0.674609	-0.339102
C20	C	-4.106672	-0.577011	-0.339618
C21	C	-4.026207	-0.551426	-0.178454
C22	C	-4.064811	-0.648742	-0.176814
C23	C	-4.057579	-0.790163	-0.255105
C24	C	-3.897866	-0.430030	-0.256880
C25	C	-3.822557	-0.111874	-0.405986
C26	C	-3.864109	-0.111419	-0.499767
C27	C	-4.015197	-0.109656	-0.840508
C28	C	-3.779151	-0.104421	-0.799567
C29	C	-3.735957	-0.105244	-0.702074
C30	C	-3.940239	-0.110530	-0.671462
C31	C	-4.107233	-0.193843	-0.722295
C32	C	-4.149097	-0.193372	-0.819843
C33	C	-4.069988	-0.032242	-0.794473
C34	C	-4.022059	-0.031583	-0.696629
C35	C	-3.897889	-0.111027	-0.575926
C36	C	-4.057556	-0.109164	-0.936046
C37	C	-4.153650	0.039900	-0.254247
C38	C	-4.091341	0.133676	-0.254727
C39	C	-4.153640	-0.108316	-0.105985
C40	C	-4.091326	-0.108767	-0.012203
H41	H	-3.609488	-0.045341	-0.666902
C42	C	-3.822777	0.053240	-0.561688
C43	C	-3.858695	0.051610	-0.650017
H44	H	-3.721927	0.104601	-0.532910
H45	H	-3.772396	0.005720	-0.546218
H46	H	-3.949651	0.050518	-0.546033
H47	H	-3.731823	0.054325	-0.665674
H48	H	-3.909069	0.099143	-0.665493
H49	H	-4.322930	-0.200679	-0.847853
C50	C	-3.509418	-0.720146	-0.193008
C51	C	-3.636758	-0.670883	-0.169928
H52	H	-3.421407	-0.730769	-0.142977
H53	H	-3.426029	-0.690224	-0.225532
H54	H	-3.594465	-0.772861	-0.226157
H55	H	-3.551711	-0.618165	-0.136784
H56	H	-3.720155	-0.700804	-0.137390
H57	H	-4.324961	-0.702057	-0.345517
H58	H	-4.259459	-0.557744	-0.346915
C59	C	-3.757949	0.023212	-0.863245
C60	C	-3.635886	-0.023182	-0.816066
H61	H	-3.669497	0.073363	-0.873439
H62	H	-3.849027	0.038610	-0.832091
H63	H	-3.838079	-0.010873	-0.916208
H64	H	-3.555767	0.010901	-0.763100
H65	H	-3.544771	-0.038578	-0.847219
C66	C	-4.278712	-0.207225	-0.609346
C67	C	-4.313986	-0.203145	-0.696785
H68	H	-4.406354	-0.212971	-0.593599
H69	H	-4.179987	-0.156451	-0.577874
H70	H	-4.225902	-0.255029	-0.597268
H71	H	-4.366781	-0.155336	-0.708863
H72	H	-4.412745	-0.253925	-0.728267
H73	H	-4.169347	-0.030546	-0.675279
H74	H	-4.051772	-0.252463	-0.705627
C75	C	-4.349658	0.032775	-0.789316
C76	C	-4.302258	-0.036408	-0.830686
H77	H	-4.493053	0.030194	-0.811674
H78	H	-4.265581	0.084623	-0.798358
H79	H	-4.322515	0.030417	-0.729859
H80	H	-4.329386	-0.034046	-0.890142
H81	H	-4.386362	-0.088268	-0.821651
C82	C	-3.970792	-0.752488	-0.090921
C83	C	-3.928609	-0.664649	-0.093446
H84	H	-3.886714	-0.762311	-0.039452
H85	H	-3.940065	-0.780385	-0.138326
H86	H	-4.114205	-0.774337	-0.093259
H87	H	-3.785199	-0.642801	-0.091114
H88	H	-3.959321	-0.636742	-0.046028
C89	C	-4.306099	-0.548518	-0.112954
C90	C	-4.230659	-0.525243	-0.182619
H91	H	-4.432319	-0.532354	-0.115534
H92	H	-4.205206	-0.520432	-0.061380
H93	H	-4.331968	-0.608559	-0.114712
H94	H	-4.204775	-0.465201	-0.180857
H95	H	-4.331575	-0.553326	-0.234205
H96	H	-3.608708	-0.521391	-0.191292
H97	H	-3.734035	-0.160039	-0.831216
C98	C	-3.631276	-0.226136	-0.755063
C99	C	-3.646259	-0.181194	-0.680258
H100	H	-3.575913	-0.273031	-0.741594
H101	H	-3.541619	-0.189288	-0.780588
H102	H	-3.766148	-0.246581	-0.793732
H103	H	-3.511384	-0.160744	-0.641591
H104	H	-3.735917	-0.218049	-0.654720
H105	H	-3.734102	-0.684236	-0.307122
H106	H	-4.050850	-0.562046	-0.398575
C107	C	-3.598792	-0.444011	-0.324195
C108	C	-3.646465	-0.532660	-0.326729
H109	H	-3.543528	-0.429551	-0.370874
H110	H	-3.498389	-0.417004	-0.272145
H111	H	-3.722143	-0.425359	-0.327861
H112	H	-3.523111	-0.551311	-0.323057
H113	H	-3.746875	-0.559676	-0.378792
C114	C	-4.033627	-0.319851	-0.797820
C115	C	-4.100250	-0.272479	-0.861058
H116	H	-4.003453	-0.368685	-0.823262
H117	H	-4.140847	-0.337454	-0.770067
H118	H	-3.911372	-0.285542	-0.757250
H119	H	-4.222514	-0.306786	-0.901625
H120	H	-3.993021	-0.254877	-0.888825
H121	H	-4.118080	-0.706837	-0.397594
H122	H	-3.912582	-0.515435	-0.115666
H123	H	-4.233541	-0.676086	-0.175295
H124	H	-3.978616	0.030884	-0.807685
