data_functionalizedCrystal
_audit_creation_method	'MofGen! by Chris Wilmer'
_symmetry_space_group_name_H-M	'P1'
_symmetry_Int_Tables_number	1
_symmetry_cell_setting	triclinic
loop_
_symmetry_equiv_pos_as_xyz
  x,y,z
_cell_length_a	12.594516
_cell_length_b	12.594517
_cell_length_c	18.215399
_cell_angle_alpha	90.005942
_cell_angle_beta	89.972835
_cell_angle_gamma	89.992835
loop_
_atom_site_label
_atom_site_type_symbol
_atom_site_fract_x
_atom_site_fract_y
_atom_site_fract_z
Zn1	Zn	-0.423929	-1.627267	-0.415859
Zn2	Zn	0.076071	-1.127267	0.084141
Zn3	Zn	-0.601928	-1.627171	-0.292795
Zn4	Zn	-0.101928	-1.127171	0.207205
Zn5	Zn	-0.423944	-1.449276	-0.292835
Zn6	Zn	0.076056	-0.949276	0.207165
Zn7	Zn	-0.601846	-1.449261	-0.415849
Zn8	Zn	-0.101846	-0.949261	0.084151
O9	O	-0.512912	-1.538244	-0.354334
O10	O	-0.012912	-1.038244	0.145666
O11	O	-0.447569	-1.776200	-0.399522
O12	O	0.052431	-1.276200	0.100478
O13	O	-0.578359	-1.603539	-0.189816
O14	O	-0.078359	-1.103539	0.310184
O15	O	-0.274997	-1.472933	-0.309175
O16	O	0.225003	-0.972933	0.190825
O17	O	-0.578344	-1.776129	-0.309107
O18	O	-0.078344	-1.276129	0.190893
O19	O	-0.274986	-1.603702	-0.399560
O20	O	0.225014	-1.103702	0.100440
O21	O	-0.447595	-1.472841	-0.189845
O22	O	0.052405	-0.972841	0.310155
O23	O	-0.447516	-1.300328	-0.309165
O24	O	0.052484	-0.800328	0.190835
O25	O	-0.578205	-1.472907	-0.518834
O26	O	-0.078205	-0.972907	-0.018834
O27	O	-0.578219	-1.300317	-0.399543
O28	O	-0.078219	-0.800317	0.100457
O29	O	-0.447490	-1.603687	-0.518842
O30	O	0.052510	-1.103687	-0.018842
O31	O	-0.750863	-1.603524	-0.309097
O32	O	-0.250863	-1.103524	0.190903
O33	O	-0.750803	-1.472814	-0.399505
O34	O	-0.250803	-0.972814	0.100495
C35	C	-0.789453	-1.538186	-0.354312
C36	C	-0.289453	-1.038186	0.145688
C37	C	-0.907759	-1.538259	-0.354327
C38	C	-0.407759	-1.038259	0.145673
C39	C	-0.512861	-1.261703	-0.354358
C40	C	-0.012861	-0.761703	0.145642
C41	C	-0.512865	-1.143397	-0.354386
C42	C	-0.012865	-0.643397	0.145614
C43	C	-1.047769	-1.609482	-0.305240
C44	C	-0.547769	-1.109482	0.194760
C45	C	-0.977072	-1.512353	-0.287169
C46	C	-0.477072	-1.012353	0.212831
C47	C	-0.976884	-1.635376	-0.372364
C48	C	-0.476884	-1.135376	0.127636
C49	C	-1.047847	-1.441188	-0.336285
C50	C	-0.547847	-0.941188	0.163715
C51	C	-1.047665	-1.564276	-0.421511
C52	C	-0.547665	-1.064276	0.078489
C53	C	-0.977000	-1.467080	-0.403466
C54	C	-0.477000	-0.967080	0.096534
C55	C	-0.584091	-1.074169	-0.403450
C56	C	-0.084091	-0.574169	0.096550
C57	C	-0.487044	-1.003355	-0.421556
C58	C	0.012956	-0.503355	0.078444
C59	C	-0.609984	-1.003412	-0.336272
C60	C	-0.109984	-0.503412	0.163728
C61	C	-0.415766	-1.074142	-0.372527
C62	C	0.084234	-0.574142	0.127473
C63	C	-0.538771	-1.074205	-0.287212
C64	C	-0.038771	-0.574205	0.212788
C65	C	-0.441657	-1.003423	-0.305292
C66	C	0.058343	-0.503423	0.194708
C67	C	-0.235291	-1.538330	-0.354373
C68	C	0.264709	-1.038330	0.145627
C69	C	-0.116986	-1.538367	-0.354390
C70	C	0.383014	-1.038367	0.145610
C71	C	-0.512837	-1.538306	-0.546287
C72	C	-0.012837	-1.038306	-0.046287
C73	C	-0.512805	-1.538333	-0.628086
C74	C	-0.012805	-1.038333	-0.128086
C75	C	-0.512954	-0.815864	-0.354322
C76	C	-0.012954	-0.315864	0.145678
C77	C	-0.512947	-0.934170	-0.354346
C78	C	-0.012947	-0.434170	0.145654
C79	C	-0.444649	-1.606469	-0.893149
C80	C	0.055351	-1.106469	-0.393149
C81	C	-0.444678	-1.606457	-0.816290
C82	C	0.055322	-1.106457	-0.316290
C83	C	-0.580805	-1.470282	-0.816272
C84	C	-0.080805	-0.970282	-0.316272
C85	C	-0.580781	-1.470301	-0.893130
C86	C	-0.080781	-0.970301	-0.393130
C87	C	-0.512697	-1.538393	-0.931566
C88	C	-0.012697	-1.038393	-0.431566
C89	C	-0.512750	-1.538362	-0.777850
C90	C	-0.012750	-1.038362	-0.277850
C91	C	-0.512782	-1.538348	-0.694516
C92	C	-0.012782	-1.038348	-0.194516
C93	C	-0.512667	-1.538409	-1.014905
C94	C	-0.012667	-1.038409	-0.514905
C95	C	-0.512910	-1.538243	-0.163128
C96	C	-0.012910	-1.038243	0.336872
C97	C	-0.512643	-1.538422	-0.081330
C98	C	-0.012643	-1.038422	0.418670
H99	H	-1.078842	-1.669593	-0.263670
H100	H	-0.578842	-1.169593	0.236330
Cl101	Cl	-0.359131	-1.692044	-0.767998
Cl102	Cl	0.140869	-1.192044	-0.267998
H103	H	-0.946061	-1.490385	-0.230379
H104	H	-0.446061	-0.990385	0.269621
H105	H	-0.389210	-1.661913	-0.924442
H106	H	0.110790	-1.161913	-0.424442
H107	H	-0.636235	-1.414843	-0.784968
H108	H	-0.136235	-0.914843	-0.284968
H109	H	-0.636199	-1.414864	-0.924410
H110	H	-0.136199	-0.914864	-0.424410
H111	H	-1.078885	-1.359079	-0.320992
H112	H	-0.578885	-0.859079	0.179008
Cl113	Cl	-0.572583	-1.122254	-0.199542
Cl114	Cl	-0.072583	-0.622254	0.300458
Cl115	Cl	-0.929326	-1.374056	-0.467599
Cl116	Cl	-0.429326	-0.874056	0.032401
Cl117	Cl	-0.348613	-0.955760	-0.241205
Cl118	Cl	0.151387	-0.455760	0.258795
Cl119	Cl	-1.095589	-1.598239	-0.509165
Cl120	Cl	-0.595589	-1.098239	-0.009165
H121	H	-0.945714	-1.717460	-0.387592
H122	H	-0.445714	-1.217460	0.112408
Cl123	Cl	-0.676918	-1.122133	-0.467583
Cl124	Cl	-0.176918	-0.622133	0.032417
H125	H	-0.333644	-1.105081	-0.387895
H126	H	0.166356	-0.605081	0.112105
H127	H	-0.465161	-0.972235	-0.478347
H128	H	0.034839	-0.472235	0.021653
H129	H	-0.692081	-0.972337	-0.320971
H130	H	-0.192081	-0.472337	0.179029
