data_functionalizedCrystal
_audit_creation_method	'MofGen! by Chris Wilmer'
_symmetry_space_group_name_H-M	'P1'
_symmetry_Int_Tables_number	1
_symmetry_cell_setting	triclinic
loop_
_symmetry_equiv_pos_as_xyz
  x,y,z
_cell_length_a	13.032831
_cell_length_b	18.050589
_cell_length_c	13.033388
_cell_angle_alpha	82.830638
_cell_angle_beta	89.094871
_cell_angle_gamma	82.833186
loop_
_atom_site_label
_atom_site_type_symbol
_atom_site_fract_x
_atom_site_fract_y
_atom_site_fract_z
Zn1	Zn	1.498134	-0.501709	0.780802
Zn2	Zn	1.519896	-0.612316	0.608830
Zn3	Zn	1.348054	-0.470641	0.587051
Zn4	Zn	1.326103	-0.608335	0.758948
O5	O	1.423047	-0.548250	0.683908
O6	O	1.644932	-0.531049	0.776250
O7	O	1.515394	-0.582186	0.462030
O8	O	1.368042	-0.370848	0.612784
O9	O	1.660921	-0.612311	0.649902
O10	O	1.478305	-0.393673	0.755132
O11	O	1.389143	-0.478099	0.446030
O12	O	1.201230	-0.474239	0.591594
O13	O	1.330629	-0.605526	0.905758
O14	O	1.185103	-0.575401	0.717886
O15	O	1.457020	-0.527189	0.921814
O16	O	1.494109	-0.715702	0.628711
O17	O	1.351731	-0.712777	0.739003
C18	C	1.155852	-0.521017	0.650006
C19	C	1.041542	-0.509387	0.635527
C20	C	0.982639	-0.554320	0.691465
C21	C	0.864493	-0.542301	0.676501
C22	C	1.422925	-0.741188	0.683875
C23	C	1.422962	-0.823740	0.683907
C24	C	1.345607	-1.021632	0.743869
C25	C	1.332489	-1.061112	0.646852
C26	C	1.423062	-0.974882	0.683934
C27	C	1.436229	-1.082490	0.780968
C28	C	1.423154	-1.120878	0.683967
C29	C	1.409900	-1.013265	0.586861
C30	C	1.513676	-1.034649	0.721045
C31	C	1.500601	-1.074104	0.623969
C32	C	1.423005	-0.890777	0.683915
C33	C	1.423212	-1.204981	0.683975
C34	C	1.691285	-0.575590	0.717943
C35	C	1.805592	-0.587240	0.732447
C36	C	1.388948	-0.569379	0.952144
C37	C	1.374418	-0.578383	1.066450
C38	C	1.423194	-0.354563	0.683967
C39	C	1.423257	-0.272025	0.683992
C40	C	1.415471	-0.552948	1.243499
C41	C	1.430484	-0.543636	1.125357
C42	C	1.457003	-0.527217	1.416714
C43	C	1.471530	-0.518206	1.302408
H44	H	1.280032	-0.998630	0.794461
C45	C	1.649895	-0.497172	1.291226
C46	C	1.551324	-0.468741	1.252428
H47	H	1.699154	-0.466629	1.260375
H48	H	1.667117	-0.547217	1.275554
H49	H	1.650266	-0.496938	1.364064
H50	H	1.550951	-0.468980	1.179591
H51	H	1.534098	-0.418683	1.268093
C52	C	1.698295	-1.046163	0.701724
C53	C	1.617034	-1.018421	0.763440
H54	H	1.762102	-1.036148	0.727912
H55	H	1.689069	-1.022243	0.632770
H56	H	1.698832	-1.098916	0.702652
H57	H	1.616492	-0.965666	0.762506
H58	H	1.626263	-1.042339	0.832412
H59	H	1.019676	-0.601685	0.750437
H60	H	0.827459	-0.494927	0.617533
H61	H	1.004504	-0.462017	0.576562
H62	H	1.356360	-0.589584	1.280529
H63	H	0.842623	-0.634607	0.791426
C64	C	1.148046	-1.050797	0.667346
C65	C	1.229101	-1.077321	0.604488
H66	H	1.084219	-1.060808	0.641198
H67	H	1.147033	-0.998116	0.667615
H68	H	1.157910	-1.075492	0.735851
H69	H	1.219241	-1.052623	0.535984
H70	H	1.230112	-1.130013	0.604207
H71	H	1.447331	-1.112566	0.863015
H72	H	1.398709	-0.983268	0.504780
C73	C	1.484867	-0.420392	1.098494
C74	C	1.510283	-0.494167	1.075386
H75	H	1.534128	-0.389853	1.067638
H76	H	1.485252	-0.420169	1.171323
H77	H	1.417990	-0.401118	1.072174
H78	H	1.577157	-0.513443	1.101713
H79	H	1.509909	-0.494393	1.002542
C80	C	1.344810	-0.686289	1.185511
C81	C	1.294624	-0.627858	1.116413
H82	H	1.295550	-0.716837	1.216348
H83	H	1.378015	-0.665698	1.237779
H84	H	1.394889	-0.715969	1.149261
H85	H	1.244550	-0.598176	1.152665
H86	H	1.261401	-0.648451	1.064138
H87	H	1.566150	-1.096954	0.573231
