data_functionalizedCrystal
_audit_creation_method	'MofGen! by Chris Wilmer'
_symmetry_space_group_name_H-M	'P1'
_symmetry_Int_Tables_number	1
_symmetry_cell_setting	triclinic
loop_
_symmetry_equiv_pos_as_xyz
  x,y,z
_cell_length_a	16.625548
_cell_length_b	18.101397
_cell_length_c	16.625539
_cell_angle_alpha	89.970010
_cell_angle_beta	89.982945
_cell_angle_gamma	90.021534
loop_
_atom_site_label
_atom_site_type_symbol
_atom_site_fract_x
_atom_site_fract_y
_atom_site_fract_z
Zn1	Zn	1.232664	-0.294821	-0.455889
Zn2	Zn	1.482664	-0.044821	-0.205889
Zn3	Zn	1.732664	0.205179	0.044111
Zn4	Zn	1.982664	0.455179	0.294111
Zn5	Zn	1.232580	-0.418666	-0.321048
Zn6	Zn	1.482580	-0.168666	-0.071048
Zn7	Zn	1.732580	0.081334	0.178952
Zn8	Zn	1.982580	0.331334	0.428952
Zn9	Zn	1.097834	-0.294845	-0.321070
Zn10	Zn	1.347834	-0.044845	-0.071070
Zn11	Zn	1.597834	0.205155	0.178930
Zn12	Zn	1.847834	0.455155	0.428930
Zn13	Zn	1.097801	-0.418627	-0.455838
Zn14	Zn	1.347801	-0.168627	-0.205838
Zn15	Zn	1.597801	0.081373	0.044162
Zn16	Zn	1.847801	0.331373	0.294162
O17	O	1.165220	-0.356740	-0.388461
O18	O	1.415220	-0.106740	-0.138461
O19	O	1.665220	0.143260	0.111539
O20	O	1.915220	0.393260	0.361539
O21	O	1.345485	-0.311255	-0.438015
O22	O	1.595485	-0.061255	-0.188015
O23	O	1.845485	0.188745	0.061985
O24	O	2.095485	0.438745	0.311985
O25	O	1.214684	-0.402267	-0.208219
O26	O	1.464684	-0.152267	0.041781
O27	O	1.714684	0.097733	0.291781
O28	O	1.964684	0.347733	0.541781
O29	O	1.115768	-0.191209	-0.338985
O30	O	1.365768	0.058791	-0.088985
O31	O	1.615768	0.308791	0.161015
O32	O	1.865768	0.558791	0.411015
O33	O	1.345423	-0.402243	-0.338948
O34	O	1.595423	-0.152243	-0.088948
O35	O	1.845423	0.097757	0.161052
O36	O	2.095423	0.347757	0.411052
O37	O	1.214827	-0.191191	-0.438036
O38	O	1.464827	0.058809	-0.188036
O39	O	1.714827	0.308809	0.061964
O40	O	1.964827	0.558809	0.311964
O41	O	1.115687	-0.311296	-0.208235
O42	O	1.365687	-0.061296	0.041765
O43	O	1.615687	0.188704	0.291765
O44	O	1.865687	0.438704	0.541765
O45	O	0.984997	-0.311259	-0.338935
O46	O	1.234997	-0.061259	-0.088935
O47	O	1.484997	0.188741	0.161065
O48	O	1.734997	0.438741	0.411065
O49	O	1.115712	-0.402178	-0.568677
O50	O	1.365712	-0.152178	-0.318677
O51	O	1.615712	0.097822	-0.068677
O52	O	1.865712	0.347822	0.181323
O53	O	0.984973	-0.402201	-0.437949
O54	O	1.234973	-0.152201	-0.187949
O55	O	1.484973	0.097799	0.062051
O56	O	1.734973	0.347799	0.312051
O57	O	1.214795	-0.311218	-0.568715
O58	O	1.464795	-0.061218	-0.318715
O59	O	1.714795	0.188782	-0.068715
O60	O	1.964795	0.438782	0.181285
O61	O	1.214652	-0.522294	-0.338898
O62	O	1.464652	-0.272294	-0.088898
O63	O	1.714652	-0.022294	0.161102
O64	O	1.964652	0.227706	0.411102
O65	O	1.115630	-0.522265	-0.437928
O66	O	1.365630	-0.272265	-0.187928
O67	O	1.615630	-0.022265	0.062072
O68	O	1.865630	0.227735	0.312072
C69	C	0.955729	-0.356729	-0.388439
C70	C	1.205729	-0.106729	-0.138439
C71	C	1.455729	0.143271	0.111561
C72	C	1.705729	0.393271	0.361561
C73	C	0.866108	-0.356742	-0.388448
C74	C	1.116108	-0.106742	-0.138448
C75	C	1.366108	0.143258	0.111552
C76	C	1.616108	0.393258	0.361552
C77	C	0.537932	-0.356747	-0.388483
C78	C	0.787932	-0.106747	-0.138483
C79	C	1.037932	0.143253	0.111517
C80	C	1.287932	0.393253	0.361517
C81	C	0.629240	-0.356744	-0.388471
C82	C	0.879240	-0.106744	-0.138471
C83	C	1.129240	0.143256	0.111529
C84	C	1.379240	0.393256	0.361529
C85	C	0.702017	-0.356745	-0.388465
C86	C	0.952017	-0.106745	-0.138465
C87	C	1.202017	0.143255	0.111535
C88	C	1.452017	0.393255	0.361535
C89	C	0.793331	-0.356741	-0.388454
C90	C	1.043331	-0.106741	-0.138454
C91	C	1.293331	0.143259	0.111546
C92	C	1.543331	0.393259	0.361546
C93	C	1.165151	-0.549150	-0.388422
C94	C	1.415151	-0.299150	-0.138422
C95	C	1.665151	-0.049150	0.111578
C96	C	1.915151	0.200850	0.361578
C97	C	1.165195	-0.631464	-0.388433
C98	C	1.415195	-0.381464	-0.138433
C99	C	1.665195	-0.131464	0.111567
C100	C	1.915195	0.118536	0.361567
C101	C	1.165298	-0.930555	-0.388506
C102	C	1.415298	-0.680555	-0.138506
C103	C	1.665298	-0.430555	0.111494
C104	C	1.915298	-0.180555	0.361494
C105	C	1.227426	-0.899217	-0.326033
C106	C	1.477426	-0.649217	-0.076033
C107	C	1.727426	-0.399217	0.173967
C108	C	1.977426	-0.149217	0.423967
C109	C	1.227641	-0.813598	-0.326194
C110	C	1.477641	-0.563598	-0.076194
C111	C	1.727641	-0.313598	0.173806
C112	C	1.977641	-0.063598	0.423806
C113	C	1.165247	-0.782173	-0.388469
C114	C	1.415247	-0.532173	-0.138469
C115	C	1.665247	-0.282173	0.111531
C116	C	1.915247	-0.032173	0.361531
C117	C	1.188278	-0.813180	-0.473459
C118	C	1.438278	-0.563180	-0.223459
C119	C	1.688278	-0.313180	0.026541
C120	C	1.938278	-0.063180	0.276541
C121	C	1.188759	-0.898825	-0.473119
C122	C	1.438759	-0.648825	-0.223119
C123	C	1.688759	-0.398825	0.026881
C124	C	1.938759	-0.148825	0.276881
C125	C	1.079973	-0.899065	-0.366725
C126	C	1.329973	-0.649065	-0.116725
C127	C	1.579973	-0.399065	0.133275
C128	C	1.829973	-0.149065	0.383275
C129	C	1.080394	-0.813416	-0.364828
C130	C	1.330394	-0.563416	-0.114828
C131	C	1.580394	-0.313416	0.135172
C132	C	1.830394	-0.063416	0.385172
C133	C	1.165216	-0.698313	-0.388453
C134	C	1.415216	-0.448313	-0.138453
C135	C	1.665216	-0.198313	0.111547
C136	C	1.915216	0.051687	0.361547
C137	C	1.165330	-1.014415	-0.388528
C138	C	1.415330	-0.764415	-0.138528
C139	C	1.665330	-0.514415	0.111472
C140	C	1.915330	-0.264415	0.361472
C141	C	1.375528	-0.356751	-0.388485
C142	C	1.625528	-0.106751	-0.138485
C143	C	1.875528	0.143249	0.111515
C144	C	2.125528	0.393249	0.361515
C145	C	1.465149	-0.356756	-0.388494
C146	C	1.715149	-0.106756	-0.138494
C147	C	1.965149	0.143244	0.111506
C148	C	2.215149	0.393244	0.361506
C149	C	1.165259	-0.356691	-0.598770
C150	C	1.415259	-0.106691	-0.348770
C151	C	1.665259	0.143309	-0.098770
C152	C	1.915259	0.393309	0.151230
C153	C	1.165276	-0.356670	-0.688392
C154	C	1.415276	-0.106670	-0.438392
C155	C	1.665276	0.143330	-0.188392
C156	C	1.915276	0.393330	0.061608
C157	C	1.165311	-0.163578	-0.388518
C158	C	1.415311	0.086422	-0.138518
C159	C	1.665311	0.336422	0.111482
C160	C	1.915311	0.586422	0.361482
C161	C	1.165350	-0.081264	-0.388543
C162	C	1.415350	0.168736	-0.138543
C163	C	1.665350	0.418736	0.111457
C164	C	1.915350	0.668736	0.361457
C165	C	1.165289	-0.356654	-0.761174
C166	C	1.415289	-0.106654	-0.511174
C167	C	1.665289	0.143346	-0.261174
C168	C	1.915289	0.393346	-0.011174
C169	C	1.165308	-0.356626	-0.852483
C170	C	1.415308	-0.106626	-0.602483
C171	C	1.665308	0.143374	-0.352483
C172	C	1.915308	0.393374	-0.102483
C173	C	1.165327	-0.356600	-0.925259
C174	C	1.415327	-0.106600	-0.675259
C175	C	1.665327	0.143400	-0.425259
C176	C	1.915327	0.393400	-0.175259
C177	C	1.165347	-0.356573	-1.016574
C178	C	1.415347	-0.106573	-0.766574
C179	C	1.665347	0.143427	-0.516574
C180	C	1.915347	0.393427	-0.266574
C181	C	1.165227	-0.356735	-0.178971
C182	C	1.415227	-0.106735	0.071029
C183	C	1.665227	0.143265	0.321029
C184	C	1.915227	0.393265	0.571029
C185	C	1.165366	-0.356547	-0.089350
C186	C	1.415366	-0.106547	0.160650
C187	C	1.665366	0.143453	0.410650
C188	C	1.915366	0.393453	0.660650
H189	H	1.213233	-0.792637	-0.263176
H190	H	1.463233	-0.542637	-0.013176
H191	H	1.713233	-0.292637	0.236824
H192	H	1.963233	-0.042637	0.486824
F193	F	1.268886	-0.785070	-0.497984
F194	F	1.518886	-0.535070	-0.247984
F195	F	1.768886	-0.285070	0.002016
F196	F	2.018886	-0.035070	0.252016
H197	H	1.213191	-0.919860	-0.262825
H198	H	1.463191	-0.669860	-0.012825
H199	H	1.713191	-0.419860	0.237175
H200	H	1.963191	-0.169860	0.487175
F201	F	1.309588	-0.927273	-0.344652
F202	F	1.559588	-0.677273	-0.094652
F203	F	1.809588	-0.427273	0.155348
F204	F	2.059588	-0.177273	0.405348
F205	F	1.310252	-0.786742	-0.345035
F206	F	1.560252	-0.536742	-0.095035
F207	F	1.810252	-0.286742	0.154965
F208	F	2.060252	-0.036742	0.404965
H209	H	1.145489	-0.919553	-0.521271
H210	H	1.395489	-0.669553	-0.271271
H211	H	1.645489	-0.419553	-0.021271
H212	H	1.895489	-0.169553	0.228729
H213	H	1.144410	-0.792822	-0.521259
H214	H	1.394410	-0.542822	-0.271259
H215	H	1.644410	-0.292822	-0.021259
H216	H	1.894410	-0.042822	0.228741
F217	F	1.052585	-0.927377	-0.287125
F218	F	1.302585	-0.677377	-0.037125
F219	F	1.552585	-0.427377	0.212875
F220	F	1.802585	-0.177377	0.462875
H221	H	1.251127	-0.918743	-0.491569
H222	H	1.501127	-0.668743	-0.241569
H223	H	1.751127	-0.418743	0.008431
H224	H	2.001127	-0.168743	0.258431
H225	H	1.063028	-0.793157	-0.302282
H226	H	1.313028	-0.543157	-0.052282
H227	H	1.563028	-0.293157	0.197718
H228	H	1.813028	-0.043157	0.447718
F229	F	1.016633	-0.785466	-0.419947
F230	F	1.266633	-0.535466	-0.169947
F231	F	1.516633	-0.285466	0.080053
F232	F	1.766633	-0.035466	0.330053
F233	F	1.019468	-0.925557	-0.426198
F234	F	1.269468	-0.675557	-0.176198
F235	F	1.519468	-0.425557	0.073802
F236	F	1.769468	-0.175557	0.323802
