data_functionalizedCrystal
_audit_creation_method	'MofGen! by Chris Wilmer'
_symmetry_space_group_name_H-M	'P1'
_symmetry_Int_Tables_number	1
_symmetry_cell_setting	triclinic
loop_
_symmetry_equiv_pos_as_xyz
  x,y,z
_cell_length_a	11.026607
_cell_length_b	10.967926
_cell_length_c	9.130313
_cell_angle_alpha	77.871013
_cell_angle_beta	90.000037
_cell_angle_gamma	83.619246
loop_
_atom_site_label
_atom_site_type_symbol
_atom_site_fract_x
_atom_site_fract_y
_atom_site_fract_z
O1	O	0.170519	-1.693975	0.305775
O2	O	0.186840	-1.334348	0.215001
O3	O	0.001779	-1.484356	0.252870
O4	O	0.355581	-1.543967	0.267906
O5	O	0.001784	-1.484355	0.496468
O6	O	0.186845	-1.334347	0.458599
O7	O	0.170524	-1.693974	0.549374
Cu8	Cu	0.178685	-1.514160	0.526229
Cu9	Cu	0.178679	-1.514162	0.238145
O10	O	0.355586	-1.543966	0.511504
C11	C	-0.043521	-1.473358	0.371892
C12	C	-0.178508	-1.440575	0.363612
C13	C	0.185655	-1.287592	0.324998
C14	C	0.182101	-1.148271	0.289832
C15	C	0.171710	-1.740731	0.439373
C16	C	0.175264	-1.880051	0.474530
C17	C	-0.251560	-1.531095	0.386458
C18	C	-0.391077	-1.497214	0.377900
C19	C	0.400886	-1.554964	0.392480
C20	C	0.535873	-1.587747	0.400750
C21	C	0.180519	-1.086157	0.400345
C22	C	0.176846	-0.942162	0.364001
N23	N	0.178689	-1.514168	0.728854
N24	N	0.178666	-1.514162	0.035523
C25	C	0.096772	-1.580620	0.822281
C26	C	0.096757	-1.580613	0.975616
C27	C	0.260588	-1.447702	0.942082
C28	C	0.260595	-1.447702	0.788748
C29	C	0.002189	-1.657359	0.841644
C30	C	0.002174	-1.657353	0.994979
H31	H	-0.431817	-1.394628	0.351997
N32	N	0.041391	-1.785821	0.811053
H33	H	0.060326	-1.847891	0.909053
H34	H	-0.026594	-1.812988	0.755612
H35	H	-0.423389	-1.690334	0.426534
N36	N	-0.121585	-1.602446	0.772643
H37	H	-0.140095	-1.513504	0.787025
H38	H	-0.121542	-1.602519	0.662045
N39	N	-0.114801	-1.592004	1.041488
H40	H	-0.171311	-1.560430	0.951180
H41	H	-0.155497	-1.653054	1.119174
N42	N	0.029755	-1.790319	1.083673
H43	H	0.106378	-1.797463	1.146957
H44	H	-0.040778	-1.812836	1.150745
H45	H	-0.219254	-1.337996	0.337709
H46	H	-0.210815	-1.633675	0.412359
H47	H	0.181877	-1.139582	0.521864
H48	H	0.175477	-0.888741	0.242473
H49	H	0.176625	-0.933469	0.596059
H50	H	0.180733	-1.094846	0.168312
N51	N	0.348926	-1.376003	0.687970
H52	H	0.400808	-1.333899	0.749184
H53	H	0.403115	-1.435922	0.639471
H54	H	0.327273	-1.393586	0.990865
