data_functionalizedCrystal
_audit_creation_method	'MofGen! by Chris Wilmer'
_symmetry_space_group_name_H-M	'P1'
_symmetry_Int_Tables_number	1
_symmetry_cell_setting	triclinic
loop_
_symmetry_equiv_pos_as_xyz
  x,y,z
_cell_length_a	10.908878
_cell_length_b	10.654551
_cell_length_c	9.482900
_cell_angle_alpha	99.428019
_cell_angle_beta	83.038437
_cell_angle_gamma	72.285076
loop_
_atom_site_label
_atom_site_type_symbol
_atom_site_fract_x
_atom_site_fract_y
_atom_site_fract_z
O1	O	1.721929	-0.217399	-0.120878
O2	O	1.348937	-0.119514	-0.120882
O3	O	1.544008	-0.353060	-0.120880
O4	O	1.526858	0.016147	-0.120879
O5	O	1.504386	-0.305465	0.120912
O6	O	1.309315	-0.071919	0.120911
O7	O	1.682307	-0.169804	0.120915
Cu8	Cu	1.492193	-0.116516	0.142990
Cu9	Cu	1.539051	-0.172803	-0.142957
O10	O	1.487236	0.063742	0.120913
C11	C	1.281366	-0.086569	0.000014
C12	C	1.139057	-0.059326	0.000012
C13	C	1.522938	-0.375787	0.000013
C14	C	1.519171	-0.514413	0.000003
C15	C	1.089163	-0.158730	0.000011
C16	C	0.942079	-0.130576	0.000009
C17	C	1.539001	-0.605485	-0.131796
C18	C	1.535448	-0.735732	-0.131789
C19	C	1.492240	-0.683824	0.131826
C20	C	1.495784	-0.553576	0.131818
C21	C	1.562389	-0.566321	-0.263611
C22	C	1.582222	-0.657396	-0.395420
C23	C	1.578669	-0.787643	-0.395413
C24	C	1.555283	-0.826815	-0.263598
C25	C	1.749878	-0.202750	0.000016
C26	C	1.892189	-0.229994	0.000008
C27	C	1.508306	0.086468	0.000017
C28	C	1.512075	0.225092	0.000018
N29	N	1.459246	-0.076929	0.344110
N30	N	1.572009	-0.212401	-0.344077
C31	C	1.529324	-0.161131	0.416310
C32	C	1.501920	-0.128187	0.583727
H33	H	0.875909	-0.024624	0.000003
H34	H	1.072883	0.046619	0.000006
H35	H	1.421626	-0.031706	0.645851
H36	H	1.594805	-0.861788	-0.502738
H37	H	1.565288	-0.460272	-0.263631
H38	H	1.601249	-0.625487	-0.502739
H39	H	1.552373	-0.932867	-0.263603
H40	H	0.958360	-0.335951	-0.000002
O41	O	1.469372	-0.721972	0.259772
C42	C	1.329409	-0.801448	0.412806
C43	C	1.355167	-0.758312	0.267839
H44	H	1.237061	-0.830812	0.419388
H45	H	1.416144	-0.891380	0.419425
H46	H	1.315910	-0.713981	0.506981
H47	H	1.368636	-0.845690	0.173581
H48	H	1.268419	-0.668339	0.261346
O49	O	1.667548	-0.327601	0.581599
C50	C	1.781541	-0.465792	0.346969
C51	C	1.673485	-0.335154	0.430958
H52	H	1.786358	-0.471955	0.225162
H53	H	1.879780	-0.465743	0.376463
H54	H	1.758415	-0.556449	0.377120
H55	H	1.696486	-0.244427	0.400852
H56	H	1.575278	-0.335321	0.401457
H57	H	1.479609	-0.479413	0.239140
H58	H	1.609604	-0.257613	0.354182
O59	O	1.363550	0.038142	0.418443
C60	C	1.248895	0.175826	0.653078
C61	C	1.357331	0.045476	0.569083
H62	H	1.243812	0.181784	0.774885
H63	H	1.271620	0.266817	0.623346
H64	H	1.150902	0.175330	0.623169
H65	H	1.455366	0.045840	0.598947
H66	H	1.334493	-0.045458	0.598822
O67	O	1.168261	-0.285110	-0.000183
C68	C	1.356411	-0.474781	-0.125495
C69	C	1.266957	-0.331646	-0.125438
H70	H	1.436211	-0.512459	-0.226768
H71	H	1.403243	-0.472681	-0.024375
H72	H	1.295934	-0.545208	-0.125424
H73	H	1.327342	-0.261137	-0.125560
H74	H	1.220119	-0.333853	-0.226549
