data_functionalizedCrystal
_audit_creation_method	'MofGen! by Chris Wilmer'
_symmetry_space_group_name_H-M	'P1'
_symmetry_Int_Tables_number	1
_symmetry_cell_setting	triclinic
loop_
_symmetry_equiv_pos_as_xyz
  x,y,z
_cell_length_a	19.188930
_cell_length_b	19.188930
_cell_length_c	17.666332
_cell_angle_alpha	90.011603
_cell_angle_beta	89.976766
_cell_angle_gamma	96.855221
loop_
_atom_site_label
_atom_site_type_symbol
_atom_site_fract_x
_atom_site_fract_y
_atom_site_fract_z
O1	O	0.926150	-0.087169	-0.063200
O2	O	0.722838	-0.098903	-0.063149
O3	O	0.830361	0.008620	-0.063161
O4	O	0.818627	-0.194692	-0.063188
O5	O	0.830342	0.008625	0.062735
O6	O	0.722820	-0.098897	0.062747
O7	O	0.926131	-0.087163	0.062697
Cu8	Cu	0.824473	-0.093030	0.074217
Cu9	Cu	0.824496	-0.093036	-0.074670
O10	O	0.818608	-0.194686	0.062709
C11	C	0.696818	-0.098520	-0.000194
C12	C	0.619313	-0.097380	-0.000174
C13	C	0.574389	-0.160470	-0.000194
C14	C	0.501566	-0.159399	-0.000203
C15	C	0.473669	-0.095233	-0.000206
C16	C	0.518603	-0.032133	-0.000181
C17	C	0.591425	-0.033207	-0.000166
N18	N	0.365695	-0.046188	-0.043078
N19	N	0.296517	-0.045172	-0.043095
C20	C	0.254260	-0.091994	-0.000252
N21	N	0.283795	-0.139881	0.042599
N22	N	0.352979	-0.140899	0.042612
C23	C	0.394707	-0.094062	-0.000222
C24	C	0.130372	-0.153928	-0.000280
C25	C	0.057547	-0.152853	-0.000283
C26	C	0.074586	-0.025586	-0.000270
C27	C	0.147409	-0.026662	-0.000258
C28	C	0.175298	-0.090835	-0.000267
C29	C	0.829972	0.034634	-0.000211
C30	C	0.828831	0.112138	-0.000204
C31	C	0.952151	-0.087546	-0.000260
C32	C	1.029656	-0.088687	-0.000285
C33	C	0.818997	-0.220700	-0.000244
C34	C	0.820138	-0.298204	-0.000255
N35	N	0.824463	-0.093025	0.178937
C36	C	0.891922	0.157062	-0.000216
C37	C	0.890850	0.229886	-0.000228
C38	C	0.826684	0.257782	-0.000212
C39	C	0.763585	0.212849	-0.000205
C40	C	0.764658	0.140026	-0.000200
N41	N	0.777630	0.365789	0.042645
N42	N	0.776615	0.434968	0.042642
C43	C	0.823446	0.477191	-0.000227
N44	N	0.871341	0.447624	-0.043084
N45	N	0.872359	0.378439	-0.043079
C46	C	0.825513	0.336745	-0.000218
C47	C	0.885379	0.601079	-0.000253
C48	C	0.884305	0.673904	-0.000270
C49	C	0.757038	0.656865	-0.000239
C50	C	0.758114	0.584042	-0.000230
C51	C	0.822287	0.556154	-0.000233
N52	N	0.824512	-0.093036	-0.179390
C53	C	0.872089	-0.045437	0.218541
C54	C	0.872093	-0.045433	0.297789
C55	C	0.824478	-0.093030	0.337429
C56	C	0.776842	-0.140621	0.297815
C57	C	0.776835	-0.140619	0.218569
N58	N	0.815401	-0.154837	0.461841
N59	N	0.815413	-0.154837	0.537121
C60	C	0.824496	-0.093040	0.576193
N61	N	0.833582	-0.031239	0.537140
N62	N	0.833574	-0.031240	0.461853
C63	C	0.824480	-0.093038	0.423358
C64	C	0.872130	-0.045444	0.701727
C65	C	0.872129	-0.045440	0.780976
C66	C	0.776881	-0.140634	0.781000
C67	C	0.776878	-0.140632	0.701753
C68	C	0.824506	-0.093038	0.662121
H69	H	0.495885	0.020111	-0.000194
C70	C	0.696081	0.091363	-0.000144
C71	C	0.639654	0.131376	-0.000117
C72	C	0.576470	0.086570	-0.000053
H73	H	0.693762	0.062572	-0.044030
H74	H	0.693809	0.062623	0.043781
H75	H	0.641924	0.160103	-0.044038
H76	H	0.641949	0.160164	0.043766
H77	H	0.574199	0.057830	0.043872
H78	H	0.574159	0.057781	-0.043941
H79	H	0.538177	0.113711	-0.000028
H80	H	0.051874	0.026659	-0.000319
H81	H	0.738109	-0.179385	0.813275
C82	C	0.955029	0.570757	-0.000112
C83	C	0.959367	0.529481	0.064672
C84	C	1.023523	0.501548	0.064831
H85	H	0.958168	0.542644	-0.043961
H86	H	0.992471	0.607928	-0.000087
H87	H	0.921936	0.492315	0.064640
H88	H	0.956241	0.557578	0.108531
H89	H	1.060965	0.538718	0.064856
H90	H	1.026656	0.473438	0.020979
H91	H	1.026477	0.473544	0.108789
H92	H	0.738072	-0.179374	0.330094
C93	C	0.160521	-0.223669	-0.000241
C94	C	0.105588	-0.278694	-0.000233
C95	C	0.133332	-0.342949	-0.000187
H96	H	0.188586	-0.226836	-0.044128
H97	H	0.188533	-0.226767	0.043683
H98	H	0.077587	-0.275597	-0.044153
H99	H	0.077518	-0.275550	0.043651
H100	H	0.161344	-0.346047	0.043737
H101	H	0.161397	-0.346109	-0.044075
H102	H	0.096064	-0.380291	-0.000175
C103	C	0.196154	0.041861	-0.000403
C104	C	0.183626	0.080498	-0.065184
C105	C	0.228522	0.143624	-0.065345
H106	H	0.187737	0.068268	0.043448
H107	H	0.243530	0.032062	-0.000434
H108	H	0.136261	0.090298	-0.065145
H109	H	0.192048	0.054112	-0.109046
H110	H	0.275899	0.133826	-0.065377
H111	H	0.220102	0.170025	-0.021491
H112	H	0.220033	0.169845	-0.109301
H113	H	0.910878	-0.006680	0.330041
H114	H	0.910909	-0.006688	0.669457
H115	H	0.738099	-0.179386	0.669505
C116	C	0.923921	0.006261	0.823841
C117	C	0.965640	0.047925	0.772167
C118	C	1.013366	0.095552	0.811628
H119	H	0.898986	0.035334	0.854779
H120	H	0.952942	-0.018773	0.854717
H121	H	0.936623	0.072956	0.741305
H122	H	0.990591	0.018871	0.741228
H123	H	1.042387	0.070519	0.842504
H124	H	0.988425	0.124621	0.842564
H125	H	1.041683	0.123822	0.776574
H126	H	0.706738	0.547464	-0.000216
H127	H	0.020970	-0.204232	-0.000295
H128	H	0.944176	0.134360	-0.000222
H129	H	0.711340	0.235567	-0.000194
C130	C	0.959405	0.278591	-0.000355
C131	C	0.998082	0.265997	-0.065119
C132	C	1.061242	0.310842	-0.065256
H133	H	0.949671	0.325979	-0.000394
H134	H	0.985753	0.270156	0.043523
H135	H	0.971739	0.274437	-0.108986
H136	H	1.007835	0.218618	-0.065094
H137	H	1.087590	0.302407	-0.021378
H138	H	1.051501	0.358227	-0.065293
H139	H	1.087495	0.302298	-0.109194
C140	C	0.604532	-0.230213	-0.000156
C141	C	0.549596	-0.285237	-0.000154
C142	C	0.577338	-0.349493	-0.000106
H143	H	0.632601	-0.233381	-0.044039
H144	H	0.632539	-0.233313	0.043772
H145	H	0.521601	-0.282138	-0.044078
H146	H	0.521523	-0.282092	0.043726
H147	H	0.605345	-0.352593	0.043822
H148	H	0.605407	-0.352653	-0.043990
H149	H	0.540069	-0.386834	-0.000098
C150	C	0.923824	0.006320	0.175650
C151	C	0.965522	0.048009	0.227302
C152	C	1.013179	0.095702	0.187817
H153	H	0.952872	-0.018641	0.144708
H154	H	0.898814	0.035364	0.144776
H155	H	0.990530	0.018969	0.258163
H156	H	0.936493	0.072985	0.258246
H157	H	0.988169	0.124747	0.156944
H158	H	1.042223	0.070736	0.156877
H159	H	1.041472	0.123998	0.222857
C160	C	0.725096	-0.192371	0.175702
C161	C	0.683404	-0.234065	0.227374
C162	C	0.635742	-0.281754	0.187911
H163	H	0.696043	-0.167407	0.144805
H164	H	0.750102	-0.221412	0.144786
H165	H	0.658400	-0.205027	0.258277
H166	H	0.712437	-0.259044	0.258273
H167	H	0.660748	-0.310796	0.156995
H168	H	0.606694	-0.256785	0.157015
H169	H	0.607453	-0.310053	0.222965
H170	H	0.464982	-0.210776	-0.000217
H171	H	0.628003	0.018171	-0.000150
H172	H	0.935683	0.710481	-0.000284
H173	H	0.704792	0.679578	-0.000230
