data_functionalizedCrystal
_audit_creation_method	'MofGen! by Chris Wilmer'
_symmetry_space_group_name_H-M	'P1'
_symmetry_Int_Tables_number	1
_symmetry_cell_setting	triclinic
loop_
_symmetry_equiv_pos_as_xyz
  x,y,z
_cell_length_a	10.540514
_cell_length_b	10.540539
_cell_length_c	14.185569
_cell_angle_alpha	76.712172
_cell_angle_beta	103.287543
_cell_angle_gamma	84.520326
loop_
_atom_site_label
_atom_site_type_symbol
_atom_site_fract_x
_atom_site_fract_y
_atom_site_fract_z
O1	O	1.657368	0.207274	-0.083425
O2	O	1.287951	0.224162	-0.083424
O3	O	1.481088	0.031010	-0.083423
O4	O	1.464231	0.400426	-0.083425
O5	O	1.538142	-0.026042	0.083412
O6	O	1.345005	0.167110	0.083411
O7	O	1.714422	0.150221	0.083410
Cu8	Cu	1.534923	0.153456	0.098644
Cu9	Cu	1.467450	0.220927	-0.098657
O10	O	1.521285	0.343373	0.083409
C11	C	1.269175	0.194376	-0.000006
C12	C	1.128225	0.190607	-0.000006
C13	C	1.508350	-0.044818	-0.000007
C14	C	1.504567	-0.185764	-0.000013
C15	C	1.057519	0.328748	-0.000009
C16	C	0.910774	0.325005	-0.000392
C17	C	0.903368	0.147998	-0.095097
C18	C	1.049882	0.152877	-0.095171
C19	C	1.115169	0.085952	0.094558
C20	C	0.968615	0.084193	0.095802
C21	C	1.359520	-0.369050	-0.000387
C22	C	1.363482	-0.222561	-0.000011
C23	C	1.605044	-0.280008	0.095258
C24	C	1.600256	-0.426579	0.095338
C25	C	1.538244	-0.362218	-0.094384
C26	C	1.539113	-0.214806	-0.095644
C27	C	1.733198	0.180008	-0.000010
C28	C	1.874145	0.183779	-0.000017
C29	C	1.494022	0.419202	-0.000008
C30	C	1.497804	0.560150	-0.000010
N31	N	1.582390	0.106000	0.237415
N32	N	1.419994	0.268374	-0.237429
C33	C	1.280537	0.407745	0.605064
C34	C	1.316501	0.371807	0.710086
C35	C	1.487559	0.200835	0.710047
C36	C	1.451605	0.236755	0.605024
C37	C	1.348094	0.340212	0.552540
C38	C	1.519162	0.169222	0.552500
C39	C	1.483215	0.205145	0.447485
C40	C	1.379711	0.308600	0.394994
C41	C	1.312147	0.376135	0.447526
C42	C	1.622679	0.065772	0.604985
C43	C	1.690236	-0.001762	0.552461
C44	C	1.654283	0.034155	0.447444
C45	C	1.550779	0.137610	0.394954
C46	C	1.721847	-0.033380	0.394913
C47	C	1.685901	0.002542	0.289898
C48	C	1.514832	0.173533	0.289939
H49	H	0.891413	0.355420	0.067749
C50	C	1.746649	-0.251439	0.100059
N51	N	1.853304	-0.229910	0.103678
H52	H	1.064463	0.407249	-0.068092
H53	H	1.774519	-0.085995	0.595205
C54	C	1.760214	-0.071751	0.232119
N55	N	1.816191	-0.127709	0.188599
H56	H	1.261479	0.426811	0.752846
H57	H	1.806136	-0.117608	0.437659
C58	C	0.822716	0.428929	-0.093019
N59	N	0.756389	0.507203	-0.162793
H60	H	1.109372	0.361474	0.068164
C61	C	1.055053	0.253216	-0.191561
N62	N	1.058940	0.328792	-0.264165
C63	C	1.191013	0.114774	0.191949
N64	N	1.248136	0.136500	0.265299
C65	C	1.112863	0.017671	-0.100658
N66	N	1.160291	-0.084162	-0.104800
H67	H	0.879937	0.045483	-0.098363
C68	C	1.315942	-0.441205	0.091415
N69	N	1.283132	-0.495545	0.160569
C70	C	1.400913	0.287290	0.232201
N71	N	1.315097	0.372953	0.188713
C72	C	0.812986	0.244048	-0.191056
N73	N	0.744890	0.316381	-0.263330
C74	C	0.945722	0.119112	0.190833
N75	N	0.928467	0.145413	0.262409
H76	H	0.946491	-0.020713	0.101827
H77	H	1.574432	-0.479128	0.166555
C78	C	1.179439	-0.052125	0.095802
N79	N	1.227850	-0.156117	0.096730
C80	C	1.252656	-0.376133	-0.092677
N81	N	1.172162	-0.381480	-0.162191
C82	C	1.739331	-0.493400	0.101192
N83	N	1.844083	-0.543726	0.105608
H84	H	1.286703	-0.156598	-0.068305
C85	C	1.443191	-0.371473	-0.191936
N86	N	1.371584	-0.378443	-0.265407
C87	C	1.574076	-0.255218	0.191039
N88	N	1.550742	-0.236548	0.263180
C89	C	1.439500	-0.126967	-0.190861
N90	N	1.364460	-0.060811	-0.262577
H91	H	1.639930	-0.409234	-0.095025
C92	C	1.675423	-0.179450	-0.103414
N93	N	1.778102	-0.152829	-0.109257
C94	C	1.198227	0.489892	0.389788
N95	N	1.112412	0.575555	0.346300
C96	C	1.166617	0.521502	0.547326
N97	N	1.080801	0.607166	0.503838
C98	C	1.601415	0.087030	0.767791
N99	N	1.687169	0.001306	0.811282
H100	H	1.333077	-0.204193	0.068397
H101	H	1.350448	0.337851	0.309485
H102	H	1.651947	0.036532	0.690495
