data_functionalizedCrystal
_audit_creation_method	'MofGen! by Chris Wilmer'
_symmetry_space_group_name_H-M	'P1'
_symmetry_Int_Tables_number	1
_symmetry_cell_setting	triclinic
loop_
_symmetry_equiv_pos_as_xyz
  x,y,z
_cell_length_a	17.077402
_cell_length_b	16.959455
_cell_length_c	17.077396
_cell_angle_alpha	90.019870
_cell_angle_beta	89.972472
_cell_angle_gamma	89.977893
loop_
_atom_site_label
_atom_site_type_symbol
_atom_site_fract_x
_atom_site_fract_y
_atom_site_fract_z
Zn1	Zn	-0.312537	-1.208397	-0.443856
Zn2	Zn	0.020796	-0.875064	-0.110522
Zn3	Zn	0.354130	-0.541731	0.222811
Zn4	Zn	-0.443812	-1.208302	-0.312592
Zn5	Zn	-0.110479	-0.874969	0.020742
Zn6	Zn	0.222855	-0.541636	0.354075
Zn7	Zn	-0.312561	-1.076216	-0.312603
Zn8	Zn	0.020772	-0.742883	0.020731
Zn9	Zn	0.354106	-0.409550	0.354064
Zn10	Zn	-0.443762	-1.076183	-0.443815
Zn11	Zn	-0.110428	-0.742849	-0.110481
Zn12	Zn	0.222905	-0.409516	0.222852
O13	O	-0.378168	-1.142275	-0.378216
O14	O	-0.044835	-0.808941	-0.044883
O15	O	0.288499	-0.475608	0.288450
O16	O	-0.329962	-1.318996	-0.426456
O17	O	0.003371	-0.985662	-0.093122
O18	O	0.336705	-0.652329	0.240211
O19	O	-0.426432	-1.190755	-0.202746
O20	O	-0.093099	-0.857422	0.130587
O21	O	0.240234	-0.524089	0.463920
O22	O	-0.202711	-1.093804	-0.330035
O23	O	0.130622	-0.760471	0.003298
O24	O	0.463956	-0.427138	0.336631
O25	O	-0.426409	-1.318926	-0.330017
O26	O	-0.093076	-0.985593	0.003316
O27	O	0.240257	-0.652259	0.336650
O28	O	-0.202693	-1.190917	-0.426466
O29	O	0.130640	-0.857584	-0.093133
O30	O	0.463973	-0.524250	0.240200
O31	O	-0.330003	-1.093712	-0.202754
O32	O	0.003331	-0.760379	0.130579
O33	O	0.336664	-0.427045	0.463912
O34	O	-0.329954	-0.965601	-0.329996
O35	O	0.003379	-0.632268	0.003338
O36	O	0.336713	-0.298934	0.336671
O37	O	-0.426323	-1.093747	-0.553667
O38	O	-0.092990	-0.760414	-0.220334
O39	O	0.240343	-0.427080	0.113000
O40	O	-0.426347	-0.965576	-0.426396
O41	O	-0.093013	-0.632243	-0.093063
O42	O	0.240320	-0.298910	0.240270
O43	O	-0.329913	-1.190884	-0.553697
O44	O	0.003420	-0.857551	-0.220364
O45	O	0.336753	-0.524218	0.112970
O46	O	-0.553652	-1.190723	-0.329977
O47	O	-0.220319	-0.857389	0.003356
O48	O	0.113014	-0.524056	0.336690
O49	O	-0.553615	-1.093655	-0.426386
O50	O	-0.220282	-0.760321	-0.093052
O51	O	0.113051	-0.426988	0.240281
C52	C	-0.378148	-0.936908	-0.378193
C53	C	-0.044815	-0.603575	-0.044860
C54	C	0.288519	-0.270242	0.288473
C55	C	-0.378158	-0.849052	-0.378202
C56	C	-0.044825	-0.515718	-0.044869
C57	C	0.288508	-0.182385	0.288465
C58	C	-0.428302	-0.807740	-0.327919
C59	C	-0.094968	-0.474406	0.005415
C60	C	0.238365	-0.141073	0.338748
C61	C	-0.328020	-0.807810	-0.428490
C62	C	0.005313	-0.474477	-0.095157
C63	C	0.338647	-0.141144	0.238176
C64	C	-0.328025	-0.725265	-0.428498
C65	C	0.005308	-0.391931	-0.095165
C66	C	0.338642	-0.058598	0.238169
C67	C	-0.378168	-0.683952	-0.378215
C68	C	-0.044835	-0.350619	-0.044881
C69	C	0.288498	-0.017286	0.288452
C70	C	-0.428307	-0.725186	-0.327923
C71	C	-0.094973	-0.391853	0.005410
C72	C	0.238360	-0.058519	0.338743
C73	C	-0.277882	-0.684025	-0.478783
C74	C	0.055451	-0.350691	-0.145450
C75	C	0.388785	-0.017358	0.187884
C76	C	-0.277884	-0.601474	-0.478792
C77	C	0.055449	-0.268140	-0.145459
C78	C	0.388782	0.065193	0.187874
C79	C	-0.328032	-0.560160	-0.428512
C80	C	0.005301	-0.226827	-0.095179
C81	C	0.338634	0.106507	0.238154
C82	C	-0.378173	-0.601399	-0.378219
C83	C	-0.044840	-0.268066	-0.044886
C84	C	0.288493	0.065268	0.288447
C85	C	-0.428317	-0.560087	-0.327936
C86	C	-0.094983	-0.226753	0.005397
C87	C	0.238350	0.106580	0.338731
C88	C	-0.478462	-0.601324	-0.277646
C89	C	-0.145129	-0.267991	0.055687
C90	C	0.188204	0.065343	0.389020
C91	C	-0.478455	-0.683872	-0.277643
C92	C	-0.145121	-0.350539	0.055690
C93	C	0.188212	-0.017206	0.389024
C94	C	-0.328040	-0.477612	-0.428516
C95	C	0.005293	-0.144278	-0.095182
C96	C	0.338627	0.189055	0.238151
C97	C	-0.428322	-0.477533	-0.327941
C98	C	-0.094988	-0.144200	0.005393
C99	C	0.238345	0.189134	0.338726
C100	C	-0.582116	-1.142196	-0.378193
C101	C	-0.248783	-0.808863	-0.044860
C102	C	0.084551	-0.475530	0.288474
C103	C	-0.669366	-1.142235	-0.378209
C104	C	-0.336032	-0.808902	-0.044876
C105	C	-0.002699	-0.475568	0.288458
C106	C	-0.710279	-1.192774	-0.428461
C107	C	-0.376946	-0.859441	-0.095128
C108	C	-0.043612	-0.526107	0.238206
C109	C	-0.792260	-1.192807	-0.428478
C110	C	-0.458926	-0.859474	-0.095144
C111	C	-0.125593	-0.526141	0.238189
C112	C	-0.833325	-1.142305	-0.378238
C113	C	-0.499992	-0.808971	-0.044905
C114	C	-0.166658	-0.475638	0.288429
C115	C	-0.792406	-1.091760	-0.327984
C116	C	-0.459072	-0.758427	0.005350
C117	C	-0.125739	-0.425093	0.338683
C118	C	-0.710427	-1.091723	-0.327972
C119	C	-0.377094	-0.758390	0.005362
C120	C	-0.043760	-0.425057	0.338695
C121	C	-0.963276	-1.091841	-0.328011
C122	C	-0.629942	-0.758508	0.005322
C123	C	-0.296609	-0.425175	0.338655
C124	C	-1.045260	-1.091879	-0.328022
C125	C	-0.711927	-0.758545	0.005311
C126	C	-0.378594	-0.425212	0.338645
C127	C	-1.045109	-1.192925	-0.428517
C128	C	-0.711775	-0.859592	-0.095184
C129	C	-0.378442	-0.526258	0.238149
C130	C	-0.963130	-1.192888	-0.428505
C131	C	-0.629796	-0.859555	-0.095172
C132	C	-0.296463	-0.526222	0.238161
C133	C	-0.922216	-1.142345	-0.378250
C134	C	-0.588883	-0.809011	-0.044916
C135	C	-0.255549	-0.475678	0.288417
C136	C	-0.173424	-1.142375	-0.378257
C137	C	0.159910	-0.809042	-0.044923
C138	C	0.493243	-0.475708	0.288410
C139	C	-0.086174	-1.142418	-0.378274
C140	C	0.247159	-0.809084	-0.044941
C141	C	0.580493	-0.475751	0.288393
C142	C	-0.378110	-1.142322	-0.582961
C143	C	-0.044777	-0.808989	-0.249627
C144	C	0.288557	-0.475656	0.083706
C145	C	-0.378086	-1.142343	-0.670210
C146	C	-0.044752	-0.809010	-0.336877
C147	C	0.288581	-0.475676	-0.003544
C148	C	-0.378185	-0.348443	-0.378235
C149	C	-0.044852	-0.015110	-0.044902
C150	C	0.288482	0.318224	0.288431
C151	C	-0.378183	-0.436299	-0.378232
C152	C	-0.044850	-0.102966	-0.044899
C153	C	0.288483	0.230367	0.288435
C154	C	-0.327881	-1.192924	-0.711218
C155	C	0.005453	-0.859591	-0.377884
C156	C	0.338786	-0.526258	-0.044551
C157	C	-0.327854	-1.192934	-0.793198
C158	C	0.005479	-0.859600	-0.459865
C159	C	0.338812	-0.526267	-0.126531
C160	C	-0.378038	-1.142365	-0.834170
C161	C	-0.044704	-0.809032	-0.500837
C162	C	0.288629	-0.475699	-0.167503
C163	C	-0.428245	-1.091778	-0.793157
C164	C	-0.094912	-0.758445	-0.459824
C165	C	0.238422	-0.425112	-0.126490
C166	C	-0.428267	-1.091765	-0.711178
C167	C	-0.094933	-0.758432	-0.377845
C168	C	0.238400	-0.425099	-0.044511
C169	C	-0.428198	-1.091810	-0.964027
C170	C	-0.094864	-0.758477	-0.630694
C171	C	0.238469	-0.425143	-0.297360
C172	C	-0.428177	-1.091824	-1.046012
C173	C	-0.094844	-0.758491	-0.712678
C174	C	0.238489	-0.425157	-0.379345
C175	C	-0.327786	-1.192979	-1.046047
C176	C	0.005548	-0.859645	-0.712714
C177	C	0.338881	-0.526312	-0.379381
C178	C	-0.327807	-1.192966	-0.964068
C179	C	0.005526	-0.859632	-0.630735
C180	C	0.338859	-0.526299	-0.297402
C181	C	-0.378016	-1.142379	-0.923061
C182	C	-0.044682	-0.809046	-0.589728
C183	C	0.288651	-0.475713	-0.256394
C184	C	-0.378169	-1.142273	-0.174268
C185	C	-0.044836	-0.808939	0.159065
C186	C	0.288498	-0.475606	0.492398
C187	C	-0.377972	-1.142405	-0.087019
C188	C	-0.044639	-0.809072	0.246314
C189	C	0.288694	-0.475739	0.579648
H190	H	-0.237054	-0.567905	-0.519742
H191	H	0.096280	-0.234572	-0.186409
H192	H	0.429613	0.098761	0.146924
F193	F	-0.666581	-1.246531	-0.481930
F194	F	-0.333248	-0.913197	-0.148597
F195	F	0.000085	-0.579864	0.184736
H196	H	-0.237055	-0.717667	-0.519718
H197	H	0.096279	-0.384334	-0.186385
H198	H	0.429612	-0.051000	0.146949
F199	F	-0.481651	-1.037956	-0.836764
F200	F	-0.148318	-0.704623	-0.503431
F201	F	0.185016	-0.371290	-0.170098
F202	F	-0.919426	-1.246643	-0.481972
F203	F	-0.586093	-0.913310	-0.148639
F204	F	-0.252760	-0.579976	0.184695
H205	H	-0.287206	-0.444040	-0.469455
H206	H	0.046127	-0.110707	-0.136121
H207	H	0.379460	0.222627	0.197212
F208	F	-0.531816	-0.727765	-0.224124
F209	F	-0.198483	-0.394432	0.109209
F210	F	0.134850	-0.061098	0.442542
F211	F	-0.274350	-1.246817	-1.089691
F212	F	0.058983	-0.913484	-0.756357
F213	F	0.392316	-0.580150	-0.423024
H214	H	-0.469131	-0.841319	-0.286976
H215	H	-0.135798	-0.507985	0.046357
H216	H	0.197535	-0.174652	0.379690
F217	F	-1.088652	-1.246720	-0.482002
F218	F	-0.755319	-0.913386	-0.148668
F219	F	-0.421986	-0.580053	0.184665
H220	H	-0.677116	-1.050568	-0.287052
H221	H	-0.343783	-0.717235	0.046281
H222	H	-0.010449	-0.383902	0.379614
F223	F	-0.835799	-1.246589	-0.481971
F224	F	-0.502466	-0.913256	-0.148638
F225	F	-0.169133	-0.579923	0.184695
F226	F	-1.088964	-1.038129	-0.274551
F227	F	-0.755630	-0.704795	0.058782
F228	F	-0.422297	-0.371462	0.392116
H229	H	-0.469141	-1.050569	-0.677791
H230	H	-0.135807	-0.717236	-0.344458
H231	H	0.197526	-0.383902	-0.011124
F232	F	-0.274654	-0.851780	-0.482000
F233	F	0.058679	-0.518446	-0.148666
F234	F	0.392012	-0.185113	0.184667
H235	H	-0.929967	-1.050680	-0.287090
H236	H	-0.596633	-0.717347	0.046243
H237	H	-0.263300	-0.384014	0.379576
H238	H	-0.825848	-1.050637	-0.287081
H239	H	-0.492514	-0.717303	0.046253
H240	H	-0.159181	-0.383970	0.379586
F241	F	-0.481582	-1.037997	-1.089616
F242	F	-0.148248	-0.704663	-0.756282
F243	F	0.185085	-0.371330	-0.422949
F244	F	-0.274472	-1.246751	-0.667619
F245	F	0.058862	-0.913418	-0.334286
F246	F	0.392195	-0.580084	-0.000953
H247	H	-0.286974	-1.234124	-0.826582
H248	H	0.046359	-0.900791	-0.493249
H249	H	0.379692	-0.567457	-0.159916
H250	H	-0.286948	-1.234147	-0.930711
H251	H	0.046385	-0.900814	-0.597378
H252	H	0.379719	-0.567481	-0.264044
F253	F	-0.481634	-1.037969	-0.920386
F254	F	-0.148300	-0.704635	-0.587053
F255	F	0.185033	-0.371302	-0.253719
H256	H	-0.469158	-0.443903	-0.286996
H257	H	-0.135825	-0.110569	0.046337
H258	H	0.197508	0.222764	0.379670
H259	H	-0.519286	-0.567677	-0.236703
H260	H	-0.185953	-0.234344	0.096631
H261	H	0.147381	0.098990	0.429964
