data_functionalizedCrystal
_audit_creation_method	'MofGen! by Chris Wilmer'
_symmetry_space_group_name_H-M	'P1'
_symmetry_Int_Tables_number	1
_symmetry_cell_setting	triclinic
loop_
_symmetry_equiv_pos_as_xyz
  x,y,z
_cell_length_a	10.686220
_cell_length_b	19.077068
_cell_length_c	19.076919
_cell_angle_alpha	94.470751
_cell_angle_beta	96.464688
_cell_angle_gamma	96.522665
loop_
_atom_site_label
_atom_site_type_symbol
_atom_site_fract_x
_atom_site_fract_y
_atom_site_fract_z
Zn1	Zn	1.890241	-0.212309	-0.325683
Zn2	Zn	1.890084	-0.325469	-0.212535
Zn3	Zn	1.686763	-0.216675	-0.216873
Zn4	Zn	1.668913	-0.340038	-0.340227
O5	O	1.784000	-0.273623	-0.273830
O6	O	2.067937	-0.219395	-0.302772
O7	O	1.870517	-0.306768	-0.114134
O8	O	1.721290	-0.117110	-0.227037
O9	O	2.067822	-0.302533	-0.219642
O10	O	1.870785	-0.113902	-0.306979
O11	O	1.721138	-0.226837	-0.117321
O12	O	1.506678	-0.240964	-0.241139
O13	O	1.690868	-0.327364	-0.437274
O14	O	1.493564	-0.331598	-0.331766
O15	O	1.853477	-0.233522	-0.426589
O16	O	1.853209	-0.426387	-0.233744
O17	O	1.690716	-0.437091	-0.327559
C18	C	1.770042	-0.457404	-0.281773
C19	C	1.764185	-0.536022	-0.285189
C20	C	1.454041	-0.288337	-0.288501
C21	C	1.312880	-0.294649	-0.294796
C22	C	1.846095	-0.567360	-0.237985
C23	C	1.840594	-0.641230	-0.241202
C24	C	1.753175	-0.683762	-0.291621
C25	C	1.671261	-0.652420	-0.338830
C26	C	1.676770	-0.578550	-0.335616
C27	C	1.727627	-0.905288	-0.306472
C28	C	1.722122	-0.979162	-0.309682
C29	C	1.891457	-0.967968	-0.212054
C30	C	1.896952	-0.894098	-0.208841
C31	C	1.815043	-0.862762	-0.256053
N32	N	1.747547	-0.759270	-0.294909
N33	N	1.820679	-0.787255	-0.252767
C34	C	2.115248	-0.258852	-0.259101
C35	C	2.256406	-0.252557	-0.252824
C36	C	1.770199	-0.281581	-0.458313
C37	C	1.764318	-0.284972	-0.536929
C38	C	1.798046	-0.089123	-0.265869
C39	C	1.804032	-0.010500	-0.262477
C40	C	1.846212	-0.237709	-0.568301
C41	C	1.840671	-0.240894	-0.642169
C42	C	1.753241	-0.291345	-0.684664
C43	C	1.671338	-0.338610	-0.653287
C44	C	1.676874	-0.335422	-0.579420
C45	C	1.727600	-0.306117	-0.906180
C46	C	1.722072	-0.309303	-0.980051
C47	C	1.891405	-0.211585	-0.968928
C48	C	1.896938	-0.208404	-0.895060
C49	C	1.815031	-0.255666	-0.863690
N50	N	1.747577	-0.294603	-0.760169
N51	N	1.820689	-0.252405	-0.788186
C52	C	1.797824	-0.265641	-0.090059
C53	C	1.803967	-0.262040	-0.011424
H54	H	1.917275	-0.532735	-0.196926
H55	H	1.253231	-0.335522	-0.335543
H56	H	1.917411	-0.196628	-0.533706
N57	N	1.335411	-0.198419	-0.198854
H58	H	1.315394	-0.149393	-0.208756
H59	H	1.315307	-0.208222	-0.149807
N60	N	1.928975	-0.189904	-0.676008
H61	H	1.985199	-0.157459	-0.637879
H62	H	1.983262	-0.217388	-0.705295
N63	N	1.991242	-0.153990	-0.849228
H64	H	2.042282	-0.124531	-0.880311
H65	H	1.944338	-0.122238	-0.819463
H66	H	1.650949	-1.013790	-0.350750
H67	H	1.958088	-0.173105	-0.994478
N68	N	1.576973	-0.698295	-0.393208
H69	H	1.488031	-0.689056	-0.385658
H70	H	1.593912	-0.686693	-0.442294
N71	N	1.639280	-0.357086	-0.872333
H72	H	1.584922	-0.329631	-0.843063
H73	H	1.583127	-0.389526	-0.910491
N74	N	1.627773	-0.363723	-1.025888
H75	H	1.576723	-0.393180	-0.994807
H76	H	1.568905	-0.338871	-1.057908
H77	H	1.600146	-0.379687	-0.687892
H78	H	1.610174	-0.373902	-0.553879
H79	H	1.907293	-0.666742	-0.202763
H80	H	1.958144	-0.993490	-0.173618
N81	N	1.991257	-0.848225	-0.154470
H82	H	2.042321	-0.879287	-0.125058
H83	H	2.050110	-0.816165	-0.179353
H84	H	1.660931	-0.879780	-0.344912
H85	H	1.610072	-0.553037	-0.374055
