data_functionalizedCrystal
_audit_creation_method	'MofGen! by Chris Wilmer'
_symmetry_space_group_name_H-M	'P1'
_symmetry_Int_Tables_number	1
_symmetry_cell_setting	triclinic
loop_
_symmetry_equiv_pos_as_xyz
  x,y,z
_cell_length_a	10.723024
_cell_length_b	15.944551
_cell_length_c	9.798715
_cell_angle_alpha	89.995900
_cell_angle_beta	89.996609
_cell_angle_gamma	83.983304
loop_
_atom_site_label
_atom_site_type_symbol
_atom_site_fract_x
_atom_site_fract_y
_atom_site_fract_z
O1	O	1.655699	0.117808	-0.113485
O2	O	1.292404	0.129085	-0.113490
O3	O	1.483972	0.001228	-0.113475
O4	O	1.464131	0.245664	-0.113500
O5	O	1.483958	0.001228	0.113507
O6	O	1.292390	0.129084	0.113492
O7	O	1.655685	0.117808	0.113497
Zn8	Zn	1.474035	0.123446	0.149533
Zn9	Zn	1.474054	0.123446	-0.149526
O10	O	1.464116	0.245664	0.113482
C11	C	1.245908	0.128264	0.000000
C12	C	1.107384	0.125809	-0.000001
C13	C	1.031498	0.197350	-0.000009
C14	C	0.888327	0.194814	-0.000011
C15	C	1.483141	-0.030070	0.000016
C16	C	1.480672	-0.123331	0.000017
C17	C	1.356026	-0.338901	-0.000004
C18	C	1.413901	-0.399587	0.111913
C19	C	1.476205	-0.294082	0.000006
C20	C	1.413943	-0.399570	-0.111874
C21	C	1.471880	-0.459020	-0.000010
C22	C	1.534112	-0.353540	0.112015
C23	C	1.534137	-0.353517	-0.111872
C24	C	1.592099	-0.414184	0.000072
C25	C	1.478692	-0.199066	0.000016
C26	C	1.469402	-0.554035	-0.000011
C27	C	1.702181	0.118629	0.000003
C28	C	1.840704	0.121084	-0.000004
C29	C	1.464947	0.276963	-0.000012
C30	C	1.467417	0.370223	-0.000022
N31	N	1.474031	0.123445	0.353632
N32	N	1.474067	0.123441	-0.353626
C33	C	1.554469	0.069525	0.421415
C34	C	1.554489	0.069522	0.578578
H35	H	0.823120	0.256060	-0.000024
Cl36	Cl	1.660824	-0.001749	0.668569
H37	H	1.066360	0.062682	-0.000030
Cl38	Cl	1.612559	-0.321984	-0.257959
H39	H	1.405203	0.169609	0.588092
H40	H	1.405176	0.169603	0.411951
Cl41	Cl	1.660492	-0.001936	0.331385
Cl42	Cl	1.094825	0.294818	-0.000015
H43	H	0.905903	0.059835	-0.000006
Cl44	Cl	1.202017	-0.288358	0.000157
H45	H	1.363064	-0.419986	0.206528
Cl46	Cl	1.612519	-0.322233	0.258256
H47	H	1.691940	-0.446772	0.000137
Cl48	Cl	1.335442	-0.431038	-0.257943
