data_functionalizedCrystal
_audit_creation_method	'MofGen! by Chris Wilmer'
_symmetry_space_group_name_H-M	'P1'
_symmetry_Int_Tables_number	1
_symmetry_cell_setting	triclinic
loop_
_symmetry_equiv_pos_as_xyz
  x,y,z
_cell_length_a	11.804365
_cell_length_b	17.699083
_cell_length_c	17.699092
_cell_angle_alpha	96.715309
_cell_angle_beta	78.191748
_cell_angle_gamma	78.182163
loop_
_atom_site_label
_atom_site_type_symbol
_atom_site_fract_x
_atom_site_fract_y
_atom_site_fract_z
O1	O	0.098853	-1.019370	0.080428
O2	O	0.598853	-0.519370	0.580428
O3	O	0.098892	-0.798998	0.092874
O4	O	0.598892	-0.298998	0.592874
O5	O	0.098869	-0.915406	-0.023537
O6	O	0.598869	-0.415406	0.476463
O7	O	0.098877	-0.902962	0.196839
O8	O	0.598877	-0.402962	0.696839
O9	O	-0.099181	-0.884761	0.007079
O10	O	0.400819	-0.384761	0.507079
O11	O	-0.099158	-0.768352	0.123490
O12	O	0.400842	-0.268352	0.623490
O13	O	-0.099196	-0.988724	0.111043
O14	O	0.400804	-0.488724	0.611043
Cu15	Cu	-0.117261	-0.875740	0.120062
Cu16	Cu	0.382739	-0.375740	0.620062
Cu17	Cu	0.116956	-0.911982	0.083855
Cu18	Cu	0.616956	-0.411982	0.583855
O19	O	-0.099173	-0.872316	0.227455
O20	O	0.400827	-0.372316	0.727455
C21	C	-0.000128	-0.755479	0.107735
C22	C	0.499872	-0.255479	0.607735
C23	C	-0.000113	-0.671463	0.106394
C24	C	0.499887	-0.171463	0.606394
N25	N	-0.281996	-0.850255	0.145528
N26	N	0.218004	-0.350255	0.645528
C27	C	-0.000154	-0.899637	-0.036427
C28	C	0.499846	-0.399637	0.463573
C29	C	-0.000148	-0.898297	-0.120445
C30	C	0.499852	-0.398297	0.379555
C31	C	-0.655974	-0.998673	-0.002782
C32	C	-0.155974	-0.498673	0.497218
C33	C	-0.531316	-1.017952	-0.022050
C34	C	-0.031316	-0.517952	0.477950
C35	C	-0.468980	-0.976029	0.019842
C36	C	0.031020	-0.476029	0.519842
C37	C	-0.531314	-0.914824	0.081006
C38	C	-0.031314	-0.414824	0.581006
C39	C	-0.655984	-0.895548	0.100280
C40	C	-0.155984	-0.395548	0.600280
C41	C	-0.468990	-0.872904	0.122905
C42	C	0.031010	-0.372904	0.622905
C43	C	-0.531324	-0.811699	0.184069
C44	C	-0.031324	-0.311699	0.684069
C45	C	-0.655982	-0.792425	0.203339
C46	C	-0.155982	-0.292425	0.703339
C47	C	-0.718318	-0.834348	0.161447
C48	C	-0.218318	-0.334348	0.661447
C49	C	-0.344320	-0.892180	0.103631
C50	C	0.155680	-0.392180	0.603631
C51	C	-0.344330	-0.789055	0.206694
C52	C	0.155670	-0.289055	0.706694
C53	C	-0.468988	-0.769776	0.225962
C54	C	0.031012	-0.269776	0.725962
N55	N	0.281692	-0.937473	0.058384
N56	N	0.781692	-0.437473	0.558384
C57	C	-0.000174	-1.032244	0.096182
C58	C	0.499826	-0.532244	0.596182
C59	C	-0.000181	-1.116261	0.097522
C60	C	0.499819	-0.616261	0.597522
C61	C	-0.000111	-0.622844	0.174727
C62	C	0.499889	-0.122844	0.674727
C63	C	-0.000127	-0.543899	0.173467
C64	C	0.499873	-0.043899	0.673467
C65	C	-0.000136	-0.513574	0.103872
C66	C	0.499864	-0.013574	0.603872
C67	C	-0.000141	-0.562199	0.035535
C68	C	0.499859	-0.062199	0.535535
C69	C	-0.000134	-0.641142	0.036797
C70	C	0.499866	-0.141142	0.536797
C71	C	-0.000171	-0.243831	0.030444
C72	C	0.499829	0.256169	0.530444
C73	C	-0.000174	-0.164882	0.029187
C74	C	0.499826	0.335118	0.529187
C75	C	-0.000163	-0.146588	0.167114
C76	C	0.499837	0.353412	0.667114
C77	C	-0.000156	-0.225531	0.168376
C78	C	0.499844	0.274469	0.668376
C79	C	-0.000168	-0.274147	0.100040
C80	C	0.499832	0.225853	0.600040
C81	C	-0.000154	-0.359749	0.101408
C82	C	0.499846	0.140251	0.601408
C83	C	-0.000142	-0.427976	0.102503
C84	C	0.499858	0.072024	0.602503
C85	C	0.107810	-0.914374	-0.176602
C86	C	0.607810	-0.414374	0.323398
C87	C	0.107812	-0.913109	-0.255545
C88	C	0.607812	-0.413109	0.244455
C89	C	-0.000146	-0.895772	-0.278331
C90	C	0.499854	-0.395772	0.221669
C91	C	-0.108113	-0.879692	-0.222167
C92	C	0.391887	-0.379692	0.277833
C93	C	-0.108114	-0.880951	-0.143225
C94	C	0.391886	-0.380951	0.356775
C95	C	-0.108114	-0.874611	-0.540532
C96	C	0.391886	-0.374611	-0.040532
C97	C	-0.108105	-0.873355	-0.619482
C98	C	0.391895	-0.373355	-0.119482
C99	C	0.107811	-0.906769	-0.652852
C100	C	0.607811	-0.406769	-0.152852
C101	C	0.107811	-0.908028	-0.573910
C102	C	0.607811	-0.408028	-0.073910
C103	C	-0.000155	-0.891944	-0.517753
C104	C	0.499845	-0.391944	-0.017753
C105	C	-0.000156	-0.893314	-0.432154
C106	C	0.499844	-0.393314	0.067846
C107	C	-0.000147	-0.894408	-0.363929
C108	C	0.499853	-0.394408	0.136071
C109	C	-0.000148	-0.888086	0.240344
C110	C	0.499852	-0.388086	0.740344
C111	C	-0.000146	-0.889427	0.324361
C112	C	0.499854	-0.389427	0.824361
H113	H	-0.293579	-0.942013	0.053832
H114	H	0.206421	-0.442013	0.553832
H115	H	-0.367478	-0.991729	0.004152
H116	H	0.132522	-0.491729	0.504152
F117	F	0.222720	-0.923885	-0.712625
F118	F	0.722720	-0.423885	-0.212625
H119	H	-0.706734	-0.742595	0.253148
H120	H	-0.206734	-0.242595	0.753148
F121	F	-0.464980	-1.083087	-0.087141
F122	F	0.035020	-0.583087	0.412859
H123	H	-0.293577	-0.754919	0.240808
H124	H	0.206423	-0.254919	0.740808
H125	H	-0.000103	-0.647528	0.231399
H126	H	0.499897	-0.147528	0.731399
F127	F	-0.000119	-0.492159	0.246196
F128	F	0.499881	0.007841	0.746196
F129	F	-0.000183	-0.295562	-0.042286
F130	F	0.499817	0.204438	0.457714
H131	H	-0.000166	-0.537500	-0.021128
H132	H	0.499834	-0.037500	0.478872
H133	H	-0.196015	-0.865572	-0.240725
H134	H	0.303985	-0.365572	0.259275
F135	F	-0.000140	-0.257800	0.242447
F136	F	0.499860	0.242200	0.742447
H137	H	-0.706737	-1.032805	-0.036882
H138	H	-0.206737	-0.532805	0.463118
H139	H	-0.519756	-0.719942	0.275763
H140	H	-0.019756	-0.219942	0.775763
H141	H	-0.819825	-0.818650	0.177132
H142	H	-0.319825	-0.318650	0.677132
F143	F	-0.000155	-0.094840	0.239845
F144	F	0.499845	0.405160	0.739845
F145	F	-0.000184	-0.132612	-0.044889
F146	F	0.499816	0.367388	0.455111
F147	F	0.222716	-0.930221	-0.315308
F148	F	0.722716	-0.430221	0.184692
F149	F	-0.223021	-0.857483	-0.480774
F150	F	0.276979	-0.357483	0.019226
F151	F	-0.223018	-0.863839	-0.083458
F152	F	0.276982	-0.363839	0.416542
H153	H	-0.000135	-0.680727	-0.018847
H154	H	0.499865	-0.180727	0.481153
H155	H	0.195722	-0.928495	-0.158057
H156	H	0.695722	-0.428495	0.341943
F157	F	-0.223015	-0.854902	-0.643728
F158	F	0.276985	-0.354902	-0.143728
F159	F	0.222714	-0.926484	-0.549665
F160	F	0.722714	-0.426484	-0.049665
