data_functionalizedCrystal
_audit_creation_method	'MofGen! by Chris Wilmer'
_symmetry_space_group_name_H-M	'P1'
_symmetry_Int_Tables_number	1
_symmetry_cell_setting	triclinic
loop_
_symmetry_equiv_pos_as_xyz
  x,y,z
_cell_length_a	19.851628
_cell_length_b	14.395555
_cell_length_c	14.395555
_cell_angle_alpha	60.000749
_cell_angle_beta	90.004468
_cell_angle_gamma	59.999934
loop_
_atom_site_label
_atom_site_type_symbol
_atom_site_fract_x
_atom_site_fract_y
_atom_site_fract_z
Zr1	Zr	0.649000	1.016681	-0.121809
O2	O	0.541438	1.210488	-0.270154
O3	O	0.681970	0.822882	-0.076332
O4	O	0.681976	1.016669	-0.270128
O5	O	0.541432	1.016708	0.076509
O6	O	0.792837	1.016651	-0.270109
O7	O	0.541433	1.016701	-0.076358
O8	O	0.792828	0.670002	0.076556
O9	O	0.541441	1.363357	-0.270156
O10	O	0.778770	0.902578	-0.056925
O11	O	0.696035	0.902597	0.057145
O12	O	0.696041	1.130756	-0.171025
O13	O	0.613306	1.130775	-0.056956
Zr14	Zr	0.825810	1.016664	0.122026
Zr15	Zr	0.825812	1.016653	-0.121780
Zr16	Zr	0.648999	1.016692	0.121996
Zr17	Zr	0.649005	1.260491	-0.121813
Zr18	Zr	0.825805	0.772854	0.122030
O19	O	0.792840	1.210463	0.076548
O20	O	0.792842	1.210447	-0.270112
O21	O	0.541436	1.210504	0.076506
O22	O	0.933372	0.822857	0.270370
O23	O	0.933374	0.822841	-0.076290
O24	O	0.681969	0.822898	0.270328
O25	O	0.933378	1.016637	-0.076293
O26	O	0.792835	1.016676	0.270344
O27	O	0.681973	1.016694	0.270325
O28	O	0.933377	1.016644	0.076575
O29	O	0.681983	1.363335	-0.270133
O30	O	0.792827	0.670010	0.270349
O31	O	0.933369	0.669988	0.270373
O32	O	0.933370	0.669979	0.076580
O33	O	0.541440	1.363366	-0.076363
O34	O	0.681982	1.363343	-0.076340
O35	O	0.778769	0.902589	0.171242
O36	O	0.861505	0.902570	0.057172
O37	O	0.778775	1.130748	-0.056928
O38	O	0.696040	1.130767	0.057141
C39	C	0.737398	0.711704	0.000113
C40	C	0.737396	0.608201	0.000114
C41	C	0.692288	0.547619	0.062314
C42	C	0.659595	0.561876	-0.044967
C43	C	0.770069	0.409548	0.107362
C44	C	0.704658	0.623884	-0.107229
C45	C	0.815175	0.471494	0.045177
C46	C	0.782502	0.485797	-0.062167
C47	C	0.516241	1.016708	0.000071
C48	C	0.441179	1.016720	0.000059
C49	C	0.214727	1.141103	-0.062116
C50	C	0.192364	1.078910	-0.107191
C51	C	0.303773	1.016686	0.000091
C52	C	0.192394	1.078888	0.045146
C53	C	0.171041	1.016663	0.000122
C54	C	0.282399	0.954493	-0.045047
C55	C	0.282426	0.954488	0.107350
C56	C	0.260117	0.892204	0.062301
C57	C	0.380235	1.016704	0.000071
C58	C	0.094583	1.016636	0.000141
C59	C	0.958570	1.016637	0.000145
C60	C	1.033631	1.016625	0.000158
C61	C	0.737407	1.016659	-0.304855
C62	C	0.737407	1.016654	-0.408357
C63	C	0.737412	1.321641	0.000104
C64	C	0.737414	1.425144	0.000102
C65	C	0.782519	0.892241	-0.406733
C66	C	0.704725	0.954445	-0.499769
C67	C	0.815182	0.954456	-0.499750
C68	C	0.659568	1.078858	-0.500030
C69	C	0.770080	1.078851	-0.499996
C70	C	0.692240	1.141145	-0.593049
C71	C	0.737403	1.016686	0.305072
C72	C	0.737403	1.016691	0.408574
C73	C	0.958563	0.711669	0.000150
C74	C	1.033622	0.608153	0.000164
C75	C	0.737397	0.711718	0.305076
C76	C	0.737394	0.608219	0.408580
C77	C	0.958561	0.711682	0.305113
C78	C	1.033620	0.608171	0.408629
C79	C	0.516249	1.321663	-0.304897
C80	C	0.441190	1.425174	-0.408413
C81	C	0.516247	1.321676	0.000067
C82	C	0.441188	1.425192	0.000052
C83	C	0.737413	1.321627	-0.304860
C84	C	0.737416	1.425126	-0.408363
C85	C	1.025684	0.559545	-0.059397
C86	C	1.096203	0.462295	-0.059406
C87	C	1.174659	0.413647	0.000152
C88	C	1.182596	0.462265	0.059715
C89	C	1.112077	0.559520	0.059717
C90	C	1.112063	0.559552	0.397699
C91	C	1.182595	0.462306	0.494954
C92	C	1.174682	0.413675	0.603138
C93	C	1.096231	0.462304	0.614067
C94	C	1.025701	0.559555	0.516813
C95	C	0.362748	1.473805	-0.397482
C96	C	0.292216	1.571081	-0.494737
C97	C	0.300128	1.619717	-0.602922
C98	C	0.378579	1.571082	-0.613850
C99	C	0.449109	1.473814	-0.516596
C100	C	0.449126	1.473810	0.059603
C101	C	0.378607	1.571087	0.059586
C102	C	0.300151	1.619738	0.000024
C103	C	0.292214	1.571116	-0.059535
C104	C	0.362733	1.473847	-0.059523
C105	C	0.692280	0.547642	0.406959
C106	C	0.770075	0.409532	0.499992
C107	C	0.659622	0.561883	0.499978
C108	C	0.815234	0.471410	0.500250
C109	C	0.704725	0.623834	0.500222
C110	C	0.782566	0.485734	0.593272
H111	H	0.880930	0.434318	0.083329
Cl112	Cl	0.557968	1.159991	-0.498785
H113	H	0.820647	0.458845	-0.114846
H114	H	0.356289	1.434210	-0.309402
H115	H	0.385085	1.610659	0.108090
H116	H	0.321233	0.901952	0.198025
Cl117	Cl	0.927062	0.620687	-0.134286
Cl118	Cl	0.547720	1.412680	-0.530358
Cl119	Cl	0.812747	0.268066	0.501441
Cl120	Cl	0.812721	0.268111	0.247400
Cl121	Cl	1.086207	0.401191	-0.134286
H122	H	0.880960	0.901847	-0.500637
H123	H	0.654089	0.574853	0.114835
Cl124	Cl	0.193602	1.632197	-0.480972
Cl125	Cl	0.547749	1.412675	0.134485
Cl126	Cl	0.916833	0.413682	0.499000
H127	H	0.654191	0.574729	0.327194
Cl128	Cl	0.193577	1.632286	-0.134402
Cl129	Cl	0.841550	0.444001	0.716224
H130	H	0.242737	1.698941	0.000024
H131	H	0.321093	0.901943	-0.083243
H132	H	0.676957	0.715450	-0.197975
H133	H	0.356258	1.434265	-0.108013
Cl134	Cl	0.662047	0.873279	-0.501216
Cl135	Cl	0.186250	1.303520	-0.143446
H136	H	0.677064	0.715493	0.499230
Cl137	Cl	0.132444	1.160088	-0.247214
H138	H	0.593826	0.599070	-0.083092
Cl139	Cl	0.841325	0.729822	-0.283580
H140	H	0.593850	0.599066	0.500882
Cl141	Cl	0.388512	1.632234	-0.749863
Cl142	Cl	0.288760	0.729696	0.143453
H143	H	0.654036	1.246434	-0.672685
H144	H	0.797740	1.131380	-0.499017
Cl145	Cl	1.263304	0.291379	0.000141
H146	H	1.246484	0.422642	0.108206
H147	H	0.153594	1.131499	0.083237
H148	H	0.242691	1.698919	-0.682103
H149	H	1.118552	0.599084	0.108226
H150	H	1.246466	0.422722	0.486035
Cl151	Cl	1.122031	0.620677	0.261707
H152	H	1.232119	0.334487	0.682319
Cl153	Cl	1.086298	0.401151	0.750079
Cl154	Cl	0.927090	0.620656	0.530575
