data_functionalizedCrystal
_audit_creation_method	'MofGen! by Chris Wilmer'
_symmetry_space_group_name_H-M	'P1'
_symmetry_Int_Tables_number	1
_symmetry_cell_setting	triclinic
loop_
_symmetry_equiv_pos_as_xyz
  x,y,z
_cell_length_a	6.394989
_cell_length_b	10.654550
_cell_length_c	9.130313
_cell_angle_alpha	89.999724
_cell_angle_beta	90.001550
_cell_angle_gamma	94.508679
loop_
_atom_site_label
_atom_site_type_symbol
_atom_site_fract_x
_atom_site_fract_y
_atom_site_fract_z
O1	O	-0.293442	1.670947	-0.121679
O2	O	-0.321399	1.305765	-0.121705
O3	O	-0.003431	1.493540	-0.121693
O4	O	-0.611409	1.483173	-0.121692
O5	O	-0.003422	1.493526	0.121906
O6	O	-0.321389	1.305752	0.121893
O7	O	-0.293432	1.670934	0.121919
Cu8	Cu	-0.307410	1.488342	0.144149
Cu9	Cu	-0.307421	1.488357	-0.143935
O10	O	-0.611400	1.483159	0.121907
C11	C	-0.319341	1.258939	0.000091
C12	C	-0.313200	1.119430	0.000080
N13	N	-0.307401	1.488340	0.346772
C14	C	-0.500414	1.041927	0.000085
C15	C	-0.494631	0.910845	0.000110
C16	C	-0.114403	0.934782	0.000121
C17	C	-0.120188	1.065861	0.000106
C18	C	0.074425	1.491483	0.000101
C19	C	0.310750	1.485219	0.000099
C20	C	-0.295490	1.717760	0.000120
C21	C	-0.301631	1.857269	0.000121
N22	N	-0.307414	1.488369	-0.346558
C23	C	-0.166665	1.571516	0.423429
C24	C	-0.166665	1.571528	0.576766
C25	C	-0.448157	1.405184	0.576774
C26	C	-0.448145	1.405167	0.423440
H27	H	-0.657577	1.085539	0.000075
H28	H	0.042741	0.891149	0.000150
H29	H	-0.562750	1.337429	0.361022
H30	H	-0.647080	0.847747	0.000117
H31	H	-0.052060	1.639239	0.361009
C32	C	0.202124	1.126628	-0.125127
C33	C	0.085612	1.151065	0.000094
H34	H	0.329162	1.179236	-0.125132
H35	H	0.233196	1.040908	-0.125107
H36	H	0.123038	1.143190	-0.210068
H37	H	0.164693	1.134495	0.085036
H38	H	0.054546	1.236806	0.000087
C39	C	0.111553	1.735959	0.561345
C40	C	-0.011972	1.662963	0.661027
H41	H	0.207050	1.792414	0.613367
H42	H	0.187520	1.682486	0.501554
H43	H	0.023858	1.782500	0.501526
H44	H	0.075723	1.616415	0.720839
H45	H	-0.087944	1.716444	0.720843
C46	C	-0.808700	1.337119	0.623957
C47	C	-0.602869	1.313764	0.661045
H48	H	-0.904212	1.280673	0.675974
H49	H	-0.832686	1.421296	0.649083
H50	H	-0.828799	1.325207	0.521662
H51	H	-0.582765	1.325686	0.763340
H52	H	-0.578874	1.229567	0.635929
