data_functionalizedCrystal
_audit_creation_method	'MofGen! by Chris Wilmer'
_symmetry_space_group_name_H-M	'P1'
_symmetry_Int_Tables_number	1
_symmetry_cell_setting	triclinic
loop_
_symmetry_equiv_pos_as_xyz
  x,y,z
_cell_length_a	17.699077
_cell_length_b	10.908878
_cell_length_c	16.776229
_cell_angle_alpha	89.993177
_cell_angle_beta	89.993415
_cell_angle_gamma	71.682684
loop_
_atom_site_label
_atom_site_type_symbol
_atom_site_fract_x
_atom_site_fract_y
_atom_site_fract_z
O1	O	0.983814	0.162418	-0.066276
O2	O	0.760797	0.183562	-0.066280
O3	O	0.901869	-0.014036	-0.066274
O4	O	0.842742	0.360015	-0.066281
O5	O	0.901856	-0.014048	0.066302
O6	O	0.760783	0.183550	0.066297
O7	O	0.983801	0.162406	0.066300
Zn8	Zn	0.872290	0.172976	0.087348
Zn9	Zn	0.872308	0.172992	-0.087327
O10	O	0.842728	0.360003	0.066295
C11	C	0.732687	0.182799	0.000008
C12	C	0.648952	0.180530	0.000007
C13	C	0.609611	0.179455	0.072275
C14	C	0.530937	0.177302	0.072276
C15	C	0.491604	0.176235	0.000008
C16	C	0.530952	0.177307	-0.072266
C17	C	0.609626	0.179450	-0.072266
C18	C	0.213667	0.168662	-0.072268
C19	C	0.134987	0.166522	-0.072262
C20	C	0.134978	0.166514	0.072275
C21	C	0.213652	0.168657	0.072275
C22	C	0.252995	0.169722	0.000001
C23	C	0.338302	0.172054	0.000001
C24	C	0.406296	0.173912	0.000007
C25	C	0.907388	-0.061901	0.000013
C26	C	0.923844	-0.204505	0.000011
C27	C	0.863800	-0.253324	0.000008
C28	C	0.880806	-0.400713	0.000006
C29	C	1.011910	0.163168	0.000011
C30	C	1.095645	0.165437	0.000007
C31	C	0.837209	0.407868	0.000006
C32	C	0.820753	0.550473	0.000003
N33	N	0.872283	0.172964	0.206559
N34	N	0.872322	0.172993	-0.206538
C35	C	0.934761	0.085504	0.248279
C36	C	0.934765	0.085503	0.331731
C37	C	0.872294	0.172969	0.373462
C38	C	0.809810	0.260433	0.331737
C39	C	0.809803	0.260427	0.248286
C40	C	0.809834	0.260459	0.668284
C41	C	0.809846	0.260461	0.751741
C42	C	0.934796	0.085534	0.751729
C43	C	0.934789	0.085528	0.668278
C44	C	0.872304	0.172987	0.626560
C45	C	0.872299	0.172986	0.536072
C46	C	0.872300	0.172978	0.463949
H47	H	0.245691	0.169525	-0.131117
C48	C	0.778425	-0.163722	-0.000118
C49	C	0.739375	-0.186857	-0.068319
C50	C	0.660723	-0.104354	-0.068458
H51	H	0.778225	-0.076545	-0.000158
H52	H	0.751755	-0.179259	0.046088
H53	H	0.766038	-0.171310	-0.114513
H54	H	0.739553	-0.274017	-0.068294
H55	H	0.634053	-0.119891	-0.022251
H56	H	0.660531	-0.017183	-0.068495
H57	H	0.634215	-0.120048	-0.114727
H58	H	0.985639	0.014285	0.365699
C59	C	0.741887	0.355450	0.376898
C60	C	0.687157	0.432017	0.322497
C61	C	0.624570	0.519551	0.364069
H62	H	0.762280	0.408998	0.409445
H63	H	0.716151	0.309334	0.409446
H64	H	0.712889	0.478130	0.289964
H65	H	0.666742	0.378505	0.289949
H66	H	0.598835	0.473435	0.396616
H67	H	0.644971	0.573089	0.396614
H68	H	0.587425	0.571504	0.327164
H69	H	0.498923	0.176428	-0.131108
C70	C	0.966131	-0.490523	-0.000160
C71	C	0.979101	-0.568314	-0.068379
C72	C	1.057693	-0.651049	-0.068564
H73	H	0.975155	-0.543565	0.046017
H74	H	1.001624	-0.440826	-0.000202
H75	H	0.943619	-0.618006	-0.068329
H76	H	0.970095	-0.515306	-0.114567
H77	H	1.093187	-0.601353	-0.068607
H78	H	1.066710	-0.704083	-0.022384
H79	H	1.066506	-0.703832	-0.114853
C80	C	0.735372	-0.359935	-0.000121
C81	C	0.696323	-0.383075	-0.068321
C82	C	0.617668	-0.300582	-0.068457
H83	H	0.735167	-0.272756	-0.000160
H84	H	0.708706	-0.375479	0.046086
H85	H	0.722982	-0.367522	-0.114516
H86	H	0.696506	-0.470238	-0.068296
H87	H	0.591001	-0.316125	-0.022250
H88	H	0.617471	-0.213408	-0.068494
H89	H	0.591161	-0.316279	-0.114725
H90	H	0.987841	-0.271826	0.000014
C91	C	0.488344	0.176212	0.150823
C92	C	0.539620	0.177650	0.214112
C93	C	0.500408	0.176664	0.286484
H94	H	0.472847	0.100512	0.153948
H95	H	0.442462	0.250290	0.153865
H96	H	0.585487	0.103580	0.211071
H97	H	0.555119	0.253345	0.211013
H98	H	0.454526	0.250741	0.289526
H99	H	0.484913	0.100962	0.289601
H100	H	0.535190	0.177651	0.329434
C101	C	0.256233	0.169745	0.150821
C102	C	0.204947	0.168306	0.214113
C103	C	0.244149	0.169284	0.286483
H104	H	0.271732	0.245443	0.153939
H105	H	0.302114	0.095665	0.153867
H106	H	0.159082	0.242379	0.211069
H107	H	0.189446	0.092613	0.211022
H108	H	0.290029	0.095204	0.289529
H109	H	0.259646	0.244983	0.289592
H110	H	0.209360	0.168296	0.329435
H111	H	0.985635	0.014284	0.214307
C112	C	1.002567	-0.009754	0.623091
C113	C	1.006089	-0.135892	0.643483
C114	C	1.068513	-0.223755	0.601901
H115	H	1.051396	0.003877	0.636743
H116	H	0.993685	0.002565	0.567393
H117	H	1.014976	-0.148207	0.699169
H118	H	0.957275	-0.149565	0.629829
H119	H	1.059632	-0.211435	0.546203
H120	H	1.117338	-0.210112	0.615556
H121	H	1.070906	-0.309349	0.615725
H122	H	0.985673	0.014316	0.785704
H123	H	0.758971	0.331689	0.785717
H124	H	0.758926	0.331645	0.214319
C125	C	0.741946	0.355563	0.623141
C126	C	0.687253	0.432186	0.677552
C127	C	0.624707	0.519827	0.635993
H128	H	0.716154	0.309570	0.590597
H129	H	0.762413	0.409052	0.590592
H130	H	0.666787	0.378704	0.710088
H131	H	0.713020	0.478208	0.710098
H132	H	0.645174	0.573315	0.603443
H133	H	0.598922	0.473823	0.603450
H134	H	0.587594	0.571834	0.672904
H135	H	0.102937	0.165641	0.131123
H136	H	0.102964	0.165652	-0.131115
C137	C	0.652449	0.180413	0.150681
C138	C	0.720052	0.071183	0.154896
C139	C	0.759539	0.072026	0.227109
H140	H	0.617849	0.179397	0.193788
H141	H	0.667991	0.256096	0.153693
H142	H	0.704509	-0.004480	0.151892
H143	H	0.754671	0.072176	0.111805
H144	H	0.775080	0.147708	0.230120
H145	H	0.724932	0.071013	0.270210
H146	H	0.805415	-0.002079	0.229975
H147	H	0.641656	0.180328	-0.131115
