data_functionalizedCrystal
_audit_creation_method	'MofGen! by Chris Wilmer'
_symmetry_space_group_name_H-M	'P1'
_symmetry_Int_Tables_number	1
_symmetry_cell_setting	triclinic
loop_
_symmetry_equiv_pos_as_xyz
  x,y,z
_cell_length_a	16.625548
_cell_length_b	12.759399
_cell_length_c	12.759401
_cell_angle_alpha	89.991679
_cell_angle_beta	90.008727
_cell_angle_gamma	89.983816
loop_
_atom_site_label
_atom_site_type_symbol
_atom_site_fract_x
_atom_site_fract_y
_atom_site_fract_z
Zn1	Zn	1.232627	0.418420	0.594067
Zn2	Zn	1.732627	0.918420	1.094067
Zn3	Zn	1.232576	0.594066	0.418386
Zn4	Zn	1.732576	1.094066	0.918386
Zn5	Zn	1.097817	0.418405	0.418397
Zn6	Zn	1.597817	0.918405	0.918397
Zn7	Zn	1.097777	0.594060	0.594017
Zn8	Zn	1.597777	1.094060	1.094017
O9	O	1.165199	0.506238	0.506217
O10	O	1.665199	1.006238	1.006217
O11	O	1.345453	0.441728	0.570778
O12	O	1.845453	0.941728	1.070778
O13	O	1.214695	0.570760	0.271366
O14	O	1.714695	1.070760	0.771366
O15	O	1.115738	0.271386	0.441725
O16	O	1.615738	0.771386	0.941725
O17	O	1.345415	0.570775	0.441706
O18	O	1.845415	1.070775	0.941706
O19	O	1.214783	0.271397	0.570789
O20	O	1.714783	0.771397	1.070789
O21	O	1.115688	0.441703	0.271374
O22	O	1.615688	0.941703	0.771374
O23	O	0.984979	0.441698	0.441677
O24	O	1.484979	0.941698	0.941677
O25	O	1.115670	0.570765	0.741045
O26	O	1.615670	1.070765	1.241045
O27	O	0.984950	0.570751	0.570705
O28	O	1.484950	1.070751	1.070705
O29	O	1.214744	0.441723	0.741081
O30	O	1.714744	0.941723	1.241081
O31	O	1.214656	0.741086	0.441658
O32	O	1.714656	1.241086	0.941658
O33	O	1.115620	0.741082	0.570694
O34	O	1.615620	1.241082	1.070694
C35	C	0.955708	0.506223	0.506187
C36	C	1.455708	1.006223	1.006187
C37	C	0.866087	0.506242	0.506200
C38	C	1.366087	1.006242	1.006200
C39	C	1.165150	0.779205	0.506193
C40	C	1.665150	1.279205	1.006193
C41	C	1.165202	0.895982	0.506218
C42	C	1.665202	1.395982	1.006218
C43	C	1.165208	0.506245	0.780250
C44	C	1.665208	1.006245	1.280250
C45	C	1.165212	0.506248	0.897026
C46	C	1.665212	1.006248	1.397026
C47	C	0.537912	0.506249	0.506244
C48	C	1.037912	1.006249	1.006244
C49	C	0.629220	0.506244	0.506229
C50	C	1.129220	1.006244	1.006229
C51	C	0.701997	0.506246	0.506221
C52	C	1.201997	1.006246	1.006221
C53	C	0.793311	0.506240	0.506207
C54	C	1.293311	1.006240	1.006207
C55	C	1.375508	0.506254	0.506247
C56	C	1.875508	1.006254	1.006247
C57	C	1.465129	0.506260	0.506260
C58	C	1.965129	1.006260	1.006260
C59	C	1.165271	0.232204	0.506264
C60	C	1.665271	0.732204	1.006264
C61	C	1.165301	0.115428	0.506284
C62	C	1.665301	0.615428	1.006284
C63	C	1.216829	0.950811	0.439105
C64	C	1.716829	1.450811	0.939105
C65	C	1.216881	1.060535	0.439140
C66	C	1.716881	1.560535	0.939140
C67	C	1.113672	1.060591	0.573404
C68	C	1.613672	1.560591	1.073404
C69	C	1.113625	0.950869	0.573373
C70	C	1.613625	1.450869	1.073373
C71	C	1.216793	0.439066	0.951909
C72	C	1.716793	0.939066	1.451909
C73	C	1.216786	0.439064	1.061633
C74	C	1.716786	0.939064	1.561633
C75	C	1.113615	0.573435	1.061582
C76	C	1.613615	1.073435	1.561582
C77	C	1.113618	0.573430	0.951860
C78	C	1.613618	1.073430	1.451860
C79	C	1.165190	0.506254	1.233249
C80	C	1.665190	1.006254	1.733249
C81	C	1.165202	0.506250	1.116473
C82	C	1.665202	1.006250	1.616473
H83	H	1.258828	0.906124	0.384425
H84	H	1.758828	1.406124	0.884425
H85	H	1.071610	0.628134	1.106241
H86	H	1.571610	1.128134	1.606241
H87	H	1.258788	0.384357	1.106314
H88	H	1.758788	0.884357	1.606314
H89	H	1.071608	0.628137	0.907174
H90	H	1.571608	1.128137	1.407174
H91	H	1.258922	1.105172	0.384492
H92	H	1.758922	1.605172	0.884492
H93	H	1.071678	1.105293	0.628077
H94	H	1.571678	1.605293	1.128077
H95	H	1.071584	0.906224	0.628029
H96	H	1.571584	1.406224	1.128029
H97	H	1.258802	0.384359	0.907266
H98	H	1.758802	0.884359	1.407266
