data_functionalizedCrystal
_audit_creation_method	'MofGen! by Chris Wilmer'
_symmetry_space_group_name_H-M	'P1'
_symmetry_Int_Tables_number	1
_symmetry_cell_setting	triclinic
loop_
_symmetry_equiv_pos_as_xyz
  x,y,z
_cell_length_a	19.121275
_cell_length_b	19.121063
_cell_length_c	12.645323
_cell_angle_alpha	92.408124
_cell_angle_beta	92.418698
_cell_angle_gamma	89.926756
loop_
_atom_site_label
_atom_site_type_symbol
_atom_site_fract_x
_atom_site_fract_y
_atom_site_fract_z
Zn1	Zn	1.059831	-0.324804	-0.551992
Zn2	Zn	1.559831	0.175196	-0.051992
Zn3	Zn	1.054732	-0.442046	-0.382584
Zn4	Zn	1.554732	0.057954	0.117416
Zn5	Zn	0.942592	-0.319831	-0.381972
Zn6	Zn	1.442592	0.180169	0.118028
Zn7	Zn	0.937561	-0.437005	-0.567026
Zn8	Zn	1.437561	0.062995	-0.067026
O9	O	0.998679	-0.380921	-0.470893
O10	O	1.498679	0.119079	0.029107
O11	O	1.157256	-0.344548	-0.523484
O12	O	1.657256	0.155452	-0.023484
O13	O	1.039827	-0.425861	-0.234159
O14	O	1.539827	0.074139	0.265841
O15	O	0.962384	-0.222387	-0.397978
O16	O	1.462384	0.277613	0.102022
O17	O	1.153509	-0.430684	-0.399020
O18	O	1.653509	0.069316	0.100980
O19	O	1.048519	-0.226041	-0.522891
O20	O	1.548519	0.273959	-0.022891
O21	O	0.957439	-0.336071	-0.233710
O22	O	1.457439	0.163929	0.266290
O23	O	0.843823	-0.331183	-0.412556
O24	O	1.343823	0.168817	0.087444
O25	O	0.953810	-0.422093	-0.713375
O26	O	1.453810	0.077907	-0.213375
O27	O	0.840127	-0.417271	-0.548514
O28	O	1.340127	0.082729	-0.048514
O29	O	1.043641	-0.339660	-0.702330
O30	O	1.543641	0.160340	-0.202330
O31	O	1.034949	-0.539481	-0.413598
O32	O	1.534949	-0.039481	0.086402
O33	O	0.948865	-0.535777	-0.549107
O34	O	1.448865	-0.035777	-0.049107
C35	C	0.816539	-0.373141	-0.482101
C36	C	1.316539	0.126859	0.017899
C37	C	0.738618	-0.369829	-0.486921
C38	C	1.238618	0.130171	0.013079
C39	C	0.700059	-0.413047	-0.424279
C40	C	1.200059	0.086953	0.075721
C41	C	0.626844	-0.409935	-0.428822
C42	C	1.126844	0.090065	0.071178
C43	C	0.592189	-0.363602	-0.496004
C44	C	1.092189	0.136398	0.003996
C45	C	0.630752	-0.320382	-0.558653
C46	C	1.130752	0.179618	-0.058653
C47	C	0.703966	-0.323498	-0.554115
C48	C	1.203966	0.176502	-0.054115
C49	C	0.371228	-0.351958	-0.512960
C50	C	0.871228	0.148042	-0.012960
C51	C	0.298009	-0.348844	-0.517492
C52	C	0.798009	0.151156	-0.017492
C53	C	0.294106	-0.438399	-0.387662
C54	C	0.794106	0.061601	0.112338
C55	C	0.367322	-0.441507	-0.383124
C56	C	0.867322	0.058493	0.116876
C57	C	0.405879	-0.398290	-0.445778
C58	C	0.905879	0.101710	0.054222
C59	C	0.517351	-0.360419	-0.500647
C60	C	1.017351	0.139581	-0.000647
C61	C	0.480715	-0.401477	-0.441139
C62	C	0.980715	0.098523	0.058861
C63	C	0.990826	-0.563067	-0.483072
C64	C	1.490826	-0.063067	0.016928
C65	C	0.987531	-0.640992	-0.488313
C66	C	1.487531	-0.140992	0.011687
C67	C	1.030838	-0.679508	-0.420278
C68	C	1.530838	-0.179508	0.079722
C69	C	1.027743	-0.752727	-0.425213
C70	C	1.527743	-0.252727	0.074787
C71	C	0.981337	-0.787429	-0.498180
C72	C	1.481337	-0.287429	0.001820
C73	C	0.938029	-0.748908	-0.566223
C74	C	1.438029	-0.248908	-0.066223
C75	C	0.941128	-0.675691	-0.561292
C76	C	1.441128	-0.175691	-0.061292
C77	C	0.969740	-1.008404	-0.516601
C78	C	1.469740	-0.508404	-0.016601
C79	C	0.966642	-1.081627	-0.521525
C80	C	1.466642	-0.581627	-0.021525
C81	C	1.056357	-1.085441	-0.380515
C82	C	1.556357	-0.585441	0.119485
C83	C	1.059449	-1.012222	-0.375586
C84	C	1.559449	-0.512222	0.124414
C85	C	1.016144	-0.973707	-0.443633
C86	C	1.516144	-0.473707	0.056367
C87	C	0.978171	-0.862271	-0.503225
C88	C	1.478171	-0.362271	-0.003225
C89	C	1.019314	-0.898867	-0.438593
C90	C	1.519314	-0.398867	0.061407
C91	C	1.181531	-0.388733	-0.459643
C92	C	1.681531	0.111267	0.040357
C93	C	1.259451	-0.392062	-0.454849
C94	C	1.759451	0.107938	0.045151
C95	C	0.998733	-0.380869	-0.747392
C96	C	1.498733	0.119131	-0.247392
C97	C	0.998756	-0.380847	-0.865219
C98	C	1.498756	0.119153	-0.365219
C99	C	1.006581	-0.198065	-0.458690
C100	C	1.506581	0.301935	0.041310
C101	C	1.009949	-0.120143	-0.453489
C102	C	1.509949	0.379857	0.046511
C103	C	0.942087	-0.432444	-1.039725
C104	C	1.442087	0.067556	-0.539725
C105	C	0.942218	-0.432717	-0.917174
C106	C	1.442218	0.067283	-0.417174
C107	C	1.071764	-0.404048	-0.906523
C108	C	1.571764	0.095952	-0.406523
C109	C	1.071451	-0.404373	-1.029162
C110	C	1.571451	0.095627	-0.529162
C111	C	0.983129	-0.305779	-1.028607
C112	C	1.483129	0.194221	-0.528607
C113	C	0.981461	-0.306154	-0.906132
C114	C	1.481461	0.193846	-0.406132
C115	C	0.998668	-0.380924	-0.195465
C116	C	1.498668	0.119076	0.304535
C117	C	0.998789	-0.380755	-0.077616
C118	C	1.498789	0.119245	0.422384
H119	H	1.068623	-0.651259	-0.360856
H120	H	1.568623	-0.151259	0.139144
Br121	Br	0.583720	-0.257507	-0.649841
Br122	Br	1.083720	0.242493	-0.149841
H123	H	1.024466	-0.267230	-1.052484
H124	H	1.524466	0.232770	-0.552484
Br125	Br	0.959061	-0.525243	-0.873157
Br126	Br	1.459061	-0.025243	-0.373157
Br127	Br	1.082295	-0.851771	-0.339576
Br128	Br	1.582295	-0.351771	0.160424
H129	H	0.952061	-0.487613	-1.073441
H130	H	1.452061	0.012387	-0.573441
H131	H	0.940386	-0.890533	-0.562632
H132	H	1.440386	-0.390533	-0.062632
H133	H	0.927750	-0.288715	-0.879375
H134	H	1.427750	0.211285	-0.379375
Br135	Br	0.747085	-0.475928	-0.333095
Br136	Br	1.247085	0.024072	0.166905
Br137	Br	0.414351	-0.504365	-0.291905
Br138	Br	0.914351	-0.004365	0.208095
H139	H	0.262706	-0.473584	-0.336654
H140	H	0.762706	0.026416	0.163346
H141	H	0.887980	-0.417834	-0.889612
H142	H	1.387980	0.082166	-0.389612
Br143	Br	0.882357	-0.623418	-0.653637
Br144	Br	1.382357	-0.123418	-0.153637
Br145	Br	0.250977	-0.285953	-0.608663
Br146	Br	0.750977	0.214047	-0.108663
Br147	Br	0.910968	-0.956144	-0.608951
Br148	Br	1.410968	-0.456144	-0.108951
H149	H	1.114961	-0.368530	-1.053737
H150	H	1.614961	0.131470	-0.553737
Br151	Br	0.851402	-0.407825	-1.093099
Br152	Br	1.351402	0.092175	-0.593099
Br153	Br	0.903648	-1.128722	-0.620541
Br154	Br	1.403648	-0.628722	-0.120541
H155	H	1.097236	-0.983969	-0.316171
H156	H	1.597236	-0.483969	0.183829
Br157	Br	0.470312	-0.297542	-0.591825
Br158	Br	0.970312	0.202458	-0.091825
Br159	Br	0.574518	-0.468575	-0.343778
Br160	Br	1.074518	0.031425	0.156222
H161	H	1.063007	-0.784084	-0.369810
H162	H	1.563007	-0.284084	0.130190
Br163	Br	1.143841	-0.343515	-0.849442
Br164	Br	1.643841	0.156485	-0.349442
Br165	Br	0.756295	-0.264847	-0.639139
Br166	Br	1.256295	0.235153	-0.139139
H167	H	1.085096	-0.459275	-1.060417
H168	H	1.585096	0.040725	-0.560417
Br169	Br	1.115129	-1.137714	-0.288176
Br170	Br	1.615129	-0.637714	0.211824
H171	H	1.085706	-0.458394	-0.878423
H172	H	1.585706	0.041606	-0.378423
Br173	Br	0.875056	-0.796003	-0.665260
Br174	Br	1.375056	-0.296003	-0.165260
H175	H	1.019996	-0.265353	-0.870410
H176	H	1.519996	0.234647	-0.370410
Br177	Br	0.896219	-0.271555	-1.083516
Br178	Br	1.396219	0.228445	-0.583516
H179	H	0.402612	-0.316768	-0.563978
H180	H	0.902612	0.183232	-0.063978
H181	H	0.508934	-0.439205	-0.386446
H182	H	1.008934	0.060795	0.113554
