data_functionalizedCrystal
_audit_creation_method	'MofGen! by Chris Wilmer'
_symmetry_space_group_name_H-M	'P1'
_symmetry_Int_Tables_number	1
_symmetry_cell_setting	triclinic
loop_
_symmetry_equiv_pos_as_xyz
  x,y,z
_cell_length_a	10.686220
_cell_length_b	10.685194
_cell_length_c	10.686551
_cell_angle_alpha	98.415440
_cell_angle_beta	89.692081
_cell_angle_gamma	99.069920
loop_
_atom_site_label
_atom_site_type_symbol
_atom_site_fract_x
_atom_site_fract_y
_atom_site_fract_z
Zn1	Zn	1.946782	-0.311304	0.540468
Zn2	Zn	1.911616	-0.542425	0.314432
Zn3	Zn	1.718224	-0.343970	0.344484
Zn4	Zn	1.718258	-0.539838	0.540391
O5	O	1.823720	-0.434384	0.434944
O6	O	2.118691	-0.329375	0.497939
O7	O	1.871231	-0.530853	0.141834
O8	O	1.763245	-0.160940	0.383091
O9	O	2.092854	-0.499178	0.331871
O10	O	1.931166	-0.136941	0.527079
O11	O	1.729147	-0.385049	0.163913
O12	O	1.541655	-0.382540	0.383016
O13	O	1.763304	-0.494769	0.716986
O14	O	1.541681	-0.526443	0.526948
O15	O	1.931199	-0.326866	0.717042
O16	O	1.871265	-0.720778	0.331797
O17	O	1.729205	-0.718877	0.497808
C18	C	1.495884	-0.457757	0.458236
C19	C	1.355635	-0.467784	0.468228
C20	C	1.796459	-0.766156	0.411558
C21	C	1.784916	-0.908078	0.401588
C22	C	2.152836	-0.410921	0.411561
C23	C	2.293086	-0.400922	0.401597
C24	C	1.851178	-0.406885	0.764081
C25	C	1.862879	-0.395166	0.904339
C26	C	1.851124	-0.101311	0.458446
C27	C	1.862802	0.040625	0.468461
C28	C	1.796449	-0.461679	0.107089
C29	C	1.785022	-0.473020	-0.033161
H30	H	1.301890	-0.532699	0.532916
H31	H	1.709386	-0.972743	0.336709
C32	C	1.964817	-0.872042	0.556126
H33	H	2.012122	-0.923252	0.596753
H34	H	2.020002	-0.820090	0.507619
H35	H	1.925250	-0.818911	0.618115
H36	H	1.709418	-0.548642	0.913044
H37	H	1.346835	-0.336011	0.336896
C38	C	1.965032	-0.293010	0.977007
H39	H	1.959761	-0.298265	1.064906
H40	H	2.046495	-0.307435	0.948120
H41	H	1.951844	-0.210300	0.962839
