data_functionalizedCrystal
_audit_creation_method	'MofGen! by Chris Wilmer'
_symmetry_space_group_name_H-M	'P1'
_symmetry_Int_Tables_number	1
_symmetry_cell_setting	triclinic
loop_
_symmetry_equiv_pos_as_xyz
  x,y,z
_cell_length_a	12.759401
_cell_length_b	14.908579
_cell_length_c	12.759393
_cell_angle_alpha	86.733776
_cell_angle_beta	89.980324
_cell_angle_gamma	86.677693
loop_
_atom_site_label
_atom_site_type_symbol
_atom_site_fract_x
_atom_site_fract_y
_atom_site_fract_z
Zn1	Zn	1.582069	0.359104	-0.618105
Zn2	Zn	1.571793	0.509988	-0.452560
Zn3	Zn	1.406364	0.359149	-0.442447
Zn4	Zn	1.396197	0.509922	-0.628197
O5	O	1.489106	0.434541	-0.535328
O6	O	1.727726	0.379128	-0.596154
O7	O	1.549803	0.490025	-0.304201
O8	O	1.438228	0.232899	-0.457293
O9	O	1.720176	0.489981	-0.474529
O10	O	1.567317	0.232865	-0.586348
O11	O	1.428263	0.379204	-0.296771
O12	O	1.257995	0.379141	-0.467079
O13	O	1.420898	0.489869	-0.773876
O14	O	1.250525	0.489913	-0.603548
O15	O	1.557458	0.379064	-0.766462
O16	O	1.539944	0.636223	-0.484314
O17	O	1.410934	0.636175	-0.613354
C18	C	1.216139	0.434525	-0.535312
C19	C	1.099362	0.434540	-0.535331
C20	C	1.048424	0.376923	-0.598772
C21	C	0.938700	0.376932	-0.598780
C22	C	0.930859	0.492183	-0.471903
C23	C	1.040582	0.492169	-0.471891
C24	C	1.473249	0.668933	-0.551050
C25	C	1.466561	0.769207	-0.557811
C26	C	1.588471	0.957621	-0.436255
C27	C	1.582191	1.051838	-0.442604
C28	C	1.447728	1.051857	-0.576863
C29	C	1.454008	0.957641	-0.570514
C30	C	1.524381	0.910526	-0.500206
C31	C	1.530654	0.816308	-0.493852
C32	C	1.396197	0.816330	-0.628116
C33	C	1.389917	0.910546	-0.634465
C34	C	1.763138	0.434557	-0.535344
C35	C	1.879914	0.434564	-0.535351
C36	C	1.489190	0.434454	-0.809355
C37	C	1.489226	0.434417	-0.926129
C38	C	1.505046	1.199233	-0.519581
C39	C	1.511821	1.098959	-0.512905
C40	C	1.560338	0.376712	-0.977132
C41	C	1.560358	0.376673	-1.086853
C42	C	1.418151	0.492053	-1.094561
C43	C	1.418127	0.492086	-0.984841
C44	C	1.489086	0.434562	-0.262362
C45	C	1.489271	0.434344	-0.145571
H46	H	1.645764	0.919260	-0.379000
O47	O	1.321699	0.956417	-0.702814
C48	C	1.377847	1.010809	-0.774414
H49	H	1.456554	1.024884	-0.738388
H50	H	1.391762	0.974442	-0.849833
C51	C	1.217396	1.083052	-0.843660
C52	C	1.314061	1.100345	-0.799409
H53	H	1.178049	1.138281	-0.859083
H54	H	1.179567	1.046405	-0.795425
H55	H	1.229006	1.052744	-0.906504
H56	H	1.302450	1.130643	-0.736559
H57	H	1.351887	1.137000	-0.847634
O58	O	1.349239	0.548170	-1.151650
C59	C	1.405119	0.606409	-1.219044
H60	H	1.487479	0.611998	-1.186362
H61	H	1.410650	0.578490	-1.300332
C62	C	1.246276	0.693323	-1.267144
C63	C	1.347430	0.700194	-1.226999
H64	H	1.210690	0.751173	-1.272056
H65	H	1.208628	0.654085	-1.221743
H66	H	1.250900	0.670054	-1.334880
H67	H	1.342805	0.723452	-1.159260
H68	H	1.385076	0.739439	-1.272390
O69	O	0.873812	0.548073	-0.410132
C70	C	0.901931	0.528263	-0.304126
H71	H	0.936952	0.456182	-0.294118
H72	H	0.962347	0.576592	-0.279807
C73	C	0.760710	0.627241	-0.246994
C74	C	0.803716	0.538707	-0.234700
H75	H	0.700128	0.633687	-0.204168
H76	H	0.741767	0.640591	-0.318412
H77	H	0.811067	0.667505	-0.226730
H78	H	0.753364	0.498446	-0.254977
H79	H	0.822648	0.525351	-0.163284
H80	H	1.618263	0.329682	-1.128374
O81	O	1.644489	1.097447	-0.380371
C82	C	1.707964	1.035655	-0.316979
H83	H	1.669408	0.968529	-0.308778
H84	H	1.788408	1.025550	-0.354847
C85	C	1.768075	1.154926	-0.217729
C86	C	1.720714	1.072483	-0.207649
H87	H	1.775945	1.177645	-0.150291
H88	H	1.725314	1.196558	-0.260440
H89	H	1.835106	1.146495	-0.249289
H90	H	1.653680	1.080918	-0.176102
H91	H	1.763465	1.030854	-0.164931
H92	H	1.360211	0.539076	-0.943314
O93	O	0.889096	0.321091	-0.660471
C94	C	0.822203	0.372534	-0.731700
H95	H	0.801132	0.440863	-0.699094
H96	H	0.863850	0.382528	-0.810204
C97	C	0.747220	0.239005	-0.787555
C98	C	0.721332	0.322925	-0.747503
H99	H	0.685000	0.208403	-0.797308
H100	H	0.792290	0.204346	-0.739570
H101	H	0.781927	0.247345	-0.852971
H102	H	0.686638	0.314584	-0.682083
H103	H	0.676254	0.357582	-0.795478
H104	H	1.618229	0.329751	-0.929332
H105	H	1.390441	1.090234	-0.634110
H106	H	1.096280	0.329995	-0.650426
O107	O	1.334087	0.770542	-0.690354
C108	C	1.397492	0.715934	-0.754571
H109	H	1.478350	0.744254	-0.763051
H110	H	1.405883	0.644547	-0.717279
C111	C	1.246883	0.679678	-0.853226
C112	C	1.346191	0.714465	-0.863648
H113	H	1.215236	0.678768	-0.920509
H114	H	1.204164	0.716466	-0.809960
H115	H	1.253889	0.620192	-0.822146
H116	H	1.339182	0.773954	-0.894716
H117	H	1.388908	0.677687	-0.906923
H118	H	1.082055	0.539089	-0.420224
H119	H	1.587953	0.777948	-0.436602
