data_functionalizedCrystal
_audit_creation_method	'MofGen! by Chris Wilmer'
_symmetry_space_group_name_H-M	'P1'
_symmetry_Int_Tables_number	1
_symmetry_cell_setting	triclinic
loop_
_symmetry_equiv_pos_as_xyz
  x,y,z
_cell_length_a	14.853567
_cell_length_b	14.853567
_cell_length_c	13.330367
_cell_angle_alpha	90.000844
_cell_angle_beta	89.995418
_cell_angle_gamma	96.365070
loop_
_atom_site_label
_atom_site_type_symbol
_atom_site_fract_x
_atom_site_fract_y
_atom_site_fract_z
O1	O	1.196369	-0.117704	-0.083346
O2	O	0.933909	-0.131725	-0.083362
O3	O	1.072150	0.006515	-0.083356
O4	O	1.058128	-0.255944	-0.083351
O5	O	1.072130	0.006519	0.083491
O6	O	0.933889	-0.131722	0.083485
O7	O	1.196349	-0.117700	0.083501
Cu8	Cu	1.065117	-0.124711	0.098728
Cu9	Cu	1.065141	-0.124715	-0.098588
O10	O	1.058108	-0.255941	0.083496
C11	C	0.900311	-0.131088	0.000060
C12	C	0.800227	-0.129184	0.000053
C13	C	0.387693	-0.039019	0.000074
C14	C	0.366412	-0.203251	0.000076
C15	C	0.460446	-0.205042	0.000073
C16	C	0.518108	-0.123819	0.000069
C17	C	0.481736	-0.040806	0.000067
C18	C	0.496825	-0.288053	0.000064
C19	C	0.590864	-0.289846	0.000059
C20	C	0.648528	-0.208623	0.000062
C21	C	0.612150	-0.125607	0.000062
C22	C	0.669812	-0.044384	0.000058
C23	C	0.633437	0.038633	0.000065
C24	C	0.539399	0.040417	0.000070
C25	C	0.742565	-0.210407	0.000057
C26	C	0.763855	-0.046172	0.000052
C27	C	1.071504	0.040106	0.000064
C28	C	1.069601	0.140189	0.000055
C29	C	1.229947	-0.118337	0.000078
C30	C	1.330031	-0.120241	0.000078
C31	C	1.058754	-0.289531	0.000073
C32	C	1.060657	-0.389615	0.000075
N33	N	1.065107	-0.124708	0.237509
C34	C	0.979435	0.552723	0.000069
C35	C	1.143668	0.574004	0.000079
C36	C	1.145458	0.479971	0.000073
C37	C	1.064235	0.422309	0.000067
C38	C	0.981223	0.458680	0.000066
C39	C	1.228469	0.443591	0.000084
C40	C	1.230262	0.349552	0.000079
C41	C	1.149039	0.291889	0.000066
C42	C	1.066023	0.328266	0.000064
C43	C	0.984800	0.270604	0.000058
C44	C	0.901783	0.306979	0.000049
C45	C	0.899999	0.401017	0.000053
C46	C	1.150823	0.197851	0.000062
C47	C	0.986588	0.176561	0.000055
N48	N	1.065158	-0.124711	-0.237370
C49	C	1.003925	-0.185903	0.710130
C50	C	1.126381	-0.063519	0.710103
C51	C	1.126371	-0.063516	0.605084
C52	C	1.065138	-0.124709	0.552584
C53	C	1.003915	-0.185904	0.605102
C54	C	1.187598	-0.002328	0.552559
C55	C	1.187591	-0.002323	0.447534
C56	C	1.126353	-0.063512	0.395031
C57	C	1.065127	-0.124710	0.447556
C58	C	1.003895	-0.185902	0.395055
C59	C	0.942664	-0.247096	0.447578
C60	C	0.942677	-0.247093	0.552599
C61	C	1.126340	-0.063515	0.290010
C62	C	1.003884	-0.185903	0.290027
H63	H	0.772178	-0.277998	0.000053
H64	H	0.620472	-0.357443	0.000053
C65	C	1.291365	0.187039	-0.085699
C66	C	1.242063	0.157862	0.000066
H67	H	1.347693	0.162345	-0.085699
H68	H	1.301926	0.251288	-0.085683
H69	H	1.257915	0.167255	-0.143879
H70	H	1.275510	0.177651	0.058247
H71	H	1.231505	0.093599	0.000059
C72	C	0.319319	-0.342685	0.085844
C73	C	0.303038	-0.292531	0.000075
H74	H	0.280195	-0.397807	0.085838
H75	H	0.308270	-0.308652	0.144015
H76	H	0.380534	-0.355621	0.085833
H77	H	0.241825	-0.279589	0.000089
H78	H	0.314080	-0.326571	-0.058111
C79	C	0.824067	0.164972	0.000043
C80	C	0.897303	0.113182	0.000049
H81	H	0.768948	0.125843	0.000046
H82	H	0.826794	0.202089	-0.058137
H83	H	0.826784	0.202097	0.058230
H84	H	0.894590	0.076062	-0.058141
H85	H	0.894574	0.076050	0.058236
H86	H	0.810798	0.019971	0.000052
H87	H	1.176197	-0.013696	0.247251
H88	H	1.176239	-0.013702	0.752852
C89	C	0.824339	0.535719	0.000073
C90	C	0.808753	0.441003	0.000058
H91	H	0.768008	0.560405	0.000086
H92	H	0.857783	0.555501	-0.058106
H93	H	0.857786	0.555486	0.058261
H94	H	0.775312	0.421236	-0.058135
H95	H	0.775295	0.421213	0.058243
H96	H	0.680397	0.104764	0.000055
H97	H	1.209795	0.620958	0.000092
H98	H	0.835652	0.260019	0.000051
H99	H	0.358072	0.028572	0.000083
C100	C	0.449739	-0.427492	0.085824
C101	C	0.433450	-0.377332	0.000062
H102	H	0.410615	-0.482614	0.085817
H103	H	0.438695	-0.393463	0.144000
H104	H	0.510953	-0.440429	0.085805
H105	H	0.372237	-0.364390	0.000084
H106	H	0.444487	-0.411368	-0.058129
H107	H	0.911844	0.582344	0.000058
H108	H	0.509774	0.108005	0.000100
C109	C	1.321740	0.561691	-0.085677
C110	C	1.317743	0.506974	0.000094
H111	H	1.376859	0.600820	-0.085672
H112	H	1.272049	0.596804	-0.085677
H113	H	1.319039	0.524553	-0.143853
H114	H	1.320438	0.544112	0.058270
H115	H	1.367448	0.471858	0.000103
C116	C	1.370806	0.338752	-0.085691
C117	C	1.321511	0.309572	0.000077
H118	H	1.427136	0.314064	-0.085696
H119	H	1.381361	0.403002	-0.085675
H120	H	1.337354	0.318966	-0.143869
H121	H	1.354960	0.329364	0.058256
H122	H	1.310958	0.245309	0.000071
C123	C	0.786679	-0.299740	0.584985
C124	C	0.875380	-0.314352	0.610339
H125	H	0.745136	-0.341259	0.620640
H126	H	0.777909	-0.308507	0.514934
H127	H	0.776835	-0.239548	0.602202
H128	H	0.885227	-0.374542	0.593115
H129	H	0.884154	-0.305593	0.680405
H130	H	1.237457	0.047489	0.595308
C131	C	0.882841	-0.306879	0.300604
C132	C	0.936576	-0.253172	0.232323
H133	H	0.841293	-0.348411	0.264977
H134	H	0.850373	-0.269289	0.341567
H135	H	0.920417	-0.339374	0.341564
H136	H	0.899000	-0.220673	0.191367
H137	H	0.969046	-0.290767	0.191342
C138	C	0.847925	-0.238547	0.742489
C139	C	0.936621	-0.253161	0.767860
H140	H	0.806375	-0.280065	0.778136
H141	H	0.839165	-0.247311	0.672437
H142	H	0.838079	-0.178354	0.759704
H143	H	0.946468	-0.313352	0.750638
H144	H	0.945384	-0.244404	0.837928
H145	H	0.892811	-0.296924	0.404820
C146	C	1.308631	0.118658	0.458068
C147	C	1.254886	0.064947	0.389806
H148	H	1.350170	0.160192	0.422426
H149	H	1.341110	0.081070	0.499014
H150	H	1.271061	0.151149	0.499046
H151	H	1.292456	0.032450	0.348832
H152	H	1.222404	0.102539	0.348842
