data_functionalizedCrystal
_audit_creation_method	'MofGen! by Chris Wilmer'
_symmetry_space_group_name_H-M	'P1'
_symmetry_Int_Tables_number	1
_symmetry_cell_setting	triclinic
loop_
_symmetry_equiv_pos_as_xyz
  x,y,z
_cell_length_a	16.974829
_cell_length_b	14.044220
_cell_length_c	15.455313
_cell_angle_alpha	92.908275
_cell_angle_beta	83.671566
_cell_angle_gamma	88.283427
loop_
_atom_site_label
_atom_site_type_symbol
_atom_site_fract_x
_atom_site_fract_y
_atom_site_fract_z
O1	O	1.064127	0.112388	-0.146829
O2	O	0.834296	0.128695	-0.130698
O3	O	0.945762	-0.017425	-0.138513
O4	O	0.952662	0.258507	-0.139014
O5	O	0.939385	-0.009103	0.006196
O6	O	0.827920	0.137016	0.014011
O7	O	1.057751	0.120709	-0.002120
Cu8	Cu	0.942253	0.129622	0.019159
Cu9	Cu	0.949794	0.119781	-0.151976
O10	O	0.946285	0.266828	0.005695
C11	C	0.801517	0.132389	-0.056266
C12	C	0.713344	0.130986	-0.050078
C13	C	0.939553	-0.048562	-0.065946
C14	C	0.930545	-0.153740	-0.065312
C15	C	0.216650	0.123612	-0.006774
C16	C	0.299497	0.124929	-0.012591
C17	C	0.344398	0.121045	-0.094382
C18	C	0.306446	0.115852	-0.170361
C19	C	0.223599	0.114542	-0.164543
C20	C	0.592545	0.124483	-0.120239
C21	C	0.675398	0.125791	-0.126051
C22	C	0.668444	0.134870	0.031719
C23	C	0.585596	0.133554	0.037530
C24	C	0.547651	0.128366	-0.038449
N25	N	0.429082	0.122388	-0.100329
N26	N	0.462968	0.127030	-0.032501
C27	C	0.914075	-0.346315	-0.064169
C28	C	0.977968	-0.404287	-0.068656
C29	C	0.968805	-0.511443	-0.068020
C30	C	0.923238	-0.239150	-0.064805
C31	C	1.090530	0.117015	-0.076553
C32	C	1.178703	0.118417	-0.082747
C33	C	0.952494	0.297966	-0.066874
C34	C	0.961503	0.403144	-0.067513
N35	N	0.936955	0.136543	0.139526
N36	N	0.955098	0.112853	-0.272344
C37	C	0.984329	0.074490	0.181599
C38	C	0.980330	0.079732	0.272687
C39	C	0.928961	0.147034	0.321700
C40	C	0.881581	0.209091	0.279622
C41	C	0.885577	0.203843	0.188535
C42	C	0.911714	0.169661	0.594491
C43	C	0.907724	0.174907	0.685583
C44	C	1.006472	0.045546	0.678642
C45	C	1.010466	0.040308	0.587554
C46	C	0.963084	0.102361	0.545484
N47	N	0.924874	0.152397	0.414807
N48	N	0.967167	0.096993	0.452379
H49	H	0.180097	0.126779	0.059829
O50	O	1.051498	-0.367658	-0.073842
C51	C	1.192375	-0.400986	-0.083655
C52	C	1.109157	-0.442602	-0.077811
H53	H	1.239014	-0.461557	-0.086846
H54	H	1.202581	-0.358792	-0.144752
H55	H	1.197132	-0.351783	-0.023623
H56	H	1.104341	-0.491846	-0.137797
H57	H	1.098987	-0.484739	-0.016676
O58	O	0.555821	0.119384	-0.194129
C59	C	0.571467	0.110549	-0.351228
C60	C	0.613164	0.116307	-0.267615
H61	H	0.617809	0.108080	-0.410663
H62	H	0.535445	0.043381	-0.352678
H63	H	0.530267	0.176000	-0.352238
H64	H	0.654403	0.050905	-0.266549
H65	H	0.649136	0.183515	-0.266197
H66	H	0.873135	0.220189	0.560244
O67	O	0.705399	0.139788	0.105458
C68	C	0.798037	0.064433	0.190271
C69	C	0.756256	0.058749	0.106714
H70	H	0.839152	-0.001088	0.191322
H71	H	0.834141	0.131537	0.191672
H72	H	0.751699	0.067031	0.249714
H73	H	0.802540	0.056114	0.047225
H74	H	0.720137	-0.008345	0.105389
O75	O	0.840667	-0.383259	-0.058975
C76	C	0.764497	-0.525314	-0.053677
C77	C	0.847675	-0.483587	-0.059547
H78	H	0.770135	-0.606435	-0.054155
H79	H	0.728214	-0.496783	0.009262
H80	H	0.733561	-0.503608	-0.111859
H81	H	0.878679	-0.505276	-0.001409
H82	H	0.883899	-0.512115	-0.122521
O83	O	0.350141	0.112211	-0.249762
C84	C	0.444505	0.190528	-0.347696
C85	C	0.395079	0.194765	-0.257737
H86	H	0.480837	0.257274	-0.354180
H87	H	0.486080	0.124652	-0.354551
H88	H	0.403138	0.186546	-0.400983
H89	H	0.436385	0.198783	-0.204396
H90	H	0.353495	0.260632	-0.250957
H91	H	0.711953	0.122636	-0.192658
O92	O	0.541887	0.137440	0.116929
C93	C	0.441157	0.223312	0.215292
C94	C	0.490596	0.219029	0.125340
H95	H	0.399689	0.289281	0.222129
H96	H	0.404712	0.156656	0.221785
H97	H	0.482520	0.227199	0.268587
H98	H	0.449291	0.215173	0.071992
H99	H	0.527050	0.285683	0.118923
H100	H	1.026163	0.019689	0.141697
H101	H	0.839751	0.263887	0.319534
O102	O	0.839531	0.264224	0.147799
C103	C	0.741131	0.393048	0.164293
C104	C	0.793252	0.324741	0.210535
H105	H	0.703689	0.441979	0.214995
H106	H	0.780551	0.437835	0.119019
H107	H	0.700525	0.349843	0.124625
H108	H	0.833866	0.367871	0.250250
H109	H	0.753785	0.279951	0.255758
H110	H	1.018905	0.029203	0.306942
H111	H	1.045047	-0.004976	0.712905
O112	O	1.060381	-0.025157	0.540079
C113	C	1.157937	-0.152875	0.542808
C114	C	1.101426	-0.078799	0.596680
H115	H	1.191149	-0.196251	0.588546
H116	H	1.122254	-0.202573	0.502839
H117	H	1.202285	-0.114586	0.497141
H118	H	1.057066	-0.117007	0.642394
H119	H	1.137161	-0.029105	0.636590
O120	O	0.186863	0.109452	-0.238430
C121	C	0.202496	0.100654	-0.395530
C122	C	0.244200	0.106385	-0.311921
H123	H	0.248833	0.098192	-0.454968
H124	H	0.166468	0.033491	-0.396989
H125	H	0.161299	0.166111	-0.396523
H126	H	0.285435	0.040976	-0.310872
H127	H	0.280178	0.173588	-0.310494
O128	O	0.857701	0.240182	0.733171
C129	C	0.722503	0.297952	0.770452
C130	C	0.779059	0.223966	0.716525
H131	H	0.658912	0.284879	0.756999
H132	H	0.727725	0.291039	0.842793
H133	H	0.739018	0.372763	0.751439
H134	H	0.762582	0.149122	0.735462
H135	H	0.773829	0.230963	0.644196
O136	O	0.336234	0.129935	0.061296
C137	C	0.320591	0.138858	0.218396
C138	C	0.278888	0.133165	0.134785
H139	H	0.274246	0.141491	0.277833
H140	H	0.361747	0.073382	0.219505
H141	H	0.356661	0.205990	0.219742
H142	H	0.242776	0.066073	0.133384
H143	H	0.237779	0.198687	0.133709
