data_functionalizedCrystal
_audit_creation_method	'MofGen! by Chris Wilmer'
_symmetry_space_group_name_H-M	'P1'
_symmetry_Int_Tables_number	1
_symmetry_cell_setting	triclinic
loop_
_symmetry_equiv_pos_as_xyz
  x,y,z
_cell_length_a	6.817900
_cell_length_b	10.992410
_cell_length_c	9.514072
_cell_angle_alpha	88.554233
_cell_angle_beta	118.843421
_cell_angle_gamma	108.764651
loop_
_atom_site_label
_atom_site_type_symbol
_atom_site_fract_x
_atom_site_fract_y
_atom_site_fract_z
V1	V	-4.172171	-0.401600	-0.222204
O2	O	-4.069593	-0.392919	0.010678
O3	O	-4.206678	-0.399849	-0.440594
O4	O	-4.148872	-0.576297	-0.218786
O5	O	-4.127799	-0.215250	-0.212665
V6	V	-4.641803	-0.379190	-0.194349
O7	O	-4.463899	-0.450758	-0.283307
O8	O	-4.800272	-0.330032	-0.133246
O9	O	-4.384090	-0.380940	0.024041
O10	O	-4.861778	-0.387870	-0.427231
O11	O	-4.803572	-0.565539	-0.203888
O12	O	-4.441896	-0.204493	-0.197767
C13	C	-4.071035	-0.393771	-0.493833
C14	C	-4.180703	-0.393504	-0.672369
C15	C	-3.997296	-0.618845	-0.210893
C16	C	-4.060079	-0.761668	-0.209543
C17	C	-3.923996	-0.956735	-0.197247
C18	C	-3.858986	-0.808261	-0.199316
C19	C	-4.299373	-0.839489	-0.367896
C20	C	-4.363322	-0.988049	-0.366496
C21	C	-4.161158	-0.948628	-0.059868
C22	C	-4.090253	-0.799612	-0.059117
C23	C	-4.183077	-0.387015	0.077271
C24	C	-4.052649	-0.387290	0.255805
C25	C	-4.256814	-0.161937	-0.205665
C26	C	-4.173267	-0.019114	-0.207007
H27	H	-3.680850	-0.754405	-0.085454
H28	H	-3.859082	-0.382111	-0.669090
Br29	Br	-4.271643	-0.797658	-0.554052
H30	H	-4.026898	-0.968442	0.060382
H31	H	-3.776908	-0.975045	-0.082602
Br32	Br	-4.503337	-0.402113	-0.797544
H33	H	-4.231881	-0.767092	-0.057257
H34	H	-3.926618	-1.005207	-0.302968
H35	H	-3.829747	-0.783932	-0.306505
H36	H	-4.376801	-1.034824	-0.477907
H37	H	-4.548913	-1.030743	-0.380266
H38	H	-4.453190	-0.810746	-0.381098
Br39	Br	-3.800588	-0.711475	0.136136
H40	H	-4.341642	-0.989495	-0.065623
