data_functionalizedCrystal
_audit_creation_method	'MofGen! by Chris Wilmer'
_symmetry_space_group_name_H-M	'P1'
_symmetry_Int_Tables_number	1
_symmetry_cell_setting	triclinic
loop_
_symmetry_equiv_pos_as_xyz
  x,y,z
_cell_length_a	14.519709
_cell_length_b	7.088929
_cell_length_c	8.559649
_cell_angle_alpha	84.655815
_cell_angle_beta	103.270595
_cell_angle_gamma	83.779193
loop_
_atom_site_label
_atom_site_type_symbol
_atom_site_fract_x
_atom_site_fract_y
_atom_site_fract_z
O1	O	1.198225	0.158735	-0.225782
O2	O	1.698225	0.658735	0.274218
O3	O	0.927974	0.158792	-0.250449
O4	O	1.427974	0.658792	0.249551
O5	O	1.086909	0.158756	-0.005581
O6	O	1.586909	0.658756	0.494419
O7	O	1.039290	0.158770	-0.470650
O8	O	1.539290	0.658770	0.029350
O9	O	1.108154	-0.159224	0.027217
O10	O	1.608154	0.340776	0.527217
O11	O	0.949219	-0.159188	-0.217651
O12	O	1.449219	0.340812	0.282349
O13	O	1.219470	-0.159245	-0.192984
O14	O	1.719470	0.340755	0.307016
Cu15	Cu	1.086285	-0.188251	-0.202323
Cu16	Cu	1.586285	0.311749	0.297677
Cu17	Cu	1.061160	0.187797	-0.241111
Cu18	Cu	1.561160	0.687797	0.258889
O19	O	1.060535	-0.159210	-0.437852
O20	O	1.560535	0.340790	0.062148
C21	C	0.904319	-0.000190	-0.232902
C22	C	1.404319	0.499810	0.267098
C23	C	0.802183	-0.000168	-0.229460
C24	C	1.302183	0.499832	0.270540
N25	N	1.103963	-0.452743	-0.175040
N26	N	1.603963	0.047257	0.324960
C27	C	0.428203	-0.000256	-0.216772
C28	C	0.928203	0.499744	0.283228
C29	C	0.532257	-0.000231	-0.220295
C30	C	1.032257	0.499769	0.279705
C31	C	0.615190	-0.000210	-0.223116
C32	C	1.115190	0.499790	0.276884
C33	C	0.719250	-0.000189	-0.226640
C34	C	1.219250	0.499811	0.273360
C35	C	1.243125	-0.000259	-0.210532
C36	C	1.743125	0.499741	0.289468
C37	C	1.345260	-0.000268	-0.213975
C38	C	1.845260	0.499732	0.286025
N39	N	1.043489	0.452289	-0.268380
N40	N	1.543489	0.952289	0.231620
C41	C	1.101140	-0.000231	0.070337
C42	C	1.601140	0.499769	0.570337
C43	C	1.111881	-0.000223	0.247686
C44	C	1.611881	0.499777	0.747686
C45	C	1.046304	-0.000218	-0.513771
C46	C	1.546304	0.499782	-0.013771
C47	C	1.035562	-0.000214	-0.691121
C48	C	1.535562	0.499786	-0.191121
H49	H	1.166646	-0.534413	-0.078319
H50	H	1.666646	-0.034413	0.421681
O51	O	0.938119	-0.000184	0.198570
O52	O	1.438119	0.499816	0.698570
H53	H	0.944687	-0.000160	0.071909
H54	H	1.444687	0.499840	0.571909
H55	H	0.980816	-0.466050	-0.365107
H56	H	1.480816	0.033950	0.134893
H57	H	1.185445	-0.000254	0.330985
H58	H	1.685445	0.499746	0.830985
