data_functionalizedCrystal
_audit_creation_method	'MofGen! by Chris Wilmer'
_symmetry_space_group_name_H-M	'P1'
_symmetry_Int_Tables_number	1
_symmetry_cell_setting	triclinic
loop_
_symmetry_equiv_pos_as_xyz
  x,y,z
_cell_length_a	10.723022
_cell_length_b	12.784905
_cell_length_c	9.198806
_cell_angle_alpha	89.997944
_cell_angle_beta	89.996352
_cell_angle_gamma	78.787273
loop_
_atom_site_label
_atom_site_type_symbol
_atom_site_fract_x
_atom_site_fract_y
_atom_site_fract_z
O1	O	1.639529	0.148949	-0.120878
O2	O	1.274686	0.163209	-0.120882
O3	O	1.483806	0.001546	-0.120876
O4	O	1.430409	0.310612	-0.120885
O5	O	1.483791	0.001546	0.120909
O6	O	1.274671	0.163208	0.120903
O7	O	1.639514	0.148949	0.120907
Cu8	Cu	1.457091	0.156078	0.142982
Cu9	Cu	1.457109	0.156079	-0.142957
O10	O	1.430394	0.310611	0.120900
C11	C	1.228302	0.162171	0.000009
C12	C	1.090115	0.159068	0.000008
C13	C	0.861593	0.246315	0.000002
C14	C	1.004415	0.249525	0.000004
C15	C	1.487271	-0.038028	0.000015
C16	C	1.497604	-0.155947	0.000009
C17	C	1.287084	-0.353865	0.000020
C18	C	1.296787	-0.464659	0.000015
C19	C	1.526711	-0.488331	0.000002
C20	C	1.517008	-0.377537	0.000008
C21	C	1.397191	-0.310307	0.000015
C22	C	1.387489	-0.199511	0.000010
C23	C	1.617412	-0.223185	0.000008
C24	C	1.627115	-0.333980	0.000002
C25	C	1.685898	0.149986	0.000012
C26	C	1.824085	0.153090	0.000004
C27	C	1.426929	0.350186	0.000007
C28	C	1.416596	0.468104	0.000003
N29	N	1.457088	0.156077	0.344096
N30	N	1.457123	0.156072	-0.344071
C31	C	1.544927	0.087901	0.416295
C32	C	1.544947	0.087897	0.583708
H33	H	0.787970	0.323752	-0.000009
H34	H	1.381896	0.214440	0.406221
O35	O	1.634820	0.018312	0.342384
C36	C	1.756502	0.036257	0.379457
H37	H	1.752107	0.077122	0.489995
H38	H	1.826356	-0.043215	0.384541
H39	H	1.789439	0.089371	0.293815
H40	H	1.620153	0.029532	0.645796
H41	H	1.624260	-0.543088	0.000014
O42	O	1.743568	-0.399183	-0.000205
C43	C	1.811114	-0.379323	-0.125455
H44	H	1.771381	-0.295512	-0.167195
H45	H	1.915953	-0.386364	-0.097308
H46	H	1.800631	-0.440035	-0.213141
H47	H	1.707069	-0.187710	-0.000125
O48	O	1.367566	0.225759	0.581719
C49	C	1.427544	0.291582	0.493690
H50	H	1.529624	0.249806	0.471015
H51	H	1.373793	0.308029	0.386608
H52	H	1.427713	0.370137	0.552261
O53	O	1.042935	0.344779	0.000256
C54	C	0.995825	0.402913	0.125455
H55	H	0.974867	0.345605	0.212983
H56	H	1.069797	0.448575	0.167485
H57	H	0.904718	0.461566	0.097137
O58	O	1.051700	0.063770	-0.000186
C59	C	1.098757	0.005666	-0.125427
H60	H	1.185887	0.035163	-0.167175
H61	H	1.126270	-0.082655	-0.097264
H62	H	1.022170	0.017503	-0.213112
O63	O	0.911739	0.060602	-0.000058
C64	C	0.849134	-0.026702	-0.000018
H65	H	0.749132	-0.000553	-0.045792
H66	H	0.904479	-0.093407	-0.070214
H67	H	0.843168	-0.056743	0.115979
O68	O	1.271175	-0.134094	0.000213
C69	C	1.258671	-0.069322	0.125456
H70	H	1.357030	-0.062999	0.167195
H71	H	1.203189	0.013599	0.097301
H72	H	1.205683	-0.106186	0.213146
O73	O	1.170602	-0.288705	0.000078
C74	C	1.075497	-0.350909	0.000030
H75	H	1.116106	-0.433358	0.045808
H76	H	0.992282	-0.310618	0.070219
H77	H	1.041195	-0.359050	-0.115970
O78	O	1.189921	-0.507096	-0.000181
C79	C	1.188639	-0.570447	-0.125427
H80	H	1.289906	-0.597319	-0.167180
H81	H	1.146806	-0.643349	-0.097268
H82	H	1.128171	-0.521900	-0.213107
