data_functionalizedCrystal
_audit_creation_method	'MofGen! by Chris Wilmer'
_symmetry_space_group_name_H-M	'P1'
_symmetry_Int_Tables_number	1
_symmetry_cell_setting	triclinic
loop_
_symmetry_equiv_pos_as_xyz
  x,y,z
_cell_length_a	10.723024
_cell_length_b	10.723024
_cell_length_c	7.681481
_cell_angle_alpha	84.204337
_cell_angle_beta	95.778575
_cell_angle_gamma	84.467869
loop_
_atom_site_label
_atom_site_type_symbol
_atom_site_fract_x
_atom_site_fract_y
_atom_site_fract_z
O1	O	1.645492	0.186740	-0.146413
O2	O	1.282339	0.203493	-0.146419
O3	O	1.472292	0.013540	-0.146409
O4	O	1.455538	0.376693	-0.146423
O5	O	1.495672	-0.009894	0.146450
O6	O	1.305719	0.180060	0.146440
O7	O	1.668871	0.163306	0.146446
Zn8	Zn	1.491007	0.167962	0.192941
Zn9	Zn	1.460203	0.198837	-0.192914
O10	O	1.478918	0.353260	0.146436
C11	C	1.247529	0.190558	0.000010
C12	C	1.108975	0.186910	0.000008
C13	C	0.917217	0.073603	0.000009
C14	C	1.060421	0.077370	0.000011
C15	C	1.482763	-0.044676	0.000018
C16	C	1.479115	-0.183230	0.000012
C17	C	1.585402	-0.258213	0.000011
C18	C	1.581634	-0.401416	0.000005
C19	C	1.703681	0.176242	0.000013
C20	C	1.842234	0.179891	0.000004
C21	C	1.468447	0.411476	0.000005
C22	C	1.472094	0.550031	-0.000000
N23	N	1.512039	0.146891	0.456276
N24	N	1.439181	0.219899	-0.456249
H25	H	1.124853	-0.013620	0.000004
F26	F	0.896893	0.302480	0.000013
F27	F	1.341969	0.317304	0.445460
H28	H	1.381100	-0.385545	0.000013
F29	F	0.862561	-0.048988	0.000024
H30	H	1.679189	-0.216392	0.000023
F31	F	1.700571	-0.485631	0.000016
F32	F	1.356524	-0.237886	-0.000006
H33	H	1.044549	0.277906	-0.000003
F34	F	1.609269	0.049493	0.554575
