data_functionalizedCrystal
_audit_creation_method	'MofGen! by Chris Wilmer'
_symmetry_space_group_name_H-M	'P1'
_symmetry_Int_Tables_number	1
_symmetry_cell_setting	triclinic
loop_
_symmetry_equiv_pos_as_xyz
  x,y,z
_cell_length_a	12.827893
_cell_length_b	15.297327
_cell_length_c	12.827885
_cell_angle_alpha	80.357285
_cell_angle_beta	90.019272
_cell_angle_gamma	99.706564
loop_
_atom_site_label
_atom_site_type_symbol
_atom_site_fract_x
_atom_site_fract_y
_atom_site_fract_z
Zn1	Zn	1.525601	-0.359117	0.662774
Zn2	Zn	1.495216	-0.510002	0.518254
Zn3	Zn	1.350834	-0.359161	0.488057
Zn4	Zn	1.320562	-0.509935	0.692941
O5	O	1.423053	-0.434554	0.590506
O6	O	1.667805	-0.379142	0.643616
O7	O	1.476016	-0.490040	0.368022
O8	O	1.399403	-0.232910	0.485971
O9	O	1.645481	-0.489997	0.537438
O10	O	1.527804	-0.232878	0.614335
O11	O	1.369939	-0.379217	0.345836
O12	O	1.200584	-0.379152	0.515222
O13	O	1.347808	-0.489883	0.835166
O14	O	1.178343	-0.489925	0.665749
O15	O	1.498450	-0.379077	0.813003
O16	O	1.446662	-0.636239	0.566689
O17	O	1.318345	-0.636189	0.695031
C18	C	1.151547	-0.434537	0.590483
C19	C	1.035391	-0.434551	0.590502
C20	C	0.972611	-0.489451	0.664907
C21	C	0.852558	-0.489467	0.664929
C22	C	1.375950	-0.668948	0.637433
C23	C	1.355894	-0.769223	0.657544
C24	C	1.566825	-1.051858	0.447130
C25	C	1.585667	-0.957645	0.428230
C26	C	1.528226	-0.910535	0.485557
C27	C	1.451938	-0.957647	0.561787
C28	C	1.433088	-1.051869	0.580683
C29	C	1.394489	-0.910546	0.619110
C30	C	1.318201	-0.957658	0.695340
C31	C	1.299355	-1.051871	0.714233
C32	C	1.356796	-1.098981	0.656906
C33	C	1.413339	-0.816324	0.600214
C34	C	1.279602	-0.816335	0.733767
C35	C	1.260760	-0.910548	0.752667
C36	C	1.695620	-0.434572	0.590531
C37	C	1.811771	-0.434580	0.590541
C38	C	1.423142	-0.434468	0.863059
C39	C	1.423180	-0.434431	0.979205
C40	C	1.470370	-0.199245	0.543419
C41	C	1.490533	-0.098970	0.523353
C42	C	1.423038	-0.434575	0.319001
C43	C	1.423254	-0.434358	0.202805
C44	C	1.497731	-0.379590	1.020021
C45	C	1.497772	-0.379551	1.140063
H46	H	1.475453	-0.777973	0.538147
C47	C	1.216387	-1.103074	0.796828
C48	C	1.138586	-1.157233	0.748462
C49	C	1.062135	-1.204403	0.824513
H50	H	1.248865	-1.139844	0.849786
H51	H	1.184809	-1.061556	0.828255
H52	H	1.170161	-1.198745	0.717052
H53	H	1.106081	-1.120485	0.695511
H54	H	1.030556	-1.162886	0.855940
H55	H	1.094622	-1.241168	0.877467
H56	H	1.009333	-1.241149	0.791706
C57	C	1.019607	-0.551964	0.749860
C58	C	1.092576	-0.500894	0.806628
C59	C	1.135897	-0.558452	0.884888
H60	H	0.964769	-0.586432	0.796649
H61	H	1.054353	-0.591176	0.717643
H62	H	1.057830	-0.461697	0.838845
H63	H	1.147433	-0.466428	0.759869
H64	H	1.170644	-0.597664	0.852671
H65	H	1.081052	-0.592917	0.931668
H66	H	1.185418	-0.523810	0.923408
C67	C	1.582729	-0.316827	1.186942
C68	C	1.535141	-0.259014	1.238009
C69	C	1.613374	-0.201211	1.281194
H70	H	1.621336	-0.351252	1.236499
H71	H	1.629465	-0.282394	1.132027
H72	H	1.488424	-0.293444	1.292918
H73	H	1.496541	-0.224570	1.188474
H74	H	1.660110	-0.166777	1.226279
H75	H	1.651976	-0.235643	1.330747
H76	H	1.581097	-0.161972	1.315840
C77	C	1.668412	-0.906616	0.345331
C78	C	1.641127	-0.929636	0.246535
C79	C	1.717341	-0.882656	0.170144
H80	H	1.671484	-0.843743	0.342139
H81	H	1.735553	-0.922019	0.363716
H82	H	1.574005	-0.914227	0.228154
H83	H	1.638064	-0.992501	0.249693
H84	H	1.784482	-0.898059	0.188529
H85	H	1.720407	-0.819785	0.166961
H86	H	1.698844	-0.898275	0.103104
H87	H	1.359428	-0.481315	1.167670
H88	H	0.798610	-0.536471	0.728627
H89	H	0.865711	-0.387579	0.526834
C90	C	0.988480	-0.372048	0.505469
C91	C	0.915555	-0.423127	0.448669
C92	C	0.872337	-0.365581	0.370312
H93	H	0.953714	-0.332795	0.537571
H94	H	1.043404	-0.337623	0.458728
H95	H	0.860640	-0.457536	0.495403
H96	H	0.950296	-0.462377	0.416544
H97	H	0.927260	-0.331157	0.323571
H98	H	0.837575	-0.326331	0.402423
H99	H	0.822860	-0.400230	0.331757
C100	C	1.548879	-0.808246	0.464929
C101	C	1.628003	-0.777069	0.385923
C102	C	1.647073	-0.682842	0.366904
H103	H	1.485790	-0.786874	0.442482
H104	H	1.571253	-0.786846	0.528072
H105	H	1.605624	-0.798459	0.322793
H106	H	1.691107	-0.798416	0.408348
H107	H	1.669448	-0.661443	0.430047
H108	H	1.583979	-0.661479	0.344460
H109	H	1.700767	-0.661677	0.313303
H110	H	1.341461	-1.175698	0.672293
C111	C	1.629352	-1.102907	0.384933
C112	C	1.737347	-1.079912	0.403125
C113	C	1.794975	-1.126918	0.345831
H114	H	1.607319	-1.165776	0.407051
H115	H	1.617231	-1.087507	0.311600
H116	H	1.749461	-1.095317	0.476442
H117	H	1.759412	-1.017051	0.381002
H118	H	1.782854	-1.111519	0.272498
H119	H	1.772933	-1.189785	0.367953
H120	H	1.868256	-1.111317	0.358158
C121	C	1.178076	-0.961820	0.835507
C122	C	1.226407	-1.015842	0.913350
C123	C	1.150271	-1.063096	0.989671
H124	H	1.146516	-0.920380	0.867067
H125	H	1.125209	-0.998685	0.802912
H126	H	1.279255	-0.978980	0.945942
H127	H	1.257962	-1.057299	0.881822
H128	H	1.097405	-1.099961	0.957075
H129	H	1.118716	-1.021649	1.021222
H130	H	1.183051	-1.099761	1.042491
H131	H	1.232826	-0.777979	0.780445
H132	H	1.561524	-0.332665	0.966093
C133	C	1.338262	-0.497116	1.051176
C134	C	1.385894	-0.554887	1.125382
C135	C	1.307699	-0.612656	1.191687
H136	H	1.299684	-0.462664	1.086945
H137	H	1.291494	-0.531581	1.010044
H138	H	1.432643	-0.520426	1.166509
H139	H	1.424466	-0.589359	1.089644
H140	H	1.260931	-0.647121	1.150555
H141	H	1.269125	-0.578197	1.227447
H142	H	1.340005	-0.651867	1.242037
