data_functionalizedCrystal
_audit_creation_method	'MofGen! by Chris Wilmer'
_symmetry_space_group_name_H-M	'P1'
_symmetry_Int_Tables_number	1
_symmetry_cell_setting	triclinic
loop_
_symmetry_equiv_pos_as_xyz
  x,y,z
_cell_length_a	16.625548
_cell_length_b	16.625546
_cell_length_c	19.805398
_cell_angle_alpha	89.973797
_cell_angle_beta	89.985099
_cell_angle_gamma	90.023536
loop_
_atom_site_label
_atom_site_type_symbol
_atom_site_fract_x
_atom_site_fract_y
_atom_site_fract_z
Zn1	Zn	1.232635	-0.321011	-0.382701
Zn2	Zn	1.732635	0.178989	0.117299
Zn3	Zn	1.232552	-0.455844	-0.269512
Zn4	Zn	1.732552	0.044156	0.230488
Zn5	Zn	1.097811	-0.321031	-0.269527
Zn6	Zn	1.597811	0.178969	0.230473
Zn7	Zn	1.097768	-0.455807	-0.382661
Zn8	Zn	1.597768	0.044193	0.117339
O9	O	1.165191	-0.388423	-0.326100
O10	O	1.665191	0.111577	0.173900
O11	O	1.345457	-0.338903	-0.367697
O12	O	1.845457	0.161097	0.132303
O13	O	1.214661	-0.437985	-0.174798
O14	O	1.714661	0.062015	0.325202
O15	O	1.115748	-0.208196	-0.284563
O16	O	1.615748	0.291804	0.215437
O17	O	1.345395	-0.437964	-0.284537
O18	O	1.845395	0.062036	0.215463
O19	O	1.214803	-0.208181	-0.367711
O20	O	1.714803	0.291819	0.132289
O21	O	1.115667	-0.338939	-0.174809
O22	O	1.615667	0.161061	0.325191
O23	O	0.984972	-0.338903	-0.284524
O24	O	1.484972	0.161097	0.215476
O25	O	1.115675	-0.437902	-0.477383
O26	O	1.615675	0.062098	0.022617
O27	O	0.984941	-0.437923	-0.367643
O28	O	1.484941	0.062077	0.132357
O29	O	1.214762	-0.338868	-0.477412
O30	O	1.714762	0.161132	0.022588
O31	O	1.214620	-0.568671	-0.284498
O32	O	1.714620	-0.068671	0.215502
O33	O	1.115594	-0.568645	-0.367628
O34	O	1.615594	-0.068645	0.132372
C35	C	1.165115	-0.597914	-0.326072
C36	C	1.665115	-0.097914	0.173928
C37	C	1.165156	-0.687535	-0.326082
C38	C	1.665156	-0.187535	0.173918
C39	C	0.955700	-0.388412	-0.326081
C40	C	1.455700	0.111588	0.173919
C41	C	0.866079	-0.388426	-0.326089
C42	C	1.366079	0.111574	0.173911
C43	C	1.165297	-1.015711	-0.326153
C44	C	1.665297	-0.515711	0.173847
C45	C	1.165255	-0.924402	-0.326135
C46	C	1.665255	-0.424402	0.173865
C47	C	1.165226	-0.851626	-0.326117
C48	C	1.665226	-0.351626	0.173883
C49	C	1.165185	-0.760312	-0.326100
C50	C	1.665185	-0.260312	0.173900
C51	C	0.537904	-0.388432	-0.326118
C52	C	1.037904	0.111568	0.173882
C53	C	0.629212	-0.388428	-0.326108
C54	C	1.129212	0.111572	0.173892
C55	C	0.701989	-0.388429	-0.326103
C56	C	1.201989	0.111571	0.173897
C57	C	0.793303	-0.388425	-0.326094
C58	C	1.293303	0.111575	0.173906
C59	C	1.375500	-0.388435	-0.326120
C60	C	1.875500	0.111565	0.173880
C61	C	1.465121	-0.388441	-0.326128
C62	C	1.965121	0.111559	0.173872
C63	C	1.165223	-0.388379	-0.502643
C64	C	1.665223	0.111621	-0.002643
C65	C	1.165236	-0.388360	-0.577875
C66	C	1.665236	0.111640	-0.077875
C67	C	1.165290	-0.178114	-0.326144
C68	C	1.665290	0.321886	0.173856
C69	C	1.165332	-0.088493	-0.326162
C70	C	1.665332	0.411507	0.173838
C71	C	1.216928	-0.336650	-1.039683
C72	C	1.716928	0.163350	-0.539683
C73	C	1.216915	-0.336674	-0.968994
C74	C	1.716915	0.163326	-0.468994
C75	C	1.165319	-0.388247	-0.933637
C76	C	1.665319	0.111753	-0.433637
C77	C	1.113738	-0.439805	-0.968972
C78	C	1.613738	0.060195	-0.468972
C79	C	1.113755	-0.439784	-1.039659
C80	C	1.613755	0.060216	-0.539659
C81	C	1.113668	-0.439893	-0.683898
C82	C	1.613668	0.060107	-0.183898
C83	C	1.113653	-0.439908	-0.613206
C84	C	1.613653	0.060092	-0.113206
C85	C	1.216828	-0.336783	-0.613234
C86	C	1.716828	0.163217	-0.113234
C87	C	1.216845	-0.336762	-0.683921
C88	C	1.716845	0.163238	-0.183921
C89	C	1.165267	-0.388322	-0.719250
C90	C	1.665267	0.111678	-0.219250
C91	C	1.165283	-0.388296	-0.795898
C92	C	1.665283	0.111704	-0.295898
C93	C	1.165299	-0.388270	-0.856990
C94	C	1.665299	0.111730	-0.356990
C95	C	1.165206	-0.388410	-0.150244
C96	C	1.665206	0.111590	0.349756
C97	C	1.165349	-0.388202	-0.075013
C98	C	1.665349	0.111798	0.424987
H99	H	1.258918	-0.294698	-0.940232
H100	H	1.758918	0.205302	-0.440232
C101	C	1.325406	-0.325425	-1.119188
C102	C	1.825406	0.174575	-0.619188
C103	C	1.273643	-0.279957	-1.078547
C104	C	1.773643	0.220043	-0.578547
H105	H	1.360417	-0.290424	-1.143182
H106	H	1.860417	0.209576	-0.643182
H107	H	1.356224	-0.360557	-1.091608
H108	H	1.856224	0.139443	-0.591608
H109	H	1.294680	-0.356120	-1.150344
H110	H	1.794680	0.143880	-0.650344
H111	H	1.304369	-0.249266	-1.047387
H112	H	1.804369	0.250734	-0.547387
H113	H	1.242822	-0.244811	-1.106129
H114	H	1.742822	0.255189	-0.606129
H115	H	1.258857	-0.294763	-0.712705
H116	H	1.758857	0.205237	-0.212705
H117	H	1.258828	-0.294802	-0.584461
H118	H	1.758828	0.205198	-0.084461
H119	H	1.071631	-0.481905	-0.584420
H120	H	1.571631	0.018095	-0.084420
H121	H	1.071669	-0.481875	-0.712655
H122	H	1.571669	0.018125	-0.212655
C123	C	1.067891	-0.485624	-0.860603
C124	C	1.567891	0.014376	-0.360603
C125	C	1.057020	-0.496494	-0.930109
C126	C	1.557020	0.003506	-0.430109
H127	H	1.032869	-0.520618	-0.836613
H128	H	1.532869	-0.020618	-0.336613
H129	H	1.122051	-0.497433	-0.849021
H130	H	1.622051	0.002567	-0.349021
H131	H	1.056112	-0.431448	-0.849036
H132	H	1.556112	0.068552	-0.349036
H133	H	1.068804	-0.550669	-0.941676
H134	H	1.568804	-0.050669	-0.441676
H135	H	1.002848	-0.484691	-0.941695
H136	H	1.502848	0.015309	-0.441695
H137	H	1.071755	-0.481764	-1.068424
H138	H	1.571755	0.018236	-0.568424
