data_functionalizedCrystal
_audit_creation_method	'MofGen! by Chris Wilmer'
_symmetry_space_group_name_H-M	'P1'
_symmetry_Int_Tables_number	1
_symmetry_cell_setting	triclinic
loop_
_symmetry_equiv_pos_as_xyz
  x,y,z
_cell_length_a	21.395362
_cell_length_b	15.299816
_cell_length_c	21.395355
_cell_angle_alpha	99.667094
_cell_angle_beta	89.956060
_cell_angle_gamma	80.369816
loop_
_atom_site_label
_atom_site_type_symbol
_atom_site_fract_x
_atom_site_fract_y
_atom_site_fract_z
Zn1	Zn	1.001015	-0.358779	-0.397782
Zn2	Zn	1.501015	0.141221	0.102218
Zn3	Zn	1.019056	-0.509576	-0.311160
Zn4	Zn	1.519056	-0.009576	0.188840
Zn5	Zn	0.896235	-0.358821	-0.292988
Zn6	Zn	1.396235	0.141179	0.207012
Zn7	Zn	0.914340	-0.509595	-0.415867
Zn8	Zn	1.414340	-0.009595	0.084133
O9	O	0.957662	-0.434193	-0.354450
O10	O	1.457662	0.065807	0.145550
O11	O	1.091083	-0.378757	-0.386328
O12	O	1.591083	0.121243	0.113672
O13	O	1.002737	-0.489588	-0.221073
O14	O	1.502737	0.010412	0.278927
O15	O	0.895007	-0.232606	-0.291716
O16	O	1.395007	0.267394	0.208284
O17	O	1.104338	-0.489547	-0.322687
O18	O	1.604338	0.010453	0.177313
O19	O	0.971989	-0.232576	-0.368707
O20	O	1.471989	0.267424	0.131293
O21	O	0.912501	-0.378829	-0.207722
O22	O	1.412501	0.121171	0.292278
O23	O	0.810962	-0.378847	-0.309252
O24	O	1.310962	0.121153	0.190748
O25	O	0.925865	-0.489579	-0.501145
O26	O	1.425865	0.010421	-0.001145
O27	O	0.824264	-0.489620	-0.399531
O28	O	1.324264	0.010380	0.100469
O29	O	0.989544	-0.378775	-0.487858
O30	O	1.489544	0.121225	0.012142
O31	O	1.020293	-0.635788	-0.340224
O32	O	1.520293	-0.135788	0.159776
O33	O	0.943358	-0.635801	-0.417152
O34	O	1.443358	-0.135801	0.082848
C35	C	0.794880	-0.434240	-0.354383
C36	C	1.294880	0.065760	0.145617
C37	C	0.725244	-0.434283	-0.354371
C38	C	1.225244	0.065717	0.145629
C39	C	0.699482	-0.492039	-0.401329
C40	C	1.199482	0.007961	0.098671
C41	C	0.634044	-0.492016	-0.401354
C42	C	1.134044	0.007984	0.098646
C43	C	0.594371	-0.434248	-0.354412
C44	C	1.094371	0.065752	0.145588
C45	C	0.620139	-0.376481	-0.307450
C46	C	1.120139	0.123519	0.192550
C47	C	0.685575	-0.376498	-0.307430
C48	C	1.185575	0.123502	0.192570
C49	C	0.489772	-0.426982	-0.297132
C50	C	0.989772	0.073018	0.202868
C51	C	0.424338	-0.426971	-0.297152
C52	C	0.924338	0.073029	0.202848
C53	C	0.392543	-0.434189	-0.354474
C54	C	0.892543	0.065811	0.145526
C55	C	0.426193	-0.441437	-0.411780
C56	C	0.926193	0.058563	0.088220
C57	C	0.491629	-0.441454	-0.411760
C58	C	0.991629	0.058546	0.088240
C59	C	0.523416	-0.434222	-0.354429
C60	C	1.023416	0.065778	0.145571
C61	C	0.295827	-0.491924	-0.401462
C62	C	0.795827	0.008076	0.098538
C63	C	0.230387	-0.491896	-0.401488
C64	C	0.730387	0.008104	0.098512
C65	C	0.216484	-0.376365	-0.307579
C66	C	0.716484	0.123635	0.192421
C67	C	0.281922	-0.376388	-0.307559
C68	C	0.781922	0.123612	0.192441
C69	C	0.321590	-0.434173	-0.354500
C70	C	0.821590	0.065827	0.145500
C71	C	0.985765	-0.668519	-0.382636
C72	C	1.485765	-0.168519	0.117364
C73	C	0.997845	-0.768765	-0.394715
C74	C	1.497845	-0.268765	0.105285
C75	C	0.871735	-1.051704	-0.268331
C76	C	1.371735	-0.551704	0.231669
C77	C	0.860382	-0.957518	-0.256984
C78	C	1.360382	-0.457518	0.243016
C79	C	0.894747	-0.910325	-0.291415
C80	C	1.394747	-0.410325	0.208585
C81	C	0.940466	-0.957327	-0.337197
C82	C	1.440466	-0.457327	0.162803
C83	C	0.951817	-1.051522	-0.348549
C84	C	1.451817	-0.551522	0.151451
C85	C	0.974829	-0.910143	-0.371633
C86	C	1.474829	-0.410143	0.128367
C87	C	1.020548	-0.957146	-0.417414
C88	C	1.520548	-0.457146	0.082586
C89	C	1.031897	-1.051331	-0.428764
C90	C	1.531897	-0.551331	0.071236
C91	C	0.997532	-1.098524	-0.394332
C92	C	1.497532	-0.598524	0.105668
C93	C	0.963478	-0.815948	-0.360281
C94	C	1.463478	-0.315948	0.139719
C95	C	1.043560	-0.815767	-0.440498
C96	C	1.543560	-0.315767	0.059502
C97	C	1.054913	-0.909953	-0.451846
C98	C	1.554913	-0.409953	0.048154
C99	C	1.121079	-0.434146	-0.354517
C100	C	1.621079	0.065854	0.145483
C101	C	1.190718	-0.434125	-0.354546
C102	C	1.690718	0.065875	0.145454
C103	C	0.957712	-0.434174	-0.517871
C104	C	1.457712	0.065826	-0.017871
C105	C	0.957733	-0.434167	-0.587511
C106	C	1.457733	0.065833	-0.087511
C107	C	0.929466	-0.198952	-0.326167
C108	C	1.429466	0.301048	0.173833
C109	C	0.917450	-0.098706	-0.314115
C110	C	1.417450	0.401294	0.185885
C111	C	0.990889	-0.376469	-0.613306
C112	C	1.490889	0.123531	-0.113306
C113	C	0.990883	-0.376430	-0.678737
C114	C	1.490883	0.123570	-0.178737
C115	C	0.957730	-0.434105	-0.718372
C116	C	1.457730	0.065895	-0.218372
C117	C	0.924567	-0.491807	-0.692569
C118	C	1.424567	0.008193	-0.192569
C119	C	0.924568	-0.491838	-0.627139
C120	C	1.424568	0.008162	-0.127139
C121	C	0.962523	-0.515315	-0.831813
C122	C	1.462523	-0.015315	-0.331813
C123	C	0.962526	-0.515286	-0.897243
C124	C	1.462526	-0.015286	-0.397243
C125	C	0.957723	-0.434010	-0.920181
C126	C	1.457723	0.065990	-0.420181
C127	C	0.952929	-0.352761	-0.877682
C128	C	1.452929	0.147239	-0.377682
C129	C	0.952930	-0.352792	-0.812252
C130	C	1.452930	0.147208	-0.312252
C131	C	0.957725	-0.434078	-0.789321
C132	C	1.457725	0.065922	-0.289321
C133	C	0.990874	-0.376265	-1.016924
C134	C	1.490874	0.123735	-0.516924
C135	C	0.990864	-0.376225	-1.082355
C136	C	1.490864	0.123775	-0.582355
C137	C	0.924552	-0.491610	-1.096187
C138	C	1.424552	0.008390	-0.596187
C139	C	0.924558	-0.491642	-1.030756
C140	C	1.424558	0.008358	-0.530756
C141	C	0.957722	-0.433971	-0.991128
C142	C	1.457722	0.066029	-0.491128
C143	C	0.957640	-0.434146	-0.191656
C144	C	1.457640	0.065854	0.308344
C145	C	0.957710	-0.433900	-0.121986
C146	C	1.457710	0.066100	0.378014
H147	H	0.731777	-0.539090	-0.439553
H148	H	1.231777	-0.039090	0.060447
H149	H	0.926253	-0.777687	-0.323005
H150	H	1.426253	-0.277687	0.176995
H151	H	0.949019	-0.286579	-0.896356
H152	H	1.449019	0.213421	-0.396356
H153	H	0.949025	-0.286636	-0.777651
H154	H	1.449025	0.213364	-0.277651
C155	C	1.081365	-0.763859	-0.478375
C156	C	1.581365	-0.263859	0.021625
N157	N	1.109837	-0.724756	-0.506901
N158	N	1.609837	-0.224756	-0.006901
C159	C	0.310261	-0.312859	-0.255897
C160	C	0.810261	0.187141	0.244103
N161	N	0.331605	-0.265006	-0.216983
N162	N	0.831605	0.234994	0.283017
H163	H	0.823157	-0.919252	-0.219710
H164	H	1.323157	-0.419252	0.280290
C165	C	1.027363	-0.312960	-0.707119
C166	C	1.527363	0.187040	-0.207119
N167	N	1.054842	-0.265158	-0.728494
N168	N	1.554842	0.234842	-0.228494
H169	H	0.897571	-0.538764	-0.724844
H170	H	1.397571	-0.038764	-0.224844
C171	C	1.027349	-0.312818	-0.973330
C172	C	1.527349	0.187182	-0.473330
N173	N	1.054821	-0.265028	-0.940496
N174	N	1.554821	0.234972	-0.440496
C175	C	1.027339	-0.312747	-1.110729
C176	C	1.527339	0.187253	-0.610729
N177	N	1.054813	-0.264935	-1.132100
N178	N	1.554813	0.235065	-0.632100
H179	H	0.843757	-1.090137	-0.240305
H180	H	1.343757	-0.590137	0.259695
H181	H	0.400307	-0.447313	-0.458457
H182	H	0.900307	0.052687	0.041543
H183	H	1.006776	-1.175218	-0.403567
H184	H	1.506776	-0.675218	0.096433
H185	H	0.613065	-0.539048	-0.439595
H186	H	1.113065	-0.039048	0.060405
C187	C	0.882260	-0.806717	-0.278928
C188	C	1.382260	-0.306717	0.221072
N189	N	0.872855	-0.728676	-0.269519
N190	N	1.372855	-0.228676	0.230481
H191	H	0.396946	-0.421075	-0.250490
H192	H	0.896946	0.078925	0.249510
C193	C	0.888084	-0.555055	-1.139782
C194	C	1.388084	-0.055055	-0.639782
N195	N	0.860614	-0.602843	-1.172621
N196	N	1.360614	-0.102843	-0.672621
H197	H	0.328126	-0.538971	-0.439687
H198	H	0.828126	-0.038971	0.060313
H199	H	0.519024	-0.447353	-0.458420
H200	H	1.019024	0.052647	0.041580
H201	H	1.069122	-1.089598	-0.466045
H202	H	1.569122	-0.589598	0.033955
C203	C	0.888094	-0.555315	-0.598764
C204	C	1.388094	-0.055315	-0.098764
N205	N	0.860622	-0.603129	-0.577392
N206	N	1.360622	-0.103129	-0.077392
H207	H	0.587833	-0.329443	-0.269231
H208	H	1.087833	0.170557	0.230769
C209	C	1.105201	-0.961667	-0.502207
C210	C	1.605201	-0.461667	-0.002207
N211	N	1.143077	-1.000620	-0.540140
N212	N	1.643077	-0.500620	-0.040140
H213	H	1.017893	-0.329507	-0.581045
H214	H	1.517893	0.170493	-0.081045
C215	C	0.888086	-0.555120	-1.002381
C216	C	1.388086	-0.055120	-0.502381
N217	N	0.860612	-0.602931	-0.981009
N218	N	1.360612	-0.102931	-0.481009
H219	H	0.209414	-0.538926	-0.439730
H220	H	0.709414	-0.038926	0.060270
H221	H	0.966433	-0.581443	-0.931841
H222	H	1.466433	-0.081443	-0.431841
C223	C	0.172847	-0.312817	-0.255943
C224	C	0.672847	0.187183	0.244057
N225	N	0.139976	-0.264951	-0.217049
N226	N	0.639976	0.235049	0.282951
C227	C	0.967819	-0.604732	-0.806589
C228	C	1.467819	-0.104732	-0.306589
N229	N	0.971813	-0.672079	-0.787591
N230	N	1.471813	-0.172079	-0.287591
H231	H	0.515654	-0.421101	-0.250450
H232	H	1.015654	0.078899	0.249550
C233	C	0.713913	-0.312964	-0.255769
C234	C	1.213913	0.187036	0.244231
N235	N	0.735259	-0.265111	-0.216855
N236	N	1.235259	0.234889	0.283145
