data_functionalizedCrystal
_audit_creation_method	'MofGen! by Chris Wilmer'
_symmetry_space_group_name_H-M	'P1'
_symmetry_Int_Tables_number	1
_symmetry_cell_setting	triclinic
loop_
_symmetry_equiv_pos_as_xyz
  x,y,z
_cell_length_a	19.188930
_cell_length_b	14.519709
_cell_length_c	18.266242
_cell_angle_alpha	90.001403
_cell_angle_beta	90.013084
_cell_angle_gamma	83.412464
loop_
_atom_site_label
_atom_site_type_symbol
_atom_site_fract_x
_atom_site_fract_y
_atom_site_fract_z
O1	O	0.926549	0.115140	0.061107
O2	O	1.426549	0.615140	0.561107
O3	O	0.723293	0.130639	0.061055
O4	O	1.223293	0.630639	0.561055
O5	O	0.830310	-0.011382	0.061089
O6	O	1.330310	0.488618	0.561089
O7	O	0.819532	0.257162	0.061073
O8	O	1.319532	0.757162	0.561073
O9	O	0.830312	-0.011396	-0.060673
O10	O	1.330312	0.488604	0.439327
O11	O	0.723295	0.130626	-0.060707
O12	O	1.223295	0.630626	0.439293
O13	O	0.926551	0.115126	-0.060655
O14	O	1.426551	0.615126	0.439345
Zn15	Zn	0.824924	0.122874	-0.080014
Zn16	Zn	1.324924	0.622874	0.419986
Zn17	Zn	0.824921	0.122892	0.080413
Zn18	Zn	1.324921	0.622892	0.580413
O19	O	0.819534	0.257148	-0.060689
O20	O	1.319534	0.757148	0.439311
C21	C	0.697281	0.130131	0.000168
C22	C	1.197281	0.630131	0.500168
C23	C	0.619771	0.128624	0.000148
C24	C	1.119771	0.628624	0.500148
C25	C	0.829809	-0.045746	0.000211
C26	C	1.329809	0.454254	0.500211
C27	C	0.828304	-0.148118	0.000220
C28	C	1.328304	0.351882	0.500220
N29	N	0.824931	0.122861	-0.189500
N30	N	1.324931	0.622861	0.310500
C31	C	0.575144	0.211957	0.000155
C32	C	1.075144	0.711957	0.500155
C33	C	0.502315	0.210542	0.000163
C34	C	1.002315	0.710542	0.500163
C35	C	0.474117	0.125788	0.000179
C36	C	0.974117	0.625788	0.500179
C37	C	0.518754	0.042444	0.000169
C38	C	1.018754	0.542444	0.500169
C39	C	0.591581	0.043861	0.000153
C40	C	1.091581	0.543861	0.500153
N41	N	0.365905	0.061009	0.041654
N42	N	0.865905	0.561009	0.541654
N43	N	0.296722	0.059668	0.041670
N44	N	0.796722	0.559668	0.541670
C45	C	0.254693	0.121511	0.000224
C46	C	0.754693	0.621511	0.500224
N47	N	0.284460	0.184760	-0.041229
N48	N	0.784460	0.684760	0.458771
N49	N	0.353649	0.186104	-0.041242
N50	N	0.853649	0.686104	0.458758
C51	C	0.395149	0.124241	0.000196
C52	C	0.895149	0.624241	0.500196
C53	C	0.131096	0.203315	0.000239
C54	C	0.631096	0.703315	0.500239
C55	C	0.058266	0.201896	0.000242
C56	C	0.558266	0.701896	0.500242
C57	C	0.074706	0.033796	0.000255
C58	C	0.574706	0.533796	0.500255
C59	C	0.147535	0.035217	0.000244
C60	C	0.647535	0.535217	0.500244
C61	C	0.175725	0.119980	0.000240
C62	C	0.675725	0.619980	0.500240
C63	C	0.952563	0.115635	0.000234
C64	C	1.452563	0.615635	0.500234
C65	C	1.030073	0.117142	0.000257
C66	C	1.530073	0.617142	0.500257
C67	C	0.820035	0.291511	0.000190
C68	C	1.320035	0.791511	0.500190
C69	C	0.821541	0.393883	0.000186
C70	C	1.321541	0.893883	0.500186
C71	C	0.827082	0.768745	0.000216
C72	C	1.327082	1.268745	0.500216
C73	C	0.825543	0.664446	0.000207
C74	C	1.325543	1.164446	0.500207
C75	C	0.824311	0.581317	0.000200
C76	C	1.324311	1.081317	0.500200
C77	C	0.822772	0.477012	0.000193
C78	C	1.322772	0.977012	0.500193
N79	N	0.824919	0.122897	0.189900
N80	N	1.324919	0.622897	0.689900
C81	C	0.872391	0.060133	0.228224
C82	C	1.372391	0.560133	0.728224
C83	C	0.872397	0.060131	0.304869
C84	C	1.372397	0.560131	0.804869
C85	C	0.824919	0.122885	0.343187
C86	C	1.324919	0.622885	0.843187
C87	C	0.777444	0.185661	0.304854
C88	C	1.277444	0.685661	0.804854
C89	C	0.777443	0.185668	0.228210
C90	C	1.277443	0.685668	0.728210
N91	N	0.763154	0.134675	0.463510
N92	N	1.263154	0.634675	0.963510
N93	N	0.763157	0.134663	0.536318
N94	N	1.263157	0.634663	1.036318
C95	C	0.824918	0.122871	0.574109
C96	C	1.324918	0.622871	1.074109
N97	N	0.886679	0.111072	0.536342
N98	N	1.386679	0.611072	1.036342
N99	N	0.886676	0.111079	0.463527
N100	N	1.386676	0.611079	0.963527
C101	C	0.824915	0.122885	0.426294
C102	C	1.324915	0.622885	0.926294
C103	C	0.872401	0.060101	0.695540
C104	C	1.372401	0.560101	1.195540
C105	C	0.872408	0.060105	0.772187
C106	C	1.372408	0.560105	1.272187
C107	C	0.777448	0.185631	0.772170
C108	C	1.277448	0.685631	1.272170
C109	C	0.777447	0.185631	0.695525
C110	C	1.277447	0.685631	1.195525
C111	C	0.824923	0.122861	0.657215
C112	C	1.324923	0.622861	1.157215
H113	H	0.465973	0.278404	0.000166
H114	H	0.965973	0.778404	0.500166
H115	H	0.911057	0.009018	0.336078
H116	H	1.411057	0.509018	0.836078
H117	H	0.738785	0.236780	0.197006
H118	H	1.238785	0.736780	0.697006
H119	H	0.738787	0.236758	0.336056
H120	H	1.238787	0.736758	0.836056
H121	H	0.021931	0.269760	0.000243
H122	H	0.521931	0.769760	0.500243
H123	H	0.598091	0.280978	0.000152
H124	H	1.098091	0.780978	0.500152
C125	C	0.924630	-0.008941	0.814343
C126	C	1.424630	0.491059	1.314343
H127	H	0.952898	-0.046326	0.780547
H128	H	1.452898	0.453674	1.280547
H129	H	0.953683	0.024212	0.844250
H130	H	1.453683	0.524212	1.344250
H131	H	0.899522	-0.047320	0.844233
H132	H	1.399522	0.452680	1.344233
C133	C	0.924625	-0.008937	0.653396
C134	C	1.424625	0.491063	1.153396
H135	H	0.952906	-0.046311	0.687201
H136	H	1.452906	0.453689	1.187201
H137	H	0.899523	-0.047315	0.623491
H138	H	1.399523	0.452685	1.123491
H139	H	0.953675	0.024229	0.623505
H140	H	1.453675	0.524229	1.123505
H141	H	0.051748	-0.035213	0.000314
H142	H	0.551748	0.464787	0.500314
H143	H	0.627917	-0.024001	0.000148
H144	H	1.127917	0.475999	0.500148
C145	C	0.725230	0.254669	0.814311
C146	C	1.225230	0.754669	1.314311
H147	H	0.732028	0.245677	0.865446
H148	H	1.232028	0.745677	1.365446
H149	H	0.732802	0.316224	0.801751
H150	H	1.232802	0.816224	1.301751
H151	H	0.678643	0.244690	0.801743
H152	H	1.178643	0.744690	1.301743
C153	C	0.162109	0.296548	0.000226
C154	C	0.662109	0.796548	0.500226
H155	H	0.125096	0.345978	0.000221
H156	H	0.625096	0.845978	0.500221
H157	H	0.190191	0.300601	0.042682
H158	H	0.690191	0.800601	0.542682
H159	H	0.190162	0.300589	-0.042245
H160	H	0.690162	0.800589	0.457755
H161	H	0.183871	-0.032642	0.000243
H162	H	0.683871	0.467358	0.500243
C163	C	0.924621	-0.008900	0.186087
C164	C	1.424621	0.491100	0.686087
H165	H	0.952900	-0.046274	0.219893
H166	H	1.452900	0.453726	0.719893
H167	H	0.899526	-0.047278	0.156175
H168	H	1.399526	0.452722	0.656175
H169	H	0.953673	0.024274	0.156203
H170	H	1.453673	0.524274	0.656203
H171	H	0.738788	0.236737	0.664320
H172	H	1.238788	0.736737	1.164320
H173	H	0.495790	-0.026564	0.000192
H174	H	0.995790	0.473436	0.500192
