data_functionalizedCrystal
_audit_creation_method	'MofGen! by Chris Wilmer'
_symmetry_space_group_name_H-M	'P1'
_symmetry_Int_Tables_number	1
_symmetry_cell_setting	triclinic
loop_
_symmetry_equiv_pos_as_xyz
  x,y,z
_cell_length_a	12.759401
_cell_length_b	12.645330
_cell_length_c	12.645323
_cell_angle_alpha	89.974055
_cell_angle_beta	90.018411
_cell_angle_gamma	89.973653
loop_
_atom_site_label
_atom_site_type_symbol
_atom_site_fract_x
_atom_site_fract_y
_atom_site_fract_z
Zn1	Zn	1.606171	0.422006	0.599357
Zn2	Zn	1.606030	0.599300	0.422100
Zn3	Zn	1.430473	0.422051	0.422112
Zn4	Zn	1.430426	0.599228	0.599326
O5	O	1.518275	0.510646	0.510724
O6	O	1.753173	0.445535	0.575852
O7	O	1.582703	0.575837	0.273754
O8	O	1.453858	0.273698	0.445642
O9	O	1.753070	0.575792	0.445622
O10	O	1.582942	0.273665	0.575863
O11	O	1.453722	0.445613	0.273763
O12	O	1.283446	0.445543	0.445612
O13	O	1.453778	0.575670	0.747677
O14	O	1.283411	0.575714	0.575810
O15	O	1.582897	0.445466	0.747700
O16	O	1.582657	0.747638	0.445591
O17	O	1.453642	0.747585	0.575798
C18	C	1.245308	0.510627	0.510709
C19	C	1.128531	0.510644	0.510728
C20	C	1.073678	0.578533	0.578411
C21	C	0.963954	0.578546	0.578422
C22	C	0.963945	0.442779	0.443060
C23	C	1.073667	0.442761	0.443055
C24	C	1.128542	0.646415	0.646084
C25	C	1.073690	0.714310	0.713771
C26	C	0.963966	0.714324	0.713782
C27	C	0.909094	0.646442	0.646107
C28	C	1.518158	0.786076	0.510713
C29	C	1.518204	0.903906	0.510744
C30	C	1.437350	1.071481	0.592913
C31	C	1.436955	0.948922	0.592647
C32	C	1.488224	0.948504	0.399025
C33	C	1.487713	1.071103	0.399525
C34	C	1.629476	1.070994	0.539395
C35	C	1.628812	0.948387	0.541836
C36	C	1.792308	0.510667	0.510739
C37	C	1.909085	0.510675	0.510745
C38	C	1.518348	0.510555	0.787229
C39	C	1.518379	0.510516	0.905059
C40	C	1.518384	1.234141	0.510762
C41	C	1.518336	1.116311	0.510788
C42	C	1.518262	0.510661	0.235294
C43	C	1.518435	0.510401	0.117465
C44	C	1.437155	0.592411	0.949927
C45	C	1.436870	0.592103	1.072487
C46	C	1.488794	0.398618	1.072962
C47	C	1.488172	0.399158	0.950363
C48	C	1.629461	0.539403	0.950244
C49	C	1.628898	0.541802	1.072850
H50	H	1.217885	0.646414	0.646080
N51	N	1.129700	0.373432	0.373901
N52	N	1.190888	0.410636	0.306281
H53	H	1.230461	0.361668	0.257440
N54	N	1.129750	0.783628	0.782900
N55	N	1.227715	0.783607	0.782884
H56	H	1.267308	0.832563	0.831709
H57	H	1.545349	0.919348	0.336162
H58	H	0.919308	0.769599	0.768904
H59	H	0.919260	0.387514	0.387961
H60	H	1.455425	0.675582	0.920451
H61	H	1.651254	0.624071	1.101934
N62	N	1.559184	0.319984	0.913104
N63	N	1.635254	0.345568	0.856344
H64	H	1.685402	0.289648	0.830033
H65	H	0.819749	0.646449	0.646131
N66	N	1.460488	0.911099	0.696571
N67	N	1.477317	0.975247	0.769805
H68	H	1.493934	0.948540	0.843208
H69	H	1.455927	1.100890	0.676025
N70	N	1.334639	1.110257	0.569439
N71	N	1.320825	1.170764	0.492489
H72	H	1.248287	1.198153	0.475907
N73	N	1.386333	0.368482	0.914483
N74	N	1.350187	0.279952	0.939014
H75	H	1.278261	0.258286	0.913678
H76	H	1.546157	0.335898	1.102094
N77	N	1.708498	0.909938	0.472252
N78	N	1.684960	0.848859	0.398279
H79	H	1.741235	0.821708	0.349124
H80	H	1.692639	0.486504	1.103471
N81	N	1.388088	0.367391	1.111489
N82	N	1.337974	0.427269	1.171708
H83	H	1.266848	0.405221	1.198919
H84	H	1.354570	0.919688	0.573693
N85	N	1.385805	1.107126	0.369121
N86	N	1.375064	1.163841	0.288858
H87	H	1.303090	1.189281	0.267385
N88	N	1.558462	1.108330	0.320123
N89	N	1.525386	1.165027	0.246300
H90	H	1.575342	1.191321	0.190217
N91	N	1.387380	0.910098	0.368078
N92	N	1.337416	0.849895	0.428108
H93	H	1.266193	0.822769	0.406257
H94	H	1.656813	1.101835	0.619477
H95	H	1.355314	0.573495	0.919119
H96	H	1.651420	0.919234	0.624056
N97	N	1.705158	1.107359	0.464348
N98	N	1.677508	1.166393	0.390088
H99	H	1.730951	1.192080	0.337081
N100	N	1.460034	0.696088	1.110226
N101	N	1.476525	0.769396	1.046019
H102	H	1.492862	0.842846	1.072666
H103	H	1.354575	0.572923	1.101817
N104	N	1.663377	0.639964	0.911448
N105	N	1.606082	0.691567	0.850017
H106	H	1.630025	0.762591	0.822612
H107	H	1.689973	0.479751	0.921235
