data_functionalizedCrystal
_audit_creation_method	'MofGen! by Chris Wilmer'
_symmetry_space_group_name_H-M	'P1'
_symmetry_Int_Tables_number	1
_symmetry_cell_setting	triclinic
loop_
_symmetry_equiv_pos_as_xyz
  x,y,z
_cell_length_a	21.606444
_cell_length_b	20.919309
_cell_length_c	21.606444
_cell_angle_alpha	90.000567
_cell_angle_beta	59.991153
_cell_angle_gamma	57.444550
loop_
_atom_site_label
_atom_site_type_symbol
_atom_site_fract_x
_atom_site_fract_y
_atom_site_fract_z
Zr1	Zr	0.629150	0.641765	-0.057159
O2	O	0.766301	0.535389	-0.160015
O3	O	0.497561	0.674374	-0.025614
O4	O	0.626697	0.674368	-0.154758
O5	O	0.637160	0.535401	0.070983
O6	O	0.618436	0.783998	-0.150628
O7	O	0.637165	0.535395	-0.030871
O8	O	0.387435	0.784009	0.080388
O9	O	0.868161	0.535389	-0.160032
O10	O	0.543460	0.770098	-0.009096
O11	O	0.549622	0.688287	0.063835
O12	O	0.701663	0.688279	-0.088216
O13	O	0.707825	0.606468	-0.015285
Zr14	Zr	0.615966	0.816621	0.111873
Zr15	Zr	0.615974	0.816612	-0.050572
Zr16	Zr	0.629142	0.641774	0.105287
Zr17	Zr	0.791605	0.641766	-0.057186
Zr18	Zr	0.453511	0.816620	0.111901
O19	O	0.747555	0.784011	0.080328
O20	O	0.747566	0.783999	-0.150650
O21	O	0.766290	0.535401	0.070962
O22	O	0.478815	0.922997	0.214729
O23	O	0.478826	0.922984	-0.016248
O24	O	0.497550	0.674387	0.205364
O25	O	0.607956	0.922985	-0.016269
O26	O	0.618419	0.784018	0.209472
O27	O	0.626680	0.674388	0.205342
O28	O	0.607951	0.922990	0.085585
O29	O	0.857688	0.674369	-0.154797
O30	O	0.387428	0.784016	0.209511
O31	O	0.376955	0.922996	0.214746
O32	O	0.376961	0.922989	0.085623
O33	O	0.868155	0.535396	-0.030909
O34	O	0.857682	0.674376	-0.025674
O35	O	0.543453	0.770106	0.142930
O36	O	0.537291	0.851918	0.069999
O37	O	0.695494	0.770099	-0.009121
O38	O	0.701656	0.688288	0.063810
C39	C	0.419351	0.729192	0.027391
C40	C	0.350385	0.729191	0.027403
C41	C	0.378674	0.668790	-0.031001
C42	C	0.313885	0.668792	-0.031017
C43	C	0.220807	0.729193	0.027375
C44	C	0.192518	0.789600	0.085782
C45	C	0.257306	0.789601	0.085794
C46	C	-0.068769	0.789600	0.085734
C47	C	-0.133557	0.789593	0.085719
C48	C	-0.012191	0.668791	-0.031076
C49	C	0.052598	0.668792	-0.031064
C50	C	0.024303	0.729201	0.027340
C51	C	0.094556	0.729199	0.027355
C52	C	0.150555	0.729192	0.027363
C53	C	0.639040	0.510486	0.019118
C54	C	0.644633	0.436259	0.016322
C55	C	0.564683	0.444093	0.056304
C56	C	0.569944	0.374346	0.053675
C57	C	0.655157	0.296766	0.011058
C58	C	0.735113	0.288933	-0.028925
C59	C	0.729851	0.358679	-0.026291
C60	C	0.675177	0.084040	0.001043
C61	C	0.680433	0.014292	-0.001590
C62	C	0.515263	0.099711	0.081012
C63	C	0.510009	0.169454	0.083638
C64	C	0.589965	0.161616	0.043658
C65	C	0.660537	0.225472	0.008368
C66	C	0.584584	0.232909	0.046353
C67	C	0.825765	0.729194	0.027323
C68	C	0.894731	0.729194	0.027312
C69	C	0.622568	0.729182	-0.175838
C70	C	0.622571	0.729178	-0.244801
C71	C	0.606076	0.947900	0.035596
C72	C	0.600483	1.022127	0.038393
C73	C	0.705151	0.686469	-0.318499
C74	C	0.705148	0.686476	-0.383294
C75	C	0.622564	0.729188	-0.374388
C76	C	0.539978	0.771902	-0.300682
C77	C	0.539981	0.771899	-0.235889
C78	C	0.539962	0.771915	-0.561984
C79	C	0.539965	0.771912	-0.626785
C80	C	0.705128	0.686492	-0.709389
C81	C	0.705132	0.686489	-0.644596
C82	C	0.622546	0.729206	-0.570896
C83	C	0.622550	0.729200	-0.500638
C84	C	0.622560	0.729190	-0.444644
C85	C	0.622548	0.729204	0.230552
C86	C	0.622545	0.729208	0.299515
C87	C	0.402870	0.947898	0.035630
C88	C	0.328310	1.022125	0.038438
C89	C	0.419342	0.729203	0.230586
C90	C	0.350372	0.729206	0.299560
C91	C	0.402860	0.947910	0.238825
C92	C	0.328297	1.022140	0.310596
C93	C	0.842256	0.510476	-0.184111
C94	C	0.916819	0.436246	-0.255882
C95	C	0.842246	0.510487	0.019084
C96	C	0.916807	0.436260	0.016276
C97	C	0.825774	0.729183	-0.175872
C98	C	0.894744	0.729180	-0.244846
C99	C	0.296516	1.014274	-0.001537
C100	C	0.226468	1.084011	0.001086
C101	C	0.188211	1.161599	0.043689
C102	C	0.220011	1.169448	0.083665
C103	C	0.290062	1.099712	0.081037
C104	C	0.314763	0.771917	0.373245
C105	C	0.249968	0.771917	0.438059
C106	C	0.220779	0.729210	0.429188
C107	C	0.256394	0.686495	0.355495
C108	C	0.321193	0.686490	0.290682
C109	C	0.290064	1.099711	0.306231
C110	C	0.220012	1.169465	0.373661
C111	C	0.188190	1.161646	0.445455
C112	C	0.226430	1.084067	0.449817
C113	C	0.296485	1.014314	0.382388
C114	C	0.955060	0.358674	-0.251517
C115	C	1.025132	0.288920	-0.318947
C116	C	1.056957	0.296739	-0.390741
C117	C	1.018713	0.374319	-0.395103
C118	C	0.948647	0.444071	-0.327674
C119	C	0.948607	0.444112	0.056244
C120	C	1.018673	0.374375	0.053604
C121	C	1.056932	0.296787	0.010999
C122	C	1.025129	0.288937	-0.028974
C123	C	0.955069	0.358674	-0.026338
C124	C	0.923912	0.771894	-0.235950
C125	C	0.988707	0.771907	-0.300752
C126	C	1.024337	0.729200	-0.374449
C127	C	0.995162	0.686484	-0.383343
C128	C	0.930364	0.686476	-0.318542
H129	H	-0.091818	0.838789	0.133290
H130	H	1.024182	0.651713	-0.443356
C131	C	0.226189	0.856039	0.150040
H132	H	0.161477	0.892007	0.184819
H133	H	0.246891	0.885870	0.128120
H134	H	0.250990	0.831225	0.176829
H135	H	0.338522	0.806693	0.380483
H136	H	0.917512	0.507231	-0.331237
H137	H	0.350178	0.651713	0.230687
H138	H	0.917462	0.507281	0.090943
H139	H	0.440620	0.232621	0.118326
C140	C	-0.235945	0.856041	0.149949
H141	H	-0.243519	0.892024	0.184731
H142	H	-0.261695	0.831234	0.176729
H143	H	-0.265784	0.885867	0.128008
C144	C	1.067180	0.203593	-0.314134
H145	H	1.038176	0.208933	-0.261718
H146	H	1.130542	0.174605	-0.338851
H147	H	1.058744	0.174608	-0.338854
H148	H	1.113979	0.240010	0.008858
C149	C	0.898298	0.639473	-0.328334
H150	H	0.854602	0.645581	-0.279190
H151	H	0.949069	0.583291	-0.357387
H152	H	0.871428	0.660561	-0.354460
C153	C	0.481055	0.602348	-0.095233
H154	H	0.488620	0.566380	-0.130021
H155	H	0.510903	0.572515	-0.073304
H156	H	0.506801	0.627161	-0.122013
H157	H	0.220977	0.806704	0.498056
H158	H	1.114010	0.239936	-0.445640
C159	C	0.018932	0.602347	-0.095326
H160	H	-0.032982	0.610999	-0.086979
H161	H	0.056530	0.550210	-0.094964
H162	H	0.052436	0.604852	-0.143676
C163	C	0.345005	0.602348	-0.095259
H164	H	0.409718	0.566370	-0.130027
H165	H	0.320210	0.627152	-0.122050
H166	H	0.324300	0.572517	-0.073331
H167	H	0.772374	0.651711	-0.769406
H168	H	1.044555	0.380782	0.086158
C169	C	0.920084	0.350027	-0.070295
H170	H	0.952902	0.293829	-0.096037
H171	H	0.928780	0.375452	-0.106891
H172	H	0.856987	0.375451	-0.035070
C173	C	1.067214	0.203589	-0.075830
H174	H	1.113484	0.163187	-0.071663
H175	H	1.092962	0.197452	-0.128269
H176	H	1.021152	0.197467	-0.056447
C177	C	0.884727	0.818879	-0.154891
H178	H	0.911379	0.844324	-0.158885
H179	H	0.898126	0.782022	-0.129351
H180	H	0.820498	0.859295	-0.126435
C181	C	0.449128	0.818841	-0.480924
H182	H	0.460952	0.812716	-0.443608
H183	H	0.418156	0.797711	-0.476072
H184	H	0.412240	0.875040	-0.473077
C185	C	0.325031	1.108354	0.125012
H186	H	0.372236	1.055714	0.117345
H187	H	0.276318	1.137343	0.178310
H188	H	0.348130	1.137332	0.106495
H189	H	0.450168	0.106083	0.113562
H190	H	1.012454	0.806690	-0.293494
H191	H	0.116727	0.838783	0.133322
H192	H	0.504840	0.380732	0.086234
H193	H	0.128385	0.619604	-0.078611
H194	H	0.200585	1.077603	-0.031468
H195	H	0.168015	0.729221	0.481969
H196	H	0.131171	1.218376	0.045822
H197	H	0.188853	1.232630	0.118350
C198	C	0.224269	0.639532	0.345747
H199	H	0.180569	0.645667	0.394905
H200	H	0.275011	0.583341	0.316700
H201	H	0.197385	0.660636	0.319633
H202	H	0.749827	-0.048879	-0.036297
C203	C	1.095620	0.729207	-0.445723
H204	H	1.107891	0.760758	-0.429863
H205	H	1.072669	0.752070	-0.474178
H206	H	1.150289	0.674792	-0.477092
C207	C	0.191411	1.075476	0.528793
H208	H	0.144206	1.128132	0.568320
H209	H	0.240101	1.046500	0.533394
H210	H	0.168299	1.046509	0.533392
H211	H	0.495294	0.507259	0.091010
H212	H	0.315963	1.106093	0.247779
C213	C	0.177932	1.254794	0.368852
H214	H	0.131653	1.295222	0.419289
H215	H	0.152195	1.260886	0.342167
H216	H	0.223989	1.260919	0.342141
C217	C	0.763125	0.075411	-0.042942
H218	H	0.814626	0.019218	-0.068706
H219	H	0.764511	0.100841	-0.007738
H220	H	0.764506	0.100843	-0.079534
H221	H	0.804495	0.225760	-0.063620
C222	C	0.817794	0.350066	-0.070239
H223	H	0.802456	0.402714	-0.062551
H224	H	0.852623	0.321085	-0.123544
H225	H	0.852552	0.321092	-0.051710
C226	C	0.449119	0.818899	-0.616986
H227	H	0.399933	0.844345	-0.563813
H228	H	0.448596	0.782036	-0.642000
H229	H	0.442779	0.859314	-0.639093
H230	H	0.515205	0.296078	0.081055
C231	C	1.053721	0.382909	-0.474079
H232	H	1.100918	0.330253	-0.513606
H233	H	1.076820	0.411887	-0.478690
H234	H	1.005017	0.411875	-0.478668
C235	C	0.795994	0.639490	-0.328301
H236	H	0.845173	0.614063	-0.381475
H237	H	0.802347	0.599073	-0.306201
H238	H	0.796511	0.676361	-0.303286
C239	C	0.795986	0.639493	-0.464360
H240	H	0.845170	0.614046	-0.460384
H241	H	0.796512	0.676353	-0.489898
H242	H	0.802325	0.599078	-0.492808
H243	H	0.772380	0.651705	-0.651855
H244	H	0.327606	0.951155	0.385953
H245	H	0.472737	0.806683	-0.293435
C246	C	0.449144	0.818875	-0.154820
H247	H	0.399960	0.844307	-0.158795
H248	H	0.442800	0.859288	-0.126370
H249	H	0.448626	0.782006	-0.129286
H250	H	0.729917	0.162298	-0.026330
H251	H	0.929152	0.352292	-0.193065
H252	H	0.327664	0.951104	-0.036238
H253	H	0.131146	1.218450	0.500354
