data_functionalizedCrystal
_audit_creation_method	'MofGen! by Chris Wilmer'
_symmetry_space_group_name_H-M	'P1'
_symmetry_Int_Tables_number	1
_symmetry_cell_setting	triclinic
loop_
_symmetry_equiv_pos_as_xyz
  x,y,z
_cell_length_a	12.594517
_cell_length_b	25.639239
_cell_length_c	12.594509
_cell_angle_alpha	89.965872
_cell_angle_beta	89.978673
_cell_angle_gamma	90.038486
loop_
_atom_site_label
_atom_site_type_symbol
_atom_site_fract_x
_atom_site_fract_y
_atom_site_fract_z
Zn1	Zn	1.627100	-0.208138	-0.601816
Zn2	Zn	2.127100	0.291862	-0.101816
Zn3	Zn	1.626920	-0.295580	-0.423819
Zn4	Zn	2.126920	0.204420	0.076181
Zn5	Zn	1.449103	-0.208160	-0.423845
Zn6	Zn	1.949103	0.291840	0.076155
Zn7	Zn	1.449015	-0.295544	-0.601750
Zn8	Zn	1.949015	0.204456	-0.101750
O9	O	1.538035	-0.251855	-0.512808
O10	O	2.038035	0.248145	-0.012808
O11	O	1.776022	-0.219743	-0.578222
O12	O	2.276022	0.280257	-0.078222
O13	O	1.603294	-0.284008	-0.274877
O14	O	2.103294	0.215992	0.225123
O15	O	1.472827	-0.134992	-0.447492
O16	O	1.972827	0.365008	0.052508
O17	O	1.775890	-0.283987	-0.447448
O18	O	2.275890	0.216013	0.052552
O19	O	1.603600	-0.134976	-0.578247
O20	O	2.103600	0.365024	-0.078247
O21	O	1.472653	-0.219781	-0.274896
O22	O	1.972653	0.280219	0.225104
O23	O	1.300146	-0.219746	-0.447427
O24	O	1.800146	0.280254	0.052573
O25	O	1.472677	-0.283925	-0.750704
O26	O	1.972677	0.216075	-0.250704
O27	O	1.300081	-0.283946	-0.578133
O28	O	1.800081	0.216054	-0.078133
O29	O	1.603515	-0.219708	-0.750753
O30	O	2.103515	0.280292	-0.250753
O31	O	1.603209	-0.368740	-0.447384
O32	O	2.103209	0.131260	0.052616
O33	O	1.472503	-0.368714	-0.578108
O34	O	1.972503	0.131286	-0.078108
C35	C	1.261494	-0.251845	-0.512776
C36	C	1.761494	0.248155	-0.012776
C37	C	1.143188	-0.251853	-0.512788
C38	C	1.643188	0.248147	-0.012788
C39	C	1.073939	-0.216887	-0.441833
C40	C	1.573939	0.283113	0.058167
C41	C	1.003090	-0.264579	-0.415643
C42	C	1.503090	0.235421	0.084357
C43	C	1.003239	-0.204184	-0.538996
C44	C	1.503239	0.295816	-0.038996
C45	C	1.073897	-0.299570	-0.486547
C46	C	1.573897	0.200430	0.013453
C47	C	1.074052	-0.239144	-0.609946
C48	C	1.574052	0.260856	-0.109946
C49	C	1.003234	-0.286869	-0.583793
C50	C	1.503234	0.213131	-0.083793
C51	C	1.537856	-0.387698	-0.512759
C52	C	2.037856	0.112302	-0.012759
C53	C	1.537876	-0.445812	-0.512774
C54	C	2.037876	0.054188	-0.012774
C55	C	1.606271	-0.806176	-0.444855
C56	C	2.106271	-0.306176	0.055145
C57	C	1.606312	-0.860781	-0.444870
C58	C	2.106312	-0.360781	0.055130
O59	O	1.664278	-0.889019	-0.387070
O60	O	2.164278	-0.389019	0.112930
N61	N	1.538222	-0.888094	-0.512878
N62	N	2.038222	-0.388094	-0.012878
C63	C	1.470093	-0.860801	-0.580885
C64	C	1.970093	-0.360801	-0.080885
O65	O	1.412182	-0.889048	-0.638733
O66	O	1.912182	-0.389048	-0.138733
C67	C	1.470058	-0.806198	-0.580875
C68	C	1.970058	-0.306198	-0.080875
C69	C	1.538145	-0.778887	-0.512854
C70	C	2.038145	-0.278887	-0.012854
C71	C	1.674353	-0.778865	-0.376841
C72	C	2.174353	-0.278865	0.123159
C73	C	1.674310	-0.724265	-0.376826
C74	C	2.174310	-0.224265	0.123174
C75	C	1.606185	-0.696975	-0.444825
C76	C	2.106185	-0.196975	0.055175
C77	C	1.538102	-0.724286	-0.512839
C78	C	2.038102	-0.224286	-0.012839
C79	C	1.401936	-0.778905	-0.648886
C80	C	1.901936	-0.278905	-0.148886
C81	C	1.401907	-0.724298	-0.648871
C82	C	1.901907	-0.224298	-0.148871
C83	C	1.469994	-0.696987	-0.580850
C84	C	1.969994	-0.196987	-0.080850
C85	C	1.469934	-0.642396	-0.580822
C86	C	1.969934	-0.142396	-0.080822
N87	N	1.538024	-0.615083	-0.512814
N88	N	2.038024	-0.115083	-0.012814
C89	C	1.606150	-0.642372	-0.444815
C90	C	2.106150	-0.142372	0.055185
C91	C	1.470174	-0.975472	-0.580901
C92	C	1.970174	-0.475472	-0.080901
C93	C	1.470202	-1.030074	-0.580906
C94	C	1.970202	-0.530074	-0.080906
C95	C	1.606423	-1.030050	-0.444892
C96	C	2.106423	-0.530050	0.055108
C97	C	1.606388	-0.975447	-0.444883
C98	C	2.106388	-0.475447	0.055117
C99	C	1.538264	-0.948158	-0.512892
C100	C	2.038264	-0.448158	-0.012892
C101	C	1.606054	-0.527707	-0.444787
C102	C	2.106054	-0.027707	0.055213
C103	C	1.606002	-0.473102	-0.444775
C104	C	2.106002	0.026898	0.055225
C105	C	1.469786	-0.473131	-0.580792
C106	C	1.969786	0.026869	-0.080792
C107	C	1.469833	-0.527731	-0.580801
C108	C	1.969833	-0.027731	-0.080801
C109	C	1.537976	-0.555018	-0.512795
C110	C	2.037976	-0.055018	-0.012795
O111	O	1.412001	-0.614124	-0.638596
O112	O	1.912001	-0.114124	-0.138596
O113	O	1.664062	-0.614119	-0.386986
O114	O	2.164062	-0.114119	0.113014
C115	C	1.815655	-0.251866	-0.512840
C116	C	2.315655	0.248134	-0.012840
C117	C	1.933961	-0.251871	-0.512853
C118	C	2.433961	0.248129	-0.012853
C119	C	1.538106	-0.251810	-0.790429
C120	C	2.038106	0.248190	-0.290429
C121	C	1.538136	-0.251790	-0.908734
C122	C	2.038136	0.248210	-0.408734
C123	C	1.538243	-0.115482	-0.512880
C124	C	2.038243	0.384518	-0.012880
C125	C	1.538332	-0.057368	-0.512911
C126	C	2.038332	0.442632	-0.012911
C127	C	1.466996	-0.286698	-0.977961
C128	C	1.966996	0.213302	-0.477961
C129	C	1.564106	-0.299473	-1.048748
C130	C	2.064106	0.200527	-0.548748
C131	C	1.441102	-0.238984	-1.048746
C132	C	1.941102	0.261016	-0.548746
C133	C	1.635297	-0.264590	-0.977964
C134	C	2.135297	0.235410	-0.477964
C135	C	1.512227	-0.204079	-0.977955
C136	C	2.012227	0.295921	-0.477955
C137	C	1.609405	-0.216836	-1.048711
C138	C	2.109405	0.283164	-0.548711
C139	C	1.538025	-0.251863	-0.236267
C140	C	2.038025	0.248137	0.263733
C141	C	1.538201	-0.251736	-0.117962
C142	C	2.038201	0.248264	0.382038
H143	H	1.661544	-0.549918	-0.389413
H144	H	2.161544	-0.049918	0.110587
O145	O	1.733264	-0.277617	-0.941165
O146	O	2.233264	0.222383	-0.441165
C147	C	1.760598	-0.327747	-0.978092
C148	C	2.260598	0.172253	-0.478092
H149	H	1.713136	-0.336954	-1.052830
H150	H	2.213136	0.163046	-0.552830
H151	H	1.849062	-0.328956	-0.997125
H152	H	2.349062	0.171044	-0.497125
H153	H	1.741703	-0.357865	-0.914183
H154	H	2.241703	0.142135	-0.414183
H155	H	1.104806	-0.339902	-0.464317
H156	H	1.604806	0.160098	0.035683
H157	H	1.669663	-0.187292	-1.079579
H158	H	2.169663	0.312708	-0.579579
H159	H	0.971923	-0.275340	-0.333507
H160	H	1.471923	0.224660	0.166493
H161	H	1.661831	-0.953213	-0.389495
H162	H	2.161831	-0.453213	0.110505
H163	H	1.586055	-0.339798	-1.079845
H164	H	2.086055	0.160202	-0.579845
O165	O	1.335632	-0.697872	-0.714975
O166	O	1.835632	-0.197872	-0.214975
C167	C	1.275574	-0.733691	-0.775028
C168	C	1.775574	-0.233691	-0.275028
H169	H	1.271938	-0.772630	-0.731433
H170	H	1.771938	-0.272630	-0.231433
H171	H	1.191695	-0.717955	-0.786315
H172	H	1.691695	-0.217955	-0.286315
H173	H	1.314522	-0.739452	-0.855897
H174	H	1.814522	-0.239452	-0.355897
H175	H	1.490250	-0.163765	-0.946835
H176	H	1.990250	0.336235	-0.446835
H177	H	1.359014	-0.228175	-1.079838
H178	H	1.859014	0.271825	-0.579838
O179	O	1.403806	-0.554242	-0.647021
O180	O	1.903806	-0.054242	-0.147021
C181	C	1.426983	-0.540835	-0.753117
C182	C	1.926983	-0.040835	-0.253117
H183	H	1.511996	-0.525774	-0.758560
H184	H	2.011996	-0.025774	-0.258560
H185	H	1.417822	-0.576728	-0.805709
H186	H	1.917822	-0.076728	-0.305709
H187	H	1.369873	-0.509161	-0.780876
H188	H	1.869873	-0.009161	-0.280876
H189	H	1.414316	-0.450903	-0.636153
H190	H	1.914316	0.049097	-0.136153
O191	O	1.403930	-0.948908	-0.646812
O192	O	1.903930	-0.448908	-0.146812
C193	C	1.335174	-0.917389	-0.586145
C194	C	1.835174	-0.417389	-0.086145
H195	H	1.372755	-0.909211	-0.505521
H196	H	1.872755	-0.409211	-0.005521
H197	H	1.320848	-0.878987	-0.629487
H198	H	1.820848	-0.378987	-0.129487
H199	H	1.256323	-0.938480	-0.574373
H200	H	1.756323	-0.438480	-0.074373
O201	O	0.966470	-0.322263	-0.655290
O202	O	1.466470	0.177737	-0.155290
C203	C	1.002689	-0.372444	-0.627313
C204	C	1.502689	0.127556	-0.127313
H205	H	1.022390	-0.373383	-0.538996
H206	H	1.522390	0.126617	-0.038996
H207	H	0.938081	-0.402349	-0.645086
H208	H	1.438081	0.097651	-0.145086
H209	H	1.076880	-0.382177	-0.675233
H210	H	1.576880	0.117823	-0.175233
O211	O	1.740510	-0.697680	-0.310907
O212	O	2.240510	-0.197680	0.189093
C213	C	1.809221	-0.666052	-0.371564
C214	C	2.309221	-0.166052	0.128436
H215	H	1.771627	-0.657858	-0.452186
H216	H	2.271627	-0.157858	0.047814
H217	H	1.823495	-0.627665	-0.328210
H218	H	2.323495	-0.127665	0.171790
H219	H	1.888100	-0.687057	-0.383346
H220	H	2.388100	-0.187057	0.116654
H221	H	1.729835	-0.801079	-0.321468
H222	H	2.229835	-0.301079	0.178532
H223	H	1.105245	-0.228368	-0.692058
H224	H	1.605245	0.271632	-0.192058
H225	H	1.661898	-1.052279	-0.389527
H226	H	2.161898	-0.552279	0.110473
O227	O	1.404020	-1.056520	-0.647073
O228	O	1.904020	-0.556520	-0.147073
C229	C	1.343867	-1.020718	-0.707061
C230	C	1.843867	-0.520718	-0.207061
H231	H	1.387438	-0.981772	-0.710769
H232	H	1.887438	-0.481772	-0.210769
H233	H	1.332475	-1.036466	-0.790919
H234	H	1.832475	-0.536466	-0.290919
H235	H	1.263048	-1.014964	-0.668005
H236	H	1.763048	-0.514964	-0.168005
O237	O	1.395400	-0.322038	-0.940942
O238	O	1.895400	0.177962	-0.440942
C239	C	1.423141	-0.372259	-0.977040
C240	C	1.923141	0.127741	-0.477040
H241	H	1.511433	-0.373244	-0.996899
H242	H	2.011433	0.126756	-0.496899
H243	H	1.405320	-0.402102	-0.912298
H244	H	1.905320	0.097898	-0.412298
H245	H	1.375103	-0.382041	-1.051110
H246	H	1.875103	0.117959	-0.551110
H247	H	1.104984	-0.187346	-0.381755
H248	H	1.604984	0.312654	0.118245
H249	H	1.346487	-0.801133	-0.704271
H250	H	1.846487	-0.301133	-0.204271
H251	H	0.972144	-0.163870	-0.561099
H252	H	1.472144	0.336130	-0.061099
H253	H	1.661446	-0.450867	-0.389381
H254	H	2.161446	0.049133	0.110619
