data_functionalizedCrystal
_audit_creation_method	'MofGen! by Chris Wilmer'
_symmetry_space_group_name_H-M	'P1'
_symmetry_Int_Tables_number	1
_symmetry_cell_setting	triclinic
loop_
_symmetry_equiv_pos_as_xyz
  x,y,z
_cell_length_a	12.759401
_cell_length_b	16.625545
_cell_length_c	12.759393
_cell_angle_alpha	90.033904
_cell_angle_beta	90.018567
_cell_angle_gamma	90.024602
loop_
_atom_site_label
_atom_site_type_symbol
_atom_site_fract_x
_atom_site_fract_y
_atom_site_fract_z
Zn1	Zn	1.606176	-0.320975	0.593966
Zn2	Zn	2.106176	0.179025	1.093966
Zn3	Zn	1.606037	-0.455831	0.418279
Zn4	Zn	2.106037	0.044169	0.918279
Zn5	Zn	1.430478	-0.321014	0.418305
Zn6	Zn	1.930478	0.178986	0.918305
Zn7	Zn	1.430433	-0.455767	0.593920
Zn8	Zn	1.930433	0.044233	1.093920
O9	O	1.518281	-0.388397	0.506118
O10	O	2.018281	0.111603	1.006118
O11	O	1.753179	-0.338874	0.570669
O12	O	2.253179	0.161126	1.070669
O13	O	1.582709	-0.437991	0.271262
O14	O	2.082709	0.062009	0.771262
O15	O	1.453862	-0.208177	0.441637
O16	O	1.953862	0.291823	0.941637
O17	O	1.753077	-0.437953	0.441593
O18	O	2.253077	0.062047	0.941593
O19	O	1.582946	-0.208147	0.570695
O20	O	2.082946	0.291853	1.070695
O21	O	1.453727	-0.338942	0.271281
O22	O	1.953727	0.161058	0.771281
O23	O	1.283451	-0.338879	0.441593
O24	O	1.783451	0.161121	0.941593
O25	O	1.453786	-0.437843	0.740948
O26	O	1.953786	0.062157	1.240948
O27	O	1.283418	-0.437881	0.570617
O28	O	1.783418	0.062119	1.070617
O29	O	1.582903	-0.338811	0.740981
O30	O	2.082903	0.161189	1.240981
O31	O	1.582666	-0.568655	0.441548
O32	O	2.082666	-0.068655	0.941548
O33	O	1.453651	-0.568608	0.570591
O34	O	1.953651	-0.068608	1.070591
C35	C	1.245314	-0.388378	0.506103
C36	C	1.745314	0.111622	1.006103
C37	C	1.128537	-0.388389	0.506122
C38	C	1.628537	0.111611	1.006122
C39	C	1.073721	-0.336896	0.573436
C40	C	1.573721	0.163104	1.073436
C41	C	0.963997	-0.336912	0.573443
C42	C	1.463997	0.163088	1.073443
C43	C	0.963915	-0.439920	0.438818
C44	C	1.463915	0.060080	0.938818
C45	C	1.073637	-0.439900	0.438807
C46	C	1.573637	0.060100	0.938807
C47	C	1.128622	-0.285386	0.640751
C48	C	1.628622	0.214614	1.140751
C49	C	1.073806	-0.233889	0.708072
C50	C	1.573806	0.266111	1.208072
C51	C	0.964082	-0.233905	0.708078
C52	C	1.464082	0.266095	1.208078
C53	C	0.909174	-0.285416	0.640764
C54	C	1.409174	0.214584	1.140764
C55	C	1.518167	-0.597888	0.506085
C56	C	2.018167	-0.097888	1.006085
C57	C	1.518214	-0.687509	0.506106
C58	C	2.018214	-0.187509	1.006106
C59	C	1.518255	-0.760291	0.506127
C60	C	2.018255	-0.260291	1.006127
C61	C	1.518316	-0.851600	0.506150
C62	C	2.018316	-0.351600	1.006150
C63	C	1.518371	-0.924376	0.506163
C64	C	2.018371	-0.424376	1.006163
C65	C	1.518431	-1.015690	0.506185
C66	C	2.018431	-0.515690	1.006185
C67	C	1.792314	-0.388416	0.506133
C68	C	2.292314	0.111584	1.006133
C69	C	1.909091	-0.388425	0.506140
C70	C	2.409091	0.111575	1.006140
C71	C	1.518355	-0.388315	0.780151
C72	C	2.018355	0.111685	1.280151
C73	C	1.518386	-0.388281	0.896928
C74	C	2.018386	0.111719	1.396928
C75	C	1.518424	-0.178088	0.506174
C76	C	2.018424	0.321912	1.006174
C77	C	1.518485	-0.088467	0.506198
C78	C	2.018485	0.411533	1.006198
C79	C	1.518268	-0.388420	0.233150
C80	C	2.018268	0.111580	0.733150
C81	C	1.518441	-0.388227	0.116374
C82	C	2.018441	0.111773	0.616374
C83	C	1.585627	-0.336710	0.951809
C84	C	2.085627	0.163290	1.451809
C85	C	1.585652	-0.336681	1.061533
C86	C	2.085652	0.163319	1.561533
C87	C	1.451192	-0.439800	1.061485
C88	C	1.951192	0.060200	1.561485
C89	C	1.451163	-0.439824	0.951763
C90	C	1.951163	0.060176	1.451763
C91	C	1.652850	-0.285167	0.896974
C92	C	2.152850	0.214833	1.396974
C93	C	1.720097	-0.233593	0.951855
C94	C	2.220097	0.266407	1.451855
C95	C	1.720122	-0.233564	1.061580
C96	C	2.220122	0.266436	1.561580
C97	C	1.652900	-0.285108	1.116422
C98	C	2.152900	0.214892	1.616422
H99	H	1.217965	-0.285367	0.640753
H100	H	1.717965	0.214633	1.140753
H101	H	1.774870	-0.191564	1.106261
H102	H	2.274870	0.308436	1.606261
H103	H	1.774820	-0.191622	0.907195
H104	H	2.274820	0.308378	1.407195
C105	C	1.133938	-0.496548	0.364761
C106	C	1.633938	0.003452	0.864761
N107	N	1.179356	-0.539215	0.308987
N108	N	1.679356	-0.039215	0.808987
H109	H	1.652839	-0.285186	0.807631
H110	H	2.152839	0.214814	1.307631
H111	H	1.118519	-0.191945	0.762870
H112	H	1.618519	0.308055	1.262870
C113	C	1.652926	-0.285069	1.237123
C114	C	2.152926	0.214931	1.737123
N115	N	1.652950	-0.285042	1.328033
N116	N	2.152950	0.214958	1.828033
H117	H	1.396463	-0.481765	1.106147
H118	H	1.896463	0.018235	1.606147
H119	H	0.819829	-0.285408	0.640753
H120	H	1.319829	0.214592	1.140753
C121	C	0.903787	-0.177256	0.782128
C122	C	1.403787	0.322744	1.282128
N123	N	0.858376	-0.134589	0.837909
N124	N	1.358376	0.365411	1.337909
C125	C	0.903511	-0.496584	0.364785
C126	C	1.403511	0.003416	0.864785
N127	N	0.858016	-0.539267	0.309025
N128	N	1.358016	-0.039267	0.809025
C129	C	1.377200	-0.496559	0.891390
C130	C	1.877200	0.003441	1.391390
N131	N	1.321489	-0.539292	0.845917
N132	N	1.821489	-0.039292	1.345917
