data_functionalizedCrystal
_audit_creation_method	'MofGen! by Chris Wilmer'
_symmetry_space_group_name_H-M	'P1'
_symmetry_Int_Tables_number	1
_symmetry_cell_setting	triclinic
loop_
_symmetry_equiv_pos_as_xyz
  x,y,z
_cell_length_a	19.077105
_cell_length_b	12.645330
_cell_length_c	19.076919
_cell_angle_alpha	92.276250
_cell_angle_beta	90.076224
_cell_angle_gamma	87.714233
loop_
_atom_site_label
_atom_site_type_symbol
_atom_site_fract_x
_atom_site_fract_y
_atom_site_fract_z
Zn1	Zn	1.058309	-0.512860	-0.440444
Zn2	Zn	1.062962	-0.683311	-0.322946
Zn3	Zn	0.945526	-0.498659	-0.318237
Zn4	Zn	0.940784	-0.682672	-0.435699
O5	O	1.001896	-0.594376	-0.379332
O6	O	1.157259	-0.541682	-0.428815
O7	O	1.051316	-0.653141	-0.223990
O8	O	0.960524	-0.352199	-0.334463
O9	O	1.160677	-0.666911	-0.342490
O10	O	1.043386	-0.362632	-0.424248
O11	O	0.965036	-0.517478	-0.220530
O12	O	0.846565	-0.516858	-0.329862
O13	O	0.952442	-0.665822	-0.534660
O14	O	0.843081	-0.652051	-0.416161
O15	O	1.038788	-0.541062	-0.538146
O16	O	1.046718	-0.831570	-0.337888
O17	O	0.956954	-0.831101	-0.420727
C18	C	0.819326	-0.582845	-0.371986
C19	C	0.741222	-0.577939	-0.368860
C20	C	0.702735	-0.646120	-0.412251
C21	C	0.629348	-0.641496	-0.409318
C22	C	0.594448	-0.568695	-0.362988
C23	C	0.632940	-0.500507	-0.319594
C24	C	0.706326	-0.505126	-0.322532
C25	C	0.375159	-0.547316	-0.349394
C26	C	0.301768	-0.542704	-0.346458
C27	C	0.298181	-0.683692	-0.436183
C28	C	0.371569	-0.688309	-0.439113
C29	C	0.410054	-0.620117	-0.395722
N30	N	0.519434	-0.563970	-0.359986
N31	N	0.485066	-0.624839	-0.398728
C32	C	1.001845	-0.869801	-0.379320
C33	C	1.001886	-0.987635	-0.379341
C34	C	0.945633	-1.154972	-0.431631
C35	C	0.945363	-1.032385	-0.431445
C36	C	0.984820	-1.026659	-0.304483
C37	C	0.984477	-1.149256	-0.304800
C38	C	1.075561	-1.160522	-0.401321
C39	C	1.075039	-1.037980	-0.402922
C40	C	1.185178	-0.605952	-0.386707
C41	C	1.263281	-0.610885	-0.389850
C42	C	0.994567	-0.604955	-0.562612
C43	C	0.991444	-0.609463	-0.640716
C44	C	1.001965	-0.317876	-0.379360
C45	C	1.001995	-0.200049	-0.379372
C46	C	1.034930	-0.546628	-0.679225
C47	C	1.031987	-0.550859	-0.752611
C48	C	0.985561	-0.617932	-0.787487
C49	C	0.942070	-0.680769	-0.748972
C50	C	0.945010	-0.676531	-0.675587
C51	C	0.971944	-0.637565	-1.006769
C52	C	0.969009	-0.641800	-1.080159
C53	C	1.058925	-0.511889	-1.083793
C54	C	1.061864	-0.507662	-1.010407
C55	C	1.018371	-0.570495	-0.971898
N56	N	0.982553	-0.622261	-0.862499
N57	N	1.021376	-0.566159	-0.896887
C58	C	1.009236	-0.583764	-0.196766
C59	C	1.012495	-0.578966	-0.118668
H60	H	0.604518	-0.441227	-0.281874
H61	H	0.737661	-0.449601	-0.287201
H62	H	0.936539	-0.688744	-0.975424
H63	H	1.087964	-1.012952	-0.458029
C64	C	0.740665	-0.725288	-0.462439
C65	C	0.784356	-0.793512	-0.424263
C66	C	0.819298	-0.866463	-0.470475
H67	H	0.768136	-0.688507	-0.494263
H68	H	0.707252	-0.765292	-0.487851
H69	H	0.817764	-0.753513	-0.398863
H70	H	0.756902	-0.830318	-0.392441
H71	H	0.785886	-0.906467	-0.495886
H72	H	0.846766	-0.829673	-0.502297
H73	H	0.848942	-0.912768	-0.444579
C74	C	1.097199	-1.207434	-0.473015
C75	C	1.160197	-1.267048	-0.466945
C76	C	1.180137	-1.310292	-0.532974
H77	H	1.103515	-1.151952	-0.504264
H78	H	1.061675	-1.251832	-0.490669
H79	H	1.195712	-1.222652	-0.449301
H80	H	1.153898	-1.322546	-0.435708
H81	H	1.144613	-1.354690	-0.550629
H82	H	1.186450	-1.254803	-0.564219
H83	H	1.222879	-1.350752	-0.528864
C84	C	1.133618	-0.997965	-0.356071
C85	C	1.121089	-1.024619	-0.286787
C86	C	1.175039	-0.987786	-0.243602
H87	H	1.135155	-0.923192	-0.358365
H88	H	1.177179	-1.029691	-0.371476
H89	H	1.077540	-0.992889	-0.271385
H90	H	1.119559	-1.099385	-0.284471
H91	H	1.218600	-1.019512	-0.259008
H92	H	1.176572	-0.913014	-0.245902
H93	H	1.166549	-1.005873	-0.196590
H94	H	0.904267	-0.735377	-0.777373
H95	H	1.117515	-1.189748	-0.363295
C96	C	1.085358	-0.473697	-0.641491
C97	C	1.122797	-0.419554	-0.690927
C98	C	1.169250	-0.352347	-0.656195
H99	H	1.117175	-0.514413	-0.614094
H100	H	1.059651	-0.424102	-0.611802
H101	H	1.148502	-0.469142	-0.720605
H102	H	1.090998	-0.378818	-0.718327
H103	H	1.143542	-0.302752	-0.626505
H104	H	1.201062	-0.393071	-0.628798
H105	H	1.194653	-0.315595	-0.689731
C106	C	0.409542	-0.767181	-0.489468
C107	C	0.449900	-0.712516	-0.536249
C108	C	0.484895	-0.785139	-0.582640
H109	H	0.376184	-0.807154	-0.514961
H110	H	0.439274	-0.813545	-0.463707
H111	H	0.420170	-0.666170	-0.562007
H112	H	0.483270	-0.672547	-0.510776
H113	H	0.514628	-0.831504	-0.556878
H114	H	0.451533	-0.825108	-0.608128
H115	H	0.512287	-0.748060	-0.614382
H116	H	0.598015	-0.697017	-0.444651
H117	H	0.890765	-0.998945	-0.416668
C118	C	1.079080	-0.482489	-0.794447
C119	C	1.037619	-0.414436	-0.834959
C120	C	1.080976	-0.351417	-0.873497
H121	H	1.108554	-0.526495	-0.824368
H122	H	1.107135	-0.441880	-0.763183
H123	H	1.009576	-0.455041	-0.866220
H124	H	1.008146	-0.370407	-0.805056
H125	H	1.109030	-0.310808	-0.842232
H126	H	1.110448	-0.395432	-0.903413
H127	H	1.052851	-0.305229	-0.900983
H128	H	0.955696	-1.006214	-0.486858
C129	C	0.959292	-1.199307	-0.505794
C130	C	0.970698	-1.115974	-0.550060
C131	C	0.983294	-1.156785	-0.618382
H132	H	0.919840	-1.236811	-0.521922
H133	H	0.999564	-1.246005	-0.505985
H134	H	0.930430	-1.069294	-0.549871
H135	H	1.010152	-1.078463	-0.533954
H136	H	1.023566	-1.203483	-0.618574
H137	H	0.943840	-1.194288	-0.634503
H138	H	0.991041	-1.100251	-0.648424
H139	H	0.930788	-1.173588	-0.286552
C140	C	0.913961	-0.980276	-0.279749
C141	C	0.869126	-1.062565	-0.267448
C142	C	0.803847	-1.019881	-0.244658
H143	H	0.894222	-0.936801	-0.314767
H144	H	0.919833	-0.938989	-0.237604
H145	H	0.863253	-1.103834	-0.309587
H146	H	0.888843	-1.106046	-0.232426
H147	H	0.809719	-0.978594	-0.202513
H148	H	0.784115	-0.976407	-0.279678
H149	H	0.773421	-1.075707	-0.236302
H150	H	1.099671	-0.453047	-0.982016
H151	H	0.931202	-0.696421	-1.108552
H152	H	0.266839	-0.739209	-0.471510
H153	H	1.094334	-0.460732	-1.115154
H154	H	0.891372	-1.181699	-0.417028
H155	H	1.023908	-1.178854	-0.264375
C156	C	0.897775	-0.744891	-0.633900
C157	C	0.856505	-0.804565	-0.680148
C158	C	0.812991	-0.867565	-0.641773
H159	H	0.868250	-0.700877	-0.604034
H160	H	0.925782	-0.791178	-0.606370
H161	H	0.828501	-0.758284	-0.707666
H162	H	0.886011	-0.848599	-0.710015
H163	H	0.840998	-0.913852	-0.614243
H164	H	0.783471	-0.823543	-0.611908
H165	H	0.784989	-0.908069	-0.673146
H166	H	0.406485	-0.491797	-0.314057
C167	C	0.264003	-0.463546	-0.296134
C168	C	0.313412	-0.404795	-0.258776
C169	C	0.278648	-0.331862	-0.212420
H170	H	0.236590	-0.500333	-0.264262
H171	H	0.234324	-0.417123	-0.321908
H172	H	0.343078	-0.451212	-0.233003
H173	H	0.340827	-0.367985	-0.290630
H174	H	0.248970	-0.285439	-0.238194
H175	H	0.251236	-0.368658	-0.180553
H176	H	0.312167	-0.291984	-0.187072
H177	H	1.024702	-0.997486	-0.264350
