data_functionalizedCrystal
_audit_creation_method	'MofGen! by Chris Wilmer'
_symmetry_space_group_name_H-M	'P1'
_symmetry_Int_Tables_number	1
_symmetry_cell_setting	triclinic
loop_
_symmetry_equiv_pos_as_xyz
  x,y,z
_cell_length_a	12.759394
_cell_length_b	15.298001
_cell_length_c	12.759387
_cell_angle_alpha	80.285636
_cell_angle_beta	90.031660
_cell_angle_gamma	80.326000
loop_
_atom_site_label
_atom_site_type_symbol
_atom_site_fract_x
_atom_site_fract_y
_atom_site_fract_z
Zn1	Zn	-0.140553	-1.379424	0.872646
Zn2	Zn	-0.316289	-1.379330	0.696945
Zn3	Zn	-0.170977	-1.228536	0.666503
Zn4	Zn	-0.346563	-1.228529	0.842122
O5	O	-0.243595	-1.303955	0.769554
O6	O	-0.138462	-1.505670	0.874854
O7	O	-0.297075	-1.359290	0.545878
O8	O	-0.019911	-1.248594	0.693883
O9	O	-0.267574	-1.505601	0.745767
O10	O	0.002441	-1.359451	0.845336
O11	O	-0.190315	-1.248502	0.523513
O12	O	-0.219672	-1.102277	0.664285
O13	O	-0.319173	-1.248582	0.993200
O14	O	-0.348674	-1.102272	0.793311
O15	O	-0.167818	-1.359444	1.015626
O16	O	-0.467334	-1.359284	0.716169
O17	O	-0.489577	-1.248491	0.822829
C18	C	-0.516574	-1.303901	0.769518
C19	C	-0.633338	-1.303960	0.769554
C20	C	-0.290760	-1.069537	0.722183
C21	C	-0.310963	-0.969252	0.701942
C22	C	-0.610106	-1.419415	0.658606
C23	C	-0.653346	-1.477167	0.603150
C24	C	-0.763057	-1.477219	0.603189
C25	C	-0.829532	-1.419517	0.658693
C26	C	-0.786292	-1.361766	0.714150
C27	C	-0.676577	-1.361717	0.714102
C28	C	-0.809523	-1.246316	0.825103
C29	C	-0.699813	-1.246257	0.825059
C30	C	-0.875997	-1.188614	0.880607
C31	C	-0.832758	-1.130857	0.936059
C32	C	-0.723040	-1.130805	0.936017
C33	C	-0.656573	-1.188506	0.880515
C34	C	-0.387570	-0.922101	0.625117
C35	C	-0.406554	-0.827878	0.606105
C36	C	-0.348926	-0.780797	0.663911
C37	C	-0.272313	-0.827948	0.740732
C38	C	-0.253333	-0.922180	0.759752
C39	C	-0.214689	-0.780877	0.798546
C40	C	-0.138076	-0.828028	0.875367
C41	C	-0.119099	-0.922251	0.894383
C42	C	-0.176726	-0.969332	0.836577
C43	C	-0.233669	-0.686645	0.779526
C44	C	-0.099432	-0.686724	0.914161
C45	C	-0.080448	-0.780947	0.933173
C46	C	0.030454	-1.304034	0.769619
C47	C	0.147237	-1.304067	0.769646
C48	C	-0.243479	-1.304023	1.043602
C49	C	-0.243429	-1.304052	1.160384
C50	C	-0.196239	-0.539288	0.817101
C51	C	-0.176039	-0.639573	0.837336
C52	C	-0.243625	-1.303939	0.496583
C53	C	-0.243344	-1.304085	0.379837
C54	C	-0.085830	-1.419501	1.183758
C55	C	-0.007012	-1.477238	1.250308
C56	C	-0.006970	-1.477260	1.360034
C57	C	-0.085751	-1.419536	1.403211
C58	C	-0.164569	-1.361800	1.336661
C59	C	-0.164605	-1.361786	1.226934
C60	C	-0.322162	-1.246348	1.313287
C61	C	-0.322211	-1.246329	1.203561
C62	C	-0.400943	-1.188625	1.356463
C63	C	-0.479767	-1.130891	1.289914
C64	C	-0.479807	-1.130872	1.180182
C65	C	-0.401028	-1.188592	1.137011
H66	H	-0.520775	-1.419366	0.658553
C67	C	0.003816	-0.832816	1.017679
H68	H	0.035427	-0.791287	1.049381
H69	H	-0.029023	-0.869590	1.070803
H70	H	0.057045	-0.869560	0.984977
C71	C	-0.996676	-1.188669	0.880649
H72	H	-1.012911	-1.231320	0.839663
H73	H	-1.018294	-1.204257	0.951615
H74	H	-1.033276	-1.130458	0.850670
H75	H	-0.543900	-1.083893	1.325077
C76	C	-0.034840	-0.974119	0.978894
H77	H	-0.031798	-1.036979	0.981950
H78	H	0.032663	-0.958683	0.960535
H79	H	-0.053419	-0.958703	1.046348
C80	C	-0.905872	-1.067395	0.997112
H81	H	-0.864410	-1.032993	1.030137
H82	H	-0.956659	-1.028122	0.948970
H83	H	-0.941644	-1.101923	1.049913
H84	H	-0.567240	-1.188464	0.880467
H85	H	-0.687840	-1.083781	0.981181
H86	H	-0.296050	-0.648263	0.716978
H87	H	-0.052508	-0.648392	0.961232
C88	C	-0.085877	-1.419483	1.063064
H89	H	-0.027669	-1.462124	1.046880
H90	H	-0.150554	-1.435052	1.041376
H91	H	-0.079415	-1.361259	1.026474
C92	C	-0.580225	-1.540634	0.542099
H93	H	-0.508692	-1.532329	0.550008
H94	H	-0.585935	-1.601258	0.569779
H95	H	-0.600931	-1.527457	0.468836
H96	H	-0.085702	-1.419552	1.492555
H97	H	-0.400899	-1.188643	1.445808
H98	H	-0.798261	-1.524250	0.558037
C99	C	-0.401072	-1.188569	1.016316
H100	H	-0.459297	-1.145920	0.982862
H101	H	-0.336412	-1.172991	0.988363
H102	H	-0.407550	-1.246785	1.003261
C103	C	-0.566505	-1.067360	1.106979
H104	H	-0.555247	-1.075608	1.035444
H105	H	-0.634440	-1.080536	1.127613
H106	H	-0.563298	-1.006746	1.112710
H107	H	-0.918861	-1.419573	0.658731
H108	H	0.057131	-1.524233	1.215141
C109	C	-0.450964	-0.973885	0.561551
H110	H	-0.499316	-0.932312	0.513080
H111	H	-0.403328	-1.010637	0.523262
H112	H	-0.489384	-1.010646	0.609101
C113	C	0.079724	-1.540766	1.433246
H114	H	0.068465	-1.532505	1.504776
H115	H	0.076534	-1.601380	1.427518
H116	H	0.147662	-1.527579	1.412619
C117	C	-0.369799	-0.677155	0.642990
H118	H	-0.423673	-0.655816	0.588953
H119	H	-0.392331	-0.655859	0.706458
H120	H	-0.306266	-0.655845	0.620627
H121	H	-0.468933	-0.789494	0.543557
H122	H	-0.161270	-1.046056	0.852050
