data_functionalizedCrystal
_audit_creation_method	'MofGen! by Chris Wilmer'
_symmetry_space_group_name_H-M	'P1'
_symmetry_Int_Tables_number	1
_symmetry_cell_setting	triclinic
loop_
_symmetry_equiv_pos_as_xyz
  x,y,z
_cell_length_a	10.685969
_cell_length_b	10.685741
_cell_length_c	10.686551
_cell_angle_alpha	89.636396
_cell_angle_beta	90.351934
_cell_angle_gamma	99.045477
loop_
_atom_site_label
_atom_site_type_symbol
_atom_site_fract_x
_atom_site_fract_y
_atom_site_fract_z
Zn1	Zn	-2.022474	-0.610788	-0.605030
Zn2	Zn	-2.024851	-0.836885	-0.411205
Zn3	Zn	-1.796405	-0.608406	-0.411224
Zn4	Zn	-1.828631	-0.804598	-0.634746
O5	O	-1.918090	-0.715169	-0.515551
O6	O	-2.199519	-0.655289	-0.566874
O7	O	-1.982055	-0.819092	-0.236546
O8	O	-1.811913	-0.431993	-0.424505
O9	O	-2.201265	-0.821401	-0.424471
O10	O	-1.978005	-0.433743	-0.566893
O11	O	-1.814217	-0.651230	-0.236561
O12	O	-1.623951	-0.619923	-0.453319
O13	O	-1.866837	-0.766374	-0.805465
O14	O	-1.647627	-0.764064	-0.617540
O15	O	-2.009253	-0.623982	-0.783633
O16	O	-2.013303	-1.009331	-0.453286
O17	O	-1.869141	-0.985611	-0.617521
C18	C	-1.589965	-0.688233	-0.538657
C19	C	-1.449597	-0.676737	-0.548574
C20	C	-1.945013	-1.043296	-0.538651
C21	C	-1.956649	-1.183676	-0.548567
C22	C	-1.941375	-0.691842	-0.841103
C23	C	-1.951297	-0.681902	-0.979833
C24	C	-1.247495	-0.742201	-0.492341
C25	C	-1.387862	-0.753692	-0.482411
C26	C	-1.891099	-0.385762	-0.492386
C27	C	-1.879597	-0.245389	-0.482514
C28	C	-1.894962	-0.738320	-0.191254
C29	C	-1.885255	-0.747925	-0.052482
H30	H	-1.395064	-0.602061	-0.612812
H31	H	-1.442403	-0.828383	-0.418180
N32	N	-2.055701	-0.255929	-0.633472
H33	H	-2.050158	-0.349329	-0.628723
H34	H	-2.040560	-0.224941	-0.722400
H35	H	-1.804827	-0.190829	-0.418403
H36	H	-1.821126	-0.812060	-1.008547
H37	H	-2.015439	-0.617773	-1.023775
