data_functionalizedCrystal
_audit_creation_method	'MofGen! by Chris Wilmer'
_symmetry_space_group_name_H-M	'P1'
_symmetry_Int_Tables_number	1
_symmetry_cell_setting	triclinic
loop_
_symmetry_equiv_pos_as_xyz
  x,y,z
_cell_length_a	13.897449
_cell_length_b	19.121063
_cell_length_c	13.897441
_cell_angle_alpha	87.593450
_cell_angle_beta	90.018596
_cell_angle_gamma	92.470221
loop_
_atom_site_label
_atom_site_type_symbol
_atom_site_fract_x
_atom_site_fract_y
_atom_site_fract_z
Zn1	Zn	1.458236	-0.279574	0.561726
Zn2	Zn	1.958236	0.220426	1.061726
Zn3	Zn	1.451226	-0.397036	0.407295
Zn4	Zn	1.951226	0.102964	0.907295
Zn5	Zn	1.296929	-0.279605	0.400446
Zn6	Zn	1.796929	0.220395	0.900446
Zn7	Zn	1.290000	-0.396991	0.568545
Zn8	Zn	1.790000	0.103009	1.068545
O9	O	1.374098	-0.338302	0.484503
O10	O	1.874098	0.161698	0.984503
O11	O	1.592287	-0.295161	0.541253
O12	O	2.092287	0.204839	1.041253
O13	O	1.430725	-0.381490	0.271406
O14	O	1.930725	0.118510	0.771406
O15	O	1.324161	-0.181317	0.416121
O16	O	1.824161	0.318683	0.916121
O17	O	1.587137	-0.381459	0.427793
O18	O	2.087137	0.118541	0.927793
O19	O	1.442672	-0.181294	0.534612
O20	O	1.942672	0.318706	1.034612
O21	O	1.317364	-0.295214	0.266375
O22	O	1.817364	0.204786	0.766375
O23	O	1.161029	-0.295172	0.422732
O24	O	1.661029	0.204828	0.922732
O25	O	1.312350	-0.381384	0.702620
O26	O	1.812350	0.118616	1.202620
O27	O	1.155937	-0.381415	0.546234
O28	O	1.655937	0.118585	1.046234
O29	O	1.435953	-0.295118	0.697610
O30	O	1.935953	0.204882	1.197610
O31	O	1.424005	-0.495314	0.434405
O32	O	1.924005	0.004686	0.934405
O33	O	1.305553	-0.495282	0.552874
O34	O	1.805553	0.004718	1.052874
C35	C	1.123484	-0.338292	0.484480
C36	C	1.623484	0.161708	0.984480
C37	C	1.016269	-0.338305	0.484495
C38	C	1.516269	0.161695	0.984495
C39	C	0.819974	-0.338308	0.484520
C40	C	1.319974	0.161692	0.984520
C41	C	0.929207	-0.338304	0.484503
C42	C	1.429207	0.161696	0.984503
C43	C	1.363293	-0.520782	0.495144
C44	C	1.863293	-0.020782	0.995144
C45	C	1.358758	-0.598848	0.499728
C46	C	1.858758	-0.098848	0.999728
C47	C	1.418348	-0.635517	0.440252
C48	C	1.918348	-0.135517	0.940252
C49	C	1.414089	-0.708868	0.444569
C50	C	1.914089	-0.208868	0.944569
C51	C	1.350236	-0.745549	0.508358
C52	C	1.850236	-0.245549	1.008358
C53	C	1.290643	-0.708875	0.567841
C54	C	1.790643	-0.208875	1.067841
C55	C	1.294908	-0.635525	0.563528
C56	C	1.794908	-0.135525	1.063528
C57	C	1.334277	-0.967019	0.524468
C58	C	1.834277	-0.467019	1.024468
C59	C	1.330015	-1.040374	0.528775
C60	C	1.830015	-0.540374	1.028775
C61	C	1.453463	-1.040362	0.405504
C62	C	1.953463	-0.540362	0.905504
C63	C	1.457717	-0.967011	0.401193
C64	C	1.957717	-0.467011	0.901193
C65	C	1.398129	-0.930343	0.460679
C66	C	1.898129	-0.430343	0.960679
C67	C	1.345879	-0.820526	0.512770
C68	C	1.845879	-0.320526	1.012770
C69	C	1.402491	-0.855368	0.456271
C70	C	1.902491	-0.355368	0.956271
C71	C	1.625690	-0.338312	0.484526
C72	C	2.125690	0.161688	0.984526
C73	C	1.732904	-0.338316	0.484536
C74	C	2.232904	0.161684	0.984536
C75	C	1.374160	-0.338243	0.736093
C76	C	1.874160	0.161757	1.236093
C77	C	1.374187	-0.338218	0.843305
C78	C	1.874187	0.161782	1.343305
C79	C	1.384971	-0.155109	0.473842
C80	C	1.884971	0.344891	0.973842
C81	C	1.389605	-0.077043	0.469299
C82	C	1.889605	0.422957	0.969299
C83	C	1.374094	-0.338310	0.233889
C84	C	1.874094	0.161690	0.733889
C85	C	1.374266	-0.338137	0.126666
C86	C	1.874266	0.161863	0.626666
C87	C	1.374208	-0.338198	0.930374
C88	C	1.874208	0.161802	1.430374
C89	C	1.374237	-0.338166	1.039605
C90	C	1.874237	0.161834	1.539605
H91	H	1.470340	-0.605656	0.388304
H92	H	1.970340	-0.105656	0.888304
O93	O	1.519798	-0.931301	0.339361
O94	O	2.019798	-0.431301	0.839361
C95	C	1.584549	-0.888815	0.391840
C96	C	2.084549	-0.388815	0.891840
H97	H	1.551127	-0.877813	0.464263
H98	H	2.051127	-0.377813	0.964263
H99	H	1.654389	-0.917030	0.404157
H100	H	2.154389	-0.417030	0.904157
C101	C	1.647134	-0.832669	0.245741
C102	C	2.147134	-0.332669	0.745741
C103	C	1.606081	-0.819151	0.334690
C104	C	2.106081	-0.319151	0.834690
H105	H	1.660420	-0.789698	0.210488
H106	H	2.160420	-0.289698	0.710488
H107	H	1.603513	-0.861294	0.210384
H108	H	2.103513	-0.361294	0.710384
H109	H	1.705329	-0.856183	0.256018
H110	H	2.205329	-0.356183	0.756018
H111	H	1.547881	-0.795645	0.324412
H112	H	2.047881	-0.295645	0.824412
H113	H	1.649693	-0.790520	0.370044
H114	H	2.149693	-0.290520	0.870044
O115	O	1.283976	-0.856238	0.574778
O116	O	1.783976	-0.356238	1.074778
C117	C	1.336399	-0.898584	0.639633
C118	C	1.836399	-0.398584	1.139633
H119	H	1.408886	-0.909538	0.606328
H120	H	1.908886	-0.409538	1.106328
H121	H	1.348590	-0.870274	0.709466
H122	H	1.848590	-0.370274	1.209466
C123	C	1.190245	-0.954835	0.702041
C124	C	1.690245	-0.454835	1.202041
C125	C	1.279272	-0.968293	0.661131
C126	C	1.779272	-0.468293	1.161131
H127	H	1.155006	-0.997833	0.715306
H128	H	1.655006	-0.497833	1.215306
H129	H	1.154926	-0.926303	0.658350
H130	H	1.654926	-0.426303	1.158350
H131	H	1.200417	-0.931241	0.760230
H132	H	1.700417	-0.431241	1.260230
H133	H	1.269099	-0.991878	0.602938
H134	H	1.769099	-0.491878	1.102938
H135	H	1.314588	-0.996830	0.704813
H136	H	1.814588	-0.496830	1.204813
O137	O	1.236978	-0.599827	0.621164
O138	O	1.736978	-0.099827	1.121164
C139	C	1.177152	-0.557477	0.563706
C140	C	1.677152	-0.057477	1.063706
H141	H	1.211848	-0.546506	0.489991
H142	H	1.711848	-0.046506	0.989991
H143	H	1.104028	-0.585795	0.554711
H144	H	1.604028	-0.085795	1.054711
C145	C	1.121097	-0.501261	0.703209
C146	C	1.621097	-0.001261	1.203209
C147	C	1.163715	-0.487781	0.612674
C148	C	1.663715	0.012219	1.112674
H149	H	1.112804	-0.458271	0.733416
H150	H	1.612804	0.041729	1.233416
H151	H	1.161399	-0.529795	0.741921
H152	H	1.661399	-0.029795	1.241921
H153	H	1.060165	-0.524861	0.695700
H154	H	1.560165	-0.024861	1.195700
H155	H	1.224650	-0.464190	0.620185
H156	H	1.724650	0.035810	1.120185
H157	H	1.123422	-0.459242	0.573965
H158	H	1.623422	0.040758	1.073965
H159	H	1.501978	-1.070225	0.357075
H160	H	2.001978	-0.570225	0.857075
O161	O	1.276347	-0.931325	0.582103
O162	O	1.776347	-0.431325	1.082103
C163	C	1.216528	-0.888977	0.524635
C164	C	1.716528	-0.388977	1.024635
H165	H	1.251231	-0.878009	0.450923
H166	H	1.751231	-0.378009	0.950923
H167	H	1.143405	-0.917294	0.515634
H168	H	1.643405	-0.417294	1.015634
C169	C	1.160459	-0.832755	0.664127
C170	C	1.660459	-0.332755	1.164127
C171	C	1.203086	-0.819278	0.573595
C172	C	1.703086	-0.319278	1.073595
H173	H	1.152163	-0.789763	0.694329
H174	H	1.652163	-0.289763	1.194329
H175	H	1.200757	-0.861287	0.702845
H176	H	1.700757	-0.361287	1.202845
H177	H	1.099528	-0.856354	0.656613
H178	H	1.599528	-0.356354	1.156613
H179	H	1.264021	-0.795688	0.581111
H180	H	1.764021	-0.295688	1.081111
H181	H	1.162798	-0.790741	0.534879
H182	H	1.662798	-0.290741	1.034879
O183	O	1.268095	-1.075977	0.590884
O184	O	1.768095	-0.575977	1.090884
C185	C	1.290159	-1.057982	0.685982
C186	C	1.790159	-0.557982	1.185982
H187	H	1.368389	-1.037765	0.689728
H188	H	1.868389	-0.537765	1.189728
H189	H	1.240901	-1.015429	0.708660
H190	H	1.740901	-0.515429	1.208660
C191	C	1.179041	-1.147950	0.749566
C192	C	1.679041	-0.647950	1.249566
C193	C	1.275127	-1.123124	0.754168
C194	C	1.775127	-0.623124	1.254168
H195	H	1.169765	-1.188131	0.791628
H196	H	1.669765	-0.688131	1.291628
H197	H	1.164173	-1.160072	0.685497
H198	H	1.664173	-0.660072	1.185497
H199	H	1.138004	-1.112483	0.768462
H200	H	1.638004	-0.612483	1.268462
H201	H	1.316161	-1.158588	0.735261
H202	H	1.816161	-0.658588	1.235261
H203	H	1.290001	-1.111009	0.818236
H204	H	1.790001	-0.611009	1.318236
H205	H	1.462613	-0.738721	0.396137
H206	H	1.962613	-0.238721	0.896137
O207	O	1.228487	-0.744426	0.629756
O208	O	1.728487	-0.244426	1.129756
C209	C	1.133398	-0.726584	0.607526
C210	C	1.633398	-0.226584	1.107526
H211	H	1.134516	-0.673349	0.567313
H212	H	1.634516	-0.173349	1.067313
H213	H	1.098532	-0.767913	0.560337
H214	H	1.598532	-0.267913	1.060337
C215	C	1.073743	-0.788560	0.750701
C216	C	1.573743	-0.288560	1.250701
C217	C	1.075116	-0.723173	0.701318
C218	C	1.575116	-0.223173	1.201318
H219	H	1.037790	-0.786459	0.808554
H220	H	1.537790	-0.286459	1.308554
H221	H	1.137806	-0.800583	0.765676
H222	H	1.637806	-0.300583	1.265676
H223	H	1.044690	-0.822994	0.711366
H224	H	1.544690	-0.322994	1.211366
H225	H	1.104179	-0.688742	0.740647
H226	H	1.604179	-0.188742	1.240647
H227	H	1.011057	-0.711144	0.686351
H228	H	1.511057	-0.211144	1.186351
H229	H	1.454485	-0.825500	0.404337
H230	H	1.954485	-0.325500	0.904337
