data_functionalizedCrystal
_audit_creation_method	'MofGen! by Chris Wilmer'
_symmetry_space_group_name_H-M	'P1'
_symmetry_Int_Tables_number	1
_symmetry_cell_setting	triclinic
loop_
_symmetry_equiv_pos_as_xyz
  x,y,z
_cell_length_a	11.792241
_cell_length_b	11.026607
_cell_length_c	9.482900
_cell_angle_alpha	78.599815
_cell_angle_beta	80.646885
_cell_angle_gamma	83.610284
loop_
_atom_site_label
_atom_site_type_symbol
_atom_site_fract_x
_atom_site_fract_y
_atom_site_fract_z
O1	O	1.553802	-0.147646	-0.120862
O2	O	1.887135	0.185687	0.212472
O3	O	2.220469	0.519020	0.545805
O4	O	1.226870	-0.164810	-0.120870
O5	O	1.560204	0.168524	0.212463
O6	O	1.893537	0.501857	0.545796
O7	O	1.363240	0.020603	-0.120861
O8	O	1.696573	0.353936	0.212472
O9	O	2.029906	0.687269	0.545805
O10	O	1.417433	-0.333059	-0.120870
O11	O	1.750766	0.000275	0.212463
O12	O	2.084099	0.333608	0.545796
O13	O	1.335571	-0.017211	0.120929
O14	O	1.668904	0.316122	0.454263
O15	O	2.002238	0.649456	0.787596
O16	O	1.199202	-0.202623	0.120920
O17	O	1.532535	0.130710	0.454254
O18	O	1.865868	0.464043	0.787587
O19	O	1.526133	-0.185460	0.120929
O20	O	1.859467	0.147874	0.454262
O21	O	2.192800	0.481207	0.787596
Cu22	Cu	1.360141	-0.197494	0.143002
Cu23	Cu	1.693474	0.135839	0.476335
Cu24	Cu	2.026808	0.469172	0.809669
Cu25	Cu	1.392863	-0.152775	-0.142943
Cu26	Cu	1.726196	0.180558	0.190390
Cu27	Cu	2.059529	0.513891	0.523723
O28	O	1.389764	-0.370872	0.120920
O29	O	1.723097	-0.037539	0.454254
O30	O	2.056431	0.295795	0.787587
C31	C	1.170531	-0.182638	0.000024
C32	C	1.503864	0.150695	0.333357
C33	C	1.837198	0.484029	0.666691
C34	C	1.043877	-0.179410	0.000020
C35	C	1.377210	0.153923	0.333354
C36	C	1.710544	0.487256	0.666687
C37	C	1.582473	-0.167631	0.000032
C38	C	1.915806	0.165702	0.333365
C39	C	2.249140	0.499036	0.666698
C40	C	1.709128	-0.170857	0.000026
C41	C	2.042462	0.162476	0.333359
C42	C	2.375795	0.495809	0.666692
C43	C	1.339408	0.046973	0.000032
C44	C	1.672742	0.380306	0.333365
C45	C	2.006075	0.713639	0.666699
C46	C	1.309606	0.181884	0.000026
C47	C	1.642940	0.515217	0.333359
C48	C	1.976273	0.848551	0.666693
C49	C	1.941019	-0.176792	0.000026
C50	C	2.274352	0.156542	0.333359
C51	C	2.607685	0.489875	0.666693
C52	C	1.811979	-0.173494	0.000026
C53	C	2.145312	0.159839	0.333359
C54	C	2.478645	0.493172	0.666693
C55	C	1.413596	-0.397242	0.000024
C56	C	1.746929	-0.063909	0.333357
C57	C	2.080262	0.269425	0.666690
C58	C	1.443399	-0.532151	0.000020
C59	C	1.776732	-0.198818	0.333353
C60	C	2.110066	0.134515	0.666687
N61	N	1.337135	-0.228946	0.344121
N62	N	1.670468	0.104387	0.677454
N63	N	2.003801	0.437720	1.010787
C64	C	1.391896	0.255148	0.000026
C65	C	1.725230	0.588481	0.333359
C66	C	2.058563	0.921815	0.666693
C67	C	1.361097	0.394586	0.000020
C68	C	1.694430	0.727919	0.333353
C69	C	2.027763	1.061253	0.666687
N70	N	1.415876	-0.121314	-0.344062
N71	N	1.749209	0.212020	-0.010729
N72	N	2.082543	0.545353	0.322605
C73	C	1.386067	-0.162046	0.416323
C74	C	1.719401	0.171287	0.749657
C75	C	2.052734	0.504621	1.082990
C76	C	1.366936	-0.188224	0.583739
C77	C	1.700269	0.145109	0.917073
C78	C	2.033603	0.478443	1.250406
H79	H	1.485149	0.214641	0.000038
H80	H	1.818482	0.547975	0.333371
H81	H	2.151816	0.881308	0.666704
Br82	Br	1.243689	-0.356707	0.447656
Br83	Br	1.577022	-0.023374	0.780989
Br84	Br	1.910356	0.309960	1.114322
H85	H	1.310871	-0.264881	0.645860
H86	H	1.644204	0.068452	0.979193
H87	H	1.977537	0.401786	1.312527
H88	H	1.442119	-0.085384	0.354199
H89	H	1.775453	0.247949	0.687532
H90	H	2.108786	0.581282	1.020865
H91	H	1.536672	0.427368	-0.000087
H92	H	1.870005	0.760701	0.333247
H93	H	2.203338	1.094034	0.666580
Br94	Br	1.205658	0.462081	-0.000005
Br95	Br	1.538991	0.795414	0.333328
Br96	Br	1.872325	1.128748	0.666661
Br97	Br	1.154174	0.249385	0.000001
Br98	Br	1.487507	0.582718	0.333334
Br99	Br	1.820840	0.916051	0.666667
Br100	Br	1.509640	0.006176	0.552413
Br101	Br	1.842973	0.339509	0.885747
Br102	Br	2.176307	0.672843	1.219080
