data_functionalizedCrystal
_audit_creation_method	'MofGen! by Chris Wilmer'
_symmetry_space_group_name_H-M	'P1'
_symmetry_Int_Tables_number	1
_symmetry_cell_setting	triclinic
loop_
_symmetry_equiv_pos_as_xyz
  x,y,z
_cell_length_a	15.995300
_cell_length_b	17.019294
_cell_length_c	15.072220
_cell_angle_alpha	86.119892
_cell_angle_beta	89.985917
_cell_angle_gamma	83.432826
loop_
_atom_site_label
_atom_site_type_symbol
_atom_site_fract_x
_atom_site_fract_y
_atom_site_fract_z
O1	O	1.110902	0.101485	-0.081567
O2	O	1.610902	0.601485	0.418433
O3	O	0.867106	0.114083	-0.082524
O4	O	1.367106	0.614083	0.417476
O5	O	0.995804	-0.007050	-0.073268
O6	O	1.495804	0.492950	0.426732
O7	O	0.982204	0.222617	-0.090823
O8	O	1.482204	0.722617	0.409177
O9	O	0.995772	-0.007043	0.074296
O10	O	1.495772	0.492957	0.574296
O11	O	0.867074	0.114089	0.065040
O12	O	1.367074	0.614089	0.565040
O13	O	1.110870	0.101492	0.065997
O14	O	1.610870	0.601492	0.565997
Zn15	Zn	0.988967	0.107792	0.088948
Zn16	Zn	1.488967	0.607792	0.588948
Zn17	Zn	0.989009	0.107783	-0.105475
Zn18	Zn	1.489009	0.607783	0.394525
O19	O	0.982172	0.222624	0.056741
O20	O	1.482172	0.722624	0.556741
C21	C	0.835895	0.113572	-0.008702
C22	C	1.335895	0.613572	0.491298
C23	C	0.742945	0.112032	-0.008582
C24	C	1.242945	0.612032	0.491418
C25	C	0.572765	0.109187	-0.008371
C26	C	1.072765	0.609187	0.491629
C27	C	0.525197	0.195436	-0.014962
C28	C	1.025197	0.695436	0.485038
C29	C	0.428511	0.193862	-0.015179
C30	C	0.928511	0.693862	0.484821
C31	C	0.405211	0.106387	-0.008163
C32	C	0.905211	0.606387	0.491837
C33	C	0.446413	0.063592	-0.088993
C34	C	0.946413	0.563592	0.411007
C35	C	0.543044	0.065775	-0.089228
C36	C	1.043044	0.565775	0.410772
C37	C	0.543288	0.064506	0.078684
C38	C	1.043288	0.564506	0.578684
C39	C	0.446344	0.064513	0.079787
C40	C	0.946344	0.564513	0.579787
C41	C	0.310518	0.104800	-0.008048
C42	C	0.810518	0.604800	0.491952
C43	C	0.667459	0.110771	-0.008492
C44	C	1.167459	0.610771	0.491508
C45	C	0.995272	-0.036435	0.002759
C46	C	1.495272	0.463565	0.502759
C47	C	0.993724	-0.124005	0.009447
C48	C	1.493724	0.375995	0.509447
C49	C	0.993015	-0.165145	-0.067848
C50	C	1.493015	0.334855	0.432152
C51	C	0.991555	-0.247425	-0.061561
C52	C	1.491555	0.252575	0.438439
C53	C	0.990809	-0.288565	0.022022
C54	C	1.490809	0.211435	0.522022
C55	C	0.991515	-0.247419	0.099322
C56	C	1.491515	0.252581	0.599322
C57	C	0.992969	-0.165140	0.093034
C58	C	1.492969	0.334860	0.593034
C59	C	0.986413	-0.536996	0.045031
C60	C	1.486413	-0.036996	0.545031
C61	C	0.984961	-0.619281	0.051313
C62	C	1.484961	-0.119281	0.551313
C63	C	0.985000	-0.619281	-0.109571
C64	C	1.485000	-0.119281	0.390429
C65	C	0.986459	-0.537001	-0.115851
C66	C	1.486459	-0.037001	0.384149
C67	C	0.987160	-0.495861	-0.038551
C68	C	1.487160	0.004139	0.461449
C69	C	0.989320	-0.372669	0.028450
C70	C	1.489320	0.127331	0.528450
C71	C	0.988644	-0.411758	-0.044980
C72	C	1.488644	0.088242	0.455020
C73	C	1.142081	0.102002	-0.007827
C74	C	1.642081	0.602002	0.492173
C75	C	1.235032	0.103542	-0.007953
C76	C	1.735032	0.603542	0.492047
C77	C	0.982705	0.252009	-0.019288
C78	C	1.482705	0.752009	0.480712
C79	C	0.984253	0.339579	-0.025982
C80	C	1.484253	0.839579	0.474018
N81	N	0.988945	0.107797	0.221636
N82	N	1.488945	0.607797	0.721636
N83	N	0.989038	0.107771	-0.238163
N84	N	1.489038	0.607771	0.261837
C85	C	0.989007	0.107780	0.580839
C86	C	1.489007	0.607780	1.080839
C87	C	0.919913	0.172378	0.538296
C88	C	1.419913	0.672378	1.038296
C89	C	0.920071	0.172613	0.435452
C90	C	1.420071	0.672613	0.935452
C91	C	0.988976	0.107788	0.402634
C92	C	1.488976	0.607788	0.902634
C93	C	1.076321	0.125751	0.438551
C94	C	1.576321	0.625751	0.938551
C95	C	1.075934	0.126210	0.541373
C96	C	1.575934	0.626210	1.041373
C97	C	0.971535	0.025028	0.549265
C98	C	1.471535	0.525028	1.049265
C99	C	0.969530	0.025580	0.446360
C100	C	1.469530	0.525580	0.946360
C101	C	0.988963	0.107792	0.301921
C102	C	1.488963	0.607792	0.801921
C103	C	0.989026	0.107778	0.681553
C104	C	1.489026	0.607778	1.181553
H105	H	0.543634	0.230099	0.042688
H106	H	1.043634	0.730099	0.542688
H107	H	0.988715	-0.406175	0.096503
H108	H	1.488715	0.093825	0.596503
Br109	Br	0.993926	-0.109305	0.197939
Br110	Br	1.493926	0.390695	0.697939
H111	H	0.854774	0.161854	0.563863
H112	H	1.354774	0.661854	1.063863
H113	H	0.990903	-0.280921	0.167377
H114	H	1.490903	0.219079	0.667377
H115	H	0.855142	0.161914	0.411061
H116	H	1.355142	0.661914	0.911061
H117	H	0.575393	0.002442	-0.087980
H118	H	1.075393	0.502442	0.412020
H119	H	0.563741	0.092904	0.140278
H120	H	1.063741	0.592904	0.640278
H121	H	1.016593	-0.024742	0.424497
H122	H	1.516593	0.475258	0.924497
H123	H	0.987000	-0.503512	0.107975
H124	H	1.487000	-0.003512	0.607975
Br125	Br	0.573544	0.117168	-0.198336
Br126	Br	1.073544	0.617168	0.301664
Br127	Br	0.989659	-0.355925	-0.158410
Br128	Br	1.489659	0.144075	0.341590
H129	H	0.930906	0.233441	0.559467
H130	H	1.430906	0.733441	1.059467
Br131	Br	0.557829	0.252346	-0.119680
Br132	Br	1.057829	0.752346	0.380320
Br133	Br	0.862438	0.002855	0.407482
Br134	Br	1.362438	0.502855	0.907482
Br135	Br	0.380976	0.249915	0.080991
Br136	Br	0.880976	0.749915	0.580991
Br137	Br	1.164108	0.050685	0.588610
Br138	Br	1.664108	0.550685	1.088610
H139	H	0.400637	0.227338	-0.078376
H140	H	0.900637	0.727338	0.421624
Br141	Br	1.055518	-0.055095	0.595917
Br142	Br	1.555518	0.444905	1.095917
Br143	Br	0.938610	0.274977	0.386594
Br144	Br	1.438610	0.774977	0.886594
Br145	Br	1.101621	0.226796	0.573660
Br146	Br	1.601621	0.726796	1.073660
H147	H	0.418006	0.092926	-0.154058
H148	H	0.918006	0.592926	0.345942
Br149	Br	0.423045	-0.043538	-0.085629
Br150	Br	0.923045	0.456462	0.414371
H151	H	1.128961	0.079952	0.417581
H152	H	1.628961	0.579952	0.917581
Br153	Br	0.400694	0.116598	0.179512
Br154	Br	0.900694	0.616598	0.679512
H155	H	1.092103	0.185413	0.408220
H156	H	1.592103	0.685413	0.908220
Br157	Br	0.867674	-0.003752	0.594754
Br158	Br	1.367674	0.496248	1.094754
H159	H	0.431080	0.000738	0.089988
H160	H	0.931080	0.500738	0.589988
H161	H	0.993627	-0.131655	-0.135910
H162	H	1.493627	0.368345	0.364090
Br163	Br	0.596399	-0.041475	0.088147
Br164	Br	1.096399	0.458525	0.588147
Br165	Br	0.987477	-0.481174	-0.229289
Br166	Br	1.487477	0.018826	0.270711
H167	H	0.990982	-0.280918	-0.124503
H168	H	1.490982	0.219082	0.375497
Br169	Br	0.984049	-0.675117	-0.214473
Br170	Br	1.484049	-0.175117	0.285527
H171	H	0.984349	-0.652775	0.119380
H172	H	1.484349	-0.152775	0.619380
