data_functionalizedCrystal
_audit_creation_method	'MofGen! by Chris Wilmer'
_symmetry_space_group_name_H-M	'P1'
_symmetry_Int_Tables_number	1
_symmetry_cell_setting	triclinic
loop_
_symmetry_equiv_pos_as_xyz
  x,y,z
_cell_length_a	15.995350
_cell_length_b	19.288864
_cell_length_c	17.766277
_cell_angle_alpha	90.023209
_cell_angle_beta	89.995869
_cell_angle_gamma	96.685689
loop_
_atom_site_label
_atom_site_type_symbol
_atom_site_fract_x
_atom_site_fract_y
_atom_site_fract_z
O1	O	0.104452	-0.921624	-0.062832
O2	O	0.118542	-0.719400	-0.062780
O3	O	-0.010412	-0.826040	-0.062807
O4	O	0.233405	-0.814984	-0.062805
O5	O	-0.010418	-0.826021	0.062382
O6	O	0.118535	-0.719381	0.062408
O7	O	0.104445	-0.921605	0.062357
Cu8	Cu	0.111490	-0.820492	0.073813
Cu9	Cu	0.111497	-0.820514	-0.074237
O10	O	0.233399	-0.814965	0.062383
C11	C	0.118085	-0.693513	-0.000179
C12	C	0.116724	-0.616406	-0.000159
C13	C	-0.041608	-0.825574	-0.000214
C14	C	-0.134553	-0.824203	-0.000218
C15	C	0.104902	-0.947492	-0.000246
C16	C	0.106263	-1.024600	-0.000271
C17	C	-0.472282	-0.819282	-0.000214
C18	C	-0.424562	-0.743335	-0.000475
C19	C	-0.327877	-0.744706	-0.000193
C20	C	-0.304731	-0.821723	-0.000216
C21	C	-0.345953	-0.859172	0.071262
C22	C	-0.442582	-0.857264	0.071322
C23	C	-0.442939	-0.858855	-0.071041
C24	C	-0.345993	-0.858837	-0.071986
C25	C	-0.210039	-0.823107	-0.000215
C26	C	-0.566975	-0.817901	-0.000210
C27	C	0.264595	-0.815432	-0.000211
C28	C	0.357540	-0.816802	-0.000212
N29	N	0.111484	-0.820481	0.177944
C30	C	0.192388	-0.571906	-0.000171
C31	C	0.191110	-0.499456	-0.000179
C32	C	0.114163	-0.471508	-0.000191
C33	C	0.038489	-0.516018	-0.000176
C34	C	0.039769	-0.588467	-0.000160
C35	C	0.053676	-0.363096	-0.044076
C36	C	0.052398	-0.290648	-0.044097
C37	C	0.110209	-0.248053	-0.000237
C38	C	0.169312	-0.277912	0.043634
C39	C	0.170593	-0.350361	0.043650
C40	C	0.112765	-0.392951	-0.000208
C41	C	0.184492	-0.124993	-0.000256
C42	C	0.183210	-0.052542	-0.000260
C43	C	0.030587	-0.069106	-0.000264
C44	C	0.031871	-0.141556	-0.000253
C45	C	0.108826	-0.169495	-0.000252
N46	N	0.111497	-0.820530	-0.178367
C47	C	0.054411	-0.867717	0.217319
C48	C	0.054407	-0.867721	0.296120
C49	C	0.111490	-0.820496	0.335544
C50	C	0.168567	-0.773251	0.296160
C51	C	0.168564	-0.773244	0.217359
C52	C	0.187781	-0.811395	0.460384
C53	C	0.187785	-0.811407	0.539183
C54	C	0.111500	-0.820514	0.578590
C55	C	0.035208	-0.829624	0.539190
C56	C	0.035204	-0.829617	0.460389
C57	C	0.111500	-0.820498	0.420990
C58	C	0.054419	-0.867757	0.703411
C59	C	0.054414	-0.867756	0.782215
C60	C	0.168581	-0.773290	0.782252
C61	C	0.168579	-0.773288	0.703451
C62	C	0.111499	-0.820525	0.664035
H63	H	-0.299341	-0.715268	-0.051431
N64	N	-0.044508	-0.485884	-0.000194
H65	H	-0.077647	-0.502086	0.046217
H66	H	-0.033773	-0.433240	-0.000237
N67	N	0.272721	-0.451447	-0.000193
H68	H	0.321665	-0.480140	-0.000190
H69	H	0.275506	-0.421056	-0.046611
N70	N	0.270067	-0.801573	0.417886
H71	H	0.304852	-0.840185	0.431575
H72	H	0.258418	-0.802932	0.362002
H73	H	-0.318638	-0.831457	-0.124863
H74	H	0.215044	-0.734799	0.328262
N75	N	0.230149	-0.722344	0.660984
H76	H	0.267141	-0.748880	0.628272
H77	H	0.198188	-0.691600	0.628354
N78	N	0.270069	-0.801577	0.581674
H79	H	0.258497	-0.802967	0.637572
H80	H	0.304827	-0.840184	0.567873
N81	N	0.230121	-0.722293	0.174885
H82	H	0.266281	-0.692373	0.211814
H83	H	0.267057	-0.748877	0.142172
N84	N	-0.325932	-0.933236	-0.077731
H85	H	-0.289652	-0.943986	-0.033694
H86	H	-0.379994	-0.965998	-0.077127
H87	H	-0.021848	-0.624700	-0.000151
N88	N	-0.448951	-0.703128	-0.068367
H89	H	-0.491173	-0.733750	-0.099614
H90	H	-0.474729	-0.660425	-0.051232
H91	H	-0.299903	-0.715054	0.051147
N92	N	-0.450360	-0.703289	0.067061
H93	H	-0.492825	-0.734129	0.097825
H94	H	-0.399195	-0.688139	0.098931
H95	H	0.247153	-0.147742	-0.000245
H96	H	0.244828	-0.016310	-0.000265
H97	H	0.215056	-0.734836	0.814350
H98	H	0.218713	-0.374670	0.079373
H99	H	-0.460783	-0.829941	0.124769
H100	H	-0.032065	-0.046352	-0.000320
N101	N	-0.485283	-0.933027	-0.071705
H102	H	-0.523293	-0.940988	-0.026375
H103	H	-0.519755	-0.941330	-0.119164
N104	N	-0.470011	-0.825978	-0.142808
H105	H	-0.507866	-0.861597	-0.172513
H106	H	-0.501543	-0.785091	-0.130070
N107	N	-0.485594	-0.931115	0.075608
H108	H	-0.468899	-0.958492	0.030668
H109	H	-0.468042	-0.953827	0.123379
N110	N	-0.327559	-0.934130	0.074753
H111	H	-0.292238	-0.944558	0.029929
H112	H	-0.295942	-0.941855	0.122657
N113	N	0.275386	-0.602041	-0.000176
H114	H	0.323125	-0.562852	-0.000186
H115	H	0.279248	-0.631715	0.046238
H116	H	0.216387	-0.243232	0.079349
H117	H	-0.029743	-0.177789	-0.000247
N118	N	-0.011342	-0.258445	-0.091413
H119	H	-0.047778	-0.296421	-0.119187
H120	H	-0.047772	-0.232261	-0.057774
N121	N	-0.008683	-0.409036	-0.091382
H122	H	-0.046312	-0.379128	-0.119180
H123	H	0.022662	-0.435772	-0.128836
N124	N	-0.007154	-0.918661	0.174806
H125	H	-0.043311	-0.948584	0.211712
H126	H	-0.044093	-0.892070	0.142132
H127	H	-0.317477	-0.833147	0.124469
N128	N	-0.007154	-0.918667	0.338602
H129	H	-0.043315	-0.948589	0.301675
H130	H	0.024815	-0.949370	0.371276
H131	H	-0.026916	-0.837032	0.428312
N132	N	-0.047079	-0.839452	0.581680
H133	H	-0.035505	-0.838071	0.637578
H134	H	-0.081832	-0.800838	0.567928
N135	N	-0.007145	-0.918700	0.660892
H136	H	-0.043307	-0.948621	0.697797
H137	H	-0.044079	-0.892110	0.628212
N138	N	-0.007133	-0.918717	0.824688
H139	H	-0.043283	-0.948644	0.787758
H140	H	0.024854	-0.949412	0.857355
