data_functionalizedCrystal
_audit_creation_method	'MofGen! by Chris Wilmer'
_symmetry_space_group_name_H-M	'P1'
_symmetry_Int_Tables_number	1
_symmetry_cell_setting	triclinic
loop_
_symmetry_equiv_pos_as_xyz
  x,y,z
_cell_length_a	18.215407
_cell_length_b	13.897448
_cell_length_c	18.215399
_cell_angle_alpha	89.973672
_cell_angle_beta	89.982632
_cell_angle_gamma	90.015136
loop_
_atom_site_label
_atom_site_type_symbol
_atom_site_fract_x
_atom_site_fract_y
_atom_site_fract_z
Zn1	Zn	1.125109	-0.384091	-0.416076
Zn2	Zn	1.125033	-0.545400	-0.293013
Zn3	Zn	1.002041	-0.384114	-0.293028
Zn4	Zn	1.002023	-0.545338	-0.416043
O5	O	1.063551	-0.464736	-0.354540
O6	O	1.228083	-0.405505	-0.399758
O7	O	1.108693	-0.524041	-0.190031
O8	O	1.018406	-0.249129	-0.309371
O9	O	1.228027	-0.524019	-0.309345
O10	O	1.108823	-0.249112	-0.399773
O11	O	1.018332	-0.405544	-0.190042
O12	O	0.899055	-0.405484	-0.309339
O13	O	1.018374	-0.523913	-0.519032
O14	O	0.899041	-0.523935	-0.399718
O15	O	1.108805	-0.405445	-0.519056
O16	O	1.108675	-0.680374	-0.309313
O17	O	1.018300	-0.680328	-0.399703
C18	C	0.872345	-0.464706	-0.354527
C19	C	0.790546	-0.464717	-0.354539
C20	C	0.602380	-0.403134	-0.401692
C21	C	0.525522	-0.403142	-0.401694
C22	C	0.525474	-0.526365	-0.307401
C23	C	0.602332	-0.526351	-0.307396
C24	C	0.640783	-0.464737	-0.354545
C25	C	0.487067	-0.464759	-0.354553
C26	C	0.403733	-0.464768	-0.354555
C27	C	0.724122	-0.464726	-0.354542
C28	C	1.063498	-0.715350	-0.354519
C29	C	1.063542	-0.822564	-0.354534
C30	C	1.063619	-1.018859	-0.354580
C31	C	1.063574	-0.909627	-0.354557
C32	C	1.255504	-0.464766	-0.354553
C33	C	1.337303	-0.464779	-0.354559
C34	C	1.063596	-0.464669	-0.546493
C35	C	1.063615	-0.464641	-0.628292
C36	C	1.063625	-0.213143	-0.354578
C37	C	1.063657	-0.105929	-0.354594
C38	C	1.110719	-0.402897	-0.816500
C39	C	1.110728	-0.402869	-0.893358
C40	C	1.016563	-0.526236	-0.893322
C41	C	1.016551	-0.526258	-0.816465
C42	C	1.063633	-0.464590	-0.778056
C43	C	1.063654	-0.464540	-0.931772
C44	C	1.063663	-0.464510	-1.015105
C45	C	1.063624	-0.464619	-0.694717
C46	C	1.063549	-0.464732	-0.163334
C47	C	1.063672	-0.464489	-0.081535
H48	H	1.149055	-0.352680	-0.785229
H49	H	0.633685	-0.352960	-0.440082
C50	C	0.644579	-0.594121	-0.255531
C51	C	0.633982	-0.586117	-0.171881
C52	C	0.676230	-0.653880	-0.120017
C53	C	0.729075	-0.729648	-0.151804
C54	C	0.739675	-0.737656	-0.235459
C55	C	0.697427	-0.669892	-0.287323
H56	H	0.594860	-0.530026	-0.148346
H57	H	0.668383	-0.647952	-0.058090
H58	H	0.760349	-0.779811	-0.113411
H59	H	0.778797	-0.793747	-0.258994
H60	H	0.705274	-0.675820	-0.349250
C61	C	0.964792	-0.594090	-0.935574
C62	C	0.913004	-0.661962	-0.893285
C63	C	0.861239	-0.729828	-0.935535
C64	C	0.861261	-0.729822	-1.020075
C65	C	0.913050	-0.661948	-1.062369
C66	C	0.964815	-0.594082	-1.020119
H67	H	0.912986	-0.661968	-0.830699
H68	H	0.822901	-0.780072	-0.904225
H69	H	0.822941	-0.780061	-1.051351
H70	H	0.913068	-0.661942	-1.124955
H71	H	1.003153	-0.543837	-1.051429
H72	H	0.494158	-0.576530	-0.269014
H73	H	0.494258	-0.352977	-0.440085
C74	C	1.162525	-0.335006	-0.935647
C75	C	1.214310	-0.267175	-0.893395
C76	C	1.266107	-0.199308	-0.935683
C77	C	1.266120	-0.199271	-1.020224
C78	C	1.214334	-0.267105	-1.062480
C79	C	1.162536	-0.334972	-1.020192
H80	H	1.214302	-0.267200	-0.830809
H81	H	1.304443	-0.149093	-0.904402
H82	H	1.304464	-0.149032	-1.051528
H83	H	1.214341	-0.267080	-1.125066
H84	H	1.124200	-0.385187	-1.051474
H85	H	0.978203	-0.576495	-0.785163
