data_functionalizedCrystal
_audit_creation_method	'MofGen! by Chris Wilmer'
_symmetry_space_group_name_H-M	'P1'
_symmetry_Int_Tables_number	1
_symmetry_cell_setting	triclinic
loop_
_symmetry_equiv_pos_as_xyz
  x,y,z
_cell_length_a	21.395362
_cell_length_b	16.625546
_cell_length_c	16.625539
_cell_angle_alpha	89.969603
_cell_angle_beta	89.960022
_cell_angle_gamma	90.038346
loop_
_atom_site_label
_atom_site_type_symbol
_atom_site_fract_x
_atom_site_fract_y
_atom_site_fract_z
Zn1	Zn	0.957871	-0.320658	-0.456315
Zn2	Zn	0.957796	-0.455502	-0.321478
Zn3	Zn	0.853093	-0.320724	-0.321450
Zn4	Zn	0.853070	-0.455490	-0.456222
O5	O	0.905457	-0.388093	-0.388866
O6	O	1.045539	-0.338523	-0.438479
O7	O	0.943885	-0.437655	-0.208642
O8	O	0.867033	-0.207883	-0.339368
O9	O	1.045484	-0.437592	-0.339415
O10	O	0.944013	-0.207835	-0.438453
O11	O	0.866960	-0.338635	-0.208621
O12	O	0.765412	-0.338624	-0.339277
O13	O	0.866994	-0.437572	-0.569067
O14	O	0.765395	-0.437636	-0.438293
O15	O	0.943991	-0.338512	-0.569135
O16	O	0.943862	-0.568332	-0.339324
O17	O	0.866921	-0.568324	-0.438320
C18	C	0.742670	-0.388136	-0.388773
C19	C	0.673028	-0.388174	-0.388752
C20	C	0.640323	-0.439798	-0.440232
C21	C	0.574888	-0.439778	-0.440268
C22	C	0.542160	-0.388143	-0.388809
C23	C	0.574874	-0.336509	-0.337325
C24	C	0.640308	-0.336524	-0.337296
C25	C	0.438439	-0.381662	-0.316222
C26	C	0.373006	-0.381652	-0.316249
C27	C	0.340339	-0.388090	-0.388898
C28	C	0.373114	-0.394555	-0.461523
C29	C	0.438548	-0.394570	-0.461494
C30	C	0.471208	-0.388120	-0.388835
C31	C	0.236681	-0.439695	-0.440422
C32	C	0.171245	-0.439670	-0.440459
C33	C	0.171232	-0.336405	-0.337509
C34	C	0.236667	-0.336426	-0.337479
C35	C	0.269388	-0.388076	-0.388934
C36	C	0.905398	-0.597584	-0.388832
C37	C	0.905430	-0.687205	-0.388845
C38	C	0.905539	-1.015381	-0.388929
C39	C	0.905507	-0.924073	-0.388908
C40	C	0.905484	-0.851296	-0.388887
C41	C	0.905453	-0.759982	-0.388866
C42	C	1.068881	-0.388051	-0.388961
C43	C	1.138522	-0.388033	-0.389001
C44	C	0.905498	-0.388033	-0.599175
C45	C	0.905516	-0.388008	-0.688796
C46	C	0.905534	-0.177785	-0.388918
C47	C	0.905567	-0.088163	-0.388940
C48	C	0.905544	-0.387917	-1.016972
C49	C	0.905535	-0.387945	-0.925664
C50	C	0.905530	-0.387963	-0.852887
C51	C	0.905520	-0.387990	-0.761573
C52	C	0.905453	-0.388095	-0.179375
C53	C	0.905557	-0.387894	-0.089755
H54	H	0.666960	-0.481854	-0.482133
Br55	Br	0.126824	-0.266319	-0.267678
Br56	Br	0.281057	-0.266361	-0.267608
H57	H	0.666936	-0.294483	-0.295375
Br58	Br	0.482765	-0.372925	-0.217617
H59	H	0.548223	-0.294466	-0.295428
H60	H	0.465231	-0.399832	-0.520627
Br61	Br	0.530491	-0.509842	-0.510141
H62	H	0.346519	-0.399795	-0.520681
H63	H	0.263324	-0.481747	-0.482324
H64	H	0.144617	-0.481707	-0.482386
H65	H	0.346325	-0.376394	-0.257114
