data_functionalizedCrystal
_audit_creation_method	'MofGen! by Chris Wilmer'
_symmetry_space_group_name_H-M	'P1'
_symmetry_Int_Tables_number	1
_symmetry_cell_setting	triclinic
loop_
_symmetry_equiv_pos_as_xyz
  x,y,z
_cell_length_a	13.635800
_cell_length_b	19.452420
_cell_length_c	9.514088
_cell_angle_alpha	87.731883
_cell_angle_beta	61.156455
_cell_angle_gamma	101.696715
loop_
_atom_site_label
_atom_site_type_symbol
_atom_site_fract_x
_atom_site_fract_y
_atom_site_fract_z
V1	V	-2.104433	-0.098430	0.501539
O2	O	-2.100832	0.003449	0.491183
O3	O	-2.075360	-0.193938	0.498886
O4	O	-2.121863	-0.097478	0.719922
O5	O	-2.054007	-0.093679	0.268617
V6	V	-2.341484	-0.086178	0.473585
O7	O	-2.245395	-0.125307	0.562858
O8	O	-2.425620	-0.059301	0.412266
O9	O	-2.258953	0.009330	0.476238
O10	O	-2.403783	-0.188057	0.483941
O11	O	-2.450608	-0.090929	0.706507
O12	O	-2.212450	-0.087130	0.255201
C13	C	-1.995328	-0.217203	0.491175
C14	C	-2.012479	-0.295286	0.490462
V15	V	-1.604433	-0.098430	0.501539
O16	O	-1.600832	0.003449	0.491183
O17	O	-1.575360	-0.193938	0.498886
O18	O	-1.621863	-0.097478	0.719922
O19	O	-1.554007	-0.093679	0.268617
V20	V	-1.841484	-0.086178	0.473585
O21	O	-1.745395	-0.125307	0.562858
O22	O	-1.925620	-0.059301	0.412266
O23	O	-1.758953	0.009330	0.476238
O24	O	-1.903783	-0.188057	0.483941
O25	O	-1.950608	-0.090929	0.706507
O26	O	-1.712450	-0.087130	0.255201
C27	C	-1.972858	-0.321548	0.342948
C28	C	-1.988999	-0.394913	0.342229
C29	C	-2.044742	-0.442013	0.489030
C30	C	-2.084374	-0.415743	0.636564
C31	C	-2.068242	-0.342380	0.637280
N32	N	-2.047850	-0.562718	0.592419
N33	N	-2.063170	-0.632410	0.591729
C34	C	-2.093352	-0.663053	0.486882
N35	N	-2.107616	-0.621370	0.382725
N36	N	-2.092289	-0.551672	0.383411
C37	C	-2.062241	-0.521564	0.488270
C38	C	-2.071231	-0.768865	0.338578
C39	C	-2.087381	-0.842232	0.337865
C40	C	-2.182747	-0.863060	0.632203
C41	C	-2.166606	-0.789695	0.632913
C42	C	-2.110843	-0.742601	0.486095
C43	C	-2.054647	-0.094158	0.773126
C44	C	-2.109508	-0.094012	0.951661
C45	C	-2.170655	0.032592	0.483945
C46	C	-2.143126	0.110673	0.484668
C47	C	-2.111336	-0.090452	0.201989
C48	C	-2.046094	-0.090595	0.023452
C49	C	-1.495328	-0.217203	0.491175
C50	C	-1.512479	-0.295286	0.490462
C51	C	-1.554647	-0.094158	0.773126
C52	C	-1.609508	-0.094012	0.951661
C53	C	-1.670655	0.032592	0.483945
C54	C	-1.643126	0.110673	0.484668
C55	C	-1.611336	-0.090452	0.201989
C56	C	-1.546094	-0.090595	0.023452
C57	C	-1.612970	-0.335556	0.498180
C58	C	-1.629106	-0.408925	0.497535
C59	C	-1.544747	-0.442022	0.489159
C60	C	-1.444250	-0.401747	0.481445
C61	C	-1.428118	-0.328380	0.482102
C62	C	-1.715129	0.150943	0.476954
C63	C	-1.689266	0.224311	0.477607
C64	C	-1.591402	0.257408	0.485986
C65	C	-1.519392	0.217134	0.493696
C66	C	-1.545252	0.143767	0.493031
H67	H	-1.956731	-0.416300	0.222101
H68	H	-1.949835	-0.087787	0.948334
C69	C	-1.737895	-0.097870	1.052065
C70	C	-1.793245	-0.158750	1.171023
C71	C	-1.911510	-0.162323	1.263560
H72	H	-1.770479	-0.100074	0.983296
H73	H	-1.747988	-0.056794	1.102941
H74	H	-1.783160	-0.199816	1.120150
H75	H	-1.760697	-0.156560	1.239828
H76	H	-1.921604	-0.121247	1.314435
H77	H	-1.944082	-0.164524	1.194778
H78	H	-1.949078	-0.203625	1.344292
C79	C	-2.144816	-0.466989	0.795775
C80	C	-2.150434	-0.536858	0.763574
C81	C	-2.206098	-0.584084	0.910204
H82	H	-2.220932	-0.461628	0.861622
H83	H	-2.102630	-0.456996	0.851226
H84	H	-2.192622	-0.546848	0.708148
H85	H	-2.074335	-0.542242	0.697751
H86	H	-2.163912	-0.574091	0.965655
H87	H	-2.282211	-0.578716	0.976040
H88	H	-2.209909	-0.631495	0.888375
H89	H	-2.205777	-0.096828	1.026791
C90	C	-1.704731	-0.299769	0.507361
C91	C	-1.796196	-0.350754	0.514026
C92	C	-1.880761	-0.317821	0.522512
H93	H	-1.671943	-0.264656	0.413847
H94	H	-1.732855	-0.277966	0.602138
H95	H	-1.768074	-0.372546	0.419260
H96	H	-1.829015	-0.385870	0.607537
H97	H	-1.908885	-0.296018	0.617288
H98	H	-1.847962	-0.282709	0.428995
H99	H	-1.942835	-0.352410	0.527050
H100	H	-1.486617	0.110984	0.499327
C101	C	-1.413062	0.252948	0.502731
C102	C	-1.355510	0.201988	0.509309
C103	C	-1.257551	0.234956	0.517623
H104	H	-1.436039	0.274766	0.597460
H105	H	-1.362661	0.288057	0.409154
H106	H	-1.405902	0.166891	0.602878
H107	H	-1.332506	0.180167	0.414591
H108	H	-1.207150	0.270066	0.424045
H109	H	-1.280538	0.256773	0.612352
H110	H	-1.218484	0.200386	0.522072
H111	H	-1.710941	-0.441707	0.503812
H112	H	-1.927459	-0.283208	0.223398
H113	H	-1.346283	-0.295597	0.475808
H114	H	-1.375570	-0.428706	0.474626
C115	C	-1.562454	-0.521680	0.488371
C116	C	-1.668506	-0.549853	0.496876
C117	C	-1.684854	-0.623229	0.496126
H118	H	-1.562550	-0.543696	0.579369
H119	H	-1.501512	-0.530327	0.391068
H120	H	-1.729433	-0.541212	0.594168
H121	H	-1.668435	-0.527857	0.405887
H122	H	-1.623912	-0.631876	0.398824
H123	H	-1.684945	-0.645238	0.587125
H124	H	-1.756805	-0.642352	0.501882
H125	H	-1.570359	0.317148	0.486526
C126	C	-2.111285	-0.313999	0.797610
C127	C	-2.163538	-0.370945	0.926023
C128	C	-2.203187	-0.344826	1.073742
H129	H	-2.166153	-0.288111	0.809380
H130	H	-2.047854	-0.283547	0.798945
H131	H	-2.226961	-0.401384	0.924691
H132	H	-2.108692	-0.396838	0.914307
H133	H	-2.139756	-0.314374	1.075077
H134	H	-2.258051	-0.318938	1.085495
H135	H	-2.238635	-0.383459	1.160887
C136	C	-2.010743	-0.717847	0.179020
C137	C	-1.979543	-0.756555	0.049678
C138	C	-1.923842	-0.709585	-0.097328
H139	H	-1.943279	-0.686485	0.167786
H140	H	-2.061602	-0.691097	0.178263
H141	H	-1.928687	-0.783293	0.050433
H142	H	-2.046986	-0.787915	0.060858
H143	H	-1.974701	-0.682834	-0.098085
H144	H	-1.856383	-0.678225	-0.108545
H145	H	-1.902676	-0.735841	-0.185103
H146	H	-2.228135	-0.901408	0.751732
C147	C	-1.821402	0.115157	0.467754
C148	C	-1.878889	0.166142	0.461087
C149	C	-1.976781	0.133211	0.452577
H150	H	-1.871882	0.080040	0.561259
H151	H	-1.798324	0.093359	0.372970
H152	H	-1.901969	0.187929	0.555861
H153	H	-1.828442	0.201262	0.367585
H154	H	-1.953704	0.111413	0.357793
H155	H	-2.027252	0.098095	0.546086
H156	H	-2.015793	0.167800	0.448038
H157	H	-1.449835	-0.087787	0.948334
H158	H	-1.747914	0.257093	0.471331
H159	H	-2.198863	-0.768313	0.753034
H160	H	-2.055120	-0.863612	0.217738
