data_functionalizedCrystal
_audit_creation_method	'MofGen! by Chris Wilmer'
_symmetry_space_group_name_H-M	'P1'
_symmetry_Int_Tables_number	1
_symmetry_cell_setting	triclinic
loop_
_symmetry_equiv_pos_as_xyz
  x,y,z
_cell_length_a	19.188940
_cell_length_b	14.971491
_cell_length_c	18.266242
_cell_angle_alpha	89.998961
_cell_angle_beta	90.008010
_cell_angle_gamma	96.617525
loop_
_atom_site_label
_atom_site_type_symbol
_atom_site_fract_x
_atom_site_fract_y
_atom_site_fract_z
O1	O	0.091007	-1.186458	0.060913
O2	O	0.424340	-0.853124	0.394246
O3	O	0.757673	-0.519791	0.727580
O4	O	0.101899	-0.926001	0.060908
O5	O	0.435232	-0.592668	0.394241
O6	O	0.768565	-0.259335	0.727574
O7	O	-0.005178	-1.063741	0.060905
O8	O	0.328155	-0.730408	0.394238
O9	O	0.661488	-0.397075	0.727572
O10	O	0.198084	-1.048718	0.060916
O11	O	0.531417	-0.715384	0.394249
O12	O	0.864750	-0.382051	0.727582
O13	O	-0.005189	-1.063744	-0.060857
O14	O	0.328145	-0.730411	0.272476
O15	O	0.661478	-0.397077	0.605810
O16	O	0.101888	-0.926004	-0.060854
O17	O	0.435222	-0.592671	0.272479
O18	O	0.768555	-0.259337	0.605812
O19	O	0.090996	-1.186461	-0.060849
O20	O	0.424330	-0.853127	0.272484
O21	O	0.757663	-0.519794	0.605818
Zn22	Zn	0.096441	-1.056233	-0.080184
Zn23	Zn	0.429774	-0.722900	0.253149
Zn24	Zn	0.763107	-0.389566	0.586483
Zn25	Zn	0.096454	-1.056229	0.080243
Zn26	Zn	0.429788	-0.722896	0.413576
Zn27	Zn	0.763121	-0.389562	0.746909
O28	O	0.198073	-1.048721	-0.060846
O29	O	0.531407	-0.715387	0.272487
O30	O	0.864740	-0.382054	0.605820
C31	C	0.101406	-0.892681	0.000026
C32	C	0.434739	-0.559347	0.333359
C33	C	0.768073	-0.226014	0.666693
C34	C	0.099944	-0.793391	0.000024
C35	C	0.433277	-0.460058	0.333357
C36	C	0.766611	-0.126725	0.666690
C37	C	-0.031196	-1.063255	0.000024
C38	C	0.302138	-0.729921	0.333357
C39	C	0.635471	-0.396588	0.666691
C40	C	-0.108705	-1.061790	0.000024
C41	C	0.224629	-0.728457	0.333358
C42	C	0.557962	-0.395123	0.666691
C43	C	0.091489	-1.219781	0.000034
C44	C	0.424823	-0.886448	0.333368
C45	C	0.758156	-0.553115	0.666701
C46	C	0.092951	-1.319070	0.000041
C47	C	0.426284	-0.985737	0.333375
C48	C	0.759618	-0.652404	0.666708
C49	C	-0.662003	-1.051371	-0.066331
C50	C	-0.328670	-0.718037	0.267002
C51	C	0.004663	-0.384704	0.600336
C52	C	-0.589174	-1.052737	-0.066335
C53	C	-0.255841	-0.719404	0.266998
C54	C	0.077492	-0.386070	0.600332
C55	C	-0.552747	-1.053423	0.000037
C56	C	-0.219414	-0.720090	0.333370
C57	C	0.113920	-0.386756	0.666703
C58	C	-0.589152	-1.052719	0.066417
C59	C	-0.255819	-0.719386	0.399750
C60	C	0.077514	-0.386053	0.733084
C61	C	-0.661979	-1.051344	0.066419
C62	C	-0.328645	-0.718010	0.399753
C63	C	0.004688	-0.384677	0.733086
N64	N	-0.443547	-1.106479	0.049439
N65	N	-0.110214	-0.773146	0.382773
N66	N	0.223119	-0.439812	0.716106
N67	N	-0.374365	-1.107788	0.049433
N68	N	-0.041032	-0.774454	0.382766
N69	N	0.292301	-0.441121	0.716100
C70	C	-0.333324	-1.057566	0.000034
C71	C	0.000009	-0.724232	0.333367
C72	C	0.333342	-0.390899	0.666701
N73	N	-0.364080	-1.005997	-0.049369
N74	N	-0.030747	-0.672663	0.283964
N75	N	0.302586	-0.339330	0.617298
N76	N	-0.433269	-1.004692	-0.049365
N77	N	-0.099936	-0.671358	0.283969
N78	N	0.233398	-0.338025	0.617302
C79	C	-0.473779	-1.054914	0.000042
C80	C	-0.140445	-0.721581	0.333375
C81	C	0.192888	-0.388247	0.666708
C82	C	-0.217958	-1.059745	-0.066347
C83	C	0.115375	-0.726411	0.266987
C84	C	0.448709	-0.393078	0.600320
C85	C	-0.145127	-1.061106	-0.066348
C86	C	0.188206	-0.727772	0.266985
C87	C	0.521539	-0.394439	0.600319
C88	C	-0.145107	-1.061097	0.066406
C89	C	0.188226	-0.727763	0.399740
C90	C	0.521559	-0.394430	0.733073
C91	C	-0.217936	-1.059727	0.066406
C92	C	0.115398	-0.726393	0.399739
C93	C	0.448731	-0.393060	0.733072
C94	C	-0.254357	-1.059055	0.000027
C95	C	0.078976	-0.725722	0.333360
C96	C	0.412309	-0.392388	0.666694
C97	C	0.224091	-1.049207	0.000036
C98	C	0.557424	-0.715874	0.333370
C99	C	0.890758	-0.382541	0.666703
C100	C	0.301600	-1.050672	0.000041
C101	C	0.634933	-0.717339	0.333374
C102	C	0.968266	-0.384005	0.666707
C103	C	0.093643	-0.365717	0.066413
C104	C	0.426976	-0.032384	0.399746
C105	C	0.760309	0.300949	0.733080
C106	C	0.095014	-0.459010	0.066410
C107	C	0.428347	-0.125677	0.399743
C108	C	0.761681	0.207656	0.733077
C109	C	0.095698	-0.505654	0.000035
C110	C	0.429032	-0.172321	0.333369
C111	C	0.762365	0.161013	0.666702
C112	C	0.095005	-0.459001	-0.066341
C113	C	0.428338	-0.125668	0.266992
C114	C	0.761671	0.207665	0.600325
C115	C	0.093628	-0.365711	-0.066338
C116	C	0.426962	-0.032377	0.266995
C117	C	0.760295	0.300956	0.600329
C118	C	0.097875	-0.653448	-0.066344
C119	C	0.431208	-0.320115	0.266989
C120	C	0.764541	0.013219	0.600323
C121	C	0.099252	-0.746745	-0.066348
C122	C	0.432586	-0.413411	0.266986
C123	C	0.765919	-0.080078	0.600319
C124	C	0.099260	-0.746748	0.066404
C125	C	0.432594	-0.413414	0.399737
C126	C	0.765927	-0.080081	0.733071
C127	C	0.097884	-0.653457	0.066408
C128	C	0.431217	-0.320124	0.399741
C129	C	0.764551	0.013210	0.733074
C130	C	0.097192	-0.606810	0.000031
C131	C	0.430525	-0.273477	0.333364
C132	C	0.763858	0.059856	0.666697
N133	N	0.096459	-1.056227	0.189730
N134	N	0.429792	-0.722894	0.523063
N135	N	0.763125	-0.389560	0.856396
N136	N	0.096431	-1.056242	-0.189671
N137	N	0.429764	-0.722909	0.143662
N138	N	0.763098	-0.389575	0.476996
C139	C	0.049138	-1.117327	0.228037
C140	C	0.382471	-0.783993	0.561371
C141	C	0.715805	-0.450660	0.894704
C142	C	0.049136	-1.117335	0.304682
C143	C	0.382470	-0.784001	0.638016
C144	C	0.715803	-0.450668	0.971349
C145	C	0.096449	-1.056228	0.343017
C146	C	0.429782	-0.722894	0.676350
C147	C	0.763116	-0.389561	1.009683
C148	C	0.143779	-0.995123	0.304700
C149	C	0.477112	-0.661790	0.638033
C150	C	0.810445	-0.328456	0.971366
C151	C	0.143783	-0.995123	0.228056
C152	C	0.477117	-0.661789	0.561389
C153	C	0.810450	-0.328456	0.894723
N154	N	0.105119	-0.977049	0.463354
N155	N	0.438452	-0.643715	0.796688
N156	N	0.771786	-0.310382	1.130021
N157	N	0.105110	-0.977052	0.536162
N158	N	0.438444	-0.643718	0.869496
N159	N	0.771777	-0.310385	1.202829
C160	C	0.096439	-1.056226	0.573939
C161	C	0.429772	-0.722893	0.907272
C162	C	0.763105	-0.389559	1.240606
N163	N	0.087762	-1.135400	0.536157
N164	N	0.421095	-0.802067	0.869490
N165	N	0.754429	-0.468733	1.202824
N166	N	0.087767	-1.135396	0.463342
N167	N	0.421100	-0.802063	0.796675
N168	N	0.754434	-0.468729	1.130009
C169	C	0.096449	-1.056221	0.426123
C170	C	0.429783	-0.722888	0.759457
C171	C	0.763116	-0.389555	1.092790
C172	C	0.049114	-1.117340	0.695354
C173	C	0.382447	-0.784006	1.028687
C174	C	0.715780	-0.450673	1.362020
C175	C	0.049117	-1.117349	0.772000
C176	C	0.382450	-0.784015	1.105333
C177	C	0.715784	-0.450682	1.438667
C178	C	0.143756	-0.995130	0.772016
C179	C	0.477089	-0.661796	1.105349
C180	C	0.810423	-0.328463	1.438683
C181	C	0.143756	-0.995128	0.695371
C182	C	0.477089	-0.661795	1.028704
C183	C	0.810423	-0.328461	1.362038
C184	C	0.096431	-1.056232	0.657045
C185	C	0.429764	-0.722899	0.990378
C186	C	0.763098	-0.389566	1.323711
H187	H	-0.691653	-1.050822	-0.120382
H188	H	-0.358320	-0.717489	0.212952
H189	H	-0.024986	-0.384156	0.546285
H190	H	0.010581	-1.167097	0.664147
H191	H	0.343914	-0.833764	0.997480
H192	H	0.677247	-0.500430	1.330814
H193	H	0.099814	-0.784719	-0.120396
H194	H	0.433147	-0.451386	0.212937
H195	H	0.766480	-0.118052	0.546271
H196	H	0.010585	-1.167108	0.803191
H197	H	0.343918	-0.833775	1.136524
H198	H	0.677252	-0.500442	1.469857
H199	H	0.095573	-0.496987	0.120457
H200	H	0.428906	-0.163653	0.453790
H201	H	0.762239	0.169680	0.787123
C202	C	0.097128	-0.602151	0.139423
C203	C	0.430461	-0.268818	0.472757
C204	C	0.763795	0.064515	0.806090
N205	N	0.096555	-0.563508	0.194420
N206	N	0.429888	-0.230175	0.527753
N207	N	0.763221	0.103158	0.861087
C208	C	0.195802	-0.927912	0.814179
C209	C	0.529135	-0.594578	1.147513
C210	C	0.862468	-0.261245	1.480846
N211	N	0.235005	-0.877282	0.845940
N212	N	0.568338	-0.543949	1.179274
N213	N	0.901671	-0.210616	1.512607
H214	H	-0.115448	-1.061645	0.120447
H215	H	0.217886	-0.728311	0.453781
H216	H	0.551219	-0.394978	0.787114
H217	H	0.182286	-0.945371	0.664179
H218	H	0.515619	-0.612038	0.997512
H219	H	0.848953	-0.278705	1.330846
C220	C	0.100019	-0.798061	0.139420
C221	C	0.433352	-0.464728	0.472753
C222	C	0.766685	-0.131395	0.806086
N223	N	0.100592	-0.836715	0.194413
N224	N	0.433925	-0.503381	0.527746
N225	N	0.767258	-0.170048	0.861079
H226	H	0.097319	-0.615470	-0.120395
H227	H	0.430653	-0.282136	0.212938
H228	H	0.763986	0.051197	0.546272
C229	C	0.095787	-0.510308	-0.139355
C230	C	0.429120	-0.176974	0.193979
C231	C	0.762454	0.156359	0.527312
N232	N	0.096390	-0.548949	-0.194350
N233	N	0.429723	-0.215615	0.138983
N234	N	0.763057	0.117718	0.472317
C235	C	0.092870	-0.314399	-0.139352
C236	C	0.426204	0.018934	0.193981
C237	C	0.759537	0.352267	0.527315
N238	N	0.092298	-0.275753	-0.194348
N239	N	0.425631	0.057581	0.138985
N240	N	0.758965	0.390914	0.472318
C241	C	0.092889	-0.314418	0.139432
C242	C	0.426222	0.018915	0.472765
C243	C	0.759555	0.352249	0.806099
N244	N	0.092317	-0.275782	0.194432
N245	N	0.425651	0.057551	0.527766
N246	N	0.758984	0.390884	0.861099
C247	C	-0.257979	-1.059013	0.139421
C248	C	0.075354	-0.725680	0.472754
C249	C	0.408687	-0.392347	0.806088
N250	N	-0.288141	-1.058491	0.194419
N251	N	0.045192	-0.725157	0.527753
N252	N	0.378525	-0.391824	0.861086
C253	C	-0.002931	-1.184531	0.185883
C254	C	0.330403	-0.851198	0.519216
C255	C	0.663736	-0.517864	0.852549
N256	N	-0.042153	-1.235145	0.154130
N257	N	0.291180	-0.901812	0.487464
N258	N	0.624514	-0.568479	0.820797
C259	C	-0.549131	-1.053514	-0.139352
C260	C	-0.215797	-0.720181	0.193981
C261	C	0.117536	-0.386847	0.527315
N262	N	-0.518972	-1.054102	-0.194349
N263	N	-0.185639	-0.720769	0.138984
N264	N	0.147694	-0.387436	0.472318
H265	H	-0.559488	-1.053274	0.120457
H266	H	-0.226155	-0.719941	0.453791
H267	H	0.107179	-0.386608	0.787124
C268	C	-0.002926	-1.184547	0.346829
C269	C	0.330408	-0.851214	0.680162
C270	C	0.663741	-0.517880	1.013496
N271	N	-0.042141	-1.235170	0.378572
N272	N	0.291192	-0.901836	0.711905
N273	N	0.624526	-0.568503	1.045239
H274	H	0.182302	-0.945370	0.335915
H275	H	0.515636	-0.612037	0.669249
H276	H	0.848969	-0.278703	1.002582
C277	C	0.195838	-0.927900	0.185916
C278	C	0.529171	-0.594567	0.519250
C279	C	0.862505	-0.261233	0.852583
N280	N	0.235044	-0.877264	0.154176
N281	N	0.568378	-0.543931	0.487509
N282	N	0.901711	-0.210597	0.820842
C283	C	-0.105090	-1.061870	-0.139366
C284	C	0.228243	-0.728537	0.193967
C285	C	0.561576	-0.395203	0.527300
N286	N	-0.074934	-1.062446	-0.194365
N287	N	0.258399	-0.729113	0.138968
N288	N	0.591732	-0.395780	0.472301
C289	C	-0.702020	-1.050608	0.139437
C290	C	-0.368687	-0.717275	0.472770
C291	C	-0.035353	-0.383941	0.806103
N292	N	-0.732181	-1.050067	0.194435
N293	N	-0.398848	-0.716733	0.527768
N294	N	-0.065514	-0.383400	0.861101
H295	H	-0.247613	-1.059190	-0.120396
H296	H	0.085720	-0.725857	0.212937
H297	H	0.419053	-0.392523	0.546271
