data_functionalizedCrystal
_audit_creation_method	'MofGen! by Chris Wilmer'
_symmetry_space_group_name_H-M	'P1'
_symmetry_Int_Tables_number	1
_symmetry_cell_setting	triclinic
loop_
_symmetry_equiv_pos_as_xyz
  x,y,z
_cell_length_a	8.634740
_cell_length_b	12.811415
_cell_length_c	7.681481
_cell_angle_alpha	78.833607
_cell_angle_beta	96.618670
_cell_angle_gamma	92.269614
loop_
_atom_site_label
_atom_site_type_symbol
_atom_site_fract_x
_atom_site_fract_y
_atom_site_fract_z
O1	O	2.028124	0.354171	-0.202986
O2	O	1.579446	0.325189	-0.198360
O3	O	1.817509	0.186616	-0.176223
O4	O	1.790061	0.492744	-0.225122
O5	O	1.846811	0.169515	0.119366
O6	O	1.608748	0.308088	0.097230
O7	O	2.057426	0.337070	0.092604
Zn8	Zn	1.837739	0.319863	0.141848
Zn9	Zn	1.799132	0.342395	-0.247604
O10	O	1.819363	0.475643	0.070467
C11	C	1.536709	0.310073	-0.049517
C12	C	1.365711	0.290497	-0.046392
C13	C	1.831520	0.138467	-0.022107
C14	C	1.829596	0.020476	-0.003271
C15	C	1.794004	-0.182587	-0.290165
C16	C	1.792195	-0.293450	-0.272475
C17	C	1.824158	-0.312114	0.049796
C18	C	1.825967	-0.201251	0.032106
C19	C	1.810892	-0.136491	-0.137880
C20	C	1.812712	-0.025626	-0.155568
C21	C	1.844664	-0.044293	0.166702
C22	C	1.842855	-0.155156	0.184392
C23	C	2.100162	0.352186	-0.056243
C24	C	2.271159	0.371762	-0.059380
C25	C	1.805351	0.523791	-0.083653
C26	C	1.807274	0.641783	-0.102501
N27	N	1.864098	0.304487	0.407639
N28	N	1.772785	0.357765	-0.513394
H29	H	1.315831	0.205944	-0.032936
C30	C	1.990037	0.231023	0.520950
H31	H	2.044692	0.199140	0.444854
H32	H	1.942097	0.177094	0.601499
H33	H	2.061040	0.271524	0.586380
C34	C	1.859447	-0.226396	0.371360
H35	H	1.855962	-0.299024	0.360088
H36	H	1.776463	-0.213158	0.434861
H37	H	1.956182	-0.210964	0.434472
C38	C	1.338510	0.485986	-0.077617
H39	H	1.256265	0.534344	-0.085337
H40	H	1.390196	0.503010	-0.182454
H41	H	1.410612	0.491078	0.023717
C42	C	1.863228	0.006414	0.334223
H43	H	1.862136	0.081715	0.299347
H44	H	1.959349	-0.014495	0.403156
H45	H	1.779625	-0.016685	0.403498
C46	C	1.646856	0.431227	0.373303
H47	H	1.592213	0.463122	0.449394
H48	H	1.575863	0.390736	0.307859
H49	H	1.694813	0.485162	0.292764
H50	H	1.836419	-0.364860	0.188190
C51	C	1.796124	0.045608	-0.342541
H52	H	1.785791	0.002272	-0.430701
H53	H	1.886018	0.090341	-0.356331
H54	H	1.706298	0.088145	-0.355953
H55	H	1.781742	-0.129858	-0.428574
H56	H	1.778437	-0.330976	-0.396482
