data_functionalizedCrystal
_audit_creation_method	'MofGen! by Chris Wilmer'
_symmetry_space_group_name_H-M	'P1'
_symmetry_Int_Tables_number	1
_symmetry_cell_setting	triclinic
loop_
_symmetry_equiv_pos_as_xyz
  x,y,z
_cell_length_a	8.559649
_cell_length_b	7.088929
_cell_length_c	8.634740
_cell_angle_alpha	97.190115
_cell_angle_beta	94.825514
_cell_angle_gamma	95.324331
loop_
_atom_site_label
_atom_site_type_symbol
_atom_site_fract_x
_atom_site_fract_y
_atom_site_fract_z
O1	O	-2.098506	0.158989	-0.033900
O2	O	-1.645343	0.158990	0.044311
O3	O	-1.850474	0.158986	-0.216731
O4	O	-1.893375	0.158992	0.227141
O5	O	-1.877876	-0.158990	-0.251687
O6	O	-1.672746	-0.158986	0.009355
O7	O	-2.125909	-0.158987	-0.068856
Cu8	Cu	-1.901829	-0.188020	-0.032942
Cu9	Cu	-1.869422	0.188023	0.008397
O10	O	-1.920778	-0.158983	0.192185
C11	C	-1.600427	0.000002	0.032760
C12	C	-1.425763	0.000002	0.050402
N13	N	-1.924634	-0.452508	-0.062021
C14	C	-1.170825	0.000001	-0.057305
C15	C	-1.345489	0.000002	-0.074948
C16	C	-1.854456	0.000001	-0.290507
C17	C	-1.825477	0.000011	-0.458258
N18	N	-1.846628	0.452511	0.037462
C19	C	-1.916796	0.000006	0.265963
C20	C	-1.945774	0.000008	0.433714
H21	H	-1.360857	0.000013	0.171226
H22	H	-1.765783	-0.465841	0.140555
N23	N	-2.031753	-0.560652	-0.198577
H24	H	-2.030153	-0.702602	-0.196515
H25	H	-1.993951	-0.525773	-0.300012
N26	N	-1.659689	-0.000004	-0.505746
H27	H	-1.613258	-0.117880	-0.476048
H28	H	-1.593050	0.117946	-0.450126
N29	N	-1.431435	0.000011	-0.234988
H30	H	-1.548211	0.000010	-0.225331
H31	H	-1.411879	-0.117868	-0.306305
N32	N	-2.111579	0.000010	-0.518813
H33	H	-2.109479	0.000011	-0.401688
H34	H	-2.178231	-0.117874	-0.574533
