data_functionalizedCrystal
_audit_creation_method	'MofGen! by Chris Wilmer'
_symmetry_space_group_name_H-M	'P1'
_symmetry_Int_Tables_number	1
_symmetry_cell_setting	triclinic
loop_
_symmetry_equiv_pos_as_xyz
  x,y,z
_cell_length_a	18.050591
_cell_length_b	18.215406
_cell_length_c	18.215399
_cell_angle_alpha	90.015166
_cell_angle_beta	89.971227
_cell_angle_gamma	90.006116
loop_
_atom_site_label
_atom_site_type_symbol
_atom_site_fract_x
_atom_site_fract_y
_atom_site_fract_z
Zn1	Zn	-1.135469	-0.293128	0.416357
Zn2	Zn	-0.635469	0.206872	0.916357
Zn3	Zn	-1.135429	-0.416199	0.293318
Zn4	Zn	-0.635429	0.083801	0.793318
Zn5	Zn	-1.011278	-0.293136	0.293285
Zn6	Zn	-0.511278	0.206864	0.793285
Zn7	Zn	-1.011296	-0.416142	0.416324
Zn8	Zn	-0.511296	0.083858	0.916324
O9	O	-1.073368	-0.354651	0.354821
O10	O	-0.573368	0.145349	0.854821
O11	O	-1.239388	-0.309473	0.400063
O12	O	-0.739388	0.190527	0.900063
O13	O	-1.118936	-0.399901	0.190329
O14	O	-0.618936	0.100099	0.690329
O15	O	-1.027762	-0.190150	0.309611
O16	O	-0.527762	0.309850	0.809611
O17	O	-1.239359	-0.399893	0.309667
O18	O	-0.739359	0.100107	0.809667
O19	O	-1.119004	-0.190144	0.400031
O20	O	-0.619004	0.309856	0.900031
O21	O	-1.027723	-0.309488	0.190305
O22	O	-0.527723	0.190512	0.690305
O23	O	-0.907356	-0.309433	0.309579
O24	O	-0.407356	0.190567	0.809579
O25	O	-1.027792	-0.399797	0.519312
O26	O	-0.527792	0.100203	1.019312
O27	O	-0.907369	-0.399805	0.399975
O28	O	-0.407369	0.100195	0.899975
O29	O	-1.119022	-0.309418	0.519337
O30	O	-0.619022	0.190582	1.019337
O31	O	-1.118953	-0.519175	0.309635
O32	O	-0.618953	-0.019175	0.809635
O33	O	-1.027753	-0.519134	0.400007
O34	O	-0.527753	-0.019134	0.900007
C35	C	-0.880416	-0.354614	0.354770
C36	C	-0.380416	0.145386	0.854770
C37	C	-0.797870	-0.354616	0.354766
C38	C	-0.297870	0.145384	0.854766
C39	C	-1.073371	-0.545857	0.354837
C40	C	-0.573371	-0.045857	0.854837
C41	C	-1.073440	-0.627656	0.354868
C42	C	-0.573440	-0.127656	0.854868
C43	C	-1.073413	-0.354600	0.546774
C44	C	-0.573413	0.145400	1.046774
C45	C	-1.073432	-0.354579	0.628573
C46	C	-0.573432	0.145421	1.128573
C47	C	-0.598391	-0.305404	0.305711
C48	C	-0.098391	0.194596	0.805711
C49	C	-0.549002	-0.372526	0.287612
C50	C	-0.049002	0.127474	0.787612
C51	C	-0.646740	-0.354630	0.354791
C52	C	-0.146740	0.145370	0.854791
C53	C	-0.549047	-0.287524	0.372879
C54	C	-0.049047	0.212476	0.872879
C55	C	-0.500755	-0.354639	0.354814
C56	C	-0.000755	0.145361	0.854814
C57	C	-0.598438	-0.421788	0.336657
C58	C	-0.098438	0.078212	0.836657
C59	C	-0.598487	-0.336740	0.421956
C60	C	-0.098487	0.163260	0.921956
C61	C	-0.549121	-0.403909	0.403883
C62	C	-0.049121	0.096091	0.903883
C63	C	-0.730838	-0.354625	0.354776
C64	C	-0.230838	0.145375	0.854776
C65	C	-0.416658	-0.354652	0.354829
C66	C	0.083342	0.145348	0.854829
C67	C	-0.267074	-0.354676	0.354859
C68	C	0.232926	0.145324	0.854859
C69	C	-0.349619	-0.354654	0.354841
C70	C	0.150381	0.145346	0.854841
C71	C	-1.073385	-0.162698	0.354821
C72	C	-0.573385	0.337302	0.854821
C73	C	-1.073393	-0.080899	0.354821
C74	C	-0.573393	0.419101	0.854821
C75	C	-1.025906	0.107293	0.307766
C76	C	-0.525906	0.607293	0.807766
C77	C	-1.025913	0.184151	0.307775
C78	C	-0.525913	0.684151	0.807775
C79	C	-1.120928	0.184147	0.401929
C80	C	-0.620928	0.684147	0.901929
C81	C	-1.120918	0.107289	0.401923
C82	C	-0.620918	0.607289	0.901923
C83	C	-1.073408	0.068864	0.354837
C84	C	-0.573408	0.568864	0.854837
C85	C	-1.073425	0.222580	0.354852
C86	C	-0.573425	0.722580	0.854852
C87	C	-1.073432	0.305914	0.354862
C88	C	-0.573432	0.805914	0.854862
C89	C	-1.073400	-0.014475	0.354828
C90	C	-0.573400	0.485525	0.854828
C91	C	-1.073366	-0.354648	0.163615
C92	C	-0.573366	0.145352	0.663615
C93	C	-1.073490	-0.354463	0.081816
C94	C	-0.573490	0.145537	0.581816
C95	C	-1.120953	-0.307475	0.816781
C96	C	-0.620953	0.192525	1.316781
C97	C	-1.120962	-0.307453	0.893639
C98	C	-0.620962	0.192547	1.393639
C99	C	-1.025965	-0.401569	0.893603
C100	C	-0.525965	0.098431	1.393603
C101	C	-1.025953	-0.401586	0.816745
C102	C	-0.525953	0.098414	1.316745
C103	C	-1.073451	-0.354540	0.778336
C104	C	-0.573451	0.145460	1.278336
C105	C	-1.073472	-0.354501	0.932053
C106	C	-0.573472	0.145499	1.432053
C107	C	-1.073481	-0.354478	1.015386
C108	C	-0.573481	0.145522	1.515386
C109	C	-1.073441	-0.354562	0.694997
C110	C	-0.573441	0.145438	1.194997
H111	H	-0.620025	-0.263823	0.264164
H112	H	-0.120025	0.236177	0.764164
H113	H	-0.527267	-0.387667	0.230822
H114	H	-0.027267	0.112333	0.730822
H115	H	-1.159611	0.215440	0.440264
H116	H	-0.659611	0.715440	0.940264
F117	F	-1.171474	0.066388	0.452031
F118	F	-0.671474	0.566388	0.952031
H119	H	-0.527623	-0.445589	0.445398
H120	H	-0.027623	0.054411	0.945398
F121	F	-0.975351	0.225047	0.257678
F122	F	-0.475351	0.725047	0.757678
H123	H	-0.620043	-0.478559	0.321305
H124	H	-0.120043	0.021441	0.821305
F125	F	-0.975341	0.066401	0.257655
F126	F	-0.475341	0.566401	0.757655
F127	F	-0.975419	-0.451638	0.934487
F128	F	-0.475419	0.048362	1.434487
F129	F	-0.626919	-0.316926	0.496164
F130	F	-0.126919	0.183074	0.996164
F131	F	-0.975388	-0.451679	0.775828
F132	F	-0.475388	0.048321	1.275828
H133	H	-0.527313	-0.230777	0.388144
H134	H	-0.027313	0.269223	0.888144
H135	H	-1.159627	-0.269165	0.785510
H136	H	-0.659627	0.230835	1.285510
F137	F	-1.171525	-0.257365	0.934551
F138	F	-0.671525	0.242635	1.434551
