data_functionalizedCrystal
_audit_creation_method	'MofGen! by Chris Wilmer'
_symmetry_space_group_name_H-M	'P1'
_symmetry_Int_Tables_number	1
_symmetry_cell_setting	triclinic
loop_
_symmetry_equiv_pos_as_xyz
  x,y,z
_cell_length_a	16.109301
_cell_length_b	17.019294
_cell_length_c	14.586319
_cell_angle_alpha	86.117240
_cell_angle_beta	89.999213
_cell_angle_gamma	83.427968
loop_
_atom_site_label
_atom_site_type_symbol
_atom_site_fract_x
_atom_site_fract_y
_atom_site_fract_z
O1	O	1.103039	0.101395	-0.084186
O2	O	1.603039	0.601395	0.415814
O3	O	0.860966	0.114013	-0.085196
O4	O	1.360966	0.614013	0.414804
O5	O	0.988756	-0.007130	-0.075620
O6	O	1.488756	0.492870	0.424380
O7	O	0.975250	0.222538	-0.093762
O8	O	1.475250	0.722538	0.406238
O9	O	0.988747	-0.007132	0.076861
O10	O	1.488747	0.492868	0.576861
O11	O	0.860957	0.114011	0.067285
O12	O	1.360957	0.614011	0.567285
O13	O	1.103031	0.101393	0.068295
O14	O	1.603031	0.601393	0.568295
Cu15	Cu	0.981993	0.107702	0.081713
Cu16	Cu	1.481993	0.607702	0.581713
Cu17	Cu	0.982004	0.107704	-0.098614
Cu18	Cu	1.482004	0.607704	0.401386
O19	O	0.975241	0.222537	0.058719
O20	O	1.475241	0.722537	0.558719
C21	C	0.829987	0.113501	-0.008917
C22	C	1.329987	0.613501	0.491083
C23	C	0.737693	0.111969	-0.008802
C24	C	1.237693	0.611969	0.491198
C25	C	0.515359	0.180290	-0.014188
C26	C	1.015359	0.680290	0.485812
C27	C	0.428640	0.178844	-0.014068
C28	C	0.928640	0.678844	0.485932
C29	C	0.448644	0.035111	-0.002718
C30	C	0.948644	0.535111	0.497282
C31	C	0.535362	0.036558	-0.002832
C32	C	1.035362	0.536558	0.497168
C33	C	0.568717	0.109150	-0.008571
C34	C	1.068717	0.609150	0.491429
C35	C	0.395280	0.106257	-0.008338
C36	C	0.895280	0.606257	0.491662
C37	C	0.301255	0.104688	-0.008207
C38	C	0.801255	0.604688	0.491793
C39	C	0.662747	0.110718	-0.008700
C40	C	1.162747	0.610718	0.491300
C41	C	0.988239	-0.036520	0.002939
C42	C	1.488239	0.463480	0.502939
C43	C	0.986703	-0.124090	0.009850
C44	C	1.486703	0.375910	0.509850
C45	C	0.985988	-0.165225	-0.070020
C46	C	1.485988	0.334775	0.429980
C47	C	0.984539	-0.247506	-0.063524
C48	C	1.484539	0.252494	0.436476
C49	C	0.983811	-0.288651	0.022844
C50	C	1.483811	0.211349	0.522844
C51	C	0.984524	-0.247510	0.102720
C52	C	1.484524	0.252490	0.602720
C53	C	0.985967	-0.165230	0.096223
C54	C	1.485967	0.334770	0.596223
C55	C	0.979449	-0.537082	0.046619
C56	C	1.479449	-0.037082	0.546619
C57	C	0.978009	-0.619368	0.053111
C58	C	1.478009	-0.119368	0.553111
C59	C	0.978023	-0.619359	-0.113133
C60	C	1.478023	-0.119359	0.386867
C61	C	0.979470	-0.537078	-0.119623
C62	C	1.479470	-0.037078	0.380377
C63	C	0.980178	-0.495944	-0.039747
C64	C	1.480178	0.004056	0.460253
C65	C	0.982333	-0.372755	0.029486
C66	C	1.482333	0.127245	0.529486
C67	C	0.981651	-0.411840	-0.046390
C68	C	1.481651	0.088160	0.453610
C69	C	1.134009	0.101905	-0.007986
C70	C	1.634009	0.601905	0.492014
C71	C	1.226303	0.103437	-0.008107
C72	C	1.726303	0.603437	0.491893
C73	C	0.975757	0.251927	-0.019843
C74	C	1.475757	0.751927	0.480157
C75	C	0.977294	0.339496	-0.026759
C76	C	1.477294	0.839496	0.473241
N77	N	0.981992	0.107700	0.208545
N78	N	1.481992	0.607700	0.708545
N79	N	0.982011	0.107700	-0.225445
N80	N	1.482011	0.607700	0.274555
C81	C	1.038596	0.054076	0.447790
C82	C	1.538596	0.554076	0.947790
C83	C	1.038598	0.054074	0.543771
C84	C	1.538598	0.554074	1.043771
C85	C	0.925401	0.161327	0.535303
C86	C	1.425401	0.661327	1.035303
C87	C	0.925396	0.161324	0.439323
C88	C	1.425396	0.661324	0.939323
C89	C	0.981998	0.107700	0.395569
C90	C	1.481998	0.607700	0.895569
C91	C	0.982006	0.107700	0.587530
C92	C	1.482006	0.607700	1.087530
C93	C	0.982008	0.107699	0.691597
C94	C	1.482008	0.607699	1.191597
C95	C	0.981995	0.107700	0.291496
C96	C	1.481995	0.607700	0.791496
H97	H	0.578808	-0.021377	0.001745
H98	H	1.078808	0.478623	0.501745
Cl99	Cl	0.854234	0.228739	0.373669
Cl100	Cl	1.354234	0.728739	0.873669
Cl101	Cl	1.109751	-0.013344	0.609417
Cl102	Cl	1.609751	0.486656	1.109417
H103	H	0.982238	-0.378336	-0.116710
H104	H	1.482238	0.121664	0.383290
H105	H	0.385200	0.236773	-0.018639
H106	H	0.885200	0.736773	0.481361
Cl107	Cl	0.557289	0.271548	-0.021398
Cl108	Cl	1.057289	0.771548	0.478602
Cl109	Cl	0.986909	-0.113509	-0.178602
Cl110	Cl	1.486909	0.386491	0.321398
H111	H	1.084683	0.010410	0.412168
H112	H	1.584683	0.510410	0.912168
H113	H	0.980042	-0.503603	0.111660
H114	H	1.480042	-0.003603	0.611660
Cl115	Cl	0.986864	-0.113517	0.196635
Cl116	Cl	1.486864	0.386483	0.696635
H117	H	0.421476	-0.023991	0.001960
H118	H	0.921476	0.476009	0.501960
H119	H	0.983960	-0.280995	-0.128562
H120	H	1.483960	0.219005	0.371438
H121	H	0.980064	-0.503584	-0.189952
H122	H	1.480064	-0.003584	0.310048
Cl123	Cl	0.977131	-0.671075	-0.213542
Cl124	Cl	1.477131	-0.171075	0.286458
Cl125	Cl	0.981414	-0.424486	0.138059
Cl126	Cl	1.481414	0.075514	0.638059
H127	H	0.977412	-0.652866	0.123445
H128	H	1.477412	-0.152866	0.623445
Cl129	Cl	0.983599	-0.299233	0.211296
Cl130	Cl	1.483599	0.200767	0.711296
Cl131	Cl	0.854251	0.228741	0.590312
Cl132	Cl	1.354251	0.728741	1.090312
