data_functionalizedCrystal
_audit_creation_method	'MofGen! by Chris Wilmer'
_symmetry_space_group_name_H-M	'P1'
_symmetry_Int_Tables_number	1
_symmetry_cell_setting	triclinic
loop_
_symmetry_equiv_pos_as_xyz
  x,y,z
_cell_length_a	12.811438
_cell_length_b	14.044220
_cell_length_c	11.892095
_cell_angle_alpha	94.243827
_cell_angle_beta	80.666371
_cell_angle_gamma	88.595284
loop_
_atom_site_label
_atom_site_type_symbol
_atom_site_fract_x
_atom_site_fract_y
_atom_site_fract_z
O1	O	1.420301	0.112339	-0.239597
O2	O	1.113964	0.128242	-0.208198
O3	O	1.262534	-0.017681	-0.223415
O4	O	1.271731	0.258262	-0.224380
O5	O	1.250144	-0.005533	-0.034139
O6	O	1.101574	0.140390	-0.018922
O7	O	1.407912	0.124487	-0.050321
Zn8	Zn	1.252776	0.134367	-0.004570
Zn9	Zn	1.269100	0.118361	-0.253950
O10	O	1.259342	0.270410	-0.035104
C11	C	1.068328	0.133797	-0.109517
C12	C	0.950804	0.132240	-0.097471
C13	C	0.778406	0.136667	0.022676
C14	C	0.888830	0.138131	0.011363
C15	C	0.902346	0.124887	-0.194998
C16	C	0.791922	0.123423	-0.183684
C17	C	0.729956	0.129312	-0.074844
C18	C	0.619530	0.127841	-0.063531
C19	C	0.633048	0.114604	-0.269891
C20	C	0.743472	0.116068	-0.281204
C21	C	1.252313	-0.046911	-0.128364
C22	C	1.240306	-0.152105	-0.127132
C23	C	1.218355	-0.344709	-0.124898
C24	C	1.303517	-0.402569	-0.133631
C25	C	1.291303	-0.509740	-0.132388
C26	C	1.230567	-0.237527	-0.126141
C27	C	1.453548	0.118931	-0.149004
C28	C	1.571073	0.120488	-0.161058
C29	C	1.269562	0.299639	-0.130158
C30	C	1.281570	0.404833	-0.131397
N31	N	1.241644	0.145290	0.165625
N32	N	1.280240	0.107431	-0.424145
C33	C	1.357700	0.031371	0.390386
C34	C	1.349927	0.039012	0.509524
C35	C	1.218319	0.168210	0.523041
C36	C	1.226092	0.160568	0.403903
C37	C	1.295786	0.092147	0.337579
C38	C	1.303565	0.084511	0.218439
C39	C	1.171951	0.213703	0.231959
C40	C	1.164178	0.221345	0.351097
H41	H	0.593588	0.108618	-0.349299
H42	H	1.400342	-0.010479	0.552515
H43	H	1.107431	0.277050	0.405112
C44	C	0.969448	0.118553	-0.313258
C45	C	0.903385	0.111828	-0.396248
C46	C	0.965160	0.106012	-0.505202
H47	H	1.015683	0.063614	-0.322423
H48	H	1.009920	0.174124	-0.321712
H49	H	0.862930	0.056263	-0.387798
H50	H	0.857149	0.166761	-0.387121
H51	H	1.005632	0.161583	-0.513656
H52	H	1.011393	0.051072	-0.514354
H53	H	0.920345	0.101457	-0.561524
C54	C	1.142539	0.242506	0.594870
C55	C	1.089952	0.294082	0.523131
C56	C	1.020119	0.362518	0.589260
H57	H	1.181124	0.284945	0.637086
H58	H	1.092238	0.211499	0.646166
H59	H	1.140245	0.325088	0.471854
H60	H	1.051346	0.251670	0.480915
H61	H	0.969818	0.331510	0.640557
H62	H	1.058713	0.404949	0.631473
H63	H	0.984423	0.397514	0.540596
C64	C	0.552112	0.134376	0.054564
C65	C	0.484095	0.215416	0.067500
C66	C	0.421967	0.221464	0.176271
H67	H	0.596656	0.139022	0.111131
H68	H	0.511544	0.078860	0.062997
H69	H	0.524659	0.270919	0.059078
H70	H	0.439529	0.210789	0.010960
H71	H	0.381399	0.165948	0.184704
H72	H	0.466519	0.226106	0.232829
H73	H	0.375803	0.276444	0.185059
H74	H	1.385604	-0.371621	-0.142120
H75	H	1.136279	-0.375660	-0.116488
H76	H	1.360316	0.028801	0.164438
C77	C	1.433393	-0.043000	0.318571
C78	C	1.485939	-0.094604	0.390319
C79	C	1.555666	-0.163130	0.324206
H80	H	1.483731	-0.012096	0.267229
H81	H	1.394701	-0.085399	0.276407
H82	H	1.524629	-0.052211	0.432462
H83	H	1.435628	-0.125529	0.441660
H84	H	1.516974	-0.205529	0.282043
H85	H	1.605997	-0.132217	0.272867
H86	H	1.591320	-0.198157	0.372878
H87	H	1.121540	0.263195	0.188951
H88	H	0.928273	0.144123	0.090774
C89	C	0.711303	0.143111	0.140939
C90	C	0.777368	0.149882	0.223924
C91	C	0.715591	0.155831	0.332881
H92	H	0.670782	0.087591	0.149507
H93	H	0.665110	0.198089	0.149994
H94	H	0.823542	0.094909	0.214873
H95	H	0.817888	0.205400	0.215393
H96	H	0.669399	0.210809	0.341937
H97	H	0.675074	0.100310	0.341438
H98	H	0.760407	0.160435	0.389200
H99	H	0.793939	0.111277	-0.369819
