data_functionalizedCrystal
_audit_creation_method	'MofGen! by Chris Wilmer'
_symmetry_space_group_name_H-M	'P1'
_symmetry_Int_Tables_number	1
_symmetry_cell_setting	triclinic
loop_
_symmetry_equiv_pos_as_xyz
  x,y,z
_cell_length_a	27.732048
_cell_length_b	27.732046
_cell_length_c	12.503572
_cell_angle_alpha	86.512317
_cell_angle_beta	86.516589
_cell_angle_gamma	97.357683
loop_
_atom_site_label
_atom_site_type_symbol
_atom_site_fract_x
_atom_site_fract_y
_atom_site_fract_z
O1	O	0.643731	-0.054704	-0.089195
O2	O	0.893731	0.195296	0.160805
O3	O	1.143731	0.445296	0.410805
O4	O	1.393731	0.695296	0.660805
O5	O	0.502939	-0.063448	-0.089230
O6	O	0.752939	0.186552	0.160770
O7	O	1.002939	0.436552	0.410770
O8	O	1.252939	0.686552	0.660770
O9	O	0.577707	0.011320	-0.089187
O10	O	0.827707	0.261320	0.160813
O11	O	1.077707	0.511320	0.410813
O12	O	1.327707	0.761320	0.660813
O13	O	0.568963	-0.129472	-0.089238
O14	O	0.818963	0.120528	0.160762
O15	O	1.068963	0.370528	0.410762
O16	O	1.318963	0.620528	0.660762
O17	O	0.572084	0.005688	0.089451
O18	O	0.822084	0.255688	0.339451
O19	O	1.072084	0.505688	0.589451
O20	O	1.322084	0.755688	0.839451
O21	O	0.497316	-0.069080	0.089409
O22	O	0.747316	0.180920	0.339409
O23	O	0.997316	0.430920	0.589409
O24	O	1.247316	0.680920	0.839409
O25	O	0.638108	-0.060336	0.089443
O26	O	0.888108	0.189664	0.339443
O27	O	1.138108	0.439664	0.589443
O28	O	1.388108	0.689664	0.839443
Cu29	Cu	0.567198	-0.065222	0.105737
Cu30	Cu	0.817198	0.184778	0.355737
Cu31	Cu	1.067198	0.434778	0.605737
Cu32	Cu	1.317198	0.684778	0.855737
Cu33	Cu	0.573848	-0.058562	-0.105524
Cu34	Cu	0.823848	0.191438	0.144476
Cu35	Cu	1.073848	0.441438	0.394476
Cu36	Cu	1.323848	0.691438	0.644476
O37	O	0.563340	-0.135104	0.089401
O38	O	0.813340	0.114896	0.339401
O39	O	1.063340	0.364896	0.589401
O40	O	1.313340	0.614896	0.839401
C41	C	0.482120	-0.066081	0.000085
C42	C	0.732120	0.183919	0.250085
C43	C	0.982120	0.433919	0.500085
C44	C	1.232120	0.683919	0.750085
C45	C	0.428466	-0.065527	0.000073
C46	C	0.678466	0.184473	0.250073
C47	C	0.928466	0.434473	0.500073
C48	C	1.178466	0.684473	0.750073
C49	C	0.089650	-0.106232	0.000105
C50	C	0.339650	0.143768	0.250105
C51	C	0.589650	0.393768	0.500105
C52	C	0.839650	0.643768	0.750105
C53	C	-0.112010	-0.104181	0.000116
C54	C	0.137990	0.145819	0.250116
C55	C	0.387990	0.395819	0.500116
C56	C	0.637990	0.645819	0.750116
O57	O	-0.143267	-0.141403	0.000149
O58	O	0.106733	0.108597	0.250149
O59	O	0.356733	0.358597	0.500149
O60	O	0.606733	0.608597	0.750149
N61	N	-0.131134	-0.059847	0.000130
N62	N	0.118866	0.190153	0.250130
N63	N	0.368866	0.440153	0.500130
N64	N	0.618866	0.690153	0.750130
C65	C	-0.099840	-0.016022	0.000148
C66	C	0.150160	0.233978	0.250148
C67	C	0.400160	0.483978	0.500148
C68	C	0.650160	0.733978	0.750148
O69	O	-0.120733	0.021735	0.000171
O70	O	0.129267	0.271735	0.250171
O71	O	0.379267	0.521735	0.500171
O72	O	0.629267	0.771735	0.750171
C73	C	0.101819	-0.018073	0.000145
C74	C	0.351819	0.231927	0.250145
C75	C	0.601819	0.481927	0.500145
C76	C	0.851819	0.731927	0.750145
C77	C	0.120940	-0.062410	0.000120
C78	C	0.370940	0.187590	0.250120
C79	C	0.620940	0.437590	0.500120
C80	C	0.870940	0.687590	0.750120
C81	C	0.108771	-0.150566	0.000082
C82	C	0.358771	0.099434	0.250082
C83	C	0.608771	0.349434	0.500082
C84	C	0.858771	0.599434	0.750082
C85	C	0.159184	-0.151078	0.000073
C86	C	0.409184	0.098922	0.250073
C87	C	0.659184	0.348922	0.500073
C88	C	0.909184	0.598922	0.750073
C89	C	0.190474	-0.107256	0.000088
C90	C	0.440474	0.142744	0.250088
C91	C	0.690474	0.392744	0.500088
C92	C	0.940474	0.642744	0.750088
C93	C	0.171352	-0.062922	0.000112
C94	C	0.421352	0.187078	0.250112
C95	C	0.671352	0.437078	0.500112
C96	C	0.921352	0.687078	0.750112
C97	C	0.133112	0.025751	0.000171
C98	C	0.383112	0.275751	0.250171
C99	C	0.633112	0.525751	0.500171
C100	C	0.883112	0.775751	0.750171
C101	C	0.183529	0.025234	0.000173
C102	C	0.433529	0.275234	0.250173
C103	C	0.683529	0.525234	0.500173
C104	C	0.933529	0.775234	0.750173
C105	C	0.202650	-0.019103	0.000149
C106	C	0.452650	0.230897	0.250149
C107	C	0.702650	0.480897	0.500149
C108	C	0.952650	0.730897	0.750149
C109	C	0.253055	-0.019613	0.000119
C110	C	0.503055	0.230387	0.250119
C111	C	0.753055	0.480387	0.500119
C112	C	1.003055	0.730387	0.750119
N113	N	0.272179	-0.063947	0.000105
N114	N	0.522179	0.186053	0.250105
N115	N	0.772179	0.436053	0.500105
N116	N	1.022179	0.686053	0.750105
C117	C	0.240888	-0.107769	0.000090
C118	C	0.490888	0.142231	0.250090
C119	C	0.740888	0.392231	0.500090
C120	C	0.990888	0.642231	0.750090
C121	C	-0.205714	-0.014948	0.000147
C122	C	0.044286	0.235052	0.250147
C123	C	0.294286	0.485052	0.500147
C124	C	0.544286	0.735052	0.750147
C125	C	-0.256128	-0.014435	0.000146
C126	C	-0.006128	0.235565	0.250146
C127	C	0.243872	0.485565	0.500146
C128	C	0.493872	0.735565	0.750146
C129	C	-0.268295	-0.102595	0.000116
C130	C	-0.018295	0.147405	0.250116
C131	C	0.231705	0.397405	0.500116
C132	C	0.481705	0.647405	0.750116
C133	C	-0.217880	-0.103107	0.000109
C134	C	0.032120	0.146893	0.250109
C135	C	0.282120	0.396893	0.500109
C136	C	0.532120	0.646893	0.750109
C137	C	-0.186590	-0.059282	0.000133
C138	C	0.063410	0.190718	0.250133
C139	C	0.313410	0.440718	0.500133
C140	C	0.563410	0.690718	0.750133
C141	C	0.346758	-0.108841	0.000071
C142	C	0.596758	0.141159	0.250071
C143	C	0.846758	0.391159	0.500071
C144	C	1.096758	0.641159	0.750071
C145	C	0.397176	-0.109349	0.000058
C146	C	0.647176	0.140651	0.250058
C147	C	0.897176	0.390651	0.500058
C148	C	1.147176	0.640651	0.750058
C149	C	0.409338	-0.021189	0.000094
C150	C	0.659338	0.228811	0.250094
C151	C	0.909338	0.478811	0.500094
C152	C	1.159338	0.728811	0.750094
C153	C	0.358925	-0.020681	0.000101
C154	C	0.608925	0.229319	0.250101
C155	C	0.858925	0.479319	0.500101
C156	C	1.108925	0.729319	0.750101
C157	C	0.327636	-0.064511	0.000093
C158	C	0.577636	0.185489	0.250093
C159	C	0.827636	0.435489	0.500093
C160	C	1.077636	0.685489	0.750093
O161	O	0.284340	0.017589	0.000098
O162	O	0.534340	0.267589	0.250098
O163	O	0.784340	0.517589	0.500098
O164	O	1.034340	0.767589	0.750098
O165	O	0.261791	-0.145521	0.000090
O166	O	0.511791	0.104479	0.250090
O167	O	0.761791	0.354479	0.500090
O168	O	1.011791	0.604479	0.750090
C169	C	0.039237	-0.105720	0.000114
C170	C	0.289237	0.144280	0.250114
C171	C	0.539237	0.394280	0.500114
C172	C	0.789237	0.644280	0.750114
C173	C	0.020116	-0.061386	0.000137
C174	C	0.270116	0.188614	0.250137
C175	C	0.520116	0.438614	0.500137
C176	C	0.770116	0.688614	0.750137
C177	C	0.051406	-0.017565	0.000153
C178	C	0.301406	0.232435	0.250153
C179	C	0.551406	0.482435	0.500153
C180	C	0.801406	0.732435	0.750153
C181	C	-0.030299	-0.060873	0.000136
C182	C	0.219701	0.189127	0.250136
C183	C	0.469701	0.439127	0.500136
C184	C	0.719701	0.689127	0.750136
C185	C	-0.061589	-0.104695	0.000121
C186	C	0.188411	0.145305	0.250121
C187	C	0.438411	0.395305	0.500121
C188	C	0.688411	0.645305	0.750121
C189	C	-0.042465	-0.149030	0.000107
C190	C	0.207535	0.100970	0.250107
C191	C	0.457535	0.350970	0.500107
C192	C	0.707535	0.600970	0.750107
C193	C	0.007947	-0.149542	0.000098
C194	C	0.257947	0.100458	0.250098
C195	C	0.507947	0.350458	0.500098
C196	C	0.757947	0.600458	0.750098
C197	C	0.032282	0.026770	0.000166
C198	C	0.282282	0.276770	0.250166
C199	C	0.532282	0.526770	0.500166
C200	C	0.782282	0.776770	0.750166
C201	C	-0.018130	0.027279	0.000174
C202	C	0.231870	0.277279	0.250174
C203	C	0.481870	0.527279	0.500174
C204	C	0.731870	0.777279	0.750174
C205	C	-0.049421	-0.016543	0.000158
C206	C	0.200579	0.233457	0.250158
C207	C	0.450579	0.483457	0.500158
C208	C	0.700579	0.733457	0.750158
C209	C	0.574712	0.026511	0.000136
C210	C	0.824712	0.276511	0.250136
C211	C	1.074712	0.526511	0.500136
C212	C	1.324712	0.776511	0.750136
C213	C	0.574159	0.080165	0.000147
C214	C	0.824159	0.330165	0.250147
C215	C	1.074159	0.580165	0.500147
C216	C	1.324159	0.830165	0.750147
C217	C	0.614866	0.418982	0.000120
C218	C	0.864866	0.668982	0.250120
C219	C	1.114866	0.918982	0.500120
C220	C	1.364866	1.168982	0.750120
C221	C	0.612816	0.620642	0.000115
C222	C	0.862816	0.870642	0.250115
C223	C	1.112816	1.120642	0.500115
C224	C	1.362816	1.370642	0.750115
O225	O	0.650038	0.651898	0.000079
O226	O	0.900038	0.901898	0.250079
O227	O	1.150038	1.151898	0.500079
O228	O	1.400038	1.401898	0.750079
N229	N	0.568482	0.639766	0.000106
N230	N	0.818482	0.889766	0.250106
N231	N	1.068482	1.139766	0.500106
N232	N	1.318482	1.389766	0.750106
C233	C	0.524656	0.608471	0.000092
C234	C	0.774656	0.858471	0.250092
C235	C	1.024656	1.108471	0.500092
C236	C	1.274656	1.358471	0.750092
O237	O	0.486900	0.629365	0.000073
O238	O	0.736900	0.879365	0.250073
O239	O	0.986900	1.129365	0.500073
O240	O	1.236900	1.379365	0.750073
C241	C	0.526707	0.406813	0.000089
C242	C	0.776707	0.656813	0.250089
C243	C	1.026707	0.906813	0.500089
C244	C	1.276707	1.156813	0.750089
C245	C	0.571044	0.387691	0.000108
C246	C	0.821044	0.637691	0.250108
C247	C	1.071044	0.887691	0.500108
C248	C	1.321044	1.137691	0.750108
C249	C	0.659200	0.399860	0.000138
C250	C	0.909200	0.649860	0.250138
C251	C	1.159200	0.899860	0.500138
C252	C	1.409200	1.149860	0.750138
C253	C	0.659712	0.349447	0.000145
C254	C	0.909712	0.599447	0.250145
C255	C	1.159712	0.849447	0.500145
C256	C	1.409712	1.099447	0.750145
C257	C	0.615890	0.318157	0.000134
C258	C	0.865890	0.568157	0.250134
C259	C	1.115890	0.818157	0.500134
C260	C	1.365890	1.068157	0.750134
C261	C	0.571556	0.337279	0.000116
C262	C	0.821556	0.587279	0.250116
C263	C	1.071556	0.837279	0.500116
C264	C	1.321556	1.087279	0.750116
C265	C	0.482882	0.375520	0.000067
C266	C	0.732882	0.625520	0.250067
C267	C	0.982882	0.875520	0.500067
C268	C	1.232882	1.125520	0.750067
C269	C	0.483399	0.325102	0.000063
C270	C	0.733399	0.575102	0.250063
C271	C	0.983399	0.825102	0.500063
C272	C	1.233399	1.075102	0.750063
C273	C	0.527736	0.305981	0.000083
C274	C	0.777736	0.555981	0.250083
C275	C	1.027736	0.805981	0.500083
C276	C	1.277736	1.055981	0.750083
C277	C	0.528246	0.255576	0.000111
C278	C	0.778246	0.505576	0.250111
C279	C	1.028246	0.755576	0.500111
C280	C	1.278246	1.005576	0.750111
N281	N	0.572580	0.236452	0.000120
N282	N	0.822580	0.486452	0.250120
N283	N	1.072580	0.736452	0.500120
N284	N	1.322580	0.986452	0.750120
C285	C	0.616402	0.267743	0.000131
C286	C	0.866402	0.517743	0.250131
C287	C	1.116402	0.767743	0.500131
C288	C	1.366402	1.017743	0.750131
C289	C	0.523583	0.714345	0.000095
C290	C	0.773583	0.964345	0.250095
C291	C	1.023583	1.214345	0.500095
C292	C	1.273583	1.464345	0.750095
C293	C	0.523070	0.764760	0.000098
C294	C	0.773070	1.014760	0.250098
C295	C	1.023070	1.264760	0.500098
C296	C	1.273070	1.514760	0.750098
C297	C	0.611230	0.776927	0.000119
C298	C	0.861230	1.026927	0.250119
C299	C	1.111230	1.276927	0.500119
C300	C	1.361230	1.526927	0.750119
C301	C	0.611743	0.726511	0.000124
C302	C	0.861743	0.976511	0.250124
C303	C	1.111743	1.226511	0.500124
C304	C	1.361743	1.476511	0.750124
C305	C	0.567918	0.695221	0.000104
C306	C	0.817918	0.945221	0.250104
C307	C	1.067918	1.195221	0.500104
C308	C	1.317918	1.445221	0.750104
C309	C	0.617474	0.161873	0.000147
C310	C	0.867474	0.411873	0.250147
C311	C	1.117474	0.661873	0.500147
C312	C	1.367474	0.911873	0.750147
C313	C	0.617981	0.111456	0.000159
C314	C	0.867981	0.361456	0.250159
C315	C	1.117981	0.611456	0.500159
C316	C	1.367981	0.861456	0.750159
C317	C	0.529822	0.099293	0.000132
C318	C	0.779822	0.349293	0.250132
C319	C	1.029822	0.599293	0.500132
C320	C	1.279822	0.849293	0.750132
C321	C	0.529313	0.149706	0.000126
C322	C	0.779313	0.399706	0.250126
C323	C	1.029313	0.649706	0.500126
C324	C	1.279313	0.899706	0.750126
C325	C	0.573144	0.180995	0.000130
C326	C	0.823144	0.430995	0.250130
C327	C	1.073144	0.680995	0.500130
C328	C	1.323144	0.930995	0.750130
O329	O	0.491044	0.224292	0.000136
O330	O	0.741044	0.474292	0.250136
O331	O	0.991044	0.724292	0.500136
O332	O	1.241044	0.974292	0.750136
O333	O	0.654154	0.246840	0.000126
O334	O	0.904154	0.496840	0.250126
O335	O	1.154154	0.746840	0.500126
O336	O	1.404154	0.996840	0.750126
C337	C	0.614354	0.469394	0.000113
C338	C	0.864354	0.719394	0.250113
C339	C	1.114354	0.969394	0.500113
C340	C	1.364354	1.219394	0.750113
C341	C	0.570021	0.488516	0.000094
C342	C	0.820021	0.738516	0.250094
C343	C	1.070021	0.988516	0.500094
C344	C	1.320021	1.238516	0.750094
C345	C	0.526199	0.457225	0.000083
C346	C	0.776199	0.707225	0.250083
C347	C	1.026199	0.957225	0.500083
C348	C	1.276199	1.207225	0.750083
C349	C	0.569508	0.538930	0.000097
C350	C	0.819508	0.788930	0.250097
C351	C	1.069508	1.038930	0.500097
C352	C	1.319508	1.288930	0.750097
C353	C	0.613330	0.570220	0.000108
C354	C	0.863330	0.820220	0.250108
C355	C	1.113330	1.070220	0.500108
C356	C	1.363330	1.320220	0.750108
C357	C	0.657665	0.551096	0.000117
C358	C	0.907665	0.801096	0.250117
C359	C	1.157665	1.051096	0.500117
C360	C	1.407665	1.301096	0.750117
C361	C	0.658176	0.500684	0.000124
C362	C	0.908176	0.750684	0.250124
C363	C	1.158176	1.000684	0.500124
C364	C	1.408176	1.250684	0.750124
C365	C	0.481864	0.476349	0.000074
C366	C	0.731864	0.726349	0.250074
C367	C	0.981864	0.976349	0.500074
C368	C	1.231864	1.226349	0.750074
C369	C	0.481356	0.526762	0.000068
C370	C	0.731356	0.776762	0.250068
C371	C	0.981356	1.026762	0.500068
C372	C	1.231356	1.276762	0.750068
C373	C	0.525178	0.558052	0.000080
C374	C	0.775178	0.808052	0.250080
C375	C	1.025178	1.058052	0.500080
C376	C	1.275178	1.308052	0.750080
C377	C	0.658927	-0.057703	0.000126
C378	C	0.908927	0.192297	0.250126
C379	C	1.158927	0.442297	0.500126
C380	C	1.408927	0.692297	0.750126
C381	C	0.712581	-0.058256	0.000131
C382	C	0.962581	0.191744	0.250131
C383	C	1.212581	0.441744	0.500131
C384	C	1.462581	0.691744	0.750131
N385	N	0.562525	-0.069907	0.254327
N386	N	0.812525	0.180093	0.504327
N387	N	1.062525	0.430093	0.754327
N388	N	1.312525	0.680093	1.004327
C389	C	0.566336	0.849705	0.000088
C390	C	0.816336	1.099705	0.250088
C391	C	1.066336	1.349705	0.500088
C392	C	1.316336	1.599705	0.750088
C393	C	0.566892	0.796050	0.000109
C394	C	0.816892	1.046050	0.250109
C395	C	1.066892	1.296050	0.500109
C396	C	1.316892	1.546050	0.750109
N397	N	0.578526	-0.053873	-0.254113
N398	N	0.828526	0.196127	-0.004113
N399	N	1.078526	0.446127	0.245887
N400	N	1.328526	0.696127	0.495887
C401	C	0.555649	-0.076802	0.473438
C402	C	0.805649	0.173198	0.723438
C403	C	1.055649	0.423198	0.973438
C404	C	1.305649	0.673198	1.223438
C405	C	0.585400	-0.046980	0.526782
C406	C	0.835400	0.203020	0.776782
C407	C	1.085400	0.453020	1.026782
C408	C	1.335400	0.703020	1.276782
C409	C	0.581574	-0.050816	0.648703
C410	C	0.831574	0.199184	0.898703
C411	C	1.081574	0.449184	1.148703
C412	C	1.331574	0.699184	1.398703
C413	C	0.559474	-0.072966	0.351506
C414	C	0.809474	0.177034	0.601506
C415	C	1.059474	0.427034	0.851506
C416	C	1.309474	0.677034	1.101506
H417	H	0.412741	-0.145455	0.000037
H418	H	0.662741	0.104545	0.250037
H419	H	0.912741	0.354545	0.500037
H420	H	1.162741	0.604545	0.750037
H421	H	0.486966	0.780323	0.000101
H422	H	0.736966	1.030323	0.250101
H423	H	0.986966	1.280323	0.500101
H424	H	1.236966	1.530323	0.750101
H425	H	0.057755	0.062456	0.000182
H426	H	0.307755	0.312456	0.250182
H427	H	0.557755	0.562456	0.500182
H428	H	0.807755	0.812456	0.750182
H429	H	0.527309	-0.105214	0.519329
H430	H	0.777309	0.144786	0.769329
H431	H	1.027309	0.394786	1.019329
H432	H	1.277309	0.644786	1.269329
H433	H	0.613743	-0.018567	0.480885
H434	H	0.863743	0.231433	0.730885
H435	H	1.113743	0.481433	0.980885
H436	H	1.363743	0.731433	1.230885
H437	H	0.445248	0.542325	0.000062
H438	H	0.695248	0.792325	0.250062
H439	H	0.945248	1.042325	0.500062
H440	H	1.195248	1.292325	0.750062
Br441	Br	-0.191935	-0.163281	0.000076
Br442	Br	0.058065	0.086719	0.250076
Br443	Br	0.308065	0.336719	0.500076
Br444	Br	0.558065	0.586719	0.750076
Br445	Br	0.678158	0.085509	0.000186
Br446	Br	0.928158	0.335509	0.250186
Br447	Br	1.178158	0.585509	0.500186
Br448	Br	1.428158	0.835509	0.750186
H449	H	0.695816	0.333884	0.000157
H450	H	0.945816	0.583884	0.250157
H451	H	1.195816	0.833884	0.500157
H452	H	1.445816	1.083884	0.750157
Br453	Br	-0.282071	0.045741	0.000147
Br454	Br	-0.032071	0.295741	0.250147
Br455	Br	0.217929	0.545741	0.500147
Br456	Br	0.467929	0.795741	0.750147
Br457	Br	0.304302	-0.168325	0.000062
Br458	Br	0.554302	0.081675	0.250062
Br459	Br	0.804302	0.331675	0.500062
Br460	Br	1.054302	0.581675	0.750062
H461	H	-0.293781	-0.138276	0.000103
H462	H	-0.043781	0.111724	0.250103
H463	H	0.206219	0.361724	0.500103
H464	H	0.456219	0.611724	0.750103
Br465	Br	0.185125	-0.211253	0.000044
Br466	Br	0.435125	0.038747	0.250044
Br467	Br	0.685125	0.288747	0.500044
Br468	Br	0.935125	0.538747	0.750044
Br469	Br	0.718352	0.474742	0.000144
Br470	Br	0.968352	0.724742	0.250144
Br471	Br	1.218352	0.974742	0.500144
Br472	Br	1.468352	1.224742	0.750144
Br473	Br	0.670703	0.819402	0.000132
Br474	Br	0.920703	1.069402	0.250132
Br475	Br	1.170703	1.319402	0.500132
Br476	Br	1.420703	1.569402	0.750132
H477	H	-0.180241	0.020742	0.000167
H478	H	0.069759	0.270742	0.250167
H479	H	0.319759	0.520742	0.500167
H480	H	0.569759	0.770742	0.750167
Br481	Br	0.676958	0.204329	0.000151
Br482	Br	0.926958	0.454329	0.250151
Br483	Br	1.176958	0.704329	0.500151
Br484	Br	1.426958	0.954329	0.750151
Br485	Br	0.671916	0.700566	0.000153
Br486	Br	0.921916	0.950566	0.250153
Br487	Br	1.171916	1.200566	0.500153
Br488	Br	1.421916	1.450566	0.750153
H489	H	0.083299	-0.186253	0.000073
H490	H	0.333299	0.063747	0.250073
H491	H	0.583299	0.313747	0.500073
H492	H	0.833299	0.563747	0.750073
Br493	Br	0.422385	0.433891	0.000053
Br494	Br	0.672385	0.683891	0.250053
Br495	Br	0.922385	0.933891	0.500053
Br496	Br	1.172385	1.183891	0.750053
H497	H	0.117553	0.061855	0.000193
H498	H	0.367553	0.311855	0.250193
H499	H	0.617553	0.561855	0.500193
H500	H	0.867553	0.811855	0.750193
H501	H	0.693346	0.576582	0.000131
H502	H	0.943346	0.826582	0.250131
H503	H	1.193346	1.076582	0.500131
H504	H	1.443346	1.326582	0.750131
Br505	Br	0.225991	0.084714	0.000212
Br506	Br	0.475991	0.334714	0.250212
Br507	Br	0.725991	0.584714	0.500212
Br508	Br	0.975991	0.834714	0.750212
H509	H	0.487893	0.688873	0.000079
H510	H	0.737893	0.938873	0.250079
H511	H	0.987893	1.188873	0.500079
H512	H	1.237893	1.438873	0.750079
Br513	Br	0.332974	0.039491	0.000138
Br514	Br	0.582974	0.289491	0.250138
Br515	Br	0.832974	0.539491	0.500138
Br516	Br	1.082974	0.789491	0.750138
Br517	Br	0.423919	0.282640	0.000031
Br518	Br	0.673919	0.532640	0.250031
Br519	Br	0.923919	0.782640	0.500031
Br520	Br	1.173919	1.032640	0.750031
Br521	Br	0.469140	0.175657	0.000124
Br522	Br	0.719140	0.425657	0.250124
Br523	Br	0.969140	0.675657	0.500124
Br524	Br	1.219140	0.925657	0.750124
H525	H	0.446778	0.391079	0.000044
H526	H	0.696778	0.641079	0.250044
H527	H	0.946778	0.891079	0.500044
H528	H	1.196778	1.141079	0.750044
Br529	Br	0.470352	0.056819	0.000117
Br530	Br	0.720352	0.306819	0.250117
Br531	Br	0.970352	0.556819	0.500117
Br532	Br	1.220352	0.806819	0.750117
H533	H	0.023510	-0.185646	0.000080
H534	H	0.273510	0.064354	0.250080
H535	H	0.523510	0.314354	0.500080
H536	H	0.773510	0.564354	0.750080
Br537	Br	-0.044073	0.087457	0.000189
Br538	Br	0.205927	0.337457	0.250189
Br539	Br	0.455927	0.587457	0.500189
Br540	Br	0.705927	0.837457	0.750189
Br541	Br	-0.084941	-0.208501	0.000078
Br542	Br	0.165059	0.041499	0.250078
Br543	Br	0.415059	0.291499	0.500078
Br544	Br	0.665059	0.541499	0.750078
H545	H	0.694887	0.425332	0.000144
H546	H	0.944887	0.675332	0.250144
H547	H	1.194887	0.925332	0.500144
H548	H	1.444887	1.175332	0.750144
H549	H	0.434824	0.014489	0.000102
H550	H	0.684824	0.264489	0.250102
H551	H	0.934824	0.514489	0.500102
H552	H	1.184824	0.764489	0.750102
