data_functionalizedCrystal
_audit_creation_method	'MofGen! by Chris Wilmer'
_symmetry_space_group_name_H-M	'P1'
_symmetry_Int_Tables_number	1
_symmetry_cell_setting	triclinic
loop_
_symmetry_equiv_pos_as_xyz
  x,y,z
_cell_length_a	21.395362
_cell_length_b	16.120484
_cell_length_c	16.120728
_cell_angle_alpha	84.367400
_cell_angle_beta	87.131132
_cell_angle_gamma	92.942400
loop_
_atom_site_label
_atom_site_type_symbol
_atom_site_fract_x
_atom_site_fract_y
_atom_site_fract_z
Zn1	Zn	0.925525	-0.356589	0.489864
Zn2	Zn	0.925467	-0.489235	0.357173
Zn3	Zn	0.826366	-0.349513	0.350065
Zn4	Zn	0.815125	-0.496360	0.496849
O5	O	0.873121	-0.422924	0.423488
O6	O	1.013194	-0.374164	0.472314
O7	O	0.917001	-0.464757	0.239268
O8	O	0.844249	-0.233483	0.362712
O9	O	1.013151	-0.471618	0.374826
O10	O	0.917100	-0.238681	0.465422
O11	O	0.844192	-0.362104	0.234046
O12	O	0.737198	-0.369013	0.369485
O13	O	0.825090	-0.483763	0.612884
O14	O	0.728940	-0.476901	0.477327
O15	O	0.906200	-0.381073	0.607753
O16	O	0.906101	-0.607149	0.381599
O17	O	0.825034	-0.612384	0.484219
C18	C	0.710335	-0.422963	0.423393
C19	C	0.640693	-0.423001	0.423373
C20	C	0.864358	-0.640096	0.434456
C21	C	0.860665	-0.733004	0.439177
C22	C	0.603697	-0.479245	0.479450
C23	C	0.538261	-0.479227	0.479486
C24	C	0.509824	-0.422972	0.423431
C25	C	0.546829	-0.366718	0.367350
C26	C	0.612264	-0.366732	0.367321
C27	C	0.409397	-0.412409	0.347846
C28	C	0.343964	-0.412400	0.347874
C29	C	0.308002	-0.422922	0.423521
C30	C	0.337481	-0.433471	0.499144
C31	C	0.402915	-0.433485	0.499115
C32	C	0.438872	-0.422950	0.423457
C33	C	0.200052	-0.479149	0.479642
C34	C	0.134615	-0.479125	0.479679
C35	C	0.143184	-0.366620	0.367535
C36	C	0.208620	-0.366640	0.367505
C37	C	0.237050	-0.422909	0.423558
C38	C	0.853926	-0.903109	0.447812
C39	C	0.892428	-0.941899	0.399177
C40	C	0.888678	-1.036551	0.403982
C41	C	0.857674	-0.808449	0.443008
C42	C	1.036542	-0.422885	0.423583
C43	C	1.106182	-0.422869	0.423624
C44	C	0.864398	-0.434002	0.641493
C45	C	0.860681	-0.438723	0.734394
C46	C	0.881935	-0.204905	0.412495
C47	C	0.885691	-0.111999	0.407810
C48	C	0.853872	-0.447323	0.904484
C49	C	0.892348	-0.398606	0.943347
C50	C	0.888559	-0.403391	1.037990
C51	C	0.857659	-0.442539	0.809832
C52	C	0.881809	-0.411912	1.206331
C53	C	0.885541	-0.407203	1.113431
H54	H	0.626840	-0.525063	0.525093
H55	H	0.642387	-0.320929	0.321657
F56	F	0.095240	-0.538987	0.539371
H57	H	0.818089	-0.492622	0.942291
F58	F	0.807162	-0.952615	0.506947
H59	H	0.120032	-0.320812	0.321898
H60	H	0.928133	-0.353302	0.905538
H61	H	0.928207	-0.904021	0.353931
H62	H	0.426915	-0.442072	0.560689
F63	F	0.498879	-0.539092	0.539174
F64	F	0.299213	-0.444666	0.579660
H65	H	0.223200	-0.524963	0.525287
H66	H	0.238743	-0.320844	0.321838
H67	H	0.319967	-0.403816	0.286297
H68	H	0.438673	-0.403837	0.286240
H69	H	0.523672	-0.320913	0.321711
