data_functionalizedCrystal
_audit_creation_method	'MofGen! by Chris Wilmer'
_symmetry_space_group_name_H-M	'P1'
_symmetry_Int_Tables_number	1
_symmetry_cell_setting	triclinic
loop_
_symmetry_equiv_pos_as_xyz
  x,y,z
_cell_length_a	10.723024
_cell_length_b	14.519731
_cell_length_c	9.198806
_cell_angle_alpha	90.004419
_cell_angle_beta	90.003396
_cell_angle_gamma	84.078361
loop_
_atom_site_label
_atom_site_type_symbol
_atom_site_fract_x
_atom_site_fract_y
_atom_site_fract_z
O1	O	1.655991	0.129347	0.120887
O2	O	1.989324	0.462680	0.454220
O3	O	2.322658	0.796013	0.787553
O4	O	1.292724	0.141728	0.120892
O5	O	1.626058	0.475061	0.454225
O6	O	1.959391	0.808394	0.787559
O7	O	1.483975	0.001349	0.120876
O8	O	1.817309	0.334682	0.454209
O9	O	2.150642	0.668016	0.787543
O10	O	1.464740	0.269725	0.120903
O11	O	1.798073	0.603058	0.454236
O12	O	2.131407	0.936392	0.787569
O13	O	1.483961	0.001348	-0.120909
O14	O	1.817294	0.334681	0.212424
O15	O	2.150628	0.668015	0.545758
O16	O	1.292710	0.141726	-0.120893
O17	O	1.626043	0.475060	0.212440
O18	O	1.959377	0.808393	0.545774
O19	O	1.655977	0.129345	-0.120898
O20	O	1.989310	0.462679	0.212435
O21	O	2.322644	0.796012	0.545768
Cu22	Cu	1.474342	0.135536	-0.142973
Cu23	Cu	1.807676	0.468869	0.190361
Cu24	Cu	2.141009	0.802202	0.523694
Cu25	Cu	1.474359	0.135537	0.142966
Cu26	Cu	1.807692	0.468870	0.476300
Cu27	Cu	2.141026	0.802204	0.809633
O28	O	1.464726	0.269724	-0.120882
O29	O	1.798059	0.603057	0.212451
O30	O	2.131392	0.936391	0.545784
C31	C	1.483067	-0.033016	-0.000017
C32	C	1.816400	0.300318	0.333316
C33	C	2.149734	0.633651	0.666650
C34	C	1.480366	-0.135410	-0.000018
C35	C	1.813699	0.197924	0.333316
C36	C	2.147033	0.531257	0.666649
C37	C	1.246226	0.140826	-0.000000
C38	C	1.579559	0.474159	0.333333
C39	C	1.912892	0.807493	0.666667
C40	C	1.107697	0.138130	0.000002
C41	C	1.441030	0.471464	0.333335
C42	C	1.774363	0.804797	0.666668
C43	C	0.916714	0.054394	-0.000004
C44	C	1.250047	0.387728	0.333329
C45	C	1.583380	0.721061	0.666663
C46	C	1.059891	0.057179	-0.000006
C47	C	1.393225	0.390512	0.333328
C48	C	1.726558	0.723845	0.666661
C49	C	1.478172	-0.218565	-0.000014
C50	C	1.811505	0.114768	0.333319
C51	C	2.144838	0.448102	0.666652
C52	C	1.475429	-0.322888	-0.000003
C53	C	1.808763	0.010446	0.333330
C54	C	2.142096	0.343779	0.666663
C55	C	1.473253	-0.406038	0.000006
C56	C	1.806586	-0.072705	0.333340
C57	C	2.139920	0.260629	0.666673
C58	C	1.470511	-0.510367	0.000015
C59	C	1.803845	-0.177034	0.333348
C60	C	2.137178	0.156299	0.666681
C61	C	1.702475	0.130247	-0.000003
C62	C	2.035809	0.463580	0.333330
C63	C	2.369142	0.796914	0.666663
C64	C	1.841005	0.132943	0.000005
C65	C	2.174338	0.466276	0.333338
C66	C	2.507671	0.799609	0.666671
C67	C	1.465634	0.304089	0.000014
C68	C	1.798968	0.637422	0.333347
C69	C	2.132301	0.970755	0.666680
C70	C	1.468335	0.406483	0.000024
C71	C	1.801668	0.739816	0.333357
C72	C	2.135002	1.073149	0.666691
N73	N	1.474340	0.135534	-0.344087
N74	N	1.807673	0.468868	-0.010753
N75	N	2.141006	0.802201	0.322580
C76	C	1.554838	0.076466	-0.583694
C77	C	1.888172	0.409799	-0.250361
C78	C	2.221505	0.743132	0.082972
C79	C	1.554822	0.076467	-0.416282
C80	C	1.888155	0.409800	-0.082949
C81	C	2.221489	0.743133	0.250385
N82	N	1.474371	0.135531	0.344080
N83	N	1.807705	0.468865	0.677413
N84	N	2.141038	0.802198	1.010747
H85	H	0.875532	-0.014915	-0.000033
H86	H	1.208866	0.318418	0.333301
H87	H	1.542199	0.651751	0.666634
F88	F	1.384313	0.201636	-0.574752
F89	F	1.717646	0.534969	-0.241418
F90	F	2.050980	0.868303	0.091915
H91	H	1.042649	0.205378	0.000015
H92	H	1.375983	0.538711	0.333348
H93	H	1.709316	0.872044	0.666682
H94	H	1.124946	-0.010065	-0.000004
H95	H	1.458279	0.323268	0.333329
H96	H	1.791612	0.656602	0.666663
F97	F	0.894824	0.223538	0.000002
F98	F	1.228158	0.556872	0.333336
F99	F	1.561491	0.890205	0.666669
F100	F	1.644865	0.010363	-0.335102
F101	F	1.978198	0.343696	-0.001769
F102	F	2.311531	0.677030	0.331565
F103	F	1.644910	0.010369	-0.664859
F104	F	1.978243	0.343702	-0.331526
F105	F	2.311577	0.677036	0.001807
H106	H	1.405440	0.186102	-0.406188
H107	H	1.738774	0.519436	-0.072855
H108	H	2.072107	0.852769	0.260479
