data_functionalizedCrystal
_audit_creation_method	'MofGen! by Chris Wilmer'
_symmetry_space_group_name_H-M	'P1'
_symmetry_Int_Tables_number	1
_symmetry_cell_setting	triclinic
loop_
_symmetry_equiv_pos_as_xyz
  x,y,z
_cell_length_a	12.759400
_cell_length_b	12.759401
_cell_length_c	19.077174
_cell_angle_alpha	92.315374
_cell_angle_beta	92.275311
_cell_angle_gamma	89.988881
loop_
_atom_site_label
_atom_site_type_symbol
_atom_site_fract_x
_atom_site_fract_y
_atom_site_fract_z
Zn1	Zn	-0.442250	-1.630065	-0.397972
Zn2	Zn	-0.610888	-1.622918	-0.280283
Zn3	Zn	-0.435213	-1.447326	-0.280289
Zn4	Zn	-0.617875	-1.454353	-0.397939
O5	O	-0.526556	-1.538666	-0.339121
O6	O	-0.464641	-1.776138	-0.382371
O7	O	-0.581715	-1.593694	-0.181793
O8	O	-0.289126	-1.471617	-0.295916
O9	O	-0.588539	-1.770888	-0.295905
O10	O	-0.294297	-1.605874	-0.382377
O11	O	-0.452647	-1.464687	-0.181798
O12	O	-0.459422	-1.301237	-0.295885
O13	O	-0.600447	-1.483594	-0.496434
O14	O	-0.593623	-1.306400	-0.382322
O15	O	-0.471416	-1.612688	-0.496458
O16	O	-0.758835	-1.600508	-0.295874
O17	O	-0.763968	-1.476664	-0.382316
C18	C	-0.799523	-1.538602	-0.339106
C19	C	-0.916301	-1.538673	-0.339123
C20	C	-0.526518	-1.265697	-0.339101
C21	C	-0.526528	-1.148921	-0.339109
C22	C	-0.537496	-1.549722	-0.522697
C23	C	-0.542158	-1.554434	-0.600927
C24	C	-0.968458	-1.603236	-0.294163
C25	C	-1.078183	-1.603302	-0.294185
C26	C	-1.083584	-1.474233	-0.384129
C27	C	-0.973861	-1.474173	-0.384110
C28	C	-0.910897	-1.667736	-0.249176
C29	C	-0.963054	-1.732303	-0.204211
C30	C	-1.072779	-1.732369	-0.204233
C31	C	-1.130348	-1.667867	-0.249219
C32	C	-0.252525	-1.538759	-0.339151
C33	C	-0.135749	-1.538798	-0.339164
C34	C	-0.456563	-1.091345	-0.294183
C35	C	-0.456584	-0.981621	-0.294189
C36	C	-0.596536	-0.987060	-0.384054
C37	C	-0.596520	-1.096781	-0.384044
C38	C	-0.386571	-1.143484	-0.249248
C39	C	-0.316600	-1.085908	-0.204319
C40	C	-0.316620	-0.976184	-0.204325
C41	C	-0.386612	-0.924037	-0.249261
C42	C	-0.526583	-0.812700	-0.339135
C43	C	-0.526564	-0.929476	-0.339126
C44	C	-0.477151	-1.489483	-0.637681
C45	C	-0.481540	-1.493906	-0.711186
C46	C	-0.550932	-1.563286	-0.747935
C47	C	-0.615946	-1.628239	-0.711176
C48	C	-0.611561	-1.623810	-0.637672
C49	C	-0.571255	-1.583729	-0.967767
C50	C	-0.575633	-1.588155	-1.041275
C51	C	-0.441228	-1.453821	-1.041280
C52	C	-0.436845	-1.449402	-0.967775
C53	C	-0.501863	-1.514351	-0.931022
N54	N	-0.555417	-1.567811	-0.823069
N55	N	-0.497382	-1.509820	-0.855890
C56	C	-0.515583	-1.527713	-0.156258
C57	C	-0.510626	-1.523205	-0.078029
H58	H	-0.821553	-1.667686	-0.249151
O59	O	-0.241124	-1.142155	-0.155852
H60	H	-0.255737	-1.117758	-0.100595
O61	O	-0.641374	-1.653798	-0.928142
H62	H	-0.692840	-1.604751	-0.894649
H63	H	-1.130465	-1.421718	-0.420754
O64	O	-1.248695	-1.667938	-0.249240
H65	H	-1.280743	-1.692329	-0.302341
O66	O	-0.900973	-1.801891	-0.155704
H67	H	-0.815912	-1.791000	-0.163240
H68	H	-0.931395	-1.421601	-0.420722
O69	O	-1.129041	-1.802004	-0.155739
H70	H	-1.070577	-1.846835	-0.124452
H71	H	-0.664489	-1.676707	-0.607748
H72	H	-0.386544	-1.232826	-0.249240
O73	O	-0.672043	-0.930775	-0.432480
H74	H	-0.753731	-0.951087	-0.420275
H75	H	-0.653490	-1.143661	-0.420628
O76	O	-0.402302	-1.414657	-0.598045
H77	H	-0.357842	-1.370231	-0.635954
O78	O	-0.241158	-0.914077	-0.155869
H79	H	-0.192483	-0.968771	-0.124628
H80	H	-0.428608	-1.441013	-0.741108
O81	O	-0.386638	-0.805691	-0.249271
H82	H	-0.326225	-0.774412	-0.210483
O83	O	-0.361982	-1.374591	-0.928138
H84	H	-0.317512	-1.330171	-0.966045
H85	H	-0.388295	-1.400942	-1.071212
O86	O	-0.650485	-1.662983	-1.080917
H87	H	-0.694968	-1.707396	-1.043012
H88	H	-0.672451	-1.684724	-0.741103
