data_functionalizedCrystal
_audit_creation_method	'MofGen! by Chris Wilmer'
_symmetry_space_group_name_H-M	'P1'
_symmetry_Int_Tables_number	1
_symmetry_cell_setting	triclinic
loop_
_symmetry_equiv_pos_as_xyz
  x,y,z
_cell_length_a	19.188933
_cell_length_b	19.188930
_cell_length_c	15.455313
_cell_angle_alpha	92.650876
_cell_angle_beta	87.329187
_cell_angle_gamma	83.145175
loop_
_atom_site_label
_atom_site_type_symbol
_atom_site_fract_x
_atom_site_fract_y
_atom_site_fract_z
O1	O	0.929213	0.084112	-0.072111
O2	O	0.725902	0.095844	-0.072121
O3	O	0.833424	-0.011677	-0.072099
O4	O	0.821691	0.191633	-0.072133
O5	O	0.827275	-0.005554	0.072162
O6	O	0.719754	0.101967	0.072140
O7	O	0.923064	0.090235	0.072150
Cu8	Cu	0.820847	0.096660	0.085317
Cu9	Cu	0.828119	0.089419	-0.085288
O10	O	0.815542	0.197756	0.072128
C11	C	0.696817	0.098525	0.000009
C12	C	0.619312	0.097384	0.000006
C13	C	0.069408	0.085901	-0.078620
C14	C	0.142233	0.086969	-0.078623
C15	C	0.175298	0.090845	0.000013
C16	C	0.135535	0.093634	0.078659
C17	C	0.062713	0.092559	0.078660
N18	N	0.281824	0.134747	0.058538
N19	N	0.351002	0.135770	0.058532
C20	C	0.394707	0.094082	0.000014
N21	N	0.366620	0.051342	-0.058511
N22	N	0.297435	0.050323	-0.058507
C23	C	0.254261	0.092010	0.000020
C24	C	0.513426	0.092446	-0.078631
C25	C	0.586252	0.093510	-0.078631
C26	C	0.579552	0.100182	0.078653
C27	C	0.506728	0.099111	0.078651
C28	C	0.473669	0.095246	0.000007
C29	C	0.829969	-0.034626	0.000034
C30	C	0.828828	-0.112131	0.000042
C31	C	0.891919	-0.157054	0.000049
C32	C	0.890848	-0.229878	0.000035
C33	C	0.826682	-0.257775	0.000031
C34	C	0.763583	-0.212842	0.000019
C35	C	0.764657	-0.140020	0.000024
N36	N	0.775542	-0.363697	0.049124
N37	N	0.774527	-0.432876	0.049121
C38	C	0.823445	-0.477185	0.000013
N39	N	0.873426	-0.449703	-0.049079
N40	N	0.874443	-0.380518	-0.049072
C41	C	0.825511	-0.336738	0.000025
C42	C	0.885378	-0.601073	0.000004
C43	C	0.884305	-0.673899	-0.000015
C44	C	0.757038	-0.656861	-0.000022
C45	C	0.758114	-0.584037	-0.000011
C46	C	0.822285	-0.556148	0.000006
C47	C	0.952149	0.087553	0.000018
C48	C	1.029654	0.088694	0.000015
C49	C	0.818997	0.220705	-0.000007
C50	C	0.820138	0.298209	-0.000020
N51	N	0.815738	0.101753	0.205312
N52	N	0.833233	0.084320	-0.205283
C53	C	0.861433	0.056091	0.250715
C54	C	0.857576	0.059949	0.341522
C55	C	0.808026	0.109473	0.386924
C56	C	0.762327	0.155137	0.341514
C57	C	0.766181	0.151275	0.250709
C58	C	0.791388	0.126123	0.658502
C59	C	0.787539	0.129982	0.749314
C60	C	0.882787	0.034793	0.749316
C61	C	0.886640	0.030939	0.658508
C62	C	0.840938	0.076600	0.613107
N63	N	0.804084	0.113419	0.479744
N64	N	0.844878	0.072650	0.520289
H65	H	0.162462	0.096788	0.142685
C66	C	0.018981	0.095638	0.165162
H67	H	0.049100	0.098103	0.211997
H68	H	-0.004121	0.054655	0.168438
H69	H	-0.015012	0.136072	0.168424
H70	H	0.486508	0.089297	-0.142668
H71	H	0.894783	0.022767	0.378489
C72	C	0.615912	0.104443	0.165154
H73	H	0.581803	0.105950	0.211988
H74	H	0.638734	0.145705	0.168420
H75	H	0.649628	0.064288	0.168426
C76	C	0.733032	0.184458	0.799259
H77	H	0.737290	0.180222	0.859842
H78	H	0.687090	0.176357	0.784398
H79	H	0.741103	0.230408	0.784359
H80	H	0.706738	-0.547459	-0.000012
H81	H	0.728971	0.188457	0.213742
C82	C	0.707825	0.209613	0.391454
H83	H	0.712078	0.205379	0.452038
H84	H	0.661883	0.201515	0.376589
H85	H	0.715900	0.255561	0.376553
C86	C	0.033044	0.081644	-0.165123
H87	H	-0.016021	0.081409	-0.153862
H88	H	0.051806	0.039746	-0.197432
H89	H	0.040904	0.121163	-0.197434
H90	H	0.174606	0.084699	-0.142660
C91	C	0.741124	0.176354	0.608571
H92	H	0.711069	0.206406	0.648619
H93	H	0.713640	0.149807	0.573163
H94	H	0.767657	0.203853	0.573134
C95	C	0.960249	-0.279302	0.000049
H96	H	0.998620	-0.252262	0.000065
H97	H	0.964625	-0.310195	-0.050257
H98	H	0.960323	-0.305932	0.050363
C99	C	0.462995	0.102195	0.165151
H100	H	0.493115	0.104662	0.211985
H101	H	0.439895	0.061210	0.168429
H102	H	0.429001	0.142626	0.168412
H103	H	0.618620	0.091230	-0.142668
H104	H	0.944173	-0.134351	0.000060
H105	H	0.935683	-0.710475	-0.000014
C106	C	0.693003	-0.243526	0.000018
H107	H	0.701399	-0.293331	0.000025
H108	H	0.669177	-0.230222	-0.050289
H109	H	0.664891	-0.225963	0.050331
C110	C	0.933048	-0.015436	0.799259
H111	H	0.923654	-0.006050	0.859842
H112	H	0.980253	-0.008605	0.784364
H113	H	0.926234	-0.062649	0.784391
C114	C	0.915937	0.001613	0.200781
H115	H	0.942593	-0.025033	0.240830
H116	H	0.946427	0.025148	0.165341
H117	H	0.892410	-0.028898	0.165375
C118	C	0.695254	-0.090602	0.000025
H119	H	0.656883	-0.117644	0.000025
H120	H	0.695171	-0.063963	-0.050277
H121	H	0.690885	-0.059717	0.050344
H122	H	0.704793	-0.679574	-0.000029
H123	H	0.937631	-0.578365	0.000014
H124	H	0.926987	-0.009388	0.621544
