data_functionalizedCrystal
_audit_creation_method	'MofGen! by Chris Wilmer'
_symmetry_space_group_name_H-M	'P1'
_symmetry_Int_Tables_number	1
_symmetry_cell_setting	triclinic
loop_
_symmetry_equiv_pos_as_xyz
  x,y,z
_cell_length_a	10.686220
_cell_length_b	25.639239
_cell_length_c	10.686551
_cell_angle_alpha	85.590528
_cell_angle_beta	90.308082
_cell_angle_gamma	94.420676
loop_
_atom_site_label
_atom_site_type_symbol
_atom_site_fract_x
_atom_site_fract_y
_atom_site_fract_z
Zn1	Zn	1.972159	-0.127472	-0.562366
Zn2	Zn	1.955834	-0.222109	-0.352592
Zn3	Zn	1.746264	-0.140848	-0.368681
Zn4	Zn	1.762265	-0.221050	-0.578370
O5	O	1.859130	-0.177870	-0.465502
O6	O	2.145540	-0.134872	-0.521108
O7	O	1.914505	-0.217371	-0.179180
O8	O	1.776365	-0.065903	-0.394409
O9	O	2.133546	-0.204401	-0.366988
O10	O	1.942329	-0.056076	-0.536709
O11	O	1.760535	-0.157668	-0.191000
O12	O	1.572839	-0.156641	-0.409928
O13	O	1.803636	-0.202595	-0.751793
O14	O	1.584595	-0.215565	-0.563985
O15	O	1.957844	-0.133844	-0.740035
O16	O	1.930021	-0.295139	-0.382506
O17	O	1.787807	-0.294361	-0.548384
C18	C	1.533200	-0.187440	-0.490440
C19	C	1.393768	-0.191545	-0.501138
C20	C	1.858915	-0.313720	-0.465461
C21	C	1.858941	-0.371833	-0.465476
C22	C	1.933401	-0.732571	-0.379250
C23	C	1.933451	-0.787174	-0.379263
O24	O	1.996536	-0.815738	-0.305904
N25	N	1.859357	-0.814099	-0.465568
C26	C	1.785218	-0.786419	-0.551874
O27	O	1.722201	-0.814336	-0.625286
C28	C	1.785176	-0.731818	-0.551866
C29	C	1.859265	-0.704895	-0.465547
C30	C	2.007485	-0.705649	-0.292939
C31	C	2.007433	-0.651050	-0.292925
C32	C	1.933297	-0.623374	-0.379222
C33	C	1.859213	-0.650297	-0.465533
C34	C	1.711045	-0.704138	-0.638177
C35	C	1.711010	-0.649533	-0.638162
C36	C	1.785099	-0.622611	-0.551843
C37	C	1.785025	-0.568023	-0.551816
N38	N	1.859119	-0.541097	-0.465510
C39	C	1.933255	-0.568773	-0.379213
C40	C	1.785314	-0.901087	-0.551887
C41	C	1.785349	-0.955688	-0.551890
C42	C	1.933583	-0.956438	-0.379280
C43	C	1.933541	-0.901836	-0.379272
C44	C	1.859408	-0.874161	-0.465581
C45	C	1.933139	-0.454112	-0.379189
C46	C	1.933077	-0.399509	-0.379179
C47	C	1.784847	-0.398763	-0.551793
C48	C	1.784904	-0.453362	-0.551799
C49	C	1.859060	-0.481035	-0.465493
O50	O	1.721976	-0.539424	-0.625140
O51	O	1.996274	-0.540849	-0.305825
C52	C	2.186333	-0.168263	-0.440468
C53	C	2.325768	-0.164169	-0.429800
C54	C	1.884346	-0.166610	-0.792704
C55	C	1.895092	-0.161811	-0.932138
C56	C	1.859383	-0.041486	-0.465568
C57	C	1.859490	0.016632	-0.465597
C58	C	1.834084	-0.189046	-0.139567
C59	C	1.823582	-0.193690	-0.000116
H60	H	1.345309	-0.218129	-0.570396
H61	H	1.964545	-0.130848	-0.980617
N62	N	1.389935	-0.128962	-0.338049
H63	H	1.483786	-0.130920	-0.343156
H64	H	1.368664	-0.091619	-0.359463
H65	H	1.724483	-0.376221	-0.622052
H66	H	1.993527	-0.476637	-0.308913
N67	N	2.012993	-0.370471	-0.286078
H68	H	2.059969	-0.396292	-0.231418
H69	H	2.074923	-0.344320	-0.332748
N70	N	2.087364	-0.622015	-0.199841
H71	H	2.134337	-0.647839	-0.145188
H72	H	2.149296	-0.595868	-0.246522
H73	H	2.067862	-0.728176	-0.222665
N74	N	1.731585	-0.234699	-0.935903
H75	H	1.643703	-0.228432	-0.965504
H76	H	1.752826	-0.270698	-0.957141
N77	N	2.013455	-0.872800	-0.286176
H78	H	2.060420	-0.898623	-0.231512
H79	H	2.075393	-0.846652	-0.332844
H80	H	1.725005	-0.977604	-0.622169
N81	N	2.013547	-0.986294	-0.286198
H82	H	2.002328	-1.024968	-0.299311
H83	H	2.104628	-0.973403	-0.298941
H84	H	1.650707	-0.726050	-0.708462
N85	N	1.705337	-0.871237	-0.644966
H86	H	1.731657	-0.877064	-0.733130
H87	H	1.614252	-0.884104	-0.632148
N88	N	1.631050	-0.619680	-0.731249
H89	H	1.657380	-0.625505	-0.819412
H90	H	1.539962	-0.632546	-0.718445
N91	N	1.704983	-0.482404	-0.644884
H92	H	1.658007	-0.456585	-0.699547
H93	H	1.760501	-0.501525	-0.699086
