data_functionalizedCrystal
_audit_creation_method	'MofGen! by Chris Wilmer'
_symmetry_space_group_name_H-M	'P1'
_symmetry_Int_Tables_number	1
_symmetry_cell_setting	triclinic
loop_
_symmetry_equiv_pos_as_xyz
  x,y,z
_cell_length_a	23.532407
_cell_length_b	22.610064
_cell_length_c	23.532416
_cell_angle_alpha	90.006497
_cell_angle_beta	97.149538
_cell_angle_gamma	90.002839
loop_
_atom_site_label
_atom_site_type_symbol
_atom_site_fract_x
_atom_site_fract_y
_atom_site_fract_z
O1	O	0.755266	0.049108	-0.069127
O2	O	1.255266	0.549108	0.430873
O3	O	0.589403	0.049125	-0.079130
O4	O	1.089403	0.549125	0.420870
O5	O	0.677333	0.049116	0.008803
O6	O	1.177333	0.549116	0.508803
O7	O	0.667335	0.049117	-0.157060
O8	O	1.167335	0.549117	0.342940
O9	O	0.677318	-0.049254	0.008790
O10	O	1.177318	0.450746	0.508790
O11	O	0.589387	-0.049244	-0.079143
O12	O	1.089387	0.450756	0.420857
O13	O	0.755250	-0.049261	-0.069140
O14	O	1.255250	0.450739	0.430860
Zn15	Zn	0.672316	-0.064871	-0.074143
Zn16	Zn	1.172316	0.435129	0.425857
Zn17	Zn	0.672337	0.064734	-0.074126
Zn18	Zn	1.172337	0.564734	0.425874
O19	O	0.667320	-0.049252	-0.157073
O20	O	1.167320	0.450748	0.342927
C21	C	0.568179	-0.000058	-0.078882
C22	C	1.068179	0.499942	0.421118
C23	C	0.504962	-0.000051	-0.078116
C24	C	1.004962	0.499949	0.421884
N25	N	0.672306	-0.153324	-0.074154
N26	N	1.172306	0.346676	0.425846
C27	C	0.105860	-0.000078	-0.125349
C28	C	0.605860	0.499922	0.374651
C29	C	0.046460	-0.000081	-0.124638
C30	C	0.546460	0.499919	0.375362
O31	O	0.009717	-0.000102	-0.168423
O32	O	0.509717	0.499898	0.331577
N33	N	0.023832	-0.000081	-0.072361
N34	N	0.523832	0.499919	0.427639
C35	C	0.060608	-0.000082	-0.020793
C36	C	0.560608	0.499918	0.479207
O37	O	0.035907	-0.000083	0.023737
O38	O	0.535907	0.499917	0.523737
C39	C	0.120007	-0.000083	-0.021506
C40	C	0.620007	0.499917	0.478494
C41	C	0.142631	-0.000078	-0.073785
C42	C	0.642631	0.499922	0.426215
C43	C	0.128485	-0.000073	-0.177624
C44	C	0.628485	0.499927	0.322376
C45	C	0.187881	-0.000068	-0.178335
C46	C	0.687881	0.499932	0.321665
C47	C	0.224652	-0.000068	-0.126771
C48	C	0.724652	0.499932	0.373229
C49	C	0.202028	-0.000073	-0.074496
C50	C	0.702028	0.499927	0.425504
C51	C	0.156782	-0.000089	0.030062
C52	C	0.656782	0.499911	0.530062
C53	C	0.216184	-0.000090	0.029345
C54	C	0.716184	0.499910	0.529345
C55	C	0.238809	-0.000085	-0.022934
C56	C	0.738809	0.499915	0.477066
C57	C	0.298195	-0.000068	-0.023643
C58	C	0.798195	0.499932	0.476357
N59	N	0.320823	-0.000069	-0.075919
N60	N	0.820823	0.499931	0.424081
C61	C	0.284052	-0.000069	-0.127483
C62	C	0.784052	0.499931	0.372517
C63	C	-0.064135	-0.000082	-0.019302
C64	C	0.435865	0.499918	0.480698
C65	C	-0.123532	-0.000077	-0.018589
C66	C	0.376468	0.499923	0.481411
C67	C	-0.137677	-0.000077	-0.122434
C68	C	0.362323	0.499923	0.377566
C69	C	-0.078278	-0.000078	-0.123146
C70	C	0.421722	0.499922	0.376854
C71	C	-0.041507	-0.000083	-0.071578
C72	C	0.458493	0.499917	0.428422
C73	C	0.408788	-0.000058	-0.128973
C74	C	0.908788	0.499942	0.371027
C75	C	0.468190	-0.000051	-0.129680
C76	C	0.968190	0.499949	0.370320
C77	C	0.482329	-0.000054	-0.025836
C78	C	0.982329	0.499946	0.474164
C79	C	0.422933	-0.000058	-0.025129
C80	C	0.922933	0.499942	0.474871
C81	C	0.386163	-0.000062	-0.076702
C82	C	0.886163	0.499938	0.423298
O83	O	0.334973	-0.000050	0.020119
O84	O	0.834973	0.499950	0.520119
O85	O	0.308761	-0.000076	-0.172006
O86	O	0.808761	0.499924	0.327994
C87	C	0.711274	-0.561969	-0.035196
C88	C	1.211274	-0.061969	0.464804
C89	C	0.711277	-0.623889	-0.035191
C90	C	1.211277	-0.123889	0.464809
O91	O	0.744384	-0.655911	-0.002076
O92	O	1.244384	-0.155911	0.497924
N93	N	0.672336	-0.654861	-0.074114
N94	N	1.172336	-0.154861	0.425886
C95	C	0.633386	-0.623909	-0.113040
C96	C	1.133386	-0.123909	0.386960
O97	O	0.600264	-0.655939	-0.146147
O98	O	1.100264	-0.155939	0.353853
C99	C	0.633381	-0.561991	-0.113041
C100	C	1.133381	-0.061991	0.386959
C101	C	0.672328	-0.531022	-0.074120
C102	C	1.172328	-0.031022	0.425880
C103	C	0.750217	-0.531000	0.003724
C104	C	1.250217	-0.031000	0.503724
C105	C	0.750215	-0.469085	0.003719
C106	C	1.250215	0.030915	0.503719
C107	C	0.711269	-0.438138	-0.035206
C108	C	1.211269	0.061862	0.464794
C109	C	0.672326	-0.469106	-0.074125
C110	C	1.172326	0.030894	0.425875
C111	C	0.594429	-0.531040	-0.151964
C112	C	1.094429	-0.031040	0.348036
C113	C	0.594427	-0.469117	-0.151961
C114	C	1.094427	0.030883	0.348039
C115	C	0.633374	-0.438149	-0.113040
C116	C	1.133374	0.061851	0.386960
C117	C	0.633378	-0.376244	-0.113054
C118	C	1.133378	0.123756	0.386946
N119	N	0.672318	-0.345272	-0.074131
N120	N	1.172318	0.154728	0.425869
C121	C	0.711264	-0.376219	-0.035206
C122	C	1.211264	0.123781	0.464794
C123	C	0.633399	-0.753943	-0.113035
C124	C	1.133399	-0.253943	0.386965
C125	C	0.633407	-0.815861	-0.113037
C126	C	1.133407	-0.315861	0.386963
C127	C	0.711297	-0.815836	-0.035187
C128	C	1.211297	-0.315836	0.464813
C129	C	0.711292	-0.753917	-0.035188
C130	C	1.211292	-0.253917	0.464812
C131	C	0.672340	-0.722971	-0.074112
C132	C	1.172340	-0.222971	0.425888
C133	C	0.711256	-0.246192	-0.035220
C134	C	1.211256	0.253808	0.464780
C135	C	0.711252	-0.184271	-0.035230
C136	C	1.211252	0.315729	0.464770
C137	C	0.633360	-0.184301	-0.113078
C138	C	1.133360	0.315699	0.386922
C139	C	0.633366	-0.246216	-0.113070
C140	C	1.133366	0.253784	0.386930
C141	C	0.672317	-0.277160	-0.074137
C142	C	1.172317	0.222840	0.425863
O143	O	0.600285	-0.344182	-0.146151
O144	O	1.100285	0.155818	0.353849
O145	O	0.744376	-0.344182	-0.002101
O146	O	1.244376	0.155818	0.497899
C147	C	0.776474	-0.000078	-0.069388
C148	C	1.276474	0.499922	0.430612
C149	C	0.839691	-0.000080	-0.070154
C150	C	1.339691	0.499920	0.429846
C151	C	0.677070	-0.000068	0.030013
C152	C	1.177070	0.499932	0.530013
C153	C	0.676302	-0.000064	0.093229
C154	C	1.176302	0.499936	0.593229
N155	N	0.672351	0.153187	-0.074111
N156	N	1.172351	0.653187	0.425889
C157	C	0.673045	0.053557	0.366480
C158	C	1.173045	0.553557	0.866480
C159	C	0.673758	0.053558	0.307080
C160	C	1.173758	0.553558	0.807080
O161	O	0.674154	0.099159	0.276362
O162	O	1.174154	0.599159	0.776362
N163	N	0.674103	-0.000064	0.277371
N164	N	1.174103	0.499936	0.777371
C165	C	0.673740	-0.053690	0.307066
C166	C	1.173740	0.446310	0.807066
O167	O	0.674099	-0.099299	0.276342
O168	O	1.174099	0.400701	0.776342
C169	C	0.673031	-0.053690	0.366466
C170	C	1.173031	0.446310	0.866466
C171	C	0.672681	-0.000065	0.396171
C172	C	1.172681	0.499935	0.896171
C173	C	0.672696	0.107178	0.396186
C174	C	1.172696	0.607178	0.896186
C175	C	0.671981	0.107177	0.455582
C176	C	1.171981	0.607177	0.955582
C177	C	0.671617	0.053555	0.485272
C178	C	1.171617	0.553555	0.985272
C179	C	0.671967	-0.000066	0.455567
C180	C	1.171967	0.499934	0.955567
C181	C	0.672672	-0.107315	0.396160
C182	C	1.172672	0.392685	0.896160
C183	C	0.671964	-0.107311	0.455564
C184	C	1.171964	0.392689	0.955564
C185	C	0.671613	-0.053686	0.485269
C186	C	1.171613	0.446314	0.985269
C187	C	0.670888	-0.053688	0.544653
C188	C	1.170888	0.446312	1.044653
N189	N	0.670544	-0.000067	0.574362
N190	N	1.170544	0.499933	1.074362
C191	C	0.670908	0.053555	0.544671
C192	C	1.170908	0.553555	1.044671
C193	C	0.675230	-0.053686	0.182323
C194	C	1.175230	0.446314	0.682323
C195	C	0.675935	-0.053686	0.122925
C196	C	1.175935	0.446314	0.622925
C197	C	0.675954	0.053562	0.122943
C198	C	1.175954	0.553562	0.622943
C199	C	0.675245	0.053561	0.182342
C200	C	1.175245	0.553561	0.682342
C201	C	0.674885	-0.000064	0.212033
C202	C	1.174885	0.499936	0.712033
C203	C	0.669408	0.053549	0.669407
C204	C	1.169408	0.553549	1.169407
C205	C	0.668691	0.053543	0.728808
C206	C	1.168691	0.553543	1.228808
C207	C	0.668675	-0.053704	0.728784
C208	C	1.168675	0.446296	1.228784
C209	C	0.669389	-0.053699	0.669388
C210	C	1.169389	0.446301	1.169388
C211	C	0.669757	-0.000068	0.639701
C212	C	1.169757	0.499932	1.139701
O213	O	0.670494	-0.099266	0.575410
O214	O	1.170494	0.400734	1.075410
O215	O	0.670557	0.099157	0.575404
O216	O	1.170557	0.599157	1.075404
C217	C	0.667577	-0.000070	0.821717
C218	C	1.167577	0.499930	1.321717
C219	C	0.668327	-0.000079	0.758498
C220	C	1.168327	0.499921	1.258498
H221	H	0.486607	-0.000046	-0.172254
H222	H	0.986607	0.499954	0.327746
H223	H	0.562714	-0.556246	-0.183657
H224	H	1.062714	-0.056246	0.316343
H225	H	0.138372	-0.000094	0.072633
H226	H	0.638372	0.499906	0.572633
H227	H	0.668404	0.097213	0.752991
H228	H	1.168404	0.597213	1.252991
F229	F	0.668283	-0.110769	0.760393
F230	F	1.168283	0.389231	1.260393
H231	H	0.676249	0.097223	0.098758
H232	H	1.176249	0.597223	0.598758
F233	F	0.752746	-0.848784	0.006240
F234	F	1.252746	-0.348784	0.506240
F235	F	0.521474	-0.000055	0.029039
F236	F	1.021474	0.499945	0.529039
F237	F	0.752708	-0.151315	0.006196
F238	F	1.252708	0.348685	0.506196
H239	H	0.742973	-0.271379	-0.003516
H240	H	1.242973	0.228621	0.496484
F241	F	0.791665	-0.436131	0.045147
F242	F	1.291665	0.063869	0.545147
F243	F	0.752744	-0.720964	0.006238
F244	F	1.252744	-0.220964	0.506238
F245	F	0.674841	-0.110765	0.213916
F246	F	1.174841	0.389235	0.713916
F247	F	0.398853	-0.000065	0.030512
F248	F	0.898853	0.499935	0.530512
F249	F	0.791672	-0.563928	0.045156
F250	F	1.291672	-0.063928	0.545156
F251	F	0.369663	-0.000063	-0.183863
F252	F	0.869663	0.499937	0.316137
F253	F	0.676295	-0.110761	0.091315
F254	F	1.176295	0.389239	0.591315
F255	F	0.671614	0.164252	0.487189
F256	F	1.171614	0.664252	0.987189
F257	F	0.591961	-0.848814	-0.154470
F258	F	1.091961	-0.348814	0.345530
F259	F	0.673084	0.164254	0.364596
F260	F	1.173084	0.664254	0.864596
F261	F	0.673039	-0.164392	0.364558
F262	F	1.173039	0.335608	0.864558
F263	F	0.591914	-0.151355	-0.154503
F264	F	1.091914	0.348645	0.345497
H265	H	0.601682	-0.728750	-0.144736
H266	H	1.101682	-0.228750	0.355264
H267	H	0.562706	-0.443924	-0.183657
H268	H	1.062706	0.056076	0.316343
H269	H	0.674959	0.097228	0.206524
H270	H	1.174959	0.597228	0.706524
H271	H	0.669708	0.097221	0.645243
H272	H	1.169708	0.597221	1.145243
H273	H	0.669651	-0.097365	0.645198
H274	H	1.169651	0.402635	1.145198
H275	H	0.671671	-0.150980	0.479734
H276	H	1.171671	0.349020	0.979734
F277	F	0.089358	-0.000073	-0.232511
F278	F	0.589358	0.499927	0.267489
F279	F	0.211952	-0.000065	-0.233979
F280	F	0.711952	0.499935	0.266021
F281	F	-0.176822	-0.000079	-0.177313
F282	F	0.323178	0.499921	0.322687
F283	F	-0.054205	-0.000073	-0.178788
F284	F	0.445795	0.499927	0.321212
H285	H	-0.141947	-0.000073	0.023982
H286	H	0.358053	0.499927	0.523982
F287	F	0.591920	-0.279174	-0.154502
F288	F	1.091920	0.220826	0.345498
H289	H	-0.034198	-0.000081	0.022693
H290	H	0.465802	0.499919	0.522693
H291	H	0.246121	-0.000095	0.071339
H292	H	0.746121	0.499905	0.571339
