data_functionalizedCrystal
_audit_creation_method	'MofGen! by Chris Wilmer'
_symmetry_space_group_name_H-M	'P1'
_symmetry_Int_Tables_number	1
_symmetry_cell_setting	triclinic
loop_
_symmetry_equiv_pos_as_xyz
  x,y,z
_cell_length_a	10.723022
_cell_length_b	10.489716
_cell_length_c	9.198806
_cell_angle_alpha	89.999130
_cell_angle_beta	90.003383
_cell_angle_gamma	84.498181
loop_
_atom_site_label
_atom_site_type_symbol
_atom_site_fract_x
_atom_site_fract_y
_atom_site_fract_z
O1	O	1.657282	0.178899	0.120869
O2	O	2.157282	0.678899	0.620869
O3	O	1.294139	0.196026	0.120872
O4	O	1.794139	0.696026	0.620872
O5	O	1.483990	0.001857	0.120876
O6	O	1.983990	0.501857	0.620876
O7	O	1.467432	0.373067	0.120866
O8	O	1.967432	0.873067	0.620866
O9	O	1.483976	0.001856	-0.120909
O10	O	1.983976	0.501856	0.379091
O11	O	1.294125	0.196025	-0.120913
O12	O	1.794125	0.696025	0.379087
O13	O	1.657268	0.178898	-0.120916
O14	O	2.157268	0.678898	0.379084
Cu15	Cu	1.475695	0.187461	-0.142991
Cu16	Cu	1.975695	0.687461	0.357009
Cu17	Cu	1.475712	0.187462	0.142948
Cu18	Cu	1.975712	0.687462	0.642948
O19	O	1.467417	0.373067	-0.120920
O20	O	1.967417	0.873067	0.379080
C21	C	1.247631	0.194779	-0.000019
C22	C	1.747631	0.694779	0.499981
C23	C	1.109075	0.191052	-0.000017
C24	C	1.609075	0.691052	0.499983
C25	C	0.890952	0.295842	-0.000017
C26	C	1.390952	0.795842	0.499983
C27	C	1.034157	0.299698	-0.000020
C28	C	1.534157	0.799698	0.499980
C29	C	1.482739	-0.045675	-0.000012
C30	C	1.982739	0.454325	0.499988
C31	C	1.479016	-0.187303	0.000001
C32	C	1.979016	0.312697	0.500001
C33	C	1.595439	-0.285052	-0.000013
C34	C	2.095439	0.214948	0.499987
C35	C	1.533926	-0.362373	0.119196
C36	C	2.033926	0.137627	0.619196
C37	C	1.533885	-0.362338	-0.119185
C38	C	2.033885	0.137662	0.380815
C39	C	1.417552	-0.262759	0.119309
C40	C	1.917552	0.237241	0.619309
C41	C	1.417528	-0.262718	-0.119179
C42	C	1.917528	0.237282	0.380821
C43	C	1.355929	-0.339989	0.000059
C44	C	1.855929	0.160011	0.500059
C45	C	1.703776	0.180144	-0.000021
C46	C	2.203776	0.680144	0.499979
C47	C	1.842332	0.183872	-0.000014
C48	C	2.342332	0.683872	0.499986
C49	C	1.468669	0.420598	-0.000028
C50	C	1.968669	0.920598	0.499972
C51	C	1.472391	0.562227	-0.000032
C52	C	1.972391	1.062227	0.499968
N53	N	1.475692	0.187460	-0.344105
N54	N	1.975692	0.687460	0.155895
C55	C	1.402904	0.113491	-0.416334
C56	C	1.902904	0.613491	0.083666
C57	C	1.402921	0.113487	-0.583746
C58	C	1.902921	0.613487	-0.083746
N59	N	1.475724	0.187453	0.344061
N60	N	1.975724	0.687453	0.844061
H61	H	1.067221	0.095179	0.000024
H62	H	1.567221	0.595179	0.500024
H63	H	0.906725	0.090864	-0.000003
H64	H	1.406725	0.590864	0.499997
H65	H	1.696707	-0.260441	0.000107
H66	H	2.196707	0.239559	0.500107
H67	H	1.538048	0.250780	-0.593833
H68	H	2.038048	0.750780	-0.093833
H69	H	1.076019	0.395566	-0.000031
H70	H	1.576019	0.895566	0.499969
H71	H	1.583078	-0.405899	0.219980
H72	H	2.083078	0.094101	0.719980
H73	H	1.340571	0.050172	-0.354231
H74	H	1.840571	0.550172	0.145769
H75	H	1.254585	-0.364355	0.000125
H76	H	1.754585	0.135645	0.500125
H77	H	1.368438	-0.219423	0.220203
H78	H	1.868438	0.280577	0.720203
H79	H	1.340607	0.050156	-0.645861
H80	H	1.840607	0.550156	-0.145861
H81	H	1.368418	-0.219168	-0.219967
H82	H	1.868418	0.280832	0.280033
H83	H	1.583050	-0.405842	-0.219965
H84	H	2.083050	0.094158	0.280035
H85	H	1.538015	0.250791	-0.406208
H86	H	2.038015	0.750791	0.093792
H87	H	0.826558	0.388850	-0.000011
H88	H	1.326558	0.888850	0.499989
