data_functionalizedCrystal
_audit_creation_method	'MofGen! by Chris Wilmer'
_symmetry_space_group_name_H-M	'P1'
_symmetry_Int_Tables_number	1
_symmetry_cell_setting	triclinic
loop_
_symmetry_equiv_pos_as_xyz
  x,y,z
_cell_length_a	17.699083
_cell_length_b	19.188930
_cell_length_c	16.776229
_cell_angle_alpha	89.988225
_cell_angle_beta	89.998886
_cell_angle_gamma	83.213899
loop_
_atom_site_label
_atom_site_type_symbol
_atom_site_fract_x
_atom_site_fract_y
_atom_site_fract_z
O1	O	1.003962	0.088294	-0.066185
O2	O	0.783569	0.099782	-0.066213
O3	O	0.900126	-0.007611	-0.066183
O4	O	0.887405	0.195686	-0.066215
O5	O	0.900110	-0.007617	0.066394
O6	O	0.783553	0.099775	0.066364
O7	O	1.003947	0.088288	0.066391
Zn8	Zn	0.893748	0.094030	0.087427
Zn9	Zn	0.893768	0.094039	-0.087249
O10	O	0.887390	0.195680	0.066361
C11	C	0.755365	0.099367	0.000072
C12	C	0.671348	0.098132	0.000062
C13	C	0.899706	-0.033625	0.000108
C14	C	0.898469	-0.111131	0.000114
C15	C	0.622644	0.161169	0.000053
C16	C	0.543702	0.160004	0.000063
C17	C	0.513466	0.095802	0.000078
C18	C	0.562176	0.032761	0.000090
C19	C	0.641117	0.033926	0.000085
C20	C	0.243819	0.028060	0.000111
C21	C	0.164873	0.026900	0.000113
C22	C	0.146405	0.154139	0.000088
C23	C	0.225345	0.155304	0.000084
C24	C	0.274049	0.092263	0.000100
C25	C	0.359646	0.093526	0.000090
C26	C	0.427870	0.094538	0.000082
C27	C	0.966861	-0.155978	0.000127
C28	C	0.965699	-0.228804	0.000114
C29	C	0.896142	-0.256778	0.000105
C30	C	0.827741	-0.211921	0.000088
C31	C	0.828905	-0.139098	0.000093
N32	N	0.842969	-0.364845	0.045216
N33	N	0.841868	-0.434025	0.045213
C34	C	0.892632	-0.476191	0.000088
N35	N	0.944550	-0.446565	-0.045024
N36	N	0.945653	-0.377379	-0.045018
C37	C	0.894873	-0.335742	0.000099
C38	C	0.959769	-0.600004	0.000085
C39	C	0.958604	-0.672830	0.000067
C40	C	0.820644	-0.655946	0.000049
C41	C	0.821811	-0.583121	0.000059
C42	C	0.891375	-0.555155	0.000081
C43	C	1.032151	0.088703	0.000104
C44	C	1.116167	0.089938	0.000109
C45	C	0.887810	0.221695	0.000069
C46	C	0.889046	0.299201	0.000057
N47	N	0.893739	0.094024	0.206638
N48	N	0.893782	0.094040	-0.206460
C49	C	0.945366	0.046490	0.248368
C50	C	0.945370	0.046490	0.331821
C51	C	0.893751	0.094027	0.373541
C52	C	0.842118	0.141563	0.331805
C53	C	0.842111	0.141559	0.248354
C54	C	0.842146	0.141576	0.668352
C55	C	0.842158	0.141578	0.751808
C56	C	0.945405	0.046507	0.751818
C57	C	0.945398	0.046503	0.668368
C58	C	0.893763	0.094037	0.626639
C59	C	0.893758	0.094036	0.536150
C60	C	0.893759	0.094031	0.464028
H61	H	0.647256	0.213450	0.000040
O62	O	0.093872	0.222136	0.000089
H63	H	0.057454	0.224651	-0.053939
O64	O	1.039467	-0.277188	0.000141
H65	H	1.072788	-0.267251	-0.053880
H66	H	0.771107	-0.234702	0.000079
O67	O	0.693653	-0.034063	0.000093
H68	H	0.659368	-0.078903	0.000097
O69	O	0.755133	-0.090726	0.000090
H70	H	0.752364	-0.057132	-0.053944
H71	H	0.987404	0.007783	0.214405
O72	O	1.041891	-0.125819	0.000144
H73	H	1.031213	-0.067645	0.000151
H74	H	0.537552	-0.019514	0.000113
H75	H	1.016412	-0.577233	0.000099
H76	H	1.014299	-0.709345	0.000073
H77	H	0.764009	-0.678722	0.000038
H78	H	0.766119	-0.546605	0.000054
H79	H	0.504050	0.211335	0.000054
O80	O	1.001067	-0.004766	0.376833
H81	H	1.036971	-0.037811	0.333802
O82	O	1.001068	-0.004772	0.623367
H83	H	1.036964	-0.037832	0.666406
H84	H	0.800104	0.180281	0.634383
O85	O	1.001094	-0.004771	0.796824
H86	H	0.992424	0.003208	0.861862
H87	H	0.800120	0.180289	0.785776
O88	O	0.786443	0.192840	0.376797
H89	H	0.795127	0.184864	0.441837
O90	O	0.132256	-0.042349	0.000142
H91	H	0.179384	-0.085991	0.000164
O92	O	0.786432	0.192831	0.203338
H93	H	0.750543	0.225892	0.246367
H94	H	0.249959	0.207584	0.000068
H95	H	0.283465	-0.023272	0.000125
