data_functionalizedCrystal
_audit_creation_method	'MofGen! by Chris Wilmer'
_symmetry_space_group_name_H-M	'P1'
_symmetry_Int_Tables_number	1
_symmetry_cell_setting	triclinic
loop_
_symmetry_equiv_pos_as_xyz
  x,y,z
_cell_length_a	17.038272
_cell_length_b	14.044220
_cell_length_c	12.503572
_cell_angle_alpha	86.156832
_cell_angle_beta	93.767800
_cell_angle_gamma	92.150217
loop_
_atom_site_label
_atom_site_type_symbol
_atom_site_fract_x
_atom_site_fract_y
_atom_site_fract_z
O1	O	-1.055991	-0.201858	-0.089189
O2	O	-0.828132	-0.198570	-0.089221
O3	O	-0.938641	-0.061954	-0.089195
O4	O	-0.945483	-0.338474	-0.089215
O5	O	-0.930332	-0.072247	0.089445
O6	O	-0.819823	-0.208862	0.089419
O7	O	-1.047682	-0.212151	0.089451
Cu8	Cu	-0.932993	-0.211446	0.105746
Cu9	Cu	-0.942821	-0.199274	-0.105516
O10	O	-0.937173	-0.348766	0.089425
C11	C	-0.794640	-0.200726	0.000095
C12	C	-0.707224	-0.191806	0.000084
C13	C	-0.931492	-0.031545	0.000125
C14	C	-0.922561	0.074401	0.000125
C15	C	-1.081174	-0.209994	0.000132
C16	C	-1.168591	-0.218914	0.000137
C17	C	-0.662839	-0.273694	0.000078
C18	C	-0.580701	-0.265309	0.000094
C19	C	-0.542950	-0.175035	0.000107
C20	C	-0.587341	-0.093141	0.000115
C21	C	-0.669477	-0.101527	0.000107
C22	C	-0.295118	-0.145406	0.000138
C23	C	-0.212976	-0.137026	0.000142
C24	C	-0.206341	-0.309195	0.000123
C25	C	-0.288479	-0.317574	0.000109
C26	C	-0.332863	-0.235680	0.000123
C27	C	-0.458992	-0.166461	0.000119
C28	C	-0.416819	-0.244255	0.000118
C29	C	-0.944322	-0.379176	0.000102
C30	C	-0.953254	-0.485122	0.000095
N31	N	-0.926087	-0.220008	0.254337
C32	C	-0.906233	0.268380	0.000108
C33	C	-0.969578	0.320905	0.000113
C34	C	-0.960493	0.428842	0.000103
C35	C	-0.915317	0.160434	0.000117
N36	N	-0.949733	-0.190706	-0.254107
C37	C	-0.915929	-0.232609	0.473450
C38	C	-0.959889	-0.178107	0.526787
C39	C	-0.954236	-0.185119	0.648709
C40	C	-0.921580	-0.225599	0.351517
H41	H	-0.693569	-0.347206	0.000067
H42	H	-1.001770	-0.126182	0.480884
H43	H	-0.544566	-0.331991	0.000088
H44	H	-0.319211	-0.391084	0.000086
O45	O	-0.453403	-0.331989	-0.000040
C46	C	-0.477205	-0.476338	-0.092653
C47	C	-0.435707	-0.377011	-0.092588
H48	H	-0.462926	-0.512759	-0.167482
H49	H	-0.455938	-0.521518	-0.017950
H50	H	-0.543528	-0.468238	-0.092605
H51	H	-0.369378	-0.385021	-0.092674
H52	H	-0.457038	-0.331867	-0.167285
O53	O	-0.163148	-0.388664	-0.000025
C54	C	-0.070893	-0.473815	-0.092600
C55	C	-0.119752	-0.383756	-0.092560
H56	H	-0.035808	-0.469886	-0.167418
H57	H	-0.028753	-0.478507	-0.017887
H58	H	-0.111996	-0.539765	-0.092557
H59	H	-0.078710	-0.317755	-0.092641
H60	H	-0.161900	-0.379149	-0.167267
O61	O	-0.176426	-0.049258	0.000202
C62	C	-0.191673	0.120631	0.000152
C63	C	-0.233164	0.021299	0.000117
H64	H	-0.237528	0.177703	0.000061
H65	H	-0.149934	0.124612	0.074929
H66	H	-0.156834	0.133114	-0.074592
H67	H	-0.268045	0.008750	0.074811
H68	H	-0.274857	0.017365	-0.074709
O69	O	-0.866016	-0.294684	0.528080
C70	C	-0.830184	-0.458743	0.562794
C71	C	-0.886750	-0.388545	0.500824
H72	H	-0.846937	-0.534646	0.540797
H73	H	-0.767315	-0.440165	0.540744
H74	H	-0.834455	-0.453383	0.652787
H75	H	-0.882548	-0.393867	0.410817
H76	H	-0.949595	-0.407144	0.522963
O77	O	-0.712620	-0.022020	0.000298
C78	C	-0.804948	0.063071	0.092816
C79	C	-0.756118	-0.027010	0.092741
H80	H	-0.840141	0.059058	0.167537
H81	H	-0.763892	0.129064	0.092893
H82	H	-0.847004	0.067751	0.018019
H83	H	-0.714058	-0.031781	0.167525
H84	H	-0.797221	-0.092958	0.092608
O85	O	-0.833447	0.311550	-0.000041
C86	C	-0.746173	0.422917	-0.092625
C87	C	-0.828636	0.374097	-0.092583
H88	H	-0.742251	0.473481	-0.167449
H89	H	-0.735280	0.465020	-0.017917
H90	H	-0.699916	0.366328	-0.092571
H91	H	-0.874945	0.430623	-0.092676
H92	H	-0.839462	0.331974	-0.167285
O93	O	-0.338313	-0.065916	-0.000005
C94	C	-0.439149	0.029913	-0.092594
C95	C	-0.390295	-0.060160	-0.092549
H96	H	-0.481176	0.034607	-0.167419
H97	H	-0.474357	0.026005	-0.017888
H98	H	-0.398035	0.095851	-0.092538
H99	H	-0.431352	-0.126144	-0.092643
H100	H	-0.355079	-0.056168	-0.167249
O101	O	-0.550644	-0.005458	-0.000062
C102	C	-0.466020	0.109239	-0.092564
C103	C	-0.507548	0.009925	-0.092505
H104	H	-0.431154	0.121699	-0.167285
H105	H	-0.511823	0.166372	-0.092629
H106	H	-0.424295	0.113141	-0.017767
H107	H	-0.549270	0.005928	-0.167289
H108	H	-0.461702	-0.047163	-0.092384
H109	H	-0.428245	-0.092961	0.000160
H110	H	-1.030636	0.284814	0.000049
