data_functionalizedCrystal
_audit_creation_method	'MofGen! by Chris Wilmer'
_symmetry_space_group_name_H-M	'P1'
_symmetry_Int_Tables_number	1
_symmetry_cell_setting	triclinic
loop_
_symmetry_equiv_pos_as_xyz
  x,y,z
_cell_length_a	14.519709
_cell_length_b	14.044220
_cell_length_c	12.996460
_cell_angle_alpha	89.993022
_cell_angle_beta	90.000034
_cell_angle_gamma	88.434511
loop_
_atom_site_label
_atom_site_type_symbol
_atom_site_fract_x
_atom_site_fract_y
_atom_site_fract_z
O1	O	1.233893	0.124273	-0.085435
O2	O	0.966596	0.138907	-0.085466
O3	O	1.096232	-0.006401	-0.085441
O4	O	1.104256	0.269581	-0.085460
O5	O	1.096217	-0.006409	0.085693
O6	O	0.966581	0.138899	0.085667
O7	O	1.233877	0.124265	0.085699
Cu8	Cu	1.100228	0.131581	0.101309
Cu9	Cu	1.100246	0.131591	-0.101076
O10	O	1.104241	0.269573	0.085674
C11	C	0.932174	0.138221	0.000097
C12	C	0.829628	0.136177	0.000085
C13	C	1.092712	-0.041726	0.000126
C14	C	1.082235	-0.146969	0.000126
C15	C	0.454125	0.128653	0.000132
C16	C	0.558601	0.130743	0.000119
C17	C	0.641873	0.132415	0.000107
C18	C	0.746356	0.134505	0.000096
C19	C	1.063081	-0.339663	0.000109
C20	C	1.137389	-0.397170	0.000115
C21	C	1.126731	-0.504392	0.000105
C22	C	1.073737	-0.232432	0.000118
C23	C	1.268300	0.124951	0.000134
C24	C	1.370846	0.126995	0.000139
C25	C	1.107761	0.304898	0.000104
C26	C	1.118238	0.410141	0.000098
N27	N	1.100221	0.131574	0.243656
N28	N	1.100259	0.131591	-0.243424
C29	C	1.100245	0.131592	0.663470
C30	C	1.100236	0.131590	0.546665
C31	C	1.100233	0.131584	0.453567
C32	C	1.100224	0.131580	0.336754
H33	H	1.209010	-0.365878	0.000054
C34	C	0.967563	-0.381328	-0.000111
C35	C	0.919787	-0.350631	-0.088169
C36	C	0.831800	-0.389017	-0.088410
H37	H	0.934886	-0.360629	0.059497
H38	H	0.972965	-0.448898	-0.000170
H39	H	0.914380	-0.283076	-0.088101
H40	H	0.952435	-0.371329	-0.147791
H41	H	0.837202	-0.456586	-0.088469
H42	H	0.799132	-0.368315	-0.028798
H43	H	0.799376	-0.368201	-0.148160
