data_functionalizedCrystal
_audit_creation_method	'MofGen! by Chris Wilmer'
_symmetry_space_group_name_H-M	'P1'
_symmetry_Int_Tables_number	1
_symmetry_cell_setting	triclinic
loop_
_symmetry_equiv_pos_as_xyz
  x,y,z
_cell_length_a	13.635800
_cell_length_b	19.480096
_cell_length_c	17.078481
_cell_angle_alpha	87.321648
_cell_angle_beta	80.693839
_cell_angle_gamma	120.097258
loop_
_atom_site_label
_atom_site_type_symbol
_atom_site_fract_x
_atom_site_fract_y
_atom_site_fract_z
V1	V	2.035737	0.109582	-0.247281
O2	O	1.981736	-0.005456	-0.242657
O3	O	2.056864	0.217466	-0.245510
O4	O	2.000518	0.107813	-0.355165
O5	O	2.038472	0.104956	-0.132242
V6	V	2.273105	0.095832	-0.233531
O7	O	2.176003	0.139744	-0.277442
O8	O	2.357938	0.065670	-0.203370
O9	O	2.140374	-0.012052	-0.235302
O10	O	2.385804	0.210870	-0.238155
O11	O	2.329068	0.100458	-0.348570
O12	O	2.196720	0.097601	-0.125647
V13	V	2.535737	0.109582	-0.247281
O14	O	2.481736	-0.005456	-0.242657
O15	O	2.556864	0.217466	-0.245510
O16	O	2.500518	0.107813	-0.355165
O17	O	2.538472	0.104956	-0.132242
V18	V	2.773105	0.095832	-0.233531
O19	O	2.676003	0.139744	-0.277442
O20	O	2.857938	0.065670	-0.203370
O21	O	2.640374	-0.012052	-0.235302
O22	O	2.885804	0.210870	-0.238155
O23	O	2.829068	0.100458	-0.348570
O24	O	2.696720	0.097601	-0.125647
C25	C	1.990748	0.243768	-0.241588
C26	C	2.048592	0.331964	-0.240859
C27	C	1.918872	0.103894	-0.381464
C28	C	1.931019	0.103161	-0.469659
C29	C	2.168137	0.377437	-0.244471
C30	C	2.222482	0.460307	-0.243791
C31	C	2.157281	0.497702	-0.239493
C32	C	2.037726	0.452224	-0.235883
C33	C	1.983384	0.369356	-0.236569
C34	C	2.309903	0.745107	-0.237022
C35	C	2.364255	0.827980	-0.236334
C36	C	2.549009	0.836058	-0.244243
C37	C	2.494655	0.753188	-0.244924
C38	C	2.375107	0.707718	-0.241319
N39	N	2.212828	0.582408	-0.238795
N40	N	2.319563	0.623014	-0.242022
C41	C	2.038163	-0.038350	-0.239222
C42	C	1.969938	-0.126545	-0.239956
C43	C	2.541646	0.961649	-0.239219
C44	C	2.483800	0.873453	-0.239946
C45	C	2.022885	-0.172005	-0.236339
C46	C	1.958789	-0.254876	-0.237016
C47	C	1.841748	-0.292286	-0.241315
C48	C	1.788798	-0.246820	-0.244929
C49	C	1.852892	-0.163951	-0.244247
C50	C	2.029056	0.106777	-0.515132
C51	C	2.040463	0.106088	-0.598001
C52	C	1.953835	0.101789	-0.635396
C53	C	1.855789	0.098170	-0.589916
C54	C	1.844380	0.098853	-0.507048
C55	C	1.978054	0.099316	-0.882801
C56	C	1.989473	0.098635	-0.965675
C57	C	2.174145	0.106552	-0.973754
C58	C	2.162730	0.107240	-0.890885
C59	C	2.064683	0.103617	-0.845412
N60	N	1.965495	0.101087	-0.720101
N61	N	2.053021	0.104313	-0.760707
C62	C	2.110039	0.101523	-0.099344
C63	C	2.087510	0.102251	-0.011148
C64	C	2.490748	0.243768	-0.241588
C65	C	2.548592	0.331964	-0.240859
C66	C	2.418872	0.103894	-0.381464
C67	C	2.431019	0.103161	-0.469659
C68	C	2.610039	0.101523	-0.099344
C69	C	2.587510	0.102251	-0.011148
C70	C	2.668139	0.377424	-0.244478
C71	C	2.722507	0.460296	-0.243805
C72	C	2.657325	0.497706	-0.239508
C73	C	2.537768	0.452240	-0.235892
C74	C	2.483403	0.369370	-0.236570
C75	C	2.529058	0.106770	-0.515117
C76	C	2.540478	0.106071	-0.597985
C77	C	2.453862	0.101769	-0.635394
C78	C	2.355813	0.098158	-0.589929
C79	C	2.344390	0.098851	-0.507062
C80	C	2.491890	0.106544	0.026240
C81	C	2.470700	0.107219	0.109111
C82	C	2.545136	0.103607	0.154591
C83	C	2.640762	0.099312	0.117197
C84	C	2.661945	0.098631	0.034329
H85	H	2.221237	0.346995	-0.247963
H86	H	2.739814	0.095141	0.003894
H87	H	1.789571	-0.359763	-0.241870
Cl88	Cl	1.880561	0.093230	-1.012685
Cl89	Cl	2.872804	0.517436	-0.248347
Cl90	Cl	2.637963	0.112176	-0.468107
H91	H	2.001923	-0.291883	-0.234074
H92	H	2.547758	0.722748	-0.248430
H93	H	2.484708	0.482711	-0.232393
H94	H	2.701607	0.565184	-0.238956
Cl95	Cl	2.246941	0.092762	-0.636971
H96	H	1.809768	-0.126943	-0.247199
H97	H	2.620324	0.109015	-0.634992
Cl98	Cl	2.734336	0.094782	0.174382
Cl99	Cl	2.333108	0.312229	-0.232013
Cl100	Cl	2.350487	0.112626	0.156101
H101	H	1.898239	0.096394	-0.845791
Cl102	Cl	2.137970	0.112188	-0.468131
Cl103	Cl	1.833096	0.312191	-0.232033
H104	H	2.319822	0.497327	-0.246733
Cl105	Cl	2.170021	-0.124995	-0.230934
H106	H	2.463178	0.101206	-0.702871
H107	H	1.785254	0.094665	-0.620369
Cl108	Cl	2.282281	0.874992	-0.230943
Cl109	Cl	2.699294	0.893225	-0.248777
H110	H	2.212566	0.708094	-0.234082
H111	H	2.264555	0.095914	-0.470056
H112	H	2.431268	0.109485	-0.010779
H113	H	1.693496	-0.277292	-0.248429
H114	H	1.984643	0.482678	-0.232389
H115	H	2.120290	0.109028	-0.635021
H116	H	2.527881	0.104172	0.222065
Cl117	Cl	2.271641	0.112648	-0.843881
H118	H	2.253971	0.109501	-1.010787
Cl119	Cl	2.750111	0.330415	-0.249888
Cl120	Cl	1.721124	0.094300	-0.449880
