data_functionalizedCrystal
_audit_creation_method	'MofGen! by Chris Wilmer'
_symmetry_space_group_name_H-M	'P1'
_symmetry_Int_Tables_number	1
_symmetry_cell_setting	triclinic
loop_
_symmetry_equiv_pos_as_xyz
  x,y,z
_cell_length_a	15.995350
_cell_length_b	16.098538
_cell_length_c	15.995350
_cell_angle_alpha	92.725104
_cell_angle_beta	96.507625
_cell_angle_gamma	92.735063
loop_
_atom_site_label
_atom_site_type_symbol
_atom_site_fract_x
_atom_site_fract_y
_atom_site_fract_z
O1	O	1.114731	0.069181	-0.104189
O2	O	0.870956	0.069198	-0.117515
O3	O	0.999507	0.069188	0.011036
O4	O	0.986180	0.069191	-0.232740
O5	O	0.991998	-0.069324	0.003556
O6	O	0.863447	-0.069314	-0.124995
O7	O	1.107221	-0.069331	-0.111669
Zn8	Zn	0.984142	-0.091314	-0.119519
Zn9	Zn	0.994036	0.091182	-0.109664
O10	O	0.978670	-0.069321	-0.240219
C11	C	0.836007	-0.000056	-0.120704
C12	C	0.743057	-0.000049	-0.119052
N13	N	0.977396	-0.215863	-0.126245
C14	C	0.405308	-0.000067	-0.113121
C15	C	0.452726	-0.000377	-0.021586
C16	C	0.549433	-0.000059	-0.023221
C17	C	0.572869	-0.000059	-0.116063
C18	C	0.536070	0.079036	-0.156948
C19	C	0.439438	0.079096	-0.154645
C20	C	0.430559	-0.078418	-0.165043
C21	C	0.527449	-0.079458	-0.165077
C22	C	0.667567	-0.000051	-0.117730
C23	C	0.310611	-0.000069	-0.111456
C24	C	1.031978	-0.259452	-0.071702
C25	C	1.027266	-0.346641	-0.076415
C26	C	0.967976	-0.390239	-0.135675
C27	C	0.913388	-0.346644	-0.190220
C28	C	0.918096	-0.259457	-0.185503
C29	C	0.950909	-0.653488	-0.152760
C30	C	0.946206	-0.740681	-0.157475
C31	C	1.060084	-0.740672	-0.043668
C32	C	1.064790	-0.653483	-0.038960
C33	C	1.010199	-0.609896	-0.093502
C34	C	0.963161	-0.479360	-0.140495
C35	C	1.015011	-0.520776	-0.088677
C36	C	1.142171	-0.000075	-0.108480
C37	C	1.235121	-0.000076	-0.110132
C38	C	0.995202	-0.000066	0.038490
C39	C	0.993550	-0.000061	0.131441
N40	N	1.000789	0.215730	-0.102932
C41	C	0.982976	-0.000065	-0.267674
C42	C	0.984628	-0.000064	-0.360625
C43	C	0.987618	-0.000064	0.469188
C44	C	0.896083	0.000253	0.421772
C45	C	0.897718	-0.000059	0.325064
C46	C	0.990560	-0.000062	0.301628
C47	C	1.031429	-0.079161	0.338434
C48	C	1.029125	-0.079227	0.435066
C49	C	1.039556	0.078287	0.443930
C50	C	1.039591	0.079333	0.347041
C51	C	0.992228	-0.000064	0.206930
C52	C	0.985952	-0.000067	0.563886
H53	H	0.431128	-0.057099	0.011947
H54	H	0.906460	-0.618005	-0.197173
O55	O	1.129008	0.078987	0.486032
H56	H	1.165270	0.134473	0.467883
H57	H	1.107554	0.084106	0.331937
H58	H	0.865109	-0.382146	-0.238468
O59	O	0.583028	-0.075165	0.019730
H60	H	0.530189	-0.112039	0.041864
H61	H	1.104528	-0.776169	0.000738
O62	O	0.388439	-0.079137	-0.254489
H63	H	0.408835	-0.021784	-0.284147
O64	O	0.396967	0.083852	-0.243417
H65	H	0.360640	0.140845	-0.247690
H66	H	0.858904	-0.056852	0.294133
H67	H	1.080261	-0.223961	-0.023450
H68	H	1.113069	-0.617988	0.009294
H69	H	0.914887	-0.514864	-0.188747
O70	O	1.086151	-0.393658	-0.017602
H71	H	1.128182	-0.348694	0.024385
H72	H	1.096147	-0.082818	0.467120
H73	H	0.542555	-0.084235	-0.233038
H74	H	0.580370	0.056737	0.015582
O75	O	0.854755	0.075035	0.291458
H76	H	0.832619	0.111900	0.344292
O77	O	0.882245	-0.787710	-0.221384
H78	H	0.845067	-0.742754	-0.258511
H79	H	0.424335	0.138221	-0.118522
O80	O	0.859231	-0.212436	-0.244334
H81	H	0.817217	-0.257398	-0.286340
H82	H	1.012873	0.138239	0.467708
O83	O	0.399071	-0.157833	-0.129674
H84	H	0.329366	-0.158973	-0.132526
O85	O	0.554994	0.082947	-0.247086
H86	H	0.590917	0.028430	-0.263739
H87	H	1.063283	-0.485277	-0.040425
O88	O	1.000123	0.156847	0.315065
H89	H	1.035131	0.212681	0.347466
O90	O	0.981255	-0.157537	0.455090
H91	H	0.959962	-0.195002	0.395799
H92	H	0.567636	0.137899	-0.122406
O93	O	0.843768	-0.074457	0.443682
H94	H	0.821636	-0.113204	0.385413
O95	O	0.851666	0.075376	0.450386
H96	H	0.894352	0.113290	0.498712
H97	H	0.436190	0.056032	0.017888
H98	H	0.996874	-0.138022	0.306874
O99	O	0.559424	-0.156973	-0.125607
H100	H	0.607469	-0.139035	-0.071309
H101	H	1.099478	-0.082105	0.324149
