data_functionalizedCrystal
_audit_creation_method	'MofGen! by Chris Wilmer'
_symmetry_space_group_name_H-M	'P1'
_symmetry_Int_Tables_number	1
_symmetry_cell_setting	triclinic
loop_
_symmetry_equiv_pos_as_xyz
  x,y,z
_cell_length_a	23.532407
_cell_length_b	9.065218
_cell_length_c	7.540329
_cell_angle_alpha	90.001757
_cell_angle_beta	89.997614
_cell_angle_gamma	83.932281
loop_
_atom_site_label
_atom_site_type_symbol
_atom_site_fract_x
_atom_site_fract_y
_atom_site_fract_z
O1	O	-0.756573	-0.179072	-0.147254
O2	O	-0.256573	0.320928	0.352746
O3	O	-0.590900	-0.204983	-0.147305
O4	O	-0.090900	0.295017	0.352695
O5	O	-0.677161	0.022784	-0.147275
O6	O	-0.177161	0.522784	0.352725
O7	O	-0.670312	-0.406838	-0.147285
O8	O	-0.170312	0.093162	0.352715
O9	O	-0.677156	0.022786	0.147690
O10	O	-0.177156	0.522786	0.647690
O11	O	-0.590895	-0.204980	0.147660
O12	O	-0.090895	0.295020	0.647660
O13	O	-0.756568	-0.179069	0.147711
O14	O	-0.256568	0.320931	0.647711
Cu15	Cu	-0.673731	-0.192024	0.174618
Cu16	Cu	-0.173731	0.307976	0.674618
Cu17	Cu	-0.673737	-0.192028	-0.174213
Cu18	Cu	-0.173737	0.307972	0.325787
O19	O	-0.670307	-0.406836	0.147680
O20	O	-0.170307	0.093164	0.647680
C21	C	-0.676500	0.077739	0.000204
C22	C	-0.176500	0.577739	0.500204
C23	C	-0.674532	0.241485	0.000195
C24	C	-0.174532	0.741485	0.500195
C25	C	-0.569676	-0.204321	0.000170
C26	C	-0.069676	0.295679	0.500170
C27	C	-0.506445	-0.202338	0.000151
C28	C	-0.006445	0.297662	0.500151
C29	C	-0.777791	-0.179731	0.000231
C30	C	-0.277791	0.320269	0.500231
C31	C	-0.841023	-0.181714	0.000239
C32	C	-0.341023	0.318286	0.500239
C33	C	-0.108240	-0.324683	0.000228
C34	C	0.391760	0.175317	0.500228
C35	C	-0.048826	-0.322840	0.000239
C36	C	0.451174	0.177160	0.500239
O37	O	-0.012914	-0.436255	0.000301
O38	O	0.487086	0.063745	0.500301
N39	N	-0.025206	-0.187433	0.000239
N40	N	0.474794	0.312567	0.500239
C41	C	-0.061003	-0.053860	0.000247
C42	C	0.438997	0.446140	0.500247
O43	O	-0.035456	0.061484	0.000249
O44	O	0.464544	0.561484	0.500249
C45	C	-0.120415	-0.055704	0.000248
C46	C	0.379585	0.444296	0.500248
C47	C	-0.144032	-0.191120	0.000230
C48	C	0.355968	0.308880	0.500230
C49	C	-0.131857	-0.460088	0.000212
C50	C	0.368143	0.039912	0.500212
C51	C	-0.191267	-0.461930	0.000198
C52	C	0.308733	0.038070	0.500198
C53	C	-0.227059	-0.328367	0.000200
C54	C	0.272941	0.171633	0.500200
C55	C	-0.203442	-0.192962	0.000216
C56	C	0.296558	0.307038	0.500216
C57	C	-0.156211	0.077867	0.000268
C58	C	0.343789	0.577867	0.500268
C59	C	-0.215627	0.076011	0.000271
C60	C	0.284373	0.576011	0.500271
C61	C	-0.239244	-0.059405	0.000253
C62	C	0.260756	0.440595	0.500253
C63	C	-0.298644	-0.061242	0.000204
C64	C	0.201356	0.438758	0.500204
N65	N	-0.322264	-0.196649	0.000204
N66	N	0.177736	0.303351	0.500204
C67	C	-0.286472	-0.330211	0.000202
C68	C	0.213528	0.169789	0.500202
C69	C	0.063768	-0.049997	0.000246
C70	C	0.563768	0.450003	0.500246
C71	C	0.123180	-0.048151	0.000231
C72	C	0.623180	0.451849	0.500231
C73	C	0.135352	-0.317131	0.000228
C74	C	0.635352	0.182869	0.500228
C75	C	0.075939	-0.318976	0.000229
C76	C	0.575939	0.181024	0.500229
C77	C	0.040148	-0.185404	0.000246
C78	C	0.540148	0.314596	0.500246
C79	C	-0.411237	-0.334070	0.000171
C80	C	0.088763	0.165930	0.500171
C81	C	-0.470653	-0.335900	0.000149
C82	C	0.029347	0.164100	0.500149
C83	C	-0.482820	-0.066921	0.000162
C84	C	0.017180	0.433079	0.500162
C85	C	-0.423410	-0.065089	0.000174
C86	C	0.076590	0.434911	0.500174
C87	C	-0.387619	-0.198676	0.000185
C88	C	0.112381	0.301324	0.500185
O89	O	-0.334591	0.052114	0.000149
O90	O	0.165409	0.552114	0.500149
O91	O	-0.312027	-0.445536	0.000223
O92	O	0.187973	0.054464	0.500223
C93	C	-0.670968	-0.461791	0.000197
C94	C	-0.170968	0.038209	0.500197
C95	C	-0.672936	-0.625537	0.000195
C96	C	-0.172936	-0.125537	0.500195
N97	N	-0.673731	-0.192021	0.419966
N98	N	-0.173731	0.307979	0.919966
N99	N	-0.673742	-0.192019	-0.419561
N100	N	-0.173742	0.307981	0.080439
H101	H	-0.489878	-0.446177	0.000133
H102	H	0.010122	0.053823	0.500133
O103	O	-0.400399	0.066360	0.000415
O104	O	0.099601	0.566360	0.500415
C105	C	-0.366419	0.075495	0.153220
C106	C	0.133581	0.575495	0.653220
H107	H	-0.352233	-0.040994	0.204149
H108	H	0.147767	0.459006	0.704149
H109	H	-0.392330	0.141146	0.260184
H110	H	0.107670	0.641146	0.760184
C111	C	-0.330888	0.297223	0.044300
C112	C	0.169112	0.797223	0.544300
C113	C	-0.313460	0.154148	0.106842
C114	C	0.186540	0.654148	0.606842
H115	H	-0.298221	0.345745	0.015696
H116	H	0.201779	0.845745	0.515696
H117	H	-0.353782	0.291073	-0.058646
H118	H	0.146218	0.791073	0.441354
H119	H	-0.352480	0.351913	0.133447
H120	H	0.147520	0.851913	0.633447
H121	H	-0.291874	0.099455	0.017688
H122	H	0.208126	0.599455	0.517688
H123	H	-0.290560	0.160291	0.209772
H124	H	0.209440	0.660291	0.709772
H125	H	-0.511972	0.041822	0.000157
H126	H	-0.011972	0.541822	0.500157
H127	H	-0.382103	-0.442849	0.000184
H128	H	0.117897	0.057151	0.500184
H129	H	-0.210490	-0.572199	0.000183
H130	H	0.289510	-0.072199	0.500183
H131	H	-0.102721	-0.568857	0.000217
H132	H	0.397279	-0.068857	0.500217
O133	O	0.170069	-0.446974	0.000476
O134	O	0.670069	0.053026	0.500476
C135	C	0.159265	-0.529222	0.153264
C136	C	0.659265	-0.029222	0.653264
H137	H	0.114394	-0.492336	0.204186
H138	H	0.614394	0.007664	0.704186
H139	H	0.191854	-0.509521	0.260241
H140	H	0.691854	-0.009521	0.760241
C141	C	0.219168	-0.740810	0.044321
C142	C	0.719168	-0.240810	0.544321
C143	C	0.164053	-0.695515	0.106856
C144	C	0.664053	-0.195515	0.606856
H145	H	0.222124	-0.843388	0.015700
H146	H	0.722124	-0.343388	0.515700
H147	H	0.226449	-0.685397	-0.058612
H148	H	0.726449	-0.185397	0.441388
H149	H	0.246319	-0.724380	0.133479
H150	H	0.746319	-0.224380	0.633479
H151	H	0.136904	-0.711928	0.017691
H152	H	0.636904	-0.211928	0.517691
H153	H	0.156768	-0.750935	0.209774
H154	H	0.656768	-0.250935	0.709774
H155	H	-0.244767	0.184784	0.000286
H156	H	0.255233	0.684784	0.500286
O157	O	0.052932	-0.450423	0.000455
O158	O	0.552932	0.049577	0.500455
C159	C	0.018941	-0.459568	0.153244
C160	C	0.518941	0.040432	0.653244
H161	H	0.004751	-0.343081	0.204186
H162	H	0.504751	0.156919	0.704186
H163	H	0.044845	-0.525224	0.260207
H164	H	0.544845	-0.025224	0.760207
C165	C	-0.016581	-0.681291	0.044266
C166	C	0.483419	-0.181291	0.544266
C167	C	-0.034014	-0.538220	0.106827
C168	C	0.465986	-0.038220	0.606827
H169	H	-0.049246	-0.729813	0.015639
H170	H	0.450754	-0.229813	0.515639
H171	H	0.006320	-0.675135	-0.058668
H172	H	0.506320	-0.175135	0.441332
H173	H	0.005005	-0.735986	0.133414
H174	H	0.505005	-0.235986	0.633414
H175	H	-0.055594	-0.483523	0.017672
H176	H	0.444406	0.016477	0.517672
H177	H	-0.056921	-0.544369	0.209745
H178	H	0.443079	-0.044369	0.709745
H179	H	0.142403	0.062118	0.000218
H180	H	0.642403	0.562118	0.500218
H181	H	-0.136993	0.188137	0.000284
H182	H	0.363007	0.688137	0.500284
H183	H	0.034629	0.058781	0.000243
H184	H	0.534629	0.558781	0.500243
