data_functionalizedCrystal
_audit_creation_method	'MofGen! by Chris Wilmer'
_symmetry_space_group_name_H-M	'P1'
_symmetry_Int_Tables_number	1
_symmetry_cell_setting	triclinic
loop_
_symmetry_equiv_pos_as_xyz
  x,y,z
_cell_length_a	6.817900
_cell_length_b	17.982783
_cell_length_c	16.305550
_cell_angle_alpha	95.663698
_cell_angle_beta	103.455250
_cell_angle_gamma	102.448572
loop_
_atom_site_label
_atom_site_type_symbol
_atom_site_fract_x
_atom_site_fract_y
_atom_site_fract_z
V1	V	-4.021167	-0.106056	-0.263384
O2	O	-4.014054	0.004435	-0.258010
O3	O	-3.967657	-0.209654	-0.261929
O4	O	-3.972637	-0.104715	-0.378096
O5	O	-4.009039	-0.101231	-0.141038
V6	V	-4.505474	-0.092806	-0.248708
O7	O	-4.280706	-0.135121	-0.295576
O8	O	-4.696132	-0.063740	-0.216516
O9	O	-4.335777	0.010793	-0.250163
O10	O	-4.629984	-0.203296	-0.254082
O11	O	-4.634999	-0.097630	-0.371054
O12	O	-4.330797	-0.094147	-0.133995
C13	C	-3.811419	-0.234900	-0.257863
C14	C	-3.848954	-0.319596	-0.257439
C15	C	-3.827008	-0.348316	-0.179947
C16	C	-3.862296	-0.427897	-0.179551
C17	C	-3.919515	-0.478756	-0.256647
C18	C	-3.941467	-0.450030	-0.334144
C19	C	-3.906194	-0.370451	-0.334540
C20	C	-4.083724	-0.770965	-0.332550
C21	C	-4.118991	-0.850548	-0.332148
C22	C	-4.039827	-0.828410	-0.177561
C23	C	-4.004554	-0.748831	-0.177957
C24	C	-4.026519	-0.720113	-0.255454
C25	C	-3.988259	-0.633822	-0.255883
C26	C	-3.957760	-0.565045	-0.256218
C27	C	-3.817771	-0.101038	-0.406045
C28	C	-3.859342	-0.100628	-0.499826
C29	C	-4.010505	-0.099035	-0.840566
C30	C	-3.774684	-0.094308	-0.799622
C31	C	-3.731454	-0.095050	-0.702129
C32	C	-3.935510	-0.099825	-0.671521
C33	C	-4.098940	-0.175069	-0.722397
C34	C	-4.140824	-0.174644	-0.819945
C35	C	-4.068609	-0.029119	-0.794490
C36	C	-4.020708	-0.028524	-0.696646
C37	C	-3.893139	-0.100274	-0.575984
C38	C	-4.052885	-0.098591	-0.936103
C39	C	-4.155357	0.036035	-0.254226
C40	C	-4.097060	0.120730	-0.254656
C41	C	-4.149005	-0.097825	-0.106042
C42	C	-4.086673	-0.098232	-0.012261
H43	H	-3.957953	-0.707425	-0.115177
Cl44	Cl	-4.334051	-0.033429	-0.835909
Cl45	Cl	-3.837934	0.057406	-0.643289
Cl46	Cl	-4.012227	-0.864518	-0.080134
Cl47	Cl	-3.755062	-0.284386	-0.083020
H48	H	-3.727188	-0.144539	-0.831301
H49	H	-3.844429	-0.451277	-0.116450
H50	H	-3.979937	0.027893	-0.807669
H51	H	-4.314344	-0.181243	-0.847959
Cl52	Cl	-4.081106	-0.256360	-0.867127
H53	H	-3.607548	-0.040950	-0.666926
Cl54	Cl	-4.248173	-0.027072	-0.663676
Cl55	Cl	-4.190923	-0.914485	-0.429077
Cl56	Cl	-4.111321	-0.734872	-0.429975
Cl57	Cl	-3.625159	-0.173504	-0.677229
H58	H	-3.988072	-0.491446	-0.396917
Cl59	Cl	-3.933797	-0.334346	-0.431962
H60	H	-3.671148	-0.039951	-0.811805
H61	H	-4.251798	-0.181284	-0.703505
H62	H	-4.040971	-0.228012	-0.705760
