data_functionalizedCrystal
_audit_creation_method	'MofGen! by Chris Wilmer'
_symmetry_space_group_name_H-M	'P1'
_symmetry_Int_Tables_number	1
_symmetry_cell_setting	triclinic
loop_
_symmetry_equiv_pos_as_xyz
  x,y,z
_cell_length_a	10.967874
_cell_length_b	15.944564
_cell_length_c	10.066323
_cell_angle_alpha	98.776020
_cell_angle_beta	86.893351
_cell_angle_gamma	95.880339
loop_
_atom_site_label
_atom_site_type_symbol
_atom_site_fract_x
_atom_site_fract_y
_atom_site_fract_z
O1	O	1.577633	-0.169955	-0.484508
O2	O	1.227602	-0.172372	-0.402193
O3	O	1.412170	-0.049186	-0.445584
O4	O	1.393065	-0.293140	-0.441117
O5	O	1.447405	-0.025647	-0.226894
O6	O	1.262836	-0.148833	-0.183503
O7	O	1.612867	-0.146416	-0.265818
Zn8	Zn	1.443446	-0.143887	-0.189939
Zn9	Zn	1.397023	-0.174901	-0.478072
O10	O	1.428299	-0.269601	-0.222427
C11	C	1.200427	-0.158648	-0.282315
C12	C	1.066961	-0.152815	-0.250928
C13	C	0.989206	-0.162408	-0.350223
C14	C	0.851261	-0.156379	-0.317785
C15	C	1.428992	-0.006098	-0.336051
C16	C	1.426607	0.087222	-0.335489
C17	C	1.306495	0.305829	-0.307260
C18	C	1.379632	0.376710	-0.212546
C19	C	1.422290	0.258081	-0.334483
C20	C	1.344921	0.353485	-0.428164
C21	C	1.418110	0.423122	-0.333515
C22	C	1.495473	0.327742	-0.239687
C23	C	1.460730	0.304500	-0.455398
C24	C	1.533955	0.375363	-0.360678
C25	C	1.424694	0.163005	-0.335039
C26	C	1.415716	0.518197	-0.332952
C27	C	1.640042	-0.160140	-0.385699
C28	C	1.773506	-0.165974	-0.417095
C29	C	1.411461	0.687309	-0.331957
C30	C	1.413797	0.593986	-0.332512
N31	N	1.475137	-0.122721	0.006703
N32	N	1.365342	-0.196060	-0.674716
C33	C	1.432445	-0.151245	0.241701
C34	C	1.408024	-0.167543	0.090285
H35	H	0.809052	-0.178657	-0.526126
O36	O	1.565181	-0.062447	0.054907
C37	C	1.642257	0.085944	0.080828
C38	C	1.540220	0.017770	0.026145
H39	H	1.622099	0.150818	0.057619
H40	H	1.734251	0.069161	0.031127
H41	H	1.645921	0.088326	0.194319
H42	H	1.536444	0.015353	-0.087337
H43	H	1.448277	0.034580	0.075948
O44	O	1.024360	-0.137657	-0.120935
C45	C	0.848017	-0.117910	0.029922
C46	C	0.896095	-0.135062	-0.117357
H47	H	0.744307	-0.115825	0.032864
H48	H	0.892991	-0.054229	0.080417
H49	H	0.871162	-0.171042	0.085529
H50	H	0.872963	-0.081982	-0.173077
H51	H	0.851124	-0.198770	-0.167749
O52	O	1.275247	-0.256174	0.276720
C53	C	1.168848	-0.327290	0.081510
C54	C	1.270899	-0.259170	0.136327
H55	H	1.165316	-0.329748	-0.032008
H56	H	1.076828	-0.310454	0.131077
H57	H	1.188908	-0.392148	0.104879
H58	H	1.250956	-0.194287	0.112973
H59	H	1.362886	-0.276080	0.086760
H60	H	1.630159	0.405522	-0.383238
H61	H	1.507980	-0.100813	0.282235
O62	O	1.191775	0.269767	-0.280338
C63	C	0.982240	0.242672	-0.347868
C64	C	1.112089	0.283565	-0.378502
H65	H	0.917783	0.253797	-0.427231
H66	H	0.947828	0.272635	-0.244312
H67	H	0.985005	0.171248	-0.349429
H68	H	1.109427	0.354988	-0.377015
H69	H	1.146450	0.253536	-0.482039
O70	O	1.338522	0.414175	-0.090107
C71	C	1.172223	0.420952	0.076557
C72	C	1.218624	0.378472	-0.062134
H73	H	1.075290	0.392090	0.099230
H74	H	1.171563	0.492364	0.076144
H75	H	1.235514	0.409809	0.157023
H76	H	1.155374	0.389549	-0.142676
H77	H	1.219314	0.307074	-0.061607
O78	O	1.571306	0.313646	-0.144561
C79	C	1.658683	0.209327	-0.038419
C80	C	1.572752	0.225172	-0.146177
H81	H	1.659901	0.137799	-0.039709
H82	H	1.624450	0.239754	0.064934
H83	H	1.755392	0.238709	-0.060773
H84	H	1.476021	0.195791	-0.123950
H85	H	1.607088	0.194764	-0.249496
O86	O	1.501390	0.266961	-0.577974
C87	C	1.468048	0.236986	-0.815865
C88	C	1.421866	0.279524	-0.677117
H89	H	1.403790	0.247144	-0.896063
H90	H	1.470267	0.165760	-0.814849
H91	H	1.564344	0.266617	-0.839408
H92	H	1.325554	0.249962	-0.653488
H93	H	1.419737	0.350750	-0.678205
H94	H	1.281241	0.365280	-0.507809
O95	O	1.031525	-0.177685	-0.480305
C96	C	1.023650	-0.273582	-0.689936
C97	C	0.975646	-0.256394	-0.542633
H98	H	0.978473	-0.337208	-0.740380
H99	H	1.127338	-0.275814	-0.692996
H100	H	1.000614	-0.220406	-0.745513
H101	H	0.998594	-0.309548	-0.486968
H102	H	0.871968	-0.254128	-0.539672
O103	O	0.808834	-0.141106	-0.187737
C104	C	0.702896	-0.047764	-0.019447
C105	C	0.750907	-0.064949	-0.166748
H106	H	0.656028	0.013799	-0.002439
H107	H	0.782860	-0.041415	0.050330
H108	H	0.634177	-0.102998	0.002793
H109	H	0.819605	-0.009739	-0.189117
H110	H	0.670880	-0.071332	-0.236446
H111	H	1.332493	-0.217984	0.049753
