data_functionalizedCrystal
_audit_creation_method	'MofGen! by Chris Wilmer'
_symmetry_space_group_name_H-M	'P1'
_symmetry_Int_Tables_number	1
_symmetry_cell_setting	triclinic
loop_
_symmetry_equiv_pos_as_xyz
  x,y,z
_cell_length_a	16.625547
_cell_length_b	25.639240
_cell_length_c	16.625539
_cell_angle_alpha	89.961562
_cell_angle_beta	89.975178
_cell_angle_gamma	90.032694
loop_
_atom_site_label
_atom_site_type_symbol
_atom_site_fract_x
_atom_site_fract_y
_atom_site_fract_z
Zn1	Zn	1.232623	-0.208151	-0.455944
Zn2	Zn	1.482623	0.041849	-0.205944
Zn3	Zn	1.732623	0.291849	0.044056
Zn4	Zn	1.982623	0.541849	0.294056
Zn5	Zn	1.232502	-0.295589	-0.321087
Zn6	Zn	1.482502	-0.045589	-0.071087
Zn7	Zn	1.732502	0.204411	0.178913
Zn8	Zn	1.982502	0.454411	0.428913
Zn9	Zn	1.097785	-0.208169	-0.321115
Zn10	Zn	1.347785	0.041831	-0.071115
Zn11	Zn	1.597785	0.291831	0.178885
Zn12	Zn	1.847785	0.541831	0.428885
Zn13	Zn	1.097731	-0.295557	-0.455867
Zn14	Zn	1.347731	-0.045557	-0.205867
Zn15	Zn	1.597731	0.204443	0.044133
Zn16	Zn	1.847731	0.454443	0.294133
O17	O	1.165160	-0.251866	-0.388503
O18	O	1.415160	-0.001866	-0.138503
O19	O	1.665160	0.248134	0.111497
O20	O	1.915160	0.498134	0.361497
O21	O	1.345439	-0.219755	-0.438076
O22	O	1.595439	0.030245	-0.188076
O23	O	1.845439	0.280245	0.061924
O24	O	2.095439	0.530245	0.311924
O25	O	1.214603	-0.284013	-0.208259
O26	O	1.464603	-0.034013	0.041741
O27	O	1.714603	0.215987	0.291741
O28	O	1.964603	0.465987	0.541741
O29	O	1.115744	-0.135001	-0.339043
O30	O	1.365744	0.114999	-0.089043
O31	O	1.615744	0.364999	0.160957
O32	O	1.865744	0.614999	0.410957
O33	O	1.345350	-0.283995	-0.338997
O34	O	1.595350	-0.033995	-0.088997
O35	O	1.845350	0.216005	0.161003
O36	O	2.095350	0.466005	0.411003
O37	O	1.214809	-0.134988	-0.438102
O38	O	1.464809	0.115012	-0.188102
O39	O	1.714809	0.365012	0.061898
O40	O	1.964809	0.615012	0.311898
O41	O	1.115627	-0.219786	-0.208279
O42	O	1.365627	0.030214	0.041721
O43	O	1.615627	0.280214	0.291721
O44	O	1.865627	0.530214	0.541721
O45	O	0.984945	-0.219755	-0.338969
O46	O	1.234945	0.030245	-0.088969
O47	O	1.484945	0.280245	0.161031
O48	O	1.734945	0.530245	0.411031
O49	O	1.115653	-0.283941	-0.568710
O50	O	1.365653	-0.033941	-0.318710
O51	O	1.615653	0.216059	-0.068710
O52	O	1.865653	0.466059	0.181290
O53	O	0.984906	-0.283959	-0.437971
O54	O	1.234906	-0.033959	-0.187971
O55	O	1.484906	0.216041	0.062029
O56	O	1.734906	0.466041	0.312029
O57	O	1.214757	-0.219724	-0.568766
O58	O	1.464757	0.030276	-0.318766
O59	O	1.714757	0.280276	-0.068766
O60	O	1.964757	0.530276	0.181234
O61	O	1.214551	-0.368750	-0.338923
O62	O	1.464551	-0.118750	-0.088923
O63	O	1.714551	0.131250	0.161077
O64	O	1.964551	0.381250	0.411077
O65	O	1.115535	-0.368726	-0.437945
O66	O	1.365535	-0.118726	-0.187945
O67	O	1.615535	0.131274	0.062055
O68	O	1.865535	0.381274	0.312055
C69	C	0.955669	-0.251856	-0.388465
C70	C	1.205669	-0.001856	-0.138465
C71	C	1.455669	0.248144	0.111535
C72	C	1.705669	0.498144	0.361535
C73	C	0.866048	-0.251864	-0.388468
C74	C	1.116048	-0.001864	-0.138468
C75	C	1.366048	0.248136	0.111532
C76	C	1.616048	0.498136	0.361532
C77	C	0.793266	-0.251865	-0.388478
C78	C	1.043266	-0.001865	-0.138478
C79	C	1.293266	0.248135	0.111522
C80	C	1.543266	0.498135	0.361522
C81	C	0.701957	-0.251868	-0.388498
C82	C	0.951957	-0.001868	-0.138498
C83	C	1.201957	0.248132	0.111502
C84	C	1.451957	0.498132	0.361502
C85	C	0.629181	-0.251873	-0.388519
C86	C	0.879181	-0.001873	-0.138519
C87	C	1.129181	0.248127	0.111481
C88	C	1.379181	0.498127	0.361481
C89	C	0.537866	-0.251877	-0.388538
C90	C	0.787866	-0.001877	-0.138538
C91	C	1.037866	0.248123	0.111462
C92	C	1.287866	0.498123	0.361462
C93	C	1.165046	-0.387709	-0.388440
C94	C	1.415046	-0.137709	-0.138440
C95	C	1.665046	0.112291	0.111560
C96	C	1.915046	0.362291	0.361560
C97	C	1.165071	-0.445823	-0.388440
C98	C	1.415071	-0.195823	-0.138440
C99	C	1.665071	0.054177	0.111560
C100	C	1.915071	0.304177	0.361560
C101	C	1.216769	-0.806140	-0.440176
C102	C	1.466769	-0.556140	-0.190176
C103	C	1.716769	-0.306140	0.059824
C104	C	1.966769	-0.056140	0.309824
C105	C	1.216793	-0.860745	-0.440193
C106	C	1.466793	-0.610745	-0.190193
C107	C	1.716793	-0.360745	0.059807
C108	C	1.966793	-0.110745	0.309807
O109	O	1.260612	-0.888943	-0.484116
O110	O	1.510612	-0.638943	-0.234116
O111	O	1.760612	-0.388943	0.015884
O112	O	2.010612	-0.138943	0.265884
N113	N	1.165272	-0.888105	-0.388581
N114	N	1.415272	-0.638105	-0.138581
N115	N	1.665272	-0.388105	0.111419
N116	N	1.915272	-0.138105	0.361419
C117	C	1.113718	-0.860859	-0.336956
C118	C	1.363718	-0.610859	-0.086956
C119	C	1.613718	-0.360859	0.163044
C120	C	1.863718	-0.110859	0.413044
O121	O	1.069898	-0.889145	-0.293059
O122	O	1.319898	-0.639145	-0.043059
O123	O	1.569898	-0.389145	0.206941
O124	O	1.819898	-0.139145	0.456941
C125	C	1.113691	-0.806255	-0.336944
C126	C	1.363691	-0.556255	-0.086944
C127	C	1.613691	-0.306255	0.163056
C128	C	1.863691	-0.056255	0.413056
C129	C	1.165221	-0.778898	-0.388553
C130	C	1.415221	-0.528898	-0.138553
C131	C	1.665221	-0.278898	0.111447
C132	C	1.915221	-0.028898	0.361447
C133	C	1.268294	-0.778783	-0.491782
C134	C	1.518294	-0.528783	-0.241782
C135	C	1.768294	-0.278783	0.008218
C136	C	2.018294	-0.028783	0.258218
C137	C	1.268271	-0.724182	-0.491764
C138	C	1.518271	-0.474182	-0.241764
C139	C	1.768271	-0.224182	0.008236
C140	C	2.018271	0.025818	0.258236
C141	C	1.216723	-0.696939	-0.440141
C142	C	1.466723	-0.446939	-0.190141
C143	C	1.716723	-0.196939	0.059859
C144	C	1.966723	0.053061	0.309859
C145	C	1.165198	-0.724297	-0.388536
C146	C	1.415198	-0.474297	-0.138536
C147	C	1.665198	-0.224297	0.111464
C148	C	1.915198	0.025703	0.361464
C149	C	1.062134	-0.779010	-0.285324
C150	C	1.312134	-0.529010	-0.035324
C151	C	1.562134	-0.279010	0.214676
C152	C	1.812134	-0.029010	0.464676
C153	C	1.062111	-0.724403	-0.285317
C154	C	1.312111	-0.474403	-0.035317
C155	C	1.562111	-0.224403	0.214683
C156	C	1.812111	0.025597	0.464683
C157	C	1.113641	-0.697045	-0.336926
C158	C	1.363641	-0.447045	-0.086926
C159	C	1.613641	-0.197045	0.163074
C160	C	1.863641	0.052955	0.413074
C161	C	1.113627	-0.642454	-0.336895
C162	C	1.363627	-0.392454	-0.086895
C163	C	1.613627	-0.142454	0.163105
C164	C	1.863627	0.107546	0.413105
N165	N	1.165148	-0.615093	-0.388506
N166	N	1.415148	-0.365093	-0.138506
N167	N	1.665148	-0.115093	0.111494
N168	N	1.915148	0.134907	0.361494
C169	C	1.216696	-0.642336	-0.440129
C170	C	1.466696	-0.392336	-0.190129
C171	C	1.716696	-0.142336	0.059871
C172	C	1.966696	0.107664	0.309871
C173	C	1.113778	-0.975529	-0.336986
C174	C	1.363778	-0.725529	-0.086986
C175	C	1.613778	-0.475529	0.163014
C176	C	1.863778	-0.225529	0.413014
C177	C	1.113809	-1.030132	-0.336993
C178	C	1.363809	-0.780132	-0.086993
C179	C	1.613809	-0.530132	0.163007
C180	C	1.863809	-0.280132	0.413007
C181	C	1.216883	-1.030014	-0.440230
C182	C	1.466883	-0.780014	-0.190230
C183	C	1.716883	-0.530014	0.059770
C184	C	1.966883	-0.280014	0.309770
C185	C	1.216855	-0.975411	-0.440219
C186	C	1.466855	-0.725411	-0.190219
C187	C	1.716855	-0.475411	0.059781
C188	C	1.966855	-0.225411	0.309781
C189	C	1.165299	-0.948169	-0.388597
C190	C	1.415299	-0.698169	-0.138597
C191	C	1.665299	-0.448169	0.111403
C192	C	1.915299	-0.198169	0.361403
C193	C	1.216644	-0.527671	-0.440088
C194	C	1.466644	-0.277671	-0.190088
C195	C	1.716644	-0.027671	0.059912
C196	C	1.966644	0.222329	0.309912
C197	C	1.216619	-0.473066	-0.440063
C198	C	1.466619	-0.223066	-0.190063
C199	C	1.716619	0.026934	0.059937
C200	C	1.966619	0.276934	0.309937
C201	C	1.113543	-0.473188	-0.336829
C202	C	1.363543	-0.223188	-0.086829
C203	C	1.613543	0.026812	0.163171
C204	C	1.863543	0.276812	0.413171
C205	C	1.113571	-0.527789	-0.336850
C206	C	1.363571	-0.277789	-0.086850
C207	C	1.613571	-0.027789	0.163150
C208	C	1.863571	0.222211	0.413150
C209	C	1.165124	-0.555029	-0.388486
C210	C	1.415124	-0.305029	-0.138486
C211	C	1.665124	-0.055029	0.111514
C212	C	1.915124	0.194971	0.361514
O213	O	1.069827	-0.614221	-0.292997
O214	O	1.319827	-0.364221	-0.042997
O215	O	1.569827	-0.114221	0.207003
O216	O	1.819827	0.135779	0.457003
O217	O	1.260502	-0.614043	-0.484027
O218	O	1.510502	-0.364043	-0.234027
O219	O	1.760502	-0.114043	0.015973
O220	O	2.010502	0.135957	0.265973
C221	C	1.375469	-0.251877	-0.388542
C222	C	1.625469	-0.001877	-0.138542
C223	C	1.875469	0.248123	0.111458
C224	C	2.125469	0.498123	0.361458
C225	C	1.465090	-0.251881	-0.388559
C226	C	1.715090	-0.001881	-0.138559
C227	C	1.965090	0.248119	0.111441
C228	C	2.215090	0.498119	0.361441
C229	C	1.165212	-0.251827	-0.598812
C230	C	1.415212	-0.001827	-0.348812
C231	C	1.665212	0.248173	-0.098812
C232	C	1.915212	0.498173	0.151188
C233	C	1.165235	-0.251811	-0.688434
C234	C	1.415235	-0.001811	-0.438434
C235	C	1.665235	0.248189	-0.188434
C236	C	1.915235	0.498189	0.061566
C237	C	1.165296	-0.115493	-0.388584
C238	C	1.415296	0.134507	-0.138584
C239	C	1.665296	0.384507	0.111416
C240	C	1.915296	0.634507	0.361416
C241	C	1.165354	-0.057379	-0.388619
C242	C	1.415354	0.192621	-0.138619
C243	C	1.665354	0.442621	0.111381
C244	C	1.915354	0.692621	0.361381
C245	C	1.165272	-0.251752	-1.016609
C246	C	1.415272	-0.001752	-0.766609
C247	C	1.665272	0.248248	-0.516609
C248	C	1.915272	0.498248	-0.266609
C249	C	1.165259	-0.251770	-0.925301
C250	C	1.415259	-0.001770	-0.675301
C251	C	1.665259	0.248230	-0.425301
C252	C	1.915259	0.498230	-0.175301
C253	C	1.165254	-0.251782	-0.852524
C254	C	1.415254	-0.001782	-0.602524
C255	C	1.665254	0.248218	-0.352524
C256	C	1.915254	0.498218	-0.102524
C257	C	1.165240	-0.251799	-0.761210
C258	C	1.415240	-0.001799	-0.511210
C259	C	1.665240	0.248201	-0.261210
C260	C	1.915240	0.498201	-0.011210
C261	C	1.165154	-0.251867	-0.179013
C262	C	1.415154	-0.001867	0.070987
C263	C	1.665154	0.248133	0.320987
C264	C	1.915154	0.498133	0.570987
C265	C	1.165288	-0.251737	-0.089392
C266	C	1.415288	-0.001737	0.160608
C267	C	1.665288	0.248263	0.410608
C268	C	1.915288	0.498263	0.660608
H269	H	1.258584	-0.450793	-0.482089
H270	H	1.508584	-0.200793	-0.232089
H271	H	1.758584	0.049207	0.017911
H272	H	2.008584	0.299207	0.267911
Cl273	Cl	1.048743	-0.438930	-0.271935
Cl274	Cl	1.298743	-0.188930	-0.021935
Cl275	Cl	1.548743	0.061070	0.228065
Cl276	Cl	1.798743	0.311070	0.478065
H277	H	1.258854	-1.052205	-0.482266
H278	H	1.508854	-0.802205	-0.232266
H279	H	1.758854	-0.552205	0.017734
H280	H	2.008854	-0.302205	0.267734
H281	H	1.258618	-0.549843	-0.482140
H282	H	1.508618	-0.299843	-0.232140
H283	H	1.758618	-0.049843	0.017860
H284	H	2.008618	0.200157	0.267860
Cl285	Cl	1.333048	-0.689798	-0.556654
Cl286	Cl	1.583048	-0.439798	-0.306654
Cl287	Cl	1.833048	-0.189798	-0.056654
Cl288	Cl	2.083048	0.060202	0.193346
H289	H	1.310270	-0.800958	-0.533824
H290	H	1.560270	-0.550958	-0.283824
H291	H	1.810270	-0.300958	-0.033824
H292	H	2.060270	-0.050958	0.216176
H293	H	1.258815	-0.953139	-0.482244
H294	H	1.508815	-0.703139	-0.232244
H295	H	1.758815	-0.453139	0.017756
H296	H	2.008815	-0.203139	0.267756
H297	H	1.020173	-0.801275	-0.243298
H298	H	1.270173	-0.551275	0.006702
H299	H	1.520173	-0.301275	0.256702
H300	H	1.770173	-0.051275	0.506702
H301	H	1.071857	-1.052402	-0.294959
H302	H	1.321857	-0.802402	-0.044959
H303	H	1.571857	-0.552402	0.205041
H304	H	1.821857	-0.302402	0.455041
Cl305	Cl	1.048964	-0.941288	-0.272077
Cl306	Cl	1.298964	-0.691288	-0.022077
Cl307	Cl	1.548964	-0.441288	0.227923
Cl308	Cl	1.798964	-0.191288	0.477923
Cl309	Cl	0.997293	-0.690159	-0.220416
Cl310	Cl	1.247293	-0.440159	0.029584
Cl311	Cl	1.497293	-0.190159	0.279584
Cl312	Cl	1.747293	0.059841	0.529584
Cl313	Cl	1.048800	-0.562182	-0.271959
Cl314	Cl	1.298800	-0.312182	-0.021959
Cl315	Cl	1.548800	-0.062182	0.228041
Cl316	Cl	1.798800	0.187818	0.478041
