data_functionalizedCrystal
_audit_creation_method	'MofGen! by Chris Wilmer'
_symmetry_space_group_name_H-M	'P1'
_symmetry_Int_Tables_number	1
_symmetry_cell_setting	triclinic
loop_
_symmetry_equiv_pos_as_xyz
  x,y,z
_cell_length_a	15.944551
_cell_length_b	15.944493
_cell_length_c	14.421503
_cell_angle_alpha	90.010165
_cell_angle_beta	89.996859
_cell_angle_gamma	83.486891
loop_
_atom_site_label
_atom_site_type_symbol
_atom_site_fract_x
_atom_site_fract_y
_atom_site_fract_z
O1	O	1.114507	0.108323	-0.077003
O2	O	0.869954	0.121680	-0.077024
O3	O	0.998934	-0.007276	-0.077021
O4	O	0.985527	0.237280	-0.077006
O5	O	0.998913	-0.007257	0.077203
O6	O	0.869933	0.121699	0.077199
O7	O	1.114485	0.108343	0.077221
Cu8	Cu	0.992207	0.115023	0.091292
Cu9	Cu	0.992232	0.115000	-0.091095
O10	O	0.985506	0.237299	0.077217
C11	C	0.838650	0.121135	0.000084
C12	C	0.745404	0.119473	0.000076
C13	C	0.530565	0.035566	0.000089
C14	C	0.469547	0.074520	-0.075949
C15	C	0.574679	0.116465	0.000086
C16	C	0.469548	0.074558	0.076103
C17	C	0.409767	0.113555	0.000101
C18	C	0.514889	0.155442	-0.076014
C19	C	0.514897	0.155468	0.076106
C20	C	0.453897	0.194481	0.000050
C21	C	0.669681	0.118140	0.000077
C22	C	0.314766	0.111886	0.000103
C23	C	0.998375	-0.038562	0.000087
C24	C	0.996733	-0.131810	0.000075
C25	C	1.072653	-0.367570	0.000099
C26	C	1.031722	-0.418148	-0.075944
C27	C	0.993688	-0.302531	0.000086
C28	C	1.031683	-0.418105	0.076108
C29	C	0.990754	-0.467441	0.000101
C30	C	0.952779	-0.351881	-0.076020
C31	C	0.952751	-0.351834	0.076101
C32	C	0.911763	-0.402379	0.000039
C33	C	0.995381	-0.207531	0.000077
C34	C	0.989055	-0.562438	0.000104
C35	C	1.145790	0.108888	0.000110
C36	C	1.239036	0.110550	0.000113
C37	C	0.986064	0.268584	0.000107
C38	C	0.987707	0.361833	0.000113
N39	N	0.992196	0.115038	0.219573
N40	N	0.992251	0.114978	-0.219377
C41	C	0.932545	0.174641	0.469225
C42	C	1.008441	0.190949	0.531036
C43	C	0.992216	0.115018	0.408734
C44	C	0.916339	0.098730	0.531018
C45	C	0.992229	0.115001	0.591456
C46	C	1.068151	0.131364	0.469184
C47	C	0.975998	0.039112	0.469161
C48	C	1.051950	0.055388	0.530944
C49	C	0.992207	0.115030	0.303473
C50	C	0.992246	0.114988	0.696715
H51	H	0.420724	0.261690	0.000011
H52	H	0.843692	-0.417845	-0.000009
H53	H	0.919423	-0.322866	0.140387
F54	F	0.541192	0.200167	0.160140
F55	F	0.443293	0.029827	0.160125
F56	F	0.958023	-0.044756	0.433607
H57	H	0.563912	-0.031574	-0.000009
F58	F	1.161556	-0.347140	0.000010
H59	H	0.449453	0.040295	-0.140238
H60	H	1.065079	-0.447101	-0.140228
F61	F	0.866655	0.240595	0.433800
F62	F	0.909230	-0.314225	-0.160142
H63	H	0.534879	0.189625	-0.140369
H64	H	1.022171	0.255133	0.558213
F65	F	1.075279	-0.455908	0.160134
H66	H	1.132338	0.145209	0.442138
H67	H	0.852166	0.084961	0.558181
H68	H	1.102473	0.004956	0.557873
