data_functionalizedCrystal
_audit_creation_method	'MofGen! by Chris Wilmer'
_symmetry_space_group_name_H-M	'P1'
_symmetry_Int_Tables_number	1
_symmetry_cell_setting	triclinic
loop_
_symmetry_equiv_pos_as_xyz
  x,y,z
_cell_length_a	9.065215
_cell_length_b	9.065218
_cell_length_c	14.048226
_cell_angle_alpha	89.995444
_cell_angle_beta	89.994106
_cell_angle_gamma	85.015291
loop_
_atom_site_label
_atom_site_type_symbol
_atom_site_fract_x
_atom_site_fract_y
_atom_site_fract_z
O1	O	1.960408	0.216340	-0.079145
O2	O	1.531122	0.234091	-0.079149
O3	O	1.754638	0.010573	-0.079145
O4	O	1.736892	0.439858	-0.079149
O5	O	1.754611	0.010559	0.079176
O6	O	1.531095	0.234077	0.079172
O7	O	1.960380	0.216326	0.079176
Zn8	Zn	1.745733	0.225199	0.104311
Zn9	Zn	1.745769	0.225217	-0.104284
O10	O	1.736864	0.439844	0.079172
C11	C	1.476122	0.232379	0.000011
C12	C	1.312279	0.227281	0.000009
C13	C	1.752919	-0.044421	0.000014
C14	C	1.747819	-0.208264	0.000009
C15	C	2.015381	0.218038	0.000014
C16	C	2.179224	0.223136	0.000009
C17	C	1.738584	0.494837	0.000011
C18	C	1.743683	0.658680	0.000009
N19	N	1.745719	0.225186	0.246672
N20	N	1.745795	0.225219	-0.246645
C21	C	1.844724	0.126254	0.296491
C22	C	1.844734	0.126253	0.396149
C23	C	1.745745	0.225193	0.445985
C24	C	1.646730	0.324130	0.396158
C25	C	1.646714	0.324122	0.296503
C26	C	1.646773	0.324141	0.603873
C27	C	1.646790	0.324151	0.703535
C28	C	1.844793	0.126272	0.703519
C29	C	1.844777	0.126265	0.603863
C30	C	1.745763	0.225204	0.554043
H31	H	1.925350	0.045695	0.436712
H32	H	1.566092	0.404681	0.255940
H33	H	1.566124	0.404683	0.436741
H34	H	1.566181	0.404716	0.744107
H35	H	1.925339	0.045693	0.255922
H36	H	1.925388	0.045708	0.563287
C37	C	1.539213	0.431729	0.549952
C38	C	1.452556	0.518410	0.614924
C39	C	1.353480	0.617552	0.565287
H40	H	1.476939	0.377966	0.511084
H41	H	1.593072	0.493969	0.511086
H42	H	1.398701	0.456179	0.653773
H43	H	1.514790	0.572205	0.653794
H44	H	1.407339	0.679792	0.526421
H45	H	1.291216	0.563777	0.526421
H46	H	1.294681	0.676387	0.609362
H47	H	1.925413	0.045713	0.744088
