data_functionalizedCrystal
_audit_creation_method	'MofGen! by Chris Wilmer'
_symmetry_space_group_name_H-M	'P1'
_symmetry_Int_Tables_number	1
_symmetry_cell_setting	triclinic
loop_
_symmetry_equiv_pos_as_xyz
  x,y,z
_cell_length_a	23.532407
_cell_length_b	11.792254
_cell_length_c	10.268362
_cell_angle_alpha	89.995475
_cell_angle_beta	89.990068
_cell_angle_gamma	83.523637
loop_
_atom_site_label
_atom_site_type_symbol
_atom_site_fract_x
_atom_site_fract_y
_atom_site_fract_z
O1	O	0.078089	1.505062	-0.108314
O2	O	0.086126	1.174534	-0.108318
O3	O	-0.000765	1.349765	-0.108292
O4	O	0.164980	1.329831	-0.108340
O5	O	-0.000768	1.349750	0.108309
O6	O	0.086123	1.174519	0.108283
O7	O	0.078086	1.505047	0.108287
Cu8	Cu	0.082104	1.339781	0.128062
Cu9	Cu	0.082108	1.339799	-0.128093
O10	O	0.164976	1.329816	0.108261
C11	C	0.085618	1.132247	-0.000018
C12	C	0.084103	1.006270	-0.000018
C13	C	0.082872	0.903963	-0.000024
C14	C	0.081332	0.775612	-0.000024
C15	C	-0.021986	1.349250	0.000012
C16	C	-0.085212	1.347724	0.000022
C17	C	-0.483755	1.441849	-0.000048
C18	C	-0.543163	1.440432	-0.000058
O19	O	-0.579389	1.527687	-0.000105
N20	N	-0.566409	1.336257	-0.000059
C21	C	-0.530243	1.233493	-0.000062
O22	O	-0.555471	1.144754	-0.000065
C23	C	-0.470836	1.234912	-0.000062
C24	C	-0.447593	1.339093	-0.000048
C25	C	-0.460512	1.546023	-0.000036
C26	C	-0.401107	1.547440	-0.000024
C27	C	-0.364946	1.444684	-0.000024
C28	C	-0.388189	1.340511	-0.000036
C29	C	-0.434671	1.132149	-0.000075
C30	C	-0.375260	1.133577	-0.000075
C31	C	-0.352017	1.237759	-0.000062
C32	C	-0.292622	1.239172	-0.000023
N33	N	-0.269376	1.343347	-0.000023
C34	C	-0.305538	1.446103	-0.000023
C35	C	-0.655003	1.230521	-0.000066
C36	C	-0.714410	1.229101	-0.000057
C37	C	-0.727326	1.436040	-0.000055
C38	C	-0.667918	1.437459	-0.000055
C39	C	-0.631757	1.334696	-0.000065
C40	C	-0.180784	1.449071	0.000004
C41	C	-0.121373	1.450480	0.000022
C42	C	-0.108462	1.243541	0.000013
C43	C	-0.167867	1.242132	0.000002
C44	C	-0.204027	1.344907	-0.000007
O45	O	-0.256362	1.151962	0.000018
O46	O	-0.280302	1.534827	-0.000038
C47	C	0.186197	1.330331	-0.000046
C48	C	0.249423	1.331857	-0.000064
C49	C	0.078594	1.547333	-0.000016
C50	C	0.080109	1.673311	-0.000024
N51	N	0.082100	1.339777	0.308228
N52	N	0.082107	1.339813	-0.308259
C53	C	0.082107	1.339794	0.573899
C54	C	0.082105	1.339781	0.426061
H55	H	-0.210219	1.532760	-0.000008
N56	N	-0.764261	1.541018	-0.000054
N57	N	-0.761963	1.610455	0.091247
H58	H	-0.788049	1.684593	0.091250
N59	N	-0.071526	1.138573	-0.000016
N60	N	-0.092281	1.045559	-0.000043
H61	H	-0.066194	0.971423	-0.000077
H62	H	-0.733328	1.144266	-0.000046
N63	N	-0.097642	1.556914	0.000046
N64	N	-0.129940	1.648650	0.000045
H65	H	-0.113183	1.723818	0.000062
H66	H	-0.382189	1.632275	-0.000018
N67	N	-0.618076	1.125532	-0.000072
N68	N	-0.638844	1.032534	-0.000075
H69	H	-0.612768	0.958385	-0.000082
N70	N	-0.458393	1.025718	-0.000092
N71	N	-0.426088	0.933990	-0.000106
H72	H	-0.442840	0.858816	-0.000122
N73	N	-0.497436	1.651005	-0.000045
N74	N	-0.476664	1.744000	-0.000039
H75	H	-0.502738	1.818152	-0.000038
H76	H	-0.186792	1.157299	0.000027
H77	H	-0.345819	1.049893	-0.000086
N78	N	-0.644189	1.543887	-0.000035
N79	N	-0.676490	1.635620	-0.000025
H80	H	-0.659734	1.710790	-0.000011
