data_functionalizedCrystal
_audit_creation_method	'MofGen! by Chris Wilmer'
_symmetry_space_group_name_H-M	'P1'
_symmetry_Int_Tables_number	1
_symmetry_cell_setting	triclinic
loop_
_symmetry_equiv_pos_as_xyz
  x,y,z
_cell_length_a	23.204063
_cell_length_b	23.204065
_cell_length_c	23.204116
_cell_angle_alpha	59.997987
_cell_angle_beta	89.998953
_cell_angle_gamma	60.000253
loop_
_atom_site_label
_atom_site_type_symbol
_atom_site_fract_x
_atom_site_fract_y
_atom_site_fract_z
O1	O	-0.491197	-0.412484	0.017135
O2	O	-0.407392	-0.294473	-0.017070
O3	O	-0.407389	-0.412483	0.100940
O4	O	-0.491200	-0.294474	-0.100875
O5	O	-0.311538	-0.508333	0.100940
O6	O	-0.311541	-0.390323	-0.017071
O7	O	-0.395346	-0.508335	0.017135
Zn8	Zn	-0.338225	-0.464547	0.000032
Zn9	Zn	-0.464513	-0.338260	0.000033
O10	O	-0.395349	-0.390324	-0.100876
C11	C	-0.310652	-0.181456	-0.024838
C12	C	-0.346214	-0.110333	-0.019942
C13	C	-0.241294	-0.215971	-0.025323
C14	C	-0.310655	-0.285810	-0.024846
C15	C	-0.346219	-0.326263	-0.019957
C16	C	-0.241297	-0.320167	-0.025331
C17	C	-0.206293	-0.285815	-0.024838
C18	C	-0.130274	-0.326273	-0.019941
C19	C	-0.345497	-0.215967	-0.025331
C20	C	-0.658540	-0.590043	0.035860
C21	C	-0.734559	-0.549588	0.030967
C22	C	-0.623539	-0.659889	0.036349
C23	C	-0.554183	-0.590040	0.035855
C24	C	-0.518621	-0.549582	0.030958
C25	C	-0.519339	-0.659886	0.036344
C26	C	-0.554182	-0.694402	0.035859
C27	C	-0.518619	-0.765527	0.030967
C28	C	-0.623539	-0.555686	0.036345
C29	C	-0.489889	-0.822989	0.027012
C30	C	-0.795974	-0.516903	0.027013
C31	C	-0.489891	-0.516895	0.027000
C32	C	-0.453845	-0.895077	0.022052
C33	C	-0.873022	-0.475899	0.022054
C34	C	-0.453848	-0.475888	0.022036
C35	C	-0.554187	-0.212776	-0.445775
C36	C	-0.518624	-0.253233	-0.481336
C37	C	-0.623545	-0.142931	-0.480619
C38	C	-0.554188	-0.212775	-0.341416
C39	C	-0.518626	-0.253231	-0.265397
C40	C	-0.623546	-0.142930	-0.376419
C41	C	-0.658547	-0.108416	-0.445777
C42	C	-0.734566	-0.037291	-0.481340
C43	C	-0.519344	-0.247131	-0.376417
C44	C	-0.795982	0.020169	-0.510072
C45	C	-0.489893	-0.285920	-0.510065
C46	C	-0.489896	-0.285917	-0.203980
C47	C	-0.873032	0.092257	-0.546117
C48	C	-0.453848	-0.326925	-0.546108
C49	C	-0.453852	-0.326922	-0.126930
O50	O	0.100922	-0.508345	0.017151
O51	O	-0.100892	-0.390333	-0.017055
O52	O	0.017109	-0.508348	0.100956
O53	O	-0.017080	-0.390330	-0.100860
O54	O	0.017112	-0.412502	0.100963
O55	O	-0.100890	-0.294486	-0.017048
O56	O	0.100924	-0.412499	0.017158
Zn57	Zn	0.000018	-0.338275	0.000056
Zn58	Zn	0.000014	-0.464556	0.000047
O59	O	-0.017077	-0.294483	-0.100853
O60	O	-0.395342	0.083766	0.017156
O61	O	-0.311534	-0.083842	-0.017048
O62	O	-0.311538	-0.083852	0.100962
O63	O	-0.395338	0.083777	-0.100854
O64	O	-0.407391	-0.083849	0.100954
O65	O	-0.407387	-0.083839	-0.017056
O66	O	-0.491195	0.083770	0.017149
Zn67	Zn	-0.464510	-0.000034	0.000045
Zn68	Zn	-0.338219	-0.000039	0.000055
O69	O	-0.491191	0.083780	-0.100861
O70	O	-1.100901	0.281028	-0.592582
O71	O	-0.899087	0.113413	-0.508770
O72	O	-1.017091	0.113409	-0.508767
O73	O	-0.982897	0.281032	-0.592584
O74	O	-1.017088	0.113407	-0.604617
O75	O	-0.899085	0.113411	-0.604619
O76	O	-1.100898	0.281026	-0.688432
Zn77	Zn	-0.999991	0.197218	-0.661744
Zn78	Zn	-0.999994	0.197221	-0.535458
O79	O	-0.982895	0.281030	-0.688434
O80	O	-0.407389	-0.412483	-0.688416
O81	O	-0.491197	-0.294477	-0.604610
O82	O	-0.491195	-0.412486	-0.604605
O83	O	-0.407390	-0.294474	-0.688421
O84	O	-0.395343	-0.508338	-0.508754
O85	O	-0.395345	-0.390329	-0.508759
O86	O	-0.311537	-0.508334	-0.592565
Zn87	Zn	-0.338222	-0.464550	-0.535443
Zn88	Zn	-0.464511	-0.338262	-0.661732
O89	O	-0.311539	-0.390326	-0.592570
C90	C	-0.206294	-0.621360	0.310702
C91	C	-0.130275	-0.692485	0.346265
C92	C	-0.241296	-0.586846	0.345545
C93	C	-0.310654	-0.517001	0.206342
C94	C	-0.346216	-0.476544	0.130323
C95	C	-0.345497	-0.482645	0.241343
C96	C	-0.310653	-0.517001	0.310701
C97	C	-0.346216	-0.476544	0.346263
C98	C	-0.241296	-0.586846	0.241345
C99	C	0.024887	-0.517030	0.310724
C100	C	0.019993	-0.476577	0.346290
C101	C	0.025371	-0.586874	0.345565
C102	C	0.024889	-0.517022	0.206362
C103	C	0.019998	-0.476562	0.130342
C104	C	0.025374	-0.586867	0.241361
C105	C	0.024884	-0.621384	0.310718
C106	C	0.019987	-0.692509	0.346278
C107	C	0.025377	-0.482671	0.241366
C108	C	-0.310656	-0.285855	0.310709
C109	C	-0.346220	-0.326314	0.346266
C110	C	-0.241298	-0.320218	0.345555
C111	C	-0.310655	-0.181484	0.206357
C112	C	-0.346217	-0.110348	0.130340
C113	C	-0.241296	-0.216005	0.241362
C114	C	-0.206295	-0.285860	0.310717
C115	C	-0.130275	-0.326323	0.346282
C116	C	-0.345499	-0.216001	0.241354
C117	C	-0.035774	-0.108410	-0.445754
C118	C	-0.030877	-0.037285	-0.481314
C119	C	-0.036262	-0.142920	-0.480600
C120	C	-0.035780	-0.212771	-0.341397
C121	C	-0.030889	-0.253231	-0.265377
C122	C	-0.036268	-0.247124	-0.376401
C123	C	-0.035777	-0.212765	-0.445759
C124	C	-0.030883	-0.253218	-0.481324
C125	C	-0.036265	-0.142927	-0.376396
C126	C	-0.026928	-0.285901	-0.510056
C127	C	-0.026920	0.020175	-0.510042
C128	C	-0.026936	-0.285920	-0.203961
C129	C	-0.021967	-0.326903	-0.546103
C130	C	-0.021955	0.092262	-0.546083
C131	C	-0.021978	-0.326928	-0.126911
O132	O	-0.017120	-0.390358	0.491266
O133	O	0.017098	-0.508368	0.407461
O134	O	-0.100916	-0.390357	0.407446
O135	O	0.100893	-0.508369	0.491281
O136	O	-0.100904	-0.294507	0.311599
O137	O	0.017110	-0.412518	0.311614
O138	O	-0.017109	-0.294509	0.395420
Zn139	Zn	0.000002	-0.338295	0.338299
Zn140	Zn	-0.000013	-0.464581	0.464581
O141	O	0.100905	-0.412519	0.395435
C142	C	-0.658539	0.410016	-0.445751
C143	C	-0.734559	0.450479	-0.481316
C144	C	-0.623536	0.444375	-0.480590
C145	C	-0.554179	0.305641	-0.341392
C146	C	-0.518616	0.234505	-0.265374
C147	C	-0.519335	0.340158	-0.376388
C148	C	-0.554178	0.410013	-0.445743
C149	C	-0.518614	0.450471	-0.481300
C150	C	-0.623537	0.340162	-0.376396
C151	C	-0.489883	0.483159	-0.510025
C152	C	-0.795975	0.483170	-0.510049
C153	C	-0.489886	0.177036	-0.203959
C154	C	-0.453838	0.524167	-0.546063
C155	C	-0.873025	0.524182	-0.546095
C156	C	-0.453842	0.104937	-0.126912
H157	H	-0.213196	-0.187082	-0.026109
H158	H	-0.037054	-0.303326	-0.348299
H159	H	-0.651645	-0.499479	0.037123
O160	O	-0.451321	-0.314099	-0.342950
C161	C	-0.408412	-0.295908	-0.380720
H162	H	-0.435094	-0.227284	-0.414129
H163	H	-0.400394	-0.317509	-0.416532
C164	C	-0.303555	-0.423846	-0.287438
C165	C	-0.336324	-0.339560	-0.328467
H166	H	-0.259086	-0.450775	-0.255207
H167	H	-0.332463	-0.436103	-0.261993
H168	H	-0.296880	-0.441836	-0.317289
H169	H	-0.343006	-0.321570	-0.298617
H170	H	-0.307415	-0.327301	-0.353906
H171	H	-0.213195	-0.187119	0.213260
H172	H	-0.213202	-0.376423	0.402543
O173	O	-0.657181	0.511473	-0.548553
C174	C	-0.726036	0.534547	-0.571941
H175	H	-0.743268	0.509826	-0.524475
H176	H	-0.726658	0.508610	-0.602479
C177	C	-0.755966	0.658542	-0.678657
C178	C	-0.777133	0.628186	-0.620358
H179	H	-0.787485	0.716302	-0.708525
H180	H	-0.709576	0.642996	-0.662901
H181	H	-0.756484	0.636920	-0.704097
H182	H	-0.776605	0.649799	-0.594915
H183	H	-0.823524	0.643737	-0.636111
O184	O	-0.451341	0.305574	-0.342770
C185	C	-0.427965	0.236411	-0.273911
H186	H	-0.461156	0.212582	-0.271753
H187	H	-0.433629	0.253725	-0.235081
C188	C	-0.309173	0.198926	-0.256711
C189	C	-0.349936	0.169656	-0.254062
H190	H	-0.261041	0.157750	-0.244465
H191	H	-0.324922	0.245525	-0.303102
H192	H	-0.313902	0.213354	-0.224353
H193	H	-0.345214	0.155238	-0.286426
H194	H	-0.334184	0.123054	-0.207676
O195	O	-0.657088	-0.694361	0.037397
C196	C	-0.676614	-0.717726	0.098529
H197	H	-0.680375	-0.680140	0.118223
H198	H	-0.635241	-0.785162	0.141279
C199	C	-0.744134	-0.749093	0.056766
C200	C	-0.748759	-0.702924	0.080951
H201	H	-0.788634	-0.739966	0.045925
H202	H	-0.730976	-0.733354	0.015582
H203	H	-0.709653	-0.805285	0.092395
H204	H	-0.783233	-0.646733	0.045319
H205	H	-0.761924	-0.718653	0.122129
H206	H	-0.651645	-0.114047	-0.348315
H207	H	-0.213198	-0.376369	-0.026116
H208	H	-0.037046	-0.114028	-0.537588
O209	O	-0.656960	-0.108554	-0.548612
C210	C	-0.611157	-0.153993	-0.572011
H211	H	-0.569258	-0.218726	-0.524556
H212	H	-0.584533	-0.124116	-0.602449
C213	C	-0.705149	-0.077035	-0.678841
C214	C	-0.653692	-0.156544	-0.620557
H215	H	-0.731385	-0.078606	-0.708790
H216	H	-0.736007	-0.046419	-0.663079
H217	H	-0.682954	-0.052146	-0.704198
H218	H	-0.675887	-0.181427	-0.595197
H219	H	-0.622838	-0.187163	-0.636316
H220	H	-0.462354	-0.688766	0.037124
O221	O	-0.413524	-0.181395	-0.026401
C222	C	-0.456414	-0.100716	-0.087506
H223	H	-0.429717	-0.094007	-0.129436
H224	H	-0.464427	-0.056887	-0.073923
C225	C	-0.561294	-0.089096	-0.064462
C226	C	-0.528507	-0.080858	-0.115963
H227	H	-0.605766	-0.076844	-0.082015
H228	H	-0.532399	-0.143450	-0.023293
H229	H	-0.567965	-0.052571	-0.053147
H230	H	-0.521829	-0.117389	-0.127270
H231	H	-0.557403	-0.026509	-0.157135
H232	H	-0.036993	-0.114078	-0.348277
H233	H	-0.213184	-0.615720	0.213239
O234	O	-0.413524	-0.181475	0.207892
C235	C	-0.456424	-0.158160	0.245673
H236	H	-0.429735	-0.149634	0.279083
H237	H	-0.464437	-0.207562	0.281486
C238	C	-0.561292	-0.087946	0.152401
C239	C	-0.528515	-0.077467	0.193431
H240	H	-0.605763	-0.038173	0.120177
H241	H	-0.532390	-0.103656	0.126948
H242	H	-0.567963	-0.129117	0.182253
H243	H	-0.521837	-0.036304	0.163581
H244	H	-0.557418	-0.061748	0.218878
O245	O	-0.657154	0.305783	-0.342986
C246	C	-0.726018	0.351278	-0.388765
H247	H	-0.728183	0.386640	-0.445787
H248	H	-0.764837	0.395762	-0.377101
C249	C	-0.743219	0.249680	-0.307463
C250	C	-0.745876	0.293107	-0.377499
H251	H	-0.755471	0.213800	-0.300512
H252	H	-0.696825	0.219031	-0.276619
H253	H	-0.775568	0.286759	-0.297752
H254	H	-0.713521	0.256029	-0.387207
H255	H	-0.792265	0.323749	-0.408345
H256	H	-0.213192	-0.615736	0.402533
O257	O	-0.413444	-0.415517	0.207720
C258	C	-0.417283	-0.351178	0.146915
H259	H	-0.370457	-0.377198	0.129404
H260	H	-0.415998	-0.310062	0.159395
C261	C	-0.543982	-0.269333	0.108801
C262	C	-0.486472	-0.301291	0.087290
H263	H	-0.586662	-0.238557	0.072022
H264	H	-0.541396	-0.312677	0.149767
H265	H	-0.542901	-0.235075	0.119200
H266	H	-0.487548	-0.335556	0.076900
H267	H	-0.489060	-0.257950	0.046320
O268	O	0.026428	-0.621448	0.413589
C269	C	0.087536	-0.702123	0.456489
H270	H	0.129475	-0.708825	0.429804
H271	H	0.073965	-0.745959	0.464493
C272	C	0.064454	-0.713747	0.561359
C273	C	0.115967	-0.721976	0.528587
H274	H	0.081991	-0.725996	0.605834
H275	H	0.023284	-0.659396	0.532457
H276	H	0.053150	-0.750278	0.568023
H277	H	0.127264	-0.685438	0.521916
H278	H	0.157140	-0.776322	0.557490
H279	H	0.026169	-0.615754	0.213258
O280	O	0.026219	-0.415557	0.207880
C281	C	-0.034268	-0.351209	0.204344
H282	H	-0.055096	-0.377217	0.247858
H283	H	-0.076661	-0.310067	0.150737
C284	C	0.010643	-0.269420	0.160669
C285	C	-0.014935	-0.301363	0.214118
H286	H	0.022567	-0.238669	0.166695
H287	H	0.051393	-0.312770	0.163048
H288	H	-0.024688	-0.235140	0.116001
H289	H	0.020400	-0.335650	0.258783
H290	H	-0.055679	-0.258017	0.211746
