data_functionalizedCrystal
_audit_creation_method	'MofGen! by Chris Wilmer'
_symmetry_space_group_name_H-M	'P1'
_symmetry_Int_Tables_number	1
_symmetry_cell_setting	triclinic
loop_
_symmetry_equiv_pos_as_xyz
  x,y,z
_cell_length_a	16.098538
_cell_length_b	14.044220
_cell_length_c	14.044220
_cell_angle_alpha	86.811122
_cell_angle_beta	87.028703
_cell_angle_gamma	87.017443
loop_
_atom_site_label
_atom_site_type_symbol
_atom_site_fract_x
_atom_site_fract_y
_atom_site_fract_z
O1	O	0.069171	-1.281077	0.226267
O2	O	0.569171	-0.781077	0.726267
O3	O	0.069192	-1.004407	0.217960
O4	O	0.569192	-0.504407	0.717960
O5	O	0.069173	-1.138589	0.083778
O6	O	0.569173	-0.638589	0.583778
O7	O	0.069189	-1.146895	0.360449
O8	O	0.569189	-0.646895	0.860449
O9	O	-0.069339	-1.130748	0.091583
O10	O	0.430661	-0.630748	0.591583
O11	O	-0.069320	-0.996566	0.225765
O12	O	0.430680	-0.496566	0.725765
O13	O	-0.069341	-1.273236	0.234072
O14	O	0.430659	-0.773236	0.734072
Zn15	Zn	-0.091322	-1.133656	0.231158
Zn16	Zn	0.408678	-0.633656	0.731158
Zn17	Zn	0.091173	-1.143987	0.220875
Zn18	Zn	0.591173	-0.643987	0.720875
O19	O	-0.069323	-1.139054	0.368254
O20	O	0.430677	-0.639054	0.868254
C21	C	-0.000062	-0.964865	0.218227
C22	C	0.499938	-0.464865	0.718227
C23	C	-0.000054	-0.858722	0.207382
C24	C	0.499946	-0.358722	0.707382
N25	N	-0.215871	-1.126612	0.238175
N26	N	0.284129	-0.626612	0.738175
C27	C	-0.000083	-1.131033	0.052059
C28	C	0.499917	-0.631033	0.552059
C29	C	-0.000083	-1.120188	-0.054084
C30	C	0.499917	-0.620188	0.445916
C31	C	-0.259464	-1.183589	0.181247
C32	C	0.240536	-0.683589	0.681247
C33	C	-0.346652	-1.178671	0.186166
C34	C	0.153348	-0.678671	0.686166
C35	C	-0.390246	-1.116781	0.248019
C36	C	0.109754	-0.616781	0.748019
C37	C	-0.346647	-1.059798	0.304950
C38	C	0.153353	-0.559798	0.804950
C39	C	-0.259460	-1.064711	0.300025
C40	C	0.240540	-0.564711	0.800025
C41	C	-0.653493	-1.098968	0.265855
C42	C	-0.153493	-0.598968	0.765855
C43	C	-0.740686	-1.094061	0.270778
C44	C	-0.240686	-0.594061	0.770778
C45	C	-0.740685	-1.212933	0.151993
C46	C	-0.240685	-0.712933	0.651993
C47	C	-0.653497	-1.217846	0.147078
C48	C	-0.153497	-0.717846	0.647078
C49	C	-0.609905	-1.160859	0.204004
C50	C	-0.109905	-0.660859	0.704004
C51	C	-0.479366	-1.111755	0.253051
C52	C	0.020634	-0.611755	0.753051
C53	C	-0.520787	-1.165880	0.198967
C54	C	-0.020787	-0.665880	0.698967
N55	N	0.215721	-1.151038	0.213850
N56	N	0.715721	-0.651038	0.713850
C57	C	-0.000086	-1.312778	0.233805
C58	C	0.499914	-0.812778	0.733805
C59	C	-0.000088	-1.418921	0.244650
C60	C	0.499912	-0.918921	0.744650
C61	C	-0.000072	-0.664384	0.187557
C62	C	0.499928	-0.164384	0.687557
C63	C	-0.000071	-0.613254	0.264471
C64	C	0.499929	-0.113254	0.764471
C65	C	-0.000081	-0.505117	0.253440
C66	C	0.499919	-0.005117	0.753440
C67	C	-0.000062	-0.772530	0.198586
C68	C	0.499938	-0.272530	0.698586
C69	C	-0.000070	-1.100362	-0.248422
C70	C	0.499930	-0.600362	0.251578
C71	C	-0.000073	-1.177277	-0.299552
C72	C	0.499927	-0.677277	0.200448
C73	C	-0.000065	-1.166245	-0.407689
C74	C	0.499935	-0.666245	0.092311
C75	C	-0.000077	-1.111392	-0.140276
C76	C	0.499923	-0.611392	0.359724
C77	C	-0.000065	-1.146611	0.399973
C78	C	0.499935	-0.646611	0.899973
C79	C	-0.000059	-1.157455	0.506116
C80	C	0.499941	-0.657455	1.006116
H81	H	-0.223975	-1.233991	0.130884
H82	H	0.276025	-0.733991	0.630884
H83	H	-0.000062	-1.026235	-0.285860
H84	H	0.499938	-0.526235	0.214140
N85	N	-0.391168	-1.236874	0.128005
N86	N	0.108832	-0.736874	0.628005
N87	N	-0.352235	-1.292132	0.072786
N88	N	0.147765	-0.792132	0.572786
H89	H	-0.383673	-1.333240	0.031705
H90	H	0.116327	-0.833240	0.531705
N91	N	-0.608983	-1.281247	0.084068
N92	N	-0.108983	-0.781247	0.584068
N93	N	-0.647916	-1.332232	0.033360
N94	N	-0.147916	-0.832232	0.533360
H95	H	-0.616478	-1.377079	-0.011074
H96	H	-0.116478	-0.877079	0.488926
N97	N	-0.000092	-0.617424	0.094562
N98	N	0.499908	-0.117424	0.594562
N99	N	-0.058483	-0.559343	0.073058
N100	N	0.441517	-0.059343	0.573058
H101	H	-0.058496	-0.526167	0.007381
H102	H	0.441504	-0.026167	0.507381
H103	H	-0.776185	-1.259328	0.105645
H104	H	-0.276185	-0.759328	0.605645
H105	H	-0.000062	-0.650693	0.338604
H106	H	0.499938	-0.150693	0.838604
H107	H	-0.776176	-1.043660	0.321150
H108	H	-0.276176	-0.543660	0.821150
H109	H	-0.618008	-1.052569	0.312209
H110	H	-0.118008	-0.552569	0.812209
H111	H	-0.382146	-1.009400	0.355308
H112	H	0.117854	-0.509400	0.855308
H113	H	-0.000023	-1.251413	-0.262116
H114	H	0.499977	-0.751413	0.237884
N115	N	-0.476231	-1.229056	0.135769
N116	N	0.023769	-0.729056	0.635769
N117	N	-0.427595	-1.196449	0.071206
N118	N	0.072405	-0.696449	0.571206
H119	H	-0.396110	-1.241057	0.026571
H120	H	0.103890	-0.741057	0.526571
H121	H	-0.223968	-1.018314	0.346381
H122	H	0.276032	-0.518314	0.846381
H123	H	-0.514867	-1.061365	0.303415
H124	H	-0.014867	-0.561365	0.803415
