data_functionalizedCrystal
_audit_creation_method	'MofGen! by Chris Wilmer'
_symmetry_space_group_name_H-M	'P1'
_symmetry_Int_Tables_number	1
_symmetry_cell_setting	triclinic
loop_
_symmetry_equiv_pos_as_xyz
  x,y,z
_cell_length_a	10.723024
_cell_length_b	15.625429
_cell_length_c	9.798715
_cell_angle_alpha	71.919703
_cell_angle_beta	89.996609
_cell_angle_gamma	84.344341
loop_
_atom_site_label
_atom_site_type_symbol
_atom_site_fract_x
_atom_site_fract_y
_atom_site_fract_z
O1	O	1.655906	0.126443	-0.176048
O2	O	1.292631	0.138546	-0.182041
O3	O	1.483974	0.001318	-0.114128
O4	O	1.464562	0.263670	-0.243961
O5	O	1.483960	0.001318	0.112855
O6	O	1.292617	0.138545	0.044941
O7	O	1.655892	0.126442	0.050935
Zn8	Zn	1.474252	0.132494	0.083976
Zn9	Zn	1.474271	0.132494	-0.215083
O10	O	1.464548	0.263670	-0.016979
C11	C	1.246133	0.137665	-0.068115
C12	C	1.107606	0.135030	-0.066812
C13	C	1.483089	-0.032274	0.015985
C14	C	1.480455	-0.132370	0.065512
C15	C	1.031845	0.211815	-0.104813
C16	C	0.888669	0.209093	-0.103468
C17	C	1.471798	-0.461572	-0.390191
C18	C	1.469318	-0.555627	-0.343611
C19	C	1.469303	-0.555613	-0.096171
C20	C	1.471789	-0.461558	-0.142730
C21	C	1.473035	-0.414544	-0.289742
C22	C	1.473026	-0.414530	-0.042281
C23	C	1.475506	-0.320481	-0.088837
C24	C	1.476748	-0.273461	-0.235843
C25	C	1.475514	-0.320496	-0.336298
C26	C	1.471771	-0.461544	0.104730
C27	C	1.473008	-0.414516	0.205180
C28	C	1.475497	-0.320467	0.158624
C29	C	1.476739	-0.273446	0.011619
C30	C	1.476730	-0.273432	0.259080
C31	C	1.479209	-0.179383	0.212523
C32	C	1.479218	-0.179398	-0.034938
C33	C	1.702390	0.127323	-0.062995
C34	C	1.840917	0.129959	-0.064306
C35	C	1.465434	0.297263	-0.147094
C36	C	1.468067	0.397358	-0.196630
N37	N	1.474248	0.132493	0.288076
N38	N	1.474284	0.132488	-0.419179
C39	C	1.554591	0.074621	0.384494
C40	C	1.554611	0.074618	0.541658
H41	H	1.072980	0.279569	-0.138335
H42	H	1.405474	0.182034	0.321883
H43	H	0.823570	0.274827	-0.136005
C44	C	1.381351	0.199429	0.468972
C45	C	1.286440	0.163728	0.387570
C46	C	1.193507	0.230669	0.275710
C47	C	1.195486	0.333311	0.245251
C48	C	1.290401	0.369017	0.326655
C49	C	1.383333	0.302077	0.438515
H50	H	1.284972	0.087741	0.410115
H51	H	1.123244	0.204236	0.215449
H52	H	1.126691	0.382865	0.162445
H53	H	1.291869	0.445004	0.304109
H54	H	1.453596	0.328509	0.498775
C55	C	1.647540	0.007679	0.653514
C56	C	1.789696	0.009802	0.632872
C57	C	1.882629	-0.057139	0.744732
C58	C	1.833406	-0.126202	0.877235
C59	C	1.691243	-0.128327	0.897883
C60	C	1.598310	-0.061386	0.786023
H61	H	1.826140	0.060929	0.534780
H62	H	1.987868	-0.055566	0.729446
H63	H	1.902200	-0.175756	0.960041
H64	H	1.654799	-0.179454	0.995975
H65	H	1.493071	-0.062960	0.801309
C66	C	1.052049	0.043493	-0.021513
C67	C	1.081989	-0.023866	-0.106044
C68	C	1.026437	-0.115406	-0.060743
C69	C	0.940945	-0.139587	0.069088
C70	C	0.911000	-0.072227	0.153627
C71	C	0.966553	0.019313	0.108326
H72	H	1.145279	-0.005966	-0.202160
H73	H	1.048604	-0.165270	-0.123325
H74	H	0.899822	-0.207351	0.102622
H75	H	0.847710	-0.090126	0.249743
H76	H	0.944385	0.069177	0.170908
H77	H	1.469739	-0.538123	0.142631
C78	C	1.467914	-0.607323	0.065540
C79	C	1.576509	-0.603954	0.165961
C80	C	1.575115	-0.655656	0.327676
C81	C	1.465125	-0.710727	0.388968
C82	C	1.356521	-0.714098	0.288545
C83	C	1.357916	-0.662395	0.126831
H84	H	1.657938	-0.563185	0.120590
H85	H	1.655511	-0.653161	0.402015
H86	H	1.464092	-0.749000	0.508679
H87	H	1.275092	-0.754866	0.333916
H88	H	1.277520	-0.664891	0.052491
C89	C	1.480603	-0.127672	-0.196652
C90	C	1.588547	-0.150173	-0.287583
C91	C	1.589934	-0.098445	-0.449288
C92	C	1.483378	-0.024216	-0.520062
C93	C	1.375426	-0.001711	-0.429130
C94	C	1.374039	-0.053439	-0.267425
H95	H	1.667434	-0.205125	-0.235192
H96	H	1.669848	-0.115105	-0.516601
H97	H	1.484405	0.014076	-0.639766
H98	H	1.296539	0.053241	-0.481521
H99	H	1.294125	-0.036779	-0.200112
H100	H	0.906008	0.064221	-0.031782
H101	H	1.478753	-0.196880	-0.273747
H102	H	1.472824	-0.423292	-0.509902
H103	H	1.476540	-0.282216	-0.456009
H104	H	1.471989	-0.452807	0.324877
H105	H	1.468299	-0.593913	-0.425421
H106	H	1.475703	-0.311723	0.378776
H107	H	1.623357	0.025073	0.350692
H108	H	1.480190	-0.141090	0.294319
