data_functionalizedCrystal
_audit_creation_method	'MofGen! by Chris Wilmer'
_symmetry_space_group_name_H-M	'P1'
_symmetry_Int_Tables_number	1
_symmetry_cell_setting	triclinic
loop_
_symmetry_equiv_pos_as_xyz
  x,y,z
_cell_length_a	25.639243
_cell_length_b	25.639240
_cell_length_c	12.759387
_cell_angle_alpha	89.956399
_cell_angle_beta	89.974541
_cell_angle_gamma	90.035481
loop_
_atom_site_label
_atom_site_type_symbol
_atom_site_fract_x
_atom_site_fract_y
_atom_site_fract_z
Zn1	Zn	0.799296	-0.208085	-0.594050
Zn2	Zn	1.299296	0.291915	-0.094050
Zn3	Zn	0.799214	-0.295531	-0.418332
Zn4	Zn	1.299214	0.204469	0.081668
Zn5	Zn	0.711857	-0.208116	-0.418372
Zn6	Zn	1.211857	0.291884	0.081628
Zn7	Zn	0.711826	-0.295496	-0.593955
Zn8	Zn	1.211826	0.204504	-0.093955
O9	O	0.755548	-0.251807	-0.506177
O10	O	1.255548	0.248193	-0.006177
O11	O	0.872450	-0.219687	-0.570764
O12	O	1.372450	0.280313	-0.070764
O13	O	0.787604	-0.283963	-0.271316
O14	O	1.287604	0.216037	0.228684
O15	O	0.723504	-0.134946	-0.441733
O16	O	1.223504	0.365054	0.058267
O17	O	0.872390	-0.283933	-0.441664
O18	O	1.372390	0.216067	0.058336
O19	O	0.787744	-0.134924	-0.570803
O20	O	1.287744	0.365076	-0.070803
O21	O	0.723424	-0.219739	-0.271345
O22	O	1.223424	0.280261	0.228655
O23	O	0.638688	-0.219705	-0.441641
O24	O	1.138688	0.280295	0.058359
O25	O	0.723450	-0.283873	-0.740989
O26	O	1.223450	0.216127	-0.240989
O27	O	0.638665	-0.283902	-0.570641
O28	O	1.138665	0.216098	-0.070641
O29	O	0.787714	-0.219653	-0.741059
O30	O	1.287714	0.280347	-0.241059
O31	O	0.787574	-0.368691	-0.441572
O32	O	1.287574	0.131309	0.058428
O33	O	0.723371	-0.368666	-0.570602
O34	O	1.223371	0.131334	-0.070602
C35	C	0.619706	-0.251803	-0.506136
C36	C	1.119706	0.248197	-0.006136
C37	C	0.561592	-0.251814	-0.506143
C38	C	1.061592	0.248186	-0.006143
C39	C	0.201254	-0.218406	-0.573512
C40	C	0.701254	0.281594	-0.073512
C41	C	0.146650	-0.218406	-0.573518
C42	C	0.646650	0.281594	-0.073518
O43	O	0.118435	-0.189992	-0.630746
O44	O	0.618435	0.310008	-0.130746
N45	N	0.119309	-0.251805	-0.506206
N46	N	0.619309	0.248195	-0.006206
C47	C	0.146575	-0.285203	-0.438876
C48	C	0.646575	0.214797	0.061124
O49	O	0.118306	-0.313612	-0.381622
O50	O	0.618306	0.186388	0.118378
C51	C	0.201179	-0.285201	-0.438865
C52	C	0.701179	0.214799	0.061135
C53	C	0.228517	-0.251803	-0.506189
C54	C	0.728517	0.248197	-0.006189
C55	C	0.228592	-0.185011	-0.640829
C56	C	0.728592	0.314989	-0.140829
C57	C	0.283193	-0.185012	-0.640824
C58	C	0.783193	0.314988	-0.140824
C59	C	0.310455	-0.218409	-0.573501
C60	C	0.810455	0.281591	-0.073501
C61	C	0.283117	-0.251804	-0.506183
C62	C	0.783117	0.248196	-0.006183
C63	C	0.228444	-0.318596	-0.371530
C64	C	0.728444	0.181404	0.128470
C65	C	0.283051	-0.318590	-0.371524
C66	C	0.783051	0.181410	0.128476
C67	C	0.310389	-0.285193	-0.438848
C68	C	0.810389	0.214807	0.061152
C69	C	0.364980	-0.285202	-0.438855
C70	C	0.864980	0.214798	0.061145
N71	N	0.392321	-0.251803	-0.506167
N72	N	0.892321	0.248197	-0.006167
C73	C	0.365059	-0.218406	-0.573490
C74	C	0.865059	0.281594	-0.073490
C75	C	0.031905	-0.285206	-0.438903
C76	C	0.531905	0.214794	0.061097
C77	C	-0.022698	-0.285211	-0.438918
C78	C	0.477302	0.214789	0.061082
C79	C	-0.022619	-0.218413	-0.573560
C80	C	0.477381	0.281587	-0.073560
C81	C	0.031984	-0.218410	-0.573549
C82	C	0.531984	0.281590	-0.073549
C83	C	0.059246	-0.251806	-0.506215
C84	C	0.559246	0.248194	-0.006215
C85	C	0.479724	-0.218412	-0.573474
C86	C	0.979724	0.281588	-0.073474
C87	C	0.534329	-0.218418	-0.573466
C88	C	1.034329	0.281582	-0.073466
C89	C	0.534246	-0.285214	-0.438821
C90	C	1.034246	0.214786	0.061179
C91	C	0.479645	-0.285210	-0.438833
C92	C	0.979645	0.214790	0.061167
C93	C	0.452386	-0.251805	-0.506163
C94	C	0.952386	0.248195	-0.006163
O95	O	0.393230	-0.313601	-0.381654
O96	O	0.893230	0.186399	0.118346
O97	O	0.393335	-0.189998	-0.630725
O98	O	0.893335	0.310002	-0.130725
C99	C	0.755474	-0.387649	-0.506095
C100	C	1.255474	0.112351	-0.006095
C101	C	0.755491	-0.445763	-0.506095
C102	C	1.255491	0.054237	-0.006095
C103	C	0.789015	-0.806076	-0.573505
C104	C	1.289015	-0.306076	-0.073505
C105	C	0.789030	-0.860681	-0.573527
C106	C	1.289030	-0.360681	-0.073527
O107	O	0.817446	-0.888875	-0.630757
O108	O	1.317446	-0.388875	-0.130757
N109	N	0.755621	-0.888046	-0.506279
N110	N	1.255621	-0.388046	-0.006279
C111	C	0.722190	-0.860804	-0.439013
C112	C	1.222190	-0.360804	0.060987
O113	O	0.693774	-0.889094	-0.381816
O114	O	1.193774	-0.389094	0.118184
C115	C	0.722172	-0.806201	-0.438998
C116	C	1.222172	-0.306201	0.061002
C117	C	0.755588	-0.778838	-0.506242
C118	C	1.255588	-0.278838	-0.006242
C119	C	0.822427	-0.778714	-0.640746
C120	C	1.322427	-0.278714	-0.140746
C121	C	0.822412	-0.724113	-0.640722
C122	C	1.322412	-0.224113	-0.140722
C123	C	0.788985	-0.696875	-0.573459
C124	C	1.288985	-0.196875	-0.073459
C125	C	0.755573	-0.724238	-0.506219
C126	C	1.255573	-0.224238	-0.006219
C127	C	0.688739	-0.778960	-0.371738
C128	C	1.188739	-0.278960	0.128262
C129	C	0.688724	-0.724353	-0.371729
C130	C	1.188724	-0.224353	0.128271
C131	C	0.722140	-0.696990	-0.438973
C132	C	1.222140	-0.196990	0.061027
C133	C	0.722131	-0.642399	-0.438933
C134	C	1.222131	-0.142399	0.061067
N135	N	0.755540	-0.615034	-0.506181
N136	N	1.255540	-0.115034	-0.006181
C137	C	0.788967	-0.642272	-0.573444
C138	C	1.288967	-0.142272	-0.073444
C139	C	0.722229	-0.975474	-0.439051
C140	C	1.222229	-0.475474	0.060949
C141	C	0.722249	-1.030077	-0.439061
C142	C	1.222249	-0.530077	0.060939
C143	C	0.789089	-1.029950	-0.573576
C144	C	1.289089	-0.529950	-0.073576
C145	C	0.789071	-0.975347	-0.573561
C146	C	1.289071	-0.475347	-0.073561
C147	C	0.755638	-0.948109	-0.506299
C148	C	1.255638	-0.448109	-0.006299
C149	C	0.788934	-0.527607	-0.573390
C150	C	1.288934	-0.027607	-0.073390
C151	C	0.788918	-0.473002	-0.573358
C152	C	1.288918	0.026998	-0.073358
C153	C	0.722076	-0.473133	-0.438847
C154	C	1.222076	0.026867	0.061153
C155	C	0.722094	-0.527734	-0.438875
C156	C	1.222094	-0.027734	0.061125
C157	C	0.755525	-0.554969	-0.506155
C158	C	1.255525	-0.054969	-0.006155
O159	O	0.693728	-0.614170	-0.381735
O160	O	1.193728	-0.114170	0.118265
O161	O	0.817374	-0.613975	-0.630641
O162	O	1.317374	-0.113975	-0.130641
C163	C	0.891921	-0.251811	-0.506220
C164	C	1.391921	0.248189	-0.006220
C165	C	0.950035	-0.251812	-0.506238
C166	C	1.450035	0.248188	-0.006238
C167	C	0.755588	-0.251756	-0.780211
C168	C	1.255588	0.248244	-0.280211
C169	C	0.755605	-0.251734	-0.896988
C170	C	1.255605	0.248266	-0.396988
C171	C	0.755637	-0.115434	-0.506283
C172	C	1.255637	0.384566	-0.006283
C173	C	0.755674	-0.057320	-0.506328
C174	C	1.255674	0.442680	-0.006328
C175	C	0.822527	-0.184866	-0.897080
C176	C	1.322527	0.315134	-0.397080
C177	C	0.855995	-0.151424	-0.951987
C178	C	1.355995	0.348576	-0.451987
C179	C	0.856008	-0.151405	-1.061709
C180	C	1.356008	0.348595	-0.561709
C181	C	0.822547	-0.184830	-1.116526
C182	C	1.322547	0.315170	-0.616526
C183	C	0.789079	-0.218272	-1.061619
C184	C	1.289079	0.281728	-0.561619
C185	C	0.789071	-0.218289	-0.951895
C186	C	1.289071	0.281711	-0.451895
C187	C	0.722155	-0.285136	-1.061527
C188	C	1.222155	0.214864	-0.561527
C189	C	0.722144	-0.285159	-0.951805
C190	C	1.222144	0.214841	-0.451805
C191	C	0.688695	-0.318562	-1.116344
C192	C	1.188695	0.181438	-0.616344
C193	C	0.655228	-0.352007	-1.061437
C194	C	1.155228	0.147993	-0.561437
C195	C	0.655217	-0.352025	-0.951709
C196	C	1.155217	0.147975	-0.451709
C197	C	0.688676	-0.318601	-0.896898
C198	C	1.188676	0.181399	-0.396898
C199	C	0.755539	-0.251820	-0.233210
C200	C	1.255539	0.248180	0.266790
C201	C	0.755623	-0.251695	-0.116434
C202	C	1.255623	0.248305	0.383566
H203	H	0.054239	-0.191214	-0.628368
H204	H	0.554239	0.308786	-0.128368
C205	C	0.313258	-0.148265	-0.714872
C206	C	0.813258	0.351735	-0.214872
N207	N	0.335899	-0.120582	-0.770643
N208	N	0.835899	0.379418	-0.270643
H209	H	0.816153	-0.549776	-0.628183
H210	H	1.316153	-0.049776	-0.128183
C211	C	0.822564	-0.184808	-1.237223
C212	C	1.322564	0.315192	-0.737223
N213	N	0.822578	-0.184793	-1.328133
N214	N	1.322578	0.315207	-0.828133
C215	C	0.618398	-0.388814	-0.891319
C216	C	1.118398	0.111186	-0.391319
N217	N	0.590665	-0.416524	-0.845838
N218	N	1.090665	0.083476	-0.345838
H219	H	0.849647	-0.800886	-0.695525
H220	H	1.349647	-0.300886	-0.195525
H221	H	0.694862	-0.450948	-0.384079
H222	H	1.194862	0.049052	0.115921
C223	C	0.449573	-0.321954	-0.364783
C224	C	0.949573	0.178046	0.135217
N225	N	0.426926	-0.349627	-0.309000
N226	N	0.926926	0.150373	0.191000
C227	C	0.061888	-0.321952	-0.364837
C228	C	0.561888	0.178048	0.135163
N229	N	0.084468	-0.349630	-0.309052
N230	N	0.584468	0.150370	0.190948
C231	C	0.892824	-0.114618	-1.122108
C232	C	1.392824	0.385382	-0.622108
N233	N	0.920556	-0.086910	-1.167601
N234	N	1.420556	0.413090	-0.667601
C235	C	0.822519	-0.184887	-0.776383
C236	C	1.322519	0.315113	-0.276383
N237	N	0.822514	-0.184902	-0.685473
N238	N	1.322514	0.315098	-0.185473
H239	H	0.556585	-0.191221	-0.628293
H240	H	1.056585	0.308779	-0.128293
H241	H	0.661498	-0.702179	-0.316957
H242	H	1.161498	-0.202179	0.183043
C243	C	0.825856	-1.059922	-0.647575
C244	C	1.325856	-0.559922	-0.147575
N245	N	0.853546	-1.082499	-0.703309
N246	N	1.353546	-0.582499	-0.203309
H247	H	0.688706	-0.318542	-1.205685
H248	H	1.188706	0.181458	-0.705685
H249	H	0.695044	-1.052351	-0.384292
H250	H	1.195044	-0.552351	0.115708
C251	C	0.449746	-0.181667	-0.647546
C252	C	0.949746	0.318333	-0.147546
N253	N	0.427167	-0.153994	-0.703344
N254	N	0.927167	0.346006	-0.203344
C255	C	0.688666	-0.318617	-0.776201
C256	C	1.188666	0.181383	-0.276201
N257	N	0.688659	-0.318625	-0.685291
N258	N	1.188659	0.181375	-0.185291
C259	C	-0.052618	-0.181673	-0.647611
C260	C	0.447382	0.318327	-0.147611
N261	N	-0.075215	-0.154001	-0.703381
N262	N	0.424785	0.345999	-0.203381
H263	H	0.206401	-0.157813	-0.695652
H264	H	0.706401	0.342187	-0.195652
C265	C	0.685450	-0.945518	-0.365049
C266	C	1.185450	-0.445518	0.134951
N267	N	0.657747	-0.922958	-0.309313
N268	N	1.157747	-0.422958	0.190687
C269	C	0.685339	-0.557833	-0.364897
C270	C	1.185339	-0.057833	0.135103
N271	N	0.657650	-0.580501	-0.309182
N272	N	1.157650	-0.080501	0.190818
C273	C	-0.052763	-0.321954	-0.364862
C274	C	0.447237	0.178046	0.135138
N275	N	-0.075407	-0.349627	-0.309074
N276	N	0.424593	0.150373	0.190926
C277	C	0.198384	-0.355330	-0.297453
C278	C	0.698384	0.144670	0.202547
N279	N	0.175744	-0.382997	-0.241648
N280	N	0.675744	0.117003	0.258352
C281	C	0.859174	-0.694022	-0.714694
C282	C	1.359174	-0.194022	-0.214694
N283	N	0.886865	-0.671361	-0.770413
N284	N	1.386865	-0.171361	-0.270413
C285	C	0.313035	-0.355331	-0.297453
C286	C	0.813035	0.144669	0.202547
N287	N	0.335618	-0.383006	-0.241665
N288	N	0.835618	0.116994	0.258335
H289	H	0.556453	-0.312406	-0.384011
H290	H	1.056453	0.187594	0.115989
H291	H	0.816130	-0.450725	-0.628117
H292	H	1.316130	0.049275	-0.128117
H293	H	0.661529	-0.801229	-0.316979
H294	H	1.161529	-0.301229	0.183021
H295	H	0.883237	-0.124209	-0.907343
H296	H	1.383237	0.375791	-0.407343
H297	H	0.816280	-0.953071	-0.628318
H298	H	1.316280	-0.453071	-0.128318
H299	H	0.627985	-0.379216	-1.106078
H300	H	1.127985	0.120784	-0.606078
