data_functionalizedCrystal
_audit_creation_method	'MofGen! by Chris Wilmer'
_symmetry_space_group_name_H-M	'P1'
_symmetry_Int_Tables_number	1
_symmetry_cell_setting	triclinic
loop_
_symmetry_equiv_pos_as_xyz
  x,y,z
_cell_length_a	25.639242
_cell_length_b	25.639239
_cell_length_c	15.299448
_cell_angle_alpha	80.298679
_cell_angle_beta	80.292333
_cell_angle_gamma	90.033587
loop_
_atom_site_label
_atom_site_type_symbol
_atom_site_fract_x
_atom_site_fract_y
_atom_site_fract_z
Zn1	Zn	0.850492	-0.157037	-0.510321
Zn2	Zn	0.835258	-0.259608	-0.359441
Zn3	Zn	0.747911	-0.172180	-0.359442
Zn4	Zn	0.763006	-0.244443	-0.510243
O5	O	0.799167	-0.208317	-0.434862
O6	O	0.921640	-0.170652	-0.490338
O7	O	0.810979	-0.260694	-0.233187
O8	O	0.761577	-0.097003	-0.379489
O9	O	0.910447	-0.246011	-0.379488
O10	O	0.836943	-0.085877	-0.490339
O11	O	0.746805	-0.196462	-0.233188
O12	O	0.676745	-0.181757	-0.379414
O13	O	0.787303	-0.220165	-0.636508
O14	O	0.687835	-0.234849	-0.490207
O15	O	0.851579	-0.155948	-0.636565
O16	O	0.825615	-0.330765	-0.379413
O17	O	0.772532	-0.319623	-0.490206
C18	C	0.663318	-0.208301	-0.434803
C19	C	0.605204	-0.208305	-0.434799
C20	C	0.348243	-0.180607	-0.377272
C21	C	0.402847	-0.180603	-0.377260
O22	O	0.426175	-0.157028	-0.328297
N23	N	0.435934	-0.208306	-0.434845
C24	C	0.414417	-0.236011	-0.492451
O25	O	0.447575	-0.259574	-0.541431
C26	C	0.359816	-0.236011	-0.492466
C27	C	0.326730	-0.208310	-0.434872
C28	C	0.315158	-0.152908	-0.319682
C29	C	0.260558	-0.152912	-0.319693
C30	C	0.239044	-0.180616	-0.377293
C31	C	0.272130	-0.208315	-0.434882
C32	C	0.338300	-0.263712	-0.550076
C33	C	0.283694	-0.263710	-0.550087
C34	C	0.250608	-0.236009	-0.492492
C35	C	0.196017	-0.236023	-0.492492
N36	N	0.162929	-0.208320	-0.434908
C37	C	0.184443	-0.180616	-0.377308
C38	C	0.529085	-0.236007	-0.492415
C39	C	0.583685	-0.236011	-0.492396
C40	C	0.572110	-0.180602	-0.377207
C41	C	0.517509	-0.180602	-0.377222
C42	C	0.495997	-0.208304	-0.434831
C43	C	0.069780	-0.180628	-0.377334
C44	C	0.015176	-0.180637	-0.377347
C45	C	0.026756	-0.236044	-0.492540
C46	C	0.081355	-0.236037	-0.492524
C47	C	0.102865	-0.208326	-0.434918
O48	O	0.172652	-0.259585	-0.541433
O49	O	0.151280	-0.157051	-0.328345
C50	C	0.799075	-0.344164	-0.434821
C51	C	0.799086	-0.402277	-0.434833
C52	C	0.826904	-0.768416	-0.377270
C53	C	0.826926	-0.823019	-0.377282
O54	O	0.850482	-0.856171	-0.328294
N55	N	0.799265	-0.844550	-0.434922
C56	C	0.771584	-0.811475	-0.492559
O57	O	0.748059	-0.834803	-0.541588
C58	C	0.771566	-0.756872	-0.492551
C59	C	0.799225	-0.735345	-0.434901
C60	C	0.854561	-0.746887	-0.319625
C61	C	0.854539	-0.692288	-0.319612
C62	C	0.826860	-0.659217	-0.377244
C63	C	0.799203	-0.680745	-0.434888
C64	C	0.743890	-0.723797	-0.550193
C65	C	0.743874	-0.669192	-0.550180
C66	C	0.771533	-0.647664	-0.492530
C67	C	0.771501	-0.593075	-0.492507
N68	N	0.799162	-0.571544	-0.434867
C69	C	0.826842	-0.604615	-0.377236
C70	C	0.771625	-0.926144	-0.492573
C71	C	0.771640	-0.980746	-0.492578
C72	C	0.826982	-0.992286	-0.377301
C73	C	0.826964	-0.937683	-0.377293
C74	C	0.799286	-0.904612	-0.434934
C75	C	0.826792	-0.489952	-0.377212
C76	C	0.826765	-0.435348	-0.377202
C77	C	0.771425	-0.423812	-0.492481
C78	C	0.771450	-0.478412	-0.492489
C79	C	0.799137	-0.511481	-0.434851
O80	O	0.747958	-0.559891	-0.541472
O81	O	0.850369	-0.581278	-0.328224
C82	C	0.935546	-0.208334	-0.434921
C83	C	0.993662	-0.208341	-0.434947
C84	C	0.822824	-0.184676	-0.670188
C85	C	0.832906	-0.174601	-0.770470
C86	C	0.799275	-0.071938	-0.434923
C87	C	0.799322	-0.013821	-0.434949
C88	C	0.871108	-0.136432	-0.817610
C89	C	0.880575	-0.126960	-0.911829
C90	C	0.851845	-0.155658	-0.958919
C91	C	0.813645	-0.193830	-0.911780
C92	C	0.804174	-0.203301	-0.817550
C93	C	0.784911	-0.222527	-0.958860
C94	C	0.746712	-0.260699	-0.911721
C95	C	0.737242	-0.270168	-0.817501
C96	C	0.765972	-0.241470	-0.770411
C97	C	0.794383	-0.213056	-1.053089
C98	C	0.727449	-0.279925	-1.053030
C99	C	0.717981	-0.289397	-0.958810
C100	C	0.775631	-0.231829	-0.200451
C101	C	0.765651	-0.241756	-0.100170
H102	H	-0.011761	-0.158079	-0.330444
H103	H	0.087287	-0.158060	-0.330430
C104	C	0.741212	-1.004424	-0.555985
H105	H	0.745184	-1.041680	-0.547741
H106	H	0.754928	-0.989360	-0.616615
H107	H	0.704749	-0.996844	-0.542707
H108	H	0.894493	-0.113068	-0.779261
H109	H	0.511573	-0.258570	-0.539326
H110	H	0.849288	-0.417823	-0.330253
H111	H	0.748887	-0.396877	-0.539401
C112	C	0.003084	-0.266512	-0.555899
H113	H	-0.034173	-0.262540	-0.547659
H114	H	0.010669	-0.302968	-0.542594
H115	H	0.018145	-0.252814	-0.616543
C116	C	0.755549	-0.251883	-0.666768
H117	H	0.728683	-0.278725	-0.645435
H118	H	0.744395	-0.220281	-0.645467
H119	H	0.787141	-0.263076	-0.645460
H120	H	0.877063	-0.674764	-0.272672
C121	C	0.857428	-1.028671	-0.313904
H122	H	0.853478	-1.064272	-0.322175
H123	H	0.843705	-1.025835	-0.253269
H124	H	0.893885	-1.018358	-0.327172
C125	C	0.695215	-0.312148	-0.765649
H126	H	0.679462	-0.327885	-0.807186
H127	H	0.668758	-0.295832	-0.728892
H128	H	0.711502	-0.338630	-0.728892
C129	C	0.675973	-0.331395	-0.906955
H130	H	0.660224	-0.347138	-0.948488
H131	H	0.649509	-0.315097	-0.870180
H132	H	0.692280	-0.357869	-0.870215
H133	H	0.849339	-0.516871	-0.330280
C134	C	0.695843	-0.311496	-1.104815
H135	H	0.671731	-0.335581	-1.063246
H136	H	0.719519	-0.330587	-1.141575
H137	H	0.676771	-0.287793	-1.141565
C138	C	0.857393	-0.914007	-0.313886
H139	H	0.873881	-0.941527	-0.279571
H140	H	0.833452	-0.896684	-0.274533
H141	H	0.883629	-0.889210	-0.348443
C142	C	0.741170	-0.889771	-0.555972
H143	H	0.724697	-0.910419	-0.590291
H144	H	0.765096	-0.864490	-0.595321
H145	H	0.714921	-0.871973	-0.521408
H146	H	0.233624	-0.130355	-0.272793
C147	C	0.713469	-0.747465	-0.613616
H148	H	0.696990	-0.719941	-0.647940
H149	H	0.687234	-0.772266	-0.579080
H150	H	0.737420	-0.764781	-0.652972
H151	H	0.332668	-0.130345	-0.272778
H152	H	0.490573	-0.158043	-0.330326
H153	H	0.365230	-0.286270	-0.596976
C154	C	0.117750	-0.266510	-0.555871
H155	H	0.097115	-0.283008	-0.590179
H156	H	0.135559	-0.292731	-0.521289
H157	H	0.143023	-0.242582	-0.595247
C158	C	0.595783	-0.150122	-0.313856
H159	H	0.633041	-0.154086	-0.322108
H160	H	0.580725	-0.163807	-0.253211
H161	H	0.588197	-0.113665	-0.327184
H162	H	0.610619	-0.258574	-0.539286
C163	C	0.713428	-0.632816	-0.613587
H164	H	0.696958	-0.653462	-0.647915
H165	H	0.737358	-0.607535	-0.652929
H166	H	0.687177	-0.615018	-0.579028
C167	C	0.260038	-0.294160	-0.613493
H168	H	0.287566	-0.310651	-0.647794
H169	H	0.242723	-0.270223	-0.652858
H170	H	0.235235	-0.320394	-0.578945
C171	C	0.885008	-0.783258	-0.256220
H172	H	0.901470	-0.762609	-0.221889
H173	H	0.911256	-0.801064	-0.290764
H174	H	0.861072	-0.808535	-0.216868
H175	H	0.748930	-0.495940	-0.539435
C176	C	0.836403	-0.171075	-1.104936
H177	H	0.837929	-0.169541	-1.167797
H178	H	0.869975	-0.180286	-1.089505
H179	H	0.827226	-0.137493	-1.089502
C180	C	0.922594	-0.084977	-0.963676
H181	H	0.938352	-0.069245	-0.922139
H182	H	0.906307	-0.058498	-1.000431
H183	H	0.949056	-0.101291	-1.000436
H184	H	0.859556	-0.147943	-1.035637
