data_functionalizedCrystal
_audit_creation_method	'MofGen! by Chris Wilmer'
_symmetry_space_group_name_H-M	'P1'
_symmetry_Int_Tables_number	1
_symmetry_cell_setting	triclinic
loop_
_symmetry_equiv_pos_as_xyz
  x,y,z
_cell_length_a	16.120530
_cell_length_b	18.215405
_cell_length_c	18.215399
_cell_angle_alpha	90.032960
_cell_angle_beta	87.086235
_cell_angle_gamma	92.879755
loop_
_atom_site_label
_atom_site_type_symbol
_atom_site_fract_x
_atom_site_fract_y
_atom_site_fract_z
Zn1	Zn	1.274509	0.350098	-0.473075
Zn2	Zn	1.774509	0.850098	0.026925
Zn3	Zn	1.274412	0.473170	-0.349999
Zn4	Zn	1.774412	0.973170	0.150001
Zn5	Zn	1.135099	0.343878	-0.343791
Zn6	Zn	1.635099	0.843878	0.156209
Zn7	Zn	1.135053	0.466877	-0.466795
Zn8	Zn	1.635053	0.966877	0.033205
O9	O	1.204768	0.408505	-0.408415
O10	O	1.704768	0.908505	0.091585
O11	O	1.391161	0.371660	-0.461976
O12	O	1.891161	0.871660	0.038024
O13	O	1.255911	0.456049	-0.246190
O14	O	1.755911	0.956049	0.253810
O15	O	1.153652	0.241721	-0.360971
O16	O	1.653652	0.741721	0.139029
O17	O	1.391090	0.462081	-0.371552
O18	O	1.891090	0.962081	0.128448
O19	O	1.256075	0.246291	-0.455956
O20	O	1.756075	0.746291	0.044044
O21	O	1.153558	0.361059	-0.241629
O22	O	1.653558	0.861059	0.258371
O23	O	1.018428	0.354957	-0.354881
O24	O	1.518428	0.854957	0.145119
O25	O	1.153574	0.451355	-0.570613
O26	O	1.653574	0.951355	-0.070613
O27	O	1.018394	0.445324	-0.445251
O28	O	1.518394	0.945324	0.054749
O29	O	1.256031	0.365558	-0.575228
O30	O	1.756031	0.865558	-0.075228
O31	O	1.255866	0.575317	-0.365462
O32	O	1.755866	1.075317	0.134538
O33	O	1.153480	0.570693	-0.451271
O34	O	1.653480	1.070693	0.048729
C35	C	1.204680	0.599708	-0.408376
C36	C	1.704680	1.099708	0.091624
C37	C	1.204719	0.681508	-0.408387
C38	C	1.704719	1.181508	0.091613
C39	C	0.988161	0.398783	-0.398711
C40	C	1.488161	0.898783	0.101289
C41	C	0.895496	0.394641	-0.394577
C42	C	1.395496	0.894641	0.105423
C43	C	1.204808	0.408448	-0.600370
C44	C	1.704808	0.908448	-0.100370
C45	C	1.204825	0.408424	-0.682170
C46	C	1.704825	0.908424	-0.182170
C47	C	0.725835	0.387063	-0.387036
C48	C	1.225835	0.887063	0.112964
C49	C	0.684543	0.430002	-0.429848
C50	C	1.184543	0.930002	0.070152
C51	C	0.590137	0.425785	-0.425652
C52	C	1.090137	0.925785	0.074348
C53	C	0.820248	0.391279	-0.391231
C54	C	1.320248	0.891279	0.108769
C55	C	1.422221	0.418266	-0.418157
C56	C	1.922221	0.918266	0.081843
C57	C	1.514887	0.422426	-0.422309
C58	C	2.014887	0.922426	0.077691
C59	C	1.204879	0.216557	-0.408472
C60	C	1.704879	0.716557	0.091528
C61	C	1.204927	0.134761	-0.408496
C62	C	1.704927	0.634761	0.091504
C63	C	1.258157	0.872091	-0.363798
C64	C	1.758157	1.372091	0.136202
C65	C	1.258194	0.948951	-0.363818
C66	C	1.758194	1.448951	0.136182
C67	C	1.151487	0.944173	-0.453089
C68	C	1.651487	1.444173	0.046911
C69	C	1.151454	0.867314	-0.453073
C70	C	1.651454	1.367314	0.046927
C71	C	1.204788	0.831275	-0.408424
C72	C	1.704788	1.331275	0.091576
C73	C	1.204858	0.984994	-0.408459
C74	C	1.704858	1.484994	0.091541
C75	C	1.204898	1.068329	-0.408481
C76	C	1.704898	1.568329	0.091519
C77	C	1.204749	0.747934	-0.408403
C78	C	1.704749	1.247934	0.091597
C79	C	1.151575	0.358933	-0.867991
C80	C	1.651575	0.858933	-0.367991
C81	C	1.151589	0.358919	-0.944851
C82	C	1.651589	0.858919	-0.444851
C83	C	1.258174	0.457832	-0.949590
C84	C	1.758174	0.957832	-0.449590
C85	C	1.258155	0.457849	-0.872732
C86	C	1.758155	0.957849	-0.372732
C87	C	1.204856	0.408395	-0.831935
C88	C	1.704856	0.908395	-0.331935
C89	C	1.204890	0.408364	-0.985652
C90	C	1.704890	0.908364	-0.485652
C91	C	1.204906	0.408349	-1.068987
C92	C	1.704906	0.908349	-0.568987
C93	C	1.204839	0.408411	-0.748595
C94	C	1.704839	0.908411	-0.248595
C95	C	1.204777	0.408511	-0.217209
C96	C	1.704777	0.908511	0.282791
C97	C	1.204922	0.408335	-0.135417
C98	C	1.704922	0.908335	0.364583
H99	H	0.720092	0.469929	-0.469652
H100	H	1.220092	0.969929	0.030348
H101	H	1.301545	0.498130	-0.843374
H102	H	1.801545	0.998130	-0.343374
F103	F	1.094870	0.306281	-0.983221
F104	F	1.594870	0.806281	-0.483221
H105	H	0.690287	0.347138	-0.347236
H106	H	1.190287	0.847138	0.152764
F107	F	1.314920	0.833738	-0.316279
F108	F	1.814920	1.333738	0.183721
F109	F	1.094848	0.306302	-0.824574
F110	F	1.594848	0.806302	-0.324574
F111	F	1.314998	0.992388	-0.316323
F112	F	1.814998	1.492388	0.183677
H113	H	1.108063	0.973525	-0.489440
H114	H	1.608063	1.473525	0.010560
F115	F	1.094653	0.823872	-0.500576
F116	F	1.594653	1.323872	-0.000576
H117	H	1.301568	0.498095	-0.982816
H118	H	1.801568	0.998095	-0.482816
