data_functionalizedCrystal
_audit_creation_method	'MofGen! by Chris Wilmer'
_symmetry_space_group_name_H-M	'P1'
_symmetry_Int_Tables_number	1
_symmetry_cell_setting	triclinic
loop_
_symmetry_equiv_pos_as_xyz
  x,y,z
_cell_length_a	18.215405
_cell_length_b	21.395364
_cell_length_c	21.395355
_cell_angle_alpha	90.025677
_cell_angle_beta	89.980149
_cell_angle_gamma	89.981083
loop_
_atom_site_label
_atom_site_type_symbol
_atom_site_fract_x
_atom_site_fract_y
_atom_site_fract_z
Zn1	Zn	-0.293187	-0.957884	-0.354274
Zn2	Zn	-0.416235	-0.957797	-0.249494
Zn3	Zn	-0.293174	-0.853099	-0.249509
Zn4	Zn	-0.416203	-0.853079	-0.354233
O5	O	-0.354700	-0.905465	-0.301878
O6	O	-0.309528	-1.045551	-0.340386
O7	O	-0.399919	-0.943881	-0.161818
O8	O	-0.190191	-0.867044	-0.263430
O9	O	-0.399931	-1.045487	-0.263405
O10	O	-0.190201	-0.944029	-0.340401
O11	O	-0.309506	-0.866960	-0.161829
O12	O	-0.309476	-0.765419	-0.263389
O13	O	-0.399877	-0.867010	-0.441916
O14	O	-0.399865	-0.765404	-0.340329
O15	O	-0.309497	-0.944010	-0.441947
O16	O	-0.519215	-0.943862	-0.263365
O17	O	-0.519192	-0.866925	-0.340315
C18	C	-0.354666	-0.742678	-0.301857
C19	C	-0.354669	-0.673036	-0.301863
C20	C	-0.545906	-0.905399	-0.301847
C21	C	-0.627705	-0.905428	-0.301856
C22	C	-0.307712	-0.171273	-0.342021
C23	C	-0.307709	-0.236708	-0.342022
C24	C	-0.354700	-0.269398	-0.301879
C25	C	-0.401711	-0.236647	-0.261743
C26	C	-0.401718	-0.171213	-0.261747
C27	C	-0.360402	-0.373035	-0.245414
C28	C	-0.360390	-0.438468	-0.245408
C29	C	-0.354682	-0.471219	-0.301866
C30	C	-0.348971	-0.438528	-0.358330
C31	C	-0.348978	-0.373094	-0.358335
C32	C	-0.354698	-0.340350	-0.301870
C33	C	-0.307675	-0.574914	-0.342004
C34	C	-0.307677	-0.640351	-0.342006
C35	C	-0.401675	-0.640289	-0.261721
C36	C	-0.401676	-0.574853	-0.261724
C37	C	-0.354673	-0.542170	-0.301865
C38	C	-0.815887	-0.945583	-0.261861
C39	C	-0.892745	-0.945611	-0.261876
C40	C	-0.892761	-0.865428	-0.341939
C41	C	-0.815904	-0.865403	-0.341927
C42	C	-0.777468	-0.905480	-0.301884
C43	C	-0.931184	-0.905532	-0.301912
C44	C	-1.014518	-0.905562	-0.301928
C45	C	-0.694129	-0.905451	-0.301868
C46	C	-0.162747	-0.905549	-0.301922
C47	C	-0.080948	-0.905584	-0.301940
C48	C	-0.354685	-0.905517	-0.465301
C49	C	-0.354678	-0.905539	-0.534942
C50	C	-0.354725	-0.068888	-0.301894
C51	C	-0.354714	-0.138530	-0.301888
C52	C	-0.307616	-0.945631	-0.567672
C53	C	-0.307584	-0.945631	-0.633108
C54	C	-0.354628	-0.905544	-0.665811
C55	C	-0.401694	-0.865444	-0.633073
C56	C	-0.401719	-0.865442	-0.567638
C57	C	-0.420892	-0.900574	-0.769475
C58	C	-0.420868	-0.900581	-0.834908
C59	C	-0.354551	-0.905548	-0.867631
C60	C	-0.288255	-0.910522	-0.834914
C61	C	-0.288280	-0.910519	-0.769480
C62	C	-0.354606	-0.905542	-0.736763
C63	C	-0.307450	-0.945641	-0.971314
C64	C	-0.307417	-0.945636	-1.036751
C65	C	-0.401533	-0.865453	-1.036714
C66	C	-0.401560	-0.865455	-0.971279
C67	C	-0.354519	-0.905553	-0.938583
C68	C	-0.354661	-0.905449	-0.139090
C69	C	-0.354461	-0.905549	-0.069449
H70	H	-0.269441	-0.144666	-0.374709
N71	N	-0.256868	-0.988861	-0.532401
H72	H	-0.286786	-1.017882	-0.505259
H73	H	-0.227051	-1.014217	-0.563102
H74	H	-0.344330	-0.346481	-0.404310
H75	H	-0.344320	-0.465193	-0.404303
H76	H	-0.269256	-0.978277	-0.659762
H77	H	-0.234300	-0.914567	-0.742844
N78	N	-0.452409	-0.135889	-0.218457
H79	H	-0.505007	-0.147267	-0.228106
H80	H	-0.440840	-0.147270	-0.173724
H81	H	-0.439888	-0.832811	-0.944630
H82	H	-0.440043	-0.832791	-0.540990
N83	N	-0.366553	-0.473729	-0.184514
H84	H	-0.321708	-0.500882	-0.178701
H85	H	-0.370204	-0.443018	-0.148785
N86	N	-0.366538	-0.337716	-0.184514
H87	H	-0.365673	-0.291304	-0.193083
H88	H	-0.414122	-0.349127	-0.163138
N89	N	-0.452361	-0.539535	-0.218426
H90	H	-0.445235	-0.493123	-0.224519
H91	H	-0.504936	-0.550965	-0.228095
N92	N	-0.256984	-0.539657	-0.385298
H93	H	-0.227211	-0.570332	-0.410727
H94	H	-0.286992	-0.512514	-0.414247
H95	H	-0.234253	-0.914567	-0.861556
N96	N	-0.934183	-0.988866	-0.218710
H97	H	-0.898170	-1.014248	-0.193344
H98	H	-0.966113	-0.963387	-0.189696
N99	N	-0.774466	-0.822143	-0.385096
H100	H	-0.742617	-0.793113	-0.359598
H101	H	-0.742582	-0.847624	-0.414143
N102	N	-0.257013	-0.272035	-0.385311
H103	H	-0.227239	-0.241401	-0.410741
H104	H	-0.222915	-0.299177	-0.359851
H105	H	-0.269142	-0.978288	-0.944692
N106	N	-0.256640	-0.988869	-1.072056
H107	H	-0.226845	-1.014267	-1.041412
H108	H	-0.286585	-1.017852	-1.099224
H109	H	-0.924064	-0.832798	-0.374540
H110	H	-0.439830	-0.832808	-1.063340
N111	N	-0.256985	-0.675670	-0.385300
H112	H	-0.227211	-0.645034	-0.410727
H113	H	-0.222886	-0.702816	-0.359845
H114	H	-0.474850	-0.896535	-0.861541
H115	H	-0.474882	-0.896361	-0.742837
H116	H	-0.439996	-0.832804	-0.659703
H117	H	-0.439973	-0.263267	-0.229059
N118	N	-0.452365	-0.675537	-0.218427
H119	H	-0.445231	-0.721959	-0.224514
H120	H	-0.440838	-0.664081	-0.173696
H121	H	-0.784594	-0.978216	-0.229257
