data_functionalizedCrystal
_audit_creation_method	'MofGen! by Chris Wilmer'
_symmetry_space_group_name_H-M	'P1'
_symmetry_Int_Tables_number	1
_symmetry_cell_setting	triclinic
loop_
_symmetry_equiv_pos_as_xyz
  x,y,z
_cell_length_a	23.204048
_cell_length_b	23.204045
_cell_length_c	23.204034
_cell_angle_alpha	120.007423
_cell_angle_beta	89.998516
_cell_angle_gamma	119.999602
loop_
_atom_site_label
_atom_site_type_symbol
_atom_site_fract_x
_atom_site_fract_y
_atom_site_fract_z
O1	O	0.395331	-0.508360	-0.017162
O2	O	0.311529	-0.390342	0.017050
O3	O	0.311525	-0.508362	-0.100971
O4	O	0.395335	-0.390341	0.100860
O5	O	0.407380	-0.412504	-0.100960
O6	O	0.407384	-0.294485	0.017062
O7	O	0.491186	-0.412503	-0.017151
Cu8	Cu	0.458037	-0.344741	-0.000044
Cu9	Cu	0.344678	-0.458104	-0.000057
O10	O	0.491190	-0.294483	0.100871
C11	C	0.248536	-0.108438	0.035749
C12	C	0.284096	-0.037317	0.030850
C13	C	0.283381	-0.142950	0.036240
C14	C	0.144179	-0.212794	0.035753
C15	C	0.068160	-0.253251	0.030859
C16	C	0.179182	-0.247147	0.036245
C17	C	0.248539	-0.212792	0.035757
C18	C	0.284103	-0.253247	0.030866
C19	C	0.179179	-0.142952	0.036237
C20	C	0.312834	-0.285932	0.026913
C21	C	0.312825	0.020140	0.026891
C22	C	0.006744	-0.285938	0.026904
C23	C	0.348879	-0.326936	0.021955
C24	C	0.348866	0.092223	0.021925
C25	C	-0.070305	-0.326943	0.021943
O26	O	-0.180159	-0.390325	0.100862
O27	O	-0.214371	-0.508379	-0.100971
O28	O	-0.096357	-0.390344	0.017046
O29	O	-0.298172	-0.508360	-0.017154
O30	O	-0.096363	-0.294499	0.017039
O31	O	-0.214376	-0.412534	-0.100978
O32	O	-0.180164	-0.294480	0.100855
Cu33	Cu	-0.197271	-0.344756	-0.000062
Cu34	Cu	-0.197264	-0.458104	-0.000053
O35	O	-0.298177	-0.412515	-0.017161
C36	C	0.248527	-0.590058	-0.341517
C37	C	0.284093	-0.549601	-0.265495
C38	C	0.283371	-0.555700	-0.376515
C39	C	0.144160	-0.694418	-0.445886
C40	C	0.068137	-0.765545	-0.481456
C41	C	0.179164	-0.659902	-0.480726
C42	C	0.248525	-0.590055	-0.445875
C43	C	0.284090	-0.549594	-0.481432
C44	C	0.179165	-0.659905	-0.376526
C45	C	0.312822	-0.516906	-0.510158
C46	C	0.312826	-0.516916	-0.204075
C47	C	0.006718	-0.823007	-0.510191
C48	C	0.348868	-0.475897	-0.546196
C49	C	0.348873	-0.475911	-0.127022
C50	C	-0.070335	-0.895096	-0.546242
C51	C	0.492058	-0.621399	-0.024959
C52	C	0.456492	-0.692529	-0.020074
C53	C	0.561417	-0.586883	-0.025443
C54	C	0.492064	-0.517030	-0.024947
C55	C	0.456504	-0.476569	-0.020047
C56	C	0.561423	-0.482673	-0.025430
C57	C	0.596422	-0.517033	-0.024947
C58	C	0.672442	-0.476574	-0.020048
C59	C	0.457217	-0.586881	-0.025443
O60	O	0.491170	0.280976	-0.017187
O61	O	0.407369	0.113376	0.017025
O62	O	0.407359	0.113345	-0.100996
O63	O	0.491180	0.281008	0.100835
O64	O	0.311507	0.113343	-0.100999
O65	O	0.311517	0.113375	0.017022
O66	O	0.395318	0.280975	-0.017189
Cu67	Cu	0.344666	0.197175	-0.000084
Cu68	Cu	0.458021	0.197176	-0.000081
O69	O	0.395328	0.281007	0.100832
O70	O	-0.298210	-1.083867	-0.592713
O71	O	-0.096389	-0.916251	-0.508896
O72	O	-0.214386	-0.916236	-0.508880
O73	O	-0.180212	-1.083883	-0.592729
O74	O	-0.214390	-0.916235	-0.604730
O75	O	-0.096393	-0.916250	-0.604746
O76	O	-0.298214	-1.083866	-0.688563
Cu77	Cu	-0.197304	-1.000058	-0.655407
Cu78	Cu	-0.197299	-1.000059	-0.542052
O79	O	-0.180216	-1.083882	-0.688580
O80	O	0.395337	-0.390322	-0.688487
O81	O	0.311518	-0.508343	-0.604702
O82	O	0.311534	-0.390316	-0.604673
O83	O	0.395321	-0.508349	-0.688516
O84	O	0.407390	-0.294465	-0.508811
O85	O	0.407374	-0.412492	-0.508840
O86	O	0.491193	-0.294471	-0.592626
Cu87	Cu	0.458036	-0.344730	-0.541980
Cu88	Cu	0.344675	-0.458084	-0.655347
O89	O	0.491178	-0.412499	-0.592655
C90	C	0.596438	-0.181439	0.310647
C91	C	0.672459	-0.110309	0.346217
C92	C	0.561435	-0.215953	0.345489
C93	C	0.492074	-0.285810	0.206275
C94	C	0.456510	-0.326274	0.130250
C95	C	0.457231	-0.320166	0.241275
C96	C	0.492076	-0.285804	0.310638
C97	C	0.456512	-0.326261	0.346198
C98	C	0.561434	-0.215959	0.241285
C99	C	-0.172384	-0.285772	0.310637
C100	C	-0.177276	-0.326219	0.346206
C101	C	-0.171901	-0.215925	0.345479
C102	C	-0.172383	-0.285793	0.206268
C103	C	-0.177274	-0.326262	0.130244
C104	C	-0.171900	-0.215945	0.241268
C105	C	-0.172390	-0.181420	0.310630
C106	C	-0.177289	-0.110293	0.346190
C107	C	-0.171894	-0.320139	0.241276
C108	C	0.492081	0.483034	0.310611
C109	C	0.456522	0.523499	0.346176
C110	C	0.561441	0.517397	0.345457
C111	C	0.492072	0.378650	0.206244
C112	C	0.456503	0.307508	0.130218
C113	C	0.561432	0.413172	0.241248
C114	C	0.596440	0.483033	0.310611
C115	C	0.672462	0.523497	0.346177
C116	C	0.457232	0.413173	0.241248
C117	C	-0.233068	-0.694496	-0.445892
C118	C	-0.228169	-0.765623	-0.481452
C119	C	-0.233557	-0.659991	-0.480741
C120	C	-0.233075	-0.590123	-0.341530
C121	C	-0.228184	-0.549653	-0.265506
C122	C	-0.233564	-0.555776	-0.376538
C123	C	-0.233073	-0.590143	-0.445900
C124	C	-0.228180	-0.549695	-0.481468
C125	C	-0.233558	-0.659970	-0.376530
C126	C	-0.224226	-0.517017	-0.510203
C127	C	-0.224210	-0.823085	-0.510181
C128	C	-0.224231	-0.516957	-0.204086
C129	C	-0.219266	-0.476021	-0.546253
C130	C	-0.219245	-0.895175	-0.546222
C131	C	-0.219273	-0.475939	-0.127031
O132	O	-0.214361	-0.412401	0.491205
O133	O	-0.180168	-0.294419	0.407381
O134	O	-0.298173	-0.412430	0.407374
O135	O	-0.096356	-0.294390	0.491211
O136	O	-0.298167	-0.508295	0.311522
O137	O	-0.180161	-0.390284	0.311528
O138	O	-0.214355	-0.508266	0.395352
Cu139	Cu	-0.197257	-0.458028	0.344688
Cu140	Cu	-0.197265	-0.344657	0.458045
O141	O	-0.096349	-0.390255	0.395359
C142	C	0.144133	-0.212923	-0.445925
C143	C	0.068112	-0.253387	-0.481491
C144	C	0.179132	-0.247287	-0.480771
C145	C	0.248500	-0.108540	-0.341557
C146	C	0.284068	-0.037397	-0.265532
C147	C	0.283341	-0.143062	-0.376561
C148	C	0.248492	-0.212923	-0.445924
C149	C	0.284052	-0.253388	-0.481488
C150	C	0.179140	-0.143062	-0.376562
C151	C	0.312780	-0.286080	-0.510220
C152	C	0.006693	-0.286079	-0.510224
C153	C	0.312803	0.020077	-0.204110
C154	C	0.348822	-0.327093	-0.546265
C155	C	-0.070358	-0.327092	-0.546272
C156	C	0.348853	0.092183	-0.127055
H157	H	0.340371	-0.114055	0.037035
H158	H	-0.171123	-0.376355	0.213173
C159	C	0.141208	-0.698910	-0.557712
C160	C	0.114168	-0.787427	-0.615798
C161	C	0.076219	-0.826426	-0.692781
C162	C	0.065309	-0.776909	-0.711678
C163	C	0.092349	-0.688386	-0.653591
C164	C	0.130299	-0.649387	-0.576608
H165	H	0.122244	-0.824087	-0.601811
H166	H	0.056202	-0.891957	-0.735781
H167	H	0.037217	-0.805778	-0.768666
H168	H	0.084274	-0.651726	-0.667578
H169	H	0.150316	-0.583856	-0.533608
H170	H	0.589528	0.384277	0.213142
H171	H	0.400242	-0.376374	0.213164
H172	H	0.589544	0.573612	0.402449
C173	C	-0.234613	-0.698969	-0.338549
C174	C	-0.174190	-0.649445	-0.270120
C175	C	-0.175243	-0.688435	-0.232134
C176	C	-0.236718	-0.776950	-0.262577
C177	C	-0.297146	-0.826479	-0.331009
C178	C	-0.296093	-0.787489	-0.368995
H179	H	-0.128678	-0.583917	-0.247581
H180	H	-0.130510	-0.651770	-0.181475
H181	H	-0.237497	-0.805813	-0.234457
H182	H	-0.342657	-0.892008	-0.353548
H183	H	-0.340826	-0.824155	-0.419654
H184	H	-0.234347	-0.688894	-0.537735
C185	C	0.380243	0.374128	0.203273
C186	C	0.361305	0.423590	0.192310
C187	C	0.284319	0.384539	0.154332
C188	C	0.226269	0.296027	0.127316
C189	C	0.245205	0.246560	0.138278
C190	C	0.322192	0.285611	0.176256
H191	H	0.404278	0.489117	0.212310
H192	H	0.270301	0.421159	0.146218
H193	H	0.169279	0.267120	0.099202
H194	H	0.202232	0.181034	0.118278
H195	H	0.336209	0.248991	0.184370
C196	C	0.360330	-0.104032	-0.338599
C197	C	0.398830	-0.027035	-0.262139
C198	C	0.475816	0.011993	-0.224181
C199	C	0.514303	-0.025976	-0.262685
C200	C	0.475802	-0.102978	-0.339150
C201	C	0.398816	-0.142006	-0.377107
H202	H	0.370340	0.001076	-0.233632
H203	H	0.504317	0.068995	-0.167576
H204	H	0.571292	0.002915	-0.234587
H205	H	0.504292	-0.131089	-0.367657
H206	H	0.370316	-0.199007	-0.433712
H207	H	-0.234345	-0.499567	-0.348433
C208	C	0.141168	-0.323228	-0.557762
C209	C	0.064710	-0.361207	-0.596260
C210	C	0.026750	-0.437144	-0.673249
C211	C	0.065248	-0.475102	-0.711740
C212	C	0.141711	-0.437122	-0.673242
C213	C	0.179671	-0.361185	-0.596253
H214	H	0.036208	-0.333108	-0.567767
H215	H	-0.029853	-0.465258	-0.701748
H216	H	0.037148	-0.531315	-0.768732
H217	H	0.170213	-0.465221	-0.701735
H218	H	0.236273	-0.333071	-0.567755
C219	C	0.141170	-0.104055	-0.338580
C220	C	0.064700	-0.142047	-0.377057
C221	C	0.026726	-0.103053	-0.339068
C222	C	0.065222	-0.026068	-0.262601
C223	C	0.141696	0.011928	-0.224119
C224	C	0.179670	-0.027066	-0.262108
H225	H	0.036200	-0.199040	-0.433667
H226	H	-0.029885	-0.131181	-0.367555
H227	H	0.037111	0.002797	-0.234479
H228	H	0.170196	0.068921	-0.167510
H229	H	0.236281	0.001062	-0.233621
C230	C	-0.170875	-0.176891	0.422459
C231	C	-0.231328	-0.226387	0.441350
C232	C	-0.230317	-0.187356	0.518322
C233	C	-0.168855	-0.098830	0.576402
C234	C	-0.108398	-0.049329	0.557512
C235	C	-0.109408	-0.088360	0.480540
H236	H	-0.276830	-0.291924	0.398354
H237	H	-0.275072	-0.224000	0.532305
H238	H	-0.168107	-0.069937	0.633381
H239	H	-0.062895	0.016208	0.600508
H240	H	-0.064653	-0.051716	0.466557
H241	H	0.400231	-0.615767	-0.026226
H242	H	0.151081	-0.114061	0.037025
H243	H	0.589525	-0.426464	-0.026204
H244	H	0.151080	-0.303345	0.037035
C245	C	0.360361	-0.479774	-0.338553
C246	C	0.379300	-0.400409	-0.270136
C247	C	0.456287	-0.324487	-0.232180
C248	C	0.514335	-0.327930	-0.262642
C249	C	0.495399	-0.407298	-0.331063
C250	C	0.418412	-0.483220	-0.369019
H251	H	0.336327	-0.397858	-0.247583
H252	H	0.470305	-0.265734	-0.181530
H253	H	0.571326	-0.271728	-0.234545
H254	H	0.538371	-0.409850	-0.353616
H255	H	0.404394	-0.541974	-0.419669
C256	C	0.141194	-0.698938	-0.338576
C257	C	0.171635	-0.729983	-0.311560
C258	C	0.133663	-0.769018	-0.273615
C259	C	0.065250	-0.777009	-0.262686
C260	C	0.034805	-0.745963	-0.289704
C261	C	0.072778	-0.706928	-0.327649
H262	H	0.222282	-0.724069	-0.319649
H263	H	0.156200	-0.792000	-0.253615
H264	H	0.037140	-0.805905	-0.234597
H265	H	-0.015842	-0.751877	-0.281614
H266	H	0.050240	-0.683946	-0.347648
C267	C	0.599389	-0.625896	-0.026504
C268	C	0.568949	-0.714412	-0.087993
C269	C	0.606926	-0.753417	-0.089052
C270	C	0.675344	-0.703905	-0.028622
C271	C	0.705788	-0.615384	0.032872
C272	C	0.667811	-0.576379	0.033930
H273	H	0.518298	-0.751069	-0.132731
H274	H	0.584388	-0.818947	-0.134573
H275	H	0.703456	-0.732779	-0.029406
H276	H	0.756438	-0.578727	0.077609
H277	H	0.690348	-0.510849	0.079452
C278	C	0.599394	-0.176932	0.422479
C279	C	0.667795	-0.168960	0.441402
C280	C	0.705749	-0.129945	0.518388
C281	C	0.675302	-0.098903	0.576451
C282	C	0.606897	-0.106874	0.557530
C283	C	0.568943	-0.145889	0.480544
H284	H	0.690338	-0.191941	0.398418
H285	H	0.756388	-0.124045	0.532394
H286	H	0.703398	-0.070021	0.633441
H287	H	0.584354	-0.083893	0.600513
H288	H	0.518304	-0.151789	0.466537
C289	C	0.599375	-0.176949	0.203309
C290	C	0.568903	-0.145925	0.176297
C291	C	0.606831	-0.106922	0.138316
C292	C	0.675231	-0.098942	0.127348
C293	C	0.705707	-0.129967	0.154361
C294	C	0.667779	-0.168970	0.192342
H295	H	0.518265	-0.151832	0.184416
H296	H	0.584270	-0.083956	0.118319
H297	H	0.703308	-0.070070	0.099232
H298	H	0.756344	-0.124060	0.146242
H299	H	0.690340	-0.191936	0.212339
C300	C	-0.170842	-0.176926	0.203305
C301	C	-0.109357	-0.088411	0.233762
C302	C	-0.108300	-0.049391	0.195804
C303	C	-0.168729	-0.098886	0.127390
C304	C	-0.230219	-0.187407	0.096930
C305	C	-0.231275	-0.226427	0.134887
H306	H	-0.064620	-0.051768	0.284409
H307	H	-0.062781	0.016137	0.218353
H308	H	-0.167946	-0.070002	0.099291
H309	H	-0.274955	-0.224050	0.046282
H310	H	-0.276795	-0.291955	0.112339
