data_functionalizedCrystal
_audit_creation_method	'MofGen! by Chris Wilmer'
_symmetry_space_group_name_H-M	'P1'
_symmetry_Int_Tables_number	1
_symmetry_cell_setting	triclinic
loop_
_symmetry_equiv_pos_as_xyz
  x,y,z
_cell_length_a	17.077404
_cell_length_b	11.169416
_cell_length_c	17.077396
_cell_angle_alpha	89.977334
_cell_angle_beta	89.980499
_cell_angle_gamma	90.010565
loop_
_atom_site_label
_atom_site_type_symbol
_atom_site_fract_x
_atom_site_fract_y
_atom_site_fract_z
Zn1	Zn	1.200123	-0.477800	-0.443874
Zn2	Zn	1.200059	-0.678512	-0.312622
Zn3	Zn	1.068855	-0.477842	-0.312622
Zn4	Zn	1.068852	-0.678440	-0.443845
O5	O	1.134472	-0.578149	-0.378241
O6	O	1.309961	-0.504437	-0.426475
O7	O	1.182629	-0.651940	-0.202775
O8	O	1.086296	-0.309887	-0.330046
O9	O	1.309914	-0.651899	-0.330045
O10	O	1.182738	-0.309856	-0.426476
O11	O	1.086234	-0.504509	-0.202775
O12	O	0.959008	-0.504440	-0.330017
O13	O	1.086291	-0.651778	-0.553696
O14	O	0.959005	-0.651818	-0.426426
O15	O	1.182735	-0.504368	-0.553718
O16	O	1.182626	-0.846452	-0.330016
O17	O	1.086228	-0.846400	-0.426426
C18	C	0.930524	-0.578127	-0.378219
C19	C	0.843274	-0.578146	-0.378229
C20	C	1.134441	-0.889973	-0.378235
C21	C	1.134500	-1.023373	-0.378259
C22	C	0.802304	-0.655002	-0.428348
C23	C	0.720323	-0.655005	-0.428361
C24	C	0.679315	-0.578157	-0.378249
C25	C	0.720292	-0.501292	-0.328127
C26	C	0.802271	-0.501285	-0.328119
C27	C	0.549422	-0.501316	-0.328146
C28	C	0.467437	-0.501325	-0.328153
C29	C	0.467474	-0.655036	-0.428388
C30	C	0.549453	-0.655029	-0.428380
C31	C	0.590424	-0.578165	-0.378257
C32	C	1.339216	-0.578171	-0.378263
C33	C	1.426466	-0.578181	-0.378273
C34	C	1.134520	-0.578060	-0.582985
C35	C	1.134540	-0.578022	-0.670235
C36	C	1.134525	-0.265106	-0.378264
C37	C	1.134547	-0.131706	-0.378274
C38	C	1.184760	-0.501260	-0.711238
C39	C	1.184770	-0.501220	-0.793218
C40	C	1.134562	-0.577949	-0.834195
C41	C	1.084336	-0.654715	-0.793186
C42	C	1.084323	-0.654748	-0.711207
C43	C	1.084368	-0.654643	-0.964057
C44	C	1.084381	-0.654612	-1.046041
C45	C	1.184814	-0.501115	-1.046067
C46	C	1.184801	-0.501148	-0.964088
C47	C	1.134576	-0.577916	-0.923086
C48	C	1.134470	-0.578150	-0.174293
C49	C	1.134602	-0.577850	-0.087044
H50	H	0.686968	-0.717590	-0.469173
O51	O	0.427673	-0.426727	-0.279383
C52	C	0.402449	-0.368210	-0.145940
C53	C	0.447552	-0.452749	-0.201076
H54	H	0.418491	-0.389236	-0.082617
H55	H	0.418586	-0.271440	-0.159777
H56	H	0.336827	-0.381423	-0.154613
H57	H	0.513184	-0.439643	-0.192434
H58	H	0.431349	-0.549488	-0.187226
O59	O	0.589311	-0.426823	-0.279417
C60	C	0.681789	-0.410487	-0.173415
C61	C	0.636676	-0.494973	-0.228564
H62	H	0.720082	-0.465553	-0.132275
H63	H	0.720245	-0.347817	-0.209473
H64	H	0.638387	-0.355537	-0.137631
H65	H	0.680021	-0.550001	-0.264360
H66	H	0.598208	-0.557564	-0.192461
H67	H	1.225648	-0.438781	-0.677881
H68	H	0.434112	-0.717618	-0.469202
H69	H	0.686896	-0.438716	-0.287329
O70	O	0.842257	-0.729615	-0.476954
C71	C	0.968562	-0.797673	-0.521405
C72	C	0.923416	-0.713136	-0.466302
H73	H	1.034187	-0.784362	-0.512823
H74	H	0.952488	-0.894450	-0.507517
H75	H	0.952424	-0.776730	-0.584716
H76	H	0.939530	-0.733971	-0.402973
H77	H	0.939494	-0.616384	-0.480257
H78	H	0.582840	-0.717612	-0.469181
H79	H	1.043496	-0.717090	-1.079402
H80	H	0.835628	-0.438694	-0.287311
H81	H	1.225666	-0.438715	-0.826599
H82	H	1.043453	-0.717186	-0.826556
H83	H	1.225689	-0.438674	-0.930728
H84	H	1.043457	-0.717137	-0.930675
H85	H	1.225708	-0.438605	-1.079456
H86	H	1.043421	-0.717244	-0.677824
