data_functionalizedCrystal
_audit_creation_method	'MofGen! by Chris Wilmer'
_symmetry_space_group_name_H-M	'P1'
_symmetry_Int_Tables_number	1
_symmetry_cell_setting	triclinic
loop_
_symmetry_equiv_pos_as_xyz
  x,y,z
_cell_length_a	27.732048
_cell_length_b	27.731996
_cell_length_c	26.210047
_cell_angle_alpha	89.998501
_cell_angle_beta	89.996535
_cell_angle_gamma	82.632022
loop_
_atom_site_label
_atom_site_type_symbol
_atom_site_fract_x
_atom_site_fract_y
_atom_site_fract_z
O1	O	0.640920	0.057512	-0.042370
O2	O	0.500125	0.066257	-0.042386
O3	O	0.574909	-0.008514	-0.042366
O4	O	0.566137	0.132283	-0.042389
O5	O	0.574894	-0.008503	0.042492
O6	O	0.500111	0.066269	0.042472
O7	O	0.640906	0.057523	0.042488
Cu8	Cu	0.570507	0.061897	0.050228
Cu9	Cu	0.570524	0.061883	-0.050126
O10	O	0.566122	0.132295	0.042469
C11	C	0.482111	0.066079	0.000041
C12	C	0.428456	0.065527	0.000035
C13	C	0.089634	0.106232	0.000051
C14	C	-0.112026	0.104180	0.000056
O15	O	-0.143288	0.141402	0.000072
N16	N	-0.131141	0.059844	0.000062
C17	C	-0.099838	0.016017	0.000070
O18	O	-0.120724	-0.021740	0.000081
C19	C	0.101820	0.018069	0.000069
C20	C	0.120933	0.062408	0.000058
C21	C	0.108747	0.150567	0.000040
C22	C	0.159159	0.151079	0.000036
C23	C	0.190457	0.107256	0.000043
C24	C	0.171344	0.062920	0.000054
C25	C	0.133122	-0.025757	0.000081
C26	C	0.183539	-0.025240	0.000082
C27	C	0.202652	0.019099	0.000071
C28	C	0.253055	0.019609	0.000057
N29	N	0.272171	0.063946	0.000050
C30	C	0.240872	0.107769	0.000043
C31	C	-0.205712	0.014943	0.000070
C32	C	-0.256126	0.014430	0.000069
C33	C	-0.268310	0.102594	0.000056
C34	C	-0.217895	0.103106	0.000052
C35	C	-0.186597	0.059280	0.000064
C36	C	0.346741	0.108842	0.000034
C37	C	0.397158	0.109350	0.000028
C38	C	0.409337	0.021187	0.000045
C39	C	0.358925	0.020678	0.000048
C40	C	0.327627	0.064510	0.000045
O41	O	0.284346	-0.017592	0.000046
O42	O	0.261767	0.145521	0.000044
C43	C	0.039222	0.105719	0.000055
C44	C	0.020109	0.061384	0.000066
C45	C	0.051408	0.017560	0.000073
C46	C	-0.030305	0.060871	0.000065
C47	C	-0.061604	0.104694	0.000058
C48	C	-0.042489	0.149030	0.000052
C49	C	0.007923	0.149543	0.000048
C50	C	0.032292	-0.026776	0.000079
C51	C	-0.018120	-0.027285	0.000082
C52	C	-0.049419	0.016539	0.000075
C53	C	0.574721	-0.026516	0.000064
C54	C	0.574179	-0.080172	0.000069
C55	C	0.570772	-0.412895	-0.046212
C56	C	0.568711	-0.614553	-0.046221
O57	O	0.568430	-0.640629	-0.085561
N58	N	0.568447	-0.639764	0.000034
C59	C	0.568695	-0.614556	0.046296
O60	O	0.568418	-0.640626	0.085639
C61	C	0.570753	-0.412899	0.046304
C62	C	0.571021	-0.387691	0.000046
C63	C	0.571040	-0.387687	-0.092467
C64	C	0.571558	-0.337276	-0.092464
C65	C	0.571807	-0.312072	-0.046206
C66	C	0.571539	-0.337280	0.000048
C67	C	0.570997	-0.387692	0.092565
C68	C	0.571511	-0.337274	0.092563
C69	C	0.571779	-0.312066	0.046304
C70	C	0.572307	-0.261665	0.046309
N71	N	0.572571	-0.236454	0.000053
C72	C	0.572321	-0.261658	-0.046204
C73	C	0.567616	-0.720430	0.046288
C74	C	0.567102	-0.770844	0.046286
C75	C	0.567117	-0.770837	-0.046231
C76	C	0.567634	-0.720422	-0.046229
C77	C	0.567880	-0.695219	0.000032
C78	C	0.573409	-0.155791	-0.046195
C79	C	0.573929	-0.105376	-0.046188
C80	C	0.573912	-0.105387	0.046329
C81	C	0.573394	-0.155798	0.046322
C82	C	0.573141	-0.180999	0.000056
O83	O	0.572582	-0.235557	0.085628
O84	O	0.572587	-0.235578	-0.085542
C85	C	0.570254	-0.463306	-0.046215
C86	C	0.569986	-0.488513	0.000040
C87	C	0.570235	-0.463310	0.046298
C88	C	0.569472	-0.538928	0.000038
C89	C	0.569222	-0.564131	-0.046220
C90	C	0.569486	-0.538921	-0.092475
C91	C	0.570004	-0.488509	-0.092472
C92	C	0.569971	-0.488521	0.092554
C93	C	0.569454	-0.538932	0.092547
C94	C	0.569204	-0.564135	0.046289
C95	C	0.658920	0.057701	0.000060
C96	C	0.712575	0.058254	0.000062
C97	C	0.566310	0.150296	0.000037
C98	C	0.566853	0.203952	0.000028
N99	N	0.570499	0.061906	0.120812
N100	N	0.570536	0.061870	-0.120710
C101	C	0.603635	0.028782	0.473335
C102	C	0.603646	0.028775	0.686994
O103	O	0.631801	0.000614	0.714623
N104	N	0.570527	0.061873	0.713706
C105	C	0.537401	0.094972	0.687001
O106	O	0.509228	0.123120	0.714624
C107	C	0.537388	0.094976	0.473343
C108	C	0.570512	0.061880	0.446633
C109	C	0.636756	-0.004312	0.446625
C110	C	0.636755	-0.004308	0.393214
C111	C	0.603632	0.028790	0.366512
C112	C	0.570511	0.061884	0.393222
C113	C	0.504260	0.128073	0.446639
C114	C	0.504259	0.128070	0.393221
C115	C	0.537384	0.094974	0.366511
C116	C	0.537388	0.094985	0.313109
N117	N	0.570506	0.061888	0.286396
C118	C	0.603629	0.028790	0.313098
C119	C	0.537410	0.094968	0.799174
C120	C	0.537414	0.094968	0.852588
C121	C	0.603658	0.028770	0.852577
C122	C	0.603657	0.028773	0.799162
C123	C	0.570529	0.061871	0.772462
C124	C	0.603624	0.028801	0.200930
C125	C	0.603621	0.028809	0.147514
C126	C	0.537375	0.095004	0.147529
C127	C	0.537380	0.094998	0.200941
C128	C	0.570506	0.061892	0.227640
O129	O	0.509244	0.123128	0.285447
O130	O	0.631790	0.000639	0.285466
C131	C	0.603636	0.028778	0.526746
C132	C	0.570515	0.061872	0.553456
C133	C	0.537393	0.094970	0.526755
C134	C	0.570519	0.061872	0.606870
C135	C	0.603641	0.028774	0.633572
C136	C	0.636760	-0.004323	0.606860
C137	C	0.636758	-0.004320	0.553448
C138	C	0.504274	0.128068	0.553467
C139	C	0.504278	0.128061	0.606879
C140	C	0.537401	0.094964	0.633580
H141	H	-0.180232	-0.020747	0.000079
Br142	Br	0.304273	0.168327	0.000030
Br143	Br	0.681715	-0.049238	0.517207
H144	H	0.117570	-0.061863	0.000091
H145	H	0.567818	-0.699914	0.083961
H146	H	0.510412	0.121953	0.222688
Br147	Br	0.570631	-0.421889	0.155349
H148	H	0.569239	-0.559452	0.130219
Br149	Br	0.648612	-0.016145	0.762919
H150	H	0.566891	-0.791365	0.083954
Br151	Br	0.571843	-0.303072	0.155350
H152	H	0.570176	-0.468005	0.130223
H153	H	0.510446	0.121923	0.874332
Br154	Br	0.573041	-0.190011	0.109102
Br155	Br	0.648610	-0.016148	0.888826
Br156	Br	0.226013	-0.084723	0.000100
Br157	Br	0.492426	0.139923	0.111283
Br158	Br	0.681714	-0.049239	0.643108
H159	H	0.477305	0.155017	0.628622
H160	H	0.477301	0.155019	0.531731
Br161	Br	0.185089	0.211257	0.000022
H162	H	0.412716	0.145458	0.000019
Br163	Br	0.570701	-0.421882	-0.155254
H164	H	0.663728	-0.031267	0.468361
Br165	Br	0.648581	-0.016130	0.237156
Br166	Br	0.459304	0.172991	0.482877
H167	H	0.510433	0.121921	0.777438
H168	H	0.343363	-0.015426	0.000050
H169	H	0.574117	-0.084857	0.083990
H170	H	0.570223	-0.467990	-0.130141
H171	H	0.569285	-0.559450	-0.130140
Br172	Br	0.459296	0.172989	0.356988
Br173	Br	0.648580	-0.016109	0.111267
H174	H	0.083267	0.186255	0.000036
Br175	Br	0.451823	-0.038285	0.000055
H176	H	-0.202337	0.139211	0.000046
Br177	Br	0.574297	-0.071169	-0.108972
Br178	Br	0.681708	-0.049229	0.356971
Br179	Br	-0.282058	-0.045747	0.000070
Br180	Br	-0.310797	0.162068	0.000047
Br181	Br	0.033853	0.209720	0.000031
H182	H	-0.067981	0.184713	0.000044
H183	H	0.057772	-0.062463	0.000086
Br184	Br	-0.044051	-0.087465	0.000089
H185	H	0.573201	-0.176303	-0.083869
H186	H	0.571775	-0.316756	-0.130133
H187	H	0.567852	-0.699901	-0.083897
H188	H	0.566914	-0.791366	-0.083896
