data_functionalizedCrystal
_audit_creation_method	'MofGen! by Chris Wilmer'
_symmetry_space_group_name_H-M	'P1'
_symmetry_Int_Tables_number	1
_symmetry_cell_setting	triclinic
loop_
_symmetry_equiv_pos_as_xyz
  x,y,z
_cell_length_a	13.032831
_cell_length_b	25.639234
_cell_length_c	13.032721
_cell_angle_alpha	82.837497
_cell_angle_beta	89.097115
_cell_angle_gamma	82.818946
loop_
_atom_site_label
_atom_site_type_symbol
_atom_site_fract_x
_atom_site_fract_y
_atom_site_fract_z
Zn1	Zn	1.520107	-0.430765	0.609537
Zn2	Zn	1.498173	-0.352866	0.781486
Zn3	Zn	1.348156	-0.331048	0.587668
Zn4	Zn	1.326256	-0.427974	0.759583
O5	O	1.423173	-0.385663	0.684569
O6	O	1.661107	-0.430731	0.650666
O7	O	1.478259	-0.276807	0.755790
O8	O	1.389310	-0.336312	0.446660
O9	O	1.644993	-0.373499	0.776996
O10	O	1.515642	-0.409575	0.462728
O11	O	1.368042	-0.260777	0.613392
O12	O	1.201341	-0.333606	0.592154
O13	O	1.351984	-0.501510	0.739665
O14	O	1.185251	-0.404817	0.718459
O15	O	1.494406	-0.503560	0.629427
O16	O	1.457023	-0.370792	0.922489
O17	O	1.330716	-0.425974	0.906397
C18	C	1.155982	-0.366541	0.650557
C19	C	1.041673	-0.358375	0.636032
C20	C	0.982764	-0.389926	0.692150
C21	C	0.864620	-0.381486	0.677138
C22	C	1.423199	-0.522036	0.684542
C23	C	1.423209	-0.580150	0.684531
C24	C	1.349136	-0.830268	0.741811
C25	C	1.349115	-0.775664	0.741832
O26	O	1.286023	-0.746511	0.790624
N27	N	1.423259	-0.749423	0.684453
C28	C	1.497423	-0.777788	0.627041
O29	O	1.560486	-0.750453	0.578236
C30	C	1.497439	-0.832390	0.627015
C31	C	1.423296	-0.858630	0.684406
C32	C	1.274998	-0.856507	0.799197
C33	C	1.275020	-0.911108	0.799178
C34	C	1.349180	-0.939470	0.741772
C35	C	1.423318	-0.913230	0.684387
C36	C	1.571597	-0.860754	0.569597
C37	C	1.571606	-0.915360	0.569576
C38	C	1.497463	-0.941599	0.626967
C39	C	1.497501	-0.996193	0.626962
N40	N	1.423356	-1.022434	0.684341
C41	C	1.349196	-0.994072	0.741746
C42	C	1.497384	-0.663118	0.627098
C43	C	1.497373	-0.608517	0.627130
C44	C	1.349063	-0.606397	0.741920
C45	C	1.349079	-0.660999	0.741894
C46	C	1.423239	-0.689359	0.684478
C47	C	1.349249	-1.108738	0.741702
C48	C	1.349281	-1.163344	0.741680
C49	C	1.497587	-1.165459	0.626886
C50	C	1.497559	-1.110858	0.626911
C51	C	1.423382	-1.082499	0.684321
O52	O	1.560558	-1.025379	0.578191
O53	O	1.286135	-1.021412	0.790532
C54	C	1.691407	-0.404860	0.718713
C55	C	1.805713	-0.413041	0.733264
C56	C	1.389141	-0.400461	0.951761
C57	C	1.374676	-0.406816	1.066078
C58	C	1.423216	-0.249821	0.684528
C59	C	1.423441	-0.191705	0.684275
C60	C	1.457366	-0.370821	0.416337
C61	C	1.471937	-0.364496	0.302032
C62	C	1.430777	-0.382374	1.124979
C63	C	1.415828	-0.388941	1.243133
H64	H	1.019796	-0.423187	0.751304
Cl65	Cl	1.522028	-0.342562	1.067795
Cl66	Cl	1.324585	-0.428762	1.300315
H67	H	1.531042	-0.338709	1.264993
H68	H	1.004642	-0.325116	0.576870
Cl69	Cl	1.664809	-0.827780	0.497440
Cl70	Cl	1.255998	-1.073094	0.813878
Cl71	Cl	0.807460	-0.330133	0.585790
H72	H	1.214602	-0.833421	0.845942
H73	H	0.842739	-0.446307	0.792420
Cl74	Cl	1.255865	-0.693980	0.814042
H75	H	1.288904	-1.184706	0.788419
H76	H	1.315584	-0.432606	1.103124
H77	H	1.214643	-0.932467	0.845909
H78	H	1.557758	-0.587159	0.580408
Cl79	Cl	1.255833	-0.570732	0.814088
Cl80	Cl	1.664833	-0.951008	0.497379
Cl81	Cl	1.590636	-0.698767	0.554927
H82	H	1.557939	-1.089494	0.580187
H83	H	1.557969	-1.188561	0.580152
