data_functionalizedCrystal
_audit_creation_method	'MofGen! by Chris Wilmer'
_symmetry_space_group_name_H-M	'P1'
_symmetry_Int_Tables_number	1
_symmetry_cell_setting	triclinic
loop_
_symmetry_equiv_pos_as_xyz
  x,y,z
_cell_length_a	10.654550
_cell_length_b	23.532357
_cell_length_c	9.730223
_cell_angle_alpha	89.990081
_cell_angle_beta	89.999957
_cell_angle_gamma	83.656611
loop_
_atom_site_label
_atom_site_type_symbol
_atom_site_fract_x
_atom_site_fract_y
_atom_site_fract_z
O1	O	1.665273	0.079987	-0.114206
O2	O	1.299550	0.087607	-0.114233
O3	O	1.493473	0.000935	-0.114191
O4	O	1.471351	0.166658	-0.114249
O5	O	1.493461	0.000933	0.114389
O6	O	1.299538	0.087605	0.114347
O7	O	1.665261	0.079984	0.114374
Zn8	Zn	1.482398	0.083794	0.150652
Zn9	Zn	1.482414	0.083797	-0.150512
O10	O	1.471338	0.166656	0.114331
C11	C	1.252764	0.087046	0.000054
C12	C	1.113375	0.085372	0.000045
C13	C	1.032252	0.136403	0.000031
C14	C	0.901282	0.134827	0.000055
C15	C	0.932570	0.031184	0.000102
C16	C	1.063537	0.032761	0.000087
C17	C	1.492913	-0.020286	0.000104
C18	C	1.491250	-0.083516	0.000116
C19	C	1.480812	-0.475594	-0.124557
C20	C	1.479231	-0.535003	-0.124565
O21	O	1.478376	-0.565724	-0.230532
N22	N	1.478440	-0.564721	0.000032
C23	C	1.479218	-0.535025	0.124645
O24	O	1.478398	-0.565757	0.230624
C25	C	1.480790	-0.475616	0.124652
C26	C	1.481594	-0.445902	0.000046
C27	C	1.481614	-0.445880	-0.249153
C28	C	1.483198	-0.386474	-0.249144
C29	C	1.483980	-0.356783	-0.124540
C30	C	1.483177	-0.386497	0.000055
C31	C	1.481559	-0.445921	0.249263
C32	C	1.483130	-0.386507	0.249259
C33	C	1.483934	-0.356793	0.124654
C34	C	1.485543	-0.297399	0.124667
N35	N	1.486334	-0.267682	0.000070
C36	C	1.485552	-0.297373	-0.124534
C37	C	1.475913	-0.659788	0.124622
C38	C	1.474350	-0.719197	0.124617
C39	C	1.474361	-0.719171	-0.124594
C40	C	1.475933	-0.659762	-0.124588
C41	C	1.476704	-0.630071	0.000025
C42	C	1.488879	-0.172618	-0.124507
C43	C	1.490468	-0.113207	-0.124487
C44	C	1.490451	-0.113238	0.124723
C45	C	1.488868	-0.172644	0.124704
C46	C	1.488078	-0.202332	0.000078
O47	O	1.486393	-0.266641	0.230579
O48	O	1.486355	-0.266633	-0.230495
C49	C	1.712047	0.080545	0.000084
C50	C	1.851437	0.082219	0.000084
C51	C	1.471898	0.187877	0.000034
C52	C	1.473562	0.251107	0.000012
N53	N	1.482396	0.083792	0.356189
N54	N	1.482426	0.083795	-0.356048
C55	C	1.568293	0.045430	0.428133
C56	C	1.568306	0.045430	0.572016
C57	C	1.396519	0.122159	0.571997
C58	C	1.396502	0.122156	0.428117
H59	H	0.835236	0.176382	0.000047
O60	O	1.473468	-0.751195	-0.259000
H61	H	1.559365	-0.744540	-0.318769
O62	O	1.484031	-0.354431	-0.383546
H63	H	1.569320	-0.370575	-0.443305
O64	O	1.476779	-0.627766	0.259033
H65	H	1.475980	-0.658417	0.345661
O66	O	1.086013	0.193145	0.000013
H67	H	1.007594	0.228365	0.000026
O68	O	1.473512	-0.751241	0.259017
H69	H	1.472295	-0.797542	0.238095
H70	H	1.491125	-0.089017	-0.225960
O71	O	1.480741	-0.477898	-0.383557
H72	H	1.481558	-0.447246	-0.470180
H73	H	1.129591	-0.008797	0.000103
H74	H	1.326588	0.153395	0.630575
O75	O	1.476778	-0.627712	-0.258980
H76	H	1.475961	-0.658345	-0.345618
H77	H	1.480906	-0.470103	0.350731
H78	H	0.891976	-0.011650	0.000145
H79	H	1.488230	-0.196782	-0.225989
H80	H	1.483739	-0.362335	0.350736
H81	H	1.488225	-0.196838	0.226168
H82	H	1.491093	-0.089053	0.226172
H83	H	1.638232	0.014190	0.369573
H84	H	1.638250	0.014191	0.630590
H85	H	1.326547	0.153395	0.369535
