data_functionalizedCrystal
_audit_creation_method	'MofGen! by Chris Wilmer'
_symmetry_space_group_name_H-M	'P1'
_symmetry_Int_Tables_number	1
_symmetry_cell_setting	triclinic
loop_
_symmetry_equiv_pos_as_xyz
  x,y,z
_cell_length_a	19.805407
_cell_length_b	19.805399
_cell_length_c	18.215405
_cell_angle_alpha	89.973768
_cell_angle_beta	90.021978
_cell_angle_gamma	89.975799
loop_
_atom_site_label
_atom_site_type_symbol
_atom_site_fract_x
_atom_site_fract_y
_atom_site_fract_z
Zn1	Zn	1.034753	-0.382810	-0.293016
Zn2	Zn	1.534753	0.117190	0.206984
Zn3	Zn	1.034675	-0.269624	-0.416085
Zn4	Zn	1.534675	0.230376	0.083915
Zn5	Zn	0.921568	-0.269625	-0.293035
Zn6	Zn	1.421568	0.230375	0.206965
Zn7	Zn	0.921538	-0.382762	-0.416044
Zn8	Zn	1.421538	0.117238	0.083956
O9	O	0.978134	-0.326205	-0.354545
O10	O	1.478134	0.173795	0.145455
O11	O	1.129459	-0.367815	-0.309351
O12	O	1.629459	0.132185	0.190649
O13	O	1.019651	-0.174907	-0.399787
O14	O	1.519651	0.325093	0.100213
O15	O	0.936627	-0.284660	-0.190048
O16	O	1.436627	0.215340	0.309952
O17	O	1.129402	-0.284658	-0.399768
O18	O	1.629402	0.215342	0.100232
O19	O	1.019784	-0.367816	-0.190034
O20	O	1.519784	0.132184	0.309966
O21	O	0.936551	-0.174908	-0.309382
O22	O	1.436551	0.325092	0.190618
O23	O	0.826847	-0.284613	-0.309343
O24	O	1.326847	0.215387	0.190657
O25	O	0.936577	-0.477485	-0.399699
O26	O	1.436577	0.022515	0.100301
O27	O	0.826826	-0.367734	-0.399717
O28	O	1.326826	0.132266	0.100283
O29	O	1.019755	-0.477520	-0.309311
O30	O	1.519755	0.022480	0.190689
O31	O	1.019622	-0.284611	-0.519063
O32	O	1.519622	0.215389	-0.019063
O33	O	0.936501	-0.367733	-0.519033
O34	O	1.436501	0.132267	-0.019033
C35	C	0.802278	-0.326169	-0.354528
C36	C	1.302278	0.173831	0.145472
C37	C	0.727046	-0.326170	-0.354539
C38	C	1.227046	0.173830	0.145461
C39	C	0.265261	-0.369461	-0.401691
C40	C	0.765261	0.130539	0.098309
C41	C	0.335950	-0.369447	-0.401690
C42	C	0.835950	0.130553	0.098310
C43	C	0.371284	-0.326232	-0.354563
C44	C	0.871284	0.173768	0.145437
C45	C	0.335926	-0.283022	-0.307439
C46	C	0.835926	0.216978	0.192561
C47	C	0.265239	-0.283034	-0.307444
C48	C	0.765239	0.216966	0.192556
C49	C	0.620999	-0.282975	-0.307416
C50	C	1.120999	0.217025	0.192584
C51	C	0.691691	-0.282968	-0.307413
C52	C	1.191691	0.217032	0.192587
C53	C	0.691710	-0.369388	-0.401662
C54	C	1.191710	0.130612	0.098338
C55	C	0.621023	-0.369400	-0.401667
C56	C	1.121023	0.130600	0.098333
C57	C	0.585671	-0.326188	-0.354547
C58	C	1.085671	0.173812	0.145453
C59	C	0.509023	-0.326203	-0.354549
C60	C	1.009023	0.173797	0.145451
C61	C	0.447931	-0.326219	-0.354555
C62	C	0.947931	0.173781	0.145445
C63	C	0.978172	-0.502748	-0.354498
C64	C	1.478172	-0.002748	0.145502
C65	C	0.978188	-0.577980	-0.354479
C66	C	1.478188	-0.077980	0.145521
C67	C	1.021500	-0.613343	-0.307411
C68	C	1.521500	-0.113343	0.192589
C69	C	1.021507	-0.684032	-0.307390
C70	C	1.521507	-0.184032	0.192610
C71	C	0.978205	-0.719356	-0.354440
C72	C	1.478205	-0.219356	0.145560
C73	C	0.934888	-0.683987	-0.401510
C74	C	1.434888	-0.183987	0.098490
C75	C	0.934878	-0.613300	-0.401527
C76	C	1.434878	-0.113300	0.098473
C77	C	0.934926	-0.969060	-0.401441
C78	C	1.434926	-0.469060	0.098559
C79	C	0.934941	-1.039753	-0.401422
C80	C	1.434941	-0.539753	0.098578
C81	C	1.021555	-1.039793	-0.307304
C82	C	1.521555	-0.539793	0.192696
C83	C	1.021545	-0.969105	-0.307321
C84	C	1.521545	-0.469105	0.192679
C85	C	0.978226	-0.933743	-0.354388
C86	C	1.478226	-0.433743	0.145612
C87	C	0.978218	-0.857095	-0.354409
C88	C	1.478218	-0.357095	0.145591
C89	C	0.978215	-0.796003	-0.354423
C90	C	1.478215	-0.296003	0.145577
C91	C	1.154676	-0.326242	-0.354562
C92	C	1.654676	0.173758	0.145438
C93	C	1.229908	-0.326257	-0.354569
C94	C	1.729908	0.173743	0.145431
C95	C	0.978069	-0.326182	-0.545751
C96	C	1.478069	0.173818	-0.045751
C97	C	0.978103	-0.326194	-0.627550
C98	C	1.478103	0.173806	-0.127550
C99	C	0.978135	-0.150349	-0.354538
C100	C	1.478135	0.349651	0.145462
C101	C	0.978250	-0.075117	-0.354350
C102	C	1.478250	0.424883	0.145650
C103	C	1.021423	-0.369552	-0.815676
C104	C	1.521423	0.130448	-0.315676
C105	C	1.021448	-0.369565	-0.892534
C106	C	1.521448	0.130435	-0.392534
C107	C	0.934928	-0.282900	-0.892662
C108	C	1.434928	0.217100	-0.392662
C109	C	0.934900	-0.282891	-0.815804
C110	C	1.434900	0.217109	-0.315804
C111	C	0.978152	-0.326216	-0.777313
C112	C	1.478152	0.173784	-0.277313
C113	C	0.978204	-0.326238	-0.931029
C114	C	1.478204	0.173762	-0.431029
C115	C	0.978230	-0.326251	-1.014363
C116	C	1.478230	0.173749	-0.514363
C117	C	0.978125	-0.326204	-0.693974
C118	C	1.478125	0.173796	-0.193974
C119	C	0.978217	-0.326243	-0.162592
C120	C	1.478217	0.173757	0.337408
C121	C	0.978253	-0.326260	-0.080793
C122	C	1.478253	0.173740	0.419207
H123	H	0.364731	-0.404627	-0.440063
H124	H	0.864731	0.095373	0.059937
C125	C	0.887901	-0.235832	-0.934321
C126	C	1.387901	0.264168	-0.434321
C127	C	0.849987	-0.197891	-0.884272
C128	C	1.349987	0.302109	-0.384272
C129	C	0.806653	-0.154530	-0.922620
C130	C	1.306653	0.345470	-0.422620
H131	H	0.913748	-0.206311	-0.964302
H132	H	1.413748	0.293689	-0.464302
H133	H	0.858368	-0.261680	-0.964297
H134	H	1.358368	0.238320	-0.464297
H135	H	0.879516	-0.172045	-0.854309
H136	H	1.379516	0.327955	-0.354309
H137	H	0.824127	-0.227394	-0.854290
H138	H	1.324127	0.272606	-0.354290
H139	H	0.777120	-0.180378	-0.952595
H140	H	1.277120	0.319622	-0.452595
H141	H	0.832505	-0.125014	-0.952599
H142	H	1.332505	0.374986	-0.452599
H143	H	0.780918	-0.128786	-0.888667
H144	H	1.280918	0.371214	-0.388667
C145	C	0.227023	-0.416412	-0.452936
C146	C	0.727023	0.083588	0.047064
C147	C	0.273117	-0.454234	-0.494215
C148	C	0.773117	0.045766	0.005785
C149	C	0.237920	-0.497486	-0.541437
C150	C	0.737920	0.002514	-0.041437
H151	H	0.199473	-0.446013	-0.424908
H152	H	0.699473	0.053987	0.075092
H153	H	0.199437	-0.390491	-0.485008
H154	H	0.699437	0.109509	0.014992
H155	H	0.300693	-0.480153	-0.462147
H156	H	0.800693	0.019847	0.037853
H157	H	0.300669	-0.424650	-0.522258
H158	H	0.800669	0.075350	-0.022258
H159	H	0.210333	-0.471565	-0.573509
H160	H	0.710333	0.028435	-0.073509
H161	H	0.210371	-0.527083	-0.513403
H162	H	0.710371	-0.027083	-0.013403
H163	H	0.269189	-0.523149	-0.569455
H164	H	0.769189	-0.023149	-0.069455
C165	C	0.582783	-0.416344	-0.452916
C166	C	1.082783	0.083656	0.047084
C167	C	0.628874	-0.454166	-0.494199
C168	C	1.128874	0.045834	0.005801
C169	C	0.593673	-0.497410	-0.541427
C170	C	1.093673	0.002590	-0.041427
H171	H	0.555229	-0.445946	-0.424892
H172	H	1.055229	0.054054	0.075108
H173	H	0.555199	-0.390417	-0.484985
H174	H	1.055199	0.109583	0.015015
H175	H	0.656446	-0.480091	-0.462134
H176	H	1.156446	0.019909	0.037866
H177	H	0.656429	-0.424582	-0.522238
H178	H	1.156429	0.075418	-0.022238
H179	H	0.566089	-0.471483	-0.573496
H180	H	1.066089	0.028517	-0.073496
H181	H	0.566121	-0.527007	-0.513397
H182	H	1.066121	-0.027007	-0.013397
H183	H	0.624940	-0.523073	-0.569448
H184	H	1.124940	-0.023073	-0.069448
C185	C	1.068403	-0.574910	-0.256281
C186	C	1.568403	-0.074910	0.243719
C187	C	1.030093	-0.534317	-0.209130
C188	C	1.530093	-0.034317	0.290870
C189	C	1.073276	-0.498899	-0.162021
C190	C	1.573276	0.001101	0.337979
H191	H	1.094212	-0.606022	-0.228175
H192	H	1.594212	-0.106022	0.271825
H193	H	1.097870	-0.547298	-0.284418
H194	H	1.597870	-0.047298	0.215582
H195	H	1.000638	-0.561927	-0.180996
H196	H	1.500638	-0.061927	0.319004
H197	H	1.004285	-0.503193	-0.237216
H198	H	1.504285	-0.003193	0.262784
H199	H	1.102743	-0.471286	-0.190159
H200	H	1.602743	0.028714	0.309841
H201	H	1.099083	-0.530015	-0.133921
H202	H	1.599083	-0.030015	0.366079
H203	H	1.047289	-0.471348	-0.130029
H204	H	1.547289	0.028652	0.369971
H205	H	1.056825	-1.068593	-0.268978
H206	H	1.556825	-0.568593	0.231022
C207	C	0.887985	-0.722373	-0.452684
C208	C	1.387985	-0.222373	0.047316
C209	C	0.926295	-0.762940	-0.499861
C210	C	1.426295	-0.262940	0.000139
C211	C	0.883113	-0.798302	-0.547021
C212	C	1.383113	-0.298302	-0.047021
H213	H	0.858498	-0.750002	-0.424608
H214	H	1.358498	-0.250002	0.075392
H215	H	0.862199	-0.691207	-0.480761
H216	H	1.362199	-0.191207	0.019239
H217	H	0.952070	-0.794102	-0.471787
H218	H	1.452070	-0.294102	0.028213
H219	H	0.955781	-0.735328	-0.527953
H220	H	1.455781	-0.235328	-0.027953
H221	H	0.857327	-0.767137	-0.575098
H222	H	1.357327	-0.267137	-0.075098
H223	H	0.853628	-0.825928	-0.518939
H224	H	1.353628	-0.325928	-0.018939
H225	H	0.909100	-0.825827	-0.579041
H226	H	1.409100	-0.325827	-0.079041
H227	H	1.056808	-0.940348	-0.269011
H228	H	1.556808	-0.440348	0.230989
C229	C	0.730215	-0.416226	-0.452801
C230	C	1.230215	0.083774	0.047199
C231	C	0.799683	-0.406956	-0.442730
C232	C	1.299683	0.093044	0.057270
C233	C	0.835172	-0.450085	-0.489829
C234	C	1.335172	0.049915	0.010171
H235	H	0.718742	-0.461750	-0.442140
H236	H	1.218742	0.038250	0.057860
H237	H	0.718647	-0.406237	-0.502251
H238	H	1.218647	0.093763	-0.002251
H239	H	0.811246	-0.416950	-0.393291
H240	H	1.311246	0.083050	0.106709
H241	H	0.811176	-0.361442	-0.453396
H242	H	1.311176	0.138558	0.046604
H243	H	0.823604	-0.440097	-0.539279
H244	H	1.323604	0.059903	-0.039279
H245	H	0.823694	-0.495606	-0.479164
H246	H	1.323694	0.004394	0.020836
H247	H	0.882310	-0.443797	-0.483007
H248	H	1.382310	0.056203	0.016993
C249	C	0.729934	-0.235966	-0.256221
C250	C	1.229934	0.264034	0.243779
C251	C	0.683846	-0.198110	-0.214971
C252	C	1.183846	0.301890	0.285029
C253	C	0.719050	-0.154801	-0.167816
C254	C	1.219050	0.345199	0.332184
H255	H	0.757536	-0.261827	-0.224122
H256	H	1.257536	0.238173	0.275878
H257	H	0.757470	-0.206394	-0.284319
H258	H	1.257470	0.293606	0.215681
H259	H	0.656322	-0.227679	-0.186874
H260	H	1.156322	0.272321	0.313126
H261	H	0.656243	-0.172236	-0.247050
H262	H	1.156243	0.327764	0.252950
H263	H	0.746586	-0.125229	-0.195914
H264	H	1.246586	0.374771	0.304086
H265	H	0.746651	-0.180668	-0.135722
H266	H	1.246651	0.319332	0.364278
H267	H	0.687785	-0.129107	-0.139827
H268	H	1.187785	0.370893	0.360173
H269	H	0.364701	-0.247833	-0.269070
H270	H	0.864701	0.252167	0.230930
C271	C	1.068399	-0.416671	-0.774017
C272	C	1.568399	0.083329	-0.274017
C273	C	1.106284	-0.454640	-0.824068
C274	C	1.606284	0.045360	-0.324068
C275	C	1.149557	-0.498063	-0.785722
C276	C	1.649557	0.001937	-0.285722
H277	H	1.097958	-0.390888	-0.744022
H278	H	1.597958	0.109112	-0.244022
H279	H	1.042489	-0.446167	-0.744056
H280	H	1.542489	0.053833	-0.244056
H281	H	1.132192	-0.425149	-0.854017
H282	H	1.632192	0.074851	-0.354017
H283	H	1.076743	-0.480438	-0.854064
H284	H	1.576743	0.019562	-0.354064
H285	H	1.123647	-0.527559	-0.755760
H286	H	1.623647	-0.027559	-0.255760
H287	H	1.179112	-0.472274	-0.755728
H288	H	1.679112	0.027726	-0.255728
H289	H	1.175263	-0.523835	-0.819675
H290	H	1.675263	-0.023835	-0.319675
H291	H	0.236455	-0.247854	-0.269071
H292	H	0.736455	0.252146	0.230929
C293	C	0.582610	-0.235943	-0.256398
C294	C	1.082610	0.264057	0.243602
C295	C	0.542031	-0.192485	-0.298038
C296	C	1.042031	0.307515	0.201962
C297	C	0.506671	-0.149126	-0.251073
C298	C	1.006671	0.350874	0.248927
H299	H	0.554988	-0.261773	-0.224335
H300	H	1.054988	0.238227	0.275665
H301	H	0.613776	-0.210169	-0.228364
H302	H	1.113776	0.289831	0.271636
H303	H	0.510869	-0.218256	-0.326060
H304	H	1.010869	0.281744	0.173940
H305	H	0.569636	-0.166641	-0.330099
H306	H	1.069636	0.333359	0.169901
H307	H	0.537837	-0.123352	-0.223039
H308	H	1.037837	0.376648	0.276961
H309	H	0.479053	-0.174961	-0.219012
H310	H	0.979053	0.325039	0.280988
H311	H	0.479139	-0.119631	-0.279319
H312	H	0.979139	0.380369	0.220681
C313	C	1.068318	-0.416699	-0.934224
C314	C	1.568318	0.083301	-0.434224
C315	C	1.029982	-0.460061	-0.978335
C316	C	1.529982	0.039939	-0.478335
C317	C	1.073136	-0.503498	-1.016742
C318	C	1.573136	-0.003498	-0.516742
H319	H	1.097848	-0.390921	-0.964260
H320	H	1.597848	0.109079	-0.464260
H321	H	1.094059	-0.442538	-0.900313
H322	H	1.594059	0.057462	-0.400313
H323	H	1.004252	-0.434224	-1.012241
H324	H	1.504252	0.065776	-0.512241
H325	H	1.000453	-0.485853	-0.948317
H326	H	1.500453	0.014147	-0.448317
H327	H	1.098877	-0.529338	-0.982831
H328	H	1.598877	-0.029338	-0.482831
H329	H	1.102664	-0.477714	-1.046773
H330	H	1.602664	0.022286	-0.546773
H331	H	1.047131	-0.532928	-1.046670
H332	H	1.547131	-0.032928	-0.546670
H333	H	0.899660	-0.247601	-0.784568
H334	H	1.399660	0.252399	-0.284568
H335	H	0.899663	-0.940277	-0.439776
H336	H	1.399663	-0.440277	0.060224
C337	C	0.887947	-0.574933	-0.452759
C338	C	1.387947	-0.074933	0.047241
C339	C	0.902674	-0.592102	-0.525569
C340	C	1.402674	-0.092102	-0.025569
C341	C	0.859461	-0.556764	-0.572785
C342	C	1.359461	-0.056764	-0.072785
H343	H	0.842449	-0.586473	-0.442085
H344	H	1.342449	-0.086473	0.057915
H345	H	0.894152	-0.527770	-0.446077
H346	H	1.394152	-0.027770	0.053923
H347	H	0.896462	-0.639255	-0.532247
H348	H	1.396462	-0.139255	-0.032247
H349	H	0.948164	-0.580561	-0.536265
H350	H	1.448164	-0.080561	-0.036265
H351	H	0.865666	-0.509601	-0.566104
H352	H	1.365666	-0.009601	-0.066104
H353	H	0.813965	-0.568307	-0.562106
H354	H	1.313965	-0.068307	-0.062106
H355	H	0.869451	-0.568404	-0.622193
H356	H	1.369451	-0.068404	-0.122193
C357	C	1.068496	-0.722334	-0.256166
C358	C	1.568496	-0.222334	0.243834
C359	C	1.053800	-0.705129	-0.183358
C360	C	1.553800	-0.205129	0.316642
C361	C	1.097080	-0.740390	-0.136147
C362	C	1.597080	-0.240390	0.363853
H363	H	1.062347	-0.769504	-0.262785
H364	H	1.562347	-0.269504	0.237215
H365	H	1.113977	-0.710744	-0.266904
H366	H	1.613977	-0.210744	0.233096
H367	H	1.008330	-0.716724	-0.172624
H368	H	1.508330	-0.216724	0.327376
H369	H	1.059953	-0.657966	-0.176716
H370	H	1.559953	-0.157966	0.323284
H371	H	1.142561	-0.728799	-0.146885
H372	H	1.642561	-0.228799	0.353115
H373	H	1.090927	-0.787557	-0.142772
H374	H	1.590927	-0.287557	0.357228
H375	H	1.087119	-0.728716	-0.086742
H376	H	1.587119	-0.228716	0.413258
C377	C	0.887846	-1.077984	-0.452532
C378	C	1.387846	-0.577984	0.047468
C379	C	0.849893	-1.031886	-0.493740
C380	C	1.349893	-0.531886	0.006260
C381	C	0.806500	-1.067080	-0.540821
C382	C	1.306500	-0.567080	-0.040821
H383	H	0.913651	-1.105561	-0.484661
H384	H	1.413651	-0.605561	0.015339
H385	H	0.858340	-1.105543	-0.424382
H386	H	1.358340	-0.605543	0.075618
H387	H	0.879395	-1.004338	-0.521888
H388	H	1.379395	-0.504338	-0.021888
H389	H	0.824074	-1.004308	-0.461631
H390	H	1.324074	-0.504308	0.038369
H391	H	0.776993	-1.094640	-0.512670
H392	H	1.276993	-0.594640	-0.012670
H393	H	0.832310	-1.094656	-0.572944
H394	H	1.332310	-0.594656	-0.072944
H395	H	0.780739	-1.035808	-0.568781
H396	H	1.280739	-0.535808	-0.068781
