data_functionalizedCrystal
_audit_creation_method	'MofGen! by Chris Wilmer'
_symmetry_space_group_name_H-M	'P1'
_symmetry_Int_Tables_number	1
_symmetry_cell_setting	triclinic
loop_
_symmetry_equiv_pos_as_xyz
  x,y,z
_cell_length_a	16.109301
_cell_length_b	17.038272
_cell_length_c	15.186229
_cell_angle_alpha	89.995962
_cell_angle_beta	89.999362
_cell_angle_gamma	87.286518
loop_
_atom_site_label
_atom_site_type_symbol
_atom_site_fract_x
_atom_site_fract_y
_atom_site_fract_z
O1	O	1.110268	0.100495	-0.073174
O2	O	0.869094	0.113001	-0.073188
O3	O	0.988247	-0.007067	-0.073174
O4	O	0.991114	0.220563	-0.073187
O5	O	0.988239	-0.007069	0.073284
O6	O	0.869085	0.113000	0.073270
O7	O	1.110259	0.100493	0.073284
Zn8	Zn	0.989671	0.106746	0.096530
Zn9	Zn	0.989682	0.106748	-0.096434
O10	O	0.991105	0.220562	0.073270
C11	C	0.838079	0.112494	0.000039
C12	C	0.745676	0.110975	0.000034
C13	C	0.985636	-0.036196	0.000055
C14	C	0.977857	-0.122989	0.000054
C15	C	0.528212	0.178690	0.000040
C16	C	0.441390	0.177257	0.000046
C17	C	0.451147	0.034799	0.000051
C18	C	0.537968	0.036233	0.000051
C19	C	0.576498	0.108181	0.000042
C20	C	0.402855	0.105314	0.000047
C21	C	0.308719	0.103759	0.000053
C22	C	0.670640	0.109736	0.000037
C23	C	1.049277	-0.173104	0.000059
C24	C	1.041963	-0.254654	0.000050
C25	C	0.963228	-0.286089	0.000043
C26	C	0.891802	-0.235967	0.000035
C27	C	0.899116	-0.154418	0.000038
C28	C	0.937385	-0.531846	0.000029
C29	C	0.930076	-0.613402	0.000029
C30	C	1.080238	-0.632083	0.000043
C31	C	1.087546	-0.550532	0.000051
C32	C	1.016120	-0.500418	0.000038
C33	C	0.955749	-0.369446	0.000037
C34	C	1.023599	-0.417062	0.000038
C35	C	1.141274	0.101001	0.000055
C36	C	1.233677	0.102519	0.000054
C37	C	0.993717	0.249691	0.000039
C38	C	1.001496	0.336484	0.000034
N39	N	0.989669	0.106744	0.228223
N40	N	0.989690	0.106744	-0.228126
C41	C	1.042451	0.053596	0.453952
C42	C	1.042453	0.053594	0.546141
C43	C	0.936902	0.159895	0.546138
C44	C	0.936896	0.159893	0.453950
C45	C	0.989675	0.106744	0.407859
C46	C	0.989684	0.106745	0.592237
C47	C	0.989686	0.106743	0.692193
C48	C	0.989672	0.106744	0.307897
H49	H	0.559580	0.237274	0.000039
N50	N	0.392055	0.249273	0.000040
N51	N	0.314538	0.247986	0.000047
H52	H	0.279694	0.298850	0.000046
H53	H	0.893932	0.203169	0.583674
H54	H	0.840958	-0.113615	0.000033
N55	N	0.411774	-0.038683	0.000061
N56	N	0.334256	-0.039955	0.000060
H57	H	0.306449	-0.091853	0.000065
N58	N	0.587284	-0.035801	0.000062
N59	N	0.552874	-0.100034	0.000066
H60	H	0.587703	-0.150907	0.000078
N61	N	1.129712	-0.141012	0.000079
N62	N	1.193473	-0.185770	0.000084
H63	H	1.250283	-0.163108	0.000097
N64	N	1.114927	-0.305834	0.000047
N65	N	1.185221	-0.277758	0.000055
H66	H	1.236756	-0.313903	0.000049
H67	H	0.891642	-0.395049	0.000032
H68	H	0.893916	0.203173	0.416419
N69	N	1.104016	-0.384942	0.000057
N70	N	1.124831	-0.341522	0.061797
H71	H	1.181626	-0.318829	0.061814
N72	N	1.167980	-0.518438	0.000059
N73	N	1.231743	-0.563193	0.000062
H74	H	1.288552	-0.540528	0.000070
N75	N	1.096361	-0.000691	0.593232
N76	N	1.149721	0.024121	0.644677
H77	H	1.187791	-0.014222	0.677939
H78	H	1.085425	0.010318	0.416427
N79	N	1.153193	-0.683273	0.000066
N80	N	1.165862	-0.730865	0.061804
H81	H	1.217391	-0.767019	0.061819
N82	N	0.849638	-0.645499	0.000038
N83	N	0.785872	-0.600747	0.000037
H84	H	0.729065	-0.623415	0.000051
N85	N	0.864419	-0.480675	0.000023
N86	N	0.794127	-0.508754	0.000023
H87	H	0.742590	-0.472611	0.000022
H88	H	0.827693	-0.261567	0.000023
