data_functionalizedCrystal
_audit_creation_method	'MofGen! by Chris Wilmer'
_symmetry_space_group_name_H-M	'P1'
_symmetry_Int_Tables_number	1
_symmetry_cell_setting	triclinic
loop_
_symmetry_equiv_pos_as_xyz
  x,y,z
_cell_length_a	13.033293
_cell_length_b	12.759393
_cell_length_c	13.031981
_cell_angle_alpha	82.782247
_cell_angle_beta	103.320033
_cell_angle_gamma	82.789783
loop_
_atom_site_label
_atom_site_type_symbol
_atom_site_fract_x
_atom_site_fract_y
_atom_site_fract_z
Zn1	Zn	1.570269	-0.767191	-0.216775
Zn2	Zn	1.547601	-0.565899	-0.394468
Zn3	Zn	1.392627	-0.565913	-0.239373
Zn4	Zn	1.370071	-0.715957	-0.416917
O5	O	1.470142	-0.653740	-0.316883
O6	O	1.715903	-0.761926	-0.221493
O7	O	1.526996	-0.418866	-0.373956
O8	O	1.435118	-0.614060	-0.087708
O9	O	1.699248	-0.614037	-0.352044
O10	O	1.565631	-0.761938	-0.071105
O11	O	1.413137	-0.418876	-0.260009
O12	O	1.240994	-0.564380	-0.281777
O13	O	1.396675	-0.869788	-0.390305
O14	O	1.224423	-0.674617	-0.412218
O15	O	1.543760	-0.907430	-0.243261
O16	O	1.505125	-0.564358	-0.546113
O17	O	1.374694	-0.674604	-0.562606
C18	C	1.194168	-0.613941	-0.351887
C19	C	1.076101	-0.596936	-0.366887
C20	C	1.031691	-0.662611	-0.309081
C21	C	0.909664	-0.645037	-0.324583
C22	C	1.470230	-0.927800	-0.316766
C23	C	1.470268	-1.044588	-0.316717
C24	C	1.546865	-1.119054	-0.240143
C25	C	1.546895	-1.228787	-0.240102
C26	C	1.393727	-1.189577	-0.393216
C27	C	1.393693	-1.079846	-0.393252
C28	C	1.623440	-1.083795	-0.163608
C29	C	1.700044	-1.158263	-0.087029
C30	C	1.700074	-1.267997	-0.086988
C31	C	1.623500	-1.303262	-0.163525
C32	C	1.747194	-0.693695	-0.281743
C33	C	1.865257	-0.710721	-0.266769
C34	C	1.435031	-0.613947	-0.592904
C35	C	1.420107	-0.596972	-0.710974
C36	C	1.470125	-0.380766	-0.316915
C37	C	1.470332	-0.264052	-0.316639
C38	C	1.477987	-0.662628	-0.755321
C39	C	1.462564	-0.645086	-0.877353
C40	C	1.505419	-0.693716	-0.039781
C41	C	1.520452	-0.710751	0.078304
H42	H	1.084011	-0.731845	-0.248111
Br43	Br	1.623527	-1.452188	-0.163450
H44	H	0.857348	-0.575793	-0.385551
Br45	Br	1.289814	-1.237438	-0.497083
H46	H	1.401584	-0.575888	-0.929727
H47	H	0.917572	-0.779960	-0.205793
Br48	Br	0.988911	-0.481523	-0.468497
Br49	Br	1.579599	-0.777980	-0.668035
H50	H	1.331306	-1.019213	-0.455591
H51	H	1.762442	-1.328626	-0.024627
H52	H	1.359131	-0.527779	-0.763352
H53	H	1.623426	-0.994447	-0.163635
H54	H	1.762381	-1.129542	-0.024710
Br55	Br	1.622082	-0.826099	-0.834415
