data_functionalizedCrystal
_audit_creation_method	'MofGen! by Chris Wilmer'
_symmetry_space_group_name_H-M	'P1'
_symmetry_Int_Tables_number	1
_symmetry_cell_setting	triclinic
loop_
_symmetry_equiv_pos_as_xyz
  x,y,z
_cell_length_a	31.640172
_cell_length_b	14.628931
_cell_length_c	14.628931
_cell_angle_alpha	60.000000
_cell_angle_beta	89.994754
_cell_angle_gamma	59.993668
loop_
_atom_site_label
_atom_site_type_symbol
_atom_site_fract_x
_atom_site_fract_y
_atom_site_fract_z
Zr1	Zr	0.407178	1.000488	-0.119997
O2	O	0.339689	1.191208	-0.265952
O3	O	0.427867	0.809778	-0.075254
O4	O	0.427867	1.000483	-0.265960
O5	O	0.339689	1.000503	0.075185
O6	O	0.497423	1.000467	-0.265966
O7	O	0.339689	1.000503	-0.075247
O8	O	0.497423	0.659331	0.075172
O9	O	0.339689	1.341640	-0.265953
O10	O	0.488599	0.888204	-0.056176
O11	O	0.436690	0.888216	0.056093
O12	O	0.436691	1.112747	-0.168438
O13	O	0.384782	1.112758	-0.056168
Zr14	Zr	0.518112	1.000464	0.119914
Zr15	Zr	0.518112	1.000463	-0.120007
Zr16	Zr	0.407178	1.000488	0.119924
Zr17	Zr	0.407178	1.240409	-0.119998
Zr18	Zr	0.518112	0.760542	0.119914
O19	O	0.497423	1.191174	0.075171
O20	O	0.497423	1.191173	-0.265966
O21	O	0.339689	1.191209	0.075185
O22	O	0.585601	0.809743	0.265869
O23	O	0.585601	0.809742	-0.075268
O24	O	0.427867	0.809779	0.265883
O25	O	0.585601	1.000448	-0.075268
O26	O	0.497423	1.000469	0.265876
O27	O	0.427867	1.000484	0.265883
O28	O	0.585601	1.000449	0.075163
O29	O	0.427867	1.341620	-0.265960
O30	O	0.497423	0.659331	0.265877
O31	O	0.585601	0.659312	0.265869
O32	O	0.585601	0.659311	0.075164
O33	O	0.339689	1.341640	-0.075247
O34	O	0.427867	1.341621	-0.075255
O35	O	0.488599	0.888205	0.168354
O36	O	0.540508	0.888193	0.056084
O37	O	0.488600	1.112735	-0.056177
O38	O	0.436691	1.112747	0.056093
C39	C	0.462645	0.700370	-0.000041
C40	C	0.462645	0.598517	-0.000041
C41	C	0.488395	0.553102	-0.055735
C42	C	0.488396	0.447832	-0.055736
C43	C	0.323883	1.000506	-0.000030
C44	C	0.276789	1.000517	-0.000026
C45	C	-0.015217	1.000452	-0.082913
C46	C	-0.192203	1.000436	-0.082922
O47	O	-0.215076	1.000378	-0.153376
N48	N	-0.214334	1.000439	-0.000049
C49	C	-0.192213	1.000437	0.082836
O50	O	-0.215095	1.000426	0.153331
C51	C	-0.015225	1.000444	0.082848
C52	C	0.006900	1.000454	-0.000037
C53	C	0.006909	1.000461	-0.165791
C54	C	0.051152	1.000472	-0.165792
C55	C	0.073268	1.000474	-0.082915
C56	C	0.051142	1.000466	-0.000037
C57	C	0.006896	1.000433	0.165737
C58	C	0.051147	1.000432	0.165734
C59	C	0.073272	1.000442	0.082849
C60	C	0.117501	1.000479	0.082839
N61	N	0.139632	1.000476	-0.000034
C62	C	0.117515	1.000474	-0.082911
C63	C	-0.285135	1.000436	0.082823
C64	C	-0.329382	1.000437	0.082819
C65	C	-0.329369	1.000433	-0.082938
C66	C	-0.285123	1.000442	-0.082938
C67	C	-0.263004	1.000433	-0.000050
C68	C	0.210427	1.000498	-0.082906
C69	C	0.254672	1.000515	-0.082902
C70	C	0.254656	1.000512	0.082858
C71	C	0.210413	1.000502	0.082851
C72	C	0.188301	1.000491	-0.000036
O73	O	0.140404	1.000522	0.153263
O74	O	0.140411	1.000456	-0.153381
C75	C	-0.059459	1.000441	-0.082913
C76	C	-0.081585	1.000432	-0.000035
C77	C	-0.059468	1.000435	0.082841
C78	C	-0.125832	1.000433	-0.000039
C79	C	-0.147949	1.000430	-0.082916
C80	C	-0.125818	1.000428	-0.165789
C81	C	-0.081576	1.000439	-0.165790
C82	C	-0.081599	1.000437	0.165714
C83	C	-0.125842	1.000428	0.165707
C84	C	-0.147958	1.000425	0.082831
C85	C	0.601407	1.000445	-0.000054
C86	C	0.648501	1.000434	-0.000058
C87	C	0.462645	1.000475	-0.300146
C88	C	0.462645	1.000474	-0.401999
C89	C	0.462645	1.300581	-0.000042
C90	C	0.462645	1.402434	-0.000042
C91	C	0.436895	1.111863	-0.503098
C92	C	0.436894	1.111865	-0.608369
C93	C	0.462645	1.000477	0.300063
C94	C	0.462645	1.000477	0.401916
C95	C	0.601406	0.700340	-0.000053
C96	C	0.648501	0.598476	-0.000057
C97	C	0.462645	0.700371	0.300064
C98	C	0.462644	0.598519	0.401917
C99	C	0.601406	0.700340	0.300052
C100	C	0.648501	0.598477	0.401900
C101	C	0.323884	1.300611	-0.300135
C102	C	0.276789	1.402474	-0.401984
C103	C	0.323883	1.300612	-0.000030
C104	C	0.276789	1.402475	-0.000026
C105	C	0.462645	1.300580	-0.300147
C106	C	0.462646	1.402433	-0.402000
C107	C	0.643521	0.550646	-0.058668
C108	C	0.687767	0.454948	-0.058694
C109	C	0.736992	0.407075	-0.000102
C110	C	0.741971	0.454915	0.058510
C111	C	0.697726	0.550618	0.058529
C112	C	0.697717	0.550635	0.391126
C113	C	0.741972	0.454937	0.486815
C114	C	0.737008	0.407077	0.593277
C115	C	0.687786	0.454928	0.604049
C116	C	0.643533	0.550631	0.508361
C117	C	0.227573	1.450328	-0.391209
C118	C	0.183318	1.546055	-0.486898
C119	C	0.188282	1.593921	-0.593360
C120	C	0.237504	1.546063	-0.604132
C121	C	0.281757	1.450344	-0.508445
C122	C	0.281769	1.450315	0.058575
C123	C	0.237523	1.546040	0.058575
C124	C	0.188298	1.593916	-0.000021
C125	C	0.183319	1.546072	-0.058629
C126	C	0.227564	1.450356	-0.058635
C127	C	0.488395	0.553104	0.503015
C128	C	0.488395	0.447834	0.608286
H129	H	0.510443	0.592148	-0.103411
H130	H	0.510442	0.408777	0.695015
C131	C	0.785659	0.301789	-0.000126
N132	N	0.822313	0.222484	-0.000143
H133	H	0.510439	0.408782	-0.103422
H134	H	0.241539	1.585048	-0.690825
C135	C	0.589396	0.603244	0.520232
N136	N	0.548620	0.642870	0.529182
H137	H	0.192394	1.000512	0.150334
H138	H	0.440601	0.559462	0.047642
C139	C	0.432868	0.455171	0.480839
N140	N	0.410442	0.494894	0.392585
H141	H	0.321847	1.411342	0.106298
H142	H	0.484692	0.905113	-0.393381
C143	C	0.703190	0.603271	0.274026
N144	N	0.707316	0.642917	0.185829
H145	H	-0.011112	1.000424	0.233230
C146	C	0.796111	0.402306	0.474940
N147	N	0.836887	0.362664	0.465993
H148	H	0.272685	1.000526	-0.150401
C149	C	-0.017410	1.000448	-0.256965
N150	N	-0.035725	1.000444	-0.325647
H151	H	0.440596	0.441489	0.047636
C152	C	0.139631	1.699202	0.000002
N153	N	0.102977	1.778499	0.000028
H154	H	-0.267110	1.000449	-0.150429
H155	H	0.701788	0.589549	0.106264
C156	C	0.243012	1.598641	0.123061
N157	N	0.247147	1.638254	0.171635
C158	C	0.335894	1.397700	-0.520316
N159	N	0.376670	1.358051	-0.529265
C160	C	-0.353719	1.000439	0.173992
N161	N	-0.372045	1.000432	0.242671
C162	C	0.129166	1.598732	-0.123062
N163	N	0.088376	1.638388	-0.171581
H164	H	0.223502	1.411407	-0.106351
H165	H	0.192429	1.000487	-0.150400
H166	H	0.510438	0.592162	0.511633
H167	H	-0.063564	1.000447	-0.233282
H168	H	0.440597	0.559470	0.393298
C169	C	0.075489	1.000462	-0.256962
N170	N	0.093818	1.000447	-0.325632
H171	H	0.683703	0.416008	-0.106424
H172	H	0.683753	0.415946	0.690743
H173	H	-0.347384	1.000434	-0.150421
C174	C	0.796124	0.402231	0.122967
N175	N	0.836913	0.362539	0.171522
H176	H	0.152244	1.671861	-0.671266
C177	C	-0.260805	1.000401	0.174025
N178	N	-0.242479	1.000368	0.242723
C179	C	0.222100	1.397702	-0.274109
N180	N	0.217974	1.358077	-0.185912
C181	C	0.075474	1.000424	0.256919
N182	N	0.093795	1.000422	0.325598
H183	H	0.414852	1.207224	-0.511716
H184	H	0.143244	1.585005	-0.478105
H185	H	0.272669	1.000519	0.150332
C186	C	0.492458	0.871635	-0.480921
N187	N	0.514924	0.774591	-0.392668
C188	C	-0.150154	1.000421	-0.256952
N189	N	-0.168483	1.000406	-0.325607
H190	H	-0.063594	1.000437	0.233204
C191	C	-0.150174	1.000415	0.256895
N192	N	-0.168497	1.000393	0.325582
C193	C	0.407111	1.240702	-0.725535
N194	N	0.384677	1.337746	-0.813789
H195	H	0.603443	0.589623	-0.106395
H196	H	0.773046	0.329149	0.671183
