data_functionalizedCrystal
_audit_creation_method	'MofGen! by Chris Wilmer'
_symmetry_space_group_name_H-M	'P1'
_symmetry_Int_Tables_number	1
_symmetry_cell_setting	triclinic
loop_
_symmetry_equiv_pos_as_xyz
  x,y,z
_cell_length_a	21.883469
_cell_length_b	21.882911
_cell_length_c	21.879399
_cell_angle_alpha	60.006540
_cell_angle_beta	60.013207
_cell_angle_gamma	59.992231
loop_
_atom_site_label
_atom_site_type_symbol
_atom_site_fract_x
_atom_site_fract_y
_atom_site_fract_z
O1	O	0.084645	-0.892842	0.746620
O2	O	0.031867	-0.695139	0.601571
O3	O	0.157054	-0.820237	0.601476
O4	O	-0.040542	-0.767744	0.746716
O5	O	0.198586	-0.778715	0.642912
O6	O	0.073399	-0.653617	0.643007
O7	O	0.126177	-0.851320	0.788056
Cu8	Cu	0.103580	-0.748677	0.719315
Cu9	Cu	0.054464	-0.797782	0.670313
O10	O	0.000990	-0.726222	0.788151
N11	N	0.138128	-0.714145	0.753785
N12	N	0.019923	-0.832320	0.635843
C13	C	0.190018	-0.547369	0.805644
C14	C	0.190029	-0.662289	0.805630
C15	C	0.218780	-0.633565	0.834353
C16	C	0.344122	-0.611968	0.768360
C17	C	0.422474	-0.638085	0.742222
C18	C	0.422504	-0.764859	0.790561
C19	C	0.344154	-0.738739	0.816702
C20	C	0.208899	-0.508180	0.728617
C21	C	0.182748	-0.429822	0.702522
C22	C	0.118843	-0.429847	0.830485
C23	C	0.144993	-0.508205	0.856580
C24	C	0.112994	-0.643364	0.824587
C25	C	0.086865	-0.669476	0.798467
C26	C	0.214799	-0.733437	0.734451
C27	C	0.240932	-0.707325	0.760562
C28	C	0.113084	-0.643389	0.959747
C29	C	0.087018	-0.669524	1.038102
C30	C	0.214996	-0.733501	1.038048
C31	C	0.241061	-0.707367	0.959690
C32	C	0.190103	-0.662308	0.920542
C33	C	0.304966	-0.662293	0.805598
C34	C	-0.117460	-0.854702	0.612901
C35	C	-0.002405	-0.854864	0.498145
C36	C	-0.002621	-0.969735	0.613108
C37	C	-0.002603	-0.854858	0.613180
C38	C	-0.031272	-0.883541	0.584334
N39	N	0.460550	-0.714150	0.753681
O40	O	0.699805	-0.721060	0.574973
O41	O	0.700047	-0.866553	0.772482
O42	O	0.699952	-0.866219	0.647213
O43	O	0.699900	-0.721394	0.700242
O44	O	0.575478	-0.824800	0.688791
O45	O	0.575573	-0.825134	0.814060
O46	O	0.575331	-0.679641	0.616551
Cu47	Cu	0.564087	-0.748606	0.719102
Cu48	Cu	0.711292	-0.797588	0.669931
O49	O	0.575426	-0.679975	0.741820
N50	N	0.814828	-0.832044	0.635345
N51	N	0.138106	-0.391772	0.753815
O52	O	-0.040520	-0.152377	0.746758
O53	O	0.156993	-0.152371	0.601281
O54	O	0.031698	-0.152390	0.601639
O55	O	0.084775	-0.152358	0.746401
O56	O	0.073234	-0.276876	0.643130
O57	O	0.198529	-0.276856	0.642772
O58	O	0.001015	-0.276863	0.788249
Cu59	Cu	0.103564	-0.288226	0.719299
Cu60	Cu	0.054444	-0.141007	0.670231
O61	O	0.126310	-0.276844	0.787892
N62	N	0.019892	-0.037461	0.635717
N63	N	0.138332	-0.714192	1.076133
O64	O	0.131293	-0.892804	1.315506
O65	O	-0.014162	-0.695219	1.315533
O66	O	-0.013826	-0.820490	1.315480
O67	O	0.130957	-0.767533	1.315559
O68	O	0.027651	-0.778981	1.191001
O69	O	0.027314	-0.653710	1.191054
O70	O	0.172770	-0.851295	1.191026
Cu71	Cu	0.103829	-0.748713	1.179674
Cu72	Cu	0.054778	-0.797802	1.326885
O73	O	0.172434	-0.726024	1.191079
N74	N	0.020275	-0.832331	1.430426
C75	C	0.047687	-0.649466	0.602306
C76	C	0.202716	-0.804385	0.602188
C77	C	0.110357	-0.896993	0.787321
C78	C	-0.044672	-0.742074	0.787439
C79	C	0.637839	-0.865879	0.818154
C80	C	0.637724	-0.865466	0.663023
C81	C	0.637536	-0.680313	0.570880
C82	C	0.637655	-0.680728	0.726010
C83	C	0.202592	-0.214459	0.601942
C84	C	0.047481	-0.214636	0.602435
C85	C	-0.044635	-0.214620	0.787537
C86	C	0.110528	-0.214598	0.787096
C87	C	-0.013455	-0.649572	1.253296
C88	C	-0.013030	-0.804697	1.253206
C89	C	0.172063	-0.896942	1.253263
C90	C	0.171648	-0.741808	1.253325
H91	H	0.024299	-0.654107	1.070013
H92	H	0.259468	-0.815577	0.556577
O93	O	0.315778	-0.725652	0.742013
C94	C	0.348254	-0.698807	0.663532
H95	H	0.311087	-0.691143	0.636130
H96	H	0.405901	-0.740777	0.645181
H97	H	0.354036	-0.642797	0.645822
H98	H	0.121892	-0.214588	0.832572
H99	H	0.256252	-0.770113	0.697763
O100	O	0.123912	-0.964797	0.841578
C101	C	0.197472	-1.011221	0.814433
H102	H	0.217215	-0.990826	0.750681
H103	H	0.198489	-1.071215	0.837294
H104	H	0.236194	-1.009163	0.833376
O105	O	0.637646	-0.919772	0.649612
C106	C	0.573218	-0.939942	0.700932
H107	H	0.551754	-0.925038	0.752816
H108	H	0.587767	-1.002735	0.717648
H109	H	0.528034	-0.908364	0.673833
H110	H	0.036413	-0.592673	0.556752
O111	O	-0.112407	-0.728596	0.841783
C112	C	-0.158923	-0.655055	0.814718
H113	H	-0.122882	-0.619515	0.766651
H114	H	-0.194776	-0.629991	0.861687
H115	H	-0.196724	-0.656189	0.793931
O116	O	0.226639	-0.964586	1.253222
C117	C	0.291049	-0.964591	1.253267
H118	H	0.290157	-0.904553	1.229720
H119	H	0.343143	-0.997873	1.217123
H120	H	0.291930	-0.991351	1.312992
H121	H	0.637900	-0.911553	0.874882
O122	O	0.637476	-0.625907	0.503161
C123	C	0.637434	-0.652847	0.456588
H124	H	0.661061	-0.716603	0.476826
H125	H	0.673507	-0.629865	0.396621
H126	H	0.577702	-0.633858	0.458657
H127	H	0.637644	-0.635235	0.737357
O128	O	-0.068009	-0.581906	1.253269
C129	C	-0.132431	-0.581914	1.253264
H130	H	-0.115836	-0.626237	1.229681
H131	H	-0.160441	-0.524530	1.217126
H132	H	-0.173111	-0.594980	1.312978
O133	O	0.270151	-0.214008	0.547386
C134	C	0.316707	-0.213874	0.574274
H135	H	0.280707	-0.190549	0.622493
H136	H	0.352271	-0.177444	0.527277
H137	H	0.354787	-0.273516	0.594793
O138	O	0.033824	-0.214701	0.548278
C139	C	-0.039749	-0.214699	0.575546
H140	H	-0.059422	-0.238241	0.639300
H141	H	-0.040828	-0.250872	0.552788
H142	H	-0.078489	-0.154985	0.556602
H143	H	-0.101359	-0.214623	0.833209
O144	O	-0.067180	-0.818295	1.253082
C145	C	-0.039918	-0.891871	1.253059
H146	H	0.023834	-0.911590	1.229542
H147	H	-0.062668	-0.892919	1.216856
H148	H	-0.058873	-0.930598	1.312759
O149	O	0.225844	-0.728163	1.253309
C150	C	0.198577	-0.654593	1.253347
H151	H	0.150526	-0.619169	1.229777
H152	H	0.245446	-0.629420	1.217219
H153	H	0.177709	-0.655697	1.313072
H154	H	0.071582	-0.606692	0.927876
H155	H	0.256495	-0.770176	1.069914
H156	H	0.303780	-0.722782	0.927774
H157	H	0.024137	-0.654049	0.813885
O158	O	0.063446	-0.599594	0.868327
C159	C	-0.010149	-0.588503	0.879465
H160	H	-0.010038	-0.597245	0.832225
H161	H	-0.047357	-0.529078	0.879896
H162	H	-0.032564	-0.630216	0.935279
H163	H	0.312274	-0.779724	0.847024
H164	H	0.454353	-0.597104	0.711898
O165	O	0.460497	-0.839123	0.801294
C166	C	0.441343	-0.863043	0.766095
H167	H	0.384437	-0.823307	0.759447
H168	H	0.438691	-0.921995	0.801751
H169	H	0.485411	-0.863169	0.708628
O170	O	0.306140	-0.537679	0.757444
C171	C	0.325229	-0.497251	0.680081
H172	H	0.382109	-0.531489	0.649215
H173	H	0.327904	-0.442014	0.669729
H174	H	0.281109	-0.485558	0.658741
O175	O	0.252521	-0.546194	0.679114
C176	C	0.212924	-0.527028	0.633824
H177	H	0.150246	-0.505494	0.664101
H178	H	0.226938	-0.578555	0.621974
H179	H	0.229569	-0.481537	0.578775
O180	O	0.075094	-0.391914	0.880063
C181	C	0.064066	-0.443307	0.953648
H182	H	0.072826	-0.499163	0.953507
H183	H	0.004657	-0.420677	0.990872
H184	H	0.105797	-0.451637	0.976069
O185	O	0.201118	-0.391667	0.627711
C186	C	0.240568	-0.346356	0.608769
H187	H	0.226461	-0.334629	0.660406
H188	H	0.223864	-0.291248	0.563343
H189	H	0.303276	-0.376548	0.587242
H190	H	0.129609	-0.540114	0.919306
