data_functionalizedCrystal
_audit_creation_method	'MofGen! by Chris Wilmer'
_symmetry_space_group_name_H-M	'P1'
_symmetry_Int_Tables_number	1
_symmetry_cell_setting	triclinic
loop_
_symmetry_equiv_pos_as_xyz
  x,y,z
_cell_length_a	14.908979
_cell_length_b	14.908520
_cell_length_c	14.908308
_cell_angle_alpha	96.360765
_cell_angle_beta	96.371071
_cell_angle_gamma	96.420994
loop_
_atom_site_label
_atom_site_type_symbol
_atom_site_fract_x
_atom_site_fract_y
_atom_site_fract_z
Zn1	Zn	1.335367	-0.308036	-0.450888
Zn2	Zn	1.835367	0.191964	0.049112
Zn3	Zn	1.335264	-0.450687	-0.308264
Zn4	Zn	1.835264	0.049313	0.191736
Zn5	Zn	1.192737	-0.308079	-0.308270
Zn6	Zn	1.692737	0.191921	0.191730
Zn7	Zn	1.174098	-0.469237	-0.469431
Zn8	Zn	1.674098	0.030763	0.030569
O9	O	1.259366	-0.384010	-0.384213
O10	O	1.759366	0.115990	0.115787
O11	O	1.462493	-0.319177	-0.424206
O12	O	1.962493	0.180823	0.075794
O13	O	1.324115	-0.424025	-0.181130
O14	O	1.824115	0.075975	0.318870
O15	O	1.219501	-0.180928	-0.319430
O16	O	1.719501	0.319072	0.180570
O17	O	1.462417	-0.423983	-0.319421
O18	O	1.962417	0.076017	0.180579
O19	O	1.324291	-0.180896	-0.424211
O20	O	1.824291	0.319104	0.075789
O21	O	1.219401	-0.319251	-0.181134
O22	O	1.719401	0.180749	0.318866
O23	O	1.063125	-0.337239	-0.337411
O24	O	1.563125	0.162761	0.162589
O25	O	1.187733	-0.455599	-0.594106
O26	O	1.687733	0.044401	-0.094106
O27	O	1.049431	-0.455641	-0.455816
O28	O	1.549431	0.044359	0.044184
O29	O	1.306217	-0.337164	-0.580483
O30	O	1.806217	0.162836	-0.080483
O31	O	1.306041	-0.580293	-0.337402
O32	O	1.806041	-0.080293	0.162598
O33	O	1.187633	-0.593922	-0.455810
O34	O	1.687633	-0.093922	0.044190
C35	C	1.023312	-0.398458	-0.398627
C36	C	1.523312	0.101542	0.101373
C37	C	0.922324	-0.404662	-0.404816
C38	C	1.422324	0.095338	0.095184
C39	C	0.772882	-0.475134	-0.475086
C40	C	1.272882	0.024866	0.024914
C41	C	0.867768	-0.469306	-0.469279
C42	C	1.367768	0.030694	0.030721
C43	C	0.881988	-0.345845	-0.346153
C44	C	1.381988	0.154155	0.153847
C45	C	0.787102	-0.351673	-0.351960
C46	C	1.287102	0.148327	0.148040
C47	C	0.732552	-0.416319	-0.416430
C48	C	1.232552	0.083681	0.083570
C49	C	0.637664	-0.422143	-0.422241
C50	C	1.137664	0.077857	0.077759
C51	C	0.651885	-0.298687	-0.299111
C52	C	1.151885	0.201313	0.200889
C53	C	0.746772	-0.292858	-0.293304
C54	C	1.246772	0.207142	0.206696
C55	C	1.244826	-0.620075	-0.398636
C56	C	1.744826	-0.120075	0.101364
C57	C	1.238687	-0.721061	-0.404832
C58	C	1.738687	-0.221061	0.095168
C59	C	1.350563	-0.896571	-0.293261
C60	C	1.850563	-0.396571	0.206739
C61	C	1.344799	-0.991456	-0.299079
C62	C	1.844799	-0.491456	0.200921
C63	C	1.221398	-1.005719	-0.422289
C64	C	1.721398	-0.505719	0.077711
C65	C	1.227163	-0.910833	-0.416471
C66	C	1.727163	-0.410833	0.083529
C67	C	1.291747	-0.856263	-0.351954
C68	C	1.791747	-0.356263	0.148046
C69	C	1.297507	-0.761376	-0.346132
C70	C	1.797507	-0.261376	0.153868
C71	C	1.174111	-0.775640	-0.469346
C72	C	1.674111	-0.275640	0.030654
C73	C	1.168346	-0.870525	-0.475164
C74	C	1.668346	-0.370525	0.024836
C75	C	1.496342	-0.369506	-0.369744
C76	C	1.996342	0.130494	0.130256
C77	C	1.597327	-0.363325	-0.363578
C78	C	2.097327	0.136675	0.136422
C79	C	1.244907	-0.398446	-0.621181
C80	C	1.744907	0.101554	-0.121181
C81	C	1.238745	-0.404598	-0.722162
C82	C	1.738745	0.095402	-0.222162
C83	C	1.273987	-0.147023	-0.369752
C84	C	1.773987	0.352977	0.130248
C85	C	1.280217	-0.046033	-0.363590
C86	C	1.780217	0.453967	0.136410
C87	C	1.350543	-0.292811	-0.897732
C88	C	1.850543	0.207189	-0.397732
C89	C	1.344756	-0.298588	-0.992612
C90	C	1.844756	0.201412	-0.492612
C91	C	1.221382	-0.421923	-1.006806
C92	C	1.721382	0.078077	-0.506806
C93	C	1.227169	-0.416146	-0.911926
C94	C	1.727169	0.083854	-0.411926
C95	C	1.291752	-0.351589	-0.857391
C96	C	1.791752	0.148411	-0.357391
C97	C	1.297542	-0.345817	-0.762509
C98	C	1.797542	0.154183	-0.262509
C99	C	1.174165	-0.469148	-0.776705
C100	C	1.674165	0.030852	-0.276705
C101	C	1.168378	-0.474924	-0.871585
C102	C	1.668378	0.025076	-0.371585
C103	C	1.273826	-0.369561	-0.148160
C104	C	1.773826	0.130439	0.351840
C105	C	1.280179	-0.363143	-0.047153
C106	C	1.780179	0.136857	0.452847
H107	H	0.791199	-0.240227	-0.240812
H108	H	1.291199	0.259773	0.259188
H109	H	1.403133	-0.240250	-0.853329
H110	H	1.903133	0.259750	-0.353329
H111	H	1.350092	-0.716945	-0.293597
H112	H	1.850092	-0.216945	0.206403
C113	C	1.157717	-0.485512	-1.158558
C114	C	1.657717	0.014488	-0.658558
C115	C	1.150384	-0.492866	-1.066761
C116	C	1.650384	0.007134	-0.566761
H117	H	1.113885	-0.529311	-1.195570
H118	H	1.613885	-0.029311	-0.695570
H119	H	1.147247	-0.426226	-1.171174
H120	H	1.647247	0.073774	-0.671174
H121	H	1.216992	-0.496029	-1.171189
H122	H	1.716992	0.003971	-0.671189
H123	H	1.091111	-0.482343	-1.054129
H124	H	1.591111	0.017657	-0.554129
H125	H	1.160848	-0.552167	-1.054141
H126	H	1.660848	-0.052167	-0.554141
C127	C	0.512747	-0.252844	-0.253290
C128	C	1.012747	0.247156	0.246710
C129	C	0.607553	-0.234065	-0.234595
C130	C	1.107553	0.265935	0.265405
H131	H	0.485380	-0.212961	-0.213449
H132	H	0.985380	0.287039	0.286551
H133	H	0.494284	-0.244280	-0.314478
H134	H	0.994284	0.255720	0.185522
H135	H	0.494283	-0.314024	-0.244604
H136	H	0.994283	0.185976	0.255396
H137	H	0.626018	-0.172887	-0.243287
H138	H	1.126018	0.327113	0.256713
H139	H	0.626024	-0.242621	-0.173392
H140	H	1.126024	0.257379	0.326608
H141	H	1.115766	-0.914969	-0.527695
H142	H	1.615766	-0.414969	-0.027695
C143	C	1.051624	-0.591637	-0.800270
C144	C	1.551624	-0.091637	-0.300270
C145	C	1.109530	-0.533758	-0.732362
C146	C	1.609530	-0.033758	-0.232362
H147	H	1.011728	-0.631526	-0.772892
H148	H	1.511728	-0.131526	-0.272892
H149	H	1.017059	-0.556430	-0.836980
H150	H	1.517059	-0.056430	-0.336980
H151	H	1.086818	-0.626220	-0.836982
H152	H	1.586818	-0.126220	-0.336982
H153	H	1.074337	-0.499170	-0.695654
H154	H	1.574337	0.000830	-0.195654
H155	H	1.144098	-0.568969	-0.695637
H156	H	1.644098	-0.068969	-0.195637
H157	H	1.403144	-0.852138	-0.240722
H158	H	1.903144	-0.352138	0.259278
H159	H	0.593250	-0.474778	-0.474739
H160	H	1.093250	0.025222	0.025261
H161	H	1.392695	-1.024271	-0.251287
H162	H	1.892695	-0.524271	0.248713
H163	H	0.728466	-0.527764	-0.527588
H164	H	1.228466	-0.027764	-0.027588
C165	C	1.157777	-1.157508	-0.485909
C166	C	1.657777	-0.657508	0.014091
C167	C	1.150411	-1.065713	-0.493201
C168	C	1.650411	-0.565713	0.006799
H169	H	1.113947	-1.194544	-0.529684
H170	H	1.613947	-0.694544	-0.029684
H171	H	1.217048	-1.170062	-0.496486
H172	H	1.717048	-0.670062	0.003514
H173	H	1.147315	-1.170173	-0.426615
H174	H	1.647315	-0.670173	0.073385
H175	H	1.160879	-1.053046	-0.552494
H176	H	1.660879	-0.553046	-0.052494
H177	H	1.091125	-1.053154	-0.482631
H178	H	1.591125	-0.553154	0.017369
H179	H	1.126215	-0.742810	-0.517136
H180	H	1.626215	-0.242810	-0.017136
C181	C	1.006906	-0.515191	-0.515048
C182	C	1.506906	-0.015191	-0.015048
C183	C	0.912101	-0.533954	-0.533758
C184	C	1.412101	-0.033954	-0.033758
H185	H	1.034273	-0.555109	-0.554853
H186	H	1.534273	-0.055109	-0.054853
H187	H	1.025387	-0.454033	-0.523767
H188	H	1.525387	0.045967	-0.023767
H189	H	1.025354	-0.523721	-0.453838
H190	H	1.525354	-0.023721	0.046162
H191	H	0.893652	-0.525417	-0.594967
H192	H	1.393652	-0.025417	-0.094967
H193	H	0.893613	-0.595127	-0.525047
H194	H	1.393613	-0.095127	-0.025047
C195	C	1.418901	-0.224478	-0.758012
C196	C	1.918901	0.275522	-0.258012
C197	C	1.368526	-0.274854	-0.702562
C198	C	1.868526	0.225146	-0.202562
H199	H	1.462719	-0.180663	-0.721004
H200	H	1.962719	0.319337	-0.221004
H201	H	1.448959	-0.264187	-0.795310
H202	H	1.948959	0.235813	-0.295310
H203	H	1.379187	-0.194409	-0.795319
H204	H	1.879187	0.305591	-0.295319
H205	H	1.408239	-0.304928	-0.665260
H206	H	1.908239	0.195072	-0.165260
H207	H	1.338467	-0.235139	-0.665249
H208	H	1.838467	0.264861	-0.165249
H209	H	1.392627	-0.250722	-1.025453
H210	H	1.892627	0.249278	-0.525453
H211	H	0.926419	-0.293220	-0.293658
H212	H	1.426419	0.206780	0.206342
H213	H	1.115795	-0.527483	-0.916000
H214	H	1.615795	-0.027483	-0.416000
