data_functionalizedCrystal
_audit_creation_method	'MofGen! by Chris Wilmer'
_symmetry_space_group_name_H-M	'P1'
_symmetry_Int_Tables_number	1
_symmetry_cell_setting	triclinic
loop_
_symmetry_equiv_pos_as_xyz
  x,y,z
_cell_length_a	6.817900
_cell_length_b	14.858565
_cell_length_c	14.858340
_cell_angle_alpha	94.732201
_cell_angle_beta	104.519754
_cell_angle_gamma	104.523916
loop_
_atom_site_label
_atom_site_type_symbol
_atom_site_fract_x
_atom_site_fract_y
_atom_site_fract_z
V1	V	-4.043518	-0.129264	-0.290221
V2	V	-3.793518	0.120736	-0.040221
V3	V	-3.543518	0.370736	0.209779
V4	V	-3.293518	0.620736	0.459779
O5	O	-4.025342	0.005601	-0.284429
O6	O	-3.775342	0.255601	-0.034429
O7	O	-3.525342	0.505601	0.215571
O8	O	-3.275342	0.755601	0.465571
O9	O	-4.000085	-0.255721	-0.288493
O10	O	-3.750085	-0.005721	-0.038493
O11	O	-3.500085	0.244279	0.211507
O12	O	-3.250085	0.494279	0.461507
O13	O	-4.000069	-0.127543	-0.416679
O14	O	-3.750069	0.122457	-0.166679
O15	O	-3.500069	0.372457	0.083321
O16	O	-3.250069	0.622457	0.333321
O17	O	-4.025358	-0.123464	-0.155355
O18	O	-3.775358	0.126536	0.094645
O19	O	-3.525358	0.376536	0.344645
O20	O	-3.275358	0.626536	0.594645
V21	V	-4.525861	-0.113101	-0.274059
V22	V	-4.275861	0.136899	-0.024059
V23	V	-4.025861	0.386899	0.225941
V24	V	-3.775861	0.636899	0.475941
O25	O	-4.307365	-0.164719	-0.325674
O26	O	-4.057365	0.085281	-0.075674
O27	O	-3.807365	0.335281	0.174326
O28	O	-3.557365	0.585281	0.424326
O29	O	-4.712211	-0.077646	-0.238606
O30	O	-4.462211	0.172354	0.011394
O31	O	-4.212211	0.422354	0.261394
O32	O	-3.962211	0.672354	0.511394
O33	O	-4.346087	0.013357	-0.275787
O34	O	-4.096087	0.263357	-0.025787
O35	O	-3.846087	0.513357	0.224213
O36	O	-3.596087	0.763357	0.474213
O37	O	-4.661433	-0.247965	-0.279850
O38	O	-4.411433	0.002035	-0.029850
O39	O	-4.161433	0.252035	0.220150
O40	O	-3.911433	0.502035	0.470150
O41	O	-4.661417	-0.118900	-0.408924
O42	O	-4.411417	0.131100	-0.158924
O43	O	-4.161417	0.381100	0.091076
O44	O	-3.911417	0.631100	0.341076
O45	O	-4.346103	-0.114821	-0.147600
O46	O	-4.096103	0.135179	0.102400
O47	O	-3.846103	0.385179	0.352400
O48	O	-3.596103	0.635179	0.602400
C49	C	-3.846134	-0.286540	-0.283980
C50	C	-3.596134	-0.036540	-0.033980
C51	C	-3.346134	0.213460	0.216020
C52	C	-3.096134	0.463460	0.466020
C53	C	-3.891942	-0.389923	-0.283410
C54	C	-3.641942	-0.139923	-0.033410
C55	C	-3.391942	0.110077	0.216590
C56	C	-3.141942	0.360077	0.466590
C57	C	-3.846113	-0.123035	-0.447494
C58	C	-3.596113	0.126965	-0.197494
C59	C	-3.346113	0.376965	0.052506
C60	C	-3.096113	0.626965	0.302506
C61	C	-3.891905	-0.122465	-0.550876
C62	C	-3.641905	0.127535	-0.300876
C63	C	-3.391905	0.377535	-0.050876
C64	C	-3.141905	0.627535	0.199124
C65	C	-3.929091	-0.122001	-0.634833
C66	C	-3.679091	0.127999	-0.384833
C67	C	-3.429091	0.377999	-0.134833
C68	C	-3.179091	0.627999	0.115167
C69	C	-3.975757	-0.121415	-0.740161
C70	C	-3.725757	0.128585	-0.490161
C71	C	-3.475757	0.378585	-0.240161
C72	C	-3.225757	0.628585	0.009839
C73	C	-4.012967	-0.120948	-0.824112
C74	C	-3.762967	0.129052	-0.574112
C75	C	-3.512967	0.379052	-0.324112
C76	C	-3.262967	0.629052	-0.074112
C77	C	-4.059638	-0.120364	-0.929447
C78	C	-3.809638	0.129636	-0.679447
C79	C	-3.559638	0.379636	-0.429447
C80	C	-3.309638	0.629636	-0.179447
C81	C	-4.059607	-0.768489	-0.281336
C82	C	-3.809607	-0.518489	-0.031336
C83	C	-3.559607	-0.268489	0.218664
C84	C	-3.309607	-0.018489	0.468664
C85	C	-4.012949	-0.663160	-0.281912
C86	C	-3.762949	-0.413160	-0.031912
C87	C	-3.512949	-0.163160	0.218088
C88	C	-3.262949	0.086840	0.468088
C89	C	-3.975775	-0.579209	-0.282372
C90	C	-3.725775	-0.329209	-0.032372
C91	C	-3.475775	-0.079209	0.217628
C92	C	-3.225775	0.170791	0.467628
C93	C	-3.929116	-0.473874	-0.282951
C94	C	-3.679116	-0.223874	-0.032951
C95	C	-3.429116	0.026126	0.217049
C96	C	-3.179116	0.276126	0.467049
C97	C	-4.163380	0.044171	-0.280297
C98	C	-3.913380	0.294171	-0.030297
C99	C	-3.663380	0.544171	0.219703
C100	C	-3.413380	0.794171	0.469703
C101	C	-4.096810	0.147553	-0.280873
C102	C	-3.846810	0.397553	-0.030873
C103	C	-3.596810	0.647553	0.219127
C104	C	-3.346810	0.897553	0.469127
C105	C	-4.163402	-0.119332	-0.116781
C106	C	-3.913402	0.130668	0.133219
C107	C	-3.663402	0.380668	0.383219
C108	C	-3.413402	0.630668	0.633219
C109	C	-4.096848	-0.119897	-0.013398
C110	C	-3.846848	0.130103	0.236602
C111	C	-3.596848	0.380103	0.486602
C112	C	-3.346848	0.630103	0.736602
