data_functionalizedCrystal
_audit_creation_method	'MofGen! by Chris Wilmer'
_symmetry_space_group_name_H-M	'P1'
_symmetry_Int_Tables_number	1
_symmetry_cell_setting	triclinic
loop_
_symmetry_equiv_pos_as_xyz
  x,y,z
_cell_length_a	8.497367
_cell_length_b	8.497374
_cell_length_c	12.759401
_cell_angle_alpha	90.001753
_cell_angle_beta	90.031951
_cell_angle_gamma	90.038609
loop_
_atom_site_label
_atom_site_type_symbol
_atom_site_fract_x
_atom_site_fract_y
_atom_site_fract_z
Zn1	Zn	0.628266	0.892473	1.606419
Zn2	Zn	0.892012	0.628893	1.606517
Zn3	Zn	0.628247	0.628701	1.430777
Zn4	Zn	0.892005	0.892624	1.430858
O5	O	0.760132	0.760673	1.518643
O6	O	0.663264	0.857526	1.753453
O7	O	0.857018	0.408105	1.583212
O8	O	0.407487	0.663547	1.454001
O9	O	0.857037	0.663875	1.753525
O10	O	0.407501	0.857340	1.583045
O11	O	0.663230	0.407964	1.454096
O12	O	0.663224	0.663693	1.283766
O13	O	0.857025	1.113366	1.454139
O14	O	0.857006	0.857597	1.283826
O15	O	0.663257	1.113256	1.583124
O16	O	1.112774	0.664021	1.583290
O17	O	1.112769	0.857783	1.454234
C18	C	0.760113	0.760641	1.245675
C19	C	0.760143	0.760665	1.128899
C20	C	1.348652	0.760527	1.518570
C21	C	1.170008	0.760815	1.518702
C22	C	0.861199	0.861472	1.074095
C23	C	0.861205	0.861504	0.964371
C24	C	0.659095	0.659908	0.964264
C25	C	0.659082	0.659885	1.073986
C26	C	0.760135	1.172153	1.518635
C27	C	0.760152	1.350797	1.518637
C28	C	0.760153	0.760705	1.792676
C29	C	0.760162	0.760719	1.909452
H30	H	0.943485	0.943538	1.118802
C31	C	0.971019	0.970693	0.904736
C32	C	1.071966	0.881292	0.841753
C33	C	1.173136	0.981831	0.786792
H34	H	1.031351	1.030744	0.953037
H35	H	0.910830	1.039476	0.861858
H36	H	1.132150	0.812537	0.884627
H37	H	1.011678	0.821245	0.793432
H38	H	1.112947	1.050613	0.743914
H39	H	1.233457	1.041876	0.835101
H40	H	1.241631	0.921187	0.744044
H41	H	0.576817	0.577854	0.919540
C42	C	0.549298	0.550256	1.133305
C43	C	0.460835	0.461963	1.061733
C44	C	0.359703	0.360952	1.116340
H45	H	0.480516	0.610487	1.176089
H46	H	0.609498	0.481373	1.176104
H47	H	0.400640	0.530838	1.018953
H48	H	0.529576	0.401700	1.018948
H49	H	0.419903	0.292069	1.159139
H50	H	0.290931	0.421195	1.159122
H51	H	0.299680	0.301023	1.067788
