data_functionalizedCrystal
_audit_creation_method	'MofGen! by Chris Wilmer'
_symmetry_space_group_name_H-M	'P1'
_symmetry_Int_Tables_number	1
_symmetry_cell_setting	triclinic
loop_
_symmetry_equiv_pos_as_xyz
  x,y,z
_cell_length_a	12.594517
_cell_length_b	12.594516
_cell_length_c	18.215399
_cell_angle_alpha	89.977545
_cell_angle_beta	90.012979
_cell_angle_gamma	89.973312
loop_
_atom_site_label
_atom_site_type_symbol
_atom_site_fract_x
_atom_site_fract_y
_atom_site_fract_z
Zn1	Zn	1.627174	0.423754	0.416009
Zn2	Zn	1.627036	0.601752	0.292955
Zn3	Zn	1.449182	0.423788	0.292971
Zn4	Zn	1.449127	0.601691	0.415995
O5	O	1.538130	0.512746	0.354483
O6	O	1.776101	0.447378	0.399685
O7	O	1.603408	0.578184	0.189973
O8	O	1.472874	0.274837	0.309306
O9	O	1.776000	0.578152	0.309278
O10	O	1.603644	0.274813	0.399701
O11	O	1.472740	0.447434	0.189985
O12	O	1.300229	0.447375	0.309291
O13	O	1.472780	0.578048	0.518981
O14	O	1.300188	0.578080	0.399676
O15	O	1.603590	0.447319	0.518992
O16	O	1.603355	0.750690	0.309263
O17	O	1.472646	0.750645	0.399660
C18	C	1.261589	0.512726	0.354484
C19	C	1.143283	0.512742	0.354503
C20	C	1.003275	0.583962	0.403572
C21	C	1.074043	0.609862	0.336406
C22	C	1.074087	0.486889	0.421660
C23	C	1.003266	0.538728	0.287280
C24	C	1.003303	0.415710	0.372579
C25	C	1.074039	0.441573	0.305368
C26	C	1.538008	0.789287	0.354474
C27	C	1.538054	0.907593	0.354495
C28	C	1.466941	0.976860	0.403627
C29	C	1.440997	1.047719	0.336476
C30	C	1.564056	1.047533	0.421657
C31	C	1.512058	0.976893	0.287309
C32	C	1.635162	0.976701	0.372535
C33	C	1.609255	1.047528	0.305337
C34	C	1.815750	0.512768	0.354481
C35	C	1.934056	0.512777	0.354481
C36	C	1.538194	0.512673	0.546436
C37	C	1.538222	0.512642	0.628234
C38	C	1.538234	1.235125	0.354506
C39	C	1.538158	1.116820	0.354513
C40	C	1.538126	0.512743	0.163276
C41	C	1.538305	0.512474	0.081478
C42	C	1.606360	0.444507	0.816435
C43	C	1.606372	0.444476	0.893294
C44	C	1.470160	0.580611	0.893272
C45	C	1.470143	0.580636	0.816414
C46	C	1.538249	0.512586	0.777998
C47	C	1.538279	0.512530	0.931714
C48	C	1.538292	0.512497	1.015048
C49	C	1.538234	0.512617	0.694659
H50	H	1.104913	0.381360	0.263814
C51	C	1.593712	1.089453	0.498378
N52	N	1.616042	1.121022	0.556166
H53	H	0.972206	0.333660	0.387902
C54	C	1.395246	0.655461	0.935536
N55	N	1.338818	0.711839	0.967370
H56	H	1.414671	0.636073	0.785118
H57	H	0.972205	0.644221	0.445025
C58	C	1.681268	0.369640	0.774180
N59	N	1.737689	0.313244	0.742356
H60	H	1.717217	0.945487	0.387810
C61	C	1.116020	0.720740	0.315729
N62	N	1.147631	0.804255	0.300159
H63	H	1.406713	0.945830	0.445116
C64	C	0.961420	0.568426	0.210519
N65	N	0.929898	0.590799	0.152705
H66	H	1.105196	0.465007	0.478464
H67	H	1.490013	0.945992	0.230502
H68	H	1.358924	1.078936	0.321233
C69	C	1.690555	1.089192	0.249153
N70	N	1.751785	1.120577	0.206832
C71	C	1.681302	0.369587	0.935572
N72	N	1.737743	0.313177	0.967415
