data_functionalizedCrystal
_audit_creation_method	'MofGen! by Chris Wilmer'
_symmetry_space_group_name_H-M	'P1'
_symmetry_Int_Tables_number	1
_symmetry_cell_setting	triclinic
loop_
_symmetry_equiv_pos_as_xyz
  x,y,z
_cell_length_a	18.101398
_cell_length_b	21.395361
_cell_length_c	21.395355
_cell_angle_alpha	89.978489
_cell_angle_beta	89.970130
_cell_angle_gamma	90.025974
loop_
_atom_site_label
_atom_site_type_symbol
_atom_site_fract_x
_atom_site_fract_y
_atom_site_fract_z
Zn1	Zn	1.132164	-0.249590	-0.354337
Zn2	Zn	1.632164	0.250410	0.145663
Zn3	Zn	1.132048	-0.354350	-0.249554
Zn4	Zn	1.632048	0.145650	0.250446
Zn5	Zn	1.008310	-0.249582	-0.249564
Zn6	Zn	1.508310	0.250418	0.250436
Zn7	Zn	1.008274	-0.354325	-0.354285
Zn8	Zn	1.508274	0.145675	0.145715
O9	O	1.070199	-0.301962	-0.301935
O10	O	1.570199	0.198038	0.198065
O11	O	1.235781	-0.263501	-0.340455
O12	O	1.735781	0.236499	0.159545
O13	O	1.115601	-0.340459	-0.161878
O14	O	1.615601	0.159541	0.338122
O15	O	1.024803	-0.161905	-0.263489
O16	O	1.524803	0.338095	0.236511
O17	O	1.235696	-0.340467	-0.263472
O18	O	1.735696	0.159533	0.236528
O19	O	1.115798	-0.161911	-0.340465
O20	O	1.615798	0.338089	0.159535
O21	O	1.024692	-0.263486	-0.161885
O22	O	1.524692	0.236514	0.338115
O23	O	0.904673	-0.263462	-0.263438
O24	O	1.404673	0.236538	0.236562
O25	O	1.024741	-0.340425	-0.441970
O26	O	1.524741	0.159575	0.058030
O27	O	0.904646	-0.340417	-0.340376
O28	O	1.404646	0.159583	0.159624
O29	O	1.115762	-0.263477	-0.442008
O30	O	1.615762	0.236523	0.057992
O31	O	1.115566	-0.442025	-0.263421
O32	O	1.615566	0.057975	0.236579
O33	O	1.024629	-0.442006	-0.340366
O34	O	1.524629	0.057994	0.159634
C35	C	1.070101	-0.464749	-0.301900
C36	C	1.570101	0.035251	0.198100
C37	C	1.070127	-0.534391	-0.301906
C38	C	1.570127	-0.034391	0.198094
C39	C	0.877789	-0.301936	-0.301902
C40	C	1.377789	0.198064	0.198098
C41	C	0.795474	-0.301941	-0.301903
C42	C	1.295474	0.198059	0.198097
C43	C	1.117520	-0.567092	-0.261882
C44	C	1.617520	-0.067092	0.238118
C45	C	1.117554	-0.632528	-0.261896
C46	C	1.617554	-0.132528	0.238104
C47	C	1.070183	-0.665259	-0.301928
C48	C	1.570183	-0.165259	0.198072
C49	C	1.022787	-0.632549	-0.341960
C50	C	1.522787	-0.132549	0.158040
C51	C	1.022759	-0.567115	-0.341949
C52	C	1.522759	-0.067115	0.158051
C53	C	1.003502	-0.768969	-0.306832
C54	C	1.503502	-0.268969	0.193168
C55	C	1.003529	-0.834402	-0.306839
C56	C	1.503529	-0.334402	0.193161
C57	C	1.070269	-0.867080	-0.301965
C58	C	1.570269	-0.367080	0.198035
C59	C	1.136985	-0.834316	-0.297071
C60	C	1.636985	-0.334316	0.202929
C61	C	1.136957	-0.768882	-0.297060
C62	C	1.636957	-0.268882	0.202940
C63	C	1.070208	-0.736211	-0.301944
C64	C	1.570208	-0.236211	0.198056
C65	C	1.117703	-0.970734	-0.261953
C66	C	1.617703	-0.470734	0.238047
C67	C	1.117739	-1.036171	-0.261972
C68	C	1.617739	-0.536171	0.238028
C69	C	1.022965	-1.036191	-0.342032
C70	C	1.522965	-0.536191	0.157968
C71	C	1.022936	-0.970755	-0.342017
C72	C	1.522936	-0.470755	0.157983
C73	C	1.070304	-0.938031	-0.301974
C74	C	1.570304	-0.438031	0.198026
C75	C	0.496383	-0.301980	-0.301956
C76	C	0.996383	0.198020	0.198044
C77	C	0.527701	-0.253320	-0.253785
C78	C	1.027701	0.246680	0.246215
C79	C	0.613319	-0.253450	-0.253579
C80	C	1.113319	0.246550	0.246421
C81	C	0.644766	-0.301960	-0.301930
C82	C	1.144766	0.198040	0.198070
C83	C	0.613646	-0.367957	-0.283884
C84	C	1.113646	0.132043	0.216116
C85	C	0.528001	-0.367687	-0.283549
C86	C	1.028001	0.132313	0.216451
C87	C	0.528006	-0.285215	-0.368286
C88	C	1.028006	0.214785	0.131714
C89	C	0.613656	-0.283746	-0.367925
C90	C	1.113656	0.216254	0.132075
C91	C	0.728626	-0.301953	-0.301916
C92	C	1.228626	0.198047	0.198084
C93	C	0.412524	-0.301991	-0.301968
C94	C	0.912524	0.198009	0.198032
C95	C	1.263361	-0.301988	-0.301968
C96	C	1.763361	0.198012	0.198032
C97	C	1.345675	-0.301999	-0.301982
C98	C	1.845675	0.198001	0.198018
C99	C	1.070261	-0.301949	-0.465358
C100	C	1.570261	0.198051	0.034642
C101	C	1.070287	-0.301944	-0.535000
C102	C	1.570287	0.198056	-0.035000
C103	C	1.070317	-0.138538	-0.301984
C104	C	1.570317	0.361462	0.198016
C105	C	1.070368	-0.068897	-0.302005
C106	C	1.570368	0.431103	0.197995
C107	C	1.117679	-0.261875	-0.567734
C108	C	1.617679	0.238125	-0.067734
C109	C	1.117678	-0.261848	-0.633169
C110	C	1.617678	0.238152	-0.133169
C111	C	1.070293	-0.301901	-0.665868
C112	C	1.570293	0.198099	-0.165868
C113	C	1.022891	-0.341973	-0.633126
C114	C	1.522891	0.158027	-0.133126
C115	C	1.022888	-0.341994	-0.567692
C116	C	1.522888	0.158006	-0.067692
C117	C	1.064411	-0.358316	-0.769530
C118	C	1.564411	0.141684	-0.269530
C119	C	1.064419	-0.358296	-0.834963
C120	C	1.564419	0.141704	-0.334963
C121	C	1.070297	-0.301835	-0.867689
C122	C	1.570297	0.198165	-0.367689
C123	C	1.076183	-0.245393	-0.834974
C124	C	1.576183	0.254607	-0.334974
C125	C	1.076180	-0.245414	-0.769540
C126	C	1.576180	0.254586	-0.269540
C127	C	1.070290	-0.301882	-0.736821
C128	C	1.570290	0.198118	-0.236821
C129	C	1.117691	-0.261734	-0.971376
C130	C	1.617691	0.238266	-0.471376
C131	C	1.117685	-0.261706	-1.036812
C132	C	1.617685	0.238294	-0.536812
C133	C	1.022901	-0.341836	-1.036768
C134	C	1.522901	0.158164	-0.536768
C135	C	1.022904	-0.341858	-0.971332
C136	C	1.522904	0.158142	-0.471332
C137	C	1.070302	-0.301808	-0.938640
C138	C	1.570302	0.198192	-0.438640
C139	C	1.070180	-0.301929	-0.139148
C140	C	1.570180	0.198071	0.360852
C141	C	1.070298	-0.301758	-0.069507
C142	C	1.570298	0.198242	0.430493
H143	H	1.156091	-0.540450	-0.229278
H144	H	1.656091	-0.040450	0.270722
O145	O	1.168783	-0.218614	-0.668483
O146	O	1.668783	0.281386	-0.168483
H147	H	1.160811	-0.225321	-0.719476
H148	H	1.660811	0.274679	-0.219476
O149	O	1.168797	-0.218481	-1.072124
O150	O	1.668797	0.281519	-0.572124
H151	H	1.206447	-0.246518	-1.101958
H152	H	1.706447	0.253482	-0.601958
O153	O	0.971639	-0.531836	-0.385117
O154	O	1.471639	-0.031836	0.114883
H155	H	0.933971	-0.502064	-0.357031
H156	H	1.433971	-0.002064	0.142969
O157	O	1.082523	-0.184543	-0.734251
O158	O	1.582523	0.315457	-0.234251
H159	H	1.086609	-0.145276	-0.767995
H160	H	1.586609	0.354724	-0.267995
H161	H	0.984311	-0.374441	-1.063390
H162	H	1.484311	0.125559	-0.563390
O163	O	1.082503	-0.184487	-0.870259
O164	O	1.582503	0.315513	-0.370259
H165	H	1.081500	-0.193950	-0.921255
H166	H	1.581500	0.306050	-0.421255
O167	O	0.971692	-0.667854	-0.385132
O168	O	1.471692	-0.167854	0.114868
H169	H	0.984362	-0.655269	-0.434317
H170	H	1.484362	-0.155269	0.065683
H171	H	0.949205	-0.861074	-0.310817
H172	H	1.449205	-0.361074	0.189183
H173	H	0.949150	-0.742370	-0.310804
H174	H	1.449150	-0.242370	0.189196
H175	H	0.633767	-0.264532	-0.204429
H176	H	1.133767	0.235468	0.295571
H177	H	0.984341	-0.944128	-0.374606
H178	H	1.484341	-0.444128	0.125394
O179	O	0.971754	-0.385199	-0.532379
O180	O	1.471754	0.114801	-0.032379
H181	H	0.938796	-0.413042	-0.566107
H182	H	1.438796	0.086958	-0.066107
H183	H	1.156282	-0.229119	-0.944756
H184	H	1.656282	0.270881	-0.444756
O185	O	0.971767	-0.385058	-0.936019
O186	O	1.471767	0.114942	-0.436019
H187	H	0.938810	-0.412901	-0.969748
H188	H	1.438810	0.087099	-0.469748
O189	O	1.058064	-0.419168	-0.870248
O190	O	1.558064	0.080832	-0.370248
H191	H	1.053958	-0.458431	-0.836501
H192	H	1.553958	0.041569	-0.336501
O193	O	1.168796	-0.218674	-0.532475
O194	O	1.668796	0.281326	-0.032475
H195	H	1.206455	-0.246733	-0.502681
H196	H	1.706455	0.253267	-0.002681
O197	O	1.058061	-0.419216	-0.734234
O198	O	1.558061	0.080784	-0.234234
H199	H	1.053978	-0.458458	-0.767974
H200	H	1.553978	0.041542	-0.267974
O201	O	0.500559	-0.417337	-0.327995
O202	O	1.000559	0.082663	0.172005
H203	H	0.466555	-0.451770	-0.301911
H204	H	0.966555	0.048230	0.198089
H205	H	1.156336	-1.062795	-0.229380
H206	H	1.656336	-0.562795	0.270620
H207	H	1.191279	-0.742207	-0.293077
H208	H	1.691279	-0.242207	0.206923
O209	O	0.641995	-0.387129	-0.220345
O210	O	1.141995	0.112871	0.279655
H211	H	0.623909	-0.352444	-0.184943
H212	H	1.123909	0.147556	0.315057
O213	O	1.168802	-0.935426	-0.218783
O214	O	1.668802	-0.435426	0.281217
H215	H	1.156151	-0.948018	-0.169596
H216	H	1.656151	-0.448018	0.330404
H217	H	0.984306	-0.374582	-0.659754
H218	H	1.484306	0.125418	-0.159754
O219	O	0.640621	-0.417274	-0.328899
O220	O	1.140621	0.082726	0.171101
H221	H	0.701886	-0.419049	-0.327725
H222	H	1.201886	0.080951	0.172275
H223	H	0.507984	-0.381906	-0.235058
H224	H	1.007984	0.118094	0.264942
H225	H	1.156150	-0.659159	-0.229304
H226	H	1.656150	-0.159159	0.270696
H227	H	0.634360	-0.204510	-0.264892
H228	H	1.134360	0.295490	0.235108
H229	H	1.191331	-0.860920	-0.293102
H230	H	1.691331	-0.360920	0.206898
H231	H	0.507131	-0.204230	-0.264973
H232	H	1.007131	0.295770	0.235027
H233	H	0.984398	-1.062840	-0.374630
H234	H	1.484398	-0.562840	0.125370
H235	H	0.635066	-0.316605	-0.405739
H236	H	1.135066	0.183395	0.094261
O237	O	0.499174	-0.267838	-0.189052
O238	O	0.999174	0.232162	0.310948
H239	H	0.462786	-0.309559	-0.191038
H240	H	0.962786	0.190441	0.308962
O241	O	0.499443	-0.222576	-0.390023
O242	O	0.999443	0.277424	0.109977
H243	H	0.462386	-0.202692	-0.353787
H244	H	0.962386	0.297308	0.146213
O245	O	0.640604	-0.219415	-0.385959
O246	O	1.140604	0.280585	0.114041
H247	H	0.676011	-0.200489	-0.348083
H248	H	1.176011	0.299511	0.151917
H249	H	0.507753	-0.320657	-0.404178
H250	H	1.007753	0.179343	0.095822
