data_functionalizedCrystal
_audit_creation_method	'MofGen! by Chris Wilmer'
_symmetry_space_group_name_H-M	'P1'
_symmetry_Int_Tables_number	1
_symmetry_cell_setting	triclinic
loop_
_symmetry_equiv_pos_as_xyz
  x,y,z
_cell_length_a	6.817900
_cell_length_b	11.102288
_cell_length_c	16.305550
_cell_angle_alpha	93.871970
_cell_angle_beta	103.455250
_cell_angle_gamma	108.605689
loop_
_atom_site_label
_atom_site_type_symbol
_atom_site_fract_x
_atom_site_fract_y
_atom_site_fract_z
V1	V	-4.052585	-0.176912	-0.263031
O2	O	-4.012740	0.007398	-0.258024
O3	O	-4.029765	-0.349725	-0.261233
O4	O	-4.003658	-0.174675	-0.377749
O5	O	-4.039028	-0.168864	-0.140702
V6	V	-4.532967	-0.154809	-0.248400
O7	O	-4.320734	-0.225396	-0.295127
O8	O	-4.715015	-0.106325	-0.216304
O9	O	-4.332580	0.018004	-0.250199
O10	O	-4.690209	-0.339118	-0.253407
O11	O	-4.663921	-0.162856	-0.370729
O12	O	-4.358687	-0.157046	-0.133683
C13	C	-3.881006	-0.391838	-0.257083
C14	C	-3.943632	-0.533118	-0.256377
C15	C	-4.156118	-0.605982	-0.260254
C16	C	-4.214953	-0.738730	-0.259597
C17	C	-3.848792	-0.725738	-0.251183
C18	C	-3.789964	-0.592993	-0.251846
C19	C	-3.847703	-0.168542	-0.405710
C20	C	-3.889152	-0.167857	-0.499492
C21	C	-4.039844	-0.165201	-0.840237
C22	C	-3.802622	-0.157315	-0.799308
C23	C	-3.759612	-0.158554	-0.701814
C24	C	-3.965082	-0.166518	-0.671189
C25	C	-4.150803	-0.292033	-0.721816
C26	C	-4.192561	-0.291323	-0.819365
C27	C	-4.077235	-0.048574	-0.794394
C28	C	-4.029158	-0.047581	-0.696551
C29	C	-3.922844	-0.167267	-0.575651
C30	C	-4.082092	-0.164460	-0.935776
C31	C	-4.144682	0.060110	-0.254346
C32	C	-4.061295	0.201389	-0.255057
C33	C	-4.177985	-0.163182	-0.105717
C34	C	-4.115773	-0.163861	-0.011935
H35	H	-3.619679	-0.068308	-0.666790
C36	C	-4.322762	-0.540860	-0.265005
C37	C	-4.259265	-0.447630	-0.192705
C38	C	-4.412744	-0.387630	-0.197049
H39	H	-4.334958	-0.501046	-0.314809
H40	H	-4.457757	-0.603222	-0.267177
H41	H	-4.124308	-0.385278	-0.190541
H42	H	-4.247084	-0.487412	-0.142890
H43	H	-4.547739	-0.449992	-0.199221
H44	H	-4.424928	-0.347823	-0.246856
H45	H	-4.369693	-0.324375	-0.147991
C46	C	-3.643418	-0.036388	-0.815926
C47	C	-3.755538	0.033249	-0.863234
C48	C	-3.608951	0.144645	-0.878576
H49	H	-3.555557	0.015094	-0.763104
H50	H	-3.555804	-0.059549	-0.847083
H51	H	-3.843114	0.056412	-0.832077
H52	H	-3.843390	-0.018195	-0.916065
H53	H	-3.521338	0.121485	-0.909732
H54	H	-3.521098	0.196116	-0.825750
H55	H	-3.685003	0.191902	-0.910682
H56	H	-4.387975	-0.798051	-0.262756
H57	H	-4.169561	-0.379613	-0.849747
H58	H	-3.723689	-0.774504	-0.247491
H59	H	-3.770006	-0.241106	-0.830821
H60	H	-3.616928	-0.533665	-0.248691
H61	H	-3.705805	-0.243312	-0.685520
H62	H	-4.368036	-0.302331	-0.847357
H63	H	-4.305502	-0.302400	-0.702903
H64	H	-4.108518	-0.380347	-0.705003
H65	H	-3.971674	0.046528	-0.807761
C66	C	-3.849438	0.076167	-0.650558
C67	C	-3.813602	0.078331	-0.562275
C68	C	-3.648075	0.192309	-0.519874
H69	H	-3.721806	0.080386	-0.666129
H70	H	-3.889121	0.147804	-0.666101
H71	H	-3.773909	0.006713	-0.546738
H72	H	-3.941188	0.074133	-0.546680
H73	H	-3.687757	0.263946	-0.535417
H74	H	-3.520455	0.196518	-0.535451
H75	H	-3.623751	0.193798	-0.459970
H76	H	-4.176213	-0.046019	-0.675203
H77	H	-4.249994	-0.053235	-0.821209
