data_functionalizedCrystal
_audit_creation_method	'MofGen! by Chris Wilmer'
_symmetry_space_group_name_H-M	'P1'
_symmetry_Int_Tables_number	1
_symmetry_cell_setting	triclinic
loop_
_symmetry_equiv_pos_as_xyz
  x,y,z
_cell_length_a	10.686220
_cell_length_b	10.686285
_cell_length_c	10.685880
_cell_angle_alpha	89.638885
_cell_angle_beta	89.641569
_cell_angle_gamma	90.345431
loop_
_atom_site_label
_atom_site_type_symbol
_atom_site_fract_x
_atom_site_fract_y
_atom_site_fract_z
Zn1	Zn	1.999728	-0.389334	-0.530460
Zn2	Zn	2.499728	0.110666	-0.030460
Zn3	Zn	1.997195	-0.583279	-0.304810
Zn4	Zn	2.497195	-0.083279	0.195190
Zn5	Zn	1.774036	-0.391875	-0.336574
Zn6	Zn	2.274036	0.108125	0.163426
Zn7	Zn	1.805850	-0.614981	-0.527983
Zn8	Zn	2.305850	-0.114981	-0.027983
O9	O	1.894202	-0.494867	-0.424957
O10	O	2.394202	0.005133	0.075043
O11	O	2.173923	-0.400730	-0.488270
O12	O	2.673923	0.099270	0.011730
O13	O	1.953219	-0.545686	-0.134483
O14	O	2.453219	-0.045686	0.365517
O15	O	1.791721	-0.217001	-0.376623
O16	O	2.291721	0.282999	0.123377
O17	O	2.172063	-0.543221	-0.322486
O18	O	2.672063	-0.043221	0.177514
O19	O	1.957535	-0.215133	-0.519070
O20	O	2.457535	0.284867	-0.019070
O21	O	1.789265	-0.405062	-0.157820
O22	O	2.289265	0.094938	0.342180
O23	O	1.603725	-0.435802	-0.374222
O24	O	2.103725	0.064198	0.125778
O25	O	1.845942	-0.597252	-0.702853
O26	O	2.345942	-0.097252	-0.202853
O27	O	1.627098	-0.599717	-0.514849
O28	O	2.127098	-0.099717	-0.014849
O29	O	1.988383	-0.431470	-0.704672
O30	O	2.488383	0.068530	-0.204672
O31	O	1.984067	-0.762022	-0.320085
O32	O	2.484067	-0.262022	0.179915
O33	O	1.843486	-0.785313	-0.484049
O34	O	2.343486	-0.285313	0.015951
C35	C	1.570158	-0.521476	-0.447714
C36	C	2.070158	-0.021476	0.052286
C37	C	1.431534	-0.532892	-0.457477
C38	C	1.931534	-0.032892	0.042523
C39	C	1.916990	-0.818922	-0.398376
C40	C	2.416990	-0.318922	0.101624
C41	C	1.926856	-0.957548	-0.387038
C42	C	2.426856	-0.457548	0.112962
C43	C	2.219512	-0.468155	-0.402111
C44	C	2.719512	0.031845	0.097889
C45	C	2.358140	-0.456772	-0.392376
C46	C	2.858140	0.043228	0.107624
C47	C	1.920993	-0.517614	-0.750284
C48	C	2.420993	-0.017614	-0.250284
C49	C	1.932410	-0.527307	-0.888919
C50	C	2.432410	-0.027307	-0.388919
C51	C	1.871362	-0.169546	-0.451666
C52	C	2.371362	0.330454	0.048334
C53	C	1.861628	-0.030914	-0.463048
C54	C	2.361628	0.469086	0.036952
C55	C	1.867581	-0.472114	-0.100897
C56	C	2.367581	0.027886	0.399103
C57	C	1.856381	-0.462049	0.037725
C58	C	2.356381	0.037951	0.537725
H59	H	1.388314	-0.606806	-0.520679
H60	H	1.888314	-0.106806	-0.020679
H61	H	1.990242	-1.000795	-0.313276
H62	H	2.490242	-0.500795	0.186724
H63	H	2.006246	-0.590598	-0.932182
H64	H	2.506246	-0.090598	-0.432182
H65	H	1.782545	-0.398767	-0.919018
H66	H	2.282545	0.101233	-0.419018
C67	C	1.775998	-0.972513	-0.562691
C68	C	2.275998	-0.472513	-0.062691
H69	H	1.736393	-1.037126	-0.608851
H70	H	2.236393	-0.537126	-0.108851
H71	H	1.824566	-0.921516	-0.617840
H72	H	2.324566	-0.421516	-0.117840
H73	H	1.714187	-0.922875	-0.522847
H74	H	2.214187	-0.422875	-0.022847
H75	H	1.401355	-0.382871	-0.329169
H76	H	1.901355	0.117129	0.170831
