data_functionalizedCrystal
_audit_creation_method	'MofGen! by Chris Wilmer'
_symmetry_space_group_name_H-M	'P1'
_symmetry_Int_Tables_number	1
_symmetry_cell_setting	triclinic
loop_
_symmetry_equiv_pos_as_xyz
  x,y,z
_cell_length_a	6.817900
_cell_length_b	17.982959
_cell_length_c	9.514088
_cell_angle_alpha	91.864726
_cell_angle_beta	118.843545
_cell_angle_gamma	102.451857
loop_
_atom_site_label
_atom_site_type_symbol
_atom_site_fract_x
_atom_site_fract_y
_atom_site_fract_z
V1	V	-4.212572	-0.106765	-0.501422
V2	V	-3.712572	0.393235	-0.001422
O3	O	-4.201534	0.003741	-0.491187
O4	O	-3.701534	0.503741	0.008813
O5	O	-4.158024	-0.210360	-0.498657
O6	O	-3.658024	0.289640	0.001343
O7	O	-4.247398	-0.105733	-0.719807
O8	O	-3.747398	0.394267	-0.219807
O9	O	-4.111541	-0.101611	-0.268506
O10	O	-3.611541	0.398389	0.231494
V11	V	-4.686213	-0.093475	-0.473483
V12	V	-4.186213	0.406525	0.026517
O13	O	-4.495509	-0.135917	-0.562709
O14	O	-3.995509	0.364083	-0.062709
O15	O	-4.853474	-0.064323	-0.412196
O16	O	-4.353474	0.435677	0.087804
O17	O	-4.517555	0.010120	-0.476249
O18	O	-4.017555	0.510120	0.023751
O19	O	-4.814648	-0.203981	-0.483718
O20	O	-4.314648	0.296019	0.016282
O21	O	-4.904641	-0.098629	-0.706399
O22	O	-4.404641	0.401371	-0.206399
O23	O	-4.428181	-0.094508	-0.255098
O24	O	-3.928181	0.405492	0.244902
C25	C	-3.998836	-0.235596	-0.490918
C26	C	-3.498836	0.264404	0.009082
C27	C	-4.036078	-0.320290	-0.490112
C28	C	-3.536078	0.179710	0.009888
C29	C	-4.238553	-0.363982	-0.497769
C30	C	-3.738553	0.136018	0.002231
C31	C	-4.273540	-0.443562	-0.497022
C32	C	-3.773540	0.056438	0.002978
C33	C	-4.106042	-0.479448	-0.488606
C34	C	-3.606042	0.020552	0.011394
C35	C	-3.903553	-0.435750	-0.480953
C36	C	-3.403553	0.064250	0.019047
C37	C	-3.868576	-0.356173	-0.481712
C38	C	-3.368576	0.143827	0.018288
C39	C	-4.044607	-0.756678	-0.477894
C40	C	-3.544607	-0.256678	0.022106
C41	C	-4.079597	-0.836261	-0.477130
C42	C	-3.579597	-0.336261	0.022870
C43	C	-4.449571	-0.844067	-0.493204
C44	C	-3.949571	-0.344067	0.006796
C45	C	-4.414595	-0.764489	-0.493963
C46	C	-3.914595	-0.264489	0.006037
C47	C	-4.212116	-0.720800	-0.486318
C48	C	-3.712116	-0.220800	0.013682
C49	C	-4.174183	-0.634510	-0.487132
C50	C	-3.674183	-0.134510	0.012868
C51	C	-4.143964	-0.565735	-0.487780
C52	C	-3.643964	-0.065735	0.012220
C53	C	-4.112839	-0.102132	-0.773015
C54	C	-3.612839	0.397868	-0.273015
C55	C	-4.222556	-0.101973	-0.951550
C56	C	-3.722556	0.398027	-0.451550
C57	C	-4.340083	0.035351	-0.483983
C58	C	-3.840083	0.535351	0.016017
C59	C	-4.282083	0.120045	-0.484799
C60	C	-3.782083	0.620045	0.015201
C61	C	-4.226078	-0.098111	-0.201882
C62	C	-3.726078	0.401889	0.298118
C63	C	-4.095600	-0.098266	-0.023345
C64	C	-3.595600	0.401734	0.476655
H65	H	-3.943195	-0.865477	-0.470287
H66	H	-3.443195	-0.365477	0.029713
Br67	Br	-3.676239	-0.484453	-0.469546
Br68	Br	-3.176239	0.015547	0.030454
Br69	Br	-4.465884	-0.315287	-0.509181
Br70	Br	-3.965884	0.184713	-0.009181
H71	H	-4.415200	-0.105027	-1.026677
H72	H	-3.915200	0.394973	-0.526677
Br73	Br	-4.548340	-0.502856	-0.507417
Br74	Br	-4.048340	-0.002856	-0.007417
H75	H	-4.614445	-0.879649	-0.499431
H76	H	-4.114445	-0.379649	0.000569
Br77	Br	-4.641906	-0.715789	-0.505357
Br78	Br	-4.141906	-0.215789	-0.005357
Br79	Br	-3.593788	-0.296877	-0.471336
Br80	Br	-3.093788	0.203123	0.028664
Br81	Br	-3.769812	-0.697394	-0.467509
Br82	Br	-3.269812	-0.197394	0.032491
Br83	Br	-3.774540	-0.093192	-0.898155
Br84	Br	-3.274540	0.406808	-0.398155
