data_functionalizedCrystal
_audit_creation_method	'MofGen! by Chris Wilmer'
_symmetry_space_group_name_H-M	'P1'
_symmetry_Int_Tables_number	1
_symmetry_cell_setting	triclinic
loop_
_symmetry_equiv_pos_as_xyz
  x,y,z
_cell_length_a	14.519731
_cell_length_b	23.532357
_cell_length_c	12.996460
_cell_angle_alpha	89.988323
_cell_angle_beta	89.994327
_cell_angle_gamma	83.258572
loop_
_atom_site_label
_atom_site_type_symbol
_atom_site_fract_x
_atom_site_fract_y
_atom_site_fract_z
O1	O	1.222951	0.074713	-0.085582
O2	O	1.722951	0.574713	0.414418
O3	O	0.954370	0.083492	-0.085585
O4	O	1.454370	0.583492	0.414415
O5	O	1.096784	-0.003794	-0.085562
O6	O	1.596784	0.496206	0.414438
O7	O	1.080538	0.162000	-0.085605
O8	O	1.580538	0.662000	0.414395
O9	O	1.096769	-0.003799	0.085571
O10	O	1.596769	0.496201	0.585571
O11	O	0.954356	0.083488	0.085549
O12	O	1.454356	0.583488	0.585549
O13	O	1.222936	0.074709	0.085552
O14	O	1.722936	0.574709	0.585552
Cu15	Cu	1.088645	0.079098	0.101176
Cu16	Cu	1.588645	0.579098	0.601176
Cu17	Cu	1.088662	0.079103	-0.101209
Cu18	Cu	1.588662	0.579103	0.398791
O19	O	1.080523	0.161995	0.085529
O20	O	1.580523	0.661995	0.585529
C21	C	0.920009	0.083079	-0.000018
C22	C	1.420009	0.583079	0.499982
C23	C	0.817643	0.081846	-0.000019
C24	C	1.317643	0.581846	0.499981
C25	C	0.734511	0.080844	-0.000022
C26	C	1.234511	0.580844	0.499978
C27	C	0.630218	0.079593	-0.000023
C28	C	1.130218	0.579593	0.499977
C29	C	0.547091	0.078600	-0.000022
C30	C	1.047091	0.578600	0.499978
C31	C	0.442790	0.077348	-0.000024
C32	C	0.942790	0.577348	0.499976
C33	C	1.096370	-0.025015	0.000008
C34	C	1.596370	0.474985	0.500008
C35	C	1.095148	-0.088239	0.000017
C36	C	1.595148	0.411761	0.500017
C37	C	1.087486	-0.480282	-0.093323
C38	C	1.587486	0.019718	0.406677
C39	C	1.086325	-0.539687	-0.093329
C40	C	1.586325	-0.039687	0.406671
O41	O	1.085700	-0.570404	-0.172664
O42	O	1.585700	-0.070404	0.327336
N43	N	1.085741	-0.569404	-0.000045
N44	N	1.585741	-0.069404	0.499955
C45	C	1.086309	-0.539711	0.093250
C46	C	1.586309	-0.039711	0.593250
O47	O	1.085705	-0.570442	0.172595
O48	O	1.585705	-0.070442	0.672595
C49	C	1.087464	-0.480307	0.093255
C50	C	1.587464	0.019693	0.593255
C51	C	1.088057	-0.450595	-0.000035
C52	C	1.588057	0.049405	0.499965
C53	C	1.088078	-0.450570	-0.186606
C54	C	1.588078	0.049430	0.313394
C55	C	1.089242	-0.391169	-0.186599
C56	C	1.589242	0.108831	0.313401
C57	C	1.089812	-0.361481	-0.093311
C58	C	1.589812	0.138519	0.406689
C59	C	1.089220	-0.391194	-0.000028
C60	C	1.589220	0.108806	0.499972
C61	C	1.088025	-0.450616	0.186550
C62	C	1.588025	0.049384	0.686550
C63	C	1.089179	-0.391207	0.186547
C64	C	1.589179	0.108793	0.686547
C65	C	1.089773	-0.361495	0.093257
C66	C	1.589773	0.138505	0.593257
C67	C	1.090954	-0.302106	0.093266
C68	C	1.590954	0.197894	0.593266
N69	N	1.091538	-0.272389	-0.000017
N70	N	1.591538	0.227611	0.499983
C71	C	1.090967	-0.302077	-0.093306
C72	C	1.590967	0.197923	0.406694
C73	C	1.083882	-0.664464	0.093233
C74	C	1.583882	-0.164464	0.593233
C75	C	1.082734	-0.723868	0.093229
C76	C	1.582734	-0.223868	0.593229
C77	C	1.082748	-0.723839	-0.093350
C78	C	1.582748	-0.223839	0.406650
C79	C	1.083903	-0.664435	-0.093346
C80	C	1.583903	-0.164435	0.406654
C81	C	1.084466	-0.634748	-0.000051
C82	C	1.584466	-0.134748	0.499949
C83	C	1.093410	-0.177332	-0.093286
C84	C	1.593410	0.322668	0.406714
C85	C	1.094577	-0.117926	-0.093271
C86	C	1.594577	0.382074	0.406729
C87	C	1.094558	-0.117960	0.093308
C88	C	1.594558	0.382040	0.593308
C89	C	1.093396	-0.177361	0.093294
C90	C	1.593396	0.322639	0.593294
C91	C	1.092819	-0.207045	-0.000011
C92	C	1.592819	0.292955	0.499989
O93	O	1.091576	-0.271351	0.172561
O94	O	1.591576	0.228649	0.672561
O95	O	1.091559	-0.271338	-0.172637
O96	O	1.591559	0.228662	0.327363
C97	C	1.257298	0.075122	-0.000017
C98	C	1.757298	0.575122	0.499983
C99	C	1.359663	0.076355	-0.000024
C100	C	1.859663	0.576355	0.499976
C101	C	1.080937	0.183216	-0.000043
C102	C	1.580937	0.683216	0.499957
C103	C	1.082158	0.246440	-0.000060
C104	C	1.582158	0.746440	0.499940
N105	N	1.088639	0.079093	0.243523
N106	N	1.588639	0.579093	0.743523
N107	N	1.088675	0.079103	-0.243557
N108	N	1.588675	0.579103	0.256443
C109	C	1.088661	0.079104	0.663337
C110	C	1.588661	0.579104	1.163337
C111	C	1.088652	0.079103	0.546532
C112	C	1.588652	0.579103	1.046532
C113	C	1.088650	0.079099	0.453434
C114	C	1.588650	0.579099	0.953434
C115	C	1.088641	0.079097	0.336621
C116	C	1.588641	0.579097	0.836621
H117	H	1.095063	-0.093737	-0.169242
H118	H	1.595063	0.406263	0.330758
Br119	Br	1.089942	-0.350921	0.313169
Br120	Br	1.589942	0.149079	0.813169
Br121	Br	1.081968	-0.764141	-0.219958
Br122	Br	1.581968	-0.264141	0.280042
Br123	Br	1.090040	-0.350853	-0.313214
Br124	Br	1.590040	0.149147	0.186786
H125	H	1.084385	-0.640247	-0.169311
H126	H	1.584385	-0.140247	0.330689
H127	H	1.082265	-0.748056	0.169195
H128	H	1.582265	-0.248056	0.669195
Br129	Br	1.095336	-0.077658	0.219908
Br130	Br	1.595336	0.422342	0.719908
H131	H	1.087610	-0.474735	-0.262576
H132	H	1.587610	0.025265	0.237424
Br133	Br	1.084653	-0.624181	0.219860
Br134	Br	1.584653	-0.124181	0.719860
H135	H	1.087544	-0.474798	0.262517
H136	H	1.587544	0.025202	0.762517
Br137	Br	1.092627	-0.217608	-0.219915
Br138	Br	1.592627	0.282392	0.280085
Br139	Br	1.092613	-0.217688	0.219902
Br140	Br	1.592613	0.282312	0.719902
