data_functionalizedCrystal
_audit_creation_method	'MofGen! by Chris Wilmer'
_symmetry_space_group_name_H-M	'P1'
_symmetry_Int_Tables_number	1
_symmetry_cell_setting	triclinic
loop_
_symmetry_equiv_pos_as_xyz
  x,y,z
_cell_length_a	13.033293
_cell_length_b	16.959453
_cell_length_c	13.032268
_cell_angle_alpha	82.853932
_cell_angle_beta	90.920818
_cell_angle_gamma	97.189435
loop_
_atom_site_label
_atom_site_type_symbol
_atom_site_fract_x
_atom_site_fract_y
_atom_site_fract_z
Zn1	Zn	1.498450	-0.245915	0.781469
Zn2	Zn	1.998450	0.254085	1.281469
Zn3	Zn	1.520188	-0.359505	0.609490
Zn4	Zn	2.020188	0.140495	1.109490
Zn5	Zn	1.348311	-0.241741	0.587645
Zn6	Zn	1.848311	0.258259	1.087645
Zn7	Zn	1.326437	-0.392456	0.759528
Zn8	Zn	1.826437	0.107544	1.259528
O9	O	1.423347	-0.309905	0.684533
O10	O	1.923347	0.190095	1.184533
O11	O	1.645253	-0.248940	0.776980
O12	O	2.145253	0.251060	1.276980
O13	O	1.515639	-0.328347	0.462685
O14	O	2.015639	0.171653	0.962685
O15	O	1.368284	-0.131682	0.613396
O16	O	1.868284	0.368318	1.113396
O17	O	1.661224	-0.332394	0.650628
O18	O	2.161224	0.167606	1.150628
O19	O	1.478591	-0.134749	0.755798
O20	O	1.978591	0.365251	1.255798
O21	O	1.389362	-0.241826	0.446635
O22	O	1.889362	0.258174	0.946635
O23	O	1.201490	-0.273777	0.592121
O24	O	1.701490	0.226223	1.092121
O25	O	1.331004	-0.388554	0.906346
O26	O	1.831004	0.111446	1.406346
O27	O	1.185419	-0.384506	0.718403
O28	O	1.685419	0.115494	1.218403
O29	O	1.457381	-0.280891	0.922466
O30	O	1.957381	0.219109	1.422466
O31	O	1.494429	-0.474489	0.629353
O32	O	1.994429	0.025511	1.129353
O33	O	1.352081	-0.498698	0.739585
O34	O	1.852081	0.001302	1.239585
C35	C	1.156138	-0.332265	0.650511
C36	C	1.656138	0.167735	1.150511
C37	C	1.041822	-0.341853	0.635981
C38	C	1.541822	0.158147	1.135981
C39	C	0.982942	-0.304921	0.692116
C40	C	1.482942	0.195079	1.192116
C41	C	0.864790	-0.314829	0.677100
C42	C	1.364790	0.185171	1.177100
C43	C	1.423266	-0.515274	0.684484
C44	C	1.923266	-0.015274	1.184484
C45	C	1.423321	-0.603128	0.684510
C46	C	1.923321	-0.103128	1.184510
C47	C	1.480852	-0.976148	0.758816
C48	C	1.980852	-0.476148	1.258816
C49	C	1.366109	-0.973051	0.610439
C50	C	1.866109	-0.473051	1.110439
C51	C	1.366074	-0.890505	0.610410
C52	C	1.866074	-0.390505	1.110410
C53	C	1.423427	-0.850778	0.684587
C54	C	1.923427	-0.350778	1.184587
C55	C	1.480816	-0.893595	0.758792
C56	C	1.980816	-0.393595	1.258792
C57	C	1.308678	-0.847683	0.536213
C58	C	1.808678	-0.347683	1.036213
C59	C	1.308640	-0.765133	0.536182
C60	C	1.808640	-0.265133	1.036182
C61	C	1.366000	-0.725403	0.610355
C62	C	1.866000	-0.225403	1.110355
C63	C	1.423392	-0.768225	0.684563
C64	C	1.923392	-0.268225	1.184563
C65	C	1.480745	-0.728498	0.758739
C66	C	1.980745	-0.228498	1.258739
C67	C	1.538143	-0.771318	0.832943
C68	C	2.038143	-0.271318	1.332943
C69	C	1.538176	-0.853865	0.832965
C70	C	2.038176	-0.353865	1.332965
C71	C	1.365967	-0.642855	0.610333
C72	C	1.865967	-0.142855	1.110333
C73	C	1.480709	-0.645945	0.758715
C74	C	1.980709	-0.145945	1.258715
C75	C	1.691599	-0.287457	0.718688
C76	C	2.191599	0.212543	1.218688
C77	C	1.805912	-0.277892	0.733243
C78	C	2.305912	0.222108	1.233243
C79	C	1.389328	-0.338864	0.952763
C80	C	1.889328	0.161136	1.452763
C81	C	1.374831	-0.351204	1.067067
C82	C	1.874831	0.148796	1.567067
C83	C	1.423453	-0.103733	0.684608
C84	C	1.923453	0.396267	1.184608
C85	C	1.423498	-0.015875	0.684640
C86	C	1.923498	0.484125	1.184640
C87	C	1.457292	-0.280996	0.417354
C88	C	1.957292	0.219004	0.917354
C89	C	1.471988	-0.268416	0.303076
C90	C	1.971988	0.231584	0.803076
C91	C	1.430897	-0.303437	1.126003
C92	C	1.930897	0.196563	1.626003
C93	C	1.415915	-0.316190	1.244142
C94	C	1.915915	0.183810	1.744142
H95	H	0.827733	-0.353784	0.617917
H96	H	1.327733	0.146216	1.117917
F97	F	1.247550	-0.719569	0.457211
F98	F	1.747550	-0.219569	0.957211
H99	H	1.020004	-0.265963	0.751289
H100	H	1.520004	0.234037	1.251289
H101	H	1.584906	-0.888736	0.893379
H102	H	2.084906	-0.388736	1.393379
H103	H	0.842968	-0.238930	0.792419
H104	H	1.342968	0.261070	1.292419
H105	H	1.527418	-0.613603	0.819116
H106	H	2.027418	-0.113603	1.319116
F107	F	0.993386	-0.392765	0.558626
F108	F	1.493386	0.107235	1.058626
F109	F	1.599172	-0.729029	0.911892
F110	F	2.099172	-0.229029	1.411892
H111	H	1.527587	-1.011015	0.819229
H112	H	2.027587	-0.511015	1.319229
F113	F	1.305059	-1.015336	0.531511
F114	F	1.805059	-0.515336	1.031511
F115	F	1.247624	-0.889971	0.457290
F116	F	1.747624	-0.389971	0.957290
F117	F	1.508115	-0.237626	1.077638
F118	F	2.008115	0.262374	1.577638
H119	H	1.319229	-0.607996	0.549922
H120	H	1.819229	-0.107996	1.049922
H121	H	1.356812	-0.366527	1.281141
H122	H	1.856812	0.133473	1.781141
H123	H	1.315732	-0.401537	1.104071
H124	H	1.815732	0.098463	1.604071
F125	F	1.549243	-0.202623	1.254723
F126	F	2.049243	0.297377	1.754723
