data_functionalizedCrystal
_audit_creation_method	'MofGen! by Chris Wilmer'
_symmetry_space_group_name_H-M	'P1'
_symmetry_Int_Tables_number	1
_symmetry_cell_setting	triclinic
loop_
_symmetry_equiv_pos_as_xyz
  x,y,z
_cell_length_a	21.295419
_cell_length_b	21.295416
_cell_length_c	21.395356
_cell_angle_alpha	90.028650
_cell_angle_beta	89.983518
_cell_angle_gamma	89.954868
loop_
_atom_site_label
_atom_site_type_symbol
_atom_site_fract_x
_atom_site_fract_y
_atom_site_fract_z
Zn1	Zn	0.962306	0.250373	-0.354259
Zn2	Zn	1.295640	0.583707	-0.020926
Zn3	Zn	1.628973	0.917040	0.312407
Zn4	Zn	0.962224	0.355643	-0.249481
Zn5	Zn	1.295557	0.688976	0.083852
Zn6	Zn	1.628890	1.022309	0.417186
Zn7	Zn	0.857044	0.250419	-0.249496
Zn8	Zn	1.190378	0.583752	0.083837
Zn9	Zn	1.523711	0.917085	0.417171
Zn10	Zn	0.856999	0.355636	-0.354221
Zn11	Zn	1.190333	0.688969	-0.020888
Zn12	Zn	1.523666	1.022303	0.312445
O13	O	0.909643	0.303018	-0.301864
O14	O	1.242977	0.636351	0.031469
O15	O	1.576310	0.969684	0.364802
O16	O	1.050385	0.264322	-0.340370
O17	O	1.383718	0.597655	-0.007037
O18	O	1.717051	0.930988	0.326297
O19	O	0.948256	0.341706	-0.161805
O20	O	1.281589	0.675040	0.171528
O21	O	1.614923	1.008373	0.504862
O22	O	0.871061	0.162323	-0.263415
O23	O	1.204394	0.495656	0.069918
O24	O	1.537728	0.828990	0.403251
O25	O	1.050324	0.341663	-0.263390
O26	O	1.383657	0.674996	0.069944
O27	O	1.716991	1.008329	0.403277
O28	O	0.948396	0.162290	-0.340385
O29	O	1.281730	0.495623	-0.007051
O30	O	1.615063	0.828957	0.326282
O31	O	0.870981	0.264398	-0.161816
O32	O	1.204314	0.597732	0.171517
O33	O	1.537648	0.931065	0.504851
O34	O	0.768949	0.264392	-0.263378
O35	O	1.102282	0.597725	0.069955
O36	O	1.435616	0.931059	0.403288
O37	O	0.870984	0.341651	-0.441904
O38	O	1.204317	0.674984	-0.108571
O39	O	1.537651	1.008318	0.224763
O40	O	0.768916	0.341695	-0.340320
O41	O	1.102249	0.675028	-0.006986
O42	O	1.435582	1.008361	0.326347
O43	O	0.948353	0.264315	-0.441932
O44	O	1.281686	0.597648	-0.108599
O45	O	1.615019	0.930982	0.224734
O46	O	0.948212	0.443731	-0.263353
O47	O	1.281545	0.777065	0.069981
O48	O	1.614879	1.110398	0.403314
O49	O	0.870904	0.443726	-0.340305
O50	O	1.204237	0.777060	-0.006972
O51	O	1.537571	1.110393	0.326362
C52	C	0.746092	0.303048	-0.301847
C53	C	1.079425	0.636381	0.031487
C54	C	1.412758	0.969715	0.364820
C55	C	0.676124	0.303076	-0.301854
C56	C	1.009457	0.636409	0.031479
C57	C	1.342790	0.969743	0.364813
C58	C	0.909561	0.466569	-0.301837
C59	C	1.242895	0.799903	0.031497
C60	C	1.576228	1.133236	0.364830
C61	C	0.909584	0.536537	-0.301846
C62	C	1.242917	0.869871	0.031487
C63	C	1.576251	1.203204	0.364821
C64	C	0.643311	0.262870	-0.342000
C65	C	0.976644	0.596204	-0.008666
C66	C	1.309978	0.929537	0.324667
C67	C	0.577569	0.262853	-0.342002
C68	C	0.910902	0.596187	-0.008669
C69	C	1.244235	0.929520	0.324665
C70	C	0.544641	0.303053	-0.301866
C71	C	0.877974	0.636387	0.031468
C72	C	1.211308	0.969720	0.364801
C73	C	0.577462	0.343262	-0.261712
C74	C	0.910795	0.676595	0.071621
C75	C	1.244128	1.009928	0.404954
C76	C	0.643203	0.343273	-0.261707
C77	C	0.976536	0.676606	0.071627
C78	C	1.309870	1.009940	0.404960
N79	N	0.441367	0.358131	-0.296971
N80	N	0.774700	0.691465	0.036362
N81	N	1.108033	1.024798	0.369695
N82	N	0.378915	0.358119	-0.296980
N83	N	0.712248	0.691452	0.036353
N84	N	1.045582	1.024786	0.369686
C85	C	0.346566	0.303021	-0.301879
C86	C	0.679900	0.636354	0.031454
C87	C	1.013233	0.969687	0.364787
N88	N	0.379028	0.247934	-0.306781
N89	N	0.712362	0.581268	0.026552
N90	N	1.045695	0.914601	0.359885
N91	N	0.441486	0.247948	-0.306776
N92	N	0.774819	0.581281	0.026558
N93	N	1.108152	0.914614	0.359891
C94	C	0.473356	0.303045	-0.301867
C95	C	0.806689	0.636379	0.031466
C96	C	1.140022	0.969712	0.364800
C97	C	0.242468	0.262794	-0.342030
C98	C	0.575802	0.596127	-0.008696
C99	C	0.909135	0.929460	0.324637
C100	C	0.176725	0.262776	-0.342028
C101	C	0.510058	0.596109	-0.008694
C102	C	0.843391	0.929442	0.324639
C103	C	0.176619	0.343189	-0.261741
C104	C	0.509952	0.676523	0.071592
C105	C	0.843286	1.009856	0.404925
C106	C	0.242362	0.343202	-0.261740
C107	C	0.575695	0.676535	0.071593
C108	C	0.909028	1.009868	0.404927
C109	C	0.275282	0.303005	-0.301887
C110	C	0.608616	0.636338	0.031446
C111	C	0.941949	0.969671	0.364779
C112	C	0.949874	0.569386	-0.261819
C113	C	1.283207	0.902719	0.071514
C114	C	1.616541	1.236052	0.404847
C115	C	0.949904	0.635128	-0.261836
C116	C	1.283237	0.968462	0.071497
C117	C	1.616570	1.301795	0.404830
C118	C	0.909632	0.668020	-0.301873
C119	C	1.242965	1.001353	0.031460
C120	C	1.576299	1.334687	0.364794
C121	C	0.869339	0.635164	-0.341907
C122	C	1.202672	0.968497	-0.008574
C123	C	1.536006	1.301830	0.324759
C124	C	0.869315	0.569422	-0.341894
C125	C	1.202648	0.902756	-0.008560
C126	C	1.535982	1.236089	0.324773
N127	N	0.854565	0.771300	-0.306648
N128	N	1.187898	1.104633	0.026685
N129	N	1.521231	1.437967	0.360019
N130	N	0.854589	0.833751	-0.306657
N131	N	1.187923	1.167085	0.026676
N132	N	1.521256	1.500418	0.360009
C133	C	0.909703	0.866095	-0.301918
C134	C	1.243037	1.199428	0.031416
C135	C	1.576370	1.532761	0.364749
N136	N	0.964793	0.833627	-0.297156
N137	N	1.298126	1.166960	0.036178
N138	N	1.631459	1.500294	0.369511
N139	N	0.964767	0.771170	-0.297143
N140	N	1.298101	1.104503	0.036190
N141	N	1.631434	1.437837	0.369523
C142	C	0.909654	0.739305	-0.301893
C143	C	1.242987	1.072639	0.031441
C144	C	1.576321	1.405972	0.364774
C145	C	0.950029	0.970228	-0.261907
C146	C	1.283362	1.303562	0.071426
C147	C	1.616696	1.636895	0.404759
C148	C	0.950060	1.035972	-0.261929
C149	C	1.283393	1.369305	0.071405
C150	C	1.616726	1.702639	0.404738
C151	C	0.869489	1.036006	-0.341996
C152	C	1.202823	1.369340	-0.008663
C153	C	1.536156	1.702673	0.324670
C154	C	0.869464	0.970264	-0.341978
C155	C	1.202798	1.303597	-0.008645
C156	C	1.536131	1.636930	0.324688
C157	C	0.909733	0.937379	-0.301930
C158	C	1.243066	1.270712	0.031403
C159	C	1.576400	1.604045	0.364736
C160	C	1.073834	0.302988	-0.301882
C161	C	1.407167	0.636321	0.031451
C162	C	1.740500	0.969654	0.364784
C163	C	1.143802	0.302975	-0.301890
C164	C	1.477135	0.636308	0.031443
C165	C	1.810468	0.969642	0.364777
C166	C	0.909673	0.302977	-0.465288
C167	C	1.243006	0.636311	-0.131954
C168	C	1.576339	0.969644	0.201379
C169	C	0.909685	0.302960	-0.534929
C170	C	1.243018	0.636293	-0.201596
C171	C	1.576352	0.969627	0.131738
C172	C	0.909744	1.138827	-0.301917
C173	C	1.243077	1.472161	0.031417
C174	C	1.576410	1.805494	0.364750
C175	C	0.909788	1.068859	-0.301967
C176	C	1.243122	1.402193	0.031367
C177	C	1.576455	1.735526	0.364700
C178	C	0.950030	0.262591	-1.036741
C179	C	1.283363	0.595924	-0.703408
C180	C	1.616697	0.929258	-0.370074
C181	C	0.950025	0.262606	-0.971306
C182	C	1.283358	0.595939	-0.637972
C183	C	1.616692	0.929273	-0.304639
C184	C	0.909739	0.302876	-0.938568
C185	C	1.243072	0.636209	-0.605234
C186	C	1.576406	0.969543	-0.271901
C187	C	0.869466	0.343145	-0.971270
C188	C	1.202800	0.676479	-0.637937
C189	C	1.536133	1.009812	-0.304604
C190	C	0.869477	0.343134	-1.036705
C191	C	1.202810	0.676467	-0.703371
C192	C	1.536143	1.009800	-0.370038
C193	C	0.853005	0.307876	-0.834891
C194	C	1.186338	0.641209	-0.501558
C195	C	1.519672	0.974543	-0.168225
C196	C	0.852993	0.307883	-0.769458
C197	C	1.186327	0.641217	-0.436125
C198	C	1.519660	0.974550	-0.102792
C199	C	0.909707	0.302916	-0.736747
C200	C	1.243040	0.636250	-0.403413
C201	C	1.576373	0.969583	-0.070080
C202	C	0.966433	0.297929	-0.769476
C203	C	1.299767	0.631262	-0.436143
C204	C	1.633100	0.964595	-0.102809
C205	C	0.966444	0.297917	-0.834910
C206	C	1.299777	0.631250	-0.501577
C207	C	1.633111	0.964584	-0.168243
C208	C	0.909723	0.302894	-0.867615
C209	C	1.243057	0.636227	-0.534282
C210	C	1.576390	0.969560	-0.200948
C211	C	0.949975	0.262669	-0.633099
C212	C	1.283308	0.596003	-0.299766
C213	C	1.616641	0.929336	0.033567
C214	C	0.949971	0.262689	-0.567663
C215	C	1.283304	0.596022	-0.234329
C216	C	1.616637	0.929355	0.099004
C217	C	0.869406	0.343225	-0.567629
C218	C	1.202740	0.676558	-0.234295
C219	C	1.536073	1.009892	0.099038
C220	C	0.869416	0.343209	-0.633064
C221	C	1.202749	0.676542	-0.299731
C222	C	1.536082	1.009875	0.033603
C223	C	0.909699	0.302927	-0.665795
C224	C	1.243032	0.636261	-0.332462
C225	C	1.576366	0.969594	0.000871
C226	C	0.909651	0.303013	-0.139077
C227	C	1.242984	0.636346	0.194257
C228	C	1.576317	0.969679	0.527590
C229	C	0.909760	0.302852	-0.069436
C230	C	1.243093	0.636186	0.263897
C231	C	1.576427	0.969519	0.597231
H232	H	0.550847	0.230110	-0.374692
H233	H	0.884181	0.563443	-0.041359
H234	H	1.217514	0.896777	0.291974
H235	H	0.550648	0.375992	-0.229032
H236	H	0.883981	0.709326	0.104301
H237	H	1.217315	1.042659	0.437634
N238	N	0.676733	0.384348	-0.220708
N239	N	1.010067	0.717681	0.112625
N240	N	1.343400	1.051014	0.445959
N241	N	0.735430	0.384355	-0.220713
N242	N	1.068764	0.717688	0.112621
N243	N	1.402097	1.051022	0.445954
H244	H	0.759114	0.413365	-0.191758
H245	H	1.092447	0.746699	0.141575
H246	H	1.425780	1.080032	0.474908
H247	H	0.982817	0.229818	-0.944680
H248	H	1.316151	0.563151	-0.611347
H249	H	1.649484	0.896485	-0.278013
H250	H	0.269274	0.230059	-0.374716
H251	H	0.602607	0.563392	-0.041383
H252	H	0.935940	0.896725	0.291950
H253	H	0.982665	0.542613	-0.229212
H254	H	1.315998	0.875946	0.104122
H255	H	1.649332	1.209279	0.437455
H256	H	0.836551	0.661948	-0.374507
H257	H	1.169884	0.995282	-0.041173
H258	H	1.503217	1.328615	0.292160
H259	H	0.836683	0.375920	-1.063324
H260	H	1.170016	0.709254	-0.729991
H261	H	1.503350	1.042587	-0.396658
H262	H	0.150010	0.230032	-0.374718
H263	H	0.483343	0.563365	-0.041385
H264	H	0.816676	0.896698	0.291949
N265	N	0.142983	0.384242	-0.220738
N266	N	0.476317	0.717575	0.112595
N267	N	0.809650	1.050908	0.445928
N268	N	0.084286	0.384223	-0.220744
N269	N	0.417620	0.717556	0.112590
N270	N	0.750953	1.050890	0.445923
H271	H	0.060527	0.413214	-0.191781
H272	H	0.393861	0.746548	0.141552
H273	H	0.727194	1.079881	0.474885
N274	N	0.275873	0.384277	-0.220729
N275	N	0.609206	0.717610	0.112605
N276	N	0.942540	1.050943	0.445938
N277	N	0.246469	0.420165	-0.184893
N278	N	0.579802	0.753499	0.148441
N279	N	0.913136	1.086832	0.481774
H280	H	0.270136	0.449175	-0.155925
H281	H	0.603469	0.782509	0.177408
H282	H	0.936802	1.115842	0.510742
N283	N	0.991061	0.668682	-0.220940
N284	N	1.324394	1.002015	0.112393
N285	N	1.657727	1.335348	0.445727
N286	N	1.027008	0.639313	-0.185186
N287	N	1.360342	0.972646	0.148148
N288	N	1.693675	1.305979	0.481481
H289	H	1.056074	0.663007	-0.156300
H290	H	1.389407	0.996341	0.177034
H291	H	1.722740	1.329674	0.510367
H292	H	0.836505	0.542677	-0.374489
H293	H	1.169839	0.876010	-0.041156
H294	H	1.503172	1.209343	0.292178
H295	H	0.982820	0.943452	-0.229300
H296	H	1.316154	1.276786	0.104034
H297	H	1.649487	1.610119	0.437367
N298	N	0.828244	0.384352	-0.534197
N299	N	1.161577	0.717685	-0.200864
N300	N	1.494911	1.051018	0.132469
N301	N	0.770162	0.380184	-0.541500
N302	N	1.103495	0.713517	-0.208167
N303	N	1.436829	1.046851	0.125166
H304	H	0.741090	0.409232	-0.517888
H305	H	1.074423	0.742565	-0.184554
H306	H	1.407756	1.075899	0.148779
N307	N	0.991229	1.069518	-0.221044
N308	N	1.324563	1.402852	0.112290
N309	N	1.657896	1.736185	0.445623
N310	N	1.027180	1.040146	-0.185295
N311	N	1.360514	1.373479	0.148038
N312	N	1.693847	1.706812	0.481371
H313	H	1.056259	1.063838	-0.156420
H314	H	1.389592	1.397171	0.176913
H315	H	1.722925	1.730505	0.510246
H316	H	1.012633	0.293857	-0.861556
H317	H	1.345966	0.627191	-0.528222
H318	H	1.679300	0.960524	-0.194889
H319	H	0.836702	1.062786	-0.374598
H320	H	1.170035	1.396119	-0.041265
H321	H	1.503369	1.729453	0.292069
H322	H	0.836621	0.375991	-0.659684
H323	H	1.169954	0.709325	-0.326351
H324	H	1.503288	1.042658	0.006982
H325	H	0.836654	0.943517	-0.374569
H326	H	1.169987	1.276850	-0.041236
H327	H	1.503320	1.610184	0.292098
N328	N	0.828313	0.384270	-0.937822
N329	N	1.161646	0.717604	-0.604489
N330	N	1.494980	1.050937	-0.271156
N331	N	0.788207	0.362135	-0.901313
N332	N	1.121540	0.695469	-0.567980
N333	N	1.454873	1.028802	-0.234646
H334	H	0.759142	0.391182	-0.877690
H335	H	1.092475	0.724516	-0.544356
H336	H	1.425809	1.057849	-0.211023
H337	H	0.982835	0.229794	-1.063387
H338	H	1.316168	0.563127	-0.730054
H339	H	1.649501	0.896460	-0.396720
N340	N	1.024364	0.292845	-0.736061
N341	N	1.357697	0.626178	-0.402728
N342	N	1.691030	0.959512	-0.069395
N343	N	1.024349	0.292855	-0.677639
N344	N	1.357682	0.626188	-0.344305
N345	N	1.691016	0.959522	-0.010972
H346	H	1.065260	0.289261	-0.654036
H347	H	1.398593	0.622594	-0.320703
H348	H	1.731927	0.955927	0.012631
N349	N	0.991123	0.221519	-0.666528
N350	N	1.324456	0.554853	-0.333195
N351	N	1.657789	0.888186	0.000138
N352	N	1.027079	0.185575	-0.637325
N353	N	1.360412	0.518908	-0.303992
N354	N	1.693745	0.852242	0.029342
H355	H	1.056139	0.156511	-0.660932
H356	H	1.389472	0.489844	-0.327599
H357	H	1.722806	0.823177	0.005734
H358	H	0.982768	0.229905	-0.541043
H359	H	1.316101	0.563238	-0.207710
H360	H	1.649435	0.896571	0.125623
H361	H	0.806803	0.311944	-0.742815
H362	H	1.140137	0.645278	-0.409482
H363	H	1.473470	0.978611	-0.076149
H364	H	0.806819	0.311921	-0.861520
H365	H	1.140152	0.645255	-0.528187
H366	H	1.473485	0.978588	-0.194853
H367	H	0.670111	0.230138	-0.374691
H368	H	1.003444	0.563472	-0.041357
H369	H	1.336778	0.896805	0.291976
