data_functionalizedCrystal
_audit_creation_method	'MofGen! by Chris Wilmer'
_symmetry_space_group_name_H-M	'P1'
_symmetry_Int_Tables_number	1
_symmetry_cell_setting	triclinic
loop_
_symmetry_equiv_pos_as_xyz
  x,y,z
_cell_length_a	19.188929
_cell_length_b	10.654562
_cell_length_c	9.130313
_cell_angle_alpha	89.996930
_cell_angle_beta	90.023019
_cell_angle_gamma	96.182558
loop_
_atom_site_label
_atom_site_type_symbol
_atom_site_fract_x
_atom_site_fract_y
_atom_site_fract_z
O1	O	-0.098101	1.665749	-0.121974
O2	O	-0.107434	1.300075	-0.121963
O3	O	-0.001181	1.493465	-0.121878
O4	O	-0.204354	1.472359	-0.122059
O5	O	-0.001184	1.493462	0.121720
O6	O	-0.107437	1.300073	0.121636
O7	O	-0.098104	1.665747	0.121625
Cu8	Cu	-0.102771	1.482909	0.143873
Cu9	Cu	-0.102767	1.482912	-0.144211
O10	O	-0.204357	1.472357	0.121540
C11	C	-0.106749	1.253291	-0.000161
C12	C	-0.104693	1.113892	-0.000152
C13	C	-0.103735	1.048380	0.132623
C14	C	-0.101809	0.917398	0.132600
C15	C	-0.101801	0.917451	-0.132985
C16	C	-0.103722	1.048432	-0.132960
C17	C	-0.104706	1.113840	0.265431
C18	C	-0.103750	1.048328	0.398217
C19	C	-0.101823	0.917347	0.398194
C20	C	-0.100854	0.851877	0.265386
C21	C	-0.230371	1.473042	-0.000283
C22	C	-0.307889	1.475093	-0.000353
C23	C	-0.352068	1.361619	-0.000320
C24	C	-0.424904	1.363546	-0.000287
C25	C	-0.453559	1.478955	-0.000257
C26	C	-0.409370	1.592444	-0.000298
C27	C	-0.336535	1.590514	-0.000346
N28	N	-0.562107	1.567169	0.082735
N29	N	-0.631298	1.568995	0.082783
C30	C	-0.673005	1.484779	-0.000116
N31	N	-0.642910	1.398648	-0.083048
N32	N	-0.573713	1.396818	-0.083090
C33	C	-0.532535	1.481061	-0.000206
C34	C	-0.796163	1.373386	-0.000050
C35	C	-0.869000	1.375319	-0.000026
C36	C	-0.853464	1.604220	-0.000023
C37	C	-0.780628	1.602284	-0.000061
C38	C	-0.751982	1.486864	-0.000068
C39	C	0.024833	1.492780	-0.000059
C40	C	0.102351	1.490728	0.000001
C41	C	-0.098790	1.712531	-0.000181
C42	C	-0.100845	1.851930	-0.000199
N43	N	-0.102773	1.482917	0.346495
N44	N	-0.102760	1.482915	-0.346834
C45	C	-0.055740	1.568571	0.423185
C46	C	-0.055732	1.568568	0.576522
C47	C	-0.149795	1.397251	0.576466
C48	C	-0.149799	1.397250	0.423132
C49	C	-0.008713	1.654238	0.346548
C50	C	0.038323	1.739900	0.423238
C51	C	0.038331	1.739897	0.576575
C52	C	-0.008697	1.654231	0.653222
H53	H	-0.104534	1.101643	0.506345
N54	N	-0.098899	0.718079	0.265358
N55	N	-0.147169	0.647797	0.206019
H56	H	-0.145792	0.553302	0.205999
H57	H	-0.744656	1.694688	-0.000079
H58	H	-0.101013	0.864135	-0.241111
H59	H	-0.104505	1.101772	-0.241077
H60	H	-0.008681	1.654228	0.778079
H61	H	-0.300564	1.682921	-0.000374
H62	H	-0.106277	1.220491	0.265465
N63	N	0.086404	1.827334	0.344975
N64	N	0.128426	1.903750	0.413472
H65	H	0.162402	1.965473	0.358203
N66	N	-0.008717	1.654269	0.189921
N67	N	0.033269	1.730764	0.121508
H68	H	0.033264	1.730789	0.010889
H69	H	0.076634	1.809638	0.639014
H70	H	-0.328749	1.267635	-0.000338
N71	N	-0.197823	1.309759	0.654777
N72	N	-0.197812	1.309773	0.791681
H73	H	-0.231734	1.247982	0.846990
H74	H	-0.188097	1.327501	0.360691
H75	H	-0.101039	0.864011	0.506315
N76	N	-0.470045	1.247632	-0.000281
N77	N	-0.467152	1.170784	-0.102969
H78	H	-0.499032	1.088920	-0.102969
H79	H	-0.432705	1.686411	-0.000301
H80	H	-0.772838	1.279404	-0.000047
N81	N	-0.914130	1.259399	-0.000023
N82	N	-0.911228	1.182550	-0.102706
H83	H	-0.943102	1.100679	-0.102706
N84	N	-0.882724	1.722109	0.000037
N85	N	-0.869355	1.798518	0.102720
H86	H	-0.890022	1.881782	0.102760
