data_functionalizedCrystal
_audit_creation_method	'MofGen! by Chris Wilmer'
_symmetry_space_group_name_H-M	'P1'
_symmetry_Int_Tables_number	1
_symmetry_cell_setting	triclinic
loop_
_symmetry_equiv_pos_as_xyz
  x,y,z
_cell_length_a	14.908571
_cell_length_b	17.640280
_cell_length_c	14.908775
_cell_angle_alpha	103.758371
_cell_angle_beta	90.190472
_cell_angle_gamma	74.921313
loop_
_atom_site_label
_atom_site_type_symbol
_atom_site_fract_x
_atom_site_fract_y
_atom_site_fract_z
Zn1	Zn	1.433218	-0.361617	0.509312
Zn2	Zn	1.933218	0.138383	1.009312
Zn3	Zn	1.476765	-0.505127	0.327886
Zn4	Zn	1.976765	-0.005127	0.827886
Zn5	Zn	1.291776	-0.362489	0.350119
Zn6	Zn	1.791776	0.137511	0.850119
Zn7	Zn	1.313971	-0.489542	0.472912
Zn8	Zn	1.813971	0.010458	0.972912
O9	O	1.378933	-0.429694	0.415057
O10	O	1.878933	0.070306	0.915057
O11	O	1.566318	-0.386811	0.491174
O12	O	2.066318	0.113189	0.991174
O13	O	1.461161	-0.493093	0.203518
O14	O	1.961161	0.006907	0.703518
O15	O	1.283026	-0.249141	0.395774
O16	O	1.783026	0.250859	0.895774
O17	O	1.598312	-0.492247	0.357881
O18	O	2.098312	0.007753	0.857881
O19	O	1.386943	-0.248500	0.512732
O20	O	1.886943	0.251500	1.012732
O21	O	1.325251	-0.388297	0.219853
O22	O	1.825251	0.111703	0.719853
O23	O	1.167397	-0.373186	0.360479
O24	O	1.667397	0.126814	0.860479
O25	O	1.320854	-0.465685	0.605058
O26	O	1.820854	0.034315	1.105058
O27	O	1.183704	-0.466531	0.450695
O28	O	1.683704	0.033469	0.950695
O29	O	1.408464	-0.371699	0.631800
O30	O	1.908464	0.128301	1.131800
O31	O	1.482683	-0.616291	0.322586
O32	O	1.982683	-0.116291	0.822586
O33	O	1.363079	-0.604842	0.429136
O34	O	1.863079	-0.104842	0.929136
C35	C	1.142537	-0.418262	0.404050
C36	C	1.642537	0.081738	0.904050
C37	C	1.041409	-0.413391	0.399359
C38	C	1.541409	0.086609	0.899359
C39	C	0.868457	-0.501605	0.484294
C40	C	1.368457	-0.001605	0.984294
C41	C	0.773439	-0.497030	0.479888
C42	C	1.273439	0.002970	0.979888
C43	C	0.756351	-0.399661	0.386149
C44	C	1.256351	0.100339	0.886149
C45	C	0.851369	-0.404236	0.390554
C46	C	1.351369	0.095764	0.890554
C47	C	0.907420	-0.455211	0.439627
C48	C	1.407420	0.044789	0.939627
C49	C	1.002441	-0.459790	0.444027
C50	C	1.502441	0.040210	0.944027
C51	C	0.985350	-0.362417	0.350293
C52	C	1.485350	0.137583	0.850293
C53	C	0.890332	-0.357842	0.345888
C54	C	1.390332	0.142158	0.845888
C55	C	1.430038	-0.639926	0.369520
C56	C	1.930038	-0.139926	0.869520
C57	C	1.451982	-0.729867	0.350073
C58	C	1.951982	-0.229867	0.850073
C59	C	1.212575	-0.996008	0.563140
C60	C	1.712575	-0.496008	1.063140
C61	C	1.233198	-1.080523	0.544838
C62	C	1.733198	-0.580523	1.044838
C63	C	1.357806	-1.092378	0.434009
C64	C	1.857806	-0.592378	0.934009
C65	C	1.337195	-1.007862	0.452305
C66	C	1.837195	-0.507862	0.952305
C67	C	1.264578	-0.959684	0.516871
C68	C	1.764578	-0.459684	1.016871
C69	C	1.389198	-0.971538	0.406035
C70	C	1.889198	-0.471538	0.906035
C71	C	1.368586	-0.887030	0.424326
C72	C	1.868586	-0.387030	0.924326
C73	C	1.295971	-0.838846	0.488887
C74	C	1.795971	-0.338846	0.988887
C75	C	1.243966	-0.875176	0.535162
C76	C	1.743966	-0.375176	1.035162
C77	C	1.461811	-1.019717	0.341464
C78	C	1.961811	-0.519717	0.841464
C79	C	1.513814	-0.983393	0.295194
C80	C	2.013814	-0.483393	0.795194
C81	C	1.493207	-0.898883	0.313490
C82	C	1.993207	-0.398883	0.813490
C83	C	1.420591	-0.850700	0.378051
C84	C	1.920591	-0.350700	0.878051
C85	C	1.545212	-0.862554	0.267216
C86	C	2.045212	-0.362554	0.767216
C87	C	1.524599	-0.778045	0.285507
C88	C	2.024599	-0.278045	0.785507
C89	C	1.399979	-0.766192	0.396343
C90	C	1.899979	-0.266192	0.896343
C91	C	1.616252	-0.441170	0.426107
C92	C	2.116252	0.058830	0.926107
C93	C	1.717383	-0.446060	0.430816
C94	C	2.217383	0.053940	0.930816
C95	C	1.362278	-0.416856	0.652364
C96	C	1.862278	0.083144	1.152364
C97	C	1.355180	-0.411386	0.753489
C98	C	1.855180	0.088614	1.253489
C99	C	1.327651	-0.218640	0.460793
C100	C	1.827651	0.281360	0.960793
C101	C	1.305798	-0.128702	0.480284
C102	C	1.805798	0.371298	0.980284
C103	C	1.274423	-0.349117	0.904525
C104	C	1.774423	0.150883	1.404525
C105	C	1.281088	-0.354255	0.809509
C106	C	1.781088	0.145745	1.309509
C107	C	1.422615	-0.463381	0.792493
C108	C	1.922615	0.036619	1.292493
C109	C	1.415950	-0.458243	0.887510
C110	C	1.915950	0.041757	1.387510
C111	C	1.341851	-0.401109	0.943523
C112	C	1.841851	0.098891	1.443523
C113	C	1.335183	-0.395976	1.038540
C114	C	1.835183	0.104024	1.538540
C115	C	1.476713	-0.505097	1.021523
C116	C	1.976713	-0.005097	1.521523
C117	C	1.483378	-0.510236	0.926507
C118	C	1.983378	-0.010236	1.426507
C119	C	1.395520	-0.442499	1.178670
C120	C	1.895520	0.057501	1.678670
C121	C	1.402618	-0.447971	1.077543
C122	C	1.902618	0.052029	1.577543
H123	H	1.048077	-0.501298	0.483983
H124	H	1.548077	-0.001298	0.983983
C125	C	1.437679	-1.145383	0.362984
C126	C	1.937679	-0.645383	0.862984
N127	N	1.497841	-1.185306	0.309488
N128	N	1.997841	-0.685306	0.809488
C129	C	0.694677	-0.343584	0.332184
C130	C	1.194677	0.156416	0.832184
N131	N	0.648223	-0.301346	0.291539
N132	N	1.148223	0.198654	0.791539
H133	H	1.226182	-0.311915	0.777762
H134	H	1.726182	0.188085	1.277762
C135	C	0.828666	-0.301772	0.291910
C136	C	1.328666	0.198228	0.791910
N137	N	0.782221	-0.259541	0.251251
N138	N	1.282221	0.240459	0.751251
H139	H	1.017083	-0.324641	0.313920
H140	H	1.517083	0.175359	0.813920
C141	C	1.320085	-0.713191	0.467357
C142	C	1.820085	-0.213191	0.967357
N143	N	1.259905	-0.673270	0.520834
N144	N	1.759905	-0.173270	1.020834
C145	C	1.164072	-0.822175	0.606176
C146	C	1.664072	-0.322175	1.106176
N147	N	1.103891	-0.782255	0.659653
N148	N	1.603891	-0.282255	1.159653
C149	C	1.132681	-0.943007	0.634154
C150	C	1.632681	-0.443007	1.134154
N151	N	1.072500	-0.903087	0.687632
N152	N	1.572500	-0.403087	1.187632
H153	H	1.482947	-0.509891	0.746873
H154	H	1.982947	-0.009891	1.246873
C155	C	0.930116	-0.557681	0.538270
C156	C	1.430116	-0.057681	1.038270
N157	N	0.976555	-0.599917	0.578927
N158	N	1.476555	-0.099917	1.078927
C159	C	1.175989	-1.120476	0.595749
C160	C	1.675989	-0.620476	1.095749
N161	N	1.132899	-1.150569	0.634095
N162	N	1.632899	-0.650569	1.134095
C163	C	1.593688	-1.036398	0.224170
C164	C	2.093688	-0.536398	0.724170
N165	N	1.653850	-1.076321	0.170674
N166	N	2.153850	-0.576321	0.670674
C167	C	1.625079	-0.915561	0.196185
C168	C	2.125079	-0.415561	0.696185
N169	N	1.685235	-0.955486	0.142682
N170	N	2.185235	-0.455486	0.642682
C171	C	1.581813	-0.738086	0.234616
C172	C	2.081813	-0.238086	0.734616
N173	N	1.624908	-0.707989	0.196283
N174	N	2.124908	-0.207989	0.696283
C175	C	0.730586	-0.548073	0.529018
C176	C	1.230586	-0.048073	1.029018
N177	N	0.698310	-0.586523	0.566023
N178	N	1.198310	-0.086523	1.066023
H179	H	1.478593	-1.088529	0.326576
H180	H	1.978593	-0.588529	0.826576
C181	C	1.253676	-0.333126	1.100153
C182	C	1.753676	0.166874	1.600153
N183	N	1.192284	-0.285782	1.146559
N184	N	1.692284	0.214218	1.646559
C185	C	1.192911	-0.286274	0.966141
C186	C	1.692911	0.213726	1.466141
N187	N	1.131515	-0.238939	1.012548
N188	N	1.631515	0.261061	1.512548
H189	H	1.279184	-0.770034	0.503772
H190	H	1.779184	-0.270034	1.003772
H191	H	1.543709	-0.556750	0.880889
H192	H	2.043709	-0.056750	1.380889
H193	H	1.531622	-0.547430	1.053285
H194	H	2.031622	-0.047430	1.553285
