data_functionalizedCrystal
_audit_creation_method	'MofGen! by Chris Wilmer'
_symmetry_space_group_name_H-M	'P1'
_symmetry_Int_Tables_number	1
_symmetry_cell_setting	triclinic
loop_
_symmetry_equiv_pos_as_xyz
  x,y,z
_cell_length_a	21.295418
_cell_length_b	12.827892
_cell_length_c	21.295411
_cell_angle_alpha	90.013331
_cell_angle_beta	89.956262
_cell_angle_gamma	89.968793
loop_
_atom_site_label
_atom_site_type_symbol
_atom_site_fract_x
_atom_site_fract_y
_atom_site_fract_z
Zn1	Zn	0.962422	0.415711	-0.356270
Zn2	Zn	1.462422	0.915711	0.143730
Zn3	Zn	0.962352	0.590438	-0.251011
Zn4	Zn	1.462352	1.090438	0.248989
Zn5	Zn	0.857145	0.415760	-0.250980
Zn6	Zn	1.357145	0.915760	0.249020
Zn7	Zn	0.857142	0.590459	-0.356207
Zn8	Zn	1.357142	1.090459	0.143793
O9	O	0.909765	0.503092	-0.303617
O10	O	1.409765	1.003092	0.196383
O11	O	1.050502	0.438860	-0.342346
O12	O	1.550502	0.938860	0.157654
O13	O	0.948368	0.567279	-0.162917
O14	O	1.448368	1.067279	0.337083
O15	O	0.871141	0.269517	-0.264960
O16	O	1.371141	0.769517	0.235040
O17	O	1.050451	0.567231	-0.265013
O18	O	1.550451	1.067231	0.234987
O19	O	0.948487	0.269481	-0.342316
O20	O	1.448487	0.769481	0.157684
O21	O	0.871073	0.438943	-0.162894
O22	O	1.371073	0.938943	0.337106
O23	O	0.769055	0.438963	-0.264899
O24	O	1.269055	0.938963	0.235101
O25	O	0.871136	0.567266	-0.444305
O26	O	1.371136	1.067266	0.055695
O27	O	0.769053	0.567314	-0.342209
O28	O	1.269053	1.067314	0.157791
O29	O	0.948484	0.438880	-0.444351
O30	O	1.448484	0.938880	0.055649
O31	O	0.948365	0.736677	-0.264952
O32	O	1.448365	1.236677	0.235048
O33	O	0.871068	0.736692	-0.342239
O34	O	1.371068	1.236692	0.157761
C35	C	0.746214	0.503147	-0.303544
C36	C	1.246214	1.003147	0.196456
C37	C	0.676245	0.503196	-0.303528
C38	C	1.176245	1.003196	0.196472
C39	C	0.909726	0.774602	-0.303606
C40	C	1.409726	1.274602	0.196394
C41	C	0.909767	0.890755	-0.303622
C42	C	1.409767	1.390755	0.196378
C43	C	0.909818	0.503070	-0.467807
C44	C	1.409818	1.003070	0.032193
C45	C	0.909840	0.503061	-0.537775
C46	C	1.409840	1.003061	-0.037775
C47	C	0.643394	0.570116	-0.343724
C48	C	1.143394	1.070116	0.156276
C49	C	0.577652	0.570091	-0.343752
C50	C	1.077652	1.070091	0.156248
C51	C	0.544763	0.503155	-0.303574
C52	C	1.044763	1.003155	0.196426
C53	C	0.577622	0.436222	-0.263376
C54	C	1.077622	0.936222	0.236624
C55	C	0.643363	0.436242	-0.263353
C56	C	1.143363	0.936242	0.236647
N57	N	0.441486	0.494976	-0.248515
N58	N	0.941486	0.994976	0.251485
N59	N	0.379034	0.494963	-0.248539
N60	N	0.879034	0.994963	0.251461
C61	C	0.346688	0.503088	-0.303640
C62	C	0.846688	1.003088	0.196360
N63	N	0.379153	0.511248	-0.358719
N64	N	0.879153	1.011248	0.141281
N65	N	0.441610	0.511267	-0.358695
N66	N	0.941610	1.011267	0.141305
C67	C	0.473478	0.503125	-0.303594
C68	C	0.973478	1.003125	0.196406
C69	C	0.242552	0.569985	-0.343870
C70	C	0.742552	1.069985	0.156130
C71	C	0.176808	0.569952	-0.343899
C72	C	0.676808	1.069952	0.156101
C73	C	0.176780	0.436088	-0.263517
C74	C	0.676780	0.936088	0.236483
C75	C	0.242522	0.436116	-0.263493
C76	C	0.742522	0.936116	0.236507
C77	C	0.275404	0.503070	-0.303669
C78	C	0.775404	1.003070	0.196331
C79	C	1.073956	0.503038	-0.303690
C80	C	1.573956	1.003038	0.196310
C81	C	1.143924	0.503014	-0.303721
C82	C	1.643924	1.003014	0.196279
C83	C	0.909822	0.230522	-0.303642
C84	C	1.409822	0.730522	0.196358
C85	C	0.909846	0.114369	-0.303652
C86	C	1.409846	0.614369	0.196348
C87	C	0.948061	0.942498	-0.265420
C88	C	1.448061	1.442498	0.234580
C89	C	0.948104	1.062548	-0.265436
C90	C	1.448104	1.562548	0.234564
C91	C	0.950113	0.436207	-0.570667
C92	C	1.450113	0.936207	-0.070667
C93	C	0.950113	0.436161	-0.636410
C94	C	1.450113	0.936161	-0.136410
C95	C	0.909845	0.502989	-0.669258
C96	C	1.409845	1.002989	-0.169258
C97	C	0.869563	0.569847	-0.636358
C98	C	1.369563	1.069847	-0.136358
C99	C	0.869561	0.569883	-0.570617
C100	C	1.369561	1.069883	-0.070617
N101	N	0.905003	0.594408	-0.772480
N102	N	1.405003	1.094408	-0.272480
N103	N	0.905009	0.594371	-0.834931
N104	N	1.405009	1.094371	-0.334931
C105	C	0.909849	0.502883	-0.867333
C106	C	1.409849	1.002883	-0.367333
N107	N	0.914695	0.411431	-0.834924
N108	N	1.414695	0.911431	-0.334924
N109	N	0.914692	0.411469	-0.772466
N110	N	1.414692	0.911469	-0.272466
C111	C	0.909843	0.502957	-0.740543
C112	C	1.409843	1.002957	-0.240543
C113	C	0.950123	0.435974	-0.971510
C114	C	1.450123	0.935974	-0.471510
C115	C	0.950118	0.435927	-1.037254
C116	C	1.450118	0.935927	-0.537254
C117	C	0.869572	0.569622	-1.037201
C118	C	1.369572	1.069622	-0.537201
C119	C	0.869574	0.569660	-0.971459
C120	C	1.369574	1.069660	-0.471459
C121	C	0.909853	0.502837	-0.938617
C122	C	1.409853	1.002837	-0.438617
C123	C	0.909749	0.503039	-0.140065
C124	C	1.409749	1.003039	0.359935
C125	C	0.909849	0.502754	-0.070098
C126	C	1.409849	1.002754	0.429902
H127	H	0.550899	0.624585	-0.376486
H128	H	1.050899	1.124585	0.123514
H129	H	0.877056	1.069879	-0.336358
H130	H	1.377056	1.569879	0.163642
N131	N	0.868674	0.946684	-0.344660
N132	N	1.368674	1.446684	0.155340
N133	N	0.828630	1.007704	-0.322433
N134	N	1.328630	1.507704	0.177567
H135	H	0.799607	1.047203	-0.351417
H136	H	1.299607	1.547203	0.148583
N137	N	0.676924	0.367870	-0.222299
N138	N	1.176924	0.867870	0.277701
N139	N	0.669633	0.271450	-0.226580
N140	N	1.169633	0.771450	0.273420
H141	H	0.693337	0.223161	-0.197586
H142	H	1.193337	0.723161	0.302414
N143	N	0.989157	0.886570	-0.224386
N144	N	1.489157	1.386570	0.275614
N145	N	0.989068	0.789128	-0.224436
N146	N	1.489068	1.289128	0.275564
H147	H	1.018095	0.749629	-0.195456
H148	H	1.518095	1.249629	0.304544
H149	H	0.982911	0.381793	-0.543931
H150	H	1.482911	0.881793	-0.043931
H151	H	0.982907	0.381715	-0.663195
H152	H	1.482907	0.881715	-0.163195
N153	N	0.276135	0.638379	-0.384909
N154	N	0.776135	1.138379	0.115091
N155	N	0.246792	0.698122	-0.420800
N156	N	0.746792	1.198122	0.079200
H157	H	0.270508	0.746428	-0.449784
H158	H	0.770508	1.246428	0.050216
N159	N	0.828430	0.638096	-0.669918
N160	N	1.328430	1.138096	-0.169918
N161	N	0.828438	0.638056	-0.728615
N162	N	1.328438	1.138056	-0.228615
H163	H	0.799384	0.686256	-0.752318
H164	H	1.299384	1.186256	-0.252318
H165	H	0.150062	0.624445	-0.376635
H166	H	0.650062	1.124445	0.123365
N167	N	0.989226	1.118376	-0.224403
N168	N	1.489226	1.618376	0.275597
N169	N	0.989201	1.215818	-0.224472
N170	N	1.489201	1.715818	0.275528
H171	H	1.018244	1.255251	-0.195490
H172	H	1.518244	1.755251	0.304510
H173	H	0.836762	0.624322	-0.543837
H174	H	1.336762	1.124322	-0.043837
H175	H	0.836779	0.624023	-1.063946
H176	H	1.336779	1.124023	-0.563946
N177	N	0.276092	0.367781	-0.222428
N178	N	0.776092	0.867781	0.277572
N179	N	0.334789	0.367810	-0.222411
N180	N	0.834789	0.867810	0.277589
H181	H	0.358499	0.319545	-0.193408
H182	H	0.858499	0.819545	0.306592
H183	H	0.982918	0.381557	-0.944769
H184	H	1.482918	0.881557	-0.444769
N185	N	0.991258	0.367619	-1.070844
N186	N	1.491258	0.867619	-0.570844
N187	N	1.027215	0.307964	-1.041511
N188	N	1.527215	0.807964	-0.541511
H189	H	1.056272	0.259720	-1.065234
H190	H	1.556272	0.759720	-0.565234
N191	N	0.143183	0.367709	-0.222487
N192	N	0.643183	0.867709	0.277513
N193	N	0.084486	0.367691	-0.222515
N194	N	0.584486	0.867691	0.277485
H195	H	0.060755	0.319392	-0.193539
H196	H	0.560755	0.819392	0.306461
N197	N	0.828430	0.637944	-0.937859
N198	N	1.328430	1.137944	-0.437859
N199	N	0.770346	0.631023	-0.945160
N200	N	1.270346	1.131023	-0.445160
H201	H	0.741283	0.679249	-0.921430
H202	H	1.241283	1.179249	-0.421430
N203	N	0.676972	0.638511	-0.384765
N204	N	1.176972	1.138511	0.115235
N205	N	0.647627	0.698257	-0.420652
N206	N	1.147627	1.198257	0.079348
H207	H	0.671341	0.746561	-0.449639
H208	H	1.171341	1.246561	0.050361
H209	H	0.550840	0.381720	-0.230663
H210	H	1.050840	0.881720	0.269337
