data_functionalizedCrystal
_audit_creation_method	'MofGen! by Chris Wilmer'
_symmetry_space_group_name_H-M	'P1'
_symmetry_Int_Tables_number	1
_symmetry_cell_setting	triclinic
loop_
_symmetry_equiv_pos_as_xyz
  x,y,z
_cell_length_a	17.077404
_cell_length_b	17.077402
_cell_length_c	17.077396
_cell_angle_alpha	90.029784
_cell_angle_beta	90.023219
_cell_angle_gamma	90.019297
loop_
_atom_site_label
_atom_site_type_symbol
_atom_site_fract_x
_atom_site_fract_y
_atom_site_fract_z
Zn1	Zn	-1.200055	0.312583	-0.443913
Zn2	Zn	-0.866721	0.645917	-0.110580
Zn3	Zn	-0.533388	0.979250	0.222753
Zn4	Zn	-1.199962	0.443858	-0.312644
Zn5	Zn	-0.866628	0.777191	0.020689
Zn6	Zn	-0.533295	1.110525	0.354022
Zn7	Zn	-1.068786	0.312602	-0.312653
Zn8	Zn	-0.735453	0.645935	0.020680
Zn9	Zn	-0.402120	0.979269	0.354014
Zn10	Zn	-1.068754	0.443803	-0.443860
Zn11	Zn	-0.735421	0.777136	-0.110526
Zn12	Zn	-0.402088	1.110469	0.222807
O13	O	-1.134389	0.378212	-0.378268
O14	O	-0.801056	0.711545	-0.044934
O15	O	-0.467723	1.044878	0.288399
O16	O	-1.309889	0.330012	-0.426519
O17	O	-0.976556	0.663346	-0.093186
O18	O	-0.643223	0.996679	0.240147
O19	O	-1.182536	0.426478	-0.202799
O20	O	-0.849202	0.759811	0.130535
O21	O	-0.515869	1.093144	0.463868
O22	O	-1.086252	0.202753	-0.330091
O23	O	-0.752918	0.536086	0.003242
O24	O	-0.419585	0.869419	0.336576
O25	O	-1.309821	0.426459	-0.330077
O26	O	-0.976488	0.759793	0.003257
O27	O	-0.643154	1.093126	0.336590
O28	O	-1.182694	0.202739	-0.426528
O29	O	-0.849361	0.536072	-0.093194
O30	O	-0.516027	0.869405	0.240139
O31	O	-1.086162	0.330044	-0.202805
O32	O	-0.752828	0.663378	0.130529
O33	O	-0.419495	0.996711	0.463862
O34	O	-0.958935	0.329991	-0.330039
O35	O	-0.625602	0.663324	0.003295
O36	O	-0.292269	0.996657	0.336628
O37	O	-1.086197	0.426365	-0.553714
O38	O	-0.752864	0.759699	-0.220380
O39	O	-0.419531	1.093032	0.112953
O40	O	-0.958912	0.426383	-0.426436
O41	O	-0.625578	0.759717	-0.093102
O42	O	-0.292245	1.093050	0.240231
O43	O	-1.182663	0.329959	-0.553753
O44	O	-0.849330	0.663292	-0.220420
O45	O	-0.515996	0.996625	0.112913
O46	O	-1.182505	0.553698	-0.330024
O47	O	-0.849171	0.887031	0.003309
O48	O	-0.515838	1.220364	0.336642
O49	O	-1.086107	0.553657	-0.426427
O50	O	-0.752774	0.886990	-0.093094
O51	O	-0.419440	1.220324	0.240239
C52	C	-0.930441	0.378184	-0.378233
C53	C	-0.597108	0.711517	-0.044899
C54	C	-0.263775	1.044850	0.288434
C55	C	-0.843192	0.378191	-0.378236
C56	C	-0.509858	0.711524	-0.044903
C57	C	-0.176525	1.044857	0.288430
C58	C	-0.467410	0.328082	-0.428573
C59	C	-0.134077	0.661415	-0.095240
C60	C	0.199257	0.994749	0.238093
C61	C	-0.549390	0.328079	-0.428567
C62	C	-0.216057	0.661412	-0.095234
C63	C	0.117276	0.994746	0.238099
C64	C	-0.590343	0.378211	-0.378270
C65	C	-0.257009	0.711544	-0.044937
C66	C	0.076324	1.044877	0.288396
C67	C	-0.549310	0.428354	-0.327982
C68	C	-0.215977	0.761688	0.005351
C69	C	0.117356	1.095021	0.338685
C70	C	-0.467332	0.428361	-0.327993
C71	C	-0.133998	0.761694	0.005341
C72	C	0.199335	1.095027	0.338674
C73	C	-0.720181	0.428336	-0.327962
C74	C	-0.386847	0.761669	0.005371
C75	C	-0.053514	1.095003	0.338705
C76	C	-0.802165	0.428329	-0.327950
C77	C	-0.468832	0.761662	0.005383
C78	C	-0.135498	1.094995	0.338717
C79	C	-0.802239	0.328054	-0.428537
C80	C	-0.468906	0.661388	-0.095203
C81	C	-0.135573	0.994721	0.238130
C82	C	-0.720260	0.328061	-0.428547
C83	C	-0.386927	0.661394	-0.095214
C84	C	-0.053594	0.994727	0.238119
C85	C	-0.679234	0.378204	-0.378258
C86	C	-0.345900	0.711537	-0.044924
C87	C	-0.012567	1.044870	0.288409
C88	C	-1.134314	0.582159	-0.378236
C89	C	-0.800980	0.915493	-0.044903
C90	C	-0.467647	1.248826	0.288430
C91	C	-1.134353	0.669409	-0.378249
C92	C	-0.801020	1.002743	-0.044916
C93	C	-0.467686	1.336076	0.288418
C94	C	-1.134437	0.378154	-0.583012
C95	C	-0.801103	0.711487	-0.249679
C96	C	-0.467770	1.044820	0.083655
C97	C	-1.134457	0.378129	-0.670262
C98	C	-0.801124	0.711462	-0.336928
C99	C	-0.467790	1.044796	-0.003595
C100	C	-0.339134	0.378232	-0.378295
C101	C	-0.005800	0.711565	-0.044962
C102	C	0.327533	1.044899	0.288371
C103	C	-0.426383	0.378220	-0.378287
C104	C	-0.093050	0.711553	-0.044954
C105	C	0.240283	1.044887	0.288379
C106	C	-1.134487	0.173467	-0.378316
C107	C	-0.801153	0.506801	-0.044983
C108	C	-0.467820	0.840134	0.288350
C109	C	-1.134528	0.086217	-0.378337
C110	C	-0.801195	0.419551	-0.045004
C111	C	-0.467862	0.752884	0.288330
C112	C	-1.184598	0.710394	-0.328106
C113	C	-0.851265	1.043728	0.005227
C114	C	-0.517932	1.377061	0.338561
C115	C	-1.184637	0.792375	-0.328126
C116	C	-0.851303	1.125708	0.005207
C117	C	-0.517970	1.459042	0.338541
C118	C	-1.134425	0.833369	-0.378286
C119	C	-0.801092	1.166702	-0.044952
C120	C	-0.467759	1.500035	0.288381
C121	C	-1.084178	0.792378	-0.428435
C122	C	-0.750844	1.125711	-0.095101
C123	C	-0.417511	1.459044	0.238232
C124	C	-1.084144	0.710399	-0.428418
C125	C	-0.750810	1.043732	-0.095085
C126	C	-0.417477	1.377065	0.238249
C127	C	-1.084250	0.963248	-0.428464
C128	C	-0.750917	1.296581	-0.095131
C129	C	-0.417584	1.629914	0.238202
C130	C	-1.084283	1.045232	-0.428480
C131	C	-0.750950	1.378566	-0.095147
C132	C	-0.417616	1.711899	0.238187
C133	C	-1.184743	1.045224	-0.328172
C134	C	-0.851410	1.378557	0.005161
C135	C	-0.518077	1.711890	0.338494
C136	C	-1.184709	0.963245	-0.328156
C137	C	-0.851376	1.296578	0.005178
C138	C	-0.518043	1.629912	0.338511
C139	C	-1.134461	0.922260	-0.378304
C140	C	-0.801127	1.255593	-0.044970
C141	C	-0.467794	1.588926	0.288363
C142	C	-1.184689	0.327926	-0.711274
C143	C	-0.851355	0.661259	-0.377941
C144	C	-0.518022	0.994593	-0.044607
C145	C	-1.184698	0.327900	-0.793254
C146	C	-0.851365	0.661233	-0.459921
C147	C	-0.518031	0.994567	-0.126588
C148	C	-1.134479	0.378081	-0.834221
C149	C	-0.801146	0.711415	-0.500888
C150	C	-0.467813	1.044748	-0.167555
C151	C	-1.084242	0.428287	-0.793204
C152	C	-0.750909	0.761620	-0.459870
C153	C	-0.417576	1.094953	-0.126537
C154	C	-1.084229	0.428308	-0.711225
C155	C	-0.750896	0.761641	-0.377891
C156	C	-0.417563	1.094975	-0.044558
C157	C	-1.084274	0.428239	-0.964074
C158	C	-0.750941	0.761573	-0.630740
C159	C	-0.417607	1.094906	-0.297407
C160	C	-1.084288	0.428219	-1.046058
C161	C	-0.750954	0.761552	-0.712725
C162	C	-0.417621	1.094886	-0.379392
C163	C	-1.184742	0.327831	-1.046104
C164	C	-0.851409	0.661164	-0.712770
C165	C	-0.518076	0.994498	-0.379437
C166	C	-1.184730	0.327853	-0.964125
C167	C	-0.851396	0.661186	-0.630791
C168	C	-0.518063	0.994519	-0.297458
C169	C	-1.134493	0.378059	-0.923112
C170	C	-0.801160	0.711393	-0.589779
C171	C	-0.467827	1.044726	-0.256446
C172	C	-1.134387	0.378212	-0.174320
C173	C	-0.801054	0.711546	0.159014
C174	C	-0.467721	1.044879	0.492347
C175	C	-1.134519	0.378016	-0.087070
C176	C	-0.801186	0.711349	0.246263
C177	C	-0.467852	1.044683	0.579596
H178	H	-0.835647	0.287225	-0.469483
H179	H	-0.502314	0.620559	-0.136150
H180	H	-0.168980	0.953892	0.197183
H181	H	-1.043393	0.469079	-1.079411
H182	H	-0.710060	0.802413	-0.746078
H183	H	-0.376727	1.135746	-0.412745
H184	H	-1.225660	1.078598	-0.287343
H185	H	-0.892327	1.411931	0.045991
H186	H	-0.558994	1.745265	0.379324
H187	H	-1.043411	1.078607	-0.469339
H188	H	-0.710078	1.411940	-0.136006
H189	H	-0.376744	1.745274	0.197327
F190	F	-1.030805	0.481673	-0.920427
F191	F	-0.697471	0.815007	-0.587094
F192	F	-0.364138	1.148340	-0.253761
F193	F	-1.030792	0.481691	-0.836806
F194	F	-0.697459	0.815024	-0.503472
F195	F	-0.364126	1.148357	-0.170139
F196	F	-1.030771	0.919630	-0.481840
F197	F	-0.697438	1.252963	-0.148506
F198	F	-0.364105	1.586297	0.184827
F199	F	-1.238209	0.274398	-1.089752
F200	F	-0.904875	0.607731	-0.756419
F201	F	-0.571542	0.941065	-0.423086
F202	F	-1.030743	0.836008	-0.481823
F203	F	-0.697410	1.169342	-0.148490
F204	F	-0.364076	1.502675	0.184844
F205	F	-0.423832	0.274720	-0.482103
F206	F	-0.090499	0.608053	-0.148770
F207	F	0.242834	0.941387	0.184564
H208	H	-1.043230	0.677029	-0.469251
H209	H	-0.709897	1.010363	-0.135917
H210	H	-0.376563	1.343696	0.197416
H211	H	-1.225627	0.286995	-0.930771
H212	H	-0.892293	0.620328	-0.597438
H213	H	-0.558960	0.953662	-0.264105
H214	H	-0.582791	0.287254	-0.469518
H215	H	-0.249457	0.620588	-0.136185
H216	H	0.083876	0.953921	0.197149
F217	F	-0.676677	0.274702	-0.482075
F218	F	-0.343344	0.608035	-0.148742
F219	F	-0.010011	0.941368	0.184591
H220	H	-0.835506	0.469153	-0.286996
H221	H	-0.502173	0.802486	0.046337
H222	H	-0.168840	1.135819	0.379670
H223	H	-0.582660	0.469175	-0.287032
H224	H	-0.249327	0.802509	0.046301
H225	H	0.084006	1.135842	0.379634
H226	H	-0.686779	0.469171	-0.287014
H227	H	-0.353446	0.802504	0.046319
H228	H	-0.020113	1.135838	0.379653
H229	H	-1.225585	0.287065	-0.677924
H230	H	-0.892252	0.620398	-0.344591
H231	H	-0.558918	0.953732	-0.011258
F232	F	-1.238037	0.666773	-0.274713
F233	F	-0.904703	1.000106	0.058620
F234	F	-0.571370	1.333440	0.391954
F235	F	-0.423668	0.481730	-0.274476
F236	F	-0.090335	0.815063	0.058857
F237	F	0.242998	1.148396	0.392190
F238	F	-1.238117	0.835991	-0.274759
F239	F	-0.904784	1.169324	0.058575
F240	F	-0.571450	1.502657	0.391908
F241	F	-1.238188	0.274494	-0.836899
F242	F	-0.904855	0.607827	-0.503566
F243	F	-0.571522	0.941161	-0.170232
H244	H	-1.043318	0.469181	-0.677834
H245	H	-0.709985	0.802514	-0.344500
H246	H	-0.376651	1.135847	-0.011167
H247	H	-1.225591	0.929868	-0.287308
H248	H	-0.892258	1.263201	0.046025
H249	H	-0.558925	1.596535	0.379359
