data_functionalizedCrystal
_audit_creation_method	'MofGen! by Chris Wilmer'
_symmetry_space_group_name_H-M	'P1'
_symmetry_Int_Tables_number	1
_symmetry_cell_setting	triclinic
loop_
_symmetry_equiv_pos_as_xyz
  x,y,z
_cell_length_a	10.654550
_cell_length_b	10.654550
_cell_length_c	9.730223
_cell_angle_alpha	90.004253
_cell_angle_beta	89.997315
_cell_angle_gamma	95.515070
loop_
_atom_site_label
_atom_site_type_symbol
_atom_site_fract_x
_atom_site_fract_y
_atom_site_fract_z
O1	O	1.667839	-0.176399	-0.114271
O2	O	1.302361	-0.193205	-0.114278
O3	O	1.493503	-0.002062	-0.114266
O4	O	1.476697	-0.367541	-0.114283
O5	O	1.493490	-0.002057	0.114314
O6	O	1.302348	-0.193199	0.114302
O7	O	1.667827	-0.176393	0.114309
Zn8	Zn	1.485085	-0.184796	0.150597
Zn9	Zn	1.485102	-0.184802	-0.150566
O10	O	1.476684	-0.367536	0.114297
C11	C	1.255556	-0.191968	0.000011
C12	C	1.116113	-0.188276	0.000009
C13	C	1.492263	0.044738	0.000024
C14	C	1.488571	0.184181	0.000021
C15	C	1.714631	-0.177630	0.000017
C16	C	1.854074	-0.181322	0.000010
N17	N	1.485083	-0.184790	0.356134
C18	C	1.933560	-0.068780	0.000010
C19	C	2.064580	-0.072257	0.000015
C20	C	2.036617	-0.300826	0.000013
C21	C	1.905599	-0.297349	0.000018
C22	C	1.477925	-0.414336	0.000004
C23	C	1.481616	-0.553779	-0.000002
C24	C	1.601112	0.263667	0.000023
C25	C	1.597636	0.394688	0.000006
C26	C	1.369066	0.366725	-0.000008
C27	C	1.372544	0.235706	-0.000001
N28	N	1.485114	-0.184798	-0.356103
C29	C	1.569750	-0.100188	0.428065
C30	C	1.569763	-0.100189	0.571948
C31	C	1.400438	-0.269404	0.571956
C32	C	1.400420	-0.269396	0.428075
H33	H	1.891613	0.025696	0.000007
H34	H	1.280893	0.170985	-0.000007
Cl35	Cl	1.294013	-0.375766	0.662403
H36	H	1.331468	-0.338290	0.369505
Cl37	Cl	2.101401	-0.446680	0.000008
Cl38	Cl	2.164501	0.069231	0.000021
H39	H	1.840878	-0.388999	0.000023
H40	H	1.689279	0.459401	0.000004
Cl41	Cl	1.746974	0.198897	0.000048
H42	H	1.638705	-0.031297	0.630511
H43	H	1.274601	0.408693	-0.000024
H44	H	1.638687	-0.031295	0.369494
