data_functionalizedCrystal
_audit_creation_method	'MofGen! by Chris Wilmer'
_symmetry_space_group_name_H-M	'P1'
_symmetry_Int_Tables_number	1
_symmetry_cell_setting	triclinic
loop_
_symmetry_equiv_pos_as_xyz
  x,y,z
_cell_length_a	18.215407
_cell_length_b	12.759400
_cell_length_c	18.215399
_cell_angle_alpha	89.973045
_cell_angle_beta	89.983176
_cell_angle_gamma	90.015132
loop_
_atom_site_label
_atom_site_type_symbol
_atom_site_fract_x
_atom_site_fract_y
_atom_site_fract_z
Zn1	Zn	1.125102	-0.418240	-0.416133
Zn2	Zn	1.625102	0.081760	0.083867
Zn3	Zn	1.125039	-0.593944	-0.293074
Zn4	Zn	1.625039	-0.093944	0.206926
Zn5	Zn	1.002041	-0.418281	-0.293081
Zn6	Zn	1.502041	0.081719	0.206919
Zn7	Zn	1.002023	-0.593878	-0.416099
Zn8	Zn	1.502023	-0.093878	0.083901
O9	O	1.063551	-0.506086	-0.354597
O10	O	1.563551	-0.006086	0.145403
O11	O	1.228078	-0.441557	-0.399821
O12	O	1.728078	0.058443	0.100179
O13	O	1.108704	-0.570687	-0.190091
O14	O	1.608704	-0.070687	0.309909
O15	O	1.018400	-0.271255	-0.309421
O16	O	1.518400	0.228745	0.190579
O17	O	1.228032	-0.570647	-0.309410
O18	O	1.728032	-0.070647	0.190590
O19	O	1.108812	-0.271224	-0.399827
O20	O	1.608812	0.228776	0.100173
O21	O	1.018339	-0.441628	-0.190096
O22	O	1.518339	0.058372	0.309904
O23	O	0.899055	-0.441565	-0.309388
O24	O	1.399055	0.058435	0.190612
O25	O	1.018368	-0.570534	-0.519088
O26	O	1.518368	-0.070534	-0.019088
O27	O	0.899041	-0.570575	-0.399769
O28	O	1.399041	-0.070575	0.100231
O29	O	1.108794	-0.441493	-0.519113
O30	O	1.608794	0.058507	-0.019113
O31	O	1.108686	-0.740957	-0.309377
O32	O	1.608686	-0.240957	0.190623
O33	O	1.018307	-0.740908	-0.399763
O34	O	1.518307	-0.240908	0.100237
C35	C	0.872345	-0.506068	-0.354576
C36	C	1.372345	-0.006068	0.145424
C37	C	0.790546	-0.506086	-0.354584
C38	C	1.290546	-0.006086	0.145416
C39	C	0.602364	-0.573367	-0.401587
C40	C	1.102364	-0.073367	0.098413
C41	C	0.525506	-0.573370	-0.401596
C42	C	1.025506	-0.073370	0.098404
C43	C	0.525490	-0.438824	-0.307623
C44	C	1.025490	0.061176	0.192377
C45	C	0.602348	-0.438816	-0.307618
C46	C	1.102348	0.061184	0.192382
C47	C	0.640783	-0.506094	-0.354599
C48	C	1.140783	-0.006094	0.145401
C49	C	0.487067	-0.506105	-0.354613
C50	C	0.987067	-0.006105	0.145387
C51	C	0.403733	-0.506108	-0.354623
C52	C	0.903733	-0.006108	0.145377
C53	C	0.724122	-0.506089	-0.354590
C54	C	1.224122	-0.006089	0.145410
C55	C	1.063508	-0.779053	-0.354582
C56	C	1.563508	-0.279053	0.145418
C57	C	1.063556	-0.895830	-0.354600
C58	C	1.563556	-0.395830	0.145400
C59	C	1.110669	-0.950682	-0.307588
C60	C	1.610669	-0.450682	0.192412
C61	C	1.110714	-1.060406	-0.307610
C62	C	1.610714	-0.560406	0.192390
C63	C	1.016527	-1.060416	-0.401659
C64	C	1.516527	-0.560416	0.098341
C65	C	1.016487	-0.950694	-0.401639
C66	C	1.516487	-0.450694	0.098361
C67	C	1.157739	-0.895818	-0.260548
C68	C	1.657739	-0.395818	0.239452
C69	C	1.204855	-0.950671	-0.213532
C70	C	1.704855	-0.450671	0.286468
C71	C	1.204900	-1.060395	-0.213554
C72	C	1.704900	-0.560395	0.286446
C73	C	1.157829	-1.115266	-0.260593
C74	C	1.657829	-0.615266	0.239407
C75	C	1.255504	-0.506105	-0.354618
C76	C	1.755504	-0.006105	0.145382
C77	C	1.337303	-0.506113	-0.354628
C78	C	1.837303	-0.006113	0.145372
C79	C	1.063586	-0.506002	-0.546550
C80	C	1.563586	-0.006002	-0.046550
C81	C	1.063601	-0.505966	-0.628349
C82	C	1.563601	-0.005966	-0.128349
C83	C	1.063615	-0.232053	-0.354628
C84	C	1.563615	0.267947	0.145372
C85	C	1.063642	-0.115276	-0.354642
C86	C	1.563642	0.384724	0.145358
C87	C	1.016587	-0.438720	-0.816546
C88	C	1.516587	0.061280	-0.316546
C89	C	1.016600	-0.438699	-0.893405
C90	C	1.516600	0.061301	-0.393405
C91	C	1.110703	-0.573087	-0.893389
C92	C	1.610703	-0.073087	-0.393389
C93	C	1.110686	-0.573113	-0.816532
C94	C	1.610686	-0.073113	-0.316532
C95	C	1.063629	-0.505923	-0.778112
C96	C	1.563629	-0.005923	-0.278112
C97	C	1.063659	-0.505876	-0.931829
C98	C	1.563659	-0.005876	-0.431829
C99	C	1.063673	-0.505854	-1.015162
C100	C	1.563673	-0.005854	-0.515162
C101	C	1.063614	-0.505947	-0.694773
C102	C	1.563614	-0.005947	-0.194773
C103	C	1.063559	-0.506094	-0.163391
C104	C	1.563559	-0.006094	0.336609
C105	C	1.063687	-0.505833	-0.081592
C106	C	1.563687	-0.005833	0.418408
H107	H	0.494187	-0.384051	-0.269372
H108	H	0.994187	0.115949	0.230628
Cl109	Cl	1.169858	-0.657546	-0.941694
Cl110	Cl	1.669858	-0.157546	-0.441694
H111	H	0.978204	-1.105101	-0.439955
H112	H	1.478204	-0.605101	0.060045
Cl113	Cl	0.957449	-0.354224	-0.941719
Cl114	Cl	1.457449	0.145776	-0.441719
H115	H	0.978124	-0.906033	-0.439921
H116	H	1.478124	-0.406033	0.060079
H117	H	0.633656	-0.628146	-0.439843
H118	H	1.133656	-0.128146	0.060157
Cl119	Cl	1.169826	-0.657609	-0.768211
Cl120	Cl	1.669826	-0.157609	-0.268211
Cl121	Cl	0.477211	-0.657944	-0.460670
Cl122	Cl	0.977211	-0.157944	0.039330
Cl123	Cl	0.650649	-0.354230	-0.248548
Cl124	Cl	1.150649	0.145770	0.251452
H125	H	1.243183	-0.905988	-0.175238
H126	H	1.743183	-0.405988	0.324762
Cl127	Cl	1.157891	-0.757880	-0.260722
Cl128	Cl	1.657891	-0.257880	0.239278
H129	H	0.978270	-0.384010	-0.785267
H130	H	1.478270	0.115990	-0.285267
H131	H	1.243270	-1.105053	-0.175277
H132	H	1.743270	-0.605053	0.324723
H133	H	1.157876	-1.204611	-0.260614
H134	H	1.657876	-0.704611	0.239386
