data_functionalizedCrystal
_audit_creation_method	'MofGen! by Chris Wilmer'
_symmetry_space_group_name_H-M	'P1'
_symmetry_Int_Tables_number	1
_symmetry_cell_setting	triclinic
loop_
_symmetry_equiv_pos_as_xyz
  x,y,z
_cell_length_a	23.532407
_cell_length_b	23.532407
_cell_length_c	22.010155
_cell_angle_alpha	89.989642
_cell_angle_beta	90.009202
_cell_angle_gamma	97.151322
loop_
_atom_site_label
_atom_site_type_symbol
_atom_site_fract_x
_atom_site_fract_y
_atom_site_fract_z
O1	O	0.069133	-0.755269	0.050455
O2	O	0.569133	-0.255269	0.550455
O3	O	0.079137	-0.589406	0.050474
O4	O	0.579137	-0.089406	0.550474
O5	O	-0.008797	-0.677339	0.050453
O6	O	0.491203	-0.177339	0.550453
O7	O	0.157067	-0.667336	0.050476
O8	O	0.657067	-0.167336	0.550476
O9	O	-0.008797	-0.677312	-0.050597
O10	O	0.491203	-0.177312	0.449403
O11	O	0.079137	-0.589379	-0.050576
O12	O	0.579137	-0.089379	0.449424
O13	O	0.069133	-0.755243	-0.050595
O14	O	0.569133	-0.255243	0.449405
Cu15	Cu	0.074135	-0.672308	-0.059812
Cu16	Cu	0.574135	-0.172308	0.440188
Cu17	Cu	0.074135	-0.672340	0.059691
Cu18	Cu	0.574135	-0.172340	0.559691
O19	O	0.157067	-0.667309	-0.050574
O20	O	0.657067	-0.167309	0.449426
C21	C	0.078882	-0.568176	-0.000049
C22	C	0.578882	-0.068176	0.499951
C23	C	0.078116	-0.504959	-0.000042
C24	C	0.578116	-0.004959	0.499958
C25	C	-0.030013	-0.677071	-0.000074
C26	C	0.469987	-0.177071	0.499926
C27	C	-0.093230	-0.676305	-0.000078
C28	C	0.406770	-0.176305	0.499922
C29	C	0.069388	-0.776472	-0.000071
C30	C	0.569388	-0.276472	0.499929
C31	C	0.070154	-0.839689	-0.000073
C32	C	0.570154	-0.339689	0.499927
C33	C	-0.492333	-0.723539	-0.000050
C34	C	0.007667	-0.223539	0.499950
C35	C	-0.551733	-0.722827	-0.000046
C36	C	-0.051733	-0.222827	0.499954
O37	O	-0.588478	-0.766613	-0.000028
O38	O	-0.088478	-0.266613	0.499972
N39	N	-0.574359	-0.670551	-0.000040
N40	N	-0.074359	-0.170551	0.499960
C41	C	-0.537582	-0.618983	-0.000033
C42	C	-0.037582	-0.118983	0.499967
O43	O	-0.562281	-0.574452	-0.000027
O44	O	-0.062281	-0.074452	0.499973
C45	C	-0.478182	-0.619695	-0.000033
C46	C	0.021818	-0.119695	0.499967
C47	C	-0.455560	-0.671974	-0.000045
C48	C	0.044440	-0.171974	0.499955
C49	C	-0.469710	-0.775814	-0.000061
C50	C	0.030290	-0.275814	0.499939
C51	C	-0.410313	-0.776525	-0.000067
C52	C	0.089687	-0.276525	0.499933
C53	C	-0.373540	-0.724961	-0.000062
C54	C	0.126460	-0.224961	0.499938
C55	C	-0.396164	-0.672685	-0.000051
C56	C	0.103836	-0.172685	0.499949
C57	C	-0.441406	-0.568127	-0.000022
C58	C	0.058594	-0.068127	0.499978
C59	C	-0.382004	-0.568844	-0.000022
C60	C	0.117996	-0.068844	0.499978
C61	C	-0.359381	-0.621123	-0.000034
C62	C	0.140619	-0.121123	0.499966
C63	C	-0.299995	-0.621832	-0.000052
C64	C	0.200005	-0.121832	0.499948
N65	N	-0.277368	-0.674109	-0.000057
N66	N	0.222632	-0.174109	0.499943
C67	C	-0.314141	-0.725673	-0.000062
C68	C	0.185859	-0.225673	0.499938
C69	C	-0.662324	-0.617491	-0.000031
C70	C	-0.162324	-0.117491	0.499969
C71	C	-0.721722	-0.616778	-0.000035
C72	C	-0.221722	-0.116778	0.499965
C73	C	-0.735869	-0.720623	-0.000047
C74	C	-0.235869	-0.220623	0.499953
C75	C	-0.676470	-0.721335	-0.000047
C76	C	-0.176470	-0.221335	0.499953
C77	C	-0.639698	-0.669767	-0.000037
C78	C	-0.139698	-0.169767	0.499963
C79	C	-0.189405	-0.727163	-0.000075
C80	C	0.310595	-0.227163	0.499925
C81	C	-0.130003	-0.727869	-0.000083
C82	C	0.369997	-0.227869	0.499917
C83	C	-0.115860	-0.624025	-0.000069
C84	C	0.384140	-0.124025	0.499931
C85	C	-0.175257	-0.623318	-0.000064
C86	C	0.324743	-0.123318	0.499936
C87	C	-0.212029	-0.674891	-0.000065
C88	C	0.287971	-0.174891	0.499935
O89	O	-0.263215	-0.578070	-0.000067
O90	O	0.236785	-0.078070	0.499933
O91	O	-0.289433	-0.770196	-0.000060
O92	O	0.210567	-0.270196	0.499940
C93	C	0.178283	-0.667577	-0.000046
C94	C	0.678283	-0.167577	0.499954
C95	C	0.241500	-0.668343	-0.000037
C96	C	0.741500	-0.168343	0.499963
N97	N	0.074135	-0.672291	-0.143865
N98	N	0.574135	-0.172291	0.356135
C99	C	0.125350	-0.105856	-0.000063
C100	C	0.625350	0.394144	0.499937
C101	C	0.124638	-0.046456	-0.000067
C102	C	0.624638	0.453544	0.499933
O103	O	0.168424	-0.009711	-0.000083
O104	O	0.668424	0.490289	0.499917
N105	N	0.072362	-0.023830	-0.000073
N106	N	0.572362	0.476170	0.499927
C107	C	0.020794	-0.060607	-0.000082
C108	C	0.520794	0.439393	0.499918
O109	O	-0.023737	-0.035908	-0.000088
O110	O	0.476263	0.464092	0.499912
C111	C	0.021506	-0.120006	-0.000082
C112	C	0.521506	0.379994	0.499918
C113	C	0.073785	-0.142629	-0.000070
C114	C	0.573785	0.357371	0.499930
C115	C	0.177625	-0.128479	-0.000051
C116	C	0.677625	0.371521	0.499949
C117	C	0.178336	-0.187876	-0.000046
C118	C	0.678336	0.312124	0.499954
C119	C	0.126772	-0.224649	-0.000053
C120	C	0.626772	0.275351	0.499947
C121	C	0.074497	-0.202025	-0.000065
C122	C	0.574497	0.297975	0.499935
C123	C	-0.030062	-0.156783	-0.000096
C124	C	0.469938	0.343217	0.499904
C125	C	-0.029345	-0.216185	-0.000097
C126	C	0.470655	0.283815	0.499903
C127	C	0.022934	-0.238808	-0.000084
C128	C	0.522934	0.261192	0.499916
C129	C	0.023643	-0.298194	-0.000067
C130	C	0.523643	0.201806	0.499933
N131	N	0.075920	-0.320820	-0.000061
N132	N	0.575920	0.179180	0.499939
C133	C	0.127484	-0.284048	-0.000054
C134	C	0.627484	0.215952	0.499946
C135	C	0.019302	0.064135	-0.000082
C136	C	0.519302	0.564135	0.499918
C137	C	0.018589	0.123533	-0.000077
C138	C	0.518589	0.623533	0.499923
C139	C	0.122434	0.137680	-0.000063
C140	C	0.622434	0.637680	0.499937
C141	C	0.123146	0.078281	-0.000064
C142	C	0.623146	0.578281	0.499936
C143	C	0.071578	0.041509	-0.000076
C144	C	0.571578	0.541509	0.499924
C145	C	0.128974	-0.408784	-0.000043
C146	C	0.628974	0.091216	0.499957
C147	C	0.129680	-0.468186	-0.000035
C148	C	0.629680	0.031814	0.499965
C149	C	0.025836	-0.482329	-0.000052
C150	C	0.525836	0.017671	0.499948
C151	C	0.025129	-0.422932	-0.000057
C152	C	0.525129	0.077068	0.499943
C153	C	0.076702	-0.386160	-0.000054
C154	C	0.576702	0.113840	0.499946
O155	O	-0.020119	-0.334974	-0.000054
O156	O	0.479881	0.165026	0.499946
O157	O	0.172007	-0.308755	-0.000055
O158	O	0.672007	0.191245	0.499945
C159	C	0.108496	-0.706685	-0.563643
C160	C	0.608496	-0.206685	-0.063643
C161	C	0.108494	-0.706692	-0.627251
C162	C	0.608494	-0.206692	-0.127251
O163	O	0.137705	-0.735915	-0.660141
O164	O	0.637705	-0.235915	-0.160141
N165	N	0.074128	-0.672351	-0.659072
N166	N	0.574128	-0.172351	-0.159072
C167	C	0.039758	-0.638005	-0.627282
C168	C	0.539758	-0.138005	-0.127282
O169	O	0.010527	-0.608796	-0.660189
O170	O	0.510527	-0.108796	-0.160189
C171	C	0.039757	-0.638002	-0.563676
C172	C	0.539757	-0.138002	-0.063676
C173	C	0.074129	-0.672341	-0.531858
C174	C	0.574129	-0.172341	-0.031858
C175	C	0.142864	-0.741022	-0.531825
C176	C	0.642864	-0.241022	-0.031825
C177	C	0.142867	-0.741014	-0.468222
C178	C	0.642867	-0.241014	0.031778
C179	C	0.108500	-0.706670	-0.436437
C180	C	0.608500	-0.206670	0.063563
C181	C	0.074131	-0.672333	-0.468255
C182	C	0.574131	-0.172333	0.031745
C183	C	0.005383	-0.603660	-0.531887
C184	C	0.505383	-0.103660	-0.031887
C185	C	0.005384	-0.603660	-0.468276
C186	C	0.505384	-0.103660	0.031724
C187	C	0.039757	-0.637999	-0.436458
C188	C	0.539757	-0.137999	0.063542
C189	C	0.039766	-0.637981	-0.372866
C190	C	0.539766	-0.137981	0.127134
N191	N	0.074132	-0.672322	-0.341045
N192	N	0.574132	-0.172322	0.158955
C193	C	0.108498	-0.706667	-0.372830
C194	C	0.608498	-0.206667	0.127170
C195	C	0.039762	-0.638015	-0.760860
C196	C	0.539762	-0.138015	-0.260860
C197	C	0.039766	-0.638015	-0.824465
C198	C	0.539766	-0.138015	-0.324465
C199	C	0.108502	-0.706703	-0.824429
C200	C	0.608502	-0.206703	-0.324429
C201	C	0.108501	-0.706700	-0.760823
C202	C	0.608501	-0.206700	-0.260823
C203	C	0.074128	-0.672356	-0.729039
C204	C	0.574128	-0.172356	-0.229039
C205	C	0.108501	-0.706648	-0.239259
C206	C	0.608501	-0.206648	0.260741
C207	C	0.108502	-0.706635	-0.175650
C208	C	0.608502	-0.206635	0.324350
C209	C	0.039764	-0.637950	-0.175691
C210	C	0.539764	-0.137950	0.324309
C211	C	0.039765	-0.637960	-0.239295
C212	C	0.539765	-0.137960	0.260705
C213	C	0.074135	-0.672313	-0.271077
C214	C	0.574135	-0.172313	0.228923
O215	O	0.010568	-0.608775	-0.339935
O216	O	0.510568	-0.108775	0.160065
O217	O	0.137719	-0.735876	-0.339916
O218	O	0.637719	-0.235876	0.160084
N219	N	0.074131	-0.672362	0.143744
N220	N	0.574131	-0.172362	0.643744
H221	H	-0.111587	-0.770443	-0.000094
H222	H	0.388413	-0.270443	0.499906
O223	O	0.141850	-0.740152	-0.855244
O224	O	0.641850	-0.240152	-0.355244
C225	C	0.125765	-0.798046	-0.839701
C226	C	0.625765	-0.298046	-0.339701
H227	H	0.103668	-0.800614	-0.793520
H228	H	0.603668	-0.300614	-0.293520
H229	H	0.165520	-0.821145	-0.837518
H230	H	0.665520	-0.321145	-0.337518
H231	H	0.095100	-0.819195	-0.875497
H232	H	0.595100	-0.319195	-0.375497
H233	H	0.170850	-0.768992	-0.557698
H234	H	0.670850	-0.268992	-0.057698
H235	H	0.136490	-0.734661	-0.734921
H236	H	0.636490	-0.234661	-0.234921
O237	O	-0.027924	-0.570241	-0.562813
O238	O	0.472076	-0.070241	-0.062813
C239	C	0.006986	-0.531188	-0.599626
C240	C	0.506986	-0.031188	-0.099626
H241	H	0.052340	-0.524805	-0.580459
H242	H	0.552340	-0.024805	-0.080459
H243	H	-0.011006	-0.488398	-0.600356
H244	H	0.488994	0.011602	-0.100356
H245	H	0.007854	-0.548781	-0.647828
H246	H	0.507854	-0.048781	-0.147828
O247	O	-0.743666	-0.565979	0.000077
O248	O	-0.243666	-0.065979	0.500077
C249	C	-0.724821	-0.534576	0.052407
C250	C	-0.224821	-0.034576	0.552407
H251	H	-0.712629	-0.565164	0.088981
H252	H	-0.212629	-0.065164	0.588981
H253	H	-0.760668	-0.510556	0.069981
H254	H	-0.260668	-0.010556	0.569981
H255	H	-0.685930	-0.502617	0.040575
H256	H	-0.185930	-0.002617	0.540575
O257	O	-0.025619	-0.400887	-0.000145
O258	O	0.474381	0.099113	0.499855
C259	C	-0.029146	-0.366963	-0.052494
C260	C	0.470854	0.133037	0.447506
H261	H	0.015827	-0.351917	-0.069936
H262	H	0.515827	0.148083	0.430064
H263	H	-0.051625	-0.328190	-0.040736
H264	H	0.448375	0.171810	0.459264
H265	H	-0.054491	-0.393348	-0.089142
H266	H	0.445509	0.106652	0.410858
O267	O	-0.028020	-0.570243	-0.437496
O268	O	0.471980	-0.070243	0.062504
C269	C	-0.058365	-0.539951	-0.479224
C270	C	0.441635	-0.039951	0.020776
H271	H	-0.034771	-0.536499	-0.524562
H272	H	0.465229	-0.036499	-0.024562
H273	H	-0.061673	-0.495187	-0.460864
H274	H	0.438327	0.004813	0.039136
H275	H	-0.103188	-0.563670	-0.485990
H276	H	0.396812	-0.063670	0.014010
H277	H	-0.459814	-0.525555	-0.000009
H278	H	0.040186	-0.025555	0.499991
O279	O	0.227704	-0.092739	-0.000148
O280	O	0.727704	0.407261	0.499852
C281	C	0.230407	-0.057933	-0.052471
C282	C	0.730407	0.442067	0.447529
H283	H	0.201159	-0.079833	-0.089061
H284	H	0.701159	0.420167	0.410939
H285	H	0.276323	-0.051005	-0.070024
H286	H	0.776323	0.448995	0.429976
H287	H	0.215926	-0.014815	-0.040639
H288	H	0.715926	0.485185	0.459361
H289	H	-0.072634	-0.138375	-0.000106
H290	H	0.427366	0.361625	0.499894
O291	O	0.006327	-0.604585	-0.270111
O292	O	0.506327	-0.104585	0.229889
C293	C	-0.023990	-0.574257	-0.228411
C294	C	0.476010	-0.074257	0.271589
H295	H	-0.027426	-0.597845	-0.183063
H296	H	0.472574	-0.097845	0.316937
H297	H	-0.068760	-0.570983	-0.246791
H298	H	0.431240	-0.070983	0.253209
H299	H	-0.000300	-0.529421	-0.221661
H300	H	0.499700	-0.029421	0.278339
O301	O	-0.771574	-0.770729	-0.000153
O302	O	-0.271574	-0.270729	0.499847
C303	C	-0.761371	-0.802489	-0.052482
C304	C	-0.261371	-0.302489	0.447518
H305	H	-0.740905	-0.772302	-0.089062
H306	H	-0.240905	-0.272302	0.410938
H307	H	-0.803650	-0.825563	-0.070046
H308	H	-0.303650	-0.325563	0.429954
H309	H	-0.731307	-0.835285	-0.040654
H310	H	-0.231307	-0.335285	0.459346
O311	O	-0.225176	-0.777223	-0.000160
O312	O	0.274824	-0.277223	0.499840
C313	C	-0.259957	-0.779915	-0.052501
C314	C	0.240043	-0.279915	0.447499
H315	H	-0.262724	-0.734724	-0.069939
H316	H	0.237276	-0.234724	0.430061
H317	H	-0.304716	-0.801401	-0.040732
H318	H	0.195284	-0.301401	0.459268
H319	H	-0.240557	-0.805795	-0.089154
H320	H	0.259443	-0.305795	0.410846
H321	H	0.220908	-0.206289	-0.000036
H322	H	0.720908	0.293711	0.499964
O323	O	-0.505367	-0.825946	0.000013
O324	O	-0.005367	-0.325946	0.500013
C325	C	-0.495156	-0.857715	0.052349
C326	C	0.004844	-0.357715	0.552349
H327	H	-0.450017	-0.843464	0.069802
H328	H	0.049983	-0.343464	0.569802
H329	H	-0.499585	-0.905233	0.040568
H330	H	0.000415	-0.405233	0.540568
H331	H	-0.527606	-0.850138	0.088996
H332	H	-0.027606	-0.350138	0.588996
H333	H	0.165717	0.059867	-0.000057
H334	H	0.665717	0.559867	0.499943
O335	O	0.006297	-0.604719	-0.855343
O336	O	0.506297	-0.104719	-0.355343
C337	C	-0.051590	-0.620817	-0.839789
C338	C	0.448410	-0.120817	-0.339789
H339	H	-0.057328	-0.666773	-0.822294
H340	H	0.442672	-0.166773	-0.322294
H341	H	-0.079595	-0.617661	-0.881622
H342	H	0.420405	-0.117661	-0.381622
H343	H	-0.064654	-0.591036	-0.802876
H344	H	0.435346	-0.091036	-0.302876
H345	H	0.011785	-0.609986	-0.149800
H346	H	0.511785	-0.109986	0.350200
O347	O	-0.654524	-0.772133	0.000055
O348	O	-0.154524	-0.272133	0.500055
C349	C	-0.673354	-0.803563	0.052379
C350	C	-0.173354	-0.303563	0.552379
H351	H	-0.685537	-0.772994	0.088960
H352	H	-0.185537	-0.272994	0.588960
H353	H	-0.637502	-0.827591	0.069946
H354	H	-0.137502	-0.327591	0.569946
H355	H	-0.712248	-0.835518	0.040541
H356	H	-0.212248	-0.335518	0.540541
H357	H	-0.022693	0.034198	-0.000086
H358	H	0.477307	0.534198	0.499914
H359	H	0.011774	-0.610043	-0.734985
H360	H	0.511774	-0.110043	-0.234985
H361	H	0.170970	-0.378851	-0.000042
H362	H	0.670970	0.121149	0.499958
O363	O	-0.346365	-0.518696	-0.000039
O364	O	0.153635	-0.018696	0.499961
C365	C	-0.379075	-0.472406	-0.000012
C366	C	0.120925	0.027594	0.499988
H367	H	-0.423494	-0.487117	-0.019143
H368	H	0.076506	0.012883	0.480857
H369	H	-0.356972	-0.436287	-0.029343
H370	H	0.143028	0.063713	0.470657
H371	H	-0.383210	-0.456383	0.048471
H372	H	0.116790	0.043617	0.548471
O373	O	-0.388276	-0.827275	0.000011
O374	O	0.111724	-0.327275	0.500011
C375	C	-0.354348	-0.830816	0.052354
C376	C	0.145652	-0.330816	0.552354
H377	H	-0.339295	-0.785848	0.069802
H378	H	0.160705	-0.285848	0.569802
H379	H	-0.315580	-0.853299	0.040584
H380	H	0.184420	-0.353299	0.540584
H381	H	-0.380732	-0.856165	0.089000
H382	H	0.119268	-0.356165	0.589000
H383	H	-0.071339	-0.246123	-0.000107
H384	H	0.428661	0.253877	0.499893
O385	O	-0.024199	-0.518136	-0.000088
O386	O	0.475801	-0.018136	0.499912
C387	C	-0.012354	-0.575412	-0.000070
C388	C	0.487646	-0.075412	0.499930
H389	H	0.032369	-0.577435	-0.019188
H390	H	0.532369	-0.077435	0.480812
H391	H	-0.045236	-0.602504	-0.029417
H392	H	0.454764	-0.102504	0.470583
H393	H	-0.014617	-0.592613	0.048409
H394	H	0.485383	-0.092613	0.548409
H395	H	-0.632386	-0.575496	-0.000028
H396	H	-0.132386	-0.075496	0.499972
H397	H	0.172255	-0.486602	-0.000025
H398	H	0.672255	0.013398	0.499975
H399	H	0.136494	-0.734598	-0.149747
H400	H	0.636494	-0.234598	0.350253
H401	H	0.170854	-0.768979	-0.442322
H402	H	0.670854	-0.268979	0.057678
H403	H	-0.193677	-0.580748	-0.000071
H404	H	0.306323	-0.080748	0.499929
H405	H	0.136488	-0.734622	-0.265129
H406	H	0.636488	-0.234622	0.234871
H407	H	0.164421	0.167632	-0.000060
H408	H	0.664421	0.667632	0.499940
H409	H	-0.023982	0.141947	-0.000078
H410	H	0.476018	0.641947	0.499922
H411	H	-0.085909	-0.582043	-0.000067
H412	H	0.414091	-0.082043	0.499933
