data_functionalizedCrystal
_audit_creation_method	'MofGen! by Chris Wilmer'
_symmetry_space_group_name_H-M	'P1'
_symmetry_Int_Tables_number	1
_symmetry_cell_setting	triclinic
loop_
_symmetry_equiv_pos_as_xyz
  x,y,z
_cell_length_a	16.120530
_cell_length_b	21.295417
_cell_length_c	21.295411
_cell_angle_alpha	90.021644
_cell_angle_beta	92.920962
_cell_angle_gamma	87.125778
loop_
_atom_site_label
_atom_site_type_symbol
_atom_site_fract_x
_atom_site_fract_y
_atom_site_fract_z
Zn1	Zn	1.274543	-0.299555	0.404646
Zn2	Zn	1.274414	-0.404801	0.299367
Zn3	Zn	1.135115	-0.294209	0.294060
Zn4	Zn	1.135074	-0.399442	0.399270
O5	O	1.204786	-0.349502	0.349336
O6	O	1.391191	-0.317996	0.395151
O7	O	1.255898	-0.390137	0.210572
O8	O	1.153681	-0.206831	0.308758
O9	O	1.391097	-0.395321	0.317803
O10	O	1.256119	-0.210759	0.390006
O11	O	1.153556	-0.308885	0.206673
O12	O	1.018444	-0.303688	0.303546
O13	O	1.153612	-0.386186	0.488074
O14	O	1.018414	-0.381002	0.380843
O15	O	1.256079	-0.312799	0.492024
O16	O	1.255859	-0.492177	0.312590
O17	O	1.153487	-0.488239	0.385989
C18	C	0.988179	-0.341184	0.341036
C19	C	0.895513	-0.337640	0.337500
C20	C	0.725852	-0.331156	0.331050
C21	C	0.684562	-0.367893	0.367668
C22	C	0.590156	-0.364286	0.364079
C23	C	0.820266	-0.334763	0.334638
C24	C	1.204677	-0.513049	0.349297
C25	C	1.204707	-0.583018	0.349304
C26	C	1.258059	-0.617916	0.311128
C27	C	1.258098	-0.683660	0.311144
C28	C	1.204770	-0.714503	0.349328
C29	C	1.151413	-0.679597	0.387512
C30	C	1.151382	-0.613855	0.387499
N31	N	1.131839	-0.814973	0.351332
N32	N	1.131872	-0.877426	0.351340
C33	C	1.204863	-0.912581	0.349368
N34	N	1.277823	-0.882925	0.347375
N35	N	1.277790	-0.820467	0.347364
C36	C	1.204799	-0.785790	0.349346
C37	C	1.258263	-1.018767	0.311207
C38	C	1.258303	-1.084512	0.311227
C39	C	1.151611	-1.080447	0.387591
C40	C	1.151578	-1.014704	0.387575
C41	C	1.204903	-0.983867	0.349379
C42	C	1.422240	-0.357853	0.357669
C43	C	1.514906	-0.361411	0.361220
C44	C	1.204856	-0.349491	0.513529
C45	C	1.204885	-0.349486	0.583498
C46	C	1.204919	-0.185316	0.349390
C47	C	1.204975	-0.115350	0.349413
C48	C	1.204765	-0.349469	0.185783
C49	C	1.204898	-0.349302	0.115821
C50	C	1.258237	-0.311272	0.618422
C51	C	1.258236	-0.311245	0.684165
C52	C	1.204892	-0.349443	0.714981
C53	C	1.151529	-0.387660	0.680048
C54	C	1.151526	-0.387682	0.614307
N55	N	1.198459	-0.404264	0.817950
N56	N	1.198467	-0.404242	0.880402
C57	C	1.204897	-0.349380	0.913056
N58	N	1.211334	-0.294539	0.880899
N59	N	1.211331	-0.294562	0.818442
C60	C	1.204889	-0.349424	0.786266
C61	C	1.258251	-0.311132	1.019266
C62	C	1.258244	-0.311104	1.085009
C63	C	1.151541	-0.387525	1.080892
C64	C	1.151543	-0.387548	1.015149
C65	C	1.204903	-0.349353	0.984340
H66	H	0.690303	-0.296998	0.297006
H67	H	1.301481	-0.592811	0.280029
Br68	Br	1.079132	-0.439359	1.122706
Br69	Br	0.743811	-0.424826	0.424420
H70	H	1.301686	-0.280170	0.593342
Br71	Br	1.330627	-0.976913	0.259370
H72	H	1.108076	-0.418799	0.585872
H73	H	1.301547	-0.712080	0.280057
H74	H	1.108194	-1.105559	0.418684
Br75	Br	1.079045	-0.721454	0.439339
H76	H	1.107935	-0.585440	0.418587
Br77	Br	1.079165	-0.967339	0.439386
H78	H	1.301755	-1.112925	0.280141
Br79	Br	1.330628	-0.259362	0.731571
H80	H	1.108092	-0.418760	0.705143
H81	H	1.301695	-0.280028	0.994179
H82	H	1.301689	-0.279981	1.113443
Br83	Br	1.079134	-0.439414	0.967749
