data_functionalizedCrystal
_audit_creation_method	'MofGen! by Chris Wilmer'
_symmetry_space_group_name_H-M	'P1'
_symmetry_Int_Tables_number	1
_symmetry_cell_setting	triclinic
loop_
_symmetry_equiv_pos_as_xyz
  x,y,z
_cell_length_a	19.805406
_cell_length_b	19.805407
_cell_length_c	19.805399
_cell_angle_alpha	90.021725
_cell_angle_beta	89.982961
_cell_angle_gamma	89.998138
loop_
_atom_site_label
_atom_site_type_symbol
_atom_site_fract_x
_atom_site_fract_y
_atom_site_fract_z
Zn1	Zn	-0.269457	-1.034857	-0.382808
Zn2	Zn	0.230543	-0.534857	0.117192
Zn3	Zn	-0.382645	-1.034823	-0.269641
Zn4	Zn	0.117355	-0.534823	0.230359
Zn5	Zn	-0.269478	-0.921672	-0.269628
Zn6	Zn	0.230522	-0.421672	0.230372
Zn7	Zn	-0.382611	-0.921686	-0.382783
Zn8	Zn	0.117389	-0.421686	0.117217
O9	O	-0.326048	-0.978259	-0.326215
O10	O	0.173952	-0.478259	0.173785
O11	O	-0.284476	-1.129569	-0.367812
O12	O	0.215524	-0.629569	0.132188
O13	O	-0.367656	-1.019793	-0.174922
O14	O	0.132344	-0.519793	0.325078
O15	O	-0.174758	-0.936694	-0.284647
O16	O	0.325242	-0.436694	0.215353
O17	O	-0.367635	-1.129544	-0.284668
O18	O	0.132365	-0.629544	0.215332
O19	O	-0.174743	-1.019851	-0.367800
O20	O	0.325257	-0.519851	0.132200
O21	O	-0.284512	-0.936661	-0.174913
O22	O	0.215488	-0.436661	0.325087
O23	O	-0.284480	-0.826957	-0.284623
O24	O	0.215520	-0.326957	0.215377
O25	O	-0.367578	-0.936719	-0.477503
O26	O	0.132422	-0.436719	0.022497
O27	O	-0.367599	-0.826968	-0.367757
O28	O	0.132401	-0.326968	0.132243
O29	O	-0.284444	-1.019865	-0.477521
O30	O	0.215556	-0.519865	0.022479
O31	O	-0.477357	-1.019807	-0.284644
O32	O	0.022643	-0.519807	0.215356
O33	O	-0.477332	-0.936686	-0.367769
O34	O	0.022668	-0.436686	0.132231
C35	C	-0.326038	-0.802403	-0.326187
C36	C	0.173962	-0.302403	0.173813
C37	C	-0.326051	-0.727171	-0.326191
C38	C	0.173949	-0.227171	0.173809
C39	C	-0.149505	-0.978275	-0.326225
C40	C	0.350495	-0.478275	0.173775
C41	C	-0.074273	-0.978281	-0.326229
C42	C	0.425727	-0.478281	0.173771
C43	C	-0.282819	-0.265397	-0.369584
C44	C	0.217181	0.234603	0.130416
C45	C	-0.282821	-0.336085	-0.369581
C46	C	0.217179	0.163915	0.130419
C47	C	-0.326050	-0.371410	-0.326223
C48	C	0.173950	0.128590	0.173777
C49	C	-0.369285	-0.336042	-0.282871
C50	C	0.130715	0.163958	0.217129
C51	C	-0.369286	-0.265355	-0.282878
C52	C	0.130714	0.234645	0.217122
C53	C	-0.369284	-0.621115	-0.282841
C54	C	0.130716	-0.121115	0.217159
C55	C	-0.369278	-0.691807	-0.282836
C56	C	0.130722	-0.191807	0.217164
C57	C	-0.282819	-0.691846	-0.369544
C58	C	0.217181	-0.191846	0.130456
C59	C	-0.282819	-0.621159	-0.369552
C60	C	0.217181	-0.121159	0.130448
C61	C	-0.326057	-0.585797	-0.326202
C62	C	0.173943	-0.085797	0.173798
C63	C	-0.326055	-0.509149	-0.326207
C64	C	0.173945	-0.009149	0.173793
C65	C	-0.326049	-0.448057	-0.326214
C66	C	0.173951	0.051943	0.173786
C67	C	-0.501904	-0.978262	-0.326220
C68	C	-0.001904	-0.478262	0.173780
C69	C	-0.577136	-0.978325	-0.326245
C70	C	-0.077136	-0.478325	0.173755
C71	C	-0.038918	-0.935007	-0.369507
C72	C	0.461082	-0.435007	0.130493
C73	C	0.031771	-0.935015	-0.369512
C74	C	0.531771	-0.435015	0.130488
C75	C	0.067103	-0.978295	-0.326235
C76	C	0.567103	-0.478295	0.173765
C77	C	0.031743	-1.021574	-0.282955
C78	C	0.531743	-0.521574	0.217045
C79	C	-0.038945	-1.021569	-0.282954
C80	C	0.461055	-0.521569	0.217046
C81	C	0.316816	-1.021597	-0.282960
C82	C	0.816816	-0.521597	0.217040
C83	C	0.387508	-1.021597	-0.282963
C84	C	0.887508	-0.521597	0.217037
C85	C	0.387531	-0.935043	-0.369518
C86	C	0.887531	-0.435043	0.130482
C87	C	0.316844	-0.935038	-0.369517
C88	C	0.816844	-0.435038	0.130483
C89	C	0.281490	-0.978319	-0.326240
C90	C	0.781490	-0.478319	0.173760
C91	C	0.204842	-0.978311	-0.326235
C92	C	0.704842	-0.478311	0.173765
C93	C	0.143750	-0.978300	-0.326236
C94	C	0.643750	-0.478300	0.173764
C95	C	-0.326005	-0.978297	-0.502758
C96	C	0.173995	-0.478297	-0.002758
C97	C	-0.325987	-0.978313	-0.577990
C98	C	0.174013	-0.478313	-0.077990
C99	C	-0.326054	-0.154802	-0.326238
C100	C	0.173946	0.345198	0.173762
C101	C	-0.326049	-0.230034	-0.326234
C102	C	0.173951	0.269966	0.173766
C103	C	-0.282697	-1.021609	-0.613345
C104	C	0.217303	-0.521609	-0.113345
C105	C	-0.282677	-1.021616	-0.684033
C106	C	0.217323	-0.521616	-0.184033
C107	C	-0.325952	-0.978330	-0.719366
C108	C	0.174048	-0.478330	-0.219366
C109	C	-0.369244	-0.935030	-0.684006
C110	C	0.130756	-0.435030	-0.184006
C111	C	-0.369259	-0.935020	-0.613319
C112	C	0.130741	-0.435020	-0.113319
C113	C	-0.369181	-0.935068	-0.969079
C114	C	0.130819	-0.435068	-0.469079
C115	C	-0.369163	-0.935083	-1.039771
C116	C	0.130837	-0.435083	-0.539771
C117	C	-0.282598	-1.021664	-1.039794
C118	C	0.217402	-0.521664	-0.539794
C119	C	-0.282614	-1.021654	-0.969107
C120	C	0.217386	-0.521654	-0.469107
C121	C	-0.325903	-0.978352	-0.933753
C122	C	0.174097	-0.478352	-0.433753
C123	C	-0.325923	-0.978344	-0.857105
C124	C	0.174077	-0.478344	-0.357105
C125	C	-0.325936	-0.978341	-0.796013
C126	C	0.174064	-0.478341	-0.296013
C127	C	-0.326041	-0.978260	-0.150359
C128	C	0.173959	-0.478260	0.349641
C129	C	-0.325869	-0.978375	-0.075128
C130	C	0.174131	-0.478375	0.424872
H131	H	-0.247612	-0.236641	-0.404887
H132	H	0.252388	0.263359	0.095113
H133	H	-0.404439	-0.899819	-0.940303
H134	H	0.095561	-0.399819	-0.440303
F135	F	-0.236641	-1.067683	-0.575748
F136	F	0.263359	-0.567683	-0.075748
H137	H	-0.404504	-0.899758	-0.584534
H138	H	0.095496	-0.399758	-0.084534
H139	H	-0.247615	-0.720646	-0.404844
H140	H	0.252385	-0.220646	0.095156
F141	F	0.425163	-0.888981	-0.415581
F142	F	0.925163	-0.388981	0.084419
H143	H	-0.247427	-1.056872	-0.712816
H144	H	0.252573	-0.556872	-0.212816
F145	F	-0.236812	-0.373718	-0.415724
F146	F	0.263188	0.126282	0.084276
F147	F	-0.415291	-0.729400	-0.236686
F148	F	0.084709	-0.229400	0.263314
H149	H	0.288039	-1.056837	-0.247718
H150	H	0.788039	-0.556837	0.252282
F151	F	-0.415285	-0.583489	-0.236689
F152	F	0.084715	-0.083489	0.263311
H153	H	0.060514	-1.056817	-0.247721
H154	H	0.560514	-0.556817	0.252279
H155	H	-0.067730	-1.056809	-0.247714
H156	H	0.432270	-0.556809	0.252286
H157	H	-0.404476	-0.899784	-0.712779
H158	H	0.095524	-0.399784	-0.212779
F159	F	-0.415297	-0.373638	-0.236729
F160	F	0.084703	0.126362	0.263271
H161	H	-0.247615	-0.592401	-0.404856
H162	H	0.252385	-0.092401	0.095144
F163	F	-0.236523	-1.067748	-1.077425
F164	F	0.263477	-0.567748	-0.577425
H165	H	-0.404404	-0.899832	-1.068537
H166	H	0.095596	-0.399832	-0.568537
H167	H	-0.247378	-1.056903	-0.940342
H168	H	0.252622	-0.556903	-0.440342
H169	H	-0.404490	-0.236563	-0.247578
H170	H	0.095510	0.263437	0.252422
F171	F	0.069395	-0.888958	-0.415577
F172	F	0.569395	-0.388958	0.084423
F173	F	-0.076515	-0.888938	-0.415565
F174	F	0.423485	-0.388938	0.084435
F175	F	0.279245	-0.888973	-0.415577
F176	F	0.779245	-0.388973	0.084423
H177	H	0.416274	-1.056843	-0.247720
H178	H	0.916274	-0.556843	0.252280
