data_functionalizedCrystal
_audit_creation_method	'MofGen! by Chris Wilmer'
_symmetry_space_group_name_H-M	'P1'
_symmetry_Int_Tables_number	1
_symmetry_cell_setting	triclinic
loop_
_symmetry_equiv_pos_as_xyz
  x,y,z
_cell_length_a	16.992694
_cell_length_b	8.559649
_cell_length_c	7.681481
_cell_angle_alpha	94.930900
_cell_angle_beta	83.878288
_cell_angle_gamma	80.223444
loop_
_atom_site_label
_atom_site_type_symbol
_atom_site_fract_x
_atom_site_fract_y
_atom_site_fract_z
O1	O	1.011896	0.350276	0.146201
O2	O	0.783830	0.346592	0.146253
O3	O	0.917956	0.118397	0.146221
O4	O	0.877770	0.578471	0.146233
O5	O	0.934469	0.090242	-0.146641
O6	O	0.800343	0.318437	-0.146609
O7	O	1.028409	0.322121	-0.146661
Zn8	Zn	0.916998	0.315809	-0.193133
Zn9	Zn	0.895242	0.352904	0.192725
O10	O	0.894283	0.550316	-0.146628
C11	C	0.763159	0.327770	-0.000171
C12	C	0.676967	0.313614	-0.000151
C13	C	0.929258	0.045179	-0.000208
C14	C	0.938322	-0.131043	-0.000200
C15	C	0.618500	0.450221	-0.000149
C16	C	0.537516	0.436906	-0.000174
C17	C	0.515001	0.286983	-0.000188
C18	C	0.573475	0.150365	-0.000196
C19	C	0.654457	0.163680	-0.000184
C20	C	0.274728	0.231797	-0.000237
C21	C	0.193739	0.218493	-0.000243
C22	C	0.157786	0.505035	-0.000225
C23	C	0.238771	0.518339	-0.000202
C24	C	0.297239	0.381719	-0.000219
N25	N	0.432223	0.273370	-0.000208
N26	N	0.380016	0.395332	-0.000212
C27	C	1.049080	0.340943	-0.000233
C28	C	1.135272	0.355101	-0.000241
C29	C	0.882981	0.623534	-0.000196
C30	C	0.873916	0.799757	-0.000192
N31	N	0.931852	0.290492	-0.456471
N32	N	0.880395	0.378209	0.456063
H33	H	0.489914	0.548148	-0.000170
O34	O	0.711300	0.030996	-0.000490
C35	C	0.767793	0.015566	-0.152138
H36	H	0.739171	0.082665	-0.258150
H37	H	0.787486	-0.115889	-0.203056
H38	H	0.822403	0.067442	-0.117838
H39	H	0.175411	0.096402	-0.000253
H40	H	0.257095	0.640423	-0.000170
H41	H	0.811841	-0.124672	-0.000184
O42	O	0.994492	0.183473	-0.546001
C43	C	0.988657	0.029199	-0.501121
H44	H	0.951149	0.038381	-0.367223
H45	H	1.051464	-0.040936	-0.494993
H46	H	0.958643	-0.034599	-0.604851
H47	H	0.636824	0.572305	-0.000136
H48	H	0.110174	0.616262	-0.000214
H49	H	0.827868	0.467741	-0.468728
H50	H	0.322324	0.120551	-0.000252
O51	O	1.012352	-0.221233	0.000090
C52	C	1.012972	-0.303063	0.151731
H53	H	0.963580	-0.237296	0.257757
H54	H	1.073906	-0.308919	0.202632
H55	H	1.001931	-0.429142	0.117428
O56	O	0.551464	0.004857	-0.000135
C57	C	0.467451	0.022390	-0.000184
H58	H	0.437810	0.149027	0.055267
H59	H	0.443357	-0.065997	0.084833
H60	H	0.453253	-0.001683	-0.140688
