data_functionalizedCrystal
_audit_creation_method	'MofGen! by Chris Wilmer'
_symmetry_space_group_name_H-M	'P1'
_symmetry_Int_Tables_number	1
_symmetry_cell_setting	triclinic
loop_
_symmetry_equiv_pos_as_xyz
  x,y,z
_cell_length_a	10.723022
_cell_length_b	10.723022
_cell_length_c	17.766277
_cell_angle_alpha	90.005147
_cell_angle_beta	90.009670
_cell_angle_gamma	84.467226
loop_
_atom_site_label
_atom_site_type_symbol
_atom_site_fract_x
_atom_site_fract_y
_atom_site_fract_z
O1	O	-1.657197	-0.175020	-0.062598
O2	O	-1.294045	-0.191775	-0.062598
O3	O	-1.483999	-0.001821	-0.062595
O4	O	-1.467243	-0.364974	-0.062601
O5	O	-1.483965	-0.001811	0.062593
O6	O	-1.294011	-0.191765	0.062590
O7	O	-1.657163	-0.175010	0.062590
Cu8	Cu	-1.475584	-0.183387	0.074021
Cu9	Cu	-1.475624	-0.183399	-0.074029
O10	O	-1.467209	-0.364964	0.062588
C11	C	-1.247528	-0.190551	-0.000004
C12	C	-1.108974	-0.186905	-0.000004
C13	C	-1.482763	0.044683	-0.000002
C14	C	-1.479116	0.183238	-0.000005
C15	C	-1.060413	-0.077365	-0.000002
C16	C	-0.917210	-0.073593	-0.000002
C17	C	-1.468445	-0.411469	-0.000007
C18	C	-1.472092	-0.550023	-0.000010
C19	C	-0.703680	-0.176234	-0.000004
C20	C	-0.842234	-0.179881	-0.000004
C21	C	-1.581632	0.401417	-0.000008
C22	C	-1.585404	0.258214	-0.000006
N23	N	-1.475565	-0.183378	0.178151
N24	N	-1.475653	-0.183398	-0.178159
C25	C	-1.559705	-0.099308	0.217539
C26	C	-1.559712	-0.099302	0.296341
C27	C	-1.475591	-0.183388	0.335752
C28	C	-1.391436	-0.267464	0.296354
C29	C	-1.391423	-0.267459	0.217554
C30	C	-1.460213	-0.296900	0.460588
C31	C	-1.460235	-0.296907	0.539387
C32	C	-1.475625	-0.183403	0.578798
C33	C	-1.491020	-0.069888	0.539401
C34	C	-1.491006	-0.069883	0.460601
C35	C	-1.475596	-0.183402	0.421198
C36	C	-1.559777	-0.099320	0.703632
C37	C	-1.559775	-0.099313	0.782436
C38	C	-1.391506	-0.267485	0.782447
C39	C	-1.391501	-0.267482	0.703645
C40	C	-1.475643	-0.183401	0.664243
H41	H	-0.875399	0.020195	-0.000020
H42	H	-1.044531	-0.277893	-0.000008
H43	H	-1.672621	0.465859	-0.000005
H44	H	-1.679191	0.216402	-0.000032
H45	H	-1.323009	-0.335945	0.814535
H46	H	-1.385324	0.225041	-0.000010
O47	O	-1.363453	0.373236	-0.000110
C48	C	-1.293528	0.396461	-0.064958
H49	H	-1.323211	0.494959	-0.086575
H50	H	-1.311308	0.325142	-0.110356
C51	C	-1.116574	0.264141	-0.018713
C52	C	-1.153023	0.385122	-0.045261
H53	H	-1.029903	0.257141	-0.006566
H54	H	-1.163684	0.248489	0.024974
H55	H	-1.131401	0.204722	-0.056550
H56	H	-1.138210	0.444536	-0.007422
H57	H	-1.105907	0.400783	-0.088943
H58	H	-1.628215	-0.030841	0.185460
O59	O	-1.641635	-0.017599	0.820583
C60	C	-1.715874	0.056627	0.768903
H61	H	-1.717703	0.005450	0.712728
H62	H	-1.674581	0.149710	0.760536
C63	C	-1.848029	0.143954	0.868635
C64	C	-1.850285	0.081093	0.799641
H65	H	-1.930939	0.159051	0.887596
H66	H	-1.798011	0.093950	0.903453
H67	H	-1.813613	0.221516	0.861652
H68	H	-1.884686	0.003526	0.806626
H69	H	-1.900312	0.131084	0.764824
H70	H	-0.884037	-0.273673	-0.000001
O71	O	-1.641563	-0.017582	0.334497
C72	C	-1.715795	0.056659	0.282822
H73	H	-1.717640	0.005488	0.226645
H74	H	-1.674486	0.149734	0.274454
C75	C	-1.847927	0.144001	0.382559
C76	C	-1.850201	0.081146	0.313564
H77	H	-1.930833	0.159112	0.401523
H78	H	-1.797913	0.093988	0.417375
H79	H	-1.813497	0.221556	0.375577
H80	H	-1.884616	0.003587	0.320549
H81	H	-1.900224	0.131148	0.278750
O82	O	-1.505907	0.040491	0.422447
C83	C	-1.519528	0.140678	0.474121
H84	H	-1.475943	0.108955	0.530300
H85	H	-1.623314	0.171655	0.482483
C86	C	-1.506617	0.290087	0.374384
C87	C	-1.453076	0.251128	0.443382
H88	H	-1.465632	0.358221	0.355422
H89	H	-1.497445	0.222591	0.339569
H90	H	-1.593103	0.315892	0.381362
H91	H	-1.366596	0.225309	0.436402
H92	H	-1.462232	0.318623	0.478195
H93	H	-1.447659	-0.389335	0.428506
H94	H	-1.503551	0.022538	0.571488
O95	O	-1.641696	-0.017850	0.665343
C96	C	-1.719218	-0.085450	0.619768
H97	H	-1.722049	-0.183901	0.643509
H98	H	-1.680290	-0.091591	0.560033
C99	C	-1.849186	0.102911	0.589447
C100	C	-1.852670	-0.018005	0.618610
H101	H	-1.931504	0.144516	0.588729
H102	H	-1.796956	0.148456	0.620149
H103	H	-1.816740	0.097777	0.539671
H104	H	-1.885101	-0.012868	0.668388
H105	H	-1.904910	-0.063548	0.587916
H106	H	-1.322992	-0.335945	0.671573
O107	O	-1.445214	-0.407280	0.577537
C108	C	-1.431640	-0.507461	0.525857
H109	H	-1.397053	-0.472626	0.469695
H110	H	-1.525954	-0.546301	0.517455
C111	C	-1.378612	-0.654267	0.625599
C112	C	-1.336121	-0.611485	0.556622
H113	H	-1.319696	-0.718437	0.644577
H114	H	-1.387761	-0.586775	0.660418
H115	H	-1.457207	-0.686625	0.618588
H116	H	-1.257535	-0.579113	0.563636
H117	H	-1.326956	-0.678974	0.521805
O118	O	-1.309670	-0.348974	0.334718
C119	C	-1.232111	-0.281437	0.380306
H120	H	-1.280986	-0.184242	0.392110
H121	H	-1.139807	-0.272111	0.349955
C122	C	-1.146025	-0.470935	0.440659
C123	C	-1.206059	-0.351561	0.455162
H124	H	-1.129949	-0.514192	0.486833
H125	H	-1.198274	-0.516437	0.409944
H126	H	-1.069112	-0.463146	0.415365
H127	H	-1.282977	-0.359352	0.480447
H128	H	-1.153822	-0.306062	0.485883
O129	O	-1.309645	-0.349254	0.179405
C130	C	-1.235370	-0.423447	0.231083
H131	H	-1.286546	-0.425326	0.287248
H132	H	-1.142328	-0.382078	0.239478
C133	C	-1.147936	-0.555527	0.131340
C134	C	-1.210796	-0.557844	0.200322
H135	H	-1.132772	-0.638428	0.112364
H136	H	-1.197973	-0.505539	0.096523
H137	H	-1.070408	-0.521047	0.138345
H138	H	-1.288329	-0.592308	0.193314
H139	H	-1.160772	-0.607840	0.235137
H140	H	-1.124856	0.013624	-0.000005
