data_functionalizedCrystal
_audit_creation_method	'MofGen! by Chris Wilmer'
_symmetry_space_group_name_H-M	'P1'
_symmetry_Int_Tables_number	1
_symmetry_cell_setting	triclinic
loop_
_symmetry_equiv_pos_as_xyz
  x,y,z
_cell_length_a	18.426585
_cell_length_b	23.196402
_cell_length_c	23.196402
_cell_angle_alpha	59.998670
_cell_angle_beta	89.998408
_cell_angle_gamma	60.003291
loop_
_atom_site_label
_atom_site_type_symbol
_atom_site_fract_x
_atom_site_fract_y
_atom_site_fract_z
Zr1	Zr	-0.095216	0.630980	0.555392
O2	O	-0.211083	0.751244	0.463344
O3	O	-0.059701	0.510716	0.583607
O4	O	-0.211093	0.630976	0.583612
O5	O	0.059735	0.630988	0.463338
O6	O	-0.211096	0.630973	0.678484
O7	O	-0.059691	0.630984	0.463339
O8	O	0.059717	0.415850	0.678475
O9	O	-0.211078	0.846111	0.463347
O10	O	-0.044551	0.560181	0.666445
O11	O	0.044577	0.560186	0.595642
O12	O	-0.133667	0.701776	0.595648
O13	O	-0.044539	0.701781	0.524845
Zr14	Zr	0.095250	0.630983	0.706699
Zr15	Zr	-0.095220	0.630976	0.706701
Zr16	Zr	0.095254	0.630987	0.555389
Zr17	Zr	-0.095208	0.782283	0.555396
Zr18	Zr	0.095242	0.479680	0.706695
O19	O	0.059735	0.751248	0.678484
O20	O	-0.211089	0.751239	0.678487
O21	O	0.059741	0.751253	0.463341
O22	O	0.211118	0.510719	0.798747
O23	O	-0.059707	0.510710	0.798750
O24	O	0.211123	0.510725	0.583604
O25	O	-0.059700	0.630975	0.798753
O26	O	0.211127	0.630987	0.678479
O27	O	0.211130	0.630990	0.583607
O28	O	0.059725	0.630979	0.798752
O29	O	-0.211082	0.846108	0.583618
O30	O	0.211116	0.415855	0.678473
O31	O	0.211112	0.415852	0.798744
O32	O	0.059714	0.415847	0.798746
O33	O	-0.059680	0.846116	0.463345
O34	O	-0.059683	0.846113	0.583616
O35	O	0.133702	0.560187	0.666443
O36	O	0.044573	0.560182	0.737246
O37	O	-0.044543	0.701778	0.666449
O38	O	0.044585	0.701782	0.595646
C39	C	0.000007	0.441725	0.631040
C40	C	0.000003	0.377494	0.631038
C41	C	-0.046524	0.347321	0.667992
C42	C	-0.046517	0.286960	0.667999
C43	C	0.000006	0.256785	0.631038
C44	C	0.046543	0.286962	0.594083
C45	C	0.046542	0.347316	0.594083
C46	C	-0.006632	0.194757	0.569133
C47	C	-0.006637	0.134408	0.569131
C48	C	0.000015	0.070631	0.631039
C49	C	0.006654	0.067217	0.692949
C50	C	0.006653	0.127572	0.692949
C51	C	0.000013	0.191341	0.631034
C52	C	-0.046507	-0.024994	0.668003
C53	C	-0.046493	-0.085359	0.668012
C54	C	0.046561	-0.085350	0.594090
C55	C	0.046553	-0.024991	0.594088
C56	C	0.000014	0.005186	0.631043
C57	C	-0.238232	0.630974	0.631048
C58	C	-0.319092	0.630971	0.631049
C59	C	-0.384759	0.630968	0.631050
C60	C	-0.467145	0.630971	0.631049
C61	C	-0.532814	0.630980	0.631046
C62	C	-0.615205	0.630984	0.631045
C63	C	0.238267	0.630990	0.631043
C64	C	0.319126	0.630992	0.631042
C65	C	0.000022	0.630986	0.441780
C66	C	0.000024	0.630988	0.377545
C67	C	0.000027	0.820238	0.631051
C68	C	0.000031	0.884470	0.631052
C69	C	-0.065773	0.630992	0.347374
C70	C	-0.065773	0.630985	0.287022
C71	C	0.000018	0.630990	0.256837
C72	C	0.065826	0.630981	0.287018
C73	C	0.065829	0.630981	0.347372
C74	C	0.020521	0.678496	0.137463
C75	C	0.020512	0.678502	0.077108
C76	C	0.000013	0.630989	0.070687
C77	C	-0.020496	0.583480	0.124623
C78	C	-0.020493	0.583479	0.184977
C79	C	0.000022	0.630990	0.191393
C80	C	-0.065788	0.630984	-0.024924
C81	C	-0.065782	0.630971	-0.085274
C82	C	0.065814	0.630976	-0.085281
C83	C	0.065811	0.630980	-0.024928
C84	C	0.000006	0.630988	0.005245
C85	C	0.000012	0.630977	0.820311
C86	C	0.000010	0.630975	0.884546
C87	C	0.000002	0.441720	0.820306
C88	C	-0.000003	0.377487	0.884539
C89	C	0.238256	0.441733	0.631037
C90	C	0.319113	0.377504	0.631035
C91	C	0.238251	0.441729	0.820303
C92	C	0.319106	0.377498	0.884535
C93	C	-0.238217	0.820235	0.441788
C94	C	-0.319072	0.884465	0.377556
C95	C	0.000032	0.820243	0.441785
C96	C	0.000038	0.884476	0.377552
C97	C	-0.238222	0.820230	0.631053
C98	C	-0.319079	0.884459	0.631056
C99	C	-0.046536	0.347322	0.877746
C100	C	-0.046559	0.286976	0.938094
C101	C	-0.000043	0.256792	1.005234
C102	C	0.046491	0.286964	1.012026
C103	C	0.046508	0.347312	0.951678
C104	C	0.403614	0.347342	0.667991
C105	C	0.479594	0.287001	0.667985
C106	C	0.471071	0.256818	0.631028
C107	C	0.386562	0.286986	0.594067
C108	C	0.310583	0.347331	0.594069
C109	C	0.310552	0.347332	0.951664
C110	C	0.386516	0.286989	1.012023
C111	C	0.471033	0.256808	1.005251
C112	C	0.479585	0.286980	0.938115
C113	C	0.403622	0.347326	0.877758
C114	C	-0.310518	0.914639	0.310427
C115	C	-0.386482	0.975001	0.250068
C116	C	-0.470999	1.005184	0.256840
C117	C	-0.479551	0.975008	0.323976
C118	C	-0.403588	0.914652	0.384333
C119	C	0.046562	0.914648	0.384345
C120	C	0.046564	0.975010	0.323997
C121	C	0.000046	1.005196	0.256857
C122	C	-0.046485	0.975022	0.250065
C123	C	-0.046491	0.914665	0.310413
C124	C	-0.310528	0.914622	0.668021
C125	C	-0.386493	0.974965	0.668037
C126	C	-0.471009	1.005146	0.631084
C127	C	-0.479558	0.974977	0.594118
C128	C	-0.403594	0.914632	0.594107
H129	H	0.012061	0.124788	0.743358
H130	H	-0.000063	0.207652	1.054367
H131	H	-0.084425	0.371896	0.823083
H132	H	0.084405	0.371865	0.957219
H133	H	0.379636	0.262402	0.563978
H134	H	0.410570	0.371910	0.698086
H135	H	0.548398	0.262445	0.698086
H136	H	0.410599	0.371880	0.823101
H137	H	-0.548374	0.999592	0.329481
H138	H	-0.241717	0.890058	0.698112
H139	H	0.532945	0.207682	0.631032
H140	H	-0.379501	0.999560	0.195409
H141	H	-0.410563	0.890085	0.438991
H142	H	-0.379515	0.999522	0.698138
H143	H	-0.532857	1.054283	0.631099
H144	H	-0.410568	0.890079	0.564002
H145	H	-0.084358	0.999608	0.195392
H146	H	-0.084406	0.262388	0.698092
H147	H	-0.241707	0.890067	0.304900
H148	H	-0.532846	1.054330	0.207687
H149	H	-0.548381	0.999560	0.564032
H150	H	0.037288	0.717137	0.142708
H151	H	-0.084416	0.371887	0.698085
H152	H	-0.119368	0.630986	-0.000354
H153	H	-0.084452	0.262418	0.932551
H154	H	-0.084374	0.890100	0.304872
H155	H	-0.119354	0.630987	0.262452
H156	H	0.241782	0.371881	0.563977
H157	H	-0.084378	-0.109930	0.698108
H158	H	0.379537	0.262429	1.066682
H159	H	0.012082	0.015283	0.743363
H160	H	0.084449	0.890075	0.439008
H161	H	0.241741	0.371896	0.957191
H162	H	-0.119354	0.630995	0.371940
H163	H	-0.084398	-0.000425	0.698097
H164	H	0.000058	1.054343	0.207724
H165	H	0.084440	-0.109917	0.563996
H166	H	0.084362	0.262379	1.066699
H167	H	0.548409	0.262398	0.932612
H168	H	0.532880	0.207670	1.054404
H169	H	0.084458	0.999568	0.329540
H170	H	-0.012048	0.137196	0.518720
H171	H	-0.012067	0.246695	0.518713
H172	H	0.084437	-0.000421	0.563993
H173	H	0.084423	0.262390	0.563990
H174	H	-0.037189	0.544794	0.228892
H175	H	0.084430	0.371884	0.563989
H176	H	-0.037194	0.544794	0.119397
H177	H	0.119410	0.630977	0.371938
H178	H	0.119385	0.630976	-0.109855
H179	H	0.119386	0.630982	-0.000363
H180	H	-0.119359	0.630969	-0.109837
H181	H	0.119395	0.630984	0.262439
H182	H	0.037207	0.717190	0.033194
