data_functionalizedCrystal
_audit_creation_method	'MofGen! by Chris Wilmer'
_symmetry_space_group_name_H-M	'P1'
_symmetry_Int_Tables_number	1
_symmetry_cell_setting	triclinic
loop_
_symmetry_equiv_pos_as_xyz
  x,y,z
_cell_length_a	12.759401
_cell_length_b	12.827892
_cell_length_c	12.759393
_cell_angle_alpha	90.029972
_cell_angle_beta	90.020938
_cell_angle_gamma	90.016917
loop_
_atom_site_label
_atom_site_type_symbol
_atom_site_fract_x
_atom_site_fract_y
_atom_site_fract_z
Zn1	Zn	1.606261	-0.415940	0.594024
Zn2	Zn	1.606150	-0.590717	0.418346
Zn3	Zn	1.430560	-0.415996	0.418359
Zn4	Zn	1.430550	-0.590644	0.593983
O5	O	1.518380	-0.503324	0.506178
O6	O	1.753268	-0.439132	0.570731
O7	O	1.582816	-0.567594	0.271326
O8	O	1.453918	-0.269752	0.441684
O9	O	1.753186	-0.567540	0.441661
O10	O	1.583005	-0.269711	0.570744
O11	O	1.453810	-0.439227	0.271336
O12	O	1.283538	-0.439156	0.441644
O13	O	1.453900	-0.567416	0.741009
O14	O	1.283530	-0.567469	0.570674
O15	O	1.582995	-0.439061	0.741040
O16	O	1.582806	-0.736944	0.441622
O17	O	1.453793	-0.736890	0.570661
C18	C	1.245413	-0.503312	0.506157
C19	C	1.128636	-0.503331	0.506173
C20	C	1.073798	-0.570246	0.573253
C21	C	0.964074	-0.570250	0.573274
C22	C	0.964036	-0.436422	0.439125
C23	C	1.073758	-0.436413	0.439111
C24	C	0.814177	-0.607747	0.697135
C25	C	0.759335	-0.674678	0.764206
C26	C	0.794932	-0.776661	0.780155
C27	C	0.885369	-0.811735	0.729017
C28	C	0.940205	-0.744809	0.661938
C29	C	0.904610	-0.642811	0.646010
C30	C	1.223657	-0.398927	0.315248
C31	C	1.278495	-0.332006	0.248164
C32	C	1.242901	-0.230021	0.232204
C33	C	1.152461	-0.194951	0.283323
C34	C	1.097622	-0.261872	0.350408
C35	C	1.133224	-0.363856	0.366369
C36	C	1.518315	-0.774834	0.506158
C37	C	1.518383	-0.890987	0.506185
C38	C	1.582231	-0.942668	0.570106
C39	C	1.582302	-1.062719	0.570135
C40	C	1.792414	-0.503338	0.506199
C41	C	1.909190	-0.503344	0.506209
C42	C	1.518459	-0.503224	0.780211
C43	C	1.518492	-0.503181	0.896988
C44	C	1.518475	-0.230754	0.506220
C45	C	1.518515	-0.114601	0.506239
C46	C	1.518363	-0.503349	0.233211
C47	C	1.518533	-0.503097	0.116434
C48	C	1.585717	-0.436336	0.951867
C49	C	1.585735	-0.436291	1.061592
C50	C	1.451301	-0.569945	1.061547
C51	C	1.451278	-0.569984	0.951825
C52	C	1.623348	-0.312997	1.211569
C53	C	1.690589	-0.246161	1.266452
C54	C	1.793102	-0.230136	1.230860
C55	C	1.828395	-0.280963	1.140387
C56	C	1.761160	-0.347806	1.085510
C57	C	1.658632	-0.363811	1.121100
C58	C	1.413676	-0.693280	0.801846
C59	C	1.346445	-0.760130	0.746967
C60	C	1.243930	-0.776165	0.782556
C61	C	1.208641	-0.725357	0.873033
C62	C	1.275872	-0.658507	0.927912
C63	C	1.378385	-0.642470	0.892315
H64	H	1.118476	-0.624732	0.627862
H65	H	1.497149	-0.680222	0.772855
O66	O	1.453406	-1.061642	0.440797
C67	C	1.402461	-1.028274	0.262066
C68	C	1.476278	-1.088305	0.336056
H69	H	1.420911	-1.049825	0.177369
H70	H	1.414025	-0.940887	0.273583
H71	H	1.317736	-1.049722	0.280484
H72	H	1.561031	-1.066944	0.317684
H73	H	1.464624	-1.175677	0.324526
O74	O	1.109079	-0.741117	0.907588
C75	C	0.981601	-0.865452	0.969115
C76	C	1.094375	-0.847747	0.929974
H77	H	0.969684	-0.951655	0.987246
H78	H	0.923714	-0.840175	0.905975
H79	H	0.967939	-0.817608	1.043177
H80	H	1.108138	-0.895584	0.855931
H81	H	1.152203	-0.872993	0.993179
H82	H	1.847850	-0.175716	1.275554
H83	H	0.685702	-0.646111	0.805843
O84	O	1.380567	-0.809598	0.659079
C85	C	1.338039	-0.927928	0.518617
C86	C	1.299273	-0.871998	0.618149
H87	H	1.272326	-0.978374	0.485483
H88	H	1.408134	-0.979204	0.538871
H89	H	1.362342	-0.867544	0.457766
H90	H	1.274914	-0.932309	0.679044
H91	H	1.229217	-0.820703	0.597813
H92	H	1.463768	-0.935618	0.451487
O93	O	1.656412	-0.196903	1.354438
C94	C	1.680750	-0.170245	1.539815
C95	C	1.719539	-0.226109	1.440255
H96	H	1.731784	-0.193821	1.609219
H97	H	1.595943	-0.193183	1.555910
H98	H	1.685847	-0.082306	1.528000
H99	H	1.714511	-0.314059	1.451994
H100	H	1.804328	-0.203087	1.424191
O101	O	0.779751	-0.508606	0.681759
C102	C	0.818866	-0.325350	0.695879
C103	C	0.857979	-0.437573	0.713371
H104	H	0.882102	-0.267890	0.721408
H105	H	0.744842	-0.311705	0.743972
H106	H	0.800718	-0.313381	0.609226
H107	H	0.876187	-0.449621	0.799996
H108	H	0.931968	-0.451166	0.665211
O109	O	1.386116	-0.634805	1.114981
C110	C	1.326526	-0.693937	1.283993
C111	C	1.400417	-0.620444	1.223615
H112	H	1.338047	-0.682336	1.371834
H113	H	1.344940	-0.778233	1.262486
H114	H	1.241824	-0.675597	1.262347
H115	H	1.485144	-0.638690	1.245229
H116	H	1.381913	-0.536170	1.245127
O117	O	0.919879	-0.910856	0.744328
C118	C	0.960560	-1.076615	0.665289
C119	C	0.921433	-0.964396	0.647803
H120	H	0.961849	-1.119928	0.587260
H121	H	0.905831	-1.118497	0.721961
H122	H	1.043045	-1.074472	0.699594
H123	H	0.838964	-0.966444	0.613465
H124	H	0.976234	-0.922560	0.591169
H125	H	1.539872	-0.326030	1.240551
O126	O	1.795440	-0.397341	0.997727
C127	C	1.827801	-0.562053	0.912838
C128	C	1.788975	-0.506096	1.012331
H129	H	1.822566	-0.649991	0.924602
H130	H	1.912647	-0.539214	0.896812
H131	H	1.776857	-0.538369	0.843405
H132	H	1.839841	-0.529751	1.081825
H133	H	1.704112	-0.528938	1.028265
O134	O	1.178482	-0.840976	0.729258
C135	C	1.015849	-0.858299	0.634771
C136	C	1.089861	-0.784799	0.695124
H137	H	0.944192	-0.812904	0.607137
H138	H	0.989892	-0.924504	0.688394
H139	H	1.058716	-0.891894	0.564032
H140	H	1.047063	-0.751127	0.765863
H141	H	1.115819	-0.718653	0.641429
H142	H	1.013836	-0.773365	0.620303
O143	O	0.910838	-0.371479	0.373834
C144	C	0.877134	-0.320584	0.195212
C145	C	0.937463	-0.394178	0.269039
H146	H	0.898621	-0.338924	0.110469
H147	H	0.898752	-0.236322	0.213718
H148	H	0.789299	-0.332070	0.206799
H149	H	1.025312	-0.382785	0.257493
H150	H	0.915758	-0.478412	0.250515
H151	H	1.640444	-0.381938	0.907222
H152	H	1.636969	-1.107164	0.624856
O153	O	0.741564	-0.841529	0.845379
C154	C	0.593680	-0.862384	0.960893
C155	C	0.654033	-0.788815	0.887069
H156	H	0.522886	-0.819802	0.994603
H157	H	0.647302	-0.888166	1.027497
H158	H	0.566133	-0.933686	0.915166
H159	H	0.681588	-0.717464	0.932706
H160	H	0.600372	-0.763118	0.820466
O161	O	1.928000	-0.265252	1.105938
C162	C	2.092673	-0.177749	1.134653
C163	C	1.979888	-0.195432	1.173772
H164	H	2.134664	-0.121316	1.189490
H165	H	2.090570	-0.143632	1.052194
H166	H	2.136305	-0.255278	1.133349
H167	H	1.936190	-0.117944	1.175143
H168	H	1.982067	-0.229596	1.256208
H169	H	1.636837	-0.898040	0.624814
O170	O	1.241666	-0.608981	1.015734
C171	C	1.209153	-0.444270	1.100569
C172	C	1.247938	-0.500224	1.001058
H173	H	1.214190	-0.356331	1.088729
H174	H	1.260127	-0.467800	1.170035
H175	H	1.124350	-0.467267	1.116589
H176	H	1.332727	-0.477256	0.984940
H177	H	1.196891	-0.476692	0.931648
H178	H	1.287555	-0.175538	0.177569
O179	O	1.117853	-0.095860	0.268016
C180	C	1.077276	0.069943	0.347013
C181	C	1.116459	-0.042255	0.364506
H182	H	1.076157	0.113322	0.425007
H183	H	0.994746	0.067881	0.312806
H184	H	1.131991	0.111712	0.290247
H185	H	1.061821	-0.084089	0.421291
H186	H	1.199008	-0.040119	0.398660
O187	O	1.366246	-0.366064	0.198316
C188	C	1.450983	-0.398108	0.032661
C189	C	1.351536	-0.359548	0.088989
H190	H	1.439132	-0.392832	-0.055739
H191	H	1.467048	-0.482518	0.055484
H192	H	1.520429	-0.347447	0.056550
H193	H	1.282029	-0.410132	0.065129
H194	H	1.335563	-0.275122	0.066164
H195	H	1.023986	-0.233307	0.392039
H196	H	1.252653	-0.481969	0.328247
