data_functionalizedCrystal
_audit_creation_method	'MofGen! by Chris Wilmer'
_symmetry_space_group_name_H-M	'P1'
_symmetry_Int_Tables_number	1
_symmetry_cell_setting	triclinic
loop_
_symmetry_equiv_pos_as_xyz
  x,y,z
_cell_length_a	25.639242
_cell_length_b	25.639240
_cell_length_c	19.805399
_cell_angle_alpha	90.035908
_cell_angle_beta	90.027395
_cell_angle_gamma	90.028283
loop_
_atom_site_label
_atom_site_type_symbol
_atom_site_fract_x
_atom_site_fract_y
_atom_site_fract_z
Zn1	Zn	0.799274	-0.208225	0.382822
Zn2	Zn	0.799198	-0.295659	0.269617
Zn3	Zn	0.711842	-0.208233	0.269631
Zn4	Zn	0.711804	-0.295625	0.382748
O5	O	0.755529	-0.251936	0.326204
O6	O	0.872429	-0.219835	0.367830
O7	O	0.787594	-0.284080	0.174902
O8	O	0.723487	-0.135067	0.284682
O9	O	0.872373	-0.284072	0.284659
O10	O	0.787723	-0.135061	0.367843
O11	O	0.723414	-0.219848	0.174912
O12	O	0.638672	-0.219814	0.284611
O13	O	0.723423	-0.284013	0.477475
O14	O	0.638644	-0.284021	0.367718
O15	O	0.787686	-0.219801	0.477529
O16	O	0.787558	-0.368820	0.284588
O17	O	0.723350	-0.368794	0.367705
C18	C	0.619687	-0.251915	0.326159
C19	C	0.561573	-0.251919	0.326155
C20	C	0.201204	-0.285424	0.369437
C21	C	0.146600	-0.285427	0.369448
O22	O	0.118358	-0.313888	0.406209
N23	N	0.119290	-0.251950	0.326249
C24	C	0.146588	-0.218464	0.283041
O25	O	0.118345	-0.189989	0.246298
C26	C	0.201191	-0.218458	0.283034
C27	C	0.228498	-0.251941	0.326231
C28	C	0.228511	-0.318903	0.412631
C29	C	0.283111	-0.318901	0.412620
C30	C	0.310405	-0.285418	0.369414
C31	C	0.283099	-0.251939	0.326219
C32	C	0.228488	-0.184970	0.239830
C33	C	0.283095	-0.184967	0.239827
C34	C	0.310402	-0.218450	0.283025
C35	C	0.364993	-0.218454	0.283002
N36	N	0.392302	-0.251931	0.326201
C37	C	0.365009	-0.285413	0.369407
C38	C	0.031917	-0.218477	0.283059
C39	C	-0.022685	-0.218485	0.283062
C40	C	-0.022669	-0.285447	0.369470
C41	C	0.031934	-0.285442	0.369463
C42	C	0.059227	-0.251954	0.326258
C43	C	0.479674	-0.285405	0.369379
C44	C	0.534279	-0.285401	0.369361
C45	C	0.534259	-0.218437	0.282956
C46	C	0.479658	-0.218443	0.282970
C47	C	0.452367	-0.251929	0.326187
O48	O	0.393269	-0.190005	0.246261
O49	O	0.393258	-0.313878	0.406150
C50	C	0.755456	-0.387778	0.326151
C51	C	0.755472	-0.445892	0.326151
C52	C	0.788994	-0.806214	0.369584
C53	C	0.789009	-0.860818	0.369598
O54	O	0.817423	-0.889020	0.406472
N55	N	0.755602	-0.888175	0.326270
C56	C	0.722174	-0.860924	0.282930
O57	O	0.693759	-0.889207	0.246077
C58	C	0.722156	-0.806321	0.282920
C59	C	0.755569	-0.778967	0.326246
C60	C	0.822403	-0.778860	0.412908
C61	C	0.822388	-0.724260	0.412893
C62	C	0.788964	-0.697013	0.369555
C63	C	0.755554	-0.724366	0.326231
C64	C	0.688725	-0.779071	0.239584
C65	C	0.688710	-0.724464	0.239578
C66	C	0.722123	-0.697110	0.282904
C67	C	0.722115	-0.642519	0.282879
N68	N	0.755522	-0.615163	0.326207
C69	C	0.788946	-0.642409	0.369545
C70	C	0.722213	-0.975594	0.282955
C71	C	0.722233	-1.030197	0.282961
C72	C	0.789067	-1.030087	0.369630
C73	C	0.789050	-0.975484	0.369620
C74	C	0.755620	-0.948238	0.326283
C75	C	0.788913	-0.527744	0.369510
C76	C	0.788896	-0.473139	0.369489
C77	C	0.722060	-0.473253	0.282823
C78	C	0.722078	-0.527854	0.282841
C79	C	0.755506	-0.555098	0.326190
O80	O	0.693714	-0.614283	0.246025
O81	O	0.817351	-0.614120	0.406397
C82	C	0.891902	-0.251957	0.326251
C83	C	0.950016	-0.251966	0.326271
C84	C	0.755559	-0.251903	0.502747
C85	C	0.755571	-0.251889	0.577979
C86	C	0.755618	-0.115562	0.326272
C87	C	0.755656	-0.057448	0.326302
C88	C	0.755530	-0.251931	0.150348
C89	C	0.755619	-0.251797	0.075117
C90	C	0.789034	-0.218452	0.613353
C91	C	0.789039	-0.218437	0.684041
C92	C	0.755584	-0.251861	0.719355
C93	C	0.722118	-0.285300	0.683977
C94	C	0.722110	-0.285312	0.613289
C95	C	0.722147	-0.285251	0.969050
C96	C	0.722159	-0.285237	1.039742
C97	C	0.789077	-0.218376	1.039802
C98	C	0.789069	-0.218388	0.969115
C99	C	0.755601	-0.251824	0.933742
C100	C	0.755595	-0.251839	0.857094
C101	C	0.755593	-0.251849	0.796002
H102	H	0.457460	-0.312671	0.404571
F103	F	0.824678	-0.182815	0.931535
H104	H	0.816326	-0.191148	1.068610
H105	H	0.816289	-0.191210	0.712839
H106	H	0.694913	-0.312457	1.068493
F107	F	0.653161	-0.808171	0.193471
H108	H	-0.044902	-0.312709	0.404653
H109	H	0.694903	-0.312484	0.940259
F110	F	0.686510	-0.320871	0.721562
F111	F	0.686493	-0.320898	0.575643
H112	H	0.816130	-0.549920	0.404814
H113	H	0.694875	-0.550126	0.247556
F114	F	0.563338	-0.321041	0.415338
F115	F	0.824611	-0.946377	0.415734
H116	H	0.661486	-0.702283	0.204289
H117	H	0.694847	-0.451060	0.247535
H118	H	-0.044913	-0.191225	0.247879
H119	H	0.206294	-0.346169	0.447819
F120	F	0.563316	-0.182805	0.236975
F121	F	0.060991	-0.321078	0.415440
F122	F	0.312166	-0.354536	0.458599
H123	H	0.206264	-0.157706	0.204652
F124	F	0.060960	-0.182836	0.237067
H125	H	0.305314	-0.157694	0.204648
F126	F	0.450595	-0.182814	0.236985
H127	H	0.849595	-0.701991	0.448175
F128	F	0.824462	-0.444030	0.415604
F129	F	0.857980	-0.807850	0.459041
H130	H	0.695030	-1.052464	0.247673
F131	F	0.824641	-1.059095	0.415755
F132	F	0.686632	-0.946602	0.236822
H133	H	0.816279	-0.191235	0.584605
