data_functionalizedCrystal
_audit_creation_method	'MofGen! by Chris Wilmer'
_symmetry_space_group_name_H-M	'P1'
_symmetry_Int_Tables_number	1
_symmetry_cell_setting	triclinic
loop_
_symmetry_equiv_pos_as_xyz
  x,y,z
_cell_length_a	14.044220
_cell_length_b	17.699083
_cell_length_c	16.776229
_cell_angle_alpha	90.001114
_cell_angle_beta	89.992645
_cell_angle_gamma	91.764054
loop_
_atom_site_label
_atom_site_type_symbol
_atom_site_fract_x
_atom_site_fract_y
_atom_site_fract_z
O1	O	0.119850	-1.012346	-0.066178
O2	O	0.135443	-0.793043	-0.066204
O3	O	-0.010330	-0.899403	-0.066183
O4	O	0.265624	-0.905986	-0.066198
O5	O	-0.010339	-0.899387	0.066393
O6	O	0.135434	-0.793027	0.066372
O7	O	0.119841	-1.012330	0.066399
Zn8	Zn	0.127636	-0.902676	0.087435
Zn9	Zn	0.127648	-0.902697	-0.087240
O10	O	0.265615	-0.905970	0.066378
C11	C	0.134880	-0.764800	0.000081
C12	C	0.133204	-0.680666	0.000071
C13	C	-0.045643	-0.896513	0.000105
C14	C	-0.150849	-0.887917	0.000105
C15	C	0.120404	-1.040574	0.000112
C16	C	0.122081	-1.124707	0.000117
C17	C	-0.343474	-0.872202	0.000091
C18	C	-0.401248	-0.933168	0.000096
C19	C	-0.508431	-0.924424	0.000089
C20	C	-0.236281	-0.880945	0.000099
C21	C	0.300927	-0.908860	0.000088
C22	C	0.406133	-0.917456	0.000083
N23	N	0.127628	-0.902667	0.206646
C24	C	0.218769	-0.637948	0.000067
C25	C	0.217189	-0.558895	0.000077
C26	C	0.130041	-0.522563	0.000086
C27	C	0.044469	-0.565287	0.000093
C28	C	0.046050	-0.644338	0.000088
C29	C	0.038089	-0.246484	0.000113
C30	C	0.036514	-0.167427	0.000115
C31	C	0.209227	-0.161041	0.000102
C32	C	0.210809	-0.240092	0.000097
C33	C	0.125237	-0.282809	0.000108
C34	C	0.126952	-0.368527	0.000098
C35	C	0.128325	-0.436847	0.000090
N36	N	0.127649	-0.902712	-0.206452
C37	C	0.063106	-0.949781	0.248372
C38	C	0.063105	-0.949785	0.331825
C39	C	0.127631	-0.902679	0.373549
C40	C	0.192156	-0.855560	0.331817
C41	C	0.192152	-0.855552	0.248366
C42	C	0.192175	-0.855589	0.668364
C43	C	0.192176	-0.855601	0.751821
C44	C	0.063128	-0.949821	0.751822
C45	C	0.063123	-0.949813	0.668372
C46	C	0.127645	-0.902692	0.626647
C47	C	0.127644	-0.902687	0.536159
C48	C	0.127638	-0.902687	0.464036
H49	H	-0.370212	-0.991930	0.000050
H50	H	-0.374508	-0.813445	0.000082
C51	C	0.262253	-0.804329	0.376971
C52	C	0.318739	-0.763050	0.322564
C53	C	0.383315	-0.715841	0.364129
H54	H	0.301758	-0.834130	0.409520
H55	H	0.228230	-0.770492	0.409516
H56	H	0.352759	-0.796883	0.290033
H57	H	0.279260	-0.733235	0.290014
H58	H	0.349292	-0.682004	0.396674
H59	H	0.422814	-0.745647	0.396676
H60	H	0.421642	-0.687822	0.327220
H61	H	0.244691	-0.817187	0.214394
C62	C	0.313486	-0.677250	0.000097
C63	C	0.388082	-0.622915	0.000117
C64	C	0.475351	-0.659090	0.000158
H65	H	0.317834	-0.707951	-0.046125
H66	H	0.317742	-0.707939	0.046346
H67	H	0.383829	-0.592240	-0.046127
H68	H	0.383766	-0.592211	0.046336
H69	H	0.479606	-0.689778	0.046407
H70	H	0.479688	-0.689790	-0.046064
H71	H	0.525974	-0.622229	0.000180
H72	H	0.286865	-0.524117	0.000073
C73	C	-0.054713	-0.292989	0.000151
C74	C	-0.034686	-0.369995	0.000166
C75	C	-0.120155	-0.412862	0.000208
H76	H	-0.090515	-0.281436	-0.046068
H77	H	-0.090470	-0.281391	0.046402
H78	H	0.001055	-0.381589	-0.046080
H79	H	0.001102	-0.381572	0.046382
H80	H	-0.155912	-0.401264	0.046460
H81	H	-0.155951	-0.401302	-0.046012
H82	H	-0.106578	-0.465115	0.000226
C83	C	0.305524	-0.279398	0.000129
C84	C	0.380123	-0.225066	0.000150
C85	C	0.467389	-0.261245	0.000193
H86	H	0.309870	-0.310100	-0.046092
H87	H	0.309776	-0.310085	0.046379
H88	H	0.375873	-0.194391	-0.046095
H89	H	0.375808	-0.194361	0.046367
H90	H	0.471641	-0.291932	0.046443
H91	H	0.471726	-0.291946	-0.046028
H92	H	0.518015	-0.224386	0.000215
H93	H	0.278904	-0.126251	0.000097
C94	C	-0.058206	-0.128119	0.000171
C95	C	-0.132809	-0.182447	0.000203
C96	C	-0.220073	-0.146265	0.000264
H97	H	-0.062549	-0.097416	-0.046047
H98	H	-0.062458	-0.097432	0.046423
H99	H	-0.128559	-0.213122	-0.046045
H100	H	-0.128499	-0.213153	0.046418
H101	H	-0.224325	-0.115577	0.046516
H102	H	-0.224405	-0.115563	-0.045956
H103	H	-0.270701	-0.183121	0.000292
H104	H	-0.026488	-0.535699	0.000112
C105	C	-0.007129	-1.000827	0.203139
C106	C	-0.100225	-0.982239	0.223465
C107	C	-0.164963	-1.029239	0.181816
H108	H	0.002949	-1.052051	0.216781
H109	H	0.002021	-0.994081	0.147450
H110	H	-0.109371	-0.988991	0.279141
H111	H	-0.110333	-0.931023	0.209821
H112	H	-0.155814	-1.022493	0.126127
H113	H	-0.154877	-1.080460	0.195461
H114	H	-0.228136	-1.016629	0.195596
C115	C	-0.046953	-0.690588	0.000048
C116	C	-0.123613	-0.641852	0.000034
C117	C	-0.209304	-0.684430	-0.000012
H118	H	-0.050065	-0.721568	0.046266
H119	H	-0.049974	-0.721543	-0.046205
H120	H	-0.120593	-0.610911	0.046282
H121	H	-0.120532	-0.610872	-0.046181
H122	H	-0.212325	-0.715384	-0.046264
H123	H	-0.212406	-0.715408	0.046207
H124	H	-0.261328	-0.651369	-0.000029
C125	C	-0.007055	-1.000815	0.377164
C126	C	-0.065035	-0.956601	0.425070
C127	C	-0.129690	-1.003586	0.466837
H128	H	0.026879	-1.034631	0.409776
H129	H	-0.045533	-1.028855	0.340384
H130	H	-0.026563	-0.928574	0.461846
H131	H	-0.098991	-0.922787	0.392479
H132	H	-0.168167	-1.031626	0.430057
H133	H	-0.095748	-1.037400	0.499444
H134	H	-0.169043	-0.973594	0.499340
H135	H	0.244712	-0.817222	0.634398
H136	H	0.244723	-0.817239	0.785791
H137	H	0.010583	-0.988174	0.634402
C138	C	-0.007044	-1.000846	0.797170
C139	C	-0.065015	-0.956624	0.845074
C140	C	-0.129671	-1.003601	0.886849
H141	H	0.026889	-1.034661	0.829783
H142	H	-0.045527	-1.028887	0.760394
H143	H	-0.026537	-0.928596	0.881845
H144	H	-0.098969	-0.922810	0.812481
H145	H	-0.168155	-1.031642	0.850073
H146	H	-0.095731	-1.037414	0.919457
H147	H	-0.169018	-0.973603	0.919351
