data_functionalizedCrystal
_audit_creation_method	'MofGen! by Chris Wilmer'
_symmetry_space_group_name_H-M	'P1'
_symmetry_Int_Tables_number	1
_symmetry_cell_setting	triclinic
loop_
_symmetry_equiv_pos_as_xyz
  x,y,z
_cell_length_a	11.792241
_cell_length_b	10.654562
_cell_length_c	9.730223
_cell_angle_alpha	89.996961
_cell_angle_beta	89.996370
_cell_angle_gamma	95.658240
loop_
_atom_site_label
_atom_site_type_symbol
_atom_site_fract_x
_atom_site_fract_y
_atom_site_fract_z
O1	O	-0.159484	1.667374	-0.114364
O2	O	-0.174657	1.301854	-0.114345
O3	O	-0.001921	1.493484	-0.114363
O4	O	-0.332220	1.475744	-0.114346
O5	O	-0.001925	1.493482	0.114217
O6	O	-0.174661	1.301852	0.114235
O7	O	-0.159488	1.667371	0.114216
Zn8	Zn	-0.167075	1.484611	0.150518
Zn9	Zn	-0.167070	1.484614	-0.150646
O10	O	-0.332224	1.475742	0.114234
C11	C	-0.173542	1.255059	-0.000053
C12	C	-0.170200	1.115626	-0.000047
C13	C	-0.168643	1.050098	0.124542
C14	C	-0.165512	0.919085	0.124518
C15	C	-0.165498	0.919137	-0.124692
C16	C	-0.168622	1.050149	-0.124667
C17	C	-0.168656	1.050066	0.268421
C18	C	-0.165524	0.919053	0.268398
C19	C	-0.374516	1.476857	-0.000054
C20	C	-0.500537	1.480192	-0.000048
C21	C	-0.731264	1.486326	-0.000083
C22	C	-0.602871	1.482918	-0.000064
C23	C	0.040371	1.492369	-0.000078
C24	C	0.166392	1.489033	-0.000093
C25	C	-0.160603	1.714167	-0.000079
C26	C	-0.163945	1.853600	-0.000094
N27	N	-0.167079	1.484619	0.356054
N28	N	-0.167057	1.484617	-0.356183
C29	C	-0.090617	1.569494	0.427972
C30	C	-0.090603	1.569491	0.571855
C31	C	-0.243522	1.399732	0.571889
C32	C	-0.243530	1.399731	0.428009
C33	C	-0.002333	1.667507	0.427954
C34	C	-0.002320	1.667503	0.571836
H35	H	-0.251436	1.079406	0.313069
Br36	Br	-0.170703	1.139081	-0.293758
H37	H	-0.305781	1.330608	0.369454
H38	H	-0.090217	1.096547	0.323670
Br39	Br	-0.027685	0.870095	0.343125
Br40	Br	-0.296260	0.841524	0.360468
Br41	Br	-0.163339	0.830271	-0.293812
H42	H	-0.305766	1.330618	0.630490
Br43	Br	0.143070	1.632182	0.362841
H44	H	-0.029981	1.758612	0.383324
Br45	Br	0.135079	1.617020	0.646209
Br46	Br	-0.034724	1.828267	0.636931
