data_functionalizedCrystal
_audit_creation_method	'MofGen! by Chris Wilmer'
_symmetry_space_group_name_H-M	'P1'
_symmetry_Int_Tables_number	1
_symmetry_cell_setting	triclinic
loop_
_symmetry_equiv_pos_as_xyz
  x,y,z
_cell_length_a	12.645330
_cell_length_b	21.395362
_cell_length_c	21.395355
_cell_angle_alpha	89.956060
_cell_angle_beta	89.987670
_cell_angle_gamma	90.033572
loop_
_atom_site_label
_atom_site_type_symbol
_atom_site_fract_x
_atom_site_fract_y
_atom_site_fract_z
Zn1	Zn	-0.421713	0.957916	-0.354613
Zn2	Zn	-0.598962	0.957842	-0.249846
Zn3	Zn	-0.421762	0.853131	-0.249814
Zn4	Zn	-0.598984	0.853124	-0.354551
O5	O	-0.510355	0.905503	-0.302206
O6	O	-0.445196	1.045584	-0.340754
O7	O	-0.575468	0.943924	-0.162164
O8	O	-0.273408	0.867065	-0.263728
O9	O	-0.575420	1.045530	-0.263783
O10	O	-0.273372	0.944050	-0.340723
O11	O	-0.445280	0.866993	-0.162140
O12	O	-0.445301	0.765452	-0.263668
O13	O	-0.575457	0.867053	-0.442237
O14	O	-0.575505	0.765447	-0.340618
O15	O	-0.445217	0.944043	-0.442282
O16	O	-0.747312	0.943918	-0.263724
O17	O	-0.747328	0.866981	-0.340650
C18	C	-0.510411	0.742716	-0.302133
C19	C	-0.510461	0.673074	-0.302117
C20	C	-0.578348	0.640375	-0.342125
C21	C	-0.578322	0.574940	-0.342153
C22	C	-0.510420	0.542206	-0.302162
C23	C	-0.442520	0.574913	-0.262151
C24	C	-0.442540	0.640348	-0.262129
C25	C	-0.501880	0.438480	-0.245756
C26	C	-0.501867	0.373047	-0.245777
C27	C	-0.510351	0.340386	-0.302231
C28	C	-0.518870	0.373165	-0.358665
C29	C	-0.518890	0.438599	-0.358643
C30	C	-0.510390	0.471254	-0.302182
C31	C	-0.578213	0.236734	-0.342272
C32	C	-0.578180	0.171297	-0.342301
C33	C	-0.442383	0.171272	-0.262294
C34	C	-0.442411	0.236707	-0.262271
C35	C	-0.510332	0.269434	-0.302259
C36	C	-0.785785	0.905458	-0.302197
C37	C	-0.903615	0.905495	-0.302214
C38	C	-1.071233	0.857295	-0.350758
C39	C	-0.948674	0.857048	-0.350602
C40	C	-0.948193	0.887617	-0.236177
C41	C	-1.070792	0.887323	-0.236472
C42	C	-1.070679	0.971870	-0.319173
C43	C	-0.948073	0.971463	-0.320616
C44	C	-0.233850	0.905566	-0.302228
C45	C	-0.116020	0.905593	-0.302238
C46	C	-0.510334	0.905555	-0.465629
C47	C	-0.510325	0.905578	-0.535271
C48	C	-0.510300	1.068927	-0.302279
C49	C	-0.510276	1.138568	-0.302311
C50	C	-0.442506	0.945665	-0.568008
C51	C	-0.442460	0.945664	-0.633444
C52	C	-0.510252	0.905582	-0.666139
C53	C	-0.578076	0.865488	-0.633393
C54	C	-0.578112	0.865485	-0.567959
C55	C	-0.605707	0.900619	-0.769809
C56	C	-0.605673	0.900626	-0.835242
C57	C	-0.510140	0.905586	-0.867960
C58	C	-0.414639	0.910553	-0.835237
C59	C	-0.414676	0.910550	-0.769803
C60	C	-0.510220	0.905580	-0.737091
C61	C	-0.442266	0.945675	-0.971650
C62	C	-0.442219	0.945669	-1.037087
C63	C	-0.577844	0.865496	-1.037035
C64	C	-0.577882	0.865498	-0.971600
C65	C	-0.510095	0.905591	-0.938911
C66	C	-0.510300	0.905488	-0.139418
C67	C	-0.510011	0.905587	-0.069778
H68	H	-0.387255	0.666971	-0.229549
C69	C	-0.367865	0.989766	-0.669463
H70	H	-0.327505	1.013646	-0.640623
H71	H	-0.321667	0.965816	-0.694972
H72	H	-0.408413	1.017056	-0.695007
C73	C	-0.652731	0.821396	-0.531946
H74	H	-0.693107	0.797527	-0.560788
H75	H	-0.612213	0.794105	-0.506392
H76	H	-0.698930	0.845363	-0.506447
H77	H	-0.918533	0.868234	-0.399567
H78	H	-0.917599	0.839674	-0.221575
H79	H	-0.919458	0.807914	-0.339381
C80	C	-0.652650	0.821402	-0.669355
H81	H	-0.642925	0.827150	-0.713015
H82	H	-0.637160	0.779307	-0.658603
H83	H	-0.723883	0.830560	-0.658641
H84	H	-0.683481	0.896413	-0.743176
C85	C	-0.492547	0.474405	-0.183655
H86	H	-0.493769	0.518069	-0.191723
H87	H	-0.550146	0.463626	-0.157246
H88	H	-0.427951	0.463689	-0.163689
H89	H	-0.336915	0.914593	-0.743162
H90	H	-1.099500	0.838874	-0.222129
H91	H	-0.633653	0.667017	-0.374688
H92	H	-0.336848	0.914593	-0.861874
C93	C	-0.908760	0.933627	-0.186001
H94	H	-0.864649	0.964219	-0.204925
H95	H	-0.967592	0.953553	-0.166921
H96	H	-0.869687	0.911491	-0.155205
H97	H	-1.100419	0.920975	-0.199087
C98	C	-0.528192	0.337249	-0.420770
H99	H	-0.533273	0.366142	-0.454374
H100	H	-0.467439	0.311760	-0.426345
H101	H	-0.589635	0.311691	-0.419906
C102	C	-0.652939	0.538963	-0.386200
H103	H	-0.693376	0.567826	-0.410021
H104	H	-0.612390	0.513504	-0.413536
H105	H	-0.699082	0.513371	-0.362222
H106	H	-0.525824	0.465285	-0.404593
H107	H	-0.387232	0.548258	-0.229591
C108	C	-0.652492	0.821407	-0.935587
H109	H	-0.692866	0.797538	-0.964429
H110	H	-0.611964	0.794116	-0.910037
H111	H	-0.698692	0.845367	-0.910082
C112	C	-0.652906	0.272739	-0.386263
H113	H	-0.643205	0.316393	-0.380515
H114	H	-0.637488	0.262070	-0.428380
H115	H	-0.724112	0.261971	-0.377026
C116	C	-0.710715	0.895171	-0.871234
H117	H	-0.697015	0.895893	-0.914890
H118	H	-0.744634	0.857020	-0.860489
H119	H	-0.755299	0.929248	-0.860534
H120	H	-0.387064	0.978317	-0.945034
H121	H	-0.633031	0.832855	-1.063655
H122	H	-0.386986	0.978312	-1.063741
C123	C	-0.652874	0.135327	-0.386304
H124	H	-0.693336	0.164192	-0.410107
H125	H	-0.612402	0.109847	-0.413659
H126	H	-0.698990	0.109758	-0.362284
C127	C	-0.492571	0.336993	-0.183701
H128	H	-0.493810	0.293346	-0.191797
H129	H	-0.428003	0.347707	-0.163702
H130	H	-0.550206	0.347679	-0.157309
H131	H	-0.387091	0.144621	-0.229735
C132	C	-0.367744	0.272681	-0.218258
H133	H	-0.377475	0.316339	-0.223976
H134	H	-0.383146	0.261905	-0.176148
H135	H	-0.296533	0.262000	-0.227508
H136	H	-1.100658	0.868378	-0.399884
C137	C	-1.112988	0.791332	-0.335792
H138	H	-1.157594	0.793098	-0.300102
H139	H	-1.152006	0.775947	-0.370463
H140	H	-1.055116	0.764256	-0.327565
H141	H	-1.101533	0.988178	-0.366510
C142	C	-0.908697	0.989685	-0.386265
H143	H	-0.865338	0.957232	-0.402395
H144	H	-0.967582	0.995808	-0.413137
H145	H	-0.868851	1.027256	-0.383758
C146	C	-0.906650	1.022636	-0.276349
H147	H	-0.861502	1.004358	-0.245927
H148	H	-0.868278	1.052850	-0.299720
H149	H	-0.964626	1.042264	-0.256074
C150	C	-1.109693	1.020468	-0.271393
H151	H	-1.153414	1.000501	-0.241274
H152	H	-1.050655	1.038926	-0.251073
H153	H	-1.149071	1.051947	-0.292342
H154	H	-0.387306	0.978310	-0.541397
