data_functionalizedCrystal
_audit_creation_method	'MofGen! by Chris Wilmer'
_symmetry_space_group_name_H-M	'P1'
_symmetry_Int_Tables_number	1
_symmetry_cell_setting	triclinic
loop_
_symmetry_equiv_pos_as_xyz
  x,y,z
_cell_length_a	21.395362
_cell_length_b	12.759400
_cell_length_c	21.395355
_cell_angle_alpha	90.013847
_cell_angle_beta	90.043940
_cell_angle_gamma	90.030564
loop_
_atom_site_label
_atom_site_type_symbol
_atom_site_fract_x
_atom_site_fract_y
_atom_site_fract_z
Zn1	Zn	0.957929	-0.417943	0.354606
Zn2	Zn	1.457929	0.082057	0.854606
Zn3	Zn	0.957861	-0.593607	0.249837
Zn4	Zn	1.457861	-0.093607	0.749837
Zn5	Zn	0.853144	-0.417992	0.249807
Zn6	Zn	1.353144	0.082008	0.749807
Zn7	Zn	0.853143	-0.593629	0.354542
Zn8	Zn	1.353143	-0.093629	0.854542
O9	O	0.905519	-0.505793	0.302198
O10	O	1.405519	-0.005793	0.802198
O11	O	1.045598	-0.441215	0.340747
O12	O	1.545598	0.058785	0.840747
O13	O	0.943942	-0.570323	0.162155
O14	O	1.443942	-0.070323	0.662155
O15	O	0.867073	-0.270964	0.263723
O16	O	1.367073	0.229036	0.763723
O17	O	1.045548	-0.570275	0.263774
O18	O	1.545548	-0.070275	0.763774
O19	O	0.944058	-0.270928	0.340719
O20	O	1.444058	0.229072	0.840719
O21	O	0.867007	-0.441299	0.162133
O22	O	1.367007	0.058701	0.662133
O23	O	0.765466	-0.441320	0.263661
O24	O	1.265466	0.058680	0.763661
O25	O	0.867071	-0.570312	0.442228
O26	O	1.367071	-0.070312	0.942228
O27	O	0.765465	-0.570360	0.340609
O28	O	1.265465	-0.070360	0.840609
O29	O	0.944057	-0.441236	0.442275
O30	O	1.444057	0.058764	0.942275
O31	O	0.943941	-0.740631	0.263712
O32	O	1.443941	-0.240631	0.763712
O33	O	0.867005	-0.740647	0.340638
O34	O	1.367005	-0.240647	0.840638
C35	C	0.742732	-0.505848	0.302125
C36	C	1.242732	-0.005848	0.802125
C37	C	0.673090	-0.505897	0.302109
C38	C	1.173090	-0.005897	0.802109
C39	C	0.640393	-0.573177	0.342116
C40	C	1.140393	-0.073177	0.842116
C41	C	0.574958	-0.573152	0.342144
C42	C	1.074958	-0.073152	0.842144
C43	C	0.542222	-0.505857	0.302154
C44	C	1.042222	-0.005857	0.802154
C45	C	0.574927	-0.438564	0.262144
C46	C	1.074927	0.061436	0.762144
C47	C	0.640361	-0.438584	0.262122
C48	C	1.140361	0.061416	0.762122
C49	C	0.438496	-0.497393	0.245748
C50	C	0.938496	0.002607	0.745748
C51	C	0.373063	-0.497380	0.245769
C52	C	0.873063	0.002620	0.745769
C53	C	0.340401	-0.505788	0.302223
C54	C	0.840401	-0.005788	0.802223
C55	C	0.373181	-0.514231	0.358657
C56	C	0.873181	-0.014231	0.858657
C57	C	0.438615	-0.514251	0.358635
C58	C	0.938615	-0.014251	0.858635
C59	C	0.471270	-0.505827	0.302174
C60	C	0.971270	-0.005827	0.802174
C61	C	0.236752	-0.573044	0.342263
C62	C	0.736752	-0.073044	0.842263
C63	C	0.171315	-0.573011	0.342292
C64	C	0.671315	-0.073011	0.842292
C65	C	0.171286	-0.438428	0.262287
C66	C	0.671286	0.061572	0.762287
C67	C	0.236721	-0.438456	0.262264
C68	C	0.736721	0.061544	0.762264
C69	C	0.269450	-0.505769	0.302251
C70	C	0.769450	-0.005769	0.802251
C71	C	0.905482	-0.778760	0.302185
C72	C	1.405482	-0.278760	0.802185
C73	C	0.905523	-0.895537	0.302200
C74	C	1.405523	-0.395537	0.802200
C75	C	0.945629	-0.950355	0.262189
C76	C	1.445629	-0.450355	0.762189
C77	C	0.945667	-1.060079	0.262209
C78	C	1.445667	-0.560079	0.762209
C79	C	0.865490	-1.060156	0.342252
C80	C	1.365490	-0.560156	0.842252
C81	C	0.865455	-0.950434	0.342235
C82	C	1.365455	-0.450434	0.842235
C83	C	0.985697	-0.895458	0.222154
C84	C	1.485697	-0.395458	0.722154
C85	C	1.025805	-0.950277	0.182139
C86	C	1.525805	-0.450277	0.682139
C87	C	1.025843	-1.060001	0.182159
C88	C	1.525843	-0.560001	0.682159
C89	C	0.985774	-1.114906	0.222193
C90	C	1.485774	-0.614906	0.722193
C91	C	1.068943	-0.505738	0.302271
C92	C	1.568943	-0.005738	0.802271
C93	C	1.138584	-0.505714	0.302303
C94	C	1.638584	-0.005714	0.802303
C95	C	0.905571	-0.505771	0.465621
C96	C	1.405571	-0.005771	0.965621
C97	C	0.905593	-0.505762	0.535263
C98	C	1.405593	-0.005762	1.035263
C99	C	0.905574	-0.231759	0.302225
C100	C	1.405574	0.268241	0.802225
C101	C	0.905597	-0.114983	0.302236
C102	C	1.405597	0.385017	0.802236
C103	C	0.905503	-0.505738	0.139410
C104	C	1.405503	-0.005738	0.639410
C105	C	0.905603	-0.505451	0.069770
C106	C	1.405603	-0.005451	0.569770
C107	C	0.945678	-0.438550	0.568001
C108	C	1.445678	0.061450	1.068001
C109	C	0.945678	-0.438504	0.633437
C110	C	1.445678	0.061496	1.133437
C111	C	0.905598	-0.505691	0.666131
C112	C	1.405598	-0.005691	1.166131
C113	C	0.865505	-0.572908	0.633384
C114	C	1.365505	-0.072908	1.133384
C115	C	0.865503	-0.572944	0.567950
C116	C	1.365503	-0.072944	1.067950
C117	C	0.900638	-0.600292	0.769799
C118	C	1.400638	-0.100292	1.269799
C119	C	0.900645	-0.600258	0.835232
C120	C	1.400645	-0.100258	1.335232
C121	C	0.905602	-0.505580	0.867952
C122	C	1.405602	-0.005580	1.367952
C123	C	0.910566	-0.410932	0.835230
C124	C	1.410566	0.089068	1.335230
C125	C	0.910563	-0.410968	0.769796
C126	C	1.410563	0.089032	1.269796
C127	C	0.905596	-0.505659	0.737083
C128	C	1.405596	-0.005659	1.237083
C129	C	0.945688	-0.438312	0.971643
C130	C	1.445688	0.061688	1.471643
C131	C	0.945683	-0.438265	1.037080
C132	C	1.445683	0.061735	1.537080
C133	C	0.865514	-0.572678	1.037026
C134	C	1.365514	-0.072678	1.537026
C135	C	0.865516	-0.572716	0.971591
C136	C	1.365516	-0.072716	1.471591
C137	C	0.905607	-0.505534	0.938903
C138	C	1.405607	-0.005534	1.438903
H139	H	0.465301	-0.521123	0.404585
H140	H	0.965301	-0.021123	0.904585
H141	H	0.346589	-0.521076	0.404627
H142	H	0.846589	-0.021076	0.904627
H143	H	0.832858	-0.627675	0.541295
H144	H	1.332858	-0.127675	1.041295
H145	H	0.263401	-0.627849	0.374827
H146	H	0.763401	-0.127849	0.874827
H147	H	0.914603	-0.333903	0.743157
H148	H	1.414603	0.166097	1.243157
Cl149	Cl	0.894411	-0.719242	0.876362
Cl150	Cl	1.394411	-0.219242	1.376362
Cl151	Cl	0.996061	-0.353981	0.674603
Cl152	Cl	1.496061	0.146019	1.174603
Cl153	Cl	0.533775	-0.353959	0.211874
Cl154	Cl	1.033775	0.146041	0.711874
H155	H	0.832875	-0.627372	1.063645
H156	H	1.332875	-0.127372	1.563645
Cl157	Cl	1.076269	-1.128914	0.131861
Cl158	Cl	1.576269	-0.628914	0.631861
Cl159	Cl	0.130209	-0.657594	0.392595
Cl160	Cl	0.630209	-0.157594	0.892595
Cl161	Cl	0.985826	-0.757520	0.222303
Cl162	Cl	1.485826	-0.257520	0.722303
Cl163	Cl	0.130139	-0.353821	0.212017
Cl164	Cl	0.630139	0.146179	0.712017
H165	H	0.263344	-0.383674	0.229683
H166	H	0.763344	0.116326	0.729683
Cl167	Cl	0.331861	-0.486765	0.174825
Cl168	Cl	0.831861	0.013235	0.674825
H169	H	0.465084	-0.490542	0.199774
H170	H	0.965084	0.009458	0.699774
Cl171	Cl	0.916801	-0.291900	0.876356
Cl172	Cl	1.416801	0.208100	1.376356
H173	H	0.832878	-0.627454	0.944935
H174	H	1.332878	-0.127454	1.444935
H175	H	0.666983	-0.383793	0.229543
H176	H	1.166983	0.116207	0.729543
Cl177	Cl	0.985565	-1.252845	0.221956
Cl178	Cl	1.485565	-0.752845	0.721956
H179	H	1.058432	-0.905568	0.149548
H180	H	1.558432	-0.405568	0.649548
H181	H	0.832867	-1.104869	0.374845
H182	H	1.332867	-0.604869	0.874845
H183	H	0.832798	-0.905800	0.374817
H184	H	1.332798	-0.405800	0.874817
H185	H	0.978322	-0.383844	0.541391
H186	H	1.478322	0.116156	1.041391
H187	H	0.978329	-0.383603	0.945027
H188	H	1.478329	0.116397	1.445027
H189	H	0.978324	-0.383527	1.063735
H190	H	1.478324	0.116473	1.563735
Cl191	Cl	0.894425	-0.719331	0.728673
Cl192	Cl	1.394425	-0.219331	1.228673
Cl193	Cl	0.533844	-0.657739	0.392442
Cl194	Cl	1.033844	-0.157739	0.892442
H195	H	0.667037	-0.627988	0.374678
H196	H	1.167037	-0.127988	0.874678
H197	H	0.832871	-0.627608	0.660008
H198	H	1.332871	-0.127608	1.160008
