data_functionalizedCrystal
_audit_creation_method	'MofGen! by Chris Wilmer'
_symmetry_space_group_name_H-M	'P1'
_symmetry_Int_Tables_number	1
_symmetry_cell_setting	triclinic
loop_
_symmetry_equiv_pos_as_xyz
  x,y,z
_cell_length_a	19.805407
_cell_length_b	19.805404
_cell_length_c	19.805399
_cell_angle_alpha	89.974853
_cell_angle_beta	89.978936
_cell_angle_gamma	90.029747
loop_
_atom_site_label
_atom_site_type_symbol
_atom_site_fract_x
_atom_site_fract_y
_atom_site_fract_z
Zn1	Zn	-1.034715	0.269497	0.382758
Zn2	Zn	-1.034621	0.382686	0.269575
Zn3	Zn	-0.921530	0.269514	0.269580
Zn4	Zn	-0.921485	0.382648	0.382718
O5	O	-0.978088	0.326086	0.326158
O6	O	-1.129419	0.284521	0.367758
O7	O	-1.019599	0.367696	0.174859
O8	O	-0.936602	0.174795	0.284612
O9	O	-1.129350	0.367680	0.284603
O10	O	-1.019759	0.174783	0.367763
O11	O	-0.936511	0.284549	0.174862
O12	O	-0.826807	0.284512	0.284573
O13	O	-0.936525	0.367615	0.477440
O14	O	-0.826774	0.367631	0.367696
O15	O	-1.019715	0.284484	0.477469
O16	O	-1.019556	0.477397	0.284565
O17	O	-0.936434	0.477369	0.367691
C18	C	-0.802232	0.326070	0.326131
C19	C	-0.727000	0.326079	0.326136
C20	C	-0.977998	0.501942	0.326138
C21	C	-0.978022	0.577174	0.326152
C22	C	-0.691656	0.369424	0.369347
C23	C	-0.620968	0.369424	0.369355
C24	C	-0.585624	0.326082	0.326147
C25	C	-0.620973	0.282733	0.282935
C26	C	-0.691660	0.282730	0.282931
C27	C	-0.335900	0.282743	0.282950
C28	C	-0.265207	0.282750	0.282955
C29	C	-0.265207	0.369437	0.369373
C30	C	-0.335894	0.369434	0.369369
C31	C	-0.371237	0.326082	0.326160
C32	C	-0.447885	0.326082	0.326153
C33	C	-0.508977	0.326085	0.326150
C34	C	-0.154631	0.326098	0.326178
C35	C	-0.229862	0.326092	0.326170
C36	C	-1.021521	1.038957	0.282993
C37	C	-1.021490	0.968269	0.282977
C38	C	-0.978164	0.932936	0.326214
C39	C	-0.934861	0.968295	0.369465
C40	C	-0.934888	1.038982	0.369477
C41	C	-0.934749	0.683222	0.369418
C42	C	-0.934726	0.612530	0.369404
C43	C	-1.021351	0.612508	0.282919
C44	C	-1.021378	0.683195	0.282930
C45	C	-0.978073	0.718548	0.326178
C46	C	-0.978105	0.795197	0.326194
C47	C	-0.978135	0.856289	0.326203
C48	C	-0.978126	0.326043	0.502700
C49	C	-0.978142	0.326025	0.577932
C50	C	-0.978191	1.149543	0.326201
C51	C	-0.978222	1.074311	0.326242
C52	C	-0.978089	0.326080	0.150302
C53	C	-0.978204	0.325907	0.075070
C54	C	-1.021460	0.282737	0.613293
C55	C	-1.021467	0.282717	0.683981
C56	C	-0.978159	0.325990	0.719308
C57	C	-0.934836	0.369280	0.683943
C58	C	-0.934826	0.369296	0.613256
C59	C	-0.934874	0.369217	0.969016
C60	C	-0.934889	0.369200	1.039708
C61	C	-1.021515	0.282638	1.039742
C62	C	-1.021505	0.282654	0.969055
C63	C	-0.978180	0.325942	0.933696
C64	C	-0.978172	0.325961	0.857047
C65	C	-0.978170	0.325974	0.795955
H66	H	-0.592194	0.404720	0.404541
C67	C	-1.054532	0.168048	0.947331
C68	C	-1.069107	0.235081	0.930229
H69	H	-1.083916	0.138676	0.923360
H70	H	-1.060738	0.161853	0.994485
H71	H	-1.009056	0.158154	0.935734
H72	H	-1.114581	0.244977	0.941830
H73	H	-1.062907	0.241279	0.883064
H74	H	-0.899545	0.404539	0.584466
C75	C	-1.059994	0.244162	1.148116
C76	C	-1.069132	0.235046	1.078611
H77	H	-1.089388	0.214778	1.172109
H78	H	-1.069875	0.289631	1.159693
H79	H	-1.014522	0.234247	1.159684
H80	H	-1.114602	0.244966	1.067042
H81	H	-1.059256	0.189566	1.067030
C82	C	-0.849242	0.454759	1.032579
C83	C	-0.887276	0.416763	1.078541
H84	H	-0.819847	0.484118	1.056554
H85	H	-0.878707	0.480662	1.005010
H86	H	-0.823369	0.425263	1.005008
H87	H	-0.913153	0.446259	1.106109
H88	H	-0.857807	0.390858	1.106122
C89	C	-0.684565	0.197052	0.197498
C90	C	-0.730513	0.235090	0.235426
H91	H	-0.708552	0.167644	0.168167
H92	H	-0.657022	0.171200	0.227033
H93	H	-0.656967	0.226518	0.171561
H94	H	-0.758108	0.205625	0.261366
H95	H	-0.758067	0.260944	0.205887
H96	H	-1.056661	0.711960	0.247725
H97	H	-0.720428	0.404720	0.404529
H98	H	-0.364668	0.404729	0.404551
C99	C	-1.107141	1.031828	0.197497
C100	C	-1.069146	1.077792	0.235463
H101	H	-1.136538	1.055803	0.168150
H102	H	-1.133002	1.004219	0.227007
H103	H	-1.077647	1.004298	0.171577
H104	H	-1.098639	1.105318	0.261388
H105	H	-1.043282	1.105413	0.205950
H106	H	-0.899442	0.583763	0.404614
H107	H	-0.236423	0.404733	0.404560
C108	C	-1.030926	0.888833	0.191920
C109	C	-1.069088	0.929411	0.235436
H110	H	-1.060313	0.864849	0.162566
H111	H	-1.005125	0.857675	0.217665
H112	H	-1.001465	0.916461	0.166010
H113	H	-1.098546	0.901783	0.261351
H114	H	-1.094900	0.960573	0.209689
C115	C	-0.925384	0.460285	0.889513
C116	C	-0.887251	0.416803	0.930162
H117	H	-0.895980	0.489660	0.865523
H118	H	-0.954860	0.486168	0.917087
H119	H	-0.951167	0.434512	0.858352
H120	H	-0.861473	0.442575	0.961326
H121	H	-0.857764	0.390917	0.902585
H122	H	-0.899633	1.067767	0.404698
H123	H	-0.899580	0.939523	0.404667
C124	C	-0.415422	0.191678	0.273701
C125	C	-0.374745	0.235097	0.235451
H126	H	-0.439403	0.162261	0.244374
H127	H	-0.446584	0.217489	0.299428
H128	H	-0.387863	0.165830	0.303234
H129	H	-0.402305	0.260949	0.205921
H130	H	-0.343580	0.209283	0.209713
C131	C	-1.059774	0.504140	0.244483
C132	C	-1.068948	0.573646	0.235371
H133	H	-1.089156	0.480151	0.215128
H134	H	-1.069648	0.492520	0.289962
H135	H	-1.014296	0.492610	0.234528
H136	H	-1.114424	0.585176	0.245331
H137	H	-1.059078	0.585271	0.189882
H138	H	-0.592191	0.247440	0.247758
C139	C	-0.849124	0.676133	0.454910
C140	C	-0.887152	0.722076	0.416960
H141	H	-0.819742	0.700123	0.484264
H142	H	-0.823244	0.648604	0.425389
H143	H	-0.878597	0.648520	0.480821
H144	H	-0.857679	0.749685	0.391044
H145	H	-0.913034	0.749616	0.446484
C146	C	-1.107084	0.197165	0.620434
C147	C	-1.069065	0.235167	0.574465
H148	H	-1.136470	0.167793	0.596463
H149	H	-1.132960	0.226651	0.648001
H150	H	-1.077605	0.171269	0.648005
H151	H	-1.098544	0.261067	0.546897
H152	H	-1.043187	0.205678	0.546886
C153	C	-1.030932	0.191641	0.763476
C154	C	-1.069080	0.235124	0.722843
H155	H	-1.060327	0.162252	0.787462
H156	H	-1.005152	0.217407	0.794634
H157	H	-1.001454	0.165765	0.735887
H158	H	-1.098555	0.261003	0.750433
H159	H	-1.094872	0.209355	0.691682
H160	H	-0.899571	0.404511	0.712711
H161	H	-0.236433	0.247452	0.247771
