data_functionalizedCrystal
_audit_creation_method	'MofGen! by Chris Wilmer'
_symmetry_space_group_name_H-M	'P1'
_symmetry_Int_Tables_number	1
_symmetry_cell_setting	triclinic
loop_
_symmetry_equiv_pos_as_xyz
  x,y,z
_cell_length_a	13.101039
_cell_length_b	14.044220
_cell_length_c	14.044220
_cell_angle_alpha	93.188878
_cell_angle_beta	93.673600
_cell_angle_gamma	86.328313
loop_
_atom_site_label
_atom_site_type_symbol
_atom_site_fract_x
_atom_site_fract_y
_atom_site_fract_z
O1	O	-0.085111	-1.272352	-0.234979
O2	O	0.248223	-0.939019	0.098355
O3	O	0.581556	-0.605685	0.431688
O4	O	-0.085137	-0.995679	-0.226675
O5	O	0.248197	-0.662346	0.106659
O6	O	0.581530	-0.329012	0.439992
O7	O	-0.085114	-1.129863	-0.092490
O8	O	0.248219	-0.796530	0.240843
O9	O	0.581553	-0.463196	0.574176
O10	O	-0.085133	-1.138168	-0.369163
O11	O	0.248200	-0.804834	-0.035830
O12	O	0.581533	-0.471501	0.297504
O13	O	0.085318	-1.139494	-0.082850
O14	O	0.418651	-0.806161	0.250483
O15	O	0.751984	-0.472827	0.583816
O16	O	0.085295	-1.005310	-0.217035
O17	O	0.418628	-0.671977	0.116299
O18	O	0.751962	-0.338643	0.449632
O19	O	0.085321	-1.281983	-0.225339
O20	O	0.418654	-0.948650	0.107995
O21	O	0.751987	-0.615316	0.441328
Zn22	Zn	0.112367	-1.145176	-0.219656
Zn23	Zn	0.445701	-0.811842	0.113677
Zn24	Zn	0.779034	-0.478509	0.447011
Zn25	Zn	-0.112183	-1.132486	-0.232357
Zn26	Zn	0.221150	-0.799153	0.100976
Zn27	Zn	0.554483	-0.465820	0.434309
O28	O	0.085298	-1.147799	-0.359523
O29	O	0.418631	-0.814465	-0.026190
O30	O	0.751965	-0.481132	0.307144
C31	C	0.000076	-0.964872	-0.218219
C32	C	0.333409	-0.631539	0.115114
C33	C	0.666743	-0.298206	0.448448
C34	C	0.000066	-0.858729	-0.207375
C35	C	0.333400	-0.525396	0.125958
C36	C	0.666733	-0.192062	0.459292
N37	N	-0.265433	-1.123826	-0.241019
N38	N	0.067900	-0.790493	0.092315
N39	N	0.401233	-0.457160	0.425648
C40	C	0.000106	-1.312789	-0.233794
C41	C	0.333439	-0.979456	0.099539
C42	C	0.666773	-0.646123	0.432872
C43	C	0.000109	-1.418932	-0.244639
C44	C	0.333442	-1.085599	0.088695
C45	C	0.666775	-0.752266	0.422028
C46	C	-0.474478	-1.112035	-0.252802
C47	C	-0.141145	-0.778702	0.080531
C48	C	0.192189	-0.445368	0.413865
C49	C	-0.525345	-1.165631	-0.199207
C50	C	-0.192011	-0.832297	0.134126
C51	C	0.141322	-0.498964	0.467459
C52	C	-0.641664	-1.159070	-0.205764
C53	C	-0.308331	-0.825737	0.127570
C54	C	0.025003	-0.492403	0.460903
C55	C	-0.358148	-1.118595	-0.246247
C56	C	-0.024814	-0.785261	0.087087
C57	C	0.308519	-0.451928	0.420420
N58	N	0.265617	-1.153843	-0.210988
N59	N	0.598951	-0.820509	0.122346
N60	N	0.932284	-0.487176	0.455679
C61	C	0.000102	-1.131043	-0.052049
C62	C	0.333435	-0.797710	0.281285
C63	C	0.666769	-0.464376	0.614618
C64	C	0.000102	-1.120198	0.054094
C65	C	0.333435	-0.786865	0.387428
C66	C	0.666769	-0.453532	0.720761
C67	C	0.000088	-0.664393	-0.187548
C68	C	0.333421	-0.331059	0.145786
C69	C	0.666755	0.002274	0.479119
C70	C	0.000087	-0.613263	-0.264462
C71	C	0.333420	-0.279929	0.068871
C72	C	0.666754	0.053404	0.402205
C73	C	0.000099	-0.505127	-0.253430
C74	C	0.333432	-0.171794	0.079904
C75	C	0.666766	0.161539	0.413237
C76	C	0.000076	-0.772538	-0.198578
C77	C	0.333409	-0.439205	0.134755
C78	C	0.666743	-0.105871	0.468088
C79	C	0.000080	-1.146619	-0.399965
C80	C	0.333413	-0.813285	-0.066632
C81	C	0.666747	-0.479952	0.266702
C82	C	0.000073	-1.157463	-0.506108
C83	C	0.333406	-0.824130	-0.172775
C84	C	0.666740	-0.490796	0.160559
C85	C	0.000086	-1.100371	0.248431
C86	C	0.333419	-0.767038	0.581764
C87	C	0.666752	-0.433705	0.915098
C88	C	0.000090	-1.177286	0.299561
C89	C	0.333423	-0.843952	0.632894
C90	C	0.666756	-0.510619	0.966228
C91	C	0.000080	-1.166254	0.407697
C92	C	0.333414	-0.832920	0.741030
C93	C	0.666747	-0.499587	1.074363
C94	C	0.000095	-1.111402	0.140285
C95	C	0.333428	-0.778069	0.473619
C96	C	0.666761	-0.444735	0.806952
H97	H	-0.481534	-1.216442	-0.148399
H98	H	-0.148200	-0.883109	0.184934
H99	H	0.185133	-0.549775	0.518268
N100	N	-0.532498	-1.044728	-0.320097
N101	N	-0.199165	-0.711395	0.013236
N102	N	0.134168	-0.378062	0.346570
H103	H	-0.608572	-1.049523	-0.315295
H104	H	-0.275239	-0.716189	0.018038
H105	H	0.058095	-0.382856	0.351371
H106	H	-0.513815	-0.977104	-0.302278
H107	H	-0.180481	-0.643770	0.031055
H108	H	0.152852	-0.310437	0.364389
N109	N	0.000121	-1.275491	0.249985
N110	N	0.333455	-0.942158	0.583319
N111	N	0.666788	-0.608824	0.916652
H112	H	-0.063051	-1.307793	0.265460
H113	H	0.270282	-0.974459	0.598793
H114	H	0.603616	-0.641126	0.932126
H115	H	0.000169	-1.269483	0.178660
H116	H	0.333502	-0.936150	0.511994
H117	H	0.666836	-0.602817	0.845327
H118	H	0.000099	-0.626956	-0.113419
H119	H	0.333432	-0.293623	0.219914
H120	H	0.666766	0.039710	0.553247
N121	N	0.000075	-1.002176	0.298012
N122	N	0.333408	-0.668843	0.631346
N123	N	0.666742	-0.335510	0.964679
H124	H	0.000073	-1.008117	0.369352
H125	H	0.333406	-0.674783	0.702686
H126	H	0.666740	-0.341450	1.036019
H127	H	0.063258	-0.969940	0.282462
H128	H	0.396591	-0.636606	0.615796
H129	H	0.729925	-0.303273	0.949129
H130	H	0.000077	-0.650701	-0.338596
H131	H	0.333410	-0.317368	-0.005263
H132	H	0.666744	0.015965	0.328071
