data_functionalizedCrystal
_audit_creation_method	'MofGen! by Chris Wilmer'
_symmetry_space_group_name_H-M	'P1'
_symmetry_Int_Tables_number	1
_symmetry_cell_setting	triclinic
loop_
_symmetry_equiv_pos_as_xyz
  x,y,z
_cell_length_a	6.817900
_cell_length_b	7.190334
_cell_length_c	11.102183
_cell_angle_alpha	92.055521
_cell_angle_beta	108.603876
_cell_angle_gamma	60.611776
loop_
_atom_site_label
_atom_site_type_symbol
_atom_site_fract_x
_atom_site_fract_y
_atom_site_fract_z
V1	V	-4.248748	0.664997	-0.173812
O2	O	-4.205181	0.652342	0.010438
O3	O	-4.224575	0.660445	-0.346645
O4	O	-4.285380	0.955027	-0.170223
O5	O	-4.143955	0.355721	-0.167206
V6	V	-4.718219	0.628006	-0.151881
O7	O	-4.540832	0.746141	-0.221917
O8	O	-4.876332	0.546862	-0.103775
O9	O	-4.519185	0.632557	0.020952
O10	O	-4.879183	0.640661	-0.336131
O11	O	-4.940409	0.937282	-0.158487
O12	O	-4.458380	0.337976	-0.155470
C13	C	-4.072719	0.649954	-0.388807
C14	C	-4.134808	0.648165	-0.530095
C15	C	-4.150291	1.025719	-0.163756
C16	C	-4.263777	1.267276	-0.161930
C17	C	-3.933837	0.257514	-0.495008
C18	C	-3.862520	0.061356	-0.543841
C19	C	-3.920869	0.059687	-0.676594
C20	C	-4.050553	0.254198	-0.760519
C21	C	-4.121870	0.450356	-0.711686
C22	C	-4.063503	0.452003	-0.578928
C23	C	-4.322853	0.841004	-0.746773
C24	C	-4.264492	0.842676	-0.614020
C25	C	-4.452538	1.035514	-0.830698
C26	C	-4.523843	1.231677	-0.781865
C27	C	-4.465484	1.233337	-0.649103
C28	C	-4.335809	1.038835	-0.565187
C29	C	-4.334383	0.643043	0.063107
C30	C	-4.251536	0.644845	0.204394
H31	H	-3.886256	0.258850	-0.386910
O32	O	-3.736645	-0.127773	-0.462500
C33	C	-3.686175	-0.301262	-0.534069
H34	H	-3.821890	-0.241484	-0.636082
H35	H	-3.497599	-0.370869	-0.537121
C36	C	-3.535767	-0.550913	-0.345026
C37	C	-3.702467	-0.477497	-0.470318
H38	H	-3.545805	-0.659629	-0.305700
H39	H	-3.569760	-0.434033	-0.296807
H40	H	-3.378636	-0.608904	-0.347587
H41	H	-3.859595	-0.419483	-0.467754
H42	H	-3.668501	-0.594372	-0.518535
H43	H	-4.523591	1.393075	-0.609354
H44	H	-4.098081	0.252823	-0.868613
H45	H	-4.629440	1.390032	-0.850206
H46	H	-4.288250	1.040166	-0.457089
H47	H	-4.500055	1.034142	-0.938792
O48	O	-3.851875	-0.130661	-0.724255
C49	C	-3.931136	-0.090409	-0.859420
H50	H	-4.090136	0.080925	-0.894857
H51	H	-3.779058	-0.109487	-0.890597
C52	C	-3.813084	-0.462549	-0.873558
C53	C	-4.008383	-0.252119	-0.917083
H54	H	-3.860724	-0.562304	-0.909129
H55	H	-3.759675	-0.489671	-0.782494
H56	H	-3.686369	-0.478416	-0.899542
H57	H	-4.135081	-0.236248	-0.891084
H58	H	-4.061815	-0.224999	-1.008144
