data_functionalizedCrystal
_audit_creation_method	'MofGen! by Chris Wilmer'
_symmetry_space_group_name_H-M	'P1'
_symmetry_Int_Tables_number	1
_symmetry_cell_setting	triclinic
loop_
_symmetry_equiv_pos_as_xyz
  x,y,z
_cell_length_a	17.640112
_cell_length_b	12.645330
_cell_length_c	17.640968
_cell_angle_alpha	101.231500
_cell_angle_beta	87.860920
_cell_angle_gamma	101.237348
loop_
_atom_site_label
_atom_site_type_symbol
_atom_site_fract_x
_atom_site_fract_y
_atom_site_fract_z
Zn1	Zn	1.247782	-0.030458	0.195080
Zn2	Zn	1.222041	-0.249164	0.068097
Zn3	Zn	1.095123	-0.099414	0.093726
Zn4	Zn	1.120780	-0.235210	0.220679
O5	O	1.171432	-0.153562	0.144396
O6	O	1.350634	-0.036451	0.156796
O7	O	1.183695	-0.263998	-0.034776
O8	O	1.115409	0.058093	0.107183
O9	O	1.331722	-0.197134	0.063503
O10	O	1.227567	0.108755	0.181647
O11	O	1.090449	-0.153977	-0.015947
O12	O	0.992260	-0.140447	0.132006
O13	O	1.159137	-0.173351	0.323557
O14	O	1.011110	-0.240215	0.225278
O15	O	1.252445	-0.022921	0.304749
O16	O	1.208573	-0.395673	0.088325
O17	O	1.134177	-0.385421	0.200427
C18	C	0.974132	-0.196300	0.184201
C19	C	0.889730	-0.214603	0.201248
C20	C	0.563041	-0.014493	0.014898
C21	C	0.483734	-0.031710	0.030927
C22	C	0.503383	-0.135840	0.127883
C23	C	0.582694	-0.118628	0.111866
C24	C	0.612516	-0.057954	0.055372
C25	C	0.632168	-0.162089	0.152339
C26	C	0.711471	-0.144882	0.136320
C27	C	0.741299	-0.084214	0.079827
C28	C	0.691819	-0.040748	0.039352
C29	C	0.602344	-0.222768	0.208829
C30	C	0.651819	-0.266229	0.249302
C31	C	0.731124	-0.249017	0.233287
C32	C	0.760952	-0.188349	0.176794
C33	C	0.780605	-0.292483	0.273762
C34	C	0.859908	-0.275277	0.257742
C35	C	0.840255	-0.171142	0.160775
C36	C	1.171390	-0.429005	0.144385
C37	C	1.171447	-0.546818	0.144392
C38	C	1.218131	-0.720847	0.073769
C39	C	1.218351	-0.598198	0.073875
C40	C	1.209332	-0.560398	0.220067
C41	C	1.209733	-0.682997	0.219661
C42	C	1.087014	-0.738217	0.140134
C43	C	1.087036	-0.616115	0.138261
C44	C	1.369502	-0.110657	0.104435
C45	C	1.453908	-0.092374	0.087406
C46	C	1.211525	-0.088888	0.342479
C47	C	1.228610	-0.061327	0.426890
C48	C	1.171498	0.122968	0.144418
C49	C	1.171526	0.240808	0.144428
C50	C	1.131538	-0.217898	-0.052926
C51	C	1.114600	-0.245128	-0.137366
C52	C	1.041928	-0.362294	0.753463
C53	C	1.057998	-0.336380	0.832776
C54	C	1.155152	-0.179750	0.813183
C55	C	1.139087	-0.205648	0.733867
C56	C	1.082475	-0.296921	0.704013
C57	C	1.179634	-0.140275	0.684417
C58	C	1.163573	-0.166175	0.605106
C59	C	1.106965	-0.257446	0.575246
C60	C	1.066414	-0.322821	0.624702
C61	C	1.236249	-0.049006	0.714271
C62	C	1.276796	0.016366	0.664821
C63	C	1.260732	-0.009529	0.585510
C64	C	1.204124	-0.100800	0.555650
C65	C	1.301283	0.055846	0.536054
C66	C	1.285222	0.029946	0.456744
C67	C	1.188063	-0.126700	0.476340
H68	H	0.756310	-0.341892	0.319753
C69	C	0.724627	0.026002	-0.022792
N70	N	0.749339	0.076272	-0.069598
C71	C	1.293838	-0.696672	0.227110
N72	N	1.357188	-0.706966	0.232716
C73	C	1.013387	-0.408300	0.887171
N74	N	0.979786	-0.462469	0.928140
C75	C	1.165821	-0.513281	0.292159
N76	N	1.133048	-0.477788	0.346458
C77	C	1.089297	-0.285935	0.488002
N78	N	1.075988	-0.307391	0.422290
C79	C	0.470570	-0.202577	0.190026
N80	N	0.445856	-0.252840	0.236836
C81	C	1.217416	-0.079344	0.846033
N82	N	1.264311	-0.003711	0.870776
C83	C	1.004137	-0.423226	0.591859
N84	N	0.957234	-0.498851	0.567121
C85	C	1.329824	0.101861	0.402346
N86	N	1.363421	0.156027	0.361373
H87	H	1.249326	-0.027925	0.778851
C88	C	1.339061	0.116772	0.697672
N89	N	1.385956	0.192405	0.722414
C90	C	1.167062	-0.715037	0.292038
N91	N	1.134928	-0.739162	0.346555
C92	C	1.292622	-0.494032	0.228095
N93	N	1.355358	-0.444049	0.234137
C94	C	1.044691	-0.811140	0.068020
N95	N	1.012821	-0.866065	0.013699
H96	H	0.443454	0.003695	-0.002031
H97	H	1.192688	-0.772714	0.016942
C98	C	1.363553	0.156245	0.568905
N99	N	1.410454	0.231869	0.593648
H100	H	0.995811	-0.436596	0.729158
C101	C	0.873064	-0.104393	0.098631
N102	N	0.897776	-0.054122	0.051825
C103	C	0.914334	-0.323080	0.302268
N104	N	0.955328	-0.359089	0.335806
H105	H	1.058763	-0.609871	0.082650
C106	C	1.035818	-0.570710	0.204449
N107	N	0.997244	-0.536510	0.254307
C108	C	1.039832	-0.771294	0.209923
N109	N	1.004300	-0.796211	0.262489
H110	H	1.141946	-0.201002	0.452035
H111	H	0.627526	-0.315633	0.295298
C112	C	0.595850	0.052256	-0.047246
N113	N	0.620562	0.102527	-0.094052
H114	H	0.537770	-0.236776	0.221870
H115	H	0.805873	-0.070209	0.066783
H116	H	1.280047	-0.734374	0.075237
C117	C	1.183770	-0.587786	-0.002604
N118	N	1.157716	-0.579950	-0.060207
H119	H	1.280617	-0.551468	0.075430
