data_functionalizedCrystal
_audit_creation_method	'MofGen! by Chris Wilmer'
_symmetry_space_group_name_H-M	'P1'
_symmetry_Int_Tables_number	1
_symmetry_cell_setting	triclinic
loop_
_symmetry_equiv_pos_as_xyz
  x,y,z
_cell_length_a	10.654541
_cell_length_b	14.044220
_cell_length_c	9.730217
_cell_angle_alpha	89.995579
_cell_angle_beta	89.999932
_cell_angle_gamma	88.836403
loop_
_atom_site_label
_atom_site_type_symbol
_atom_site_fract_x
_atom_site_fract_y
_atom_site_fract_z
O1	O	1.681226	0.133219	-0.114252
O2	O	1.317022	0.145915	-0.114264
O3	O	1.493657	0.001546	-0.114245
O4	O	1.504591	0.277587	-0.114271
O5	O	1.493651	0.001545	0.114335
O6	O	1.317016	0.145914	0.114316
O7	O	1.681220	0.133218	0.114328
Zn8	Zn	1.499117	0.139565	0.150614
Zn9	Zn	1.499125	0.139567	-0.150550
O10	O	1.504585	0.277586	0.114309
C11	C	1.270128	0.144983	0.000024
C12	C	1.130404	0.142195	0.000020
C13	C	1.119781	0.314827	-0.000014
C14	C	1.048829	0.399829	-0.000036
C15	C	0.917547	0.397204	-0.000037
C16	C	0.857215	0.309567	-0.000012
C17	C	0.928167	0.224565	0.000011
C18	C	1.059452	0.227199	0.000008
C19	C	0.938790	0.051935	0.000054
C20	C	1.070072	0.054558	0.000046
C21	C	0.878458	-0.035701	0.000080
C22	C	0.949411	-0.120706	0.000092
C23	C	1.080701	-0.118077	0.000092
C24	C	1.141025	-0.030444	0.000068
C25	C	1.488869	-0.033800	0.000046
C26	C	1.474593	-0.139120	0.000047
C27	C	1.448494	-0.331952	0.000026
C28	C	1.549742	-0.388921	0.000026
C29	C	1.535221	-0.496219	0.000014
C30	C	1.463014	-0.224644	0.000038
C31	C	1.728114	0.134150	0.000037
C32	C	1.867838	0.136938	0.000032
C33	C	1.509374	0.312933	0.000015
C34	C	1.523649	0.418252	0.000005
N35	N	1.499121	0.139564	0.356151
N36	N	1.499131	0.139561	-0.356087
C37	C	1.655605	0.011763	0.356159
C38	C	1.733855	-0.052135	0.428102
C39	C	1.733868	-0.052135	0.571982
C40	C	1.655619	0.011767	0.643921
C41	C	1.577368	0.075664	0.571978
C42	C	1.577367	0.075660	0.428095
C43	C	1.420880	0.203459	0.571970
C44	C	1.420872	0.203466	0.428090
C45	C	1.342631	0.267361	0.643909
C46	C	1.264385	0.331265	0.571965
C47	C	1.264376	0.331263	0.428076
C48	C	1.342621	0.267363	0.356146
H49	H	1.097966	0.471181	-0.000053
C50	C	0.807929	-0.223812	-0.117380
C51	C	0.883095	-0.217028	0.000118
H52	H	0.766993	-0.283282	-0.117367
H53	H	0.746895	-0.173569	-0.117373
H54	H	0.858932	-0.219203	-0.197087
H55	H	0.832092	-0.221630	0.079825
H56	H	0.944138	-0.267285	0.000123
H57	H	1.647330	-0.357109	-0.000063
C58	C	1.095664	0.350627	0.733779
C59	C	1.178382	0.401496	0.651046
H60	H	1.042576	0.393988	0.782610
H61	H	1.046042	0.310836	0.677649
H62	H	1.142280	0.312569	0.797204
H63	H	1.131765	0.439549	0.587614
H64	H	1.228009	0.441304	0.707181
C65	C	1.109693	0.457588	0.442534
C66	C	1.178362	0.401505	0.349001
H67	H	1.056597	0.500957	0.393717
H68	H	1.060078	0.417779	0.498653
H69	H	1.165837	0.492077	0.498651
H70	H	1.122217	0.367012	0.292890
H71	H	1.227981	0.441320	0.292858
C72	C	1.377961	0.356914	0.150018
C73	C	1.342618	0.267360	0.197991
H74	H	1.377967	0.356904	0.052379
H75	H	1.320161	0.404103	0.182553
H76	H	1.459737	0.370458	0.182570
H77	H	1.260838	0.253819	0.165446
H78	H	1.400420	0.220156	0.165442
C79	C	1.327695	-0.474415	0.000034
C80	C	1.316760	-0.374890	0.000034
H81	H	1.246368	-0.500929	0.000052
H82	H	1.372044	-0.494902	-0.079678
H83	H	1.372072	-0.494910	0.079744
H84	H	1.272391	-0.354395	-0.079682
H85	H	1.272392	-0.354395	0.079754
H86	H	0.859777	0.466420	-0.000046
C87	C	0.666257	0.352793	-0.117514
C88	C	0.712908	0.306680	-0.000003
H89	H	0.577168	0.351004	-0.117509
H90	H	0.692030	0.417140	-0.117517
H91	H	0.697921	0.321497	-0.197212
H92	H	0.681252	0.337981	0.079695
H93	H	0.687123	0.242322	0.000012
H94	H	1.797562	-0.104165	0.369517
C95	C	0.693284	-0.086451	0.117594
C96	C	0.734152	-0.038591	0.000078
H97	H	0.604194	-0.088231	0.117590
H98	H	0.726904	-0.149608	0.117604
H99	H	0.721022	-0.053960	0.197288
H100	H	0.706422	-0.071086	-0.079617
H101	H	0.700518	0.024577	0.000055
H102	H	1.655613	0.011765	0.239004
H103	H	1.226677	0.316973	-0.000043
H104	H	1.655623	0.011755	0.761076
C105	C	1.888548	-0.178468	0.557554
C106	C	1.819874	-0.122376	0.651071
H107	H	1.941646	-0.221828	0.606383
H108	H	1.832417	-0.212957	0.501445
H109	H	1.938173	-0.138657	0.501425
H110	H	1.770241	-0.162186	0.707194
H111	H	1.876012	-0.087884	0.707204
C112	C	1.331983	-0.073677	-0.117426
C113	C	1.285331	-0.027551	0.000065
H114	H	1.421072	-0.071882	-0.117427
H115	H	1.306216	-0.138025	-0.117396
H116	H	1.300313	-0.042392	-0.197138
H117	H	1.316994	-0.058840	0.079777
H118	H	1.311110	0.036809	0.000047
C119	C	1.427858	0.197792	0.850024
C120	C	1.342646	0.267365	0.802064
H121	H	1.427871	0.197804	0.947663
H122	H	1.403873	0.137048	0.817497
H123	H	1.509624	0.211353	0.817453
H124	H	1.260877	0.253801	0.834626
H125	H	1.366623	0.328124	0.834605
H126	H	1.138463	-0.187297	0.000115
