data_functionalizedCrystal
_audit_creation_method	'MofGen! by Chris Wilmer'
_symmetry_space_group_name_H-M	'P1'
_symmetry_Int_Tables_number	1
_symmetry_cell_setting	triclinic
loop_
_symmetry_equiv_pos_as_xyz
  x,y,z
_cell_length_a	10.489741
_cell_length_b	14.044220
_cell_length_c	12.503572
_cell_angle_alpha	86.156832
_cell_angle_beta	93.551639
_cell_angle_gamma	88.864026
loop_
_atom_site_label
_atom_site_type_symbol
_atom_site_fract_x
_atom_site_fract_y
_atom_site_fract_z
O1	O	-1.714360	-0.128402	-0.089257
O2	O	-1.344439	-0.140964	-0.089274
O3	O	-1.523846	0.003339	-0.089255
O4	O	-1.534953	-0.272705	-0.089275
O5	O	-1.510356	-0.007531	0.089386
O6	O	-1.330949	-0.151834	0.089367
O7	O	-1.700869	-0.139273	0.089384
Cu8	Cu	-1.514677	-0.146546	0.105687
Cu9	Cu	-1.530631	-0.133690	-0.105576
O10	O	-1.521462	-0.283575	0.089365
C11	C	-1.290066	-0.145450	0.000045
C12	C	-1.148150	-0.142611	0.000038
C13	C	-1.512240	0.033251	0.000066
C14	C	-1.497740	0.138576	0.000066
C15	C	-1.755242	-0.134786	0.000063
C16	C	-1.897160	-0.137625	0.000062
C17	C	-1.070696	-0.050796	0.000055
C18	C	-0.989620	-0.088809	-0.088025
C19	C	-0.976355	-0.099548	0.088101
C20	C	-1.068948	-0.180657	-0.088114
C21	C	-1.055686	-0.191389	0.088090
C22	C	-0.974646	-0.229468	-0.000011
C23	C	-1.533069	-0.313487	0.000042
C24	C	-1.547569	-0.418812	0.000034
N25	N	-1.503465	-0.155587	0.254278
C26	C	-1.471233	0.331419	0.000050
C27	C	-1.574071	0.388351	0.000051
C28	C	-1.559322	0.495655	0.000042
C29	C	-1.485980	0.224105	0.000059
N30	N	-1.541853	-0.124641	-0.254168
C31	C	-1.486973	-0.168896	0.473391
C32	C	-1.558341	-0.111336	0.526726
C33	C	-1.549164	-0.118741	0.648648
C34	C	-1.496148	-0.161492	0.351458
H35	H	-1.112738	0.024690	-0.000049
C36	C	-1.395123	-0.242976	0.535405
N37	N	-1.325943	-0.298773	0.582126
C38	C	-1.123516	-0.226963	-0.188834
N39	N	-1.164621	-0.261836	-0.264696
C40	C	-1.650211	-0.037260	0.464712
N41	N	-1.719413	0.018526	0.417998
C42	C	-1.337335	0.374442	0.000058
N43	N	-1.236483	0.406857	0.000072
H44	H	-0.932889	-0.305023	-0.000065
C45	C	-0.949983	-0.030203	-0.188613
N46	N	-0.920130	0.013946	-0.264372
C47	C	-0.921585	-0.053166	0.188702
N48	N	-0.880338	-0.018223	0.264471
C49	C	-1.095363	-0.249947	0.188689
N50	N	-1.125251	-0.294046	0.264470
C51	C	-1.707976	0.345327	0.000073
N52	N	-1.808830	0.312916	0.000094
