data_functionalizedCrystal
_audit_creation_method	'MofGen! by Chris Wilmer'
_symmetry_space_group_name_H-M	'P1'
_symmetry_Int_Tables_number	1
_symmetry_cell_setting	triclinic
loop_
_symmetry_equiv_pos_as_xyz
  x,y,z
_cell_length_a	11.026607
_cell_length_b	8.559649
_cell_length_c	7.088929
_cell_angle_alpha	95.325015
_cell_angle_beta	82.408099
_cell_angle_gamma	89.182341
loop_
_atom_site_label
_atom_site_type_symbol
_atom_site_fract_x
_atom_site_fract_y
_atom_site_fract_z
O1	O	-0.026458	2.096118	-0.158957
O2	O	0.034577	1.648469	-0.158966
O3	O	-0.169136	1.835194	-0.158955
O4	O	0.177256	1.909394	-0.158968
O5	O	-0.196415	1.860132	0.159021
O6	O	0.007298	1.673407	0.159011
O7	O	-0.053737	2.121056	0.159019
Cu8	Cu	-0.025710	1.899509	0.188049
Cu9	Cu	0.006551	1.870017	-0.187995
O10	O	0.149977	1.934332	0.159009
C11	C	0.025563	1.602739	0.000021
C12	C	0.039332	1.429319	0.000018
C13	C	-0.226711	1.833974	0.000030
C14	C	-0.357621	1.793166	0.000023
C15	C	-0.441927	1.905841	0.000022
C16	C	-0.577231	1.863667	0.000014
C17	C	0.207551	1.935551	0.000019
C18	C	0.338463	1.976358	0.000014
C19	C	-0.044723	2.166786	0.000028
C20	C	-0.058490	2.340205	0.000019
N21	N	-0.048402	1.920263	0.452538
N22	N	0.029232	1.849272	-0.452485
H23	H	0.133621	1.372932	0.000004
H24	H	-0.633542	2.104043	-0.000127
H25	H	-0.152772	1.396583	0.000013
C26	C	-0.404127	2.078338	0.000032
H27	H	-0.318148	2.084055	0.000050
H28	H	-0.425936	2.119999	-0.110849
H29	H	-0.444968	2.137379	0.110936
H30	H	-0.605215	1.735971	-0.000001
H31	H	-0.128853	1.993858	0.534198
C32	C	-0.395422	1.620669	0.000017
H33	H	-0.481404	1.614954	0.000026
H34	H	-0.354580	1.561619	-0.110865
H35	H	-0.373618	1.579020	0.110920
H36	H	0.109685	1.775696	0.465865
