data_functionalizedCrystal
_audit_creation_method	'MofGen! by Chris Wilmer'
_symmetry_space_group_name_H-M	'P1'
_symmetry_Int_Tables_number	1
_symmetry_cell_setting	triclinic
loop_
_symmetry_equiv_pos_as_xyz
  x,y,z
_cell_length_a	12.759401
_cell_length_b	18.050590
_cell_length_c	12.759393
_cell_angle_alpha	89.964247
_cell_angle_beta	89.981504
_cell_angle_gamma	90.018713
loop_
_atom_site_label
_atom_site_type_symbol
_atom_site_fract_x
_atom_site_fract_y
_atom_site_fract_z
Zn1	Zn	1.606227	-0.295612	-0.593951
Zn2	Zn	1.606110	-0.419823	-0.418258
Zn3	Zn	1.430529	-0.295651	-0.418290
Zn4	Zn	1.430506	-0.419765	-0.593900
O5	O	1.518343	-0.357713	-0.506100
O6	O	1.753233	-0.312097	-0.570653
O7	O	1.582779	-0.403391	-0.271241
O8	O	1.453895	-0.191722	-0.441627
O9	O	1.753146	-0.403354	-0.441572
O10	O	1.582979	-0.191693	-0.570684
O11	O	1.453781	-0.312163	-0.271265
O12	O	1.283505	-0.312108	-0.441577
O13	O	1.453855	-0.403256	-0.740927
O14	O	1.283488	-0.403294	-0.570597
O15	O	1.582957	-0.312041	-0.740965
O16	O	1.582757	-0.523740	-0.441522
O17	O	1.453741	-0.523698	-0.570565
C18	C	1.245376	-0.357699	-0.506085
C19	C	1.128599	-0.357711	-0.506104
C20	C	1.518262	-0.550665	-0.506058
C21	C	1.518324	-0.633211	-0.506075
C22	C	1.073756	-0.405268	-0.573173
C23	C	0.964032	-0.405277	-0.573185
C24	C	0.964004	-0.310171	-0.439049
C25	C	1.073726	-0.310159	-0.439043
C26	C	1.128629	-0.452820	-0.640234
C27	C	1.073785	-0.500382	-0.707308
C28	C	0.964061	-0.500391	-0.707320
C29	C	0.909181	-0.452839	-0.640257
C30	C	1.588628	-0.832657	-0.435999
C31	C	1.614296	-0.881981	-0.531886
C32	C	1.518384	-0.784341	-0.506117
C33	C	1.492823	-0.882099	-0.410274
C34	C	1.518443	-0.930326	-0.506149
C35	C	1.544100	-0.832578	-0.602054
C36	C	1.422583	-0.832691	-0.480377
C37	C	1.448214	-0.881993	-0.576329
C38	C	1.518352	-0.700243	-0.506097
C39	C	1.518475	-1.014423	-0.506180
C40	C	1.792376	-0.357727	-0.506115
C41	C	1.909153	-0.357733	-0.506121
C42	C	1.518417	-0.357638	-0.780133
C43	C	1.518448	-0.357606	-0.896910
C44	C	1.518453	-0.164007	-0.506165
C45	C	1.518500	-0.081462	-0.506192
C46	C	1.585680	-0.310106	-0.951793
C47	C	1.585705	-0.310079	-1.061517
C48	C	1.451263	-0.405059	-1.061465
C49	C	1.451233	-0.405081	-0.951743
C50	C	1.652895	-0.262631	-0.896960
C51	C	1.720134	-0.215128	-0.951844
C52	C	1.720159	-0.215101	-1.061568
C53	C	1.652945	-0.262577	-1.116408
C54	C	1.518330	-0.357734	-0.233132
C55	C	1.518502	-0.357557	-0.116356
H56	H	1.217971	-0.452819	-0.640231
H57	H	1.652885	-0.262649	-0.807617
C58	C	1.197239	-0.510808	-0.848587
C59	C	1.134108	-0.552645	-0.781023
H60	H	1.234481	-0.543075	-0.894092
H61	H	1.154460	-0.478496	-0.888859
H62	H	1.245602	-0.482488	-0.808627
H63	H	1.085739	-0.580961	-0.820983
H64	H	1.176890	-0.584970	-0.740747
H65	H	1.118381	-0.271429	-0.384437
C66	C	1.245964	-0.863254	-0.431807
C67	C	1.313212	-0.803432	-0.450919
H68	H	1.178446	-0.845188	-0.413606
H69	H	1.240929	-0.892917	-0.493059
H70	H	1.272905	-0.892220	-0.375780
H71	H	1.286276	-0.774468	-0.506952
H72	H	1.318244	-0.773756	-0.389660
H73	H	0.919410	-0.539112	-0.761942
H74	H	1.396470	-0.443749	-0.907056
C75	C	1.779792	-0.172993	-0.783669
C76	C	1.794007	-0.162940	-0.891567
H77	H	1.825403	-0.140775	-0.746461
H78	H	1.709211	-0.162124	-0.765693
H79	H	1.795139	-0.222899	-0.765678
H80	H	1.778653	-0.113035	-0.909559
H81	H	1.864604	-0.173804	-0.909551
H82	H	1.774900	-0.176416	-1.106251
C83	C	1.791421	-0.851363	-0.578497
C84	C	1.723702	-0.911209	-0.561297
H85	H	1.858967	-0.869404	-0.596641
H86	H	1.765051	-0.821657	-0.634006
H87	H	1.796181	-0.822448	-0.516499
H88	H	1.718936	-0.940122	-0.623298
H89	H	1.750078	-0.940928	-0.505784
H90	H	1.648052	-0.810994	-0.376764
H91	H	1.565663	-0.810918	-0.683190
C92	C	0.752016	-0.504594	-0.713356
C93	C	0.788569	-0.452823	-0.640306
H94	H	0.677558	-0.504581	-0.713389
H95	H	0.776903	-0.491810	-0.781164
H96	H	0.776786	-0.552506	-0.695045
H97	H	0.763805	-0.404910	-0.658622
H98	H	0.763672	-0.465604	-0.572484
C99	C	1.726184	-0.210832	-1.273616
C100	C	1.652977	-0.262551	-1.237020
H101	H	1.726210	-0.210824	-1.348075
H102	H	1.708031	-0.162919	-1.248823
H103	H	1.793963	-0.223689	-1.248782
H104	H	1.585196	-0.249691	-1.261848
H105	H	1.671124	-0.310476	-1.261824
C106	C	1.391627	-0.447203	-1.229641
C107	C	1.377397	-0.457251	-1.121744
H108	H	1.346031	-0.479431	-1.266851
H109	H	1.376279	-0.397308	-1.247642
H110	H	1.462222	-0.458071	-1.247606
H111	H	1.306804	-0.446378	-1.103778
H112	H	1.392738	-0.507158	-1.103737
C113	C	0.930173	-0.273852	-0.261240
C114	C	0.903687	-0.257910	-0.365326
H115	H	0.892942	-0.241585	-0.215726
H116	H	0.912170	-0.323733	-0.245748
H117	H	1.003371	-0.267036	-0.251655
H118	H	0.830490	-0.264731	-0.374913
H119	H	0.921684	-0.208016	-0.380824
H120	H	1.388836	-0.903519	-0.635708
C121	C	1.537236	-0.886550	-0.227535
C122	C	1.463594	-0.911459	-0.300838
H123	H	1.519191	-0.904672	-0.159974
H124	H	1.604820	-0.904156	-0.246313
H125	H	1.537624	-0.833929	-0.226595
H126	H	1.463211	-0.964081	-0.301784
H127	H	1.395992	-0.893858	-0.282056
