data_functionalizedCrystal
_audit_creation_method	'MofGen! by Chris Wilmer'
_symmetry_space_group_name_H-M	'P1'
_symmetry_Int_Tables_number	1
_symmetry_cell_setting	triclinic
loop_
_symmetry_equiv_pos_as_xyz
  x,y,z
_cell_length_a	8.597340
_cell_length_b	12.376457
_cell_length_c	8.559649
_cell_angle_alpha	99.670712
_cell_angle_beta	102.374957
_cell_angle_gamma	93.971242
loop_
_atom_site_label
_atom_site_type_symbol
_atom_site_fract_x
_atom_site_fract_y
_atom_site_fract_z
O1	O	2.016953	-0.102454	-0.270841
O2	O	1.573329	-0.059243	-0.275268
O3	O	1.834224	-0.084656	-0.042304
O4	O	1.756058	-0.077040	-0.503805
O5	O	1.769031	-0.266318	-0.100462
O6	O	1.508136	-0.240904	-0.333426
O7	O	1.951760	-0.284115	-0.329000
Zn8	Zn	1.719597	-0.291353	-0.340447
Zn9	Zn	1.805492	-0.052005	-0.263820
O10	O	1.690865	-0.258702	-0.561964
C11	C	1.484465	-0.144593	-0.300631
C12	C	1.316807	-0.128262	-0.289540
N13	N	1.660987	-0.454702	-0.392743
C14	C	2.000172	-0.842726	-0.090088
C15	C	2.041185	-0.728382	-0.053485
C16	C	1.946138	-0.659956	-0.138296
C17	C	1.810073	-0.705886	-0.259716
C18	C	1.769063	-0.820243	-0.296331
C19	C	1.715030	-0.637473	-0.344539
C20	C	1.578964	-0.683403	-0.465960
C21	C	1.537961	-0.797749	-0.502567
C22	C	1.633007	-0.866174	-0.417756
C23	C	1.756039	-0.523116	-0.307925
C24	C	1.524931	-0.500633	-0.514168
C25	C	1.483918	-0.614978	-0.550770
C26	C	2.040625	-0.198763	-0.303636
C27	C	2.208286	-0.215087	-0.314725
C28	C	1.807552	-0.176062	-0.012133
C29	C	1.825187	-0.177773	0.164414
N30	N	1.864116	0.111342	-0.211513
C31	C	1.717538	-0.167294	-0.592134
C32	C	1.699905	-0.165575	-0.768679
H33	H	1.979537	-0.566852	-0.108489
H34	H	1.373131	-0.652389	-0.649634
H35	H	2.151968	-0.690989	0.045372
C36	C	2.103103	-0.917058	0.002151
C37	C	2.010316	-0.975957	0.082294
C38	C	2.105093	-1.044434	0.167302
H39	H	2.143443	-0.967235	-0.072167
H40	H	2.189988	-0.873369	0.079799
H41	H	1.923460	-1.019642	0.004655
H42	H	1.969976	-0.925808	0.156639
H43	H	2.191978	-1.000746	0.244951
H44	H	2.145428	-1.094604	0.092973
H45	H	2.042155	-1.084398	0.221701
H46	H	1.599612	-0.959283	-0.447552
C47	C	1.538863	-0.149706	0.127872
C48	C	1.491834	-0.048412	0.190575
C49	C	1.343480	-0.033761	0.095323
H50	H	1.547812	-0.150513	0.018993
H51	H	1.461167	-0.207668	0.129630
H52	H	1.569512	0.009535	0.188800
H53	H	1.482850	-0.047581	0.299442
H54	H	1.265784	-0.091724	0.097080
H55	H	1.352444	-0.034573	-0.013552
H56	H	1.311545	0.034962	0.137862
H57	H	1.447538	-0.444921	-0.583232
C58	C	1.255695	-0.330818	-0.354525
C59	C	1.377114	-0.348537	-0.226530
C60	C	1.420851	-0.455132	-0.263146
H61	H	1.165295	-0.383209	-0.368799
H62	H	1.293432	-0.338707	-0.451910
H63	H	1.339372	-0.340659	-0.129173
H64	H	1.467540	-0.296173	-0.212237
H65	H	1.458588	-0.463021	-0.360531
H66	H	1.330442	-0.507514	-0.277420
H67	H	1.503248	-0.467165	-0.176315
C68	C	1.269503	-0.012486	-0.249809
C69	C	1.148138	0.005253	-0.377838
C70	C	1.104536	0.111894	-0.341307
H71	H	1.231754	-0.004493	-0.152449
H72	H	1.360008	0.039831	-0.235570
H73	H	1.057651	-0.047049	-0.392058
H74	H	1.185850	-0.002717	-0.475211
H75	H	1.195040	0.164212	-0.327068
H76	H	1.066794	0.119878	-0.243944
H77	H	1.022196	0.123948	-0.428174
C78	C	1.903577	-0.473345	-0.175809
C79	C	1.887214	-0.500584	-0.027432
C80	C	2.023086	-0.454764	0.094342
H81	H	1.995949	-0.501690	-0.203672
H82	H	1.914454	-0.395429	-0.165972
H83	H	1.876355	-0.578484	-0.037271
H84	H	1.794870	-0.472239	0.000481
H85	H	2.033963	-0.376848	0.104179
H86	H	2.115448	-0.483113	0.066464
H87	H	2.011996	-0.473231	0.195032
H88	H	1.945939	-0.189544	0.242199
C89	C	1.390041	-0.847537	-0.634193
C90	C	1.254303	-0.805573	-0.592365
C91	C	1.118011	-0.851421	-0.713569
H92	H	1.400566	-0.829209	-0.735108
H93	H	1.379124	-0.925440	-0.643847
H94	H	1.265218	-0.727688	-0.582729
H95	H	1.243726	-0.823900	-0.491469
H96	H	1.107094	-0.929323	-0.723223
H97	H	1.128552	-0.833089	-0.814477
H98	H	1.025895	-0.822963	-0.685198
