data_functionalizedCrystal
_audit_creation_method	'MofGen! by Chris Wilmer'
_symmetry_space_group_name_H-M	'P1'
_symmetry_Int_Tables_number	1
_symmetry_cell_setting	triclinic
loop_
_symmetry_equiv_pos_as_xyz
  x,y,z
_cell_length_a	17.640112
_cell_length_b	29.839131
_cell_length_c	17.640968
_cell_angle_alpha	78.768609
_cell_angle_beta	92.139080
_cell_angle_gamma	101.266684
loop_
_atom_site_label
_atom_site_type_symbol
_atom_site_fract_x
_atom_site_fract_y
_atom_site_fract_z
Zn1	Zn	1.247771	-0.012909	-0.195080
Zn2	Zn	1.221948	-0.105602	-0.068098
Zn3	Zn	1.095086	-0.042134	-0.093726
Zn4	Zn	1.120692	-0.099688	-0.220680
O5	O	1.171374	-0.065083	-0.144396
O6	O	1.350620	-0.015449	-0.156796
O7	O	1.183596	-0.111889	0.034776
O8	O	1.115431	0.024621	-0.107183
O9	O	1.331648	-0.083550	-0.063503
O10	O	1.227608	0.046093	-0.181647
O11	O	1.090391	-0.065260	0.015947
O12	O	0.992208	-0.059525	-0.132006
O13	O	1.159073	-0.073471	-0.323557
O14	O	1.011020	-0.101810	-0.225278
O15	O	1.252437	-0.009714	-0.304749
O16	O	1.208425	-0.167697	-0.088326
O17	O	1.134033	-0.163352	-0.200427
C18	C	0.974058	-0.083197	-0.184201
C19	C	0.889649	-0.090955	-0.201248
C20	C	0.563036	-0.006143	-0.014898
C21	C	0.483723	-0.013439	-0.030927
C22	C	0.503332	-0.057573	-0.127883
C23	C	0.582649	-0.050277	-0.111866
C24	C	0.612494	-0.024563	-0.055372
C25	C	0.632108	-0.068697	-0.152339
C26	C	0.711417	-0.061405	-0.136320
C27	C	0.741268	-0.035692	-0.079827
C28	C	0.691803	-0.017270	-0.039352
C29	C	0.602261	-0.094415	-0.208829
C30	C	0.651719	-0.112835	-0.249303
C31	C	0.731031	-0.105540	-0.233287
C32	C	0.760882	-0.079827	-0.176794
C33	C	0.780495	-0.123962	-0.273762
C34	C	0.859805	-0.116670	-0.257742
C35	C	0.840191	-0.072535	-0.160775
C36	C	1.171229	-0.181824	-0.144386
C37	C	1.171242	-0.231756	-0.144393
C38	C	1.210213	-0.543616	-0.086078
C39	C	1.210312	-0.731276	-0.086088
O40	O	1.243332	-0.757439	-0.036500
N41	N	1.171543	-0.752503	-0.144421
C42	C	1.132750	-0.726811	-0.202759
O43	O	1.099784	-0.749171	-0.252379
C44	C	1.132656	-0.539151	-0.202750
C45	C	1.171421	-0.517928	-0.144409
C46	C	1.248976	-0.522392	-0.027742
C47	C	1.248947	-0.475481	-0.027738
C48	C	1.210155	-0.449792	-0.086069
C49	C	1.171392	-0.471016	-0.144405
C50	C	1.093868	-0.513459	-0.261090
C51	C	1.093850	-0.466541	-0.261084
C52	C	1.132615	-0.445318	-0.202743
C53	C	1.132572	-0.398416	-0.202732
N54	N	1.171341	-0.377189	-0.144399
C55	C	1.210133	-0.402877	-0.086068
C56	C	1.132802	-0.825336	-0.202758
C57	C	1.132824	-0.872251	-0.202759
C58	C	1.210387	-0.876713	-0.086090
C59	C	1.210360	-0.829797	-0.086086
C60	C	1.171571	-0.804109	-0.144425
C61	C	1.210069	-0.304360	-0.086062
C62	C	1.210034	-0.257444	-0.086061
C63	C	1.132474	-0.252986	-0.202733
C64	C	1.132505	-0.299898	-0.202732
C65	C	1.171308	-0.325583	-0.144393
O66	O	1.099577	-0.372224	-0.252299
O67	O	1.243109	-0.380507	-0.036464
C68	C	1.210242	-0.590527	-0.086082
C69	C	1.171479	-0.611751	-0.144418
C70	C	1.132687	-0.586063	-0.202750
C71	C	1.171501	-0.658666	-0.144420
C72	C	1.210293	-0.684354	-0.086088
C73	C	1.249062	-0.663127	-0.027755
C74	C	1.249033	-0.616215	-0.027751
C75	C	1.093918	-0.607290	-0.261082
C76	C	1.093949	-0.654202	-0.261082
C77	C	1.132741	-0.679890	-0.202750
C78	C	1.369461	-0.046899	-0.104435
C79	C	1.453873	-0.039150	-0.087407
C80	C	1.211491	-0.037673	-0.342479
C81	C	1.228587	-0.025992	-0.426890
C82	C	1.171544	0.052117	-0.144418
C83	C	1.171616	0.102061	-0.144428
C84	C	1.041792	-0.153550	-0.753463
C85	C	1.057872	-0.142567	-0.832777
C86	C	1.155084	-0.076183	-0.813183
C87	C	1.139010	-0.087159	-0.733867
C88	C	1.082364	-0.125843	-0.704013
C89	C	1.179581	-0.059452	-0.684417
C90	C	1.163511	-0.070429	-0.605107
C91	C	1.106869	-0.109113	-0.575246
C92	C	1.066293	-0.136820	-0.624703
C93	C	1.236231	-0.020770	-0.714271
C94	C	1.276802	0.006936	-0.664821
C95	C	1.260728	-0.004039	-0.585510
C96	C	1.204086	-0.042722	-0.555650
C97	C	1.301304	0.023669	-0.536054
C98	C	1.285233	0.012692	-0.456744
C99	C	1.188016	-0.053699	-0.476340
C100	C	1.131457	-0.092351	0.052925
C101	C	1.114508	-0.103892	0.137366
H102	H	0.805847	-0.029756	-0.066783
H103	H	0.716106	0.003678	0.006640
F104	F	0.594804	0.021230	0.045225
H105	H	1.062330	-0.586378	-0.308584
F106	F	0.431085	0.006165	0.012160
F107	F	1.290268	-0.549724	0.034347
H108	H	1.249315	-0.011835	-0.778851
H109	H	1.322925	0.038432	-0.689139
H110	H	1.101213	-0.804423	-0.250266
F111	F	0.471559	-0.084945	-0.187999
F112	F	1.052566	-0.439204	-0.323179
H113	H	0.537681	-0.100352	-0.221870
H114	H	1.024830	-0.165132	-0.873038
F115	F	1.251619	-0.807214	-0.023992
H116	H	0.864494	-0.051587	-0.114783
H117	H	0.756182	-0.144903	-0.319754
F118	F	1.091194	-0.225639	-0.264812
F119	F	1.290296	-0.593634	0.034343
H120	H	0.627408	-0.133774	-0.295298
H121	H	1.201208	-0.044687	-0.837501
F122	F	0.912445	-0.136275	-0.300817
H123	H	1.241600	-0.240166	-0.038551
F124	F	1.251367	-0.331689	-0.023971
H125	H	1.100942	-0.317178	-0.250240
H126	H	1.241973	-0.897636	-0.038594
H127	H	1.062297	-0.530732	-0.308595
H128	H	1.280515	-0.458203	0.019767
F129	F	1.290345	-0.690475	0.034327
F130	F	1.091554	-0.894835	-0.264847
F131	F	1.052684	-0.676784	-0.323179
F132	F	1.127720	-0.094868	-0.444564
F133	F	1.005998	-0.177989	-0.592928
F134	F	1.089768	-0.120797	-0.490835
H135	H	0.995647	-0.185041	-0.729159
H136	H	1.347430	0.055163	-0.560372
F137	F	1.328416	0.042179	-0.404112
