data_functionalizedCrystal
_audit_creation_method	'MofGen! by Chris Wilmer'
_symmetry_space_group_name_H-M	'P1'
_symmetry_Int_Tables_number	1
_symmetry_cell_setting	triclinic
loop_
_symmetry_equiv_pos_as_xyz
  x,y,z
_cell_length_a	8.559649
_cell_length_b	10.540539
_cell_length_c	7.681481
_cell_angle_alpha	84.202085
_cell_angle_beta	94.913240
_cell_angle_gamma	77.152078
loop_
_atom_site_label
_atom_site_type_symbol
_atom_site_fract_x
_atom_site_fract_y
_atom_site_fract_z
O1	O	2.104686	-0.029542	-0.146402
O2	O	1.640228	0.035941	-0.146408
O3	O	1.883054	-0.182616	-0.146403
O4	O	1.861861	0.189016	-0.146407
O5	O	1.912941	-0.209571	0.146456
O6	O	1.670116	0.008986	0.146450
O7	O	2.134573	-0.056497	0.146457
Zn8	Zn	1.907089	-0.028035	0.192951
Zn9	Zn	1.867712	0.007479	-0.192902
O10	O	1.891748	0.162061	0.146451
C11	C	1.595699	0.027426	0.000020
C12	C	1.418487	0.042198	0.000017
C13	C	1.896408	-0.243230	0.000023
C14	C	1.891652	-0.383679	0.000014
C15	C	1.709382	-0.547970	-0.000646
C16	C	1.714270	-0.401917	0.000013
C17	C	1.994083	-0.469667	0.167252
C18	C	1.988043	-0.615591	0.167393
C19	C	1.957664	-0.585834	-0.165642
C20	C	1.959072	-0.438819	-0.167853
C21	C	2.179102	-0.047981	0.000025
C22	C	2.356313	-0.062752	0.000016
C23	C	1.878393	0.222675	0.000021
C24	C	1.883148	0.363125	0.000019
N25	N	1.933975	-0.052274	0.456286
N26	N	1.840839	0.031708	-0.456237
H27	H	1.627073	-0.558196	-0.120575
N28	N	1.614651	-0.325817	-0.150379
N29	N	1.541019	-0.380454	-0.256561
H30	H	1.470651	-0.326713	-0.362777
N31	N	1.315168	0.169097	0.000002
N32	N	1.166527	0.181326	-0.000005
H33	H	1.093556	0.270946	-0.000015
N34	N	1.637115	-0.590479	0.148959
N35	N	1.713030	-0.685966	0.256067
H36	H	1.661996	-0.715993	0.361729
N37	N	1.924904	-0.657105	0.324222
N38	N	1.885593	-0.578312	0.432807
H39	H	1.840997	-0.607624	0.543572
N40	N	2.118253	-0.661747	-0.167094
N41	N	2.233897	-0.607223	-0.162907
H42	H	2.347312	-0.660838	-0.163925
N43	N	1.644790	-0.354525	0.150659
N44	N	1.592545	-0.429346	0.255645
H45	H	1.543474	-0.395879	0.362049
N46	N	1.935657	-0.422833	0.323399
N47	N	2.026795	-0.384306	0.431611
H48	H	1.985525	-0.351230	0.541890
H49	H	1.745765	0.117429	0.468564
H50	H	2.116388	-0.677614	0.174981
H51	H	1.438655	-0.163903	0.000009
N52	N	2.053252	-0.159811	0.550646
N53	N	2.069919	-0.174829	0.715234
H54	H	2.154152	-0.250778	0.781879
H55	H	2.124982	-0.461523	0.173472
N56	N	1.869418	-0.603260	-0.324645
N57	N	1.750521	-0.653517	-0.317794
H58	H	1.688185	-0.665828	-0.430081
N59	N	1.864968	-0.364986	-0.323051
N60	N	1.748666	-0.272084	-0.310213
H61	H	1.682199	-0.219931	-0.419818
H62	H	2.087366	-0.427208	-0.177950
