data_functionalizedCrystal
_audit_creation_method	'MofGen! by Chris Wilmer'
_symmetry_space_group_name_H-M	'P1'
_symmetry_Int_Tables_number	1
_symmetry_cell_setting	triclinic
loop_
_symmetry_equiv_pos_as_xyz
  x,y,z
_cell_length_a	12.759401
_cell_length_b	19.077692
_cell_length_c	12.759393
_cell_angle_alpha	92.264102
_cell_angle_beta	89.980324
_cell_angle_gamma	87.730973
loop_
_atom_site_label
_atom_site_type_symbol
_atom_site_fract_x
_atom_site_fract_y
_atom_site_fract_z
Zn1	Zn	1.622966	-0.280138	-0.610760
Zn2	Zn	1.629874	-0.397843	-0.442129
Zn3	Zn	1.447267	-0.280174	-0.435102
Zn4	Zn	1.454270	-0.397792	-0.617767
O5	O	1.538594	-0.338987	-0.526440
O6	O	1.770904	-0.295759	-0.588400
O7	O	1.605610	-0.382271	-0.294178
O8	O	1.464752	-0.181685	-0.452530
O9	O	1.775979	-0.382236	-0.464507
O10	O	1.593837	-0.181659	-0.581585
O11	O	1.471450	-0.295819	-0.289015
O12	O	1.301174	-0.295769	-0.459324
O13	O	1.476688	-0.382149	-0.763857
O14	O	1.306320	-0.382183	-0.593527
O15	O	1.600628	-0.295709	-0.758709
O16	O	1.612401	-0.496320	-0.471301
O17	O	1.483386	-0.496283	-0.600342
C18	C	1.265626	-0.338975	-0.526424
C19	C	1.148850	-0.338986	-0.526443
C20	C	1.091351	-0.294039	-0.591063
C21	C	0.981627	-0.294046	-0.591070
C22	C	0.986912	-0.383954	-0.461836
C23	C	1.096633	-0.383943	-0.461824
C24	C	1.549432	-0.521837	-0.537367
C25	C	1.554164	-0.600061	-0.542077
C26	C	1.489240	-0.636887	-0.477054
C27	C	1.493698	-0.710387	-0.481484
C28	C	1.563074	-0.747060	-0.550944
C29	C	1.628005	-0.710228	-0.615970
C30	C	1.623552	-0.636730	-0.611534
C31	C	1.583597	-0.966869	-0.571417
C32	C	1.588042	-1.040372	-0.575850
C33	C	1.453736	-1.040526	-0.441363
C34	C	1.449285	-0.967026	-0.436937
C35	C	1.514219	-0.930201	-0.501959
N36	N	1.567630	-0.822188	-0.555476
N37	N	1.509669	-0.855074	-0.497421
C38	C	1.812628	-0.338999	-0.526456
C39	C	1.929405	-0.339005	-0.526463
C40	C	1.538669	-0.338919	-0.800469
C41	C	1.538700	-0.338890	-0.917244
C42	C	1.527743	-0.155423	-0.515492
C43	C	1.523119	-0.077198	-0.510827
C44	C	1.603241	-0.293874	-0.969427
C45	C	1.603257	-0.293844	-1.079149
C46	C	1.474190	-0.383852	-1.084497
C47	C	1.474169	-0.383878	-0.974776
C48	C	1.538577	-0.339003	-0.253473
C49	C	1.538737	-0.338834	-0.136687
H50	H	1.133862	-0.257430	-0.643676
H51	H	1.655810	-0.257186	-1.121631
H52	H	1.421605	-0.420536	-0.932288
H53	H	0.934816	-0.257444	-0.643688
H54	H	0.944383	-0.420557	-0.409226
H55	H	1.392793	-0.937169	-0.380378
F56	F	1.701845	-0.749260	-0.689890
H57	H	1.636467	-0.936892	-0.624362
H58	H	1.143450	-0.420545	-0.409197
H59	H	1.400871	-1.070517	-0.388425
F60	F	1.415396	-0.597864	-0.403129
H61	H	1.440832	-0.740368	-0.428533
H62	H	1.655783	-0.257240	-0.922587
H63	H	1.644523	-1.070229	-0.632432
H64	H	1.676421	-0.606747	-0.664481
F65	F	1.405518	-0.431731	-1.145735
