data_functionalizedCrystal
_audit_creation_method	'MofGen! by Chris Wilmer'
_symmetry_space_group_name_H-M	'P1'
_symmetry_Int_Tables_number	1
_symmetry_cell_setting	triclinic
loop_
_symmetry_equiv_pos_as_xyz
  x,y,z
_cell_length_a	11.026607
_cell_length_b	16.109301
_cell_length_c	14.586319
_cell_angle_alpha	89.998857
_cell_angle_beta	89.998207
_cell_angle_gamma	96.023800
loop_
_atom_site_label
_atom_site_type_symbol
_atom_site_fract_x
_atom_site_fract_y
_atom_site_fract_z
O1	O	0.155973	1.126503	-0.076186
O2	O	0.175383	0.887350	-0.076199
O3	O	-0.010967	0.987106	-0.076190
O4	O	0.342323	1.026747	-0.076195
O5	O	-0.010970	0.987097	0.076291
O6	O	0.175380	0.887341	0.076282
O7	O	0.155970	1.126494	0.076294
Cu8	Cu	0.165675	1.006917	0.090211
Cu9	Cu	0.165678	1.006928	-0.090115
O10	O	0.342321	1.026738	0.076286
C11	C	0.174595	0.856253	0.000040
C12	C	0.172238	0.763604	0.000035
C13	C	0.275108	0.470021	0.000050
C14	C	0.277335	0.557075	0.000044
C15	C	0.056236	0.543816	0.000035
C16	C	0.054011	0.456764	0.000034
C17	C	0.163451	0.419869	0.000046
C18	C	0.167902	0.593975	0.000042
C19	C	0.170315	0.688363	0.000036
C20	C	0.161038	0.325475	0.000050
C21	C	-0.056177	0.979788	0.000049
C22	C	-0.190882	0.957987	0.000044
C23	C	-0.264711	1.018183	0.000046
C24	C	-0.403937	0.995652	0.000042
C25	C	0.387530	1.034056	0.000045
C26	C	0.522235	1.055857	0.000043
C27	C	0.156758	1.157591	0.000054
C28	C	0.159115	1.250240	0.000052
N29	N	0.165672	1.006915	0.217043
N30	N	0.165672	1.006934	-0.216947
C31	C	0.083184	1.051110	0.452053
C32	C	0.083181	1.051111	0.548034
C33	C	0.248164	0.962734	0.548036
C34	C	0.248160	0.962728	0.452057
C35	C	0.165671	1.006921	0.404067
C36	C	0.165672	1.006929	0.596028
C37	C	0.165670	1.006931	0.700095
C38	C	0.165672	1.006918	0.299994
H39	H	-0.036919	0.415928	0.000028
H40	H	0.368257	0.597906	0.000047
H41	H	-0.224847	1.086399	0.000055
H42	H	-0.032865	0.573867	0.000027
C43	C	0.338904	0.914120	0.399269
H44	H	0.388044	0.887812	0.441594
H45	H	0.295237	0.872977	0.361832
H46	H	0.389429	0.951593	0.361823
H47	H	-0.230747	0.889771	0.000035
H48	H	-0.443796	0.927432	0.000032
C49	C	-0.423932	1.148017	0.000057
H50	H	-0.337420	1.151073	0.000067
H51	H	-0.450570	1.174926	-0.053112
H52	H	-0.450582	1.174905	0.053241
H53	H	0.016015	1.087092	0.412982
C54	C	-0.007551	1.099723	0.600814
H55	H	-0.056669	1.126045	0.558484
H56	H	-0.058079	1.062261	0.638261
H57	H	0.036125	1.140870	0.638250
C58	C	0.338869	0.914103	0.600823
H59	H	0.387977	0.887769	0.558495
H60	H	0.389411	0.951550	0.638273
H61	H	0.295163	0.872964	0.638255
C62	C	0.395486	0.429439	0.000048
H63	H	0.462303	0.471779	0.000039
H64	H	0.399218	0.395751	0.053218
H65	H	0.399212	0.395760	-0.053135
