data_functionalizedCrystal
_audit_creation_method	'MofGen! by Chris Wilmer'
_symmetry_space_group_name_H-M	'P1'
_symmetry_Int_Tables_number	1
_symmetry_cell_setting	triclinic
loop_
_symmetry_equiv_pos_as_xyz
  x,y,z
_cell_length_a	11.792241
_cell_length_b	8.559649
_cell_length_c	7.681481
_cell_angle_alpha	85.086760
_cell_angle_beta	84.218353
_cell_angle_gamma	103.013960
loop_
_atom_site_label
_atom_site_type_symbol
_atom_site_fract_x
_atom_site_fract_y
_atom_site_fract_z
O1	O	-0.026424	-2.104794	-0.146400
O2	O	0.473576	-1.604794	0.353600
O3	O	0.032148	-1.640097	-0.146410
O4	O	0.532148	-1.140097	0.353590
O5	O	-0.163342	-1.883724	-0.146392
O6	O	0.336658	-1.383724	0.353608
O7	O	0.169066	-1.861167	-0.146418
O8	O	0.669066	-1.361167	0.353582
O9	O	-0.187452	-1.913710	0.146467
O10	O	0.312548	-1.413710	0.646467
O11	O	0.008038	-1.670083	0.146450
O12	O	0.508038	-1.170083	0.646450
O13	O	-0.050534	-2.134780	0.146460
O14	O	0.449466	-1.634780	0.646460
Zn15	Zn	-0.025076	-1.907192	0.192953
Zn16	Zn	0.474924	-1.407192	0.692953
Zn17	Zn	0.006690	-1.867684	-0.192903
Zn18	Zn	0.506690	-1.367684	0.307097
O19	O	0.144956	-1.891153	0.146442
O20	O	0.644956	-1.391153	0.646442
C21	C	0.024531	-1.595598	0.000018
C22	C	0.524531	-1.095598	0.500018
C23	C	0.037744	-1.418332	0.000015
C24	C	0.537744	-0.918332	0.500015
C25	C	-0.042917	-2.179278	0.000027
C26	C	0.457083	-1.679278	0.500027
C27	C	-0.056128	-2.356543	0.000019
C28	C	0.443872	-1.856543	0.500019
C29	C	-0.217558	-1.897300	0.000037
C30	C	0.282442	-1.397300	0.500037
C31	C	-0.343183	-1.893059	0.000035
C32	C	0.156817	-1.393059	0.500035
C33	C	-0.573179	-1.885259	0.000005
C34	C	-0.073179	-1.385259	0.500005
C35	C	-0.445192	-1.889593	0.000022
C36	C	0.054808	-1.389593	0.500022
C37	C	0.199172	-1.877577	0.000009
C38	C	0.699172	-1.377577	0.500009
C39	C	0.324799	-1.881816	-0.000001
C40	C	0.824799	-1.381816	0.499999
N41	N	-0.046757	-1.934167	0.456289
N42	N	0.453243	-1.434167	0.956289
N43	N	0.028361	-1.840722	-0.456239
N44	N	0.528361	-1.340722	0.043761
H45	H	-0.146604	-1.439256	0.000018
H46	H	0.353396	-0.939256	0.500018
C47	C	0.159983	-1.306583	0.000004
C48	C	0.659983	-0.806583	0.500004
N49	N	0.252052	-1.222413	-0.000001
N50	N	0.752052	-0.722413	0.499999
H51	H	0.105035	-1.745334	0.468557
H52	H	0.605035	-1.245334	0.968557
C53	C	-0.150343	-2.063049	0.557894
C54	C	0.349657	-1.563049	1.057894
N55	N	-0.228364	-2.160119	0.634424
N56	N	0.271636	-1.660119	1.134424
