data_functionalizedCrystal
_audit_creation_method	'MofGen! by Chris Wilmer'
_symmetry_space_group_name_H-M	'P1'
_symmetry_Int_Tables_number	1
_symmetry_cell_setting	triclinic
loop_
_symmetry_equiv_pos_as_xyz
  x,y,z
_cell_length_a	21.395362
_cell_length_b	21.395361
_cell_length_c	21.395356
_cell_angle_alpha	90.030681
_cell_angle_beta	90.047076
_cell_angle_gamma	90.048968
loop_
_atom_site_label
_atom_site_type_symbol
_atom_site_fract_x
_atom_site_fract_y
_atom_site_fract_z
Zn1	Zn	-0.957854	0.249149	-0.354641
Zn2	Zn	-0.957758	0.353926	-0.249858
Zn3	Zn	-0.853070	0.249199	-0.249835
Zn4	Zn	-0.853038	0.353926	-0.354555
O5	O	-0.905430	0.301550	-0.302222
O6	O	-1.045519	0.263027	-0.340787
O7	O	-0.943844	0.340054	-0.162177
O8	O	-0.867024	0.161515	-0.263764
O9	O	-1.045449	0.340005	-0.263803
O10	O	-0.944008	0.161478	-0.340765
O11	O	-0.866931	0.263112	-0.162160
O12	O	-0.765388	0.263113	-0.263681
O13	O	-0.866968	0.340006	-0.442245
O14	O	-0.765364	0.340055	-0.340618
O15	O	-0.943976	0.263027	-0.442308
O16	O	-0.943813	0.441604	-0.263720
O17	O	-0.866875	0.441604	-0.340641
C18	C	-0.742642	0.301590	-0.302138
C19	C	-0.673001	0.301622	-0.302117
C20	C	-0.640292	0.341740	-0.342116
C21	C	-0.574856	0.341728	-0.342139
C22	C	-0.542133	0.301603	-0.302152
C23	C	-0.574850	0.261477	-0.262150
C24	C	-0.640284	0.261487	-0.262133
C25	C	-0.438409	0.296569	-0.245740
C26	C	-0.372976	0.296564	-0.245756
C27	C	-0.340312	0.301571	-0.302207
C28	C	-0.373089	0.306596	-0.358643
C29	C	-0.438523	0.306605	-0.358625
C30	C	-0.471180	0.301588	-0.302167
C31	C	-0.236650	0.341678	-0.342235
C32	C	-0.171214	0.341661	-0.342259
C33	C	-0.171208	0.261413	-0.262264
C34	C	-0.236644	0.261427	-0.262246
C35	C	-0.269361	0.301563	-0.302230
C36	C	-0.905347	0.464338	-0.302187
C37	C	-0.905369	0.533979	-0.302194
C38	C	-0.068853	0.301521	-0.302289
C39	C	-0.138494	0.301535	-0.302272
C40	C	-0.905479	0.301511	-0.465646
C41	C	-0.905500	0.301495	-0.535287
C42	C	-0.905530	0.138127	-0.302271
C43	C	-0.905573	0.068485	-0.302292
C44	C	-0.945466	0.566671	-0.262182
C45	C	-0.945495	0.632106	-0.262196
C46	C	-0.905416	0.664847	-0.302215
C47	C	-0.865317	0.632147	-0.342234
C48	C	-0.865293	0.566713	-0.342224
C49	C	-0.849001	0.768580	-0.307102
C50	C	-0.849024	0.834012	-0.307108
C51	C	-0.905489	0.866668	-0.302252
C52	C	-0.961934	0.833882	-0.297376
C53	C	-0.961910	0.768448	-0.297365
C54	C	-0.905438	0.735799	-0.302231
C55	C	-0.945621	0.970312	-0.262253
C56	C	-0.945651	1.035749	-0.262272
C57	C	-0.865467	1.035789	-0.342307
C58	C	-0.865443	0.970353	-0.342292
C59	C	-0.905519	0.937619	-0.302262
C60	C	-0.865462	0.261426	-0.567981
C61	C	-0.865460	0.261415	-0.633417
C62	C	-0.905507	0.301465	-0.666155
C63	C	-0.945548	0.341541	-0.633453
C64	C	-0.945545	0.341556	-0.568019
C65	C	-0.961959	0.306373	-0.769865
C66	C	-0.961964	0.306353	-0.835298
C67	C	-0.905517	0.301422	-0.867976
C68	C	-0.849065	0.296498	-0.835214
C69	C	-0.849062	0.296513	-0.769780
C70	C	-0.905515	0.301453	-0.737108
C71	C	-0.865474	0.261340	-0.971623
C72	C	-0.865470	0.261332	-1.037060
C73	C	-0.945564	0.341455	-1.037095
C74	C	-0.945562	0.341465	-0.971660
C75	C	-0.905517	0.301404	-0.938928
C76	C	-0.905417	0.301543	-0.139435
C77	C	-0.905517	0.301383	-0.069794
H78	H	-0.465208	0.310694	-0.404577
H79	H	-0.978155	0.374150	-0.660113
N80	N	-0.988730	0.384775	-0.532752
H81	H	-1.014099	0.410147	-0.563419
H82	H	-1.017741	0.359269	-0.505635
H83	H	-0.803017	0.741998	-0.311059
N84	N	-0.822090	0.667456	-0.385400
H85	H	-0.828187	0.713869	-0.379334
H86	H	-0.777343	0.656078	-0.375588
H87	H	-0.832867	0.228720	-0.944972
H88	H	-0.666926	0.374421	-0.374675
N89	N	-1.022841	0.869093	-0.292138
H90	H	-1.044175	0.857710	-0.251614
H91	H	-1.014244	0.915508	-0.292915
H92	H	-0.978149	0.658729	-0.229614
N93	N	-0.675565	0.218221	-0.218981
H94	H	-0.721983	0.224318	-0.225035
H95	H	-0.664187	0.173483	-0.228818
N96	N	-0.822279	0.218119	-1.072327
H97	H	-0.796914	0.192744	-1.041659
H98	H	-0.847803	0.189114	-1.099508
H99	H	-0.978255	0.943659	-0.229660
H100	H	-0.263276	0.228761	-0.229671
N101	N	-0.539566	0.384998	-0.385284
H102	H	-0.570222	0.410424	-0.410611
H103	H	-0.512361	0.413953	-0.359728
N104	N	-0.988699	0.531365	-0.219019
H105	H	-0.979000	0.542795	-0.174239
H106	H	-1.033445	0.542712	-0.228871
N107	N	-0.271944	0.384962	-0.385359
H108	H	-0.241291	0.410372	-0.410707
H109	H	-0.299153	0.359500	-0.414393
H110	H	-0.978307	1.062366	-0.229691
H111	H	-0.978173	0.374063	-1.063750
N112	N	-0.822237	1.071087	-0.385475
H113	H	-0.847695	1.098184	-0.414550
H114	H	-0.793231	1.098254	-0.359937
H115	H	-0.832789	0.943734	-0.374870
N116	N	-0.788148	0.869372	-0.312357
H117	H	-0.752374	0.838757	-0.315438
H118	H	-0.789039	0.896496	-0.350966
N119	N	-0.988752	0.384672	-0.936387
H120	H	-0.963270	0.413719	-0.909209
H121	H	-1.014117	0.410002	-0.967089
N122	N	-0.822043	0.531447	-0.385379
H123	H	-0.796657	0.562115	-0.410736
H124	H	-0.793050	0.504354	-0.359830
H125	H	-0.346495	0.310671	-0.404610
H126	H	-1.007931	0.310360	-0.861968
N127	N	-0.822273	0.218212	-0.532687
H128	H	-0.777500	0.227946	-0.544039
H129	H	-0.828395	0.224312	-0.486283
N130	N	-0.135931	0.384935	-0.385401
H131	H	-0.166589	0.410363	-0.410723
H132	H	-0.108726	0.413887	-0.359842
H133	H	-1.007928	0.310383	-0.743263
N134	N	-0.135926	0.218136	-0.219131
H135	H	-0.147370	0.173384	-0.228942
H136	H	-0.089520	0.224268	-0.225229
N137	N	-0.788172	0.291191	-0.870441
H138	H	-0.760120	0.327433	-0.859005
H139	H	-0.766924	0.250631	-0.859035
H140	H	-0.346294	0.292477	-0.199803
H141	H	-0.464998	0.292490	-0.199768
N142	N	-0.822274	0.218198	-0.668691
H143	H	-0.796905	0.192823	-0.638026
H144	H	-0.847803	0.189194	-0.695868
N145	N	-0.788180	0.291194	-0.734442
H146	H	-0.752420	0.288064	-0.765068
H147	H	-0.782334	0.329374	-0.707273
N148	N	-0.539558	0.218208	-0.219014
H149	H	-0.512459	0.189204	-0.244531
H150	H	-0.512394	0.243683	-0.189949
N151	N	-1.022784	0.733085	-0.292109
H152	H	-1.058560	0.763696	-0.289034
H153	H	-1.028569	0.705903	-0.330288
