data_functionalizedCrystal
_audit_creation_method	'MofGen! by Chris Wilmer'
_symmetry_space_group_name_H-M	'P1'
_symmetry_Int_Tables_number	1
_symmetry_cell_setting	triclinic
loop_
_symmetry_equiv_pos_as_xyz
  x,y,z
_cell_length_a	31.640172
_cell_length_b	23.196402
_cell_length_c	31.640172
_cell_angle_alpha	60.008398
_cell_angle_beta	90.008445
_cell_angle_gamma	59.998806
loop_
_atom_site_label
_atom_site_type_symbol
_atom_site_fract_x
_atom_site_fract_y
_atom_site_fract_z
Zr1	Zr	0.407194	0.630918	-0.055387
Zr2	Zr	0.907194	1.130918	0.444613
O3	O	0.339706	0.751184	-0.122873
O4	O	0.839706	1.251184	0.377127
O5	O	0.427881	0.510653	-0.034701
O6	O	0.927881	1.010653	0.465299
O7	O	0.427882	0.630903	-0.122865
O8	O	0.927882	1.130903	0.377135
O9	O	0.339705	0.630945	0.034839
O10	O	0.839705	1.130945	0.534839
O11	O	0.497439	0.630891	-0.122856
O12	O	0.997439	1.130891	0.377144
O13	O	0.339705	0.630933	-0.034709
O14	O	0.839705	1.130933	0.465291
O15	O	0.497437	0.415786	0.034853
O16	O	0.997437	0.915786	0.534853
O17	O	0.339708	0.846051	-0.122870
O18	O	0.839708	1.346051	0.377130
O19	O	0.488615	0.560111	-0.025869
O20	O	0.988615	1.060111	0.474131
O21	O	0.436707	0.560129	0.026027
O22	O	0.936707	1.060129	0.526027
O23	O	0.436708	0.701708	-0.077774
O24	O	0.936708	1.201708	0.422226
O25	O	0.384799	0.701726	-0.025878
O26	O	0.884799	1.201726	0.474122
Zr27	Zr	0.518131	0.630918	0.055550
Zr28	Zr	1.018131	1.130918	0.555550
Zr29	Zr	0.518129	0.630899	-0.055372
Zr30	Zr	1.018129	1.130899	0.444628
Zr31	Zr	0.407195	0.630937	0.055535
Zr32	Zr	0.907195	1.130937	0.555535
Zr33	Zr	0.407197	0.782221	-0.055382
Zr34	Zr	0.907197	1.282221	0.444618
Zr35	Zr	0.518128	0.479616	0.055545
Zr36	Zr	1.018128	0.979616	0.555545
O37	O	0.497444	0.751184	0.034864
O38	O	0.997444	1.251184	0.534864
O39	O	0.497442	0.751156	-0.122852
O40	O	0.997442	1.251156	0.377148
O41	O	0.339708	0.751211	0.034843
O42	O	0.839708	1.251211	0.534843
O43	O	0.585619	0.510653	0.123036
O44	O	1.085619	1.010653	0.623036
O45	O	0.585617	0.510626	-0.034680
O46	O	1.085617	1.010626	0.465320
O47	O	0.427883	0.510680	0.123015
O48	O	0.927883	1.010680	0.623015
O49	O	0.585619	0.630891	-0.034676
O50	O	1.085619	1.130891	0.465324
O51	O	0.497443	0.630933	0.123028
O52	O	0.997443	1.130933	0.623028
O53	O	0.427886	0.630945	0.123019
O54	O	0.927886	1.130945	0.623019
O55	O	0.585620	0.630903	0.034872
O56	O	1.085620	1.130903	0.534872
O57	O	0.427886	0.846036	-0.122858
O58	O	0.927886	1.346036	0.377142
O59	O	0.497438	0.415801	0.123021
O60	O	0.997438	0.915801	0.623021
O61	O	0.585617	0.415786	0.123033
O62	O	1.085617	0.915786	0.623033
O63	O	0.585616	0.415771	0.034865
O64	O	1.085616	0.915771	0.534865
O65	O	0.339709	0.846066	-0.034702
O66	O	0.839709	1.346066	0.465298
O67	O	0.427888	0.846051	-0.034690
O68	O	0.927888	1.346051	0.465310
O69	O	0.488617	0.560129	0.077937
O70	O	0.988617	1.060129	0.577937
O71	O	0.540526	0.560111	0.026041
O72	O	1.040526	1.060111	0.526041
O73	O	0.488618	0.701708	-0.025864
O74	O	0.988618	1.201708	0.474136
O75	O	0.436709	0.701726	0.026032
O76	O	0.936709	1.201726	0.526032
C77	C	0.462659	0.441662	0.000076
C78	C	0.962659	0.941662	0.500076
C79	C	0.462657	0.377430	0.000074
C80	C	0.962657	0.877430	0.500074
C81	C	0.323899	0.630942	0.000063
C82	C	0.823899	1.130942	0.500063
C83	C	0.276804	0.630950	0.000057
C84	C	0.776804	1.130950	0.500057
C85	C	0.489750	0.347250	-0.027018
C86	C	0.989750	0.847250	0.472982
C87	C	0.489755	0.286889	-0.027013
C88	C	0.989755	0.786889	0.472987
C89	C	0.462657	0.256722	0.000075
C90	C	0.962657	0.756722	0.500075
C91	C	0.435564	0.286906	0.027172
C92	C	0.935564	0.786906	0.527172
C93	C	0.435564	0.347260	0.027171
C94	C	0.935564	0.847260	0.527171
C95	C	0.417270	0.194700	-0.003798
C96	C	0.917270	0.694700	0.496202
C97	C	0.417269	0.134350	-0.003801
C98	C	0.917269	0.634350	0.496199
C99	C	0.462658	0.070567	0.000080
C100	C	0.962658	0.570567	0.500080
C101	C	0.508048	0.067148	0.003954
C102	C	1.008048	0.567148	0.503954
C103	C	0.508048	0.127502	0.003953
C104	C	1.008048	0.627502	0.503953
C105	C	0.462654	0.191278	0.000079
C106	C	0.962654	0.691278	0.500079
C107	C	0.489758	-0.025064	-0.027008
C108	C	0.989758	0.474936	0.472992
C109	C	0.489764	-0.085429	-0.027000
C110	C	0.989764	0.414571	0.473000
C111	C	0.435568	-0.085406	0.027182
C112	C	0.935568	0.414594	0.527182
C113	C	0.435567	-0.025047	0.027178
C114	C	0.935567	0.474953	0.527178
C115	C	0.462661	0.005123	0.000080
C116	C	0.962661	0.505123	0.500080
C117	C	0.011893	0.556999	0.027186
C118	C	0.511893	1.056999	0.527186
C119	C	-0.165092	0.556984	0.027196
C120	C	0.334908	1.056984	0.527196
O121	O	-0.164934	0.494124	0.050258
O122	O	0.335066	0.994124	0.550258
N123	N	-0.214317	0.630896	0.000101
N124	N	0.285683	1.130896	0.500101
C125	C	-0.219295	0.704816	-0.026995
C126	C	0.280705	1.204816	0.473005
O127	O	-0.265224	0.767682	-0.050036
O128	O	0.234776	1.267682	0.449964
C129	C	-0.042310	0.704830	-0.027002
C130	C	0.457690	1.204830	0.472998
C131	C	0.006914	0.630913	0.000090
C132	C	0.506914	1.130913	0.500090
C133	C	0.061115	0.483088	0.054277
C134	C	0.561115	0.983088	0.554277
C135	C	0.105359	0.483092	0.054272
C136	C	0.605359	0.983092	0.554272
C137	C	0.100380	0.557007	0.027176
C138	C	0.600380	1.057007	0.527176
C139	C	0.051158	0.630917	0.000085
C140	C	0.551158	1.130917	0.500085
C141	C	-0.047288	0.778749	-0.054095
C142	C	0.452712	1.278749	0.445905
C143	C	-0.003037	0.778746	-0.054093
C144	C	0.496963	1.278746	0.445907
C145	C	0.046187	0.704829	-0.027001
C146	C	0.546187	1.204829	0.472999
C147	C	0.090422	0.704836	-0.027016
C148	C	0.590422	1.204836	0.472984
N149	N	0.139647	0.630925	0.000079
N150	N	0.639647	1.130925	0.500079
C151	C	0.144626	0.557010	0.027175
C152	C	0.644626	1.057010	0.527175
C153	C	-0.312212	0.704804	-0.026990
C154	C	0.187788	1.204804	0.473010
C155	C	-0.356458	0.704801	-0.026989
C156	C	0.143542	1.204801	0.473011
C157	C	-0.302252	0.556969	0.027203
C158	C	0.197748	1.056969	0.527203
C159	C	-0.258006	0.556973	0.027199
C160	C	0.241994	1.056973	0.527199
C161	C	-0.262987	0.630893	0.000104
C162	C	0.237013	1.130893	0.500104
C163	C	0.237538	0.557025	0.027162
C164	C	0.737538	1.057025	0.527162
C165	C	0.281783	0.557036	0.027152
C166	C	0.781783	1.057036	0.527152
C167	C	0.227573	0.704867	-0.027037
C168	C	0.727573	1.204867	0.472963
C169	C	0.183332	0.704857	-0.027031
C170	C	0.683332	1.204857	0.472969
C171	C	0.188318	0.630929	0.000073
C172	C	0.688318	1.130929	0.500073
O173	O	0.090304	0.767663	-0.050060
O174	O	0.590304	1.267663	0.449940
O175	O	0.190560	0.494154	0.050222
O176	O	0.690560	0.994154	0.550222
C177	C	-0.032350	0.556994	0.027191
C178	C	0.467650	1.056994	0.527191
C179	C	-0.081572	0.630905	0.000101
C180	C	0.418428	1.130905	0.500101
C181	C	-0.086551	0.704819	-0.026995
C182	C	0.413449	1.204819	0.473005
C183	C	-0.125818	0.630901	0.000102
C184	C	0.374182	1.130901	0.500102
C185	C	-0.120839	0.556987	0.027197
C186	C	0.379161	1.056987	0.527197
C187	C	-0.071615	0.483075	0.054292
C188	C	0.428385	0.983075	0.554292
C189	C	-0.027371	0.483080	0.054287
C190	C	0.472629	0.983080	0.554287
C191	C	-0.135776	0.778731	-0.054090
C192	C	0.364224	1.278731	0.445910
C193	C	-0.180017	0.778720	-0.054083
C194	C	0.319983	1.278720	0.445917
C195	C	-0.175038	0.704806	-0.026987
C196	C	0.324962	1.204806	0.473013
C197	C	0.601426	0.630894	0.000100
C198	C	1.101426	1.130894	0.500100
C199	C	0.648521	0.630886	0.000106
C200	C	1.148521	1.130886	0.500106
C201	C	0.462660	0.630894	-0.138664
C202	C	0.962660	1.130894	0.361336
C203	C	0.462660	0.630886	-0.185753
C204	C	0.962660	1.130886	0.314247
C205	C	0.462666	0.820175	0.000087
C206	C	0.962666	1.320175	0.500087
C207	C	0.462667	0.884406	0.000089
C208	C	0.962667	1.384406	0.500089
C209	C	0.435572	0.704838	-0.504883
C210	C	0.935572	1.204838	-0.004883
C211	C	0.435573	0.704852	-0.681878
C212	C	0.935573	1.204852	-0.181878
O213	O	0.412548	0.767712	-0.727807
O214	O	0.912548	1.267712	-0.227807
N215	N	0.462667	0.630941	-0.676914
N216	N	0.962667	1.130941	-0.176914
C217	C	0.489765	0.557020	-0.627696
C218	C	0.989765	1.057020	-0.127696
O219	O	0.512815	0.494154	-0.627536
O220	O	1.012815	0.994154	-0.127536
C221	C	0.489768	0.557007	-0.450702
C222	C	0.989768	1.057007	0.049298
C223	C	0.462667	0.630923	-0.455670
C224	C	0.962667	1.130923	0.044330
C225	C	0.408474	0.778748	-0.509849
C226	C	0.908474	1.278748	-0.009849
C227	C	0.408472	0.778744	-0.465602
C228	C	0.908472	1.278744	0.034398
C229	C	0.435568	0.704829	-0.416390
C230	C	0.935568	1.204829	0.083610
C231	C	0.462665	0.630919	-0.411424
C232	C	0.962665	1.130919	0.088576
C233	C	0.516869	0.483088	-0.401486
C234	C	1.016869	0.983088	0.098514
C235	C	0.516868	0.483091	-0.357237
C236	C	1.016868	0.983091	0.142763
C237	C	0.489768	0.557007	-0.362205
C238	C	0.989768	1.057007	0.137795
C239	C	0.489758	0.557000	-0.317965
C240	C	0.989758	1.057000	0.182035
N241	N	0.462664	0.630912	-0.322929
N242	N	0.962664	1.130912	0.177071
C243	C	0.435569	0.704826	-0.372141
C244	C	0.935569	1.204826	0.127859
C245	C	0.489762	0.557032	-0.720623
C246	C	0.989762	1.057032	-0.220623
C247	C	0.489760	0.557036	-0.764871
C248	C	0.989760	1.057036	-0.264871
C249	C	0.435568	0.704868	-0.819050
C250	C	0.935568	1.204868	-0.319050
C251	C	0.435567	0.704864	-0.774800
C252	C	0.935567	1.204864	-0.274800
C253	C	0.462667	0.630944	-0.725587
C254	C	0.962667	1.130944	-0.225587
C255	C	0.435566	0.704812	-0.279219
C256	C	0.935566	1.204812	0.220781
C257	C	0.435564	0.704801	-0.234966
C258	C	0.935564	1.204801	0.265034
C259	C	0.489759	0.556969	-0.180791
C260	C	0.989759	1.056969	0.319209
C261	C	0.489758	0.556980	-0.225040
C262	C	0.989758	1.056980	0.274960
C263	C	0.462661	0.630907	-0.274255
C264	C	0.962661	1.130907	0.225745
O265	O	0.512776	0.494173	-0.272021
O266	O	1.012776	0.994173	0.227979
O267	O	0.412532	0.767683	-0.372291
O268	O	0.912532	1.267683	0.127709
C269	C	0.435574	0.704842	-0.549129
C270	C	0.935574	1.204842	-0.049129
C271	C	0.462672	0.630932	-0.544163
C272	C	0.962672	1.130932	-0.044163
C273	C	0.489767	0.557017	-0.494951
C274	C	0.989767	1.057017	0.005049
C275	C	0.462670	0.630935	-0.588412
C276	C	0.962670	1.130935	-0.088412
C277	C	0.435575	0.704850	-0.637624
C278	C	0.935575	1.204850	-0.137624
C279	C	0.408481	0.778761	-0.642588
C280	C	0.908481	1.278761	-0.142588
C281	C	0.408479	0.778757	-0.598341
C282	C	0.908479	1.278757	-0.098341
C283	C	0.516861	0.483106	-0.489987
C284	C	1.016861	0.983106	0.010013
C285	C	0.516861	0.483116	-0.534236
C286	C	1.016861	0.983116	-0.034236
C287	C	0.489765	0.557031	-0.583448
C288	C	0.989765	1.057031	-0.083448
C289	C	0.462664	0.630942	0.138827
C290	C	0.962664	1.130942	0.638827
C291	C	0.462665	0.630950	0.185916
C292	C	0.962665	1.130950	0.685916
C293	C	0.601422	0.441638	0.000094
C294	C	1.101422	0.941638	0.500094
C295	C	0.648516	0.377398	0.000098
C296	C	1.148516	0.877398	0.500098
C297	C	0.462661	0.441686	0.138821
C298	C	0.962661	0.941686	0.638821
C299	C	0.462660	0.377462	0.185908
C300	C	0.962660	0.877462	0.685908
C301	C	0.601424	0.441662	0.138840
C302	C	1.101424	0.941662	0.638840
C303	C	0.648518	0.377430	0.185933
C304	C	1.148518	0.877430	0.685933
C305	C	0.323901	0.820175	-0.138677
C306	C	0.823901	1.320175	0.361323
C307	C	0.276807	0.884406	-0.185770
C308	C	0.776807	1.384406	0.314230
C309	C	0.323903	0.820198	0.000069
C310	C	0.823903	1.320198	0.500069
C311	C	0.276809	0.884438	0.000065
C312	C	0.776809	1.384438	0.500065
C313	C	0.462664	0.820151	-0.138658
C314	C	0.962664	1.320151	0.361342
C315	C	0.462665	0.884374	-0.185745
C316	C	0.962665	1.384374	0.314255
C317	C	0.643535	0.347230	-0.027001
C318	C	1.143535	0.847230	0.472999
C319	C	0.687780	0.286879	-0.027007
C320	C	1.187780	0.786879	0.472993
C321	C	0.737006	0.256691	0.000089
C322	C	1.237006	0.756691	0.500089
C323	C	0.741986	0.286865	0.027189
C324	C	1.241986	0.786865	0.527189
C325	C	0.697741	0.347220	0.027192
C326	C	1.197741	0.847220	0.527192
C327	C	0.489756	0.347302	0.235122
C328	C	0.989756	0.847302	0.735122
C329	C	0.489754	0.286965	0.279370
C330	C	0.989754	0.786965	0.779370
C331	C	0.462658	0.256786	0.274402
C332	C	0.962658	0.756786	0.774402
C333	C	0.435558	0.286952	0.225183
C334	C	0.935558	0.786952	0.725183
C335	C	0.435558	0.347292	0.180937
C336	C	0.935558	0.847292	0.680937
C337	C	0.697735	0.347257	0.180959
C338	C	1.197735	0.847257	0.680959
C339	C	0.741989	0.286913	0.225204
C340	C	1.241989	0.786913	0.725204
C341	C	0.737026	0.256739	0.274423
C342	C	1.237026	0.756739	0.774423
C343	C	0.687804	0.286918	0.279395
C344	C	1.187804	0.786918	0.779395
C345	C	0.643551	0.347265	0.235151
C346	C	1.143551	0.847265	0.735151
C347	C	0.227590	0.914587	-0.180796
C348	C	0.727590	1.414587	0.319204
C349	C	0.183336	0.974950	-0.225041
C350	C	0.683336	1.474950	0.274959
C351	C	0.188299	1.005127	-0.274260
C352	C	0.688299	1.505127	0.225740
C353	C	0.237521	0.974944	-0.279232
C354	C	0.737521	1.474944	0.220768
C355	C	0.281774	0.914586	-0.234988
C356	C	0.781774	1.414586	0.265012
C357	C	0.281790	0.914612	0.027159
C358	C	0.781790	1.414612	0.527159
C359	C	0.237545	0.974981	0.027153
C360	C	0.737545	1.474981	0.527153
C361	C	0.188319	1.005170	0.000056
C362	C	0.688319	1.505170	0.500056
C363	C	0.183339	0.974994	-0.027042
C364	C	0.683339	1.474994	0.472958
C365	C	0.227584	0.914630	-0.027039
C366	C	0.727584	1.414630	0.472961
C367	C	0.489766	0.914535	-0.180762
C368	C	0.989766	1.414535	0.319238
C369	C	0.489777	0.974872	-0.225001
C370	C	0.989777	1.474872	0.274999
C371	C	0.462683	1.005051	-0.274223
C372	C	0.962683	1.505051	0.225777
C373	C	0.435581	0.974885	-0.279206
C374	C	0.935581	1.474885	0.220794
C375	C	0.435573	0.914545	-0.234967
C376	C	0.935573	1.414545	0.265033
H377	H	0.511817	0.262312	-0.049075
H378	H	1.011817	0.762312	0.450925
N379	N	0.334878	0.882070	0.056385
N380	N	0.834878	1.382070	0.556385
H381	H	0.354443	0.892564	0.031537
H382	H	0.854443	1.392564	0.531537
H383	H	0.354406	0.821500	0.083654
H384	H	0.854406	1.321500	0.583654
N385	N	0.140601	1.070264	0.000065
N386	N	0.640601	1.570264	0.500065
H387	H	0.108658	1.084812	-0.021210
H388	H	0.608658	1.584812	0.478790
H389	H	0.140632	1.120294	-0.015336
H390	H	0.640632	1.620294	0.484664
N391	N	0.795073	0.254355	0.219832
N392	N	1.295073	0.754355	0.719832
H393	H	0.822358	0.211546	0.255326
H394	H	1.322358	0.711546	0.755326
H395	H	0.799171	0.300443	0.200260
H396	H	1.299171	0.800443	0.700260
H397	H	0.380304	0.246642	-0.006969
H398	H	0.880304	0.746642	0.493031
N399	N	0.130250	1.007488	-0.219675
N400	N	0.630250	1.507488	0.280325
H401	H	0.110679	1.068068	-0.236815
H402	H	0.610679	1.568068	0.263185
H403	H	0.133865	0.979145	-0.181772
H404	H	0.633865	1.479145	0.318228
N405	N	0.590445	0.379780	-0.056227
N406	N	1.090445	0.879780	0.443773
H407	H	0.594011	0.351507	-0.073394
H408	H	1.094011	0.851507	0.426606
H409	H	0.570906	0.440364	-0.083463
H410	H	1.070906	0.940364	0.416537
N411	N	0.140566	1.070227	-0.321978
N412	N	0.640566	1.570227	0.178022
H413	H	0.108636	1.084760	-0.311354
H414	H	0.608636	1.584760	0.188646
H415	H	0.140586	1.049176	-0.343256
H416	H	0.640586	1.549176	0.156744
H417	H	0.511823	0.262411	0.319441
H418	H	1.011823	0.762411	0.819441
H419	H	-0.139838	0.838922	-0.076156
H420	H	0.360162	1.338922	0.423844
H421	H	0.773028	0.207546	0.000083
H422	H	1.273028	0.707546	0.500083
H423	H	0.413497	0.262371	0.221147
H424	H	0.913497	0.762371	0.721147
N425	N	0.368312	0.138044	-0.007968
N426	N	0.868312	0.638044	0.492032
H427	H	0.358153	0.141732	-0.039944
H428	H	0.858153	0.641732	0.460056
H429	H	0.339602	0.187602	-0.010394
H430	H	0.839602	0.687602	0.489606
N431	N	0.406300	0.379861	0.127857
N432	N	0.906300	0.879861	0.627857
H433	H	0.389127	0.351595	0.131429
H434	H	0.889127	0.851595	0.631429
H435	H	0.431152	0.369375	0.108294
H436	H	0.931152	0.869375	0.608294
H437	H	0.413501	0.262339	0.049228
H438	H	0.913501	0.762339	0.549228
H439	H	0.701786	0.371816	0.140887
H440	H	1.201786	0.871816	0.640887
N441	N	0.795079	0.254296	0.056421
N442	N	1.295079	0.754296	0.556421
H443	H	0.799236	0.300327	0.042218
H444	H	1.299236	0.800327	0.542218
H445	H	0.822317	0.211469	0.052299
H446	H	1.322317	0.711469	0.552299
H447	H	0.143254	0.999583	-0.049104
H448	H	0.643254	1.499583	0.450896
H449	H	0.413521	0.999467	-0.319289
H450	H	0.913521	1.499467	0.180711
H451	H	0.683715	0.262318	-0.049075
H452	H	1.183715	0.762318	0.450925
N453	N	0.222208	0.882088	-0.056264
N454	N	0.722208	1.382088	0.443736
H455	H	0.184309	0.910376	-0.073428
H456	H	0.684309	1.410376	0.426572
H457	H	0.239380	0.821507	-0.031387
H458	H	0.739380	1.321507	0.468613
N459	N	0.242915	0.477294	0.056385
N460	N	0.742915	0.977294	0.556385
H461	H	0.225773	0.473989	0.083654
H462	H	0.725773	0.973989	0.583654
H463	H	0.280822	0.430522	0.073509
H464	H	0.780822	0.930522	0.573509
N465	N	-0.409547	0.784526	-0.056211
N466	N	0.090453	1.284526	0.443789
H467	H	-0.436825	0.773317	-0.052102
H468	H	0.063175	1.273317	0.447898
H469	H	-0.413649	0.816802	-0.094101
H470	H	0.086351	1.316802	0.405899
H471	H	0.603478	0.371824	0.239208
H472	H	1.103478	0.871824	0.739208
H473	H	0.321864	0.496841	0.049216
H474	H	0.821864	0.996841	0.549216
N475	N	0.242870	1.007495	-0.332319
N476	N	0.742870	1.507495	0.167681
H477	H	0.207365	1.050307	-0.359589
H478	H	0.707365	1.550307	0.140411
H479	H	0.262430	0.961403	-0.336421
H480	H	0.762430	1.461403	0.163579
N481	N	0.682453	0.254363	0.332481
N482	N	1.182453	0.754363	0.832481
H483	H	0.662908	0.300401	0.336635
H484	H	1.162908	0.800401	0.836635
H485	H	0.717975	0.211540	0.359719
H486	H	1.217975	0.711540	0.859719
N487	N	0.406343	0.379812	0.056394
N488	N	0.906343	0.879812	0.556394
H489	H	0.389179	0.351542	0.073558
H490	H	0.889179	0.851542	0.573558
H491	H	0.379101	0.440396	0.031515
H492	H	0.879101	0.940396	0.531515
N493	N	0.518991	0.881992	-0.127675
N494	N	1.018991	1.381992	0.372325
H495	H	0.536160	0.910259	-0.131239
H496	H	1.036160	1.410259	0.368761
H497	H	0.546229	0.821406	-0.108136
H498	H	1.046229	1.321406	0.391864
H499	H	0.511846	0.999427	-0.220933
H500	H	1.011846	1.499427	0.279067
N501	N	0.406340	0.882019	-0.240347
N502	N	0.906340	1.382019	0.259653
H503	H	0.389178	0.910300	-0.278243
H504	H	0.889178	1.410300	0.221757
H505	H	0.379095	0.892537	-0.223178
H506	H	0.879095	1.392537	0.276822
N507	N	0.703117	0.379752	0.056424
N508	N	1.203117	0.879752	0.556424
H509	H	0.741016	0.351465	0.073588
H510	H	1.241016	0.851465	0.573588
H511	H	0.685943	0.369248	0.083663
H512	H	1.185943	0.869248	0.583663
H513	H	-0.298205	0.496785	0.049262
H514	H	0.201795	0.996785	0.549262
N515	N	0.462699	1.070125	-0.321935
N516	N	0.962699	1.570125	0.178065
H517	H	0.483981	1.084647	-0.311304
H518	H	0.983981	1.584647	0.188696
H519	H	0.425990	1.120172	-0.343220
H520	H	0.925990	1.620172	0.156780
N521	N	0.518985	0.379843	0.240487
N522	N	1.018985	0.879843	0.740487
H523	H	0.536146	0.351576	0.278381
H524	H	1.036146	0.851576	0.778381
H525	H	0.494105	0.440429	0.223306
H526	H	0.994105	0.940429	0.723306
N527	N	-0.317593	0.784539	-0.056223
N528	N	0.182407	1.284539	0.443777
H529	H	-0.300446	0.787829	-0.083488
H530	H	0.199554	1.287829	0.416512
H531	H	-0.300451	0.787804	-0.031345
H532	H	0.199549	1.287804	0.468655
H533	H	0.462662	0.207654	0.310435
H534	H	0.962662	0.707654	0.810435
N535	N	0.158448	0.403368	0.083491
N536	N	0.658448	0.903368	0.583491
H537	H	0.154880	0.356550	0.100654
H538	H	0.654880	0.856550	0.600654
H539	H	0.177993	0.400146	0.110730
H540	H	0.677993	0.900146	0.610730
N541	N	0.784759	0.191650	0.322141
N542	N	1.284759	0.691650	0.822141
H543	H	0.816689	0.177116	0.311517
H544	H	1.316689	0.677116	0.811517
H545	H	0.784737	0.141612	0.343416
H546	H	1.284737	0.641612	0.843416
N547	N	-0.233109	0.858450	-0.083308
N548	N	0.266891	1.358450	0.416692
H549	H	-0.229543	0.905271	-0.100471
H550	H	0.270457	1.405271	0.399529
H551	H	-0.252640	0.861670	-0.058426
H552	H	0.247360	1.361670	0.441574
N553	N	0.518971	0.379791	-0.056243
N554	N	1.018971	0.879791	0.443757
H555	H	0.536135	0.351509	-0.073404
H556	H	1.036135	0.851509	0.426596
H557	H	0.546214	0.369289	-0.031365
H558	H	1.046214	0.869289	0.468635
N559	N	0.518987	0.477250	-0.127709
N560	N	1.018987	0.977250	0.372291
H561	H	0.514876	0.488470	-0.100435
H562	H	1.014876	0.988470	0.399565
H563	H	0.556880	0.444982	-0.123613
H564	H	1.056880	0.944982	0.376387
N565	N	0.557000	0.123819	0.008131
N566	N	1.057000	0.623819	0.508131
H567	H	0.585756	0.074258	0.010589
H568	H	1.085756	0.574258	0.510589
H569	H	0.567094	0.120176	0.040104
H570	H	1.067094	0.620176	0.540104
H571	H	0.223539	0.890020	-0.140724
H572	H	0.723539	1.390020	0.359276
N573	N	0.379268	0.858483	-0.695673
N574	N	0.879268	1.358483	-0.195673
H575	H	0.362103	0.905312	-0.692110
H576	H	0.862103	1.405312	-0.192110
H577	H	0.352028	0.861717	-0.715226
H578	H	0.852028	1.361717	-0.215226
H579	H	-0.217928	0.496783	0.049264
H580	H	0.282072	0.996783	0.549264
N581	N	0.557008	-0.001638	0.008138
N582	N	1.057008	0.498362	0.508138
H583	H	0.550123	-0.039358	0.007554
H584	H	1.050123	0.460642	0.507554
H585	H	0.584948	-0.032980	0.041636
H586	H	1.084948	0.467020	0.541636
N587	N	0.518980	0.007480	-0.056232
N588	N	1.018980	0.507480	0.443768
H589	H	0.556887	-0.038565	-0.042016
H590	H	1.056887	0.461435	0.457984
H591	H	0.514824	0.050310	-0.052116
H592	H	1.014824	0.550310	0.447884
N593	N	0.518990	-0.117987	-0.056218
N594	N	1.018990	0.382013	0.443782
H595	H	0.536151	-0.089713	-0.073384
H596	H	1.036151	0.410287	0.426616
H597	H	0.494108	-0.107490	-0.083455
H598	H	0.994108	0.392510	0.416545
N599	N	0.334857	0.882034	-0.240356
N600	N	0.834857	1.382034	0.259644
H601	H	0.331281	0.910312	-0.278250
H602	H	0.831281	1.410312	0.221750
H603	H	0.354393	0.821452	-0.223185
H604	H	0.854393	1.321452	0.276815
N605	N	0.242923	1.007520	0.056382
N606	N	0.742923	1.507520	0.556382
H607	H	0.280822	0.979226	0.073552
H608	H	0.780822	1.479226	0.573552
H609	H	0.225742	0.997029	0.083617
H610	H	0.725742	1.497029	0.583617
N611	N	0.222208	0.784587	-0.056264
N612	N	0.722208	1.284587	0.443736
H613	H	0.257709	0.773366	-0.052152
H614	H	0.757709	1.273366	0.447848
H615	H	0.202646	0.816866	-0.042036
H616	H	0.702646	1.316866	0.457964
N617	N	0.406346	-0.117941	0.056405
N618	N	0.906346	0.382059	0.556405
H619	H	0.410458	-0.160758	0.052296
H620	H	0.910458	0.339242	0.552296
H621	H	0.368452	-0.071847	0.042176
H622	H	0.868452	0.428153	0.542176
H623	H	0.413503	-0.000472	0.049236
H624	H	0.913503	0.499528	0.549236
H625	H	-0.087362	0.838940	-0.076156
H626	H	0.412638	1.338940	0.423844
N627	N	0.066489	0.403362	0.083501
N628	N	0.566489	0.903362	0.583501
H629	H	0.086042	0.371049	0.121402
H630	H	0.586042	0.871049	0.621402
H631	H	0.086022	0.371117	0.069244
H632	H	0.586022	0.871117	0.569244
N633	N	-0.008408	0.858473	-0.083318
N634	N	0.491592	1.358473	0.416682
H635	H	-0.027953	0.890790	-0.069105
H636	H	0.472047	1.390790	0.430895
H637	H	-0.027947	0.890718	-0.121213
H638	H	0.472053	1.390718	0.378787
N639	N	0.130236	0.784574	-0.056254
N640	N	0.630236	1.284574	0.443746
H641	H	0.126080	0.816885	-0.094157
H642	H	0.626080	1.316885	0.405843
H643	H	0.126126	0.816829	-0.042003
H644	H	0.626126	1.316829	0.457997
N645	N	0.025715	0.403350	0.083514
N646	N	0.525715	0.903350	0.583514
H647	H	0.045286	0.400054	0.110780
H648	H	0.545286	0.900054	0.610780
H649	H	0.045239	0.400089	0.058633
H650	H	0.545239	0.900089	0.558633
N651	N	-0.066248	0.403352	0.083512
N652	N	0.433752	0.903352	0.583512
H653	H	-0.101749	0.414574	0.079400
H654	H	0.398251	0.914574	0.579400
H655	H	-0.046678	0.371075	0.121402
H656	H	0.453322	0.871075	0.621402
H657	H	0.413494	0.764995	-0.239017
H658	H	0.913494	1.264995	0.260983
H659	H	0.413501	0.765011	-0.319287
H660	H	0.913501	1.265011	0.180713
N661	N	0.379250	0.858468	-0.470964
N662	N	0.879250	1.358468	0.029036
H663	H	0.362090	0.905287	-0.508857
H664	H	0.862090	1.405287	-0.008857
H665	H	0.404133	0.861679	-0.453780
H666	H	0.904133	1.361679	0.046220
H667	H	0.413499	0.765053	-0.778851
H668	H	0.913499	1.265053	-0.278851
N669	N	0.379262	0.858477	-0.562926
N670	N	0.879262	1.358477	-0.062926
H671	H	0.362103	0.905291	-0.559348
H672	H	0.862103	1.405291	-0.059348
H673	H	0.352016	0.861724	-0.582482
H674	H	0.852016	1.361724	-0.082482
N675	N	0.406342	0.784592	-0.872134
N676	N	0.906342	1.284592	-0.372134
H677	H	0.410457	0.773371	-0.899407
H678	H	0.910457	1.273371	-0.399407
H679	H	0.420574	0.816860	-0.876224
H680	H	0.920574	1.316860	-0.376224
H681	H	0.511821	0.496845	-0.760820
H682	H	1.011821	0.996845	-0.260820
N683	N	0.518994	0.477300	-0.667544
N684	N	1.018994	0.977300	-0.167544
H685	H	0.536154	0.430485	-0.671120
H686	H	1.036154	0.930485	-0.171120
H687	H	0.494116	0.474078	-0.648009
H688	H	0.994116	0.974078	-0.148009
N689	N	0.546113	0.403359	-0.396116
N690	N	1.046113	0.903359	0.103884
H691	H	0.531911	0.371032	-0.376571
H692	H	1.031911	0.871032	0.123429
H693	H	0.584008	0.371132	-0.376579
H694	H	1.084008	0.871132	0.123421
N695	N	0.546101	0.403361	-0.304156
N696	N	1.046101	0.903361	0.195844
H697	H	0.563267	0.356542	-0.307728
H698	H	1.063267	0.856542	0.192272
H699	H	0.521223	0.400137	-0.284621
H700	H	1.021223	0.900137	0.215379
H701	H	0.511818	0.496791	-0.220994
H702	H	1.011818	0.996791	0.279006
H703	H	0.538927	0.422920	-0.530182
H704	H	1.038927	0.922920	-0.030182
N705	N	0.379254	0.858479	-0.603701
N706	N	0.879254	1.358479	-0.103701
H707	H	0.341349	0.890801	-0.623254
H708	H	0.841349	1.390801	-0.123254
H709	H	0.393513	0.890719	-0.623225
H710	H	0.893513	1.390719	-0.123225
N711	N	0.546089	0.403380	-0.436910
N712	N	1.046089	0.903380	0.063090
H713	H	0.563251	0.356564	-0.440485
H714	H	1.063251	0.856564	0.059515
H715	H	0.521208	0.400159	-0.417378
H716	H	1.021208	0.900159	0.082622
