data_functionalizedCrystal
_audit_creation_method	'MofGen! by Chris Wilmer'
_symmetry_space_group_name_H-M	'P1'
_symmetry_Int_Tables_number	1
_symmetry_cell_setting	triclinic
loop_
_symmetry_equiv_pos_as_xyz
  x,y,z
_cell_length_a	27.440280
_cell_length_b	27.440280
_cell_length_c	17.917603
_cell_angle_alpha	63.034592
_cell_angle_beta	89.997815
_cell_angle_gamma	60.000166
loop_
_atom_site_label
_atom_site_type_symbol
_atom_site_fract_x
_atom_site_fract_y
_atom_site_fract_z
Zr1	Zr	0.472352	0.527764	-0.093882
O2	O	0.397937	0.622646	-0.208086
O3	O	0.495155	0.428181	-0.058873
O4	O	0.499598	0.520974	-0.208093
O5	O	0.390001	0.536849	0.058843
O6	O	0.579800	0.520966	-0.208097
O7	O	0.393495	0.529853	-0.058866
O8	O	0.571853	0.354976	0.058830
O9	O	0.397947	0.702839	-0.208084
O10	O	0.564746	0.470876	-0.043944
O11	O	0.502284	0.476103	0.043904
O12	O	0.507514	0.585355	-0.131783
O13	O	0.445053	0.590582	-0.043936
Zr14	Zr	0.594693	0.538909	0.093843
Zr15	Zr	0.600265	0.527752	-0.093888
Zr16	Zr	0.466780	0.538922	0.093850
Zr17	Zr	0.472369	0.655662	-0.093879
Zr18	Zr	0.594677	0.411011	0.093841
O19	O	0.571890	0.638492	0.058835
O20	O	0.579813	0.622628	-0.208095
O21	O	0.390014	0.638510	0.058844
O22	O	0.669108	0.444027	0.208047
O23	O	0.677031	0.428163	-0.058883
O24	O	0.487232	0.444045	0.208057
O25	O	0.677044	0.529825	-0.058881
O26	O	0.567447	0.545699	0.208054
O27	O	0.487245	0.545707	0.208059
O28	O	0.673551	0.536820	0.058827
O29	O	0.499621	0.702829	-0.208090
O30	O	0.567424	0.363845	0.208051
O31	O	0.669098	0.363834	0.208046
O32	O	0.673527	0.354966	0.058824
O33	O	0.393518	0.711707	-0.058863
O34	O	0.495192	0.711697	-0.058868
O35	O	0.559531	0.481318	0.131745
O36	O	0.621992	0.476091	0.043897
O37	O	0.564761	0.590570	-0.043942
O38	O	0.502300	0.595797	0.043906
C39	C	0.533502	0.373356	-0.000022
C40	C	0.533495	0.319060	-0.000023
C41	C	0.373523	0.533353	-0.000011
C42	C	0.319220	0.533358	-0.000008
C43	C	0.566143	-0.020410	-0.045867
C44	C	0.566149	-0.071433	-0.045865
O45	O	0.593895	-0.100158	-0.084836
N46	N	0.533544	-0.094221	-0.000011
C47	C	0.500936	-0.065987	0.045851
O48	O	0.473205	-0.090056	0.084854
C49	C	0.500935	-0.014968	0.045853
C50	C	0.533537	0.007822	-0.000011
C51	C	0.598743	0.002380	-0.091727
C52	C	0.598737	0.053401	-0.091730
C53	C	0.566130	0.081632	-0.045874
C54	C	0.533531	0.058843	-0.000015
C55	C	0.468331	0.013262	0.091719
C56	C	0.468333	0.064285	0.091718
C57	C	0.500935	0.087074	0.045854
C58	C	0.500918	0.138096	0.045838
N59	N	0.533523	0.160884	-0.000016
C60	C	0.566129	0.132652	-0.045872
C61	C	0.500943	-0.173133	0.045844
C62	C	0.500941	-0.224148	0.045837
C63	C	0.566154	-0.229592	-0.045877
C64	C	0.566153	-0.178572	-0.045875
C65	C	0.533548	-0.150345	-0.000010
C66	C	0.566113	0.239801	-0.045877
C67	C	0.566101	0.290828	-0.045879
C68	C	0.500891	0.296265	0.045839
C69	C	0.500899	0.245244	0.045838
C70	C	0.533515	0.217011	-0.000022
O71	O	0.473188	0.166850	0.084792
O72	O	0.593862	0.156721	-0.084859
C73	C	-0.015552	0.529467	-0.064867
C74	C	-0.066570	0.529462	-0.064868
O75	O	-0.091309	0.526160	-0.119999
N76	N	-0.094013	0.533317	-0.000022
C77	C	-0.070432	0.537171	0.064833
O78	O	-0.098458	0.540449	0.119990
C79	C	-0.019412	0.537171	0.064837
C80	C	0.008025	0.533323	-0.000018
C81	C	0.011885	0.525618	-0.129716
C82	C	0.062899	0.525624	-0.129716
C83	C	0.086475	0.529480	-0.064868
C84	C	0.059038	0.533329	-0.000018
C85	C	0.004170	0.541020	0.129695
C86	C	0.055194	0.541019	0.129693
C87	C	0.082630	0.537171	0.064838
C88	C	0.133629	0.537190	0.064830
N89	N	0.161071	0.533335	-0.000015
C90	C	0.137495	0.529480	-0.064864
C91	C	-0.177575	0.537169	0.064822
C92	C	-0.228596	0.537174	0.064816
C93	C	-0.224730	0.529464	-0.064884
C94	C	-0.173711	0.529464	-0.064881
C95	C	-0.150132	0.533314	-0.000023
C96	C	0.244627	0.529494	-0.064860
C97	C	0.295644	0.529503	-0.064857
C98	C	0.291775	0.537209	0.064846
C99	C	0.240761	0.537204	0.064840
C100	C	0.217190	0.533343	-0.000017
O101	O	0.158402	0.540488	0.119935
O102	O	0.165531	0.526194	-0.120005
C103	C	0.693522	0.533320	-0.000028
C104	C	0.747825	0.533315	-0.000031
C105	C	0.540493	0.519381	-0.234843
C106	C	0.542858	0.514644	-0.314540
C107	C	0.533543	0.693317	-0.000016
C108	C	0.533550	0.747613	-0.000016
C109	C	0.547192	0.505992	-0.460472
C110	C	0.519855	0.560678	-0.539569
C111	C	0.522266	0.555864	-0.620771
C112	C	0.544781	0.510805	-0.379261
C113	C	0.526552	0.547293	0.234804
C114	C	0.524187	0.552029	0.314501
C115	C	0.693502	0.373340	-0.000031
C116	C	0.747797	0.319038	-0.000034
C117	C	0.526532	0.387312	0.234801
C118	C	0.524159	0.337752	0.314497
C119	C	0.686532	0.387296	0.234793
C120	C	0.738462	0.337731	0.314486
C121	C	0.380514	0.679377	-0.234831
C122	C	0.328584	0.728942	-0.314524
C123	C	0.373543	0.693333	-0.000008
C124	C	0.319248	0.747635	-0.000004
C125	C	0.540513	0.679361	-0.234840
C126	C	0.542886	0.728921	-0.314536
C127	C	0.743413	0.290815	-0.045896
C128	C	0.794425	0.239799	-0.045917
C129	C	0.849821	0.217004	-0.000071
C130	C	0.854204	0.245232	0.045792
C131	C	0.803192	0.296251	0.045808
C132	C	0.552927	0.317201	0.397784
C133	C	0.550695	0.270642	0.472674
C134	C	0.519699	0.244632	0.464275
C135	C	0.490928	0.265188	0.380980
C136	C	0.493156	0.311749	0.306092
C137	C	0.795458	0.311726	0.306055
C138	C	0.844257	0.265161	0.380928
C139	C	0.836058	0.244599	0.464231
C140	C	0.779055	0.270608	0.472660
C141	C	0.730258	0.317175	0.397788
C142	C	0.271587	0.754953	-0.306094
C143	C	0.222788	0.801534	-0.380966
C144	C	0.230987	0.822099	-0.464269
C145	C	0.287990	0.796087	-0.472699
C146	C	0.336787	0.749510	-0.397827
C147	C	0.323632	0.775863	0.045850
C148	C	0.272621	0.826891	0.045850
C149	C	0.217225	0.849688	0.000001
C150	C	0.212842	0.821458	-0.045858
C151	C	0.263853	0.770433	-0.045863
C152	C	0.573887	0.754917	-0.306110
C153	C	0.576128	0.801477	-0.380985
C154	C	0.547364	0.822043	-0.464286
C155	C	0.516361	0.796043	-0.472711
C156	C	0.514124	0.749480	-0.397836
H157	H	0.592650	0.309383	-0.083230
H158	H	0.383195	0.728332	-0.404702
H159	H	0.574127	0.253912	0.540488
H160	H	0.572404	0.455563	-0.453740
N161	N	0.259359	0.741608	-0.092708
N162	N	0.209893	0.761973	-0.133637
H163	H	0.206714	0.741618	-0.166725
H164	H	-0.018161	0.544154	0.182506
N165	N	0.220548	0.525547	-0.131100
N166	N	0.215618	0.478475	-0.110122
H167	H	0.198610	0.475691	-0.156906
N168	N	0.770684	0.249586	0.557754
N169	N	0.743410	0.222437	0.580099
H170	H	0.737498	0.207585	0.640198
H171	H	0.264900	0.738211	-0.238271
N172	N	0.789939	0.210958	-0.092745
N173	N	0.810243	0.150697	-0.052831
H174	H	0.807073	0.130327	-0.085901
N175	N	0.164561	0.828102	-0.372366
N176	N	0.130056	0.888859	-0.403900
H177	H	0.088933	0.907622	-0.397828
N178	N	0.599433	0.210972	-0.092721
N179	N	0.628535	0.231334	-0.133660
H180	H	0.652066	0.210977	-0.166749
N181	N	0.181132	0.869678	-0.540736
N182	N	0.130247	0.892893	-0.533186
H183	H	0.095034	0.926495	-0.587188
N184	N	0.517441	0.197062	0.540787
N185	N	0.563958	0.143334	0.594675
H186	H	0.562368	0.109736	0.648715
H187	H	0.698313	0.309374	-0.083241
H188	H	0.465691	0.244003	0.374156
N189	N	0.807675	0.325081	0.092652
N190	N	0.834879	0.352384	0.073210
H191	H	0.838049	0.372745	0.106295
H192	H	0.494638	0.611111	-0.546302
H193	H	-0.151374	0.526330	-0.117691
N194	N	0.885907	0.197016	0.540707
N195	N	0.893131	0.143278	0.594596
H196	H	0.928339	0.109670	0.648605
N197	N	0.901916	0.164837	-0.000015
N198	N	0.897985	0.139610	-0.040911
H199	H	0.934775	0.102744	-0.040840
H200	H	0.899313	0.226665	0.083119
H201	H	0.683851	0.338343	0.404665
N202	N	0.296349	0.817107	-0.557800
N203	N	0.252770	0.858692	-0.624635
H204	H	0.258672	0.873537	-0.684741
N205	N	0.584596	0.343755	0.406391
N206	N	0.610275	0.325394	0.480768
H207	H	0.632641	0.344146	0.486855
N208	N	0.380208	0.752589	0.092695
N209	N	0.384104	0.777809	0.133625
H210	H	0.424059	0.761377	0.166710
H211	H	0.469732	0.328475	0.238280
N212	N	0.803852	0.332714	0.220976
N213	N	0.854751	0.309484	0.213477
H214	H	0.860685	0.324305	0.153391
H215	H	0.890666	0.243989	0.374049
N216	N	0.277117	0.855715	0.092701
N217	N	0.326582	0.835346	0.133639
H218	H	0.329760	0.855700	0.166727
N219	N	0.165128	0.901812	0.000017
N220	N	0.169057	0.927005	0.040967
H221	H	0.132265	0.963817	0.040982
H222	H	0.317980	0.526370	-0.117672
N223	N	0.482452	0.722936	-0.406466
N224	N	0.456773	0.741310	-0.480851
H225	H	0.434402	0.722566	-0.486953
H226	H	0.167733	0.840027	-0.083187
H227	H	0.625298	-0.020604	-0.129067
N228	N	0.603276	0.733922	-0.221032
N229	N	0.630956	0.757141	-0.213538
H230	H	0.651716	0.742314	-0.153454
H231	H	0.441784	-0.005285	0.129068
N232	N	0.607801	0.828022	-0.372352
N233	N	0.633473	0.809656	-0.297968
H234	H	0.655842	0.828402	-0.291868
H235	H	0.549189	0.859958	-0.525247
H236	H	0.310978	0.540351	0.117643
N237	N	0.486985	0.817060	-0.557810
N238	N	0.488989	0.858637	-0.624648
H239	H	0.468241	0.873485	-0.684752
H240	H	0.592700	-0.160020	-0.083221
N241	N	0.632047	0.076663	-0.138577
N242	N	0.661159	0.051439	-0.179507
H243	H	0.684689	0.067862	-0.212591
H244	H	0.474386	-0.242692	0.083173
N245	N	0.599474	-0.258450	-0.092698
N246	N	0.653982	-0.285766	-0.073253
H247	H	0.677513	-0.306149	-0.106317
N248	N	0.467630	-0.144306	0.092698
N249	N	0.438524	-0.164664	0.133633
H250	H	0.414997	-0.144309	0.166726
N251	N	0.435016	0.093116	0.138565
N252	N	0.380511	0.120417	0.119127
H253	H	0.356979	0.140778	0.152211
N254	N	0.467586	0.221978	0.092676
N255	N	0.438472	0.247197	0.133610
H256	H	0.414947	0.230766	0.166696
H257	H	0.085236	0.522488	-0.182525
N258	N	0.467590	0.325115	0.092674
N259	N	0.467597	0.370666	0.092665
H260	H	0.444082	0.391040	0.125748
N261	N	-0.012185	0.521667	-0.195956
N262	N	0.017917	0.472877	-0.203919
H263	H	0.000920	0.470088	-0.250707
N264	N	-0.248823	0.525519	-0.131117
N265	N	-0.294372	0.525512	-0.131097
H266	H	-0.311388	0.522724	-0.177868
H267	H	-0.158383	0.540310	0.117636
N268	N	-0.256619	0.541121	0.131058
N269	N	-0.235558	0.544567	0.188947
H270	H	-0.255346	0.547353	0.235736
N271	N	0.079272	0.544948	0.195956
N272	N	0.054766	0.548381	0.253853
H273	H	0.071770	0.551156	0.300651
H274	H	0.218417	0.540347	0.117643
