data_functionalizedCrystal
_audit_creation_method	'MofGen! by Chris Wilmer'
_symmetry_space_group_name_H-M	'P1'
_symmetry_Int_Tables_number	1
_symmetry_cell_setting	triclinic
loop_
_symmetry_equiv_pos_as_xyz
  x,y,z
_cell_length_a	17.699083
_cell_length_b	13.339070
_cell_length_c	16.176319
_cell_angle_alpha	89.996815
_cell_angle_beta	89.998611
_cell_angle_gamma	99.456154
loop_
_atom_site_label
_atom_site_type_symbol
_atom_site_fract_x
_atom_site_fract_y
_atom_site_fract_z
O1	O	1.031106	0.127864	-0.068625
O2	O	0.814244	0.144499	-0.068651
O3	O	0.897786	-0.011021	-0.068639
O4	O	0.947564	0.283384	-0.068637
O5	O	0.897768	-0.011031	0.068855
O6	O	0.814226	0.144489	0.068842
O7	O	1.031088	0.127854	0.068868
Cu8	Cu	0.922655	0.136171	0.081409
Cu9	Cu	0.922677	0.136182	-0.081192
O10	O	0.947546	0.283374	0.068856
C11	C	0.785912	0.143898	0.000092
C12	C	0.701516	0.142110	0.000082
C13	C	0.672191	0.233397	0.000082
C14	C	0.592891	0.231710	0.000093
C15	C	0.542918	0.138736	0.000097
C16	C	0.572248	0.047442	0.000099
C17	C	0.651546	0.049129	0.000094
C18	C	0.252446	0.040635	0.000119
C19	C	0.173143	0.038955	0.000122
C20	C	0.193791	0.223216	0.000118
C21	C	0.273089	0.224904	0.000113
C22	C	0.302412	0.133610	0.000120
C23	C	0.388398	0.135440	0.000110
C24	C	0.456933	0.136906	0.000101
C25	C	0.889369	-0.048694	0.000106
C26	C	0.864305	-0.160935	0.000100
C27	C	1.059185	-0.526207	0.000124
C28	C	1.082736	-0.420752	0.000134
C29	C	1.028130	-0.355792	0.000125
C30	C	0.949970	-0.396298	0.000106
C31	C	0.926417	-0.501763	0.000102
C32	C	0.895362	-0.331349	0.000104
C33	C	0.817202	-0.371855	0.000085
C34	C	0.793652	-0.477310	0.000080
C35	C	0.848258	-0.542269	0.000089
C36	C	0.918915	-0.225884	0.000108
C37	C	0.786147	-0.201441	0.000086
C38	C	0.762596	-0.306895	0.000076
C39	C	1.059420	0.128455	0.000123
C40	C	1.143816	0.130243	0.000128
C41	C	0.955963	0.321047	0.000110
C42	C	0.981027	0.433288	0.000110
N43	N	0.922646	0.136162	0.195775
N44	N	0.922691	0.136183	-0.195557
C45	C	0.959660	0.067326	0.239044
C46	C	0.959663	0.067324	0.325592
C47	C	0.922657	0.136165	0.368867
C48	C	0.885638	0.205005	0.325591
C49	C	0.885631	0.205000	0.239046
C50	C	0.885668	0.205024	0.674620
C51	C	0.885681	0.205025	0.761171
C52	C	0.959701	0.067348	0.761165
C53	C	0.959693	0.067343	0.674620
C54	C	0.922671	0.136179	0.631352
C55	C	0.922667	0.136178	0.537507
C56	C	0.922666	0.136172	0.462710
H57	H	0.675420	-0.025206	0.000093
N58	N	0.326989	0.325182	0.000098
H59	H	0.296378	0.382758	0.000099
H60	H	0.360344	0.329895	0.051064
N61	N	0.999579	-0.006919	0.192371
H62	H	1.023027	-0.050527	0.232919
H63	H	0.961228	-0.051573	0.156470
H64	H	0.569019	0.306046	0.000093
H65	H	0.855544	0.261085	0.796405
N66	N	0.162175	0.321695	0.000140
H67	H	0.180485	0.362276	-0.050827
H68	H	0.104361	0.306453	0.000184
H69	H	0.741682	-0.148550	0.000083
N70	N	0.284064	-0.057828	0.000106
H71	H	0.341882	-0.042659	0.000104
H72	H	0.265695	-0.098365	0.051074
N73	N	0.845753	0.279272	0.627951
H74	H	0.804138	0.240689	0.592052
H75	H	0.822362	0.322871	0.668546
N76	N	0.999597	-0.006900	0.372271
H77	H	1.041201	0.031707	0.408170
H78	H	0.961243	-0.051604	0.408143
N79	N	1.118069	-0.596275	0.000144
H80	H	1.111264	-0.640574	-0.050823
H81	H	1.171131	-0.554551	0.000187
N82	N	0.678296	-0.350583	0.000069
H83	H	0.653378	-0.326883	-0.050903
H84	H	0.671728	-0.427240	0.000100
N85	N	0.999610	-0.006901	0.627944
H86	H	1.023059	-0.050512	0.668488
H87	H	0.961257	-0.051553	0.592043
H88	H	0.132455	-0.036760	0.000126
N89	N	0.999632	-0.006901	0.807833
H90	H	0.994022	0.003541	0.869226
H91	H	0.975835	-0.078617	0.792710
H92	H	0.531553	-0.028259	0.000114
H93	H	0.855503	0.261053	0.360832
H94	H	0.982554	-0.192915	0.000124
H95	H	1.047310	-0.269927	0.000134
N96	N	0.845704	0.279239	0.192372
H97	H	0.822262	0.322851	0.232918
H98	H	0.884046	0.323891	0.156453
H99	H	0.712875	0.309107	0.000078
H100	H	1.146374	-0.387780	0.000151
N101	N	0.822855	-0.656013	0.000076
H102	H	0.869309	-0.691013	0.000080
H103	H	0.791096	-0.676539	0.051042
N104	N	0.709351	-0.520988	0.000078
H105	H	0.684433	-0.497287	-0.050893
H106	H	0.702775	-0.597645	0.000113
