data_functionalizedCrystal
_audit_creation_method	'MofGen! by Chris Wilmer'
_symmetry_space_group_name_H-M	'P1'
_symmetry_Int_Tables_number	1
_symmetry_cell_setting	triclinic
loop_
_symmetry_equiv_pos_as_xyz
  x,y,z
_cell_length_a	12.827893
_cell_length_b	17.640280
_cell_length_c	12.827885
_cell_angle_alpha	78.769218
_cell_angle_beta	89.980538
_cell_angle_gamma	78.800662
loop_
_atom_site_label
_atom_site_type_symbol
_atom_site_fract_x
_atom_site_fract_y
_atom_site_fract_z
Zn1	Zn	1.681788	-0.314632	-0.506827
Zn2	Zn	1.717024	-0.446826	-0.296785
Zn3	Zn	1.507039	-0.314670	-0.332090
Zn4	Zn	1.542341	-0.446767	-0.471501
O5	O	1.612048	-0.380724	-0.401801
O6	O	1.832701	-0.332176	-0.478973
O7	O	1.689141	-0.429336	-0.155221
O8	O	1.500700	-0.204058	-0.384829
O9	O	1.858588	-0.429298	-0.324656
O10	O	1.629087	-0.204030	-0.513207
O11	O	1.534866	-0.332242	-0.181160
O12	O	1.365484	-0.332185	-0.350575
O13	O	1.560867	-0.429198	-0.622434
O14	O	1.391420	-0.429235	-0.452999
O15	O	1.663318	-0.332119	-0.648388
O16	O	1.723372	-0.557424	-0.290402
O17	O	1.595033	-0.557381	-0.418765
C18	C	1.340534	-0.380708	-0.401785
C19	C	1.224384	-0.380721	-0.401798
C20	C	1.185481	-0.428820	-0.452363
C21	C	1.065435	-0.428834	-0.452377
C22	C	1.666885	-0.586082	-0.346942
C23	C	1.690440	-0.673935	-0.323508
C24	C	1.433531	-0.962898	-0.580206
C25	C	1.455667	-1.045449	-0.558153
C26	C	1.589389	-1.045429	-0.424624
C27	C	1.567268	-0.962876	-0.446669
C28	C	1.489337	-0.921617	-0.524461
C29	C	1.623074	-0.921595	-0.390924
C30	C	1.600950	-0.839049	-0.412964
C31	C	1.523021	-0.797784	-0.490750
C32	C	1.467214	-0.839071	-0.546501
C33	C	1.700999	-0.962855	-0.313128
C34	C	1.756805	-0.921574	-0.257382
C35	C	1.734687	-0.839027	-0.279427
C36	C	1.656758	-0.797762	-0.357213
C37	C	1.790494	-0.797740	-0.223676
C38	C	1.768371	-0.715194	-0.245716
C39	C	1.634634	-0.715216	-0.379253
C40	C	1.884622	-0.380739	-0.401817
C41	C	2.000777	-0.380746	-0.401824
C42	C	1.612100	-0.380648	-0.674391
C43	C	1.612122	-0.380615	-0.790553
C44	C	1.557025	-0.174563	-0.456897
C45	C	1.533578	-0.086710	-0.480375
C46	C	1.535800	-0.332561	-0.855176
C47	C	1.535821	-0.332526	-0.975235
C48	C	1.612041	-0.380742	-0.130286
C49	C	1.612162	-0.380552	-0.014184
H50	H	1.168816	-0.339549	-0.358523
Br51	Br	1.426913	-0.263943	-1.067775
H52	H	1.031930	-0.470015	-0.495664
Br53	Br	1.426870	-0.264017	-0.799259
H54	H	1.571183	-0.681621	-0.442607
Br55	Br	1.056607	-0.312111	-0.329653
Br56	Br	1.695149	-1.101430	-0.319054
Br57	Br	1.493258	-0.685756	-0.520930
H58	H	1.677511	-0.421692	-0.958666
Br59	Br	1.379905	-1.101472	-0.633800
H60	H	1.813813	-0.681583	-0.200321
Br61	Br	1.721056	-0.449155	-0.846471
H62	H	1.403762	-0.805476	-0.609854
Br63	Br	1.278088	-0.497444	-0.524499
Br64	Br	1.862565	-0.977575	-0.151813
H65	H	1.719011	-1.030069	-0.295188
Br66	Br	1.327780	-0.906896	-0.685795
H67	H	1.853938	-0.831345	-0.160332
