data_functionalizedCrystal
_audit_creation_method	'MofGen! by Chris Wilmer'
_symmetry_space_group_name_H-M	'P1'
_symmetry_Int_Tables_number	1
_symmetry_cell_setting	triclinic
loop_
_symmetry_equiv_pos_as_xyz
  x,y,z
_cell_length_a	19.288864
_cell_length_b	19.288865
_cell_length_c	17.766277
_cell_angle_alpha	90.011603
_cell_angle_beta	90.023209
_cell_angle_gamma	83.136245
loop_
_atom_site_label
_atom_site_type_symbol
_atom_site_fract_x
_atom_site_fract_y
_atom_site_fract_z
O1	O	-0.921353	-0.086649	-0.062844
O2	O	-0.719092	-0.098337	-0.062794
O3	O	-0.826067	0.008637	-0.062806
O4	O	-0.814378	-0.193623	-0.062832
O5	O	-0.826048	0.008643	0.062383
O6	O	-0.719074	-0.098332	0.062395
O7	O	-0.921334	-0.086643	0.062344
Cu8	Cu	-0.820202	-0.092487	0.073800
Cu9	Cu	-0.820224	-0.092494	-0.074250
O10	O	-0.814360	-0.193618	0.062356
C11	C	-0.693207	-0.097959	-0.000193
C12	C	-0.616103	-0.096830	-0.000173
C13	C	-0.825682	0.034516	-0.000209
C14	C	-0.824553	0.111620	-0.000202
C15	C	-0.947220	-0.087022	-0.000258
C16	C	-1.024324	-0.088151	-0.000283
C17	C	-0.814745	-0.219497	-0.000242
C18	C	-0.815874	-0.296601	-0.000254
C19	C	-0.571407	-0.159598	-0.000193
C20	C	-0.498960	-0.158537	-0.000201
C21	C	-0.471212	-0.094705	-0.000205
C22	C	-0.515918	-0.031929	-0.000180
C23	C	-0.588364	-0.032991	-0.000164
C24	C	-0.362957	-0.044527	-0.044082
C25	C	-0.290512	-0.043468	-0.044103
C26	C	-0.247767	-0.091425	-0.000250
C27	C	-0.277473	-0.140454	0.043614
C28	C	-0.349918	-0.141517	0.043630
C29	C	-0.392658	-0.093546	-0.000221
C30	C	-0.124514	-0.153047	-0.000278
C31	C	-0.052066	-0.151984	-0.000281
C32	C	-0.069026	-0.025374	-0.000267
C33	C	-0.141473	-0.026439	-0.000256
C34	C	-0.169212	-0.090278	-0.000265
C35	C	-0.887321	0.156316	-0.000214
C36	C	-0.886260	0.228763	-0.000226
C37	C	-0.822428	0.256511	-0.000210
C38	C	-0.759652	0.211805	-0.000203
C39	C	-0.760714	0.139359	-0.000198
C40	C	-0.772242	0.364800	0.043653
C41	C	-0.771182	0.437245	0.043654
C42	C	-0.819148	0.479956	-0.000226
C43	C	-0.868186	0.450216	-0.044097
C44	C	-0.869249	0.377771	-0.044093
C45	C	-0.821269	0.335065	-0.000215
C46	C	-0.880770	0.603209	-0.000252
C47	C	-0.879707	0.675657	-0.000268
C48	C	-0.753097	0.658697	-0.000238
C49	C	-0.754162	0.586250	-0.000229
C50	C	-0.818001	0.558511	-0.000232
N51	N	-0.820192	-0.092482	0.177931
N52	N	-0.820241	-0.092493	-0.178380
C53	C	-0.867575	-0.045137	0.217312
C54	C	-0.867579	-0.045134	0.296114
C55	C	-0.820206	-0.092488	0.335531
C56	C	-0.772814	-0.139837	0.296140
C57	C	-0.772807	-0.139834	0.217340
C58	C	-0.810908	-0.155775	0.460362
C59	C	-0.810920	-0.155779	0.539161
C60	C	-0.820225	-0.092496	0.578577
C61	C	-0.829533	-0.029207	0.539185
C62	C	-0.829525	-0.029204	0.460385
C63	C	-0.820209	-0.092496	0.420977
C64	C	-0.867616	-0.045143	0.703405
C65	C	-0.867615	-0.045139	0.782208
C66	C	-0.772853	-0.139848	0.782233
C67	C	-0.772850	-0.139846	0.703431
C68	C	-0.820235	-0.092495	0.664022
H69	H	-0.593987	-0.211580	-0.000202
F70	F	-0.231985	-0.191499	0.090289
H71	H	-0.734269	-0.178402	0.671364
H72	H	-0.906158	-0.006579	0.185228
H73	H	-0.709599	0.102967	-0.000188
H74	H	-0.374102	-0.181436	0.079347
H75	H	-0.147101	-0.205028	-0.000274
F76	F	-0.635935	0.033818	-0.000143
H77	H	-0.266331	-0.003548	-0.079822
H78	H	-0.803318	-0.207311	0.428276
F79	F	-0.451382	-0.225346	-0.000221
F80	F	-0.921434	0.346122	-0.090785
H81	H	-0.015674	-0.203099	-0.000293
F82	F	-0.946517	0.723227	-0.000286
F83	F	-0.039500	0.042562	-0.000263
H84	H	-0.177866	0.024674	-0.000244
H85	H	-0.907245	0.484991	-0.079829
F86	F	-0.408444	0.006520	-0.090759
F87	F	-0.722394	-0.190232	0.338091
F88	F	-0.722430	-0.190242	0.824179
F89	F	-0.718994	0.468890	0.090347
F90	F	-0.918014	0.005260	0.338034
H91	H	-0.932751	0.580622	-0.000258
H92	H	-0.707679	0.234401	-0.000192
F93	F	-0.953069	0.276341	-0.000239
H94	H	-0.906198	-0.006581	0.814274
H95	H	-0.493322	0.020044	-0.000193
F96	F	-0.685161	0.688223	-0.000225
F97	F	-0.839426	0.038151	0.418464
F98	F	-0.955264	0.126798	-0.000234
H99	H	-0.906198	-0.006585	0.671317
H100	H	-0.734220	-0.178389	0.185274
F101	F	-0.687355	0.538679	-0.000213
F102	F	-0.839441	0.038149	0.581129
H103	H	-0.733180	0.330029	0.079389
F104	F	-0.801018	-0.223136	0.581078
