data_functionalizedCrystal
_audit_creation_method	'MofGen! by Chris Wilmer'
_symmetry_space_group_name_H-M	'P1'
_symmetry_Int_Tables_number	1
_symmetry_cell_setting	triclinic
loop_
_symmetry_equiv_pos_as_xyz
  x,y,z
_cell_length_a	18.215407
_cell_length_b	19.121449
_cell_length_c	18.215399
_cell_angle_alpha	92.467880
_cell_angle_beta	90.017368
_cell_angle_gamma	87.582680
loop_
_atom_site_label
_atom_site_type_symbol
_atom_site_fract_x
_atom_site_fract_y
_atom_site_fract_z
Zn1	Zn	1.137565	-0.279665	0.403573
Zn2	Zn	1.637565	0.220335	0.903573
Zn3	Zn	1.142720	-0.397118	0.275259
Zn4	Zn	1.642720	0.102882	0.775259
Zn5	Zn	1.014498	-0.279682	0.280525
Zn6	Zn	1.514498	0.220318	0.780525
Zn7	Zn	1.019708	-0.397073	0.398292
Zn8	Zn	1.519708	0.102927	0.898292
O9	O	1.078623	-0.338384	0.339412
O10	O	1.578623	0.161616	0.839412
O11	O	1.241233	-0.295257	0.386559
O12	O	1.741233	0.204743	0.886559
O13	O	1.125688	-0.381566	0.172972
O14	O	1.625688	0.118434	0.672972
O15	O	1.026485	-0.181396	0.301261
O16	O	1.526485	0.318604	0.801261
O17	O	1.245021	-0.381550	0.292287
O18	O	1.745021	0.118450	0.792287
O19	O	1.116902	-0.181384	0.391664
O20	O	1.616902	0.318616	0.891664
O21	O	1.031484	-0.295286	0.176841
O22	O	1.531484	0.204714	0.676841
O23	O	0.912204	-0.295242	0.296140
O24	O	1.412204	0.204758	0.796140
O25	O	1.035365	-0.381472	0.501978
O26	O	1.535365	0.118528	1.001978
O27	O	0.916032	-0.381489	0.382663
O28	O	1.416032	0.118511	0.882663
O29	O	1.121954	-0.295213	0.505858
O30	O	1.621954	0.204787	1.005858
O31	O	1.130740	-0.495395	0.287166
O32	O	1.630740	0.004605	0.787166
O33	O	1.040363	-0.495362	0.377557
O34	O	1.540363	0.004638	0.877557
C35	C	0.887415	-0.338363	0.339400
C36	C	1.387415	0.161637	0.839400
C37	C	0.805617	-0.338370	0.339412
C38	C	1.305617	0.161630	0.839412
C39	C	1.086696	-0.520862	0.331233
C40	C	1.586696	-0.020862	0.831233
C41	C	1.090217	-0.598927	0.327759
C42	C	1.590217	-0.098927	0.827759
C43	C	0.615454	-0.293531	0.388569
C44	C	1.115454	0.206469	0.888569
C45	C	0.538595	-0.293537	0.388571
C46	C	1.038595	0.206463	0.888571
C47	C	0.542544	-0.383258	0.290267
C48	C	1.042544	0.116742	0.790267
C49	C	0.619401	-0.383248	0.290262
C50	C	1.119401	0.116752	0.790262
C51	C	0.655854	-0.338385	0.339417
C52	C	1.155854	0.161615	0.839417
C53	C	0.502139	-0.338401	0.339425
C54	C	1.002139	0.161599	0.839425
C55	C	0.418805	-0.338408	0.339427
C56	C	0.918805	0.161592	0.839427
C57	C	0.739193	-0.338377	0.339414
C58	C	1.239193	0.161623	0.839414
C59	C	1.044785	-0.635610	0.373149
C60	C	1.544785	-0.135610	0.873149
C61	C	1.048097	-0.708961	0.369882
C62	C	1.548097	-0.208961	0.869882
C63	C	1.096845	-0.745626	0.321226
C64	C	1.596845	-0.245626	0.821226
C65	C	1.142279	-0.708938	0.275831
C66	C	1.642279	-0.208938	0.775831
C67	C	1.138963	-0.635589	0.279095
C68	C	1.638963	-0.135589	0.779095
C69	C	1.109210	-0.967092	0.309014
C70	C	1.609210	-0.467092	0.809014
C71	C	1.112524	-1.040446	0.305755
C72	C	1.612524	-0.540446	0.805755
C73	C	1.018341	-1.040464	0.399805
C74	C	1.518341	-0.540464	0.899805
C75	C	1.015032	-0.967113	0.403068
C76	C	1.515032	-0.467113	0.903068
C77	C	1.060463	-0.930431	0.357670
C78	C	1.560463	-0.430431	0.857670
C79	C	1.100233	-0.820602	0.317887
C80	C	1.600233	-0.320602	0.817887
C81	C	1.057071	-0.855457	0.361006
C82	C	1.557071	-0.355457	0.861006
C83	C	1.270576	-0.338407	0.339425
C84	C	1.770576	0.161593	0.839425
C85	C	1.352376	-0.338416	0.339430
C86	C	1.852376	0.161584	0.839430
C87	C	1.078665	-0.338336	0.531367
C88	C	1.578665	0.161664	1.031367
C89	C	1.078683	-0.338315	0.613167
C90	C	1.578683	0.161685	1.113167
C91	C	1.070537	-0.155194	0.347639
C92	C	1.570537	0.344806	0.847639
C93	C	1.067092	-0.077129	0.351145
C94	C	1.567092	0.422871	0.851145
C95	C	1.078620	-0.338382	0.148206
C96	C	1.578620	0.161618	0.648206
C97	C	1.078736	-0.338205	0.066416
C98	C	1.578736	0.161795	0.566416
C99	C	1.123785	-0.293358	0.803385
C100	C	1.623785	0.206642	1.303385
C101	C	1.123793	-0.293338	0.880244
C102	C	1.623793	0.206662	1.380244
C103	C	1.033629	-0.383164	0.876192
C104	C	1.533629	0.116836	1.376192
C105	C	1.033617	-0.383180	0.799334
C106	C	1.533617	0.116820	1.299334
C107	C	1.078700	-0.338278	0.762932
C108	C	1.578700	0.161722	1.262932
C109	C	1.078719	-0.338242	0.916650
C110	C	1.578719	0.161758	1.416650
C111	C	1.078727	-0.338220	0.999985
C112	C	1.578727	0.161780	1.499985
C113	C	1.078691	-0.338299	0.679593
C114	C	1.578691	0.161701	1.179593
H115	H	0.505705	-0.257010	0.428595
H116	H	1.005705	0.242990	0.928595
H117	H	0.512855	-0.419784	0.250247
H118	H	1.012855	0.080216	0.750247
H119	H	0.645131	-0.256998	0.428592
H120	H	1.145131	0.243002	0.928592
H121	H	1.160492	-0.256794	0.773749
H122	H	1.660492	0.243206	1.273749
H123	H	0.652296	-0.419775	0.250232
H124	H	1.152296	0.080225	0.750232
O125	O	0.997370	-0.600105	0.420435
O126	O	1.497370	-0.100105	0.920435
C127	C	0.957995	-0.648215	0.459811
C128	C	1.457995	-0.148215	0.959811
H129	H	0.957826	-0.700521	0.427334
H130	H	1.457826	-0.200521	0.927334
H131	H	0.985266	-0.655962	0.515380
H132	H	1.485266	-0.155962	1.015380
C133	C	0.878581	-0.555407	0.511514
C134	C	1.378581	-0.055407	1.011514
C135	C	0.878368	-0.619648	0.471623
C136	C	1.378368	-0.119648	0.971623
H137	H	0.829464	-0.537785	0.518804
H138	H	1.329464	-0.037785	1.018804
H139	H	0.905109	-0.522994	0.484989
H140	H	1.405109	-0.022994	0.984989
H141	H	0.901310	-0.561871	0.557818
H142	H	1.401310	-0.061871	1.057818
H143	H	0.855647	-0.613182	0.425317
H144	H	1.355647	-0.113182	0.925317
H145	H	0.851833	-0.652060	0.498141
H146	H	1.351833	-0.152060	0.998141
H147	H	1.011095	-0.738825	0.406837
H148	H	1.511095	-0.238825	0.906837
H149	H	0.975338	-0.937262	0.442687
H150	H	1.475338	-0.437262	0.942687
H151	H	1.139925	-0.850463	0.278272
H152	H	1.639925	-0.350463	0.778272
H153	H	0.981353	-1.070338	0.436765
H154	H	1.481353	-0.570338	0.936765
O155	O	1.167481	-0.249626	0.919574
O156	O	1.667481	0.250374	1.419574
C157	C	1.123584	-0.204258	0.966073
C158	C	1.623584	0.295742	1.466073
H159	H	1.065427	-0.199924	0.943097
H160	H	1.565427	0.300076	1.443097
H161	H	1.122017	-0.225955	1.023348
H162	H	1.622017	0.274045	1.523348
C163	C	1.227740	-0.136571	0.998752
C164	C	1.727740	0.363429	1.498752
C165	C	1.156312	-0.131243	0.970529
C166	C	1.656312	0.368757	1.470529
H167	H	1.247930	-0.091532	1.001504
H168	H	1.747930	0.408468	1.501504
H169	H	1.257315	-0.167137	0.967427
H170	H	1.757315	0.332863	1.467427
H171	H	1.226425	-0.154654	1.046479
H172	H	1.726425	0.345346	1.546479
H173	H	1.157630	-0.113168	0.922800
H174	H	1.657630	0.386832	1.422800
H175	H	1.126738	-0.100672	1.001846
H176	H	1.626738	0.399328	1.501846
H177	H	1.146203	-0.937231	0.272050
H178	H	1.646203	-0.437231	0.772050
H179	H	1.152225	-1.070297	0.266134
H180	H	1.652225	-0.570297	0.766134
O181	O	1.189703	-0.744589	0.228665
O182	O	1.689703	-0.244589	0.728665
C183	C	1.239117	-0.786969	0.268710
C184	C	1.739117	-0.286969	0.768710
H185	H	1.242644	-0.764824	0.327660
H186	H	1.742644	-0.264824	0.827660
H187	H	1.218866	-0.842573	0.268757
H188	H	1.718866	-0.342573	0.768757
C189	C	1.311352	-0.815264	0.160356
C190	C	1.811352	-0.315264	0.660356
C191	C	1.315689	-0.788061	0.232758
C192	C	1.815689	-0.288061	0.732758
H193	H	1.358585	-0.815941	0.138178
H194	H	1.858585	-0.315941	0.638178
H195	H	1.278060	-0.786714	0.133375
H196	H	1.778060	-0.286714	0.633375
H197	H	1.294474	-0.861599	0.160405
H198	H	1.794474	-0.361599	0.660405
H199	H	1.332558	-0.741725	0.232707
H200	H	1.832558	-0.241725	0.732707
H201	H	1.348986	-0.816604	0.259737
H202	H	1.848986	-0.316604	0.759737
O203	O	0.989884	-0.426881	0.911470
O204	O	1.489884	0.073119	1.411470
C205	C	1.009070	-0.496886	0.889558
C206	C	1.509070	0.003114	1.389558
H207	H	1.037414	-0.498355	0.833691
H208	H	1.537414	0.001645	1.333691
H209	H	1.047959	-0.520535	0.931755
H210	H	1.547959	-0.020535	1.431755
C211	C	0.904391	-0.537622	0.952702
C212	C	1.404391	-0.037622	1.452702
C213	C	0.939199	-0.539426	0.884083
C214	C	1.439199	-0.039426	1.384083
H215	H	0.861293	-0.563864	0.949328
H216	H	1.361293	-0.063864	1.449328
H217	H	0.891467	-0.490458	0.967468
H218	H	1.391467	0.009542	1.467468
H219	H	0.936807	-0.557328	0.987859
H220	H	1.436807	-0.057328	1.487859
H221	H	0.906787	-0.519712	0.848929
H222	H	1.406787	-0.019712	1.348929
H223	H	0.952117	-0.586588	0.869311
H224	H	1.452117	-0.086588	1.369311
O225	O	1.183170	-0.600061	0.234974
O226	O	1.683170	-0.100061	0.734974
C227	C	1.226894	-0.648149	0.191316
C228	C	1.726894	-0.148149	0.691316
H229	H	1.231792	-0.700413	0.219137
H230	H	1.731792	-0.200413	0.719137
H231	H	1.200327	-0.656011	0.135052
H232	H	1.700327	-0.156011	0.635052
C233	C	1.297909	-0.555268	0.147876
C234	C	1.797909	-0.055268	0.647876
C235	C	1.303931	-0.619457	0.182050
C236	C	1.803931	-0.119457	0.682050
H237	H	1.345429	-0.537569	0.142157
H238	H	1.845429	-0.037569	0.642157
H239	H	1.268450	-0.522869	0.177287
H240	H	1.768450	-0.022869	0.677287
H241	H	1.275768	-0.561828	0.100993
H242	H	1.775768	-0.061828	0.600993
H243	H	1.326063	-0.612895	0.228935
H244	H	1.826063	-0.112895	0.728935
H245	H	1.333396	-0.651855	0.152647
H246	H	1.833396	-0.151855	0.652647
O247	O	0.989924	-0.426854	0.759951
O248	O	1.489924	0.073146	1.259951
C249	C	1.033823	-0.472239	0.713472
C250	C	1.533823	0.027761	1.213472
H251	H	1.088499	-0.447475	0.703083
H252	H	1.588499	0.052525	1.203083
H253	H	1.044210	-0.524283	0.740751
H254	H	1.544210	-0.024283	1.240751
C255	C	0.926730	-0.515378	0.652645
C256	C	1.426730	-0.015378	1.152645
C257	C	0.993883	-0.484960	0.639880
C258	C	1.493883	0.015040	1.139880
H259	H	0.902093	-0.523229	0.607251
H260	H	1.402093	-0.023229	1.107251
H261	H	0.897154	-0.484804	0.683960
H262	H	1.397154	0.015196	1.183960
H263	H	0.935396	-0.558745	0.675379
H264	H	1.435396	-0.058745	1.175379
H265	H	0.985215	-0.441590	0.617155
H266	H	1.485215	0.058410	1.117155
H267	H	1.023457	-0.515528	0.608559
H268	H	1.523457	-0.015528	1.108559
H269	H	1.017378	-0.825602	0.400618
H270	H	1.517378	-0.325602	0.900618
