data_functionalizedCrystal
_audit_creation_method	'MofGen! by Chris Wilmer'
_symmetry_space_group_name_H-M	'P1'
_symmetry_Int_Tables_number	1
_symmetry_cell_setting	triclinic
loop_
_symmetry_equiv_pos_as_xyz
  x,y,z
_cell_length_a	19.077105
_cell_length_b	12.594516
_cell_length_c	19.076919
_cell_angle_alpha	87.723714
_cell_angle_beta	89.923776
_cell_angle_gamma	87.714716
loop_
_atom_site_label
_atom_site_type_symbol
_atom_site_fract_x
_atom_site_fract_y
_atom_site_fract_z
Zn1	Zn	1.058307	-0.514929	0.440445
Zn2	Zn	1.558307	-0.014929	0.940445
Zn3	Zn	1.062959	-0.686068	0.322947
Zn4	Zn	1.562959	-0.186068	0.822947
Zn5	Zn	0.945523	-0.500671	0.318237
Zn6	Zn	1.445523	-0.000671	0.818237
Zn7	Zn	0.940780	-0.685426	0.435699
Zn8	Zn	1.440780	-0.185426	0.935699
O9	O	1.001892	-0.596773	0.379332
O10	O	1.501892	-0.096773	0.879332
O11	O	1.157256	-0.543867	0.428815
O12	O	1.657256	-0.043867	0.928815
O13	O	1.051312	-0.655776	0.223990
O14	O	1.551312	-0.155776	0.723990
O15	O	0.960523	-0.353620	0.334463
O16	O	1.460523	0.146380	0.834463
O17	O	1.160674	-0.669602	0.342490
O18	O	1.660674	-0.169602	0.842490
O19	O	1.043384	-0.364095	0.424249
O20	O	1.543384	0.135905	0.924249
O21	O	0.965033	-0.519565	0.220530
O22	O	1.465033	-0.019565	0.720530
O23	O	0.846562	-0.518943	0.329862
O24	O	1.346562	-0.018943	0.829862
O25	O	0.952438	-0.668508	0.534660
O26	O	1.452438	-0.168508	1.034660
O27	O	0.843077	-0.654682	0.416161
O28	O	1.343077	-0.154682	0.916161
O29	O	1.038785	-0.543245	0.538147
O30	O	1.538785	-0.043245	1.038147
O31	O	1.046713	-0.834925	0.337889
O32	O	1.546713	-0.334925	0.837889
O33	O	0.956949	-0.834453	0.420727
O34	O	1.456949	-0.334453	0.920727
C35	C	0.819323	-0.585196	0.371986
C36	C	1.319323	-0.085196	0.871986
C37	C	0.741219	-0.580270	0.368860
C38	C	1.241219	-0.080270	0.868860
C39	C	1.001840	-0.873311	0.379320
C40	C	1.501840	-0.373311	0.879320
C41	C	1.001881	-0.991620	0.379341
C42	C	1.501881	-0.491620	0.879341
C43	C	0.702732	-0.648726	0.412252
C44	C	1.202732	-0.148726	0.912252
C45	C	0.629344	-0.644084	0.409318
C46	C	1.129344	-0.144084	0.909318
C47	C	0.594445	-0.570990	0.362988
C48	C	1.094445	-0.070990	0.862988
C49	C	0.632937	-0.502526	0.319594
C50	C	1.132937	-0.002526	0.819594
C51	C	0.706323	-0.507164	0.322532
C52	C	1.206323	-0.007164	0.822532
C53	C	0.375156	-0.549524	0.349394
C54	C	0.875156	-0.049524	0.849394
C55	C	0.301765	-0.544894	0.346458
C56	C	0.801765	-0.044894	0.846458
C57	C	0.298177	-0.686450	0.436183
C58	C	0.798177	-0.186450	0.936183
C59	C	0.371565	-0.691086	0.439114
C60	C	0.871565	-0.191086	0.939114
C61	C	0.410050	-0.622619	0.395723
C62	C	0.910050	-0.122619	0.895723
N63	N	0.519431	-0.566245	0.359986
N64	N	1.019431	-0.066245	0.859986
N65	N	0.485063	-0.627360	0.398728
N66	N	0.985063	-0.127360	0.898728
C67	C	0.953097	-1.131420	0.424375
C68	C	1.453097	-0.631420	0.924375
C69	C	1.016465	-1.065571	0.444185
C70	C	1.516465	-0.565571	0.944185
C71	C	0.938518	-1.055899	0.359562
C72	C	1.438518	-0.555899	0.859562
C73	C	1.065395	-1.136569	0.399217
C74	C	1.565395	-0.636569	0.899217
C75	C	0.987406	-1.126899	0.314562
C76	C	1.487406	-0.626899	0.814562
C77	C	1.050819	-1.061084	0.334350
C78	C	1.550819	-0.561084	0.834350
C79	C	1.185174	-0.608397	0.386707
C80	C	1.685174	-0.108397	0.886707
C81	C	1.263278	-0.613350	0.389850
C82	C	1.763278	-0.113350	0.889850
C83	C	0.994564	-0.607395	0.562613
C84	C	1.494564	-0.107395	1.062613
C85	C	0.991440	-0.611921	0.640716
C86	C	1.491440	-0.111921	1.140716
C87	C	1.001963	-0.319159	0.379360
C88	C	1.501963	0.180841	0.879360
C89	C	1.001994	-0.200856	0.379372
C90	C	1.501994	0.299144	0.879372
C91	C	1.009233	-0.586119	0.196766
C92	C	1.509233	-0.086119	0.696766
C93	C	1.012492	-0.581301	0.118668
C94	C	1.512492	-0.081301	0.618668
C95	C	1.034927	-0.548833	0.679225
C96	C	1.534927	-0.048833	1.179225
C97	C	1.031984	-0.553082	0.752611
C98	C	1.531984	-0.053082	1.252611
C99	C	0.985558	-0.620425	0.787487
C100	C	1.485558	-0.120425	1.287487
C101	C	0.942066	-0.683515	0.748972
C102	C	1.442066	-0.183515	1.248972
C103	C	0.945006	-0.679261	0.675587
C104	C	1.445006	-0.179261	1.175587
C105	C	0.971941	-0.640137	1.006769
C106	C	1.471941	-0.140137	1.506769
C107	C	0.969006	-0.644390	1.080159
C108	C	1.469006	-0.144390	1.580159
C109	C	1.058922	-0.513954	1.083793
C110	C	1.558922	-0.013954	1.583793
C111	C	1.061861	-0.509710	1.010407
C112	C	1.561861	-0.009710	1.510407
C113	C	1.018368	-0.572796	0.971899
C114	C	1.518368	-0.072796	1.471899
N115	N	0.982550	-0.624771	0.862499
N116	N	1.482550	-0.124771	1.362499
N117	N	1.021372	-0.568443	0.896887
N118	N	1.521372	-0.068443	1.396887
H119	H	0.731142	-0.708251	0.449976
H120	H	1.231142	-0.208251	0.949976
N121	N	1.078895	-0.485047	0.794145
N122	N	1.578895	0.014953	1.294145
H123	H	1.069988	-0.497956	0.845926
H124	H	1.569988	0.002044	1.345926
H125	H	1.068498	-0.407594	0.780884
H126	H	1.568498	0.092406	1.280884
N127	N	1.105580	-1.020411	0.283922
N128	N	1.605580	-0.520411	0.783922
H129	H	1.130661	-1.082471	0.261438
H130	H	1.630661	-0.582471	0.761438
H131	H	1.140542	-0.978873	0.310231
H132	H	1.640542	-0.478873	0.810231
N133	N	0.409196	-0.769930	0.489087
N134	N	0.909196	-0.269930	0.989087
H135	H	0.394428	-0.755621	0.538800
H136	H	0.894428	-0.255621	1.038800
H137	H	0.461516	-0.762452	0.484306
H138	H	0.961516	-0.262452	0.984306
N139	N	0.898458	-1.172350	0.474849
N140	N	1.398458	-0.672350	0.974849
H141	H	0.898583	-1.252504	0.474179
H142	H	1.398583	-0.752504	0.974179
H143	H	0.850679	-1.141723	0.460372
H144	H	1.350679	-0.641723	0.960372
H145	H	0.266834	-0.742191	0.471510
H146	H	0.766834	-0.242191	0.971510
N147	N	0.867478	-1.009181	0.337377
N148	N	1.367478	-0.509181	0.837377
H149	H	0.830625	-1.034770	0.371418
H150	H	1.330625	-0.534770	0.871418
H151	H	0.856190	-1.032481	0.288756
H152	H	1.356190	-0.532481	0.788756
H153	H	0.909588	-0.730623	0.644234
H154	H	1.409588	-0.230623	1.144234
N155	N	0.264111	-0.466070	0.296482
N156	N	0.764111	0.033930	0.796482
H157	H	0.276440	-0.391481	0.307984
H158	H	0.776440	0.108519	0.807984
H159	H	0.211796	-0.473641	0.301235
H160	H	0.711796	0.026359	0.801235
N161	N	0.416670	-0.475697	0.302594
N162	N	0.916670	0.024303	0.802594
H163	H	0.445986	-0.430024	0.332428
H164	H	0.945986	0.069976	0.832428
H165	H	0.383387	-0.428757	0.272801
H166	H	0.883387	0.071243	0.772801
H167	H	0.604516	-0.443007	0.281875
H168	H	1.104516	0.056993	0.781875
N169	N	1.032759	-1.029669	0.516762
N170	N	1.532759	-0.529669	1.016762
H171	H	1.039744	-1.093844	0.549830
H172	H	1.539744	-0.593844	1.049830
H173	H	0.992476	-0.983026	0.533817
H174	H	1.492476	-0.483026	1.033817
N175	N	0.587833	-0.717933	0.456109
N176	N	1.087833	-0.217933	0.956109
H177	H	0.621078	-0.764951	0.485897
H178	H	1.121078	-0.264951	0.985897
H179	H	0.558521	-0.763526	0.426219
H180	H	1.058521	-0.263526	0.926219
H181	H	1.119041	-1.171713	0.416022
H182	H	1.619041	-0.671713	0.916022
H183	H	0.975091	-1.154018	0.259782
H184	H	1.475091	-0.654018	0.759782
N185	N	1.085006	-0.476206	0.641612
N186	N	1.585006	0.023794	1.141612
H187	H	1.112106	-0.436884	0.677146
H188	H	1.612106	0.063116	1.177146
H189	H	1.057636	-0.423370	0.610016
H190	H	1.557636	0.076630	1.110016
H191	H	0.737658	-0.451415	0.287201
H192	H	1.237658	0.048585	0.787201
H193	H	1.094332	-0.462591	1.115154
H194	H	1.594332	0.037409	1.615154
N195	N	0.925042	-0.708172	0.965225
N196	N	1.425042	-0.208172	1.465225
H197	H	0.893714	-0.661073	0.933473
H198	H	1.393714	-0.161073	1.433473
H199	H	0.895226	-0.751480	0.998488
H200	H	1.395226	-0.251480	1.498488
H201	H	1.099668	-0.454875	0.982016
H202	H	1.599668	0.045125	1.482016
N203	N	0.918932	-0.717031	1.117778
N204	N	1.418932	-0.217031	1.617778
H205	H	0.891824	-0.756350	1.082248
H206	H	1.391824	-0.256350	1.582248
H207	H	0.885209	-0.673407	1.146923
H208	H	1.385209	-0.173407	1.646923
H209	H	0.904263	-0.738343	0.777373
H210	H	1.404263	-0.238343	1.277373
