data_functionalizedCrystal
_audit_creation_method	'MofGen! by Chris Wilmer'
_symmetry_space_group_name_H-M	'P1'
_symmetry_Int_Tables_number	1
_symmetry_cell_setting	triclinic
loop_
_symmetry_equiv_pos_as_xyz
  x,y,z
_cell_length_a	19.288867
_cell_length_b	15.625429
_cell_length_c	17.766277
_cell_angle_alpha	71.916495
_cell_angle_beta	89.992126
_cell_angle_gamma	83.712539
loop_
_atom_site_label
_atom_site_type_symbol
_atom_site_fract_x
_atom_site_fract_y
_atom_site_fract_z
O1	O	0.921733	0.112472	-0.093262
O2	O	0.719524	0.127642	-0.097409
O3	O	0.826028	-0.011203	-0.059509
O4	O	0.815229	0.251317	-0.131163
O5	O	0.826010	-0.011210	0.065681
O6	O	0.719505	0.127635	0.027781
O7	O	0.921715	0.112465	0.031928
Cu8	Cu	0.820608	0.120049	0.041285
Cu9	Cu	0.820630	0.120058	-0.106767
O10	O	0.815210	0.251310	-0.005972
C11	C	0.693637	0.127150	-0.034682
C12	C	0.616528	0.125684	-0.034284
C13	C	0.825529	-0.044792	0.012252
C14	C	0.824061	-0.144867	0.039562
C15	C	0.060937	0.115127	-0.099635
C16	C	0.133390	0.116499	-0.100012
C17	C	0.169610	0.117186	-0.031959
C18	C	0.133375	0.116477	0.036482
C19	C	0.060925	0.115096	0.036860
C20	C	0.279116	0.172173	0.005313
C21	C	0.351564	0.173560	0.004931
C22	C	0.393070	0.121442	-0.033121
C23	C	0.362118	0.067949	-0.070806
C24	C	0.289669	0.066567	-0.070428
C25	C	0.248170	0.118683	-0.032361
C26	C	0.507858	0.123632	-0.101965
C27	C	0.580312	0.124999	-0.102338
C28	C	0.580296	0.124985	0.034156
C29	C	0.507844	0.123610	0.034529
C30	C	0.471629	0.122937	-0.033535
C31	C	0.819264	-0.473982	-0.211798
C32	C	0.817881	-0.568017	-0.186113
C33	C	0.817861	-0.568011	-0.049639
C34	C	0.819247	-0.473975	-0.075313
C35	C	0.819948	-0.426968	-0.156393
C36	C	0.819931	-0.426960	-0.019908
C37	C	0.821313	-0.332932	-0.045580
C38	C	0.822012	-0.285918	-0.126657
C39	C	0.821330	-0.332939	-0.182065
C40	C	0.819225	-0.473969	0.061172
C41	C	0.819909	-0.426954	0.116577
C42	C	0.821296	-0.332924	0.090906
C43	C	0.821995	-0.285910	0.009829
C44	C	0.821978	-0.285903	0.146314
C45	C	0.823360	-0.191874	0.120642
C46	C	0.823377	-0.191881	-0.015843
C47	C	0.947602	0.112957	-0.030801
C48	C	1.024710	0.114423	-0.031203
C49	C	0.815710	0.284899	-0.077734
C50	C	0.817178	0.384974	-0.105049
N51	N	0.820598	0.120043	0.145418
N52	N	0.820646	0.120057	-0.210897
C53	C	0.867773	0.058593	0.201579
C54	C	0.867777	0.058588	0.280381
C55	C	0.820612	0.120050	0.303016
C56	C	0.773428	0.181505	0.246844
C57	C	0.773421	0.181501	0.168045
C58	C	0.811592	0.202193	0.405433
C59	C	0.811604	0.202198	0.484231
C60	C	0.820631	0.120061	0.546060
C61	C	0.829660	0.037916	0.529082
C62	C	0.829653	0.037912	0.450283
C63	C	0.820615	0.120060	0.388459
C64	C	0.867813	0.058601	0.687669
C65	C	0.867812	0.058596	0.766474
C66	C	0.773467	0.181520	0.732933
C67	C	0.773464	0.181518	0.654132
C68	C	0.820641	0.120059	0.631504
H69	H	0.031456	0.114576	-0.155056
H70	H	0.162891	0.117077	-0.155740
H71	H	0.817288	-0.606297	0.016377
H72	H	0.264471	0.023010	-0.101111
C73	C	0.385604	0.232402	0.046386
N74	N	0.411242	0.276722	0.077613
C75	C	0.820038	-0.422270	-0.300991
N76	N	0.820619	-0.383319	-0.368168
H77	H	0.478371	0.123082	-0.157386
H78	H	0.735053	0.231560	0.608401
H79	H	0.735025	0.231547	0.265278
C80	C	0.407770	0.010613	-0.112665
N81	N	0.442158	-0.032569	-0.144193
H82	H	0.823130	-0.209352	-0.147558
C83	C	0.817713	-0.577405	0.089410
N84	N	0.816578	-0.655315	0.110679
H85	H	0.906226	0.008551	0.812204
H86	H	0.819336	-0.465240	0.182593
C87	C	0.919662	-0.009022	0.176696
N88	N	0.958744	-0.059954	0.157954
C89	C	0.721552	0.249144	0.106254
N90	N	0.682495	0.300108	0.059707
C91	C	0.801665	0.292558	0.502899
N92	N	0.794174	0.360620	0.516957
H93	H	0.031429	0.114526	0.092586
C94	C	0.620163	0.125762	-0.177619
N95	N	0.650179	0.126335	-0.234321
H96	H	0.821401	-0.324189	0.212330
C97	C	0.620135	0.125731	0.109017
N98	N	0.650146	0.126288	0.165406
H99	H	0.906226	0.008555	0.669246
C100	C	0.919683	-0.009005	0.342167
N101	N	0.958781	-0.059914	0.388700
H102	H	0.821907	-0.294664	-0.248088
C103	C	0.824116	-0.140156	0.181591
N104	N	0.824685	-0.101201	0.227499
C105	C	0.467991	0.122857	0.109804
N106	N	0.437973	0.122293	0.166504
C107	C	0.721585	0.249130	0.757826
N108	N	0.682506	0.300055	0.776579
H109	H	0.245328	0.214609	0.036309
H110	H	0.804229	0.269083	0.355095
C111	C	0.173217	0.117257	0.111334
N112	N	0.203225	0.117851	0.167712
C113	C	0.839576	-0.052445	0.431610
N114	N	0.847046	-0.120504	0.417546
H115	H	0.823954	-0.153606	-0.081867
H116	H	0.837011	-0.028968	0.579423
H117	H	0.817318	-0.606292	-0.231237
