data_functionalizedCrystal
_audit_creation_method	'MofGen! by Chris Wilmer'
_symmetry_space_group_name_H-M	'P1'
_symmetry_Int_Tables_number	1
_symmetry_cell_setting	triclinic
loop_
_symmetry_equiv_pos_as_xyz
  x,y,z
_cell_length_a	6.817900
_cell_length_b	19.551136
_cell_length_c	9.514088
_cell_angle_alpha	92.292231
_cell_angle_beta	118.843545
_cell_angle_gamma	101.650842
loop_
_atom_site_label
_atom_site_type_symbol
_atom_site_fract_x
_atom_site_fract_y
_atom_site_fract_z
V1	V	-4.208640	-0.097917	-0.501544
O2	O	-4.201672	0.003431	-0.491183
O3	O	-4.150275	-0.192928	-0.498897
O4	O	-4.243503	-0.096970	-0.719928
O5	O	-4.107799	-0.093191	-0.268622
V6	V	-4.682770	-0.085729	-0.473590
O7	O	-4.490502	-0.124654	-0.562864
O8	O	-4.851104	-0.058992	-0.412269
O9	O	-4.517928	0.009281	-0.476237
O10	O	-4.807135	-0.187077	-0.483951
O11	O	-4.901008	-0.090455	-0.706512
O12	O	-4.424700	-0.086676	-0.255206
C13	C	-3.990158	-0.216072	-0.491186
C14	C	-4.024280	-0.293747	-0.490478
C15	C	-3.944977	-0.319873	-0.342965
C16	C	-3.977091	-0.392855	-0.342250
C17	C	-4.088471	-0.439710	-0.489053
C18	C	-4.167794	-0.413577	-0.636586
C19	C	-4.135698	-0.340596	-0.637298
C20	C	-4.093566	-0.560984	-0.595498
C21	C	-4.125644	-0.633963	-0.594779
C22	C	-4.187477	-0.664808	-0.486864
C23	C	-4.217183	-0.622663	-0.379639
C24	C	-4.185088	-0.549682	-0.380351
C25	C	-4.123285	-0.518847	-0.488298
C26	C	-4.142992	-0.770069	-0.338566
C27	C	-4.175123	-0.843054	-0.337857
C28	C	-4.365807	-0.863774	-0.632196
C29	C	-4.333695	-0.790791	-0.632902
C30	C	-4.222276	-0.743942	-0.486081
C31	C	-4.109077	-0.093668	-0.773131
C32	C	-4.218800	-0.093522	-0.951666
C33	C	-4.341385	0.032422	-0.483943
C34	C	-4.286505	0.110097	-0.484662
C35	C	-4.222464	-0.089981	-0.201994
C36	C	-4.091980	-0.090123	-0.023457
H37	H	-4.101446	-0.668272	-0.682084
H38	H	-3.854268	-0.281733	-0.223413
C39	C	-3.889834	-0.421600	-0.179968
N40	N	-3.824102	-0.443248	-0.057736
C41	C	-4.478897	-0.097300	-1.053156
N42	N	-4.674800	-0.100144	-1.129598
C43	C	-4.222918	-0.311858	-0.799579
N44	N	-4.288603	-0.290211	-0.921812
C45	C	-4.217758	-0.503325	-0.262403
N46	N	-4.242367	-0.468409	-0.173563
C47	C	-4.488333	-0.915310	-0.793683
N48	N	-4.580628	-0.954130	-0.915320
C49	C	-4.420894	-0.762051	-0.795177
N50	N	-4.486574	-0.740406	-0.917411
H51	H	-4.110554	-0.864323	-0.217730
C52	C	-4.285185	-0.656586	-0.260914
N53	N	-4.336392	-0.682140	-0.171488
C54	C	-4.025547	-0.527062	-0.714221
N55	N	-3.974318	-0.501513	-0.803641
H56	H	-4.052268	-0.731923	-0.219016
H57	H	-3.899468	-0.087330	-0.948339
H58	H	-4.258484	-0.451730	-0.756114
