data_functionalizedCrystal
_audit_creation_method	'MofGen! by Chris Wilmer'
_symmetry_space_group_name_H-M	'P1'
_symmetry_Int_Tables_number	1
_symmetry_cell_setting	triclinic
loop_
_symmetry_equiv_pos_as_xyz
  x,y,z
_cell_length_a	14.971486
_cell_length_b	14.971486
_cell_length_c	13.448316
_cell_angle_alpha	90.006811
_cell_angle_beta	90.001801
_cell_angle_gamma	83.614129
loop_
_atom_site_label
_atom_site_type_symbol
_atom_site_fract_x
_atom_site_fract_y
_atom_site_fract_z
O1	O	-1.186947	-0.116565	-0.082578
O2	O	-0.686947	0.383435	0.417422
O3	O	-0.926547	-0.130524	-0.082605
O4	O	-0.426547	0.369476	0.417395
O5	O	-1.063727	0.006656	-0.082584
O6	O	-0.563727	0.506656	0.417416
O7	O	-1.049768	-0.253744	-0.082599
O8	O	-0.549768	0.246256	0.417401
O9	O	-1.063709	0.006664	0.082800
O10	O	-0.563709	0.506664	0.582800
O11	O	-0.926530	-0.130515	0.082779
O12	O	-0.426530	0.369485	0.582779
O13	O	-1.186930	-0.116556	0.082806
O14	O	-0.686930	0.383444	0.582806
Cu15	Cu	-1.056728	-0.123535	0.097893
Cu16	Cu	-0.556728	0.376465	0.597893
Cu17	Cu	-1.056749	-0.123545	-0.097692
Cu18	Cu	-0.556749	0.376455	0.402308
O19	O	-1.049751	-0.253736	0.082784
O20	O	-0.549751	0.246264	0.582784
C21	C	-0.893214	-0.129895	0.000083
C22	C	-0.393214	0.370105	0.500083
C23	C	-0.793917	-0.128024	0.000073
C24	C	-0.293917	0.371976	0.500073
C25	C	-1.063094	0.039985	0.000108
C26	C	-0.563094	0.539985	0.500108
C27	C	-1.061223	0.139282	0.000107
C28	C	-0.561223	0.639282	0.500107
C29	C	-1.220263	-0.117185	0.000115
C30	C	-0.720263	0.382815	0.500115
C31	C	-1.319561	-0.119056	0.000119
C32	C	-0.819561	0.380944	0.500119
C33	C	-1.050384	-0.287065	0.000091
C34	C	-0.550384	0.212935	0.500091
C35	C	-1.052254	-0.386362	0.000085
C36	C	-0.552254	0.113638	0.500085
C37	C	-0.736692	-0.208614	0.000070
C38	C	-0.236692	0.291386	0.500070
C39	C	-0.643392	-0.206850	0.000085
C40	C	-0.143392	0.293150	0.500085
C41	C	-0.607320	-0.124497	0.000096
C42	C	-0.107320	0.375503	0.500096
C43	C	-0.664552	-0.043902	0.000102
C44	C	-0.164552	0.456098	0.500102
C45	C	-0.757850	-0.045666	0.000095
C46	C	-0.257850	0.454334	0.500095
C47	C	-0.470090	-0.040231	0.000116
C48	C	0.029910	0.459769	0.500116
C49	C	-0.376786	-0.038466	0.000122
C50	C	0.123214	0.461534	0.500122
C51	C	-0.355632	-0.201415	0.000106
C52	C	0.144368	0.298585	0.500106
C53	C	-0.448930	-0.203179	0.000099
C54	C	0.051070	0.296821	0.500099
C55	C	-0.506156	-0.122584	0.000103
C56	C	-0.006156	0.377416	0.500103
N57	N	-1.056721	-0.123527	0.235457
N58	N	-0.556721	0.376473	0.735457
C59	C	-1.141812	0.196507	0.000116
C60	C	-0.641812	0.696507	0.500116
C61	C	-1.140049	0.289807	0.000106
C62	C	-0.640049	0.789807	0.500106
C63	C	-1.057696	0.325879	0.000093
C64	C	-0.557696	0.825879	0.500093
C65	C	-0.977101	0.268646	0.000081
C66	C	-0.477101	0.768646	0.500081
C67	C	-0.978865	0.175349	0.000084
C68	C	-0.478865	0.675349	0.500084
C69	C	-0.973430	0.463109	0.000077
C70	C	-0.473430	0.963109	0.500077
C71	C	-0.971665	0.556413	0.000076
C72	C	-0.471665	1.056413	0.500076
C73	C	-1.134614	0.577567	0.000099
C74	C	-0.634614	1.077567	0.500099
C75	C	-1.136378	0.484269	0.000102
C76	C	-0.636378	0.984269	0.500102
C77	C	-1.055782	0.427043	0.000091
C78	C	-0.555782	0.927043	0.500091
N79	N	-1.056764	-0.123545	-0.235257
N80	N	-0.556764	0.376455	0.264743
C81	C	-1.117483	-0.062809	0.287507
C82	C	-0.617483	0.437191	0.787507
C83	C	-1.117488	-0.062809	0.391610
C84	C	-0.617488	0.437191	0.891610
C85	C	-1.056735	-0.123531	0.443662
C86	C	-0.556735	0.376469	0.943662
C87	C	-0.995967	-0.184252	0.391605
C88	C	-0.495967	0.315748	0.891605
C89	C	-0.995958	-0.184248	0.287504
C90	C	-0.495958	0.315752	0.787504
C91	C	-0.995992	-0.184258	0.608585
C92	C	-0.495992	0.315742	1.108585
C93	C	-0.996002	-0.184264	0.712693
C94	C	-0.496002	0.315736	1.212693
C95	C	-1.117522	-0.062819	0.712692
C96	C	-0.617522	0.437181	1.212692
C97	C	-1.117513	-0.062815	0.608591
C98	C	-0.617513	0.437185	1.108591
C99	C	-1.056745	-0.123537	0.556541
C100	C	-0.556745	0.376463	1.056541
H101	H	-0.766054	-0.275675	0.000060
H102	H	-0.266054	0.224325	0.500060
H103	H	-1.203437	0.454903	0.000119
H104	H	-0.703437	0.954903	0.500119
H105	H	-1.167001	-0.013377	0.755077
H106	H	-0.667001	0.486623	1.255077
N107	N	-0.930465	-0.249755	0.768823
N108	N	-0.430465	0.250245	1.268823
H109	H	-0.890839	-0.215505	0.812029
H110	H	-0.390839	0.284495	1.312029
H111	H	-0.964745	-0.289410	0.811942
H112	H	-0.464745	0.210590	1.311942
N113	N	-1.230640	0.157609	0.000135
N114	N	-0.730640	0.657609	0.500135
H115	H	-1.235013	0.119361	-0.061167
H116	H	-0.735013	0.619361	0.438833
H117	H	-1.234940	0.119427	0.061489
H118	H	-0.734940	0.619427	0.561489
H119	H	-0.907800	0.416517	0.000066
H120	H	-0.407800	0.916517	0.500066
N121	N	-0.581711	-0.293798	0.000100
N122	N	-0.081711	0.206202	0.500100
H123	H	-0.542513	-0.296739	-0.061195
H124	H	-0.042513	0.203261	0.438805
H125	H	-0.542604	-0.296660	0.061462
H126	H	-0.042604	0.203340	0.561462
H127	H	-0.516682	0.025399	0.000121
H128	H	-0.016682	0.525399	0.500121
H129	H	-0.946505	-0.233702	0.566209
H130	H	-0.446505	0.266298	1.066209
N131	N	-0.625639	0.044918	0.000113
N132	N	-0.125639	0.544918	0.500113
H133	H	-0.646499	0.080229	-0.061192
H134	H	-0.146499	0.580229	0.438808
H135	H	-0.646509	0.080161	0.061464
H136	H	-0.146509	0.580161	0.561464
H137	H	-0.946496	-0.233690	0.433991
H138	H	-0.446496	0.266310	0.933991
N139	N	-0.891936	0.113635	0.000092
N140	N	-0.391936	0.613635	0.500092
H141	H	-0.889032	0.074464	0.061402
H142	H	-0.389032	0.574464	0.561402
H143	H	-0.889083	0.074502	-0.061254
H144	H	-0.389083	0.574502	0.438746
N145	N	-0.819571	0.041258	0.000104
N146	N	-0.319571	0.541258	0.500104
H147	H	-0.807960	0.077184	-0.061199
H148	H	-0.307960	0.577184	0.438801
H149	H	-0.884122	0.027574	0.000139
H150	H	-0.384122	0.527574	0.500139
H151	H	-1.200238	0.624165	0.000104
H152	H	-0.700238	1.124165	0.500104
N153	N	-0.930428	-0.249739	0.231355
N154	N	-0.430428	0.250261	0.731355
H155	H	-0.890789	-0.215486	0.188179
H156	H	-0.390789	0.284514	0.688179
H157	H	-0.892003	-0.288194	0.280184
H158	H	-0.392003	0.211806	0.780184
H159	H	-0.309033	-0.267039	0.000107
H160	H	0.190967	0.232961	0.500107
N161	N	-0.337875	0.050355	0.000132
N162	N	0.162125	0.550355	0.500132
H163	H	-0.388283	0.101144	0.000140
H164	H	0.111717	0.601144	0.500140
H165	H	-0.299625	0.054631	0.061443
H166	H	0.200375	0.554631	0.561443
N167	N	-0.888272	0.307543	0.000067
N168	N	-0.388272	0.807543	0.500067
H169	H	-0.883914	0.345776	-0.061240
H170	H	-0.383914	0.845776	0.438760
H171	H	-0.883954	0.345740	0.061417
H172	H	-0.383954	0.845740	0.561417
H173	H	-1.205673	0.336396	0.000115
H174	H	-0.705673	0.836396	0.500115
N175	N	-1.183056	0.002659	0.447736
N176	N	-0.683056	0.502659	0.947736
H177	H	-1.172719	0.066169	0.429634
H178	H	-0.672719	0.566169	0.929634
H179	H	-1.246499	-0.007862	0.429561
H180	H	-0.746499	0.492138	0.929561
H181	H	-0.904606	0.585780	0.000082
H182	H	-0.404606	1.085780	0.500082
N183	N	-1.183043	0.002671	0.552445
N184	N	-0.683043	0.502671	1.052445
H185	H	-1.221539	0.041139	0.601213
H186	H	-0.721539	0.541139	1.101213
H187	H	-1.148756	0.042271	0.509265
H188	H	-0.648756	0.542271	1.009265
H189	H	-1.166958	-0.013366	0.245134
H190	H	-0.666958	0.486634	0.745134
H191	H	-0.478296	-0.270239	0.000080
H192	H	0.021704	0.229761	0.500080
