data_functionalizedCrystal
_audit_creation_method	'MofGen! by Chris Wilmer'
_symmetry_space_group_name_H-M	'P1'
_symmetry_Int_Tables_number	1
_symmetry_cell_setting	triclinic
loop_
_symmetry_equiv_pos_as_xyz
  x,y,z
_cell_length_a	14.044191
_cell_length_b	14.044220
_cell_length_c	13.330367
_cell_angle_alpha	89.994700
_cell_angle_beta	89.994894
_cell_angle_gamma	93.190327
loop_
_atom_site_label
_atom_site_type_symbol
_atom_site_fract_x
_atom_site_fract_y
_atom_site_fract_z
O1	O	1.277177	0.230200	-0.083379
O2	O	1.777177	0.730200	0.416621
O3	O	1.000504	0.221887	-0.083392
O4	O	1.500504	0.721887	0.416608
O5	O	1.134688	0.087707	-0.083376
O6	O	1.634688	0.587707	0.416624
O7	O	1.142993	0.364379	-0.083395
O8	O	1.642993	0.864379	0.416605
O9	O	1.134666	0.087702	0.083471
O10	O	1.634666	0.587702	0.583471
O11	O	1.000483	0.221882	0.083455
O12	O	1.500483	0.721882	0.583455
O13	O	1.277155	0.230195	0.083468
O14	O	1.777155	0.730195	0.583468
Cu15	Cu	1.138817	0.226038	0.098696
Cu16	Cu	1.638817	0.726038	0.598696
Cu17	Cu	1.138842	0.226044	-0.098620
Cu18	Cu	1.638842	0.726044	0.401380
O19	O	1.142972	0.364374	0.083452
O20	O	1.642972	0.864374	0.583452
C21	C	0.964872	0.218248	0.000030
C22	C	1.464872	0.718248	0.500030
C23	C	0.858728	0.207401	0.000026
C24	C	1.358728	0.707401	0.500026
C25	C	0.613270	0.264501	0.000032
C26	C	1.113270	0.764501	0.500032
C27	C	0.664395	0.187585	0.000035
C28	C	1.164395	0.687585	0.500035
C29	C	0.772532	0.198613	0.000030
C30	C	1.272532	0.698613	0.500030
C31	C	0.505123	0.253474	0.000037
C32	C	1.005123	0.753474	0.500037
C33	C	1.131041	0.052083	0.000048
C34	C	1.631041	0.552083	0.500048
C35	C	1.120197	-0.054060	0.000049
C36	C	1.620197	0.445940	0.500049
C37	C	1.100370	-0.248398	0.000033
C38	C	1.600370	0.251602	0.500033
C39	C	1.177285	-0.299526	0.000034
C40	C	1.677285	0.200474	0.500034
C41	C	1.166253	-0.407663	0.000025
C42	C	1.666253	0.092337	0.500025
C43	C	1.111400	-0.140252	0.000042
C44	C	1.611400	0.359748	0.500042
C45	C	1.312788	0.233834	0.000043
C46	C	1.812788	0.733834	0.500043
C47	C	1.418931	0.244681	0.000041
C48	C	1.918931	0.744681	0.500041
C49	C	1.146618	0.399998	0.000026
C50	C	1.646618	0.899998	0.500026
C51	C	1.157463	0.506142	0.000018
C52	C	1.657463	1.006142	0.500018
N53	N	1.138806	0.226034	0.237477
N54	N	1.638806	0.726034	0.737477
N55	N	1.138860	0.226041	-0.237402
N56	N	1.638860	0.726041	0.262598
C57	C	1.079421	0.285433	0.710093
C58	C	1.579421	0.785433	1.210093
C59	C	1.198289	0.166649	0.710075
C60	C	1.698289	0.666649	1.210075
C61	C	1.198278	0.166646	0.605057
C62	C	1.698278	0.666646	1.105057
C63	C	1.138839	0.226037	0.552552
C64	C	1.638839	0.726037	1.052552
C65	C	1.079410	0.285433	0.605065
C66	C	1.579410	0.785433	1.105065
C67	C	1.257712	0.107258	0.552536
C68	C	1.757712	0.607258	1.052536
C69	C	1.257704	0.107253	0.447511
C70	C	1.757704	0.607253	0.947511
C71	C	1.198259	0.166640	0.395004
C72	C	1.698259	0.666640	0.895004
C73	C	1.138828	0.226037	0.447524
C74	C	1.638828	0.726037	0.947524
C75	C	1.079389	0.285429	0.395019
C76	C	1.579389	0.785429	0.895019
C77	C	1.019951	0.344822	0.447536
C78	C	1.519951	0.844822	0.947536
C79	C	1.019965	0.344820	0.552558
C80	C	1.519965	0.844820	1.052558
C81	C	1.198245	0.166642	0.289982
C82	C	1.698245	0.666642	0.789982
C83	C	1.079378	0.285429	0.289991
C84	C	1.579378	0.785429	0.789991
H85	H	0.650711	0.338628	0.000023
H86	H	1.150711	0.838628	0.500023
H87	H	1.251419	-0.262085	-0.000030
H88	H	1.751419	0.237915	0.499970
H89	H	0.626952	0.113452	-0.000030
H90	H	1.126952	0.613452	0.499970
H91	H	1.026242	-0.285837	0.000027
H92	H	1.526242	0.214163	0.500027
Cl93	Cl	0.945254	0.419483	0.618582
Cl94	Cl	1.445254	0.919483	1.118582
Cl95	Cl	1.004644	0.360092	0.223993
Cl96	Cl	1.504644	0.860092	0.723993
Cl97	Cl	0.945237	0.419490	0.381519
Cl98	Cl	1.445237	0.919490	0.881519
Cl99	Cl	1.004700	0.360091	0.776110
Cl100	Cl	1.504700	0.860091	1.276110
H101	H	1.246688	0.118299	0.752828
H102	H	1.746688	0.618299	1.252828
H103	H	1.306111	0.058908	0.595289
H104	H	1.806111	0.558908	1.095289
Cl105	Cl	1.332419	0.032587	0.381496
Cl106	Cl	1.832419	0.532587	0.881496
H107	H	1.246643	0.118290	0.247227
H108	H	1.746643	0.618290	0.747227
