data_functionalizedCrystal
_audit_creation_method	'MofGen! by Chris Wilmer'
_symmetry_space_group_name_H-M	'P1'
_symmetry_Int_Tables_number	1
_symmetry_cell_setting	triclinic
loop_
_symmetry_equiv_pos_as_xyz
  x,y,z
_cell_length_a	19.188930
_cell_length_b	19.188925
_cell_length_c	18.266242
_cell_angle_alpha	89.993996
_cell_angle_beta	89.977082
_cell_angle_gamma	83.143665
loop_
_atom_site_label
_atom_site_type_symbol
_atom_site_fract_x
_atom_site_fract_y
_atom_site_fract_z
O1	O	0.926148	0.087169	-0.061116
O2	O	1.426148	0.587169	0.438884
O3	O	0.722836	0.098903	-0.061065
O4	O	1.222836	0.598903	0.438935
O5	O	0.830361	-0.008620	-0.061088
O6	O	1.330361	0.491380	0.438912
O7	O	0.818623	0.194692	-0.061093
O8	O	1.318623	0.694692	0.438907
O9	O	0.830343	-0.008625	0.060674
O10	O	1.330343	0.491375	0.560674
O11	O	0.722818	0.098898	0.060697
O12	O	1.222818	0.598898	0.560697
O13	O	0.926129	0.087163	0.060646
O14	O	1.426129	0.587163	0.560646
Zn15	Zn	0.824471	0.093030	0.080004
Zn16	Zn	1.324471	0.593030	0.580004
Zn17	Zn	0.824495	0.093037	-0.080423
Zn18	Zn	1.324495	0.593037	0.419577
O19	O	0.818605	0.194687	0.060669
O20	O	1.318605	0.694687	0.560669
C21	C	0.696816	0.098520	-0.000178
C22	C	1.196816	0.598520	0.499822
C23	C	0.619311	0.097380	-0.000159
C24	C	1.119311	0.597380	0.499841
C25	C	0.574386	0.160471	-0.000172
C26	C	1.074386	0.660471	0.499828
C27	C	0.501563	0.159399	-0.000180
C28	C	1.001563	0.659399	0.499820
C29	C	0.473667	0.095233	-0.000189
C30	C	0.973667	0.595233	0.499811
C31	C	0.518602	0.032134	-0.000172
C32	C	1.018602	0.532134	0.499828
C33	C	0.591424	0.033207	-0.000157
C34	C	1.091424	0.533207	0.499843
N35	N	0.365694	0.046188	-0.041659
N36	N	0.865694	0.546188	0.458341
N37	N	0.296516	0.045172	-0.041675
N38	N	0.796516	0.545172	0.458325
C39	C	0.254259	0.091995	-0.000234
C40	C	0.754259	0.591995	0.499766
N41	N	0.283792	0.139882	0.041214
N42	N	0.783792	0.639882	0.541214
N43	N	0.352977	0.140899	0.041227
N44	N	0.852977	0.640899	0.541227
C45	C	0.394705	0.094062	-0.000206
C46	C	0.894705	0.594062	0.499794
C47	C	0.130369	0.153928	-0.000255
C48	C	0.630369	0.653928	0.499745
C49	C	0.057544	0.152854	-0.000258
C50	C	0.557544	0.652854	0.499742
C51	C	0.074586	0.025586	-0.000258
C52	C	0.574586	0.525586	0.499742
C53	C	0.147409	0.026663	-0.000247
C54	C	0.647409	0.526663	0.499753
C55	C	0.175296	0.090835	-0.000249
C56	C	0.675296	0.590835	0.499751
C57	C	0.829972	-0.034634	-0.000207
C58	C	1.329972	0.465366	0.499793
C59	C	0.828833	-0.112138	-0.000209
C60	C	1.328833	0.387862	0.499791
C61	C	0.884297	-0.673909	-0.000241
C62	C	1.384297	-0.173909	0.499759
C63	C	0.885374	-0.601085	-0.000234
C64	C	1.385374	-0.101085	0.499766
C65	C	0.822282	-0.556151	-0.000219
C66	C	1.322282	-0.056151	0.499781
C67	C	0.758108	-0.584045	-0.000191
C68	C	1.258108	-0.084045	0.499809
C69	C	0.757033	-0.656867	-0.000190
C70	C	1.257033	-0.156867	0.499810
N71	N	0.776612	-0.435469	-0.041652
N72	N	1.276612	0.064531	0.458348
N73	N	0.777637	-0.366291	-0.041655
N74	N	1.277637	0.133709	0.458345
C75	C	0.825516	-0.336742	-0.000220
C76	C	1.325516	0.163258	0.499780
N77	N	0.872341	-0.378984	0.041208
N78	N	1.372341	0.121016	0.541208
N79	N	0.871318	-0.448168	0.041207
N80	N	1.371318	0.051832	0.541207
C81	C	0.823440	-0.477187	-0.000220
C82	C	1.323440	0.022813	0.499780
C83	C	0.890852	-0.229893	-0.000236
C84	C	1.390852	0.270107	0.499764
C85	C	0.891926	-0.157068	-0.000225
C86	C	1.391926	0.342932	0.499775
C87	C	0.764659	-0.140029	-0.000189
C88	C	1.264659	0.359971	0.499811
C89	C	0.763587	-0.212852	-0.000193
C90	C	1.263587	0.287148	0.499807
C91	C	0.826685	-0.257780	-0.000220
C92	C	1.326685	0.242220	0.499780
C93	C	0.952150	0.087546	-0.000243
C94	C	1.452150	0.587546	0.499757
C95	C	1.029654	0.088687	-0.000267
C96	C	1.529654	0.588687	0.499733
C97	C	0.818993	0.220700	-0.000213
C98	C	1.318993	0.720700	0.499787
C99	C	0.820132	0.298205	-0.000217
C100	C	1.320132	0.798205	0.499783
N101	N	0.824460	0.093024	0.189491
N102	N	1.324460	0.593024	0.689491
N103	N	0.824512	0.093037	-0.189910
N104	N	1.324512	0.593037	0.310090
C105	C	0.872087	0.045436	0.227790
C106	C	1.372087	0.545436	0.727790
C107	C	0.872092	0.045433	0.304435
C108	C	1.372092	0.545433	0.804435
C109	C	0.824475	0.093030	0.342778
C110	C	1.324475	0.593030	0.842778
C111	C	0.776839	0.140621	0.304469
C112	C	1.276839	0.640621	0.804469
C113	C	0.776831	0.140619	0.227826
C114	C	1.276831	0.640619	0.727826
N115	N	0.815398	0.154838	0.463110
N116	N	1.315398	0.654838	0.963110
N117	N	0.815410	0.154838	0.535918
N118	N	1.315410	0.654838	1.035918
C119	C	0.824495	0.093040	0.573700
C120	C	1.324495	0.593040	1.073700
N121	N	0.833581	0.031240	0.535924
N122	N	1.333581	0.531240	1.035924
N123	N	0.833573	0.031240	0.463109
N124	N	1.333573	0.531240	0.963109
C125	C	0.824478	0.093038	0.425885
C126	C	1.324478	0.593038	0.925885
C127	C	0.872130	0.045445	0.695106
C128	C	1.372130	0.545445	1.195106
C129	C	0.872129	0.045440	0.771752
C130	C	1.372129	0.545440	1.271752
C131	C	0.776880	0.140635	0.771786
C132	C	1.276880	0.640635	1.271786
C133	C	0.776877	0.140633	0.695141
C134	C	1.276877	0.640633	1.195141
C135	C	0.824505	0.093039	0.656806
C136	C	1.324505	0.593039	1.156806
H137	H	0.020966	0.204232	-0.000265
H138	H	0.520966	0.704232	0.499735
H139	H	0.153076	0.206181	-0.000246
H140	H	0.653076	0.706181	0.499754
H141	H	0.738107	0.179386	0.803004
H142	H	1.238107	0.679386	1.303004
H143	H	0.628003	-0.018171	-0.000147
H144	H	1.128003	0.481829	0.499853
O145	O	0.047381	-0.036684	-0.000301
O146	O	0.547381	0.463316	0.499699
C147	C	-0.026528	-0.024105	-0.000297
C148	C	0.473472	0.475895	0.499703
H149	H	-0.043784	0.030436	-0.023350
H150	H	0.456216	0.530436	0.476650
H151	H	-0.048744	-0.065148	-0.035654
H152	H	0.451256	0.434852	0.464346
H153	H	-0.046822	-0.027431	0.058114
H154	H	0.453178	0.472569	0.558114
H155	H	0.738097	0.179386	0.663956
H156	H	1.238097	0.679386	1.163956
H157	H	0.910867	0.006681	0.196579
H158	H	1.410867	0.506681	0.696579
H159	H	0.738046	0.179371	0.196642
H160	H	1.238046	0.679371	0.696642
O161	O	0.190954	-0.034689	-0.000275
O162	O	0.690954	0.465311	0.499725
C163	C	0.150720	-0.091556	-0.000266
C164	C	0.650720	0.408444	0.499734
H165	H	0.096325	-0.073666	-0.023329
H166	H	0.596325	0.426334	0.476671
H167	H	0.177739	-0.135747	-0.035612
H168	H	0.677739	0.364253	0.464388
H169	H	0.145563	-0.111238	0.058148
H170	H	0.645563	0.388762	0.558148
O171	O	0.491591	-0.030241	-0.000282
O172	O	0.991591	0.469759	0.499718
C173	C	0.514592	-0.068679	-0.063347
C174	C	1.014592	0.431321	0.436653
H175	H	0.565056	-0.049806	-0.084358
H176	H	1.065056	0.450194	0.415642
H177	H	0.524868	-0.126854	-0.049163
H178	H	1.024868	0.373146	0.450837
H179	H	0.472453	-0.060460	-0.107516
H180	H	0.972453	0.439540	0.392484
H181	H	0.935677	-0.710485	-0.000259
H182	H	1.435677	-0.210485	0.499741
O183	O	0.947768	-0.574103	-0.000299
O184	O	1.447768	-0.074103	0.499701
C185	C	1.003228	-0.629373	-0.000304
C186	C	1.503228	-0.129373	0.499696
H187	H	0.983809	-0.678787	-0.023341
H188	H	1.483809	-0.178787	0.476659
H189	H	1.048037	-0.614288	-0.035680
H190	H	1.548037	-0.114288	0.464320
H191	H	1.022686	-0.639737	0.058102
H192	H	1.522686	-0.139737	0.558102
O193	O	0.918319	-0.000867	0.657870
O194	O	1.418319	0.499133	1.157870
C195	C	0.907224	-0.069972	0.676591
C196	C	1.407224	0.430028	1.176591
H197	H	0.851338	-0.070202	0.697703
H198	H	1.351338	0.429798	1.197703
H199	H	0.915354	-0.105005	0.626166
H200	H	1.415354	0.394995	1.126166
H201	H	0.946007	-0.090589	0.721040
H202	H	1.446007	0.409411	1.221040
O203	O	0.696839	-0.540370	-0.000308
O204	O	1.196839	-0.040370	0.499692
C205	C	0.693667	-0.497722	-0.063362
C206	C	1.193667	0.002278	0.436638
H207	H	0.729457	-0.524502	-0.107448
H208	H	1.229457	-0.024502	0.392552
H209	H	0.637403	-0.489359	-0.084513
H210	H	1.137403	0.010641	0.415487
H211	H	0.711577	-0.444822	-0.049113
H212	H	1.211577	0.055178	0.450887
H213	H	0.704781	-0.679571	-0.000169
H214	H	1.204781	-0.179571	0.499831
O215	O	0.701299	-0.240027	-0.000278
O216	O	1.201299	0.259973	0.499722
C217	C	0.696871	-0.281619	-0.063349
C218	C	1.196871	0.218381	0.436651
H219	H	0.751960	-0.299925	-0.084387
H220	H	1.251960	0.200075	0.415613
H221	H	0.669181	-0.329223	-0.049161
H222	H	1.169181	0.170777	0.450839
H223	H	0.665891	-0.249344	-0.107499
H224	H	1.165891	0.250656	0.392501
O225	O	0.952207	-0.273441	-0.000223
O226	O	1.452207	0.226559	0.499777
C227	C	1.009074	-0.233208	-0.000254
C228	C	1.509074	0.266792	0.499746
H229	H	0.991183	-0.178803	0.022807
H230	H	1.491183	0.321197	0.522807
H231	H	1.053263	-0.260213	0.035082
H232	H	1.553263	0.239787	0.535082
H233	H	1.028760	-0.228074	-0.058675
H234	H	1.528760	0.271926	0.441325
H235	H	0.713288	-0.103444	-0.000170
H236	H	1.213288	0.396556	0.499830
H237	H	0.944179	-0.134365	-0.000240
H238	H	1.444179	0.365635	0.499760
O239	O	0.918423	-0.000825	0.341535
O240	O	1.418423	0.499175	0.841535
C241	C	0.960443	-0.042849	0.291264
C242	C	1.460443	0.457151	0.791264
H243	H	0.961142	-0.014228	0.236625
H244	H	1.461142	0.485772	0.736625
H245	H	1.016232	-0.053639	0.313386
H246	H	1.516232	0.446361	0.813386
H247	H	0.937934	-0.094661	0.283132
H248	H	1.437934	0.405339	0.783132
H249	H	0.597087	0.212725	-0.000175
H250	H	1.097087	0.712725	0.499825
H251	H	0.738067	0.179374	0.335692
H252	H	1.238067	0.679374	0.835692
O253	O	0.918302	-0.000859	0.808990
O254	O	1.418302	0.499141	1.308990
C255	C	0.881056	-0.043836	0.853361
C256	C	1.381056	0.456164	1.353361
H257	H	0.825999	-0.044885	0.830292
H258	H	1.325999	0.455115	1.330292
H259	H	0.909721	-0.099401	0.854221
H260	H	1.409721	0.400599	1.354221
H261	H	0.877332	-0.021977	0.911447
H262	H	1.377332	0.478023	1.411447
H263	H	0.464977	0.210777	-0.000189
H264	H	0.964977	0.710777	0.499811
