data_functionalizedCrystal
_audit_creation_method	'MofGen! by Chris Wilmer'
_symmetry_space_group_name_H-M	'P1'
_symmetry_Int_Tables_number	1
_symmetry_cell_setting	triclinic
loop_
_symmetry_equiv_pos_as_xyz
  x,y,z
_cell_length_a	12.759401
_cell_length_b	21.295416
_cell_length_c	12.759393
_cell_angle_alpha	90.035622
_cell_angle_beta	89.980324
_cell_angle_gamma	89.969242
loop_
_atom_site_label
_atom_site_type_symbol
_atom_site_fract_x
_atom_site_fract_y
_atom_site_fract_z
Zn1	Zn	1.606152	0.250572	-0.593947
Zn2	Zn	1.605995	0.355854	-0.418252
Zn3	Zn	1.430451	0.250603	-0.418286
Zn4	Zn	1.430395	0.355808	-0.593893
O5	O	1.518248	0.303209	-0.506094
O6	O	1.753152	0.264544	-0.570649
O7	O	1.582667	0.341924	-0.271235
O8	O	1.453847	0.162509	-0.441625
O9	O	1.753037	0.341894	-0.441566
O10	O	1.582934	0.162486	-0.570683
O11	O	1.453695	0.264597	-0.271261
O12	O	1.283423	0.264553	-0.441573
O13	O	1.453752	0.341815	-0.740921
O14	O	1.283381	0.341846	-0.570590
O15	O	1.582880	0.264499	-0.740961
O16	O	1.582613	0.443937	-0.441514
O17	O	1.453600	0.443903	-0.570556
C18	C	1.245281	0.303198	-0.506080
C19	C	1.128504	0.303209	-0.506098
C20	C	1.073703	0.263005	-0.573415
C21	C	0.963979	0.263012	-0.573422
C22	C	0.963867	0.343430	-0.438792
C23	C	1.073589	0.343420	-0.438781
C24	C	0.814093	0.188813	-0.611202
C25	C	0.759288	0.148615	-0.678535
C26	C	0.794951	0.139021	-0.781075
C27	C	0.885417	0.169634	-0.816302
C28	C	0.940217	0.209836	-0.748975
C29	C	0.904555	0.219419	-0.646420
C30	C	1.223477	0.417620	-0.401012
C31	C	1.278278	0.457826	-0.333689
C32	C	1.242618	0.467427	-0.231147
C33	C	1.152148	0.436825	-0.195923
C34	C	1.097347	0.396619	-0.263247
C35	C	1.133015	0.387017	-0.365787
C36	C	1.518111	0.466761	-0.506048
C37	C	1.518149	0.536729	-0.506063
C38	C	1.585386	0.569592	-0.438942
C39	C	1.585436	0.635335	-0.438970
C40	C	1.518229	0.668211	-0.506109
C41	C	1.450988	0.635340	-0.573243
C42	C	1.450948	0.569599	-0.573221
N43	N	1.426323	0.771477	-0.514121
N44	N	1.426364	0.833928	-0.514136
C45	C	1.518348	0.866286	-0.506184
N46	N	1.610291	0.833833	-0.498194
N47	N	1.610249	0.771376	-0.498173
C48	C	1.518266	0.739497	-0.506142
C49	C	1.585644	0.970435	-0.439089
C50	C	1.585696	1.036178	-0.439125
C51	C	1.451239	1.036183	-0.573393
C52	C	1.451197	0.970440	-0.573362
C53	C	1.518398	0.937570	-0.506205
C54	C	1.792282	0.303220	-0.506110
C55	C	1.909058	0.303225	-0.506117
C56	C	1.518416	1.139019	-0.506182
C57	C	1.518490	1.069051	-0.506266
C58	C	1.518327	0.303149	-0.780128
C59	C	1.518361	0.303123	-0.896905
C60	C	1.585603	0.262858	-0.951789
C61	C	1.585620	0.262831	-1.061513
C62	C	1.451151	0.343339	-1.061459
C63	C	1.451129	0.343363	-0.951737
C64	C	1.623266	0.188561	-1.211502
C65	C	1.690525	0.148301	-1.266390
C66	C	1.793042	0.138650	-1.230798
C67	C	1.828321	0.169267	-1.140319
C68	C	1.761069	0.209531	-1.085436
C69	C	1.658537	0.219171	-1.121027
C70	C	1.413494	0.417633	-0.801746
C71	C	1.346245	0.457901	-0.746862
C72	C	1.243727	0.467559	-0.782452
C73	C	1.208451	0.436953	-0.872934
C74	C	1.275699	0.396685	-0.927819
C75	C	1.378217	0.387026	-0.892221
C76	C	1.518231	0.303224	-0.233127
C77	C	1.518401	0.303072	-0.116351
H78	H	1.023681	0.371701	-0.234559
C79	C	1.645145	0.736114	-0.379348
C80	C	1.659317	0.671469	-0.365156
H81	H	1.690753	0.758419	-0.333773
H82	H	1.574566	0.746918	-0.363946
H83	H	1.660525	0.746846	-0.449948
H84	H	1.643929	0.660736	-0.294557
H85	H	1.729912	0.660660	-0.380550
C86	C	0.647783	0.069990	-0.802516
C87	C	0.734714	0.094832	-0.855087
H88	H	0.610599	0.042705	-0.848203
H89	H	0.603047	0.103225	-0.780879
H90	H	0.670751	0.047183	-0.742820
H91	H	0.711745	0.117642	-0.914779
H92	H	0.779458	0.061592	-0.876739
H93	H	1.789794	0.234461	-1.011774
C94	C	1.880015	0.116564	-1.393608
C95	C	1.866986	0.094404	-1.291132
H96	H	1.925660	0.089247	-1.430858
H97	H	1.909318	0.157540	-1.391724
H98	H	1.813902	0.117921	-1.427746
H99	H	1.933098	0.093051	-1.256992
H100	H	1.837686	0.053417	-1.293012
H101	H	1.640455	1.062935	-0.384469
C102	C	0.673568	0.224588	-0.501093
C103	C	0.774894	0.199354	-0.498481
H104	H	0.649368	0.231099	-0.431503
H105	H	0.627993	0.196267	-0.536148
H106	H	0.674629	0.263518	-0.537386
H107	H	0.773831	0.160422	-0.462195
H108	H	0.820479	0.227676	-0.463411
H109	H	1.123108	0.444645	-0.112427
H110	H	1.661790	0.123373	-1.340058
H111	H	1.911805	0.161409	-1.111353
H112	H	1.396194	0.542841	-0.627880
H113	H	1.640367	0.943671	-0.384409
H114	H	1.539786	0.196411	-1.240484
H115	H	1.351954	0.482735	-0.362371
C116	C	1.391483	0.379054	-1.229632
C117	C	1.377261	0.387574	-1.121734
H118	H	1.345870	0.406368	-1.266839
H119	H	1.376152	0.336760	-1.247626
H120	H	1.462071	0.388268	-1.247607
H121	H	1.306674	0.378356	-1.103758
H122	H	1.392584	0.429878	-1.103733
C123	C	0.795620	0.379159	-0.379038
C124	C	0.903501	0.387635	-0.364809
H125	H	0.758357	0.406454	-0.333368
H126	H	0.777663	0.336860	-0.363789
H127	H	0.777678	0.388424	-0.449606
H128	H	0.921445	0.378365	-0.294242
H129	H	0.921466	0.429944	-0.380051
H130	H	1.246969	0.371764	-1.001494
C131	C	1.318090	0.628742	-0.705962
C132	C	1.377115	0.671475	-0.647047
H133	H	1.272491	0.651051	-0.751534
H134	H	1.277910	0.603146	-0.660146
H135	H	1.363842	0.603055	-0.746176
H136	H	1.331363	0.697159	-0.606827
H137	H	1.417298	0.697081	-0.692868
H138	H	1.124973	0.444819	-0.901915
H139	H	1.374980	0.482828	-0.673193
C140	C	1.138024	0.560813	-0.788028
C141	C	1.169806	0.511826	-0.722125
H142	H	1.092393	0.588141	-0.750784
H143	H	1.102347	0.543960	-0.846993
H144	H	1.197782	0.583568	-0.810987
H145	H	1.110049	0.489069	-0.699172
H146	H	1.205483	0.528680	-0.663141
C147	C	1.718300	0.576197	-0.306235
C148	C	1.659268	0.533462	-0.365139
H149	H	1.763918	0.553889	-0.260680
H150	H	1.672562	0.601878	-0.266013
H151	H	1.758470	0.601798	-0.352066
H152	H	1.619092	0.507864	-0.319307
H153	H	1.705012	0.507770	-0.405363
H154	H	1.496971	0.409768	-0.772754
H155	H	1.013876	0.234758	-0.777654
H156	H	0.685630	0.123690	-0.649843
H157	H	1.252527	0.409801	-0.484508
C158	C	1.197158	0.254349	-0.714759
C159	C	1.134067	0.218802	-0.647403
H160	H	1.234416	0.227057	-0.760439
H161	H	1.245497	0.278286	-0.674667
H162	H	1.154342	0.281806	-0.754864
H163	H	1.176884	0.191348	-0.607293
H164	H	1.085722	0.194855	-0.687500
C165	C	1.389787	0.536468	-0.209712
C166	C	1.302853	0.511627	-0.157145
H167	H	1.426971	0.563751	-0.164022
H168	H	1.366826	0.559271	-0.269403
H169	H	1.434529	0.503228	-0.231347
H170	H	1.258106	0.544867	-0.135517
H171	H	1.325812	0.488823	-0.097434
H172	H	1.396523	1.062950	-0.628063
H173	H	0.914440	0.161824	-0.899805
C174	C	1.645276	0.227143	-0.783617
C175	C	1.659490	0.218621	-0.891515
H176	H	1.690895	0.199832	-0.746411
H177	H	1.574699	0.217933	-0.765637
H178	H	1.660613	0.269444	-0.765627
H179	H	1.644146	0.176321	-0.909507
H180	H	1.730084	0.227827	-0.909503
C181	C	1.318288	0.977050	-0.706065
C182	C	1.377272	0.934312	-0.647131
H183	H	1.272645	0.954745	-0.751604
H184	H	1.364056	1.002643	-0.746305
H185	H	1.278147	1.002739	-0.660252
H186	H	1.417420	0.908626	-0.692945
H187	H	1.331499	0.908708	-0.606889
