data_functionalizedCrystal
_audit_creation_method	'MofGen! by Chris Wilmer'
_symmetry_space_group_name_H-M	'P1'
_symmetry_Int_Tables_number	1
_symmetry_cell_setting	triclinic
loop_
_symmetry_equiv_pos_as_xyz
  x,y,z
_cell_length_a	6.817900
_cell_length_b	19.551786
_cell_length_c	11.168136
_cell_angle_alpha	94.548232
_cell_angle_beta	108.508683
_cell_angle_gamma	101.662645
loop_
_atom_site_label
_atom_site_type_symbol
_atom_site_fract_x
_atom_site_fract_y
_atom_site_fract_z
V1	V	-4.075375	-0.096685	-0.394285
O2	O	-4.071121	0.004635	-0.386177
O3	O	-4.017751	-0.191700	-0.392169
O4	O	-4.052194	-0.095202	-0.565982
O5	O	-4.036439	-0.092530	-0.211160
V6	V	-4.556930	-0.084565	-0.372312
O7	O	-4.340950	-0.123270	-0.442487
O8	O	-4.741552	-0.057980	-0.324111
O9	O	-4.391347	0.010449	-0.374428
O10	O	-4.678581	-0.185886	-0.380421
O11	O	-4.713262	-0.088720	-0.555437
O12	O	-4.356904	-0.086048	-0.200615
C13	C	-3.859692	-0.214862	-0.386099
C14	C	-3.894033	-0.292538	-0.385513
C15	C	-3.903627	-0.091769	-0.607813
C16	C	-3.965897	-0.091186	-0.748180
C17	C	-4.087203	-0.842291	-0.265740
C18	C	-4.054915	-0.769305	-0.266278
C19	C	-4.093115	-0.742749	-0.382173
C20	C	-4.163557	-0.789185	-0.497537
C21	C	-4.195822	-0.862169	-0.496995
C22	C	-4.201412	-0.637090	-0.476446
C23	C	-4.169158	-0.564107	-0.476983
C24	C	-3.993592	-0.517642	-0.383849
C25	C	-3.850300	-0.544168	-0.290156
C26	C	-3.882565	-0.617152	-0.289614
C27	C	-4.058134	-0.663611	-0.382773
C28	C	-3.888133	-0.392076	-0.269074
C29	C	-3.855834	-0.319088	-0.269616
C30	C	-3.964499	-0.338971	-0.500880
C31	C	-3.996775	-0.411956	-0.500334
C32	C	-3.958598	-0.438504	-0.384428
C33	C	-4.167315	-0.094240	-0.816890
C34	C	-4.231678	-0.093637	-0.961967
C35	C	-4.212747	0.033608	-0.380495
C36	C	-4.157645	0.111283	-0.381089
C37	C	-4.168812	-0.089483	-0.158777
C38	C	-4.085781	-0.090063	-0.018409
H39	H	-4.056108	-0.863901	-0.171360
H40	H	-3.765887	-0.638747	-0.213329
O41	O	-3.816868	-0.087625	-0.806004
C42	C	-3.726515	-0.146441	-0.787475
H43	H	-3.747481	-0.168098	-0.699339
H44	H	-3.549497	-0.129595	-0.773258
H45	H	-3.809500	-0.189190	-0.874841
O46	O	-4.308498	-0.538303	-0.567829
C47	C	-4.399579	-0.493270	-0.508600
H48	H	-4.388888	-0.507228	-0.409900
H49	H	-4.573858	-0.500121	-0.569364
H50	H	-4.309647	-0.436046	-0.498640
H51	H	-3.997540	-0.731497	-0.172343
H52	H	-3.707339	-0.506338	-0.214318
H53	H	-3.913231	-0.087453	-0.959352
H54	H	-3.857032	-0.413692	-0.174696
O55	O	-4.437519	-0.096848	-1.032586
C56	C	-4.517260	-0.157543	-1.126745
H57	H	-4.378969	-0.174702	-1.146605
H58	H	-4.627684	-0.144958	-1.218339
H59	H	-4.609606	-0.202048	-1.091431
O60	O	-4.264629	-0.907250	-0.609100
C61	C	-4.463901	-0.898927	-0.686732
H62	H	-4.544949	-0.875477	-0.624219
H63	H	-4.568223	-0.952601	-0.741220
H64	H	-4.439672	-0.861976	-0.757530
O65	O	-4.316199	-0.098016	-0.758925
C66	C	-4.328188	-0.159324	-0.700481
H67	H	-4.266779	-0.199675	-0.748887
H68	H	-4.500865	-0.182823	-0.710431
H69	H	-4.226621	-0.145052	-0.594869
H70	H	-3.995592	-0.317350	-0.595244
O71	O	-3.787476	-0.274087	-0.157448
C72	C	-3.760652	-0.313173	-0.055036
H73	H	-3.863245	-0.369383	-0.091161
H74	H	-3.810949	-0.287082	0.021669
H75	H	-3.586078	-0.314659	-0.012804
O76	O	-4.372206	-0.682188	-0.566812
C77	C	-4.561527	-0.667004	-0.558646
H78	H	-4.529412	-0.638725	-0.458611
H79	H	-4.688697	-0.718381	-0.578786
H80	H	-4.619560	-0.631628	-0.631935
O81	O	-4.065323	-0.456963	-0.612505
C82	C	-4.092066	-0.417876	-0.714914
H83	H	-4.116793	-0.364208	-0.684015
H84	H	-4.237002	-0.447866	-0.799631
H85	H	-3.944034	-0.409947	-0.743908
O86	O	-4.200345	-0.763419	-0.610136
C87	C	-4.067179	-0.783832	-0.673219
H88	H	-3.922546	-0.795645	-0.600422
H89	H	-4.012160	-0.739174	-0.723626
H90	H	-4.159148	-0.833181	-0.746616
