data_functionalizedCrystal
_audit_creation_method	'MofGen! by Chris Wilmer'
_symmetry_space_group_name_H-M	'P1'
_symmetry_Int_Tables_number	1
_symmetry_cell_setting	triclinic
loop_
_symmetry_equiv_pos_as_xyz
  x,y,z
_cell_length_a	13.635800
_cell_length_b	19.453103
_cell_length_c	17.110486
_cell_angle_alpha	83.310998
_cell_angle_beta	99.060439
_cell_angle_gamma	78.290822
loop_
_atom_site_label
_atom_site_type_symbol
_atom_site_fract_x
_atom_site_fract_y
_atom_site_fract_z
V1	V	1.984050	-0.096972	0.247087
O2	O	1.982908	0.004875	0.242005
O3	O	1.955640	-0.192486	0.245761
O4	O	1.949051	-0.095386	0.354684
O5	O	1.989543	-0.092897	0.132328
V6	V	2.227809	-0.084801	0.233317
O7	O	2.110298	-0.123670	0.277293
O8	O	2.326660	-0.058103	0.203110
O9	O	2.144616	0.010713	0.234643
O10	O	2.287649	-0.186648	0.238399
O11	O	2.281015	-0.088876	0.348076
O12	O	2.151205	-0.086387	0.125720
V13	V	2.484050	-0.096972	0.247087
O14	O	2.482908	0.004875	0.242005
O15	O	2.455640	-0.192486	0.245761
O16	O	2.449051	-0.095386	0.354684
O17	O	2.489543	-0.092897	0.132328
V18	V	2.727809	-0.084801	0.233317
O19	O	2.610298	-0.123670	0.277293
O20	O	2.826660	-0.058103	0.203110
O21	O	2.644616	0.010713	0.234643
O22	O	2.787649	-0.186648	0.238399
O23	O	2.781015	-0.088876	0.348076
O24	O	2.651205	-0.086387	0.125720
C25	C	1.877466	-0.215773	0.241957
C26	C	1.894808	-0.293856	0.241590
C27	C	1.993446	-0.334108	0.245375
C28	C	2.009743	-0.407477	0.245038
C29	C	1.927394	-0.440588	0.240901
C30	C	1.828743	-0.400328	0.237120
C31	C	1.812451	-0.326961	0.237465
N32	N	1.877904	-0.546894	0.192137
N33	N	1.893388	-0.616589	0.191808
C34	C	1.976478	-0.661636	0.239864
N35	N	2.043514	-0.634355	0.288251
N36	N	2.028031	-0.564654	0.288577
C37	C	1.945051	-0.520141	0.240527
C38	C	2.092793	-0.781444	0.243285
C39	C	2.109088	-0.854814	0.242953
C40	C	1.928084	-0.847662	0.235027
C41	C	1.911793	-0.774294	0.235367
C42	C	1.994151	-0.741189	0.239492
C43	C	1.869060	-0.091911	0.380898
C44	C	1.881058	-0.091247	0.468862
C45	C	2.054461	0.033997	0.238445
C46	C	2.026737	0.112079	0.238817
C47	C	2.062867	-0.089864	0.099501
C48	C	2.040488	-0.090525	0.011537
C49	C	2.377466	-0.215773	0.241957
C50	C	2.394808	-0.293856	0.241590
C51	C	2.369060	-0.091911	0.380898
C52	C	2.381058	-0.091247	0.468862
C53	C	1.977184	-0.094440	0.514232
C54	C	1.988452	-0.093815	0.596883
C55	C	1.903594	-0.090001	0.634163
C56	C	1.807460	-0.086806	0.588787
C57	C	1.796192	-0.087426	0.506137
C58	C	1.933086	-0.087949	0.883510
C59	C	1.944362	-0.087332	0.966167
C60	C	2.125354	-0.094339	0.974257
C61	C	2.114078	-0.094963	0.891606
C62	C	2.017945	-0.091764	0.846236
C63	C	1.915109	-0.089365	0.718646
C64	C	2.006430	-0.092396	0.761754
C65	C	2.554461	0.033997	0.238445
C66	C	2.526737	0.112079	0.238817
C67	C	2.562867	-0.089864	0.099501
C68	C	2.540488	-0.090525	0.011537
C69	C	2.493457	-0.334103	0.245385
C70	C	2.509769	-0.407473	0.245053
C71	C	2.427429	-0.440593	0.240920
C72	C	2.328773	-0.400342	0.237127
C73	C	2.312464	-0.326974	0.237465
C74	C	2.477190	-0.094433	0.514217
C75	C	2.488476	-0.093799	0.596867
C76	C	2.403629	-0.089984	0.634162
C77	C	2.307489	-0.086795	0.588800
C78	C	2.296203	-0.087424	0.506150
C79	C	2.600582	0.152326	0.235024
C80	C	2.574541	0.225695	0.235360
C81	C	2.474658	0.258815	0.239495
C82	C	2.400807	0.218564	0.243286
C83	C	2.426846	0.145197	0.242944
C84	C	2.443103	-0.094332	-0.025737
C85	C	2.422058	-0.094945	-0.108390
C86	C	2.498403	-0.091756	-0.153766
C87	C	2.595795	-0.087946	-0.116488
C88	C	2.616836	-0.087328	-0.033837
H89	H	2.060511	-0.307160	0.248739
Cl90	Cl	2.609346	-0.097814	0.653878
Cl91	Cl	1.688439	-0.276356	0.232705
H92	H	2.203622	-0.096943	1.011206
H93	H	1.846020	-0.086263	0.749009
Cl94	Cl	2.133755	-0.458090	0.249797
H95	H	2.590105	-0.440236	0.248139
Cl96	Cl	2.667397	0.276281	0.230597
Cl97	Cl	2.113104	-0.097189	0.714886
H98	H	2.189413	-0.887588	0.246040
Cl99	Cl	2.583871	-0.099228	0.467351
Cl100	Cl	2.220764	-0.099760	0.844746
Cl101	Cl	2.225270	-0.441989	0.231926
Cl102	Cl	2.596988	-0.292483	0.250590
Cl103	Cl	2.417835	-0.089197	0.738067
H104	H	2.481260	-0.092268	-0.221064
H105	H	2.440723	-0.500335	0.240645
Cl106	Cl	2.188436	-0.276385	0.232686
Cl107	Cl	1.837674	-0.082537	1.013032
Cl108	Cl	1.675342	-0.083405	0.449098
H109	H	1.854817	-0.085369	0.846584
Cl110	Cl	2.691764	-0.083946	-0.173543
H111	H	1.738367	-0.083697	0.619146
H112	H	2.217921	-0.084831	0.469228
Cl113	Cl	2.739278	-0.082553	0.013013
Cl114	Cl	2.200836	-0.082009	0.635698
H115	H	2.453468	0.318556	0.239773
Cl116	Cl	1.725219	-0.441953	0.231924
H117	H	2.681918	0.125369	0.231658
Cl118	Cl	2.275241	0.260213	0.248480
H119	H	2.159854	-0.754488	0.246642
Cl120	Cl	2.333998	0.094609	0.247715
H121	H	2.380926	-0.096929	0.011199
Cl122	Cl	2.109303	-0.097839	0.653918
H123	H	2.342751	-0.098047	-0.138730
Cl124	Cl	1.787783	-0.723687	0.230601
Cl125	Cl	1.824558	-0.889282	0.229835
Cl126	Cl	2.083872	-0.099239	0.467375
