data_functionalizedCrystal
_audit_creation_method	'MofGen! by Chris Wilmer'
_symmetry_space_group_name_H-M	'P1'
_symmetry_Int_Tables_number	1
_symmetry_cell_setting	triclinic
loop_
_symmetry_equiv_pos_as_xyz
  x,y,z
_cell_length_a	14.519731
_cell_length_b	13.596369
_cell_length_c	14.519731
_cell_angle_alpha	89.988654
_cell_angle_beta	96.311147
_cell_angle_gamma	90.005416
loop_
_atom_site_label
_atom_site_type_symbol
_atom_site_fract_x
_atom_site_fract_y
_atom_site_fract_z
O1	O	1.223866	0.081806	-0.120985
O2	O	1.557199	0.415139	0.212348
O3	O	1.890532	0.748472	0.545682
O4	O	0.955392	0.081809	-0.135201
O5	O	1.288726	0.415142	0.198132
O6	O	1.622059	0.748475	0.531466
O7	O	1.096737	0.081787	0.006144
O8	O	1.430070	0.415120	0.339477
O9	O	1.763404	0.748454	0.672810
O10	O	1.082521	0.081827	-0.262330
O11	O	1.415854	0.415160	0.071004
O12	O	1.749188	0.748494	0.404337
O13	O	1.096723	-0.081796	0.006151
O14	O	1.430056	0.251538	0.339484
O15	O	1.763390	0.584871	0.672818
O16	O	0.955378	-0.081774	-0.135194
O17	O	1.288712	0.251559	0.198140
O18	O	1.622045	0.584892	0.531473
O19	O	1.223851	-0.081777	-0.120978
O20	O	1.557185	0.251556	0.212356
O21	O	1.890518	0.584889	0.545689
Zn22	Zn	1.089613	-0.107748	-0.128084
Zn23	Zn	1.422946	0.225585	0.205249
Zn24	Zn	1.756279	0.558919	0.538582
Zn25	Zn	1.089631	0.107779	-0.128094
Zn26	Zn	1.422965	0.441113	0.205239
Zn27	Zn	1.756298	0.774446	0.538572
O28	O	1.082507	-0.081756	-0.262322
O29	O	1.415840	0.251577	0.071011
O30	O	1.749174	0.584911	0.404345
C31	C	0.921026	0.000017	-0.134531
C32	C	1.254359	0.333351	0.198802
C33	C	1.587693	0.666684	0.532136
C34	C	0.818645	0.000017	-0.132535
C35	C	1.151979	0.333351	0.200798
C36	C	1.485312	0.666684	0.534132
N37	N	1.089607	-0.254840	-0.128077
N38	N	1.422940	0.078493	0.205256
N39	N	1.756273	0.411827	0.538590
C40	C	1.089630	-0.656131	-0.128095
C41	C	1.422963	-0.322798	0.205238
C42	C	1.756297	0.010536	0.538571
C43	C	1.089621	-0.544480	-0.128093
C44	C	1.422954	-0.211146	0.205240
C45	C	1.756287	0.122187	0.538573
C46	C	1.089619	-0.455489	-0.128087
C47	C	1.422952	-0.122156	0.205246
C48	C	1.756285	0.211178	0.538580
C49	C	1.089609	-0.343831	-0.128084
C50	C	1.422942	-0.010497	0.205250
C51	C	1.756275	0.322836	0.538583
C52	C	0.735501	0.000021	-0.130913
C53	C	1.068835	0.333354	0.202420
C54	C	1.402168	0.666688	0.535753
C55	C	0.631192	0.000021	-0.128887
C56	C	0.964526	0.333355	0.204447
C57	C	1.297859	0.666688	0.537780
C58	C	0.548053	0.000021	-0.127278
C59	C	0.881386	0.333354	0.206055
C60	C	1.214720	0.666688	0.539388
C61	C	0.443738	0.000023	-0.125252
C62	C	0.777071	0.333356	0.208081
C63	C	1.110404	0.666689	0.541415
C64	C	1.258218	0.000016	-0.121648
C65	C	1.591551	0.333350	0.211686
C66	C	1.924885	0.666683	0.545019
C67	C	1.360598	0.000022	-0.123644
C68	C	1.693932	0.333356	0.209690
C69	C	2.027265	0.666689	0.543023
C70	C	1.096064	-0.000007	0.040507
C71	C	1.429397	0.333326	0.373840
C72	C	1.762730	0.666659	0.707173
C73	C	1.094068	-0.000016	0.142887
C74	C	1.427401	0.333317	0.476220
C75	C	1.760734	0.666650	0.809554
N76	N	1.089644	0.254871	-0.128094
N77	N	1.422978	0.588205	0.205239
N78	N	1.756311	0.921538	0.538572
C79	C	1.092446	-0.000021	0.226031
C80	C	1.425779	0.333313	0.559365
C81	C	1.759113	0.666646	0.892698
C82	C	1.090419	-0.000022	0.330340
C83	C	1.423753	0.333312	0.663674
C84	C	1.757086	0.666645	0.997007
C85	C	1.088811	-0.000022	0.413479
C86	C	1.422144	0.333311	0.746813
C87	C	1.755478	0.666645	1.080146
C88	C	1.086785	-0.000025	0.517795
C89	C	1.420118	0.333308	0.851128
C90	C	1.753451	0.666642	1.184462
C91	C	1.083180	0.000020	0.703315
C92	C	1.416513	0.333354	1.036648
C93	C	1.749847	0.666687	1.369981
C94	C	1.085176	-0.000025	0.600934
C95	C	1.418509	0.333308	0.934268
C96	C	1.751843	0.666641	1.267601
