data_functionalizedCrystal
_audit_creation_method	'MofGen! by Chris Wilmer'
_symmetry_space_group_name_H-M	'P1'
_symmetry_Int_Tables_number	1
_symmetry_cell_setting	triclinic
loop_
_symmetry_equiv_pos_as_xyz
  x,y,z
_cell_length_a	19.288866
_cell_length_b	19.288859
_cell_length_c	18.366186
_cell_angle_alpha	89.994011
_cell_angle_beta	90.007516
_cell_angle_gamma	96.864815
loop_
_atom_site_label
_atom_site_type_symbol
_atom_site_fract_x
_atom_site_fract_y
_atom_site_fract_z
O1	O	-0.921350	0.086652	-0.060523
O2	O	-0.588017	0.419985	0.272810
O3	O	-0.254684	0.753319	0.606144
O4	O	-0.719090	0.098340	-0.060530
O5	O	-0.385756	0.431674	0.272803
O6	O	-0.052423	0.765007	0.606137
O7	O	-0.826067	-0.008634	-0.060522
O8	O	-0.492733	0.324699	0.272811
O9	O	-0.159400	0.658032	0.606145
O10	O	-0.814373	0.193627	-0.060531
O11	O	-0.481040	0.526960	0.272802
O12	O	-0.147707	0.860293	0.606136
O13	O	-0.826048	-0.008640	0.060577
O14	O	-0.492715	0.324694	0.393911
O15	O	-0.159382	0.658027	0.727244
O16	O	-0.719071	0.098335	0.060569
O17	O	-0.385738	0.431668	0.393903
O18	O	-0.052405	0.765002	0.727236
O19	O	-0.921332	0.086647	0.060576
O20	O	-0.587999	0.419980	0.393910
O21	O	-0.254666	0.753314	0.727243
Zn22	Zn	-0.820199	0.092490	0.079800
Zn23	Zn	-0.486866	0.425823	0.413133
Zn24	Zn	-0.153532	0.759157	0.746467
Zn25	Zn	-0.820223	0.092497	-0.079754
Zn26	Zn	-0.486889	0.425830	0.253580
Zn27	Zn	-0.153556	0.759164	0.586913
O28	O	-0.814355	0.193622	0.060568
O29	O	-0.481022	0.526955	0.393902
O30	O	-0.147689	0.860288	0.727235
C31	C	-0.693204	0.097961	0.000019
C32	C	-0.359871	0.431295	0.333352
C33	C	-0.026537	0.764628	0.666685
C34	C	-0.616101	0.096832	0.000016
C35	C	-0.282767	0.430165	0.333349
C36	C	0.050566	0.763499	0.666683
C37	C	-0.060545	0.088701	-0.065987
C38	C	0.272788	0.422034	0.267346
C39	C	0.606122	0.755367	0.600680
C40	C	-0.132993	0.089758	-0.065990
C41	C	0.200341	0.423091	0.267344
C42	C	0.533674	0.756424	0.600677
C43	C	-0.169211	0.090287	0.000021
C44	C	0.164122	0.423620	0.333355
C45	C	0.497455	0.756953	0.666688
C46	C	-0.132979	0.089740	0.066040
C47	C	0.200355	0.423074	0.399374
C48	C	0.533688	0.756407	0.732707
C49	C	-0.060534	0.088677	0.066041
C50	C	0.272800	0.422010	0.399374
C51	C	0.606133	0.755343	0.732708
C52	C	-0.278530	0.132652	0.050593
C53	C	0.054803	0.465985	0.383926
C54	C	0.388137	0.799318	0.717259
C55	C	-0.350973	0.133720	0.050589
C56	C	-0.017640	0.467053	0.383923
C57	C	0.315693	0.800386	0.717256
C58	C	-0.392657	0.093565	0.000022
C59	C	-0.059324	0.426898	0.333355
C60	C	0.274010	0.760231	0.666688
C61	C	-0.361887	0.052350	-0.050555
C62	C	-0.028554	0.385684	0.282779
C63	C	0.304780	0.719017	0.616112
C64	C	-0.289442	0.051287	-0.050554
C65	C	0.043892	0.384620	0.282780
C66	C	0.377225	0.717953	0.616113
C67	C	-0.247766	0.091440	0.000028
C68	C	0.085567	0.424773	0.333361
C69	C	0.418901	0.758106	0.666695
C70	C	-0.507437	0.095252	-0.065996
C71	C	-0.174104	0.428585	0.267338
C72	C	0.159229	0.761918	0.600671
C73	C	-0.579887	0.096304	-0.065996
C74	C	-0.246553	0.429638	0.267338
C75	C	0.086780	0.762971	0.600671
C76	C	-0.579871	0.096294	0.066036
C77	C	-0.246537	0.429628	0.399369
C78	C	0.086796	0.762961	0.732703
C79	C	-0.507423	0.095235	0.066034
C80	C	-0.174090	0.428568	0.399367
C81	C	0.159243	0.761901	0.732701
C82	C	-0.471211	0.094717	0.000016
C83	C	-0.137877	0.428050	0.333349
C84	C	0.195456	0.761383	0.666683
C85	C	-0.825682	-0.034514	0.000027
C86	C	-0.492349	0.298820	0.333360
C87	C	-0.159015	0.632153	0.666694
C88	C	-0.824555	-0.111617	0.000026
C89	C	-0.491221	0.221716	0.333359
C90	C	-0.157888	0.555049	0.666692
C91	C	-0.879698	-0.675658	0.000009
C92	C	-0.546365	-0.342325	0.333342
C93	C	-0.213031	-0.008991	0.666675
C94	C	-0.880763	-0.603211	0.000015
C95	C	-0.547430	-0.269878	0.333348
C96	C	-0.214097	0.063455	0.666682
C97	C	-0.817994	-0.558505	0.000013
C98	C	-0.484661	-0.225172	0.333346
C99	C	-0.151327	0.108162	0.666679
C100	C	-0.754155	-0.586250	0.000022
C101	C	-0.420821	-0.252917	0.333356
C102	C	-0.087488	0.080417	0.666689
C103	C	-0.753091	-0.658695	0.000023
C104	C	-0.419758	-0.325362	0.333356
C105	C	-0.086425	0.007971	0.666690
C106	C	-0.771187	-0.437229	-0.042414
C107	C	-0.437854	-0.103896	0.290919
C108	C	-0.104521	0.229437	0.624252
C109	C	-0.772254	-0.364786	-0.042419
C110	C	-0.438920	-0.031452	0.290914
C111	C	-0.105587	0.301881	0.624247
C112	C	-0.821272	-0.335059	0.000013
C113	C	-0.487938	-0.001726	0.333347
C114	C	-0.154605	0.331608	0.666680
C115	C	-0.869235	-0.377786	0.042442
C116	C	-0.535902	-0.044453	0.375776
C117	C	-0.202568	0.288880	0.709109
C118	C	-0.868172	-0.450232	0.042443
C119	C	-0.534838	-0.116898	0.375776
C120	C	-0.201505	0.216435	0.709110
C121	C	-0.819140	-0.479949	0.000012
C122	C	-0.485807	-0.146616	0.333346
C123	C	-0.152473	0.186718	0.666679
C124	C	-0.886262	-0.228767	0.000016
C125	C	-0.552929	0.104566	0.333349
C126	C	-0.219595	0.437899	0.666683
C127	C	-0.887325	-0.156319	0.000027
C128	C	-0.553991	0.177014	0.333360
C129	C	-0.220658	0.510348	0.666694
C130	C	-0.760714	-0.139359	0.000027
C131	C	-0.427381	0.193974	0.333360
C132	C	-0.094048	0.527308	0.666694
C133	C	-0.759653	-0.211806	0.000023
C134	C	-0.426320	0.121527	0.333356
C135	C	-0.092987	0.454861	0.666690
C136	C	-0.822429	-0.256506	0.000014
C137	C	-0.489096	0.076827	0.333348
C138	C	-0.155763	0.410161	0.666681
C139	C	0.052782	0.087027	0.000026
C140	C	0.386116	0.420360	0.333359
C141	C	0.719449	0.753693	0.666692
C142	C	-0.024321	0.088159	0.000023
C143	C	0.309013	0.421492	0.333356
C144	C	0.642346	0.754825	0.666690
C145	C	-0.814740	0.219501	0.000017
C146	C	-0.481406	0.552834	0.333351
C147	C	-0.148073	0.886167	0.666684
C148	C	-0.815867	0.296604	0.000014
C149	C	-0.482534	0.629938	0.333347
C150	C	-0.149200	0.963271	0.666681
N151	N	-0.820188	0.092485	0.188691
N152	N	-0.486854	0.425818	0.522024
N153	N	-0.153521	0.759152	0.855358
N154	N	-0.820240	0.092497	-0.188645
N155	N	-0.486906	0.425830	0.144688
N156	N	-0.153573	0.759163	0.478022
C157	C	-0.867573	0.045140	0.226795
C158	C	-0.534239	0.378473	0.560128
C159	C	-0.200906	0.711806	0.893462
C160	C	-0.867577	0.045137	0.303023
C161	C	-0.534244	0.378470	0.636356
C162	C	-0.200910	0.711803	0.969690
C163	C	-0.820203	0.092491	0.341144
C164	C	-0.486870	0.425824	0.674477
C165	C	-0.153536	0.759157	1.007810
C166	C	-0.772809	0.139839	0.303031
C167	C	-0.439476	0.473173	0.636364
C168	C	-0.106143	0.806506	0.969697
C169	C	-0.772802	0.139837	0.226804
C170	C	-0.439468	0.473170	0.560138
C171	C	-0.106135	0.806503	0.893471
C172	C	-0.810904	0.155779	0.461901
C173	C	-0.477570	0.489112	0.795234
C174	C	-0.144237	0.822445	1.128568
C175	C	-0.810916	0.155782	0.538126
C176	C	-0.477583	0.489116	0.871459
C177	C	-0.144249	0.822449	1.204793
C178	C	-0.820223	0.092499	0.576251
C179	C	-0.486890	0.425833	0.909585
C180	C	-0.153556	0.759166	1.242918
C181	C	-0.829532	0.029210	0.538142
C182	C	-0.496199	0.362543	0.871476
C183	C	-0.162865	0.695876	1.204809
C184	C	-0.829524	0.029207	0.461916
C185	C	-0.496191	0.362540	0.795249
C186	C	-0.162857	0.695874	1.128583
C187	C	-0.820206	0.092499	0.423799
C188	C	-0.486873	0.425832	0.757132
C189	C	-0.153539	0.759165	1.090465
C190	C	-0.867615	0.045147	0.697010
C191	C	-0.534282	0.378480	1.030344
C192	C	-0.200948	0.711814	1.363677
C193	C	-0.867615	0.045143	0.773239
C194	C	-0.534281	0.378476	1.106573
C195	C	-0.200948	0.711810	1.439906
C196	C	-0.772850	0.139852	0.773246
C197	C	-0.439517	0.473185	1.106579
C198	C	-0.106184	0.806518	1.439912
C199	C	-0.772848	0.139850	0.697018
C200	C	-0.439514	0.473183	1.030351
C201	C	-0.106181	0.806516	1.363685
C202	C	-0.820234	0.092498	0.658905
C203	C	-0.486900	0.425831	0.992238
C204	C	-0.153567	0.759165	1.325571
H205	H	-0.477929	0.094796	0.119787
H206	H	-0.144596	0.428129	0.453120
H207	H	0.188738	0.761462	0.786453
F208	F	-0.721212	-0.319320	-0.087581
F209	F	-0.387879	0.014014	0.245752
F210	F	-0.054545	0.347347	0.579085
F211	F	-0.685151	-0.688216	0.000028
F212	F	-0.351817	-0.354883	0.333362
F213	F	-0.018484	-0.021549	0.666695
H214	H	-0.376018	0.167296	0.091756
H215	H	-0.042685	0.500629	0.425089
H216	H	0.290649	0.833963	0.758423
H217	H	-0.907224	-0.485017	0.076991
H218	H	-0.573891	-0.151684	0.410325
H219	H	-0.240557	0.181649	0.743658
F220	F	-0.801013	0.223140	0.578678
F221	F	-0.467680	0.556473	0.912011
F222	F	-0.134347	0.889807	1.245344
H223	H	-0.244597	0.165347	0.091779
H224	H	0.088736	0.498681	0.425112
H225	H	0.422069	0.832014	0.758446
H226	H	-0.734236	0.178395	0.334073
H227	H	-0.400902	0.511728	0.667406
H228	H	-0.067569	0.845061	1.000739
H229	H	-0.837110	-0.022321	0.569182
H230	H	-0.503777	0.311012	0.902515
H231	H	-0.170443	0.644345	1.235849
F232	F	-0.801048	0.223139	0.421333
F233	F	-0.467715	0.556473	0.754666
F234	F	-0.134381	0.889806	1.087999
H235	H	-0.734214	0.178391	0.195779
H236	H	-0.400881	0.511725	0.529113
H237	H	-0.067548	0.845058	0.862446
H238	H	-0.731262	-0.461425	-0.076963
H239	H	-0.397929	-0.128092	0.256370
H240	H	-0.064595	0.205242	0.589704
H241	H	-0.707675	-0.234389	0.000022
H242	H	-0.374342	0.098944	0.333356
H243	H	-0.041009	0.432277	0.666689
H244	H	-0.703048	-0.549845	0.000022
H245	H	-0.369714	-0.216512	0.333356
H246	H	-0.036381	0.116821	0.666689
F247	F	-0.918002	-0.005258	0.186234
F248	F	-0.584668	0.328076	0.519567
F249	F	-0.251335	0.661409	0.852900
H250	H	-0.031040	0.088238	0.119796
H251	H	0.302294	0.421571	0.453129
H252	H	0.635627	0.754905	0.786463
H253	H	-0.609360	0.096722	0.119783
H254	H	-0.276026	0.430056	0.453117
H255	H	0.057307	0.763389	0.786450
H256	H	-0.609380	0.096740	-0.119751
H257	H	-0.276047	0.430074	0.213582
H258	H	0.057287	0.763407	0.546915
H259	H	-0.906165	0.006581	0.334053
H260	H	-0.572831	0.339914	0.667386
H261	H	-0.239498	0.673248	1.000720
F262	F	-0.406244	0.009613	-0.104379
F263	F	-0.072910	0.342947	0.228954
F264	F	0.260423	0.676280	0.562288
H265	H	-0.930815	-0.712049	0.000005
H266	H	-0.597482	-0.378716	0.333339
H267	H	-0.264148	-0.045382	0.666672
H268	H	-0.906198	0.006588	0.665977
H269	H	-0.572864	0.339921	0.999311
H270	H	-0.239531	0.673255	1.332644
F271	F	-0.918046	-0.005254	0.813794
F272	F	-0.584713	0.328079	1.147127
F273	F	-0.251380	0.661412	1.480461
H274	H	-0.162473	0.090170	0.119787
H275	H	0.170860	0.423503	0.453120
H276	H	0.504194	0.756836	0.786454
H277	H	-0.031065	0.088276	-0.119744
H278	H	0.302268	0.421610	0.213589
H279	H	0.635601	0.754943	0.546923
F280	F	-0.722427	0.190245	0.813813
F281	F	-0.389094	0.523578	1.147147
F282	F	-0.055761	0.856912	1.480480
H283	H	-0.909146	-0.353584	0.077001
H284	H	-0.575813	-0.020251	0.410334
H285	H	-0.242479	0.313082	0.743667
H286	H	-0.937378	-0.265164	0.000009
H287	H	-0.604044	0.068169	0.333343
H288	H	-0.270711	0.401503	0.666676
H289	H	-0.932744	-0.580623	0.000011
H290	H	-0.599410	-0.247290	0.333344
H291	H	-0.266077	0.086044	0.666677
H292	H	-0.939305	-0.133738	0.000027
H293	H	-0.605972	0.199596	0.333360
H294	H	-0.272639	0.532929	0.666694
F295	F	-0.722417	0.190244	0.656462
F296	F	-0.389084	0.523577	0.989795
F297	F	-0.055750	0.856911	1.323128
H298	H	-0.837102	-0.022326	0.430891
H299	H	-0.503769	0.311008	0.764224
H300	H	-0.170435	0.644341	1.097557
H301	H	-0.709606	-0.102959	0.000031
H302	H	-0.376273	0.230374	0.333365
H303	H	-0.042940	0.563707	0.666698
H304	H	-0.264392	0.017727	-0.091733
H305	H	0.068941	0.351061	0.241600
H306	H	0.402275	0.684394	0.574933
F307	F	-0.171553	0.090335	-0.136249
F308	F	0.161781	0.423669	0.197084
F309	F	0.495114	0.757002	0.530417
H310	H	-0.477951	0.094828	-0.119752
H311	H	-0.144618	0.428161	0.213582
H312	H	0.188715	0.761495	0.546915
