data_functionalizedCrystal
_audit_creation_method	'MofGen! by Chris Wilmer'
_symmetry_space_group_name_H-M	'P1'
_symmetry_Int_Tables_number	1
_symmetry_cell_setting	triclinic
loop_
_symmetry_equiv_pos_as_xyz
  x,y,z
_cell_length_a	33.428889
_cell_length_b	33.428139
_cell_length_c	33.424847
_cell_angle_alpha	60.004234
_cell_angle_beta	60.008465
_cell_angle_gamma	59.994972
loop_
_atom_site_label
_atom_site_type_symbol
_atom_site_fract_x
_atom_site_fract_y
_atom_site_fract_z
O1	O	0.055565	-0.584504	0.488714
O2	O	0.555565	-0.084504	0.988714
O3	O	0.020982	-0.455083	0.393778
O4	O	0.520982	0.044917	0.893778
O5	O	0.102943	-0.536959	0.393689
O6	O	0.602943	-0.036959	0.893689
O7	O	-0.026396	-0.502628	0.488803
O8	O	0.473604	-0.002628	0.988803
O9	O	0.130140	-0.509767	0.420792
O10	O	0.630140	-0.009767	0.920792
O11	O	0.048179	-0.427891	0.420881
O12	O	0.548179	0.072109	0.920881
O13	O	0.082762	-0.557312	0.515817
O14	O	0.582762	-0.057312	1.015817
Cu15	Cu	0.067954	-0.490119	0.470823
Cu16	Cu	0.567954	0.009881	0.970823
Cu17	Cu	0.035790	-0.522276	0.438771
Cu18	Cu	0.535790	-0.022276	0.938771
O19	O	0.000801	-0.475436	0.515906
O20	O	0.500801	0.024564	1.015906
N21	N	0.090577	-0.467504	0.493370
N22	N	0.590577	0.032496	0.993370
N23	N	0.013171	-0.544895	0.416225
N24	N	0.513171	-0.044895	0.916225
C25	C	0.143377	-0.280390	0.546067
C26	C	0.643377	0.219610	1.046067
C27	C	0.143515	-0.414755	0.680369
C28	C	0.643515	0.085245	1.180369
C29	C	0.143392	-0.414735	0.546069
C30	C	0.643392	0.085265	1.046069
C31	C	0.277766	-0.414702	0.545966
C32	C	0.777766	0.085298	1.045966
C33	C	0.158177	-0.324719	0.560828
C34	C	0.658177	0.175281	1.060828
C35	C	0.158255	-0.399967	0.636038
C36	C	0.658255	0.100033	1.136038
C37	C	0.233434	-0.399936	0.560773
C38	C	0.733434	0.100064	1.060773
C39	C	0.158186	-0.399955	0.560829
C40	C	0.658186	0.100045	1.060829
C41	C	0.124540	-0.223964	0.527278
C42	C	0.624540	0.276036	1.027278
C43	C	0.124565	-0.433545	0.527281
C44	C	0.624565	0.066455	1.027281
C45	C	0.177014	-0.381145	0.579617
C46	C	0.677014	0.118855	1.079617
C47	C	0.359814	-0.400540	0.502735
C48	C	0.859814	0.099460	1.002735
C49	C	0.411105	-0.417624	0.485606
C50	C	0.911105	0.082376	0.985606
C51	C	0.411136	-0.500620	0.517255
C52	C	0.911136	-0.000620	1.017255
C53	C	0.359845	-0.483534	0.534385
C54	C	0.859845	0.016466	1.034385
C55	C	0.136887	-0.198305	0.476855
C56	C	0.636887	0.301695	0.976855
C57	C	0.119761	-0.147011	0.459777
C58	C	0.619761	0.352989	0.959777
C59	C	0.077945	-0.147038	0.543547
C60	C	0.577945	0.352962	1.043547
C61	C	0.095072	-0.198332	0.560625
C62	C	0.595072	0.301668	1.060625
C63	C	0.074134	-0.421169	0.539710
C64	C	0.574134	0.078831	1.039710
C65	C	0.057023	-0.438269	0.522625
C66	C	0.557023	0.061731	1.022625
C67	C	0.140770	-0.480120	0.480694
C68	C	0.640770	0.019880	0.980694
C69	C	0.157883	-0.463020	0.497773
C70	C	0.657883	0.036980	0.997773
C71	C	0.074339	-0.421208	0.762475
C72	C	0.574339	0.078792	1.262475
C73	C	0.057288	-0.438323	0.813768
C74	C	0.557288	0.061677	1.313768
C75	C	0.141075	-0.480183	0.813699
C76	C	0.641075	0.019817	1.313699
C77	C	0.158125	-0.463069	0.762404
C78	C	0.658125	0.036931	1.262404
C79	C	0.124756	-0.433580	0.736794
C80	C	0.624756	0.066420	1.236794
C81	C	0.334186	-0.433494	0.527123
C82	C	0.834186	0.066506	1.027123
C83	C	-0.173769	-0.597444	0.363037
C84	C	0.326231	-0.097444	0.863037
C85	C	-0.039302	-0.597595	0.228856
C86	C	0.460698	-0.097595	0.728856
C87	C	-0.039496	-0.597587	0.363300
C88	C	0.460504	-0.097587	0.863300
C89	C	-0.039512	-0.731889	0.363237
C90	C	0.460488	-0.231889	0.863237
C91	C	-0.129442	-0.612265	0.348329
C92	C	0.370558	-0.112265	0.848329
C93	C	-0.054138	-0.612351	0.273187
C94	C	0.445862	-0.112351	0.773187
C95	C	-0.054257	-0.687554	0.348440
C96	C	0.445743	-0.187554	0.848440
C97	C	-0.054247	-0.612346	0.348477
C98	C	0.445753	-0.112346	0.848477
C99	C	-0.230191	-0.578579	0.381758
C100	C	0.269809	-0.078579	0.881758
C101	C	-0.020722	-0.578803	0.382168
C102	C	0.479278	-0.078803	0.882168
C103	C	-0.073020	-0.631130	0.329609
C104	C	0.426980	-0.131130	0.829609
C105	C	-0.053713	-0.813916	0.406386
C106	C	0.446287	-0.313916	0.906386
C107	C	-0.036654	-0.865210	0.423504
C108	C	0.463346	-0.365210	0.923504
C109	C	0.046338	-0.865293	0.391984
C110	C	0.546338	-0.365293	0.891984
C111	C	0.029278	-0.813999	0.374865
C112	C	0.529278	-0.313999	0.874865
C113	C	-0.255900	-0.590938	0.432169
C114	C	0.244100	-0.090938	0.932169
C115	C	-0.307191	-0.573786	0.449185
C116	C	0.192809	-0.073786	0.949185
C117	C	-0.307060	-0.531922	0.365377
C118	C	0.192940	-0.031922	0.865377
C119	C	-0.255769	-0.549074	0.348360
C120	C	0.244231	-0.049074	0.848360
C121	C	-0.033081	-0.528377	0.369764
C122	C	0.466919	-0.028377	0.869764
C123	C	-0.016014	-0.511306	0.386922
C124	C	0.483986	-0.011306	0.886922
C125	C	0.025770	-0.595083	0.428877
C126	C	0.525770	-0.095083	0.928877
C127	C	0.008703	-0.612156	0.411725
C128	C	0.508703	-0.112156	0.911725
C129	C	-0.032755	-0.528393	0.146761
C130	C	0.467245	-0.028393	0.646761
C131	C	-0.015585	-0.511324	0.095468
C132	C	0.484415	-0.011324	0.595468
C133	C	0.026262	-0.595106	0.095516
C134	C	0.526262	-0.095106	0.595516
C135	C	0.009094	-0.612174	0.146811
C136	C	0.509094	-0.112174	0.646811
C137	C	-0.020417	-0.578816	0.172432
C138	C	0.479583	-0.078816	0.672432
C139	C	-0.020748	-0.788312	0.382068
C140	C	0.479252	-0.288312	0.882068
N141	N	0.436037	-0.467415	0.493101
N142	N	0.936037	0.032585	0.993101
O143	O	0.592642	-0.471896	0.376066
O144	O	1.092642	0.028104	0.876066
O145	O	0.592838	-0.567146	0.505347
O146	O	1.092838	-0.067146	1.005347
O147	O	0.592754	-0.566928	0.423360
O148	O	1.092754	-0.066928	0.923360
O149	O	0.592727	-0.472113	0.458053
O150	O	1.092727	0.027887	0.958053
O151	O	0.511269	-0.539835	0.450606
O152	O	1.011269	-0.039835	0.950606
O153	O	0.511353	-0.540052	0.532594
O154	O	1.011353	-0.040052	1.032594
O155	O	0.511157	-0.444802	0.403312
O156	O	1.011157	0.055198	0.903312
Cu157	Cu	0.503815	-0.489954	0.470441
Cu158	Cu	1.003815	0.010046	0.970441
Cu159	Cu	0.600180	-0.521995	0.438219
Cu160	Cu	1.100180	-0.021995	0.938219
O161	O	0.511242	-0.445020	0.485300
O162	O	1.011242	0.054980	0.985300
N163	N	0.667959	-0.544533	0.415554
N164	N	1.167959	-0.044533	0.915554
N165	N	0.090544	-0.122107	0.493359
N166	N	0.590544	0.377893	0.993359
O167	O	-0.026406	0.034587	0.488773
O168	O	0.473594	0.534587	0.988773
O169	O	0.102877	0.034627	0.393499
O170	O	0.602877	0.534627	0.893499
O171	O	0.020848	0.034591	0.393771
O172	O	0.520848	0.534591	0.893771
O173	O	0.055623	0.034623	0.488500
O174	O	0.555623	0.534623	0.988500
O175	O	0.048051	-0.046899	0.420925
O176	O	0.548051	0.453101	0.920925
O177	O	0.130080	-0.046864	0.420653
O178	O	0.630080	0.453136	0.920653
O179	O	0.000796	-0.046903	0.515927
O180	O	0.500796	0.453097	1.015927
Cu181	Cu	0.067922	-0.054324	0.470769
Cu182	Cu	0.567922	0.445676	0.970769
Cu183	Cu	0.035752	0.042048	0.438656
Cu184	Cu	0.535752	0.542048	0.938656
O185	O	0.082825	-0.046867	0.515655
O186	O	0.582825	0.453133	1.015655
N187	N	0.013123	0.109830	0.416068
N188	N	0.513123	0.609830	0.916068
N189	N	0.090892	-0.467554	0.838649
N190	N	0.590892	0.032446	1.338649
O191	O	0.086330	-0.584488	0.995334
O192	O	0.586330	-0.084488	1.495334
O193	O	-0.008902	-0.455160	0.995379
O194	O	0.491098	0.044840	1.495379
O195	O	-0.008679	-0.537172	0.995355
O196	O	0.491321	-0.037172	1.495355
O197	O	0.086107	-0.502475	0.995358
O198	O	0.586107	-0.002475	1.495358
O199	O	0.018452	-0.509990	0.913868
O200	O	0.518452	-0.009990	1.413868
O201	O	0.018230	-0.427978	0.913891
O202	O	0.518230	0.072022	1.413891
O203	O	0.113461	-0.557306	0.913847
O204	O	0.613461	-0.057306	1.413847
Cu205	Cu	0.068323	-0.490160	0.906429
Cu206	Cu	0.568323	0.009840	1.406429
Cu207	Cu	0.036237	-0.522306	1.002797
Cu208	Cu	0.536237	-0.022306	1.502797
O209	O	0.113239	-0.475293	0.913870
O210	O	0.613239	0.024707	1.413870
N211	N	0.013667	-0.544916	1.070577
N212	N	0.513667	-0.044916	1.570577
C213	C	0.031339	-0.425179	0.394250
C214	C	0.531339	0.074821	0.894250
C215	C	0.132837	-0.526572	0.394139
C216	C	0.632837	-0.026572	0.894139
C217	C	0.072405	-0.587216	0.515344
C218	C	0.572405	-0.087216	1.015344
C219	C	-0.029093	-0.485823	0.515455
C220	C	0.470907	0.014177	1.015455
C221	C	0.552119	-0.566716	0.535258
C222	C	1.052119	-0.066716	1.035258
C223	C	0.552016	-0.566447	0.433726
C224	C	1.052016	-0.066447	0.933726
C225	C	0.551873	-0.445232	0.373402
C226	C	1.051873	0.054768	0.873402
C227	C	0.551980	-0.445502	0.474933
C228	C	1.051980	0.054498	0.974933
C229	C	0.132731	-0.006013	0.393923
C230	C	0.632731	0.493987	0.893923
C231	C	0.031182	-0.006158	0.394293
C232	C	0.531182	0.493842	0.894293
C233	C	-0.029092	-0.006163	0.515469
C234	C	0.470908	0.493837	1.015469
C235	C	0.072491	-0.006119	0.515133
C236	C	0.572491	0.493881	1.015133
C237	C	-0.008451	-0.425276	0.954641
C238	C	0.491549	0.074724	1.454641
C239	C	-0.008170	-0.526833	0.954596
C240	C	0.491830	-0.026833	1.454596
C241	C	0.113010	-0.587190	0.954585
C242	C	0.613010	-0.087190	1.454585
C243	C	0.112735	-0.485627	0.954611
C244	C	0.612735	0.014373	1.454611
H245	H	0.016234	-0.428240	0.834672
H246	H	0.516234	0.071760	1.334672
H247	H	0.023949	-0.388000	0.364433
H248	H	0.523949	0.112000	0.864433
H249	H	0.169984	-0.533889	0.364272
H250	H	0.669984	-0.033889	0.864272
H251	H	0.087072	-0.886205	0.386121
H252	H	0.587072	-0.386205	0.886121
O253	O	-0.073422	-0.006145	0.551089
O254	O	0.426578	0.493855	1.051089
C255	C	-0.103930	-0.006170	0.533481
C256	C	0.396070	0.493830	1.033481
H257	H	-0.090683	0.009251	0.491746
H258	H	0.409317	0.509251	0.991746
H259	H	-0.143175	0.017488	0.548510
H260	H	0.356825	0.517488	1.048510
H261	H	-0.102602	-0.045268	0.545949
H262	H	0.397398	0.454732	1.045949
H263	H	0.169783	-0.005775	0.363939
H264	H	0.669783	0.494225	0.863939
O265	O	0.551942	-0.601939	0.424880
O266	O	1.051942	-0.101939	0.924880
C267	C	0.509719	-0.585086	0.413382
C268	C	1.009719	-0.085086	0.913382
H269	H	0.480215	-0.554679	0.429221
H270	H	0.980215	-0.054679	0.929221
H271	H	0.495587	-0.616660	0.429736
H272	H	0.995587	-0.116660	0.929736
H273	H	0.519209	-0.570292	0.371893
H274	H	1.019209	-0.070292	0.871893
H275	H	0.079796	-0.624394	0.545162
H276	H	0.579796	-0.124394	1.045162
O277	O	0.148742	-0.631464	0.954548
O278	O	0.648742	-0.131464	1.454548
C279	C	0.190910	-0.631456	0.954558
C280	C	0.690910	-0.131456	1.454558
H281	H	0.190321	-0.592151	0.939141
H282	H	0.690321	-0.092151	1.439141
H283	H	0.225009	-0.653236	0.930889
H284	H	0.725009	-0.153236	1.430889
H285	H	0.191498	-0.648974	0.993649
H286	H	0.691498	-0.148974	1.493649
O287	O	0.081285	-0.006091	0.550688
O288	O	0.581285	0.493909	1.050688
C289	C	0.039238	-0.006116	0.592989
C290	C	0.539238	0.493884	1.092989
H291	H	0.005536	0.009300	0.582312
H292	H	0.505536	0.509300	1.082312
H293	H	0.034960	0.017547	0.611227
H294	H	0.534960	0.517547	1.111227
H295	H	0.043218	-0.045214	0.619632
H296	H	0.543218	0.454786	1.119632
O297	O	-0.073428	-0.477011	0.551042
O298	O	0.426572	0.022989	1.051042
C299	C	-0.103888	-0.428874	0.533335
C300	C	0.396112	0.071126	1.033335
H301	H	-0.080302	-0.405601	0.501862
H302	H	0.419698	0.094399	1.001862
H303	H	-0.127353	-0.412471	0.564085
H304	H	0.372647	0.087529	1.064085
H305	H	-0.128640	-0.429624	0.519742
H306	H	0.371360	0.070376	1.019742
H307	H	0.338923	-0.359792	0.496821
H308	H	0.838923	0.140208	0.996821
H309	H	0.552170	-0.596617	0.572390
H310	H	1.052170	-0.096617	1.072390
O311	O	0.551821	-0.409614	0.329076
O312	O	1.051821	0.090386	0.829076
C313	C	0.551786	-0.427251	0.298597
C314	C	1.051786	0.072749	0.798597
H315	H	0.567259	-0.468986	0.311841
H316	H	1.067259	0.031014	0.811841
H317	H	0.575392	-0.412199	0.259335
H318	H	1.075392	0.087801	0.759335
H319	H	0.512681	-0.414830	0.299967
H320	H	1.012681	0.085170	0.799967
O321	O	-0.044061	-0.380925	0.954591
O322	O	0.455939	0.119075	1.454591
C323	C	-0.027329	-0.343984	0.912387
C324	C	0.472671	0.156016	1.412387
H325	H	0.014433	-0.357459	0.898309
H326	H	0.514433	0.142541	1.398309
H327	H	-0.041655	-0.309798	0.921890
H328	H	0.458345	0.190202	1.421890
H329	H	-0.041237	-0.334821	0.882838
H330	H	0.458763	0.165179	1.382838
O331	O	0.551946	-0.410013	0.483873
O332	O	1.051946	0.089987	0.983873
C333	C	0.552022	-0.427869	0.532016
C334	C	1.052022	0.072131	1.032016
H335	H	0.536637	-0.459344	0.555205
H336	H	1.036637	0.040656	1.055205
H337	H	0.528361	-0.397194	0.548521
H338	H	1.028361	0.102806	1.048521
H339	H	0.591129	-0.441507	0.531253
H340	H	1.091129	0.058493	1.031253
H341	H	0.142514	-0.478200	0.954606
H342	H	0.642514	0.021800	1.454606
H343	H	0.023733	-0.006162	0.364531
H344	H	0.523733	0.493838	0.864531
O345	O	-0.043621	-0.535745	0.954532
O346	O	0.456379	-0.035745	1.454532
C347	C	-0.025771	-0.583909	0.954516
C348	C	0.474229	-0.083909	1.454516
H349	H	0.015963	-0.596807	0.939106
H350	H	0.515963	-0.096807	1.439106
H351	H	-0.040672	-0.584600	0.930829
H352	H	0.459328	-0.084600	1.430829
H353	H	-0.038170	-0.609266	0.993599
H354	H	0.461830	-0.109266	1.493599
H355	H	0.050281	-0.622271	0.074658
H356	H	0.550281	-0.122271	0.574658
O357	O	0.041903	-0.392633	0.737621
O358	O	0.541903	0.107367	1.237621
C359	C	0.012244	-0.418537	0.750187
C360	C	0.512244	0.081463	1.250187
H361	H	0.032071	-0.459574	0.764266
H362	H	0.532071	0.040426	1.264266
H363	H	0.004452	-0.409354	0.716472
H364	H	0.504452	0.090646	1.216472
H365	H	-0.023774	-0.407630	0.779984
H366	H	0.476226	0.092370	1.279984
O367	O	0.173557	-0.508839	0.838501
O368	O	0.673557	-0.008839	1.338501
C369	C	0.221713	-0.516079	0.804836
C370	C	0.721713	-0.016079	1.304836
H371	H	0.221587	-0.510335	0.768281
H372	H	0.721587	-0.010335	1.268281
H373	H	0.246087	-0.554981	0.819629
H374	H	0.746087	-0.054981	1.319629
H375	H	0.236406	-0.488776	0.799375
H376	H	0.736406	0.011224	1.299375
H377	H	0.199181	-0.473148	0.741498
H378	H	0.699181	0.026852	1.241498
H379	H	0.015959	-0.428182	0.532734
H380	H	0.515959	0.071818	1.032734
O381	O	0.041749	-0.392464	0.568296
O382	O	0.541749	0.107536	1.068296
C383	C	0.012054	-0.349452	0.542426
C384	C	0.512054	0.150548	1.042426
H385	H	0.031830	-0.342309	0.501386
H386	H	0.531830	0.157691	1.001386
H387	H	0.004302	-0.317143	0.551605
H388	H	0.504302	0.182857	1.051605
H389	H	-0.023981	-0.354121	0.553369
H390	H	0.476019	0.145879	1.053369
O391	O	0.173204	-0.508734	0.452020
O392	O	0.673204	-0.008734	0.952020
C393	C	0.221385	-0.516001	0.444728
C394	C	0.721385	-0.016001	0.944728
H395	H	0.221296	-0.485077	0.450457
H396	H	0.721296	0.014923	0.950457
H397	H	0.245708	-0.516257	0.405818
H398	H	0.745708	-0.016257	0.905818
H399	H	0.236110	-0.552544	0.472011
H400	H	0.736110	-0.052544	0.972011
H401	H	0.338981	-0.510371	0.554246
H402	H	0.838981	-0.010371	1.054246
O403	O	0.206856	-0.474977	0.485731
O404	O	0.706856	0.025023	0.985731
C405	C	0.214816	-0.453575	0.507146
C406	C	0.714816	0.046425	1.007146
H407	H	0.181154	-0.420656	0.514905
H408	H	0.681154	0.079344	1.014905
H409	H	0.248043	-0.441119	0.480938
H410	H	0.748043	0.058881	0.980938
H411	H	0.221689	-0.481643	0.542911
H412	H	0.721689	0.018357	1.042911
O413	O	0.436008	-0.549231	0.524279
O414	O	0.936008	-0.049231	1.024279
C415	C	0.423462	-0.564895	0.501250
C416	C	0.923462	-0.064895	1.001250
H417	H	0.386205	-0.538891	0.496911
H418	H	0.886205	-0.038891	0.996911
H419	H	0.421731	-0.603489	0.524595
H420	H	0.921731	-0.103489	1.024595
H421	H	0.452303	-0.564973	0.463626
H422	H	0.952303	-0.064973	0.963626
O423	O	0.435928	-0.385544	0.461903
O424	O	0.935928	0.114456	0.961903
C425	C	0.402283	-0.337714	0.459176
C426	C	0.902283	0.162286	0.959176
H427	H	0.365711	-0.335723	0.462566
H428	H	0.865711	0.164277	0.962566
H429	H	0.417074	-0.310602	0.422511
H430	H	0.917074	0.189398	0.922511
H431	H	0.396857	-0.328139	0.490245
H432	H	0.896857	0.171861	0.990245
H433	H	0.160882	-0.219171	0.449698
H434	H	0.660882	0.280829	0.949698
H435	H	0.053957	-0.126168	0.570702
H436	H	0.553957	0.373832	1.070702
O437	O	0.131730	-0.122134	0.410783
O438	O	0.631730	0.377866	0.910783
C439	C	0.114156	-0.134662	0.389505
C440	C	0.614156	0.365338	0.889505
H441	H	0.109158	-0.171914	0.413823
H442	H	0.609158	0.328086	0.913823
H443	H	0.141617	-0.136399	0.351764
H444	H	0.641617	0.363601	0.851764
H445	H	0.077483	-0.105804	0.385721
H446	H	0.577483	0.394196	0.885721
O447	O	0.083136	-0.223221	0.609614
O448	O	0.583136	0.276779	1.109614
C449	C	0.100691	-0.210656	0.630877
C450	C	0.600691	0.289344	1.130877
H451	H	0.132309	-0.196549	0.601647
H452	H	0.632309	0.303451	1.101647
H453	H	0.114034	-0.244380	0.661109
H454	H	0.614034	0.255620	1.161109
H455	H	0.069925	-0.180880	0.647069
H456	H	0.569925	0.319120	1.147069
O457	O	-0.027666	-0.462336	0.070558
O458	O	0.472334	0.037664	0.570558
C459	C	-0.079033	-0.440992	0.083021
C460	C	0.420967	0.059008	0.583021
H461	H	-0.095577	-0.470174	0.097085
H462	H	0.404423	0.029826	0.597085
H463	H	-0.088798	-0.410753	0.049257
H464	H	0.411202	0.089247	0.549257
H465	H	-0.094262	-0.424790	0.112796
H466	H	0.405738	0.075210	0.612796
O467	O	-0.061353	-0.495967	0.171624
O468	O	0.438647	0.004033	0.671624
C469	C	-0.035452	-0.466336	0.159133
C470	C	0.464548	0.033664	0.659133
H471	H	0.005584	-0.486179	0.145098
H472	H	0.505584	0.013821	0.645098
H473	H	-0.044678	-0.458567	0.192875
H474	H	0.455322	0.041433	0.692875
H475	H	-0.046319	-0.430303	0.129326
H476	H	0.453681	0.069697	0.629326
H477	H	-0.057039	-0.501216	0.345698
H478	H	0.442961	-0.001216	0.845698
O479	O	0.021021	-0.661163	0.171725
O480	O	0.521021	-0.161163	0.671725
C481	C	0.003510	-0.682437	0.159127
C482	C	0.503510	-0.182437	0.659127
H483	H	-0.028085	-0.653206	0.144964
H484	H	0.471915	-0.153206	0.644964
H485	H	-0.009853	-0.712650	0.192846
H486	H	0.490147	-0.212650	0.692846
H487	H	0.034308	-0.698658	0.129384
H488	H	0.534308	-0.198658	0.629384
O489	O	-0.027947	-0.462319	0.374786
O490	O	0.472053	0.037681	0.874786
C491	C	-0.010330	-0.441055	0.323412
C492	C	0.489670	0.058945	0.823412
H493	H	0.021302	-0.470295	0.306924
H494	H	0.521302	0.029705	0.806924
H495	H	0.003012	-0.410851	0.313625
H496	H	0.503012	0.089149	0.813625
H497	H	-0.041059	-0.424824	0.308147
H498	H	0.458941	0.075176	0.808147
O499	O	0.054409	-0.627533	0.457528
O500	O	0.554409	-0.127533	0.957528
C501	C	0.097447	-0.657216	0.431673
C502	C	0.597447	-0.157216	0.931673
H503	H	0.090613	-0.657713	0.401778
H504	H	0.590613	-0.157713	0.901778
H505	H	0.108221	-0.696112	0.458016
H506	H	0.608221	-0.196112	0.958016
H507	H	0.128309	-0.641824	0.414318
H508	H	0.628309	-0.141824	0.914318
O509	O	0.020687	-0.661151	0.423855
O510	O	0.520687	-0.161151	0.923855
C511	C	0.003064	-0.682427	0.475226
C512	C	0.503064	-0.182427	0.975226
H513	H	-0.001985	-0.658111	0.493196
H514	H	0.498015	-0.158111	0.993196
H515	H	0.030518	-0.720173	0.487261
H516	H	0.530518	-0.220173	0.987261
H517	H	-0.033592	-0.686201	0.486762
H518	H	0.466408	-0.186201	0.986762
H519	H	0.056124	-0.793157	0.355062
H520	H	0.556124	-0.293157	0.855062
H521	H	-0.094449	-0.793002	0.412253
H522	H	0.405551	-0.293002	0.912253
O523	O	-0.068744	-0.890009	0.447136
O524	O	0.431256	-0.390009	0.947136
C525	C	-0.116556	-0.856339	0.449812
C526	C	0.383444	-0.356339	0.949812
H527	H	-0.118547	-0.819783	0.446462
H528	H	0.381453	-0.319783	0.946462
H529	H	-0.143700	-0.871129	0.486443
H530	H	0.356300	-0.371129	0.986443
H531	H	-0.126084	-0.850880	0.418696
H532	H	0.373916	-0.350880	0.918696
O533	O	-0.231130	-0.619575	0.464677
O534	O	0.268870	-0.119575	0.964677
C535	C	-0.264822	-0.626810	0.512822
C536	C	0.235178	-0.126810	1.012822
H537	H	-0.301362	-0.595856	0.512673
H538	H	0.198638	-0.095856	1.012673
H539	H	-0.250043	-0.627092	0.537220
H540	H	0.249957	-0.127092	1.037220
H541	H	-0.270304	-0.663332	0.527505
H542	H	0.229696	-0.163332	1.027505
H543	H	-0.328125	-0.583847	0.490235
H544	H	0.171875	-0.083847	0.990235
H545	H	-0.327887	-0.507903	0.338181
H546	H	0.172113	-0.007903	0.838181
H547	H	-0.234840	-0.539009	0.307312
H548	H	0.265160	-0.039009	0.807312
