data_functionalizedCrystal
_audit_creation_method	'MofGen! by Chris Wilmer'
_symmetry_space_group_name_H-M	'P1'
_symmetry_Int_Tables_number	1
_symmetry_cell_setting	triclinic
loop_
_symmetry_equiv_pos_as_xyz
  x,y,z
_cell_length_a	12.837943
_cell_length_b	11.892095
_cell_length_c	12.811487
_cell_angle_alpha	99.324860
_cell_angle_beta	90.586998
_cell_angle_gamma	94.310562
loop_
_atom_site_label
_atom_site_type_symbol
_atom_site_fract_x
_atom_site_fract_y
_atom_site_fract_z
O1	O	-1.381300	-0.066435	0.268697
O2	O	-1.079534	-0.067833	0.255123
O3	O	-1.239111	-0.082817	0.108870
O4	O	-1.221723	-0.051451	0.414950
O5	O	-1.225806	0.106438	0.121044
O6	O	-1.066229	0.121422	0.267296
O7	O	-1.367995	0.122820	0.280871
Zn8	Zn	-1.215000	0.152169	0.276016
Zn9	Zn	-1.232530	-0.097182	0.259977
O10	O	-1.208418	0.137804	0.427123
C11	C	-1.034275	0.026323	0.256624
C12	C	-0.919237	0.024919	0.242948
N13	N	-1.203043	0.322345	0.286963
C14	C	-1.231891	0.007765	0.075508
C15	C	-1.230188	-0.004288	-0.042039
C16	C	-1.413255	0.028661	0.279369
C17	C	-1.528293	0.030058	0.293045
C18	C	-0.677801	0.041783	0.407360
C19	C	-0.569713	0.040465	0.394515
C20	C	-0.594969	0.020972	0.204414
C21	C	-0.703058	0.022290	0.217259
C22	C	-0.744470	0.032695	0.318735
C23	C	-0.852561	0.034005	0.331579
C24	C	-0.877815	0.014520	0.141479
C25	C	-0.769726	0.013202	0.128634
N26	N	-1.244494	-0.267359	0.249023
C27	C	-1.327692	0.547296	0.172793
C28	C	-1.319342	0.666422	0.180453
C29	C	-1.177990	0.679726	0.309936
C30	C	-1.186339	0.560599	0.302276
C31	C	-1.261194	0.494388	0.233704
C32	C	-1.269548	0.375260	0.226050
C33	C	-1.128192	0.388565	0.355527
C34	C	-1.119842	0.507692	0.363186
C35	C	-1.212498	0.179409	-0.249662
C36	C	-1.210898	0.168089	-0.360108
C37	C	-1.225392	-0.038247	-0.373377
C38	C	-1.226993	-0.026927	-0.262932
C39	C	-1.220544	0.081905	-0.201078
C40	C	-1.222138	0.093223	-0.090630
C41	C	-1.236640	-0.113111	-0.103902
C42	C	-1.235039	-0.124431	-0.214347
C43	C	-1.215638	0.047219	0.460485
C44	C	-1.217342	0.059265	0.578031
H45	H	-0.711519	0.050253	0.489986
C46	C	-0.805550	-0.005941	-0.057983
C47	C	-0.724202	0.001761	0.017094
H48	H	-0.777444	-0.013001	-0.126843
H49	H	-0.851817	-0.071014	-0.053256
H50	H	-0.842546	0.060980	-0.044774
H51	H	-0.687210	-0.065165	0.003890
H52	H	-0.677916	0.066840	0.012363
C53	C	-1.403299	0.358778	0.103614
C54	C	-1.410000	0.474511	0.097459
H55	H	-1.454126	0.313849	0.057118
H56	H	-1.335561	0.337364	0.083839
H57	H	-1.415682	0.346632	0.174059
H58	H	-1.397609	0.486659	0.027014
H59	H	-1.477753	0.495932	0.117228
C60	C	-1.459900	0.641301	0.051698
C61	C	-1.392439	0.724579	0.113500
H62	H	-1.505031	0.677208	0.010367
H63	H	-1.420130	0.590505	0.006324
H64	H	-1.500304	0.599725	0.096496
H65	H	-1.352029	0.766149	0.068702
H66	H	-1.432214	0.775395	0.158879
C67	C	-0.952634	0.144076	0.462557
C68	C	-0.898089	0.045440	0.443117
H69	H	-0.980744	0.151131	0.531415
H70	H	-0.906355	0.209143	0.457840
H71	H	-1.007808	0.138837	0.411606
H72	H	-0.842910	0.050682	0.494063
H73	H	-0.944372	-0.019643	0.447843
H74	H	-0.932109	0.007111	0.069313
C75	C	-1.027512	0.814623	0.327178
C76	C	-1.095713	0.752527	0.385297
H77	H	-0.976722	0.859574	0.373704
H78	H	-0.993622	0.763255	0.276433
H79	H	-1.065940	0.863167	0.291995
H80	H	-1.057285	0.703977	0.420473
H81	H	-1.129605	0.803901	0.436061
C82	C	-1.148094	-0.217228	-0.415813
C83	C	-1.232415	-0.157849	-0.441408
H84	H	-1.152414	-0.291062	-0.457819
H85	H	-1.084465	-0.176429	-0.429172
H86	H	-1.150228	-0.224478	-0.343092
H87	H	-1.230276	-0.150591	-0.514128
H88	H	-1.296060	-0.198658	-0.428057
C89	C	-0.969356	0.642587	0.380457
C90	C	-1.037568	0.580483	0.438559
H91	H	-0.918570	0.687529	0.426994
H92	H	-0.935463	0.591224	0.329710
H93	H	-1.007776	0.691140	0.345278
H94	H	-0.999149	0.531923	0.473732
H95	H	-1.071464	0.631851	0.489325
C96	C	-1.114683	0.269128	0.488500
C97	C	-1.055094	0.330411	0.422492
H98	H	-1.069559	0.233223	0.529839
H99	H	-1.154444	0.319942	0.533867
H100	H	-1.160449	0.212644	0.446556
H101	H	-1.009334	0.386901	0.464437
H102	H	-1.015315	0.279592	0.377120
H103	H	-1.204346	0.247487	-0.399660
C104	C	-1.157780	-0.303441	-0.256755
C105	C	-1.242088	-0.244046	-0.282355
H106	H	-1.162125	-0.377287	-0.298740
H107	H	-1.094144	-0.262669	-0.270138
H108	H	-1.159905	-0.310663	-0.184027
H109	H	-1.239958	-0.236816	-0.355082
H110	H	-1.305740	-0.284828	-0.268980
H111	H	-1.330501	0.321352	0.170218
C112	C	-1.207644	0.296038	-0.088612
C113	C	-1.215042	0.212848	-0.022638
H114	H	-1.203268	0.369890	-0.046636
H115	H	-1.146910	0.287531	-0.129993
H116	H	-1.267747	0.287122	-0.133939
H117	H	-1.154935	0.221759	0.022684
H118	H	-1.275782	0.221359	0.018761
C119	C	-1.245316	-0.187384	0.059516
C120	C	-1.245340	-0.220297	-0.050491
H121	H	-1.250647	-0.253556	0.092488
H122	H	-1.182224	-0.142845	0.082257
H123	H	-1.303076	-0.143444	0.078406
H124	H	-1.187576	-0.264230	-0.069382
H125	H	-1.308440	-0.264855	-0.073241
C126	C	-0.555610	0.059853	0.583710
C127	C	-0.496430	0.050446	0.491934
H128	H	-0.510366	0.066009	0.643853
H129	H	-0.593650	0.125957	0.589009
H130	H	-0.602939	-0.006039	0.580514
H131	H	-0.449107	0.116343	0.495126
H132	H	-0.458372	-0.015664	0.486634
H133	H	-1.207221	0.268024	-0.199299
C134	C	-0.440483	0.010318	0.100327
C135	C	-0.549435	0.009547	0.092879
H136	H	-0.412375	0.003260	0.031468
H137	H	-0.412959	0.080098	0.141519
H138	H	-0.422228	-0.051897	0.133033
H139	H	-0.567691	0.071767	0.060180
H140	H	-0.576970	-0.060241	0.051671
