data_functionalizedCrystal
_audit_creation_method	'MofGen! by Chris Wilmer'
_symmetry_space_group_name_H-M	'P1'
_symmetry_Int_Tables_number	1
_symmetry_cell_setting	triclinic
loop_
_symmetry_equiv_pos_as_xyz
  x,y,z
_cell_length_a	10.654541
_cell_length_b	17.038272
_cell_length_c	9.130307
_cell_angle_alpha	89.996293
_cell_angle_beta	89.999822
_cell_angle_gamma	87.797742
loop_
_atom_site_label
_atom_site_type_symbol
_atom_site_fract_x
_atom_site_fract_y
_atom_site_fract_z
O1	O	1.678040	0.109868	-0.121756
O2	O	1.313534	0.120338	-0.121769
O3	O	1.493621	0.001275	-0.121751
O4	O	1.497953	0.228930	-0.121774
O5	O	1.493614	0.001274	0.121848
O6	O	1.313527	0.120337	0.121830
O7	O	1.678034	0.109867	0.121843
Cu8	Cu	1.495780	0.115102	0.144079
Cu9	Cu	1.495788	0.115103	-0.144005
O10	O	1.497947	0.228929	0.121825
C11	C	1.266661	0.119569	0.000029
C12	C	1.127004	0.117270	0.000024
C13	C	1.112253	0.259642	-0.000008
C14	C	1.039268	0.329744	-0.000031
C15	C	0.908049	0.327580	-0.000032
C16	C	0.849813	0.255304	-0.000006
C17	C	0.922798	0.185202	0.000016
C18	C	1.054019	0.187374	0.000013
C19	C	0.937548	0.042832	0.000059
C20	C	1.068768	0.044995	0.000050
C21	C	0.879312	-0.029443	0.000084
C22	C	0.952297	-0.099548	0.000096
C23	C	1.083524	-0.097380	0.000096
C24	C	1.141753	-0.025108	0.000072
C25	C	1.489677	-0.027875	0.000048
C26	C	1.477920	-0.114734	0.000047
C27	C	1.585864	-0.164246	0.000053
C28	C	1.574809	-0.245858	0.000038
C29	C	1.455809	-0.277957	0.000029
C30	C	1.347857	-0.228439	0.000019
C31	C	1.358913	-0.146828	0.000023
C32	C	1.416751	-0.523933	0.000008
C33	C	1.405704	-0.605550	0.000008
C34	C	1.632657	-0.622963	0.000025
C35	C	1.643703	-0.541350	0.000037
C36	C	1.535750	-0.491839	0.000020
C37	C	1.444507	-0.361377	0.000019
C38	C	1.547054	-0.408420	0.000019
C39	C	1.724907	0.110635	0.000042
C40	C	1.864564	0.112934	0.000037
C41	C	1.501891	0.258080	0.000022
C42	C	1.513648	0.344939	0.000014
N43	N	1.495784	0.115100	0.346702
N44	N	1.495793	0.115098	-0.346628
C45	C	1.655324	0.009701	0.346708
C46	C	1.735102	-0.042996	0.423377
C47	C	1.735114	-0.042997	0.576711
C48	C	1.655337	0.009704	0.653378
C49	C	1.575559	0.062402	0.576708
C50	C	1.575558	0.062398	0.423371
C51	C	1.416015	0.167796	0.576702
C52	C	1.416007	0.167801	0.423369
C53	C	1.336238	0.220496	0.653370
C54	C	1.256464	0.273199	0.576700
C55	C	1.256456	0.273198	0.423357
C56	C	1.336228	0.220498	0.346699
H57	H	0.904870	-0.158388	0.000115
H58	H	1.682766	-0.138118	0.000069
H59	H	1.219098	0.261412	-0.000040
H60	H	1.740605	-0.515222	0.000045
H61	H	0.742967	0.253548	0.000010
O62	O	1.179094	0.324357	0.651399
C63	C	1.196179	0.313037	0.803174
H64	H	1.292961	0.284379	0.824111
H65	H	1.120876	0.273382	0.846687
C66	C	1.066959	0.428149	0.856188
C67	C	1.185833	0.392957	0.881904
H68	H	1.060572	0.477447	0.904755
H69	H	1.055444	0.435775	0.753935
H70	H	1.004220	0.395096	0.892450
H71	H	1.248569	0.426006	0.845626
H72	H	1.197359	0.385339	0.984153
H73	H	0.772466	-0.031201	0.000091
H74	H	1.250964	-0.254580	0.000003
H75	H	1.655332	0.009703	0.221856
O76	O	1.178822	0.324281	0.348819
C77	C	1.096855	0.281933	0.260103
H78	H	1.088161	0.220222	0.306313
H79	H	1.135737	0.278067	0.143891
C80	C	0.977216	0.400054	0.201001
C81	C	0.966530	0.324261	0.257764
H82	H	0.896826	0.426164	0.199551
H83	H	1.032441	0.428585	0.260765
H84	H	1.009622	0.396822	0.104162
H85	H	0.934139	0.327495	0.354606
H86	H	0.911295	0.295731	0.198015
O87	O	1.679795	-0.293841	0.000119
C88	C	1.787197	-0.248010	0.000104
H89	H	1.761803	-0.187284	0.046221
H90	H	1.823278	-0.242002	-0.116756
C91	C	1.921269	-0.362676	0.039008
C92	C	1.890082	-0.288094	0.095662
H93	H	1.984736	-0.387403	0.097947
H94	H	1.848911	-0.393555	0.039013
H95	H	1.951329	-0.357660	-0.058374
H96	H	1.860008	-0.293112	0.193035
H97	H	1.962437	-0.257217	0.095676
H98	H	1.643943	-0.382282	-0.000006
H99	H	1.086699	0.388590	-0.000047
O100	O	1.311985	-0.475762	0.000195
C101	C	1.311567	-0.428050	0.126372
H102	H	1.411743	-0.423386	0.168440
H103	H	1.251305	-0.455206	0.214714
C104	C	1.134154	-0.351277	0.036373
C105	C	1.257195	-0.345543	0.088034
H106	H	1.100610	-0.300384	0.012728
H107	H	1.134432	-0.383423	-0.048633
H108	H	1.083952	-0.373910	0.110000
H109	H	1.307398	-0.322919	0.014401
H110	H	1.256924	-0.313391	0.173027
O111	O	1.812636	-0.094261	0.349129
C112	C	1.883073	-0.140758	0.449682
H113	H	1.831467	-0.141944	0.558987
H114	H	1.979123	-0.114808	0.465980
C115	C	1.963363	-0.223547	0.255600
C116	C	1.899974	-0.225008	0.389847
H117	H	1.973794	-0.275515	0.218690
H118	H	1.915912	-0.192219	0.187854
H119	H	2.043398	-0.201918	0.269200
H120	H	1.819936	-0.246627	0.376242
H121	H	1.947412	-0.256341	0.457589
H122	H	1.271013	-0.106516	0.000019
H123	H	1.347616	-0.387521	0.000015
O124	O	1.812424	-0.094264	0.651265
C125	C	1.739985	-0.142901	0.740004
H126	H	1.640751	-0.144803	0.693793
H127	H	1.736008	-0.118447	0.856204
C128	C	1.922159	-0.224158	0.799147
C129	C	1.800280	-0.226499	0.742384
H130	H	1.959353	-0.275725	0.800622
H131	H	1.970964	-0.191389	0.739367
H132	H	1.918828	-0.203777	0.895975
H133	H	1.803614	-0.246872	0.645551
H134	H	1.751477	-0.259274	0.802148
H135	H	1.655341	0.009694	0.778230
H136	H	0.848624	0.384663	-0.000040
H137	H	1.336233	0.220496	0.221847
H138	H	1.142941	-0.154466	0.000119
H139	H	1.720546	-0.663284	0.000036
H140	H	1.248597	-0.023336	0.000054
H141	H	1.308795	-0.631681	0.000025
H142	H	1.336246	0.220490	0.778222
