data_functionalizedCrystal
_audit_creation_method	'MofGen! by Chris Wilmer'
_symmetry_space_group_name_H-M	'P1'
_symmetry_Int_Tables_number	1
_symmetry_cell_setting	triclinic
loop_
_symmetry_equiv_pos_as_xyz
  x,y,z
_cell_length_a	19.077105
_cell_length_b	25.639239
_cell_length_c	25.639243
_cell_angle_alpha	90.006746
_cell_angle_beta	92.302578
_cell_angle_gamma	87.734929
loop_
_atom_site_label
_atom_site_type_symbol
_atom_site_fract_x
_atom_site_fract_y
_atom_site_fract_z
Zn1	Zn	1.075803	-0.240449	0.327687
Zn2	Zn	1.409136	0.092885	0.661020
Zn3	Zn	1.742470	0.426218	0.994353
Zn4	Zn	1.075714	-0.327846	0.240249
Zn5	Zn	1.409048	0.005487	0.573582
Zn6	Zn	1.742381	0.338820	0.906915
Zn7	Zn	0.958135	-0.236911	0.236757
Zn8	Zn	1.291468	0.096423	0.570090
Zn9	Zn	1.624801	0.429756	0.903424
Zn10	Zn	0.958046	-0.324333	0.324144
Zn11	Zn	1.291380	0.009000	0.657478
Zn12	Zn	1.624713	0.342333	0.990811
O13	O	1.016925	-0.282385	0.282209
O14	O	1.350258	0.050949	0.615542
O15	O	1.683591	0.384282	0.948876
O16	O	1.174280	-0.254993	0.319032
O17	O	1.507614	0.078340	0.652365
O18	O	1.840947	0.411674	0.985698
O19	O	1.060117	-0.315773	0.166620
O20	O	1.393450	0.017560	0.499954
O21	O	1.726784	0.350894	0.833287
O22	O	0.973818	-0.164217	0.248840
O23	O	1.307151	0.169117	0.582174
O24	O	1.640484	0.502450	0.915507
O25	O	1.174215	-0.319204	0.254791
O26	O	1.507548	0.014130	0.588125
O27	O	1.840882	0.347463	0.921458
O28	O	1.060268	-0.166816	0.315646
O29	O	1.393601	0.166517	0.648979
O30	O	1.726935	0.499850	0.982313
O31	O	0.973732	-0.248963	0.164055
O32	O	1.307065	0.084370	0.497388
O33	O	1.640398	0.417704	0.830722
O34	O	0.859634	-0.245556	0.245405
O35	O	1.192967	0.087777	0.578739
O36	O	1.526301	0.421110	0.912072
O37	O	0.973667	-0.313216	0.397779
O38	O	1.307001	0.020117	0.731113
O39	O	1.640334	0.353451	1.064446
O40	O	0.859569	-0.309785	0.309608
O41	O	1.192902	0.023548	0.642942
O42	O	1.526236	0.356881	0.976275
O43	O	1.060182	-0.251586	0.400382
O44	O	1.393516	0.081747	0.733715
O45	O	1.726849	0.415080	1.067049
O46	O	1.060031	-0.400543	0.251356
O47	O	1.393365	-0.067210	0.584690
O48	O	1.726698	0.266123	0.918023
O49	O	0.973581	-0.397962	0.312994
O50	O	1.306915	-0.064629	0.646328
O51	O	1.640248	0.268704	0.979661
C52	C	0.834064	-0.276906	0.276744
C53	C	1.167398	0.056427	0.610077
C54	C	1.500731	0.389761	0.943411
C55	C	0.755836	-0.274575	0.274418
C56	C	1.089169	0.058758	0.607752
C57	C	1.422503	0.392092	0.941085
C58	C	0.719069	-0.306971	0.306700
C59	C	1.052402	0.026362	0.640034
C60	C	1.385735	0.359696	0.973367
C61	C	0.645565	-0.304774	0.304518
C62	C	0.978898	0.028560	0.637851
C63	C	1.312232	0.361893	0.971184
C64	C	0.608830	-0.270183	0.270050
C65	C	0.942163	0.063150	0.603383
C66	C	1.275496	0.396484	0.936717
C67	C	0.645602	-0.237783	0.237767
C68	C	0.978935	0.095550	0.571100
C69	C	1.312269	0.428883	0.904433
C70	C	0.719105	-0.239978	0.239952
C71	C	1.052438	0.093355	0.573286
C72	C	1.385771	0.426688	0.906619
C73	C	0.389002	-0.260024	0.259937
C74	C	0.722336	0.073309	0.593270
C75	C	1.055669	0.406642	0.926603
C76	C	0.315494	-0.257833	0.257752
C77	C	0.648828	0.075500	0.591086
C78	C	0.982161	0.408834	0.924419
C79	C	0.315462	-0.324823	0.324504
C80	C	0.648796	0.008511	0.657838
C81	C	0.982129	0.341844	0.991171
C82	C	0.388966	-0.327017	0.326685
C83	C	0.722300	0.006316	0.660018
C84	C	1.055633	0.339650	0.993351
C85	C	0.425732	-0.294616	0.294403
C86	C	0.759066	0.038718	0.627737
C87	C	1.092399	0.372051	0.961070
N88	N	0.533697	-0.267937	0.267817
N89	N	0.867030	0.065396	0.601150
N90	N	1.200364	0.398729	0.934483
N91	N	0.500864	-0.296859	0.296639
N92	N	0.834197	0.036474	0.629973
N93	N	1.167531	0.369808	0.963306
C94	C	1.016806	-0.418224	0.282182
C95	C	1.350140	-0.084890	0.615515
C96	C	1.683473	0.248443	0.948848
C97	C	1.016820	-0.476338	0.282189
C98	C	1.350153	-0.143005	0.615523
C99	C	1.683487	0.190329	0.948856
C100	C	1.062057	-0.838039	0.250175
C101	C	1.395390	-0.504706	0.583508
C102	C	1.728723	-0.171373	0.916841
C103	C	1.062084	-0.892644	0.250183
C104	C	1.395417	-0.559311	0.583516
C105	C	1.728751	-0.225978	0.916849
O106	O	1.100423	-0.922015	0.222933
O107	O	1.433756	-0.588682	0.556266
O108	O	1.767090	-0.255348	0.889599
N109	N	1.017048	-0.918627	0.282247
N110	N	1.350382	-0.585294	0.615581
N111	N	1.683715	-0.251961	0.948914
C112	C	0.971988	-0.890003	0.314311
C113	C	1.305321	-0.556669	0.647644
C114	C	1.638654	-0.223336	0.980977
O115	O	0.933684	-0.917117	0.341585
O116	O	1.267018	-0.583784	0.674919
O117	O	1.600351	-0.250451	1.008252
C118	C	0.971964	-0.835399	0.314305
C119	C	1.305298	-0.502065	0.647638
C120	C	1.638631	-0.168732	0.980972
C121	C	1.016998	-0.809418	0.282234
C122	C	1.350331	-0.476085	0.615568
C123	C	1.683665	-0.142752	0.948901
C124	C	1.107087	-0.812059	0.218107
C125	C	1.440420	-0.478725	0.551440
C126	C	1.773754	-0.145392	0.884774
C127	C	1.107059	-0.757457	0.218099
C128	C	1.440392	-0.424124	0.551432
C129	C	1.773725	-0.090791	0.884765
C130	C	1.062000	-0.728836	0.250158
C131	C	1.395333	-0.395503	0.583491
C132	C	1.728667	-0.062170	0.916825
C133	C	1.016969	-0.754817	0.282226
C134	C	1.350303	-0.421484	0.615559
C135	C	1.683636	-0.088150	0.948893
C136	C	0.926908	-0.806775	0.346371
C137	C	1.260241	-0.473441	0.679704
C138	C	1.593574	-0.140108	1.013037
C139	C	0.926889	-0.752167	0.346363
C140	C	1.260222	-0.418834	0.679696
C141	C	1.593555	-0.085501	1.013029
C142	C	0.971922	-0.726187	0.314292
C143	C	1.305256	-0.392854	0.647625
C144	C	1.638589	-0.059520	0.980958
C145	C	0.971882	-0.671595	0.314277
C146	C	1.305216	-0.338261	0.647610
C147	C	1.638549	-0.004928	0.980944
N148	N	1.016918	-0.645611	0.282212
N149	N	1.350251	-0.312278	0.615545
N150	N	1.683585	0.021055	0.948879
C151	C	1.061977	-0.674232	0.250153
C152	C	1.395310	-0.340899	0.583486
C153	C	1.728643	-0.007566	0.916819
C154	C	0.972041	-1.004675	0.314320
C155	C	1.305374	-0.671341	0.647654
C156	C	1.638707	-0.338008	0.980987
C157	C	0.972060	-1.059278	0.314323
C158	C	1.305393	-0.725944	0.647657
C159	C	1.638726	-0.392611	0.980990
C160	C	1.062157	-1.061916	0.250196
C161	C	1.395491	-0.728582	0.583529
C162	C	1.728824	-0.395249	0.916863
C163	C	1.062134	-1.007312	0.250190
C164	C	1.395467	-0.673978	0.583524
C165	C	1.728801	-0.340645	0.916857
C166	C	1.017076	-0.978692	0.282255
C167	C	1.350410	-0.645358	0.615589
C168	C	1.683743	-0.312025	0.948922
C169	C	1.061913	-0.559565	0.250137
C170	C	1.395247	-0.226232	0.583470
C171	C	1.728580	0.107101	0.916804
C172	C	1.061879	-0.504959	0.250130
C173	C	1.395212	-0.171626	0.583463
C174	C	1.728545	0.161708	0.916797
C175	C	0.971784	-0.502326	0.314259
C176	C	1.305118	-0.168993	0.647592
C177	C	1.638451	0.164341	0.980926
C178	C	0.971816	-0.556927	0.314264
C179	C	1.305149	-0.223594	0.647598
C180	C	1.638482	0.109739	0.980931
C181	C	1.016886	-0.585546	0.282202
C182	C	1.350219	-0.252213	0.615535
C183	C	1.683553	0.081121	0.948868
O184	O	0.933565	-0.642190	0.341514
O185	O	1.266898	-0.308856	0.674848
O186	O	1.600232	0.024477	1.008181
O187	O	1.100280	-0.647111	0.222887
O188	O	1.433613	-0.313778	0.556221
O189	O	1.766947	0.019556	0.889554
C190	C	1.200499	-0.287885	0.287696
C191	C	1.533832	0.045448	0.621029
C192	C	1.867166	0.378782	0.954363
C193	C	1.278727	-0.290229	0.290034
C194	C	1.612061	0.043105	0.623368
C195	C	1.945394	0.376438	0.956701
C196	C	1.016925	-0.282404	0.418582
C197	C	1.350258	0.050929	0.751915
C198	C	1.683592	0.384263	1.085249
C199	C	1.016925	-0.282412	0.476696
C200	C	1.350258	0.050921	0.810030
C201	C	1.683592	0.384254	1.143363
C202	C	1.017063	-0.146016	0.282249
C203	C	1.350396	0.187318	0.615582
C204	C	1.683729	0.520651	0.948915
C205	C	1.017121	-0.087903	0.282266
C206	C	1.350455	0.245430	0.615599
C207	C	1.683788	0.578763	0.948932
C208	C	1.061971	-0.250298	0.838420
C209	C	1.395305	0.083035	1.171753
C210	C	1.728638	0.416369	1.505087
C211	C	1.061971	-0.250295	0.893024
C212	C	1.395304	0.083039	1.226358
C213	C	1.728638	0.416372	1.559691
O214	O	1.100260	-0.222993	0.922418
O215	O	1.433593	0.110340	1.255751
O216	O	1.766926	0.443674	1.589084
N217	N	1.016930	-0.282383	0.918979
N218	N	1.350263	0.050951	1.252312
N219	N	1.683596	0.384284	1.585645
C220	C	0.971881	-0.314472	0.890326
C221	C	1.305214	0.018862	1.223659
C222	C	1.638547	0.352195	1.556993
O223	O	0.933569	-0.341764	0.917416
O224	O	1.266903	-0.008431	1.250750
O225	O	1.600236	0.324903	1.584083
C226	C	0.971878	-0.314471	0.835723
C227	C	1.305211	0.018862	1.169056
C228	C	1.638545	0.352195	1.502389
C229	C	1.016927	-0.282385	0.809771
C230	C	1.350261	0.050948	1.143104
C231	C	1.683594	0.384281	1.476438
C232	C	1.107016	-0.218214	0.812468
C233	C	1.440349	0.115119	1.145802
C234	C	1.773683	0.448453	1.479135
C235	C	1.107017	-0.218218	0.757868
C236	C	1.440351	0.115115	1.091201
C237	C	1.773684	0.448449	1.424534
C238	C	1.061973	-0.250306	0.729219
C239	C	1.395307	0.083028	1.062552
C240	C	1.728640	0.416361	1.395886
C241	C	1.016928	-0.282389	0.755171
C242	C	1.350262	0.050944	1.088504
C243	C	1.683595	0.384277	1.421837
C244	C	0.926826	-0.346557	0.807071
C245	C	1.260160	-0.013224	1.140404
C246	C	1.593493	0.320109	1.473737
C247	C	0.926827	-0.346554	0.752464
C248	C	1.260160	-0.013221	1.085797
C249	C	1.593494	0.320112	1.419130
C250	C	0.971876	-0.314468	0.726512
C251	C	1.305209	0.018865	1.059846
C252	C	1.638543	0.352198	1.393179
C253	C	0.971885	-0.314481	0.671921
C254	C	1.305219	0.018852	1.005255
C255	C	1.638552	0.352186	1.338588
N256	N	1.016927	-0.282393	0.645967
N257	N	1.350260	0.050940	0.979300
N258	N	1.683593	0.384274	1.312633
C259	C	1.061971	-0.250305	0.674616
C260	C	1.395304	0.083028	1.007949
C261	C	1.728637	0.416361	1.341282
C262	C	0.971889	-0.314469	1.004997
C263	C	1.305222	0.018865	1.338330
C264	C	1.638556	0.352198	1.671664
C265	C	0.971895	-0.314472	1.059599
C266	C	1.305228	0.018861	1.392933
C267	C	1.638561	0.352195	1.726266
C268	C	1.061984	-0.250294	1.062294
C269	C	1.395317	0.083039	1.395627
C270	C	1.728651	0.416372	1.728961
C271	C	1.061981	-0.250294	1.007690
C272	C	1.395315	0.083039	1.341024
C273	C	1.728648	0.416373	1.674357
C274	C	1.016930	-0.282381	0.979042
C275	C	1.350264	0.050952	1.312376
C276	C	1.683597	0.384286	1.645709
C277	C	1.061970	-0.250316	0.559950
C278	C	1.395303	0.083017	0.893284
C279	C	1.728636	0.416350	1.226617
C280	C	1.061969	-0.250325	0.505345
C281	C	1.395302	0.083009	0.838678
C282	C	1.728636	0.416342	1.172012
C283	C	0.971877	-0.314500	0.502655
C284	C	1.305211	0.018833	0.835989
C285	C	1.638544	0.352167	1.169322
C286	C	0.971880	-0.314494	0.557256
C287	C	1.305214	0.018839	0.890589
C288	C	1.638547	0.352173	1.223923
C289	C	1.016929	-0.282398	0.585902
C290	C	1.350262	0.050935	0.919236
C291	C	1.683596	0.384269	1.252569
O292	O	0.933614	-0.341767	0.642494
O293	O	1.266947	-0.008434	0.975827
O294	O	1.600281	0.324899	1.309160
O295	O	1.100269	-0.223013	0.647518
O296	O	1.433602	0.110321	0.980852
O297	O	1.766936	0.443654	1.314185
C298	C	1.016924	-0.282380	1.146367
C299	C	1.350257	0.050953	1.479700
C300	C	1.683590	0.384286	1.813033
C301	C	1.016936	-0.282382	1.088253
C302	C	1.350270	0.050951	1.421586
C303	C	1.683603	0.384285	1.754920
H304	H	1.098550	-0.483808	0.224012
H305	H	1.431884	-0.150474	0.557345
H306	H	1.765217	0.182859	0.890679
H307	H	1.098660	-0.224165	1.085630
H308	H	1.431993	0.109168	1.418963
H309	H	1.765326	0.442501	1.752296
H310	H	0.890233	-0.827918	0.372484
H311	H	1.223566	-0.494585	0.705817
H312	H	1.556900	-0.161252	1.039150
H313	H	0.935148	-0.578082	0.340381
H314	H	1.268481	-0.244748	0.673714
H315	H	1.601815	0.088585	1.007048
H316	H	0.935204	-0.340626	0.578387
H317	H	1.268538	-0.007293	0.911720
H318	H	1.601871	0.326041	1.245054
H319	H	0.285587	-0.229659	0.229688
H320	H	0.618920	0.103674	0.563021
H321	H	0.952253	0.437008	0.896354
H322	H	0.935096	-0.479014	0.340360
H323	H	1.268429	-0.145681	0.673693
H324	H	1.601762	0.187652	1.007027
H325	H	1.143700	-0.192089	0.736743
H326	H	1.477033	0.141244	1.070076
H327	H	1.810366	0.474577	1.403410
H328	H	0.748973	-0.335140	0.334766
H329	H	1.082307	-0.001807	0.668099
H330	H	1.415640	0.331526	1.001433
H331	H	1.098849	-1.085229	0.224093
H332	H	1.432182	-0.751896	0.557426
H333	H	1.765516	-0.418562	0.890760
H334	H	1.098656	-0.224196	0.484218
H335	H	1.431989	0.109137	0.817551
H336	H	1.765323	0.442471	1.150885
H337	H	0.749040	-0.213595	0.213667
H338	H	1.082373	0.119738	0.547001
H339	H	1.415706	0.453071	0.880334
H340	H	0.285520	-0.351201	0.350787
H341	H	0.618853	-0.017868	0.684120
H342	H	0.952186	0.315465	1.017453
H343	H	0.935343	-0.981375	0.340430
H344	H	1.268677	-0.648041	0.673763
H345	H	1.602010	-0.314708	1.007096
H346	H	0.418928	-0.233645	0.233647
H347	H	0.752262	0.099688	0.566980
H348	H	1.085595	0.433022	0.900314
H349	H	1.143783	-0.835356	0.192000
H350	H	1.477116	-0.502023	0.525333
H351	H	1.810450	-0.168690	0.858667
H352	H	0.890198	-0.728867	0.372476
H353	H	1.223531	-0.395534	0.705809
H354	H	1.556865	-0.062201	1.039142
H355	H	0.615632	-0.331154	0.330805
H356	H	0.948966	0.002179	0.664138
H357	H	1.282299	0.335512	0.997471
H358	H	1.143731	-0.736308	0.191985
H359	H	1.477064	-0.402974	0.525319
H360	H	1.810397	-0.069641	0.858652
H361	H	0.615686	-0.209617	0.209704
H362	H	0.949020	0.123717	0.543038
H363	H	1.282353	0.457050	0.876371
H364	H	1.098804	-0.986162	0.224076
H365	H	1.432138	-0.652828	0.557409
H366	H	1.765471	-0.319495	0.890743
H367	H	1.098650	-0.224179	0.583268
H368	H	1.431984	0.109154	0.916601
H369	H	1.765317	0.442488	1.249935
H370	H	0.935202	-0.340600	0.981675
H371	H	1.268536	-0.007267	1.315008
H372	H	1.601869	0.326066	1.648341
H373	H	0.418871	-0.355186	0.354751
H374	H	0.752205	-0.021852	0.688084
H375	H	1.085538	0.311481	1.021417
H376	H	0.935219	-0.340605	1.080725
H377	H	1.268552	-0.007272	1.414058
H378	H	1.601886	0.326061	1.747391
H379	H	1.143696	-0.192082	0.835789
H380	H	1.477030	0.141252	1.169122
H381	H	1.810363	0.474585	1.502455
H382	H	1.098615	-0.582860	0.224030
H383	H	1.431949	-0.249527	0.557363
H384	H	1.765282	0.083806	0.890696
H385	H	1.098663	-0.224166	0.986564
H386	H	1.431997	0.109167	1.319898
H387	H	1.765330	0.442501	1.653231
H388	H	0.890142	-0.372685	0.828191
H389	H	1.223475	-0.039352	1.161524
H390	H	1.556809	0.293982	1.494858
H391	H	0.890132	-0.372678	0.729141
H392	H	1.223466	-0.039345	1.062474
H393	H	1.556799	0.293989	1.395807
H394	H	0.935206	-0.340627	0.479320
H395	H	1.268539	-0.007293	0.812653
H396	H	1.601873	0.326040	1.145986
H397	H	0.935382	-1.080426	0.340434
H398	H	1.268716	-0.747093	0.673767
H399	H	1.602049	-0.413759	1.007100
