data_functionalizedCrystal
_audit_creation_method	'MofGen! by Chris Wilmer'
_symmetry_space_group_name_H-M	'P1'
_symmetry_Int_Tables_number	1
_symmetry_cell_setting	triclinic
loop_
_symmetry_equiv_pos_as_xyz
  x,y,z
_cell_length_a	17.019282
_cell_length_b	19.188930
_cell_length_c	15.500227
_cell_angle_alpha	92.813384
_cell_angle_beta	91.034464
_cell_angle_gamma	83.267516
loop_
_atom_site_label
_atom_site_type_symbol
_atom_site_fract_x
_atom_site_fract_y
_atom_site_fract_z
O1	O	1.046067	0.089173	0.006008
O2	O	1.546067	0.589173	0.506008
O3	O	0.817235	0.099757	-0.011050
O4	O	1.317235	0.599757	0.488950
O5	O	0.938254	-0.007157	-0.002012
O6	O	1.438254	0.492843	0.497988
O7	O	0.925048	0.196087	-0.003030
O8	O	1.425048	0.696087	0.496970
O9	O	0.930910	-0.000694	0.141328
O10	O	1.430910	0.499306	0.641328
O11	O	0.809891	0.106219	0.132290
O12	O	1.309891	0.606219	0.632290
O13	O	1.038723	0.095635	0.149348
O14	O	1.538723	0.595635	0.649348
Cu15	Cu	0.923637	0.101517	0.153907
Cu16	Cu	1.423637	0.601517	0.653907
Cu17	Cu	0.932321	0.093875	-0.015609
Cu18	Cu	1.432321	0.593875	0.484391
O19	O	0.917704	0.202549	0.140310
O20	O	1.417704	0.702549	0.640310
C21	C	0.784287	0.102461	0.058438
C22	C	1.284287	0.602461	0.558438
C23	C	0.697054	0.100882	0.051937
C24	C	1.197054	0.600882	0.551937
C25	C	0.652073	0.103661	0.127019
C26	C	1.152073	0.603661	0.627019
C27	C	0.570110	0.102166	0.120912
C28	C	1.070110	0.602166	0.620912
C29	C	0.533128	0.097897	0.039723
C30	C	1.033128	0.597897	0.539723
C31	C	0.578115	0.095116	-0.035365
C32	C	1.078115	0.595116	0.464635
C33	C	0.660077	0.096606	-0.029258
C34	C	1.160077	0.596606	0.470742
C35	C	0.285854	0.093218	0.017373
C36	C	0.785854	0.593218	0.517373
C37	C	0.203885	0.091731	0.011272
C38	C	0.703885	0.591731	0.511272
C39	C	0.195886	0.098780	0.167550
C40	C	0.695886	0.598780	0.667550
C41	C	0.277850	0.100274	0.173650
C42	C	0.777850	0.600274	0.673650
C43	C	0.322830	0.097488	0.098562
C44	C	0.822830	0.597488	0.598562
C45	C	0.449348	0.096372	0.033479
C46	C	0.949348	0.596372	0.533479
C47	C	0.406610	0.099009	0.104807
C48	C	0.906610	0.599009	0.604807
C49	C	0.934154	-0.029939	0.069629
C50	C	1.434154	0.470061	0.569629
C51	C	0.932870	-0.107449	0.069540
C52	C	1.432870	0.392551	0.569540
C53	C	1.003880	-0.152016	0.074838
C54	C	1.503880	0.347984	0.574838
C55	C	1.002674	-0.224847	0.074734
C56	C	1.502674	0.275153	0.574734
C57	C	0.930454	-0.253106	0.069350
C58	C	1.430454	0.246894	0.569350
C59	C	0.859435	-0.208530	0.064047
C60	C	1.359435	0.291470	0.564047
C61	C	0.860642	-0.135701	0.064142
C62	C	1.360642	0.364299	0.564142
N63	N	0.872751	-0.359189	0.114016
N64	N	1.372751	0.140811	0.614016
N65	N	0.871608	-0.428374	0.113928
N66	N	1.371608	0.071626	0.613928
C67	C	0.926810	-0.472534	0.069061
C68	C	1.426810	0.027466	0.569061
N69	N	0.983210	-0.444897	0.024297
N70	N	1.483210	0.055103	0.524297
N71	N	0.984354	-0.375706	0.024389
N72	N	1.484354	0.124294	0.524389
C73	C	0.929136	-0.332076	0.069246
C74	C	1.429136	0.167924	0.569246
C75	C	0.996518	-0.596073	0.074245
C76	C	1.496518	-0.096073	0.574245
C77	C	0.995310	-0.668904	0.074136
C78	C	1.495310	-0.168904	0.574136
C79	C	0.852068	-0.652585	0.063457
C80	C	1.352068	-0.152585	0.563457
C81	C	0.853278	-0.579756	0.063558
C82	C	1.353278	-0.079756	0.563558
C83	C	0.925505	-0.551504	0.068956
C84	C	1.425505	-0.051504	0.568956
C85	C	1.071671	0.092931	0.079858
C86	C	1.571671	0.592931	0.579858
C87	C	1.158905	0.094510	0.086354
C88	C	1.658905	0.594510	0.586354
C89	C	0.921804	0.225331	0.068667
C90	C	1.421804	0.725331	0.568667
C91	C	0.923089	0.302841	0.068750
C92	C	1.423089	0.802841	0.568750
N93	N	0.917534	0.106892	0.273136
N94	N	1.417534	0.606892	0.773136
N95	N	0.938430	0.088495	-0.134838
N96	N	1.438430	0.588495	0.365162
C97	C	0.968832	0.061606	0.322244
C98	C	1.468832	0.561606	0.822244
C99	C	0.964223	0.065677	0.412473
C100	C	1.464223	0.565677	0.912473
C101	C	0.908321	0.115039	0.453592
C102	C	1.408321	0.615039	0.953592
C103	C	0.857018	0.160327	0.404478
C104	C	1.357018	0.660327	0.904478
C105	C	0.861623	0.156252	0.314251
C106	C	1.361623	0.656252	0.814251
C107	C	0.891732	0.129708	0.725820
C108	C	1.391732	0.629708	1.225820
C109	C	0.887133	0.133781	0.816054
C110	C	1.387133	0.633781	1.316054
C111	C	0.994338	0.039130	0.824043
C112	C	1.494338	0.539130	1.324043
C113	C	0.998941	0.035062	0.733814
C114	C	1.498941	0.535062	1.233814
C115	C	0.947635	0.080347	0.684707
C116	C	1.447635	0.580347	1.184707
C117	C	0.903611	0.119203	0.545821
C118	C	1.403611	0.619203	1.045821
C119	C	0.952342	0.076179	0.592480
C120	C	1.452342	0.576179	1.092480
H121	H	0.173777	0.088257	-0.054846
H122	H	0.673777	0.588257	0.445154
H123	H	0.682176	0.107143	0.193132
H124	H	1.182176	0.607143	0.693132
N125	N	0.799911	0.210754	0.446464
N126	N	1.299911	0.710754	0.946464
N127	N	0.754112	0.251183	0.402605
N128	N	1.254112	0.751183	0.902605
H129	H	0.713779	0.286799	0.432255
H130	H	1.213779	0.786799	0.932255
H131	H	0.802816	-0.099414	0.059829
H132	H	1.302816	0.400586	0.559829
H133	H	0.849958	0.166583	0.685845
H134	H	1.349958	0.666583	1.185845
H135	H	0.533491	0.104418	0.182053
H136	H	1.033491	0.604418	0.682053
N137	N	0.778302	-0.681455	0.057948
N138	N	1.278302	-0.181455	0.557948
N139	N	0.777232	-0.746480	0.057859
N140	N	1.277232	-0.246480	0.557859
H141	H	0.725134	-0.766873	0.053964
H142	H	1.225134	-0.266873	0.553964
N143	N	0.830030	0.184204	0.858067
N144	N	1.330030	0.684204	1.358067
N145	N	0.852238	0.229890	0.910240
N146	N	1.352238	0.729890	1.410240
H147	H	0.811912	0.265500	0.939912
H148	H	1.311912	0.765500	1.439912
N149	N	0.331782	0.090373	-0.059333
N150	N	0.831782	0.590373	0.440667
N151	N	0.298749	0.086563	-0.131816
N152	N	0.798749	0.586563	0.368184
H153	H	0.331188	0.084554	-0.185995
H154	H	0.831188	0.584554	0.314005
H155	H	0.159254	0.101046	0.228682
H156	H	0.659254	0.601046	0.728682
H157	H	0.547998	0.091635	-0.101472
H158	H	1.047998	0.591635	0.398528
N159	N	0.706037	0.093777	-0.105944
N160	N	1.206037	0.593777	0.394056
N161	N	0.779217	0.095107	-0.100481
N162	N	1.279217	0.595107	0.399519
H163	H	0.811677	0.093107	-0.154643
H164	H	1.311677	0.593107	0.345357
N165	N	1.075220	-0.270371	0.080145
N166	N	1.575220	0.229629	0.580145
N167	N	1.139700	-0.245137	0.084962
N168	N	1.639700	0.254863	0.584962
H169	H	1.190936	-0.277287	0.088785
H170	H	1.690936	0.222713	0.588785
N171	N	1.070286	-0.567198	0.079736
N172	N	1.570286	-0.067198	0.579736
N173	N	1.071356	-0.502172	0.079821
N174	N	1.571356	-0.002172	0.579821
H175	H	1.123455	-0.481779	0.083697
H176	H	1.623455	0.018221	0.583697
N177	N	1.067857	-0.714422	0.079536
N178	N	1.567857	-0.214422	0.579536
N179	N	1.132335	-0.689184	0.084351
N180	N	1.632335	-0.189184	0.584351
H181	H	1.183574	-0.721331	0.088164
H182	H	1.683574	-0.221331	0.588164
N183	N	0.444397	0.103379	0.187728
N184	N	0.944397	0.603379	0.687728
N185	N	0.481828	0.154165	0.207989
N186	N	0.981828	0.654165	0.707989
H187	H	0.508524	0.157256	0.266552
H188	H	1.008524	0.657256	0.766552
H189	H	0.795454	-0.543468	0.059249
H190	H	1.295454	-0.043468	0.559249
N191	N	1.009427	0.025727	0.550511
N192	N	1.509427	0.525727	1.050511
N193	N	1.081551	0.027300	0.565976
N194	N	1.581551	0.527300	1.065976
H195	H	1.121861	-0.008346	0.536339
H196	H	1.621861	0.491654	1.036339
H197	H	1.014356	0.021413	0.288771
H198	H	1.514356	0.521413	0.788771
H199	H	1.005993	0.028801	0.452456
H200	H	1.505993	0.528801	0.952456
H201	H	1.036107	0.002259	0.864033
H202	H	1.536107	0.502259	1.364033
N203	N	0.411569	0.092002	-0.049452
N204	N	0.911569	0.592002	0.450548
N205	N	0.374144	0.041216	-0.069727
N206	N	0.874144	0.541216	0.430273
H207	H	0.347461	0.038128	-0.128297
H208	H	0.847461	0.538128	0.371703
N209	N	1.056182	-0.015245	0.691838
N210	N	1.556182	0.484755	1.191838
N211	N	1.102069	-0.055597	0.735701
N212	N	1.602069	0.444403	1.235701
H213	H	1.142548	-0.091081	0.706060
H214	H	1.642548	0.408919	1.206060
H215	H	0.819850	0.193128	0.274268
H216	H	1.319850	0.693128	0.774268
N217	N	0.846503	0.169616	0.587829
N218	N	1.346503	0.669616	1.087829
N219	N	0.795237	0.149592	0.634564
N220	N	1.295237	0.649592	1.134564
H221	H	0.754902	0.185194	0.664236
H222	H	1.254902	0.685194	1.164236
N223	N	0.785670	-0.237404	0.058540
N224	N	1.285670	0.262596	0.558540
N225	N	0.784601	-0.302430	0.058457
N226	N	1.284601	0.197570	0.558457
H227	H	0.732502	-0.322824	0.054563
H228	H	1.232502	0.177176	0.554563
N229	N	0.315614	0.104616	0.256591
N230	N	0.815614	0.604616	0.756591
N231	N	0.275444	0.107083	0.323624
N232	N	0.775444	0.607083	0.823624
H233	H	0.302115	0.110144	0.382204
H234	H	0.802115	0.610144	0.882204
H235	H	1.062693	-0.129019	0.079230
H236	H	1.562693	0.370981	0.579230
