data_functionalizedCrystal
_audit_creation_method	'MofGen! by Chris Wilmer'
_symmetry_space_group_name_H-M	'P1'
_symmetry_Int_Tables_number	1
_symmetry_cell_setting	triclinic
loop_
_symmetry_equiv_pos_as_xyz
  x,y,z
_cell_length_a	29.917948
_cell_length_b	29.917021
_cell_length_c	29.913391
_cell_angle_alpha	60.005297
_cell_angle_beta	60.010472
_cell_angle_gamma	59.993667
loop_
_atom_site_label
_atom_site_type_symbol
_atom_site_fract_x
_atom_site_fract_y
_atom_site_fract_z
O1	O	0.061938	-0.653075	0.546110
O2	O	0.561938	-0.153075	1.046110
O3	O	0.023328	-0.508466	0.440017
O4	O	0.523328	-0.008466	0.940017
O5	O	0.114898	-0.599963	0.439941
O6	O	0.614898	-0.099963	0.939941
O7	O	-0.029633	-0.561578	0.546186
O8	O	0.470367	-0.061578	1.046186
O9	O	0.145278	-0.569587	0.470242
O10	O	0.645278	-0.069587	0.970242
O11	O	0.053708	-0.478090	0.470318
O12	O	0.553708	0.021910	0.970318
O13	O	0.092318	-0.622699	0.576411
O14	O	0.592318	-0.122699	1.076411
Zn15	Zn	0.077836	-0.545572	0.528175
Zn16	Zn	0.577836	-0.045572	1.028175
Zn17	Zn	0.037809	-0.585593	0.488253
Zn18	Zn	0.537809	-0.085593	0.988253
O19	O	0.000747	-0.531202	0.576487
O20	O	0.500747	-0.031202	1.076487
N21	N	0.105154	-0.518262	0.555424
N22	N	0.605154	-0.018262	1.055424
N23	N	0.010496	-0.612908	0.461004
N24	N	0.510496	-0.112908	0.961004
C25	C	0.164136	-0.309209	0.614352
C26	C	0.664136	0.190791	1.114352
C27	C	0.164251	-0.459335	0.764424
C28	C	0.664251	0.040665	1.264424
C29	C	0.164150	-0.459313	0.614341
C30	C	0.664150	0.040687	1.114341
C31	C	0.314282	-0.459305	0.614278
C32	C	0.814282	0.040695	1.114278
C33	C	0.180666	-0.358742	0.630849
C34	C	0.680666	0.141258	1.130849
C35	C	0.180732	-0.442815	0.714891
C36	C	0.680732	0.057185	1.214891
C37	C	0.264747	-0.442797	0.630809
C38	C	0.764747	0.057203	1.130809
C39	C	0.180676	-0.442802	0.630843
C40	C	0.680676	0.057198	1.130843
C41	C	0.143097	-0.246161	0.593354
C42	C	0.643097	0.253839	1.093354
C43	C	0.143120	-0.480326	0.593337
C44	C	0.643120	0.019674	1.093337
C45	C	0.201706	-0.421790	0.651848
C46	C	0.701706	0.078210	1.151848
C47	C	0.405963	-0.443499	0.565998
C48	C	0.905963	0.056501	1.065998
C49	C	0.463273	-0.462598	0.546874
C50	C	0.963273	0.037402	1.046874
C51	C	0.463297	-0.555329	0.582235
C52	C	0.963297	-0.055329	1.082235
C53	C	0.405988	-0.536228	0.601360
C54	C	0.905988	-0.036228	1.101360
C55	C	0.156905	-0.217495	0.537012
C56	C	0.656905	0.282505	1.037012
C57	C	0.137776	-0.160180	0.517926
C58	C	0.637776	0.339820	1.017926
C59	C	0.091035	-0.160201	0.611524
C60	C	0.591035	0.339799	1.111524
C61	C	0.110164	-0.217516	0.630611
C62	C	0.610164	0.282484	1.130611
C63	C	0.086772	-0.466488	0.607209
C64	C	0.586772	0.033512	1.107209
C65	C	0.067659	-0.485590	0.588108
C66	C	0.567659	0.014410	1.088108
C67	C	0.161236	-0.532368	0.541277
C68	C	0.661236	-0.032368	1.041277
C69	C	0.180352	-0.513266	0.560371
C70	C	0.680352	-0.013266	1.060371
C71	C	0.086942	-0.466529	0.856152
C72	C	0.586942	0.033471	1.356152
C73	C	0.067877	-0.485647	0.913465
C74	C	0.567877	0.014353	1.413465
C75	C	0.161489	-0.532436	0.913415
C76	C	0.661489	-0.032436	1.413415
C77	C	0.180552	-0.513318	0.856101
C78	C	0.680552	-0.013318	1.356101
C79	C	0.143277	-0.480363	0.827471
C80	C	0.643277	0.019637	1.327471
C81	C	0.377323	-0.480313	0.593239
C82	C	0.877323	0.019687	1.093239
C83	C	-0.111377	-0.650681	0.422736
C84	C	0.388623	-0.150681	0.922736
C85	C	-0.027364	-0.650787	0.422929
C86	C	0.472636	-0.150787	0.922929
C87	C	-0.048335	-0.671770	0.401835
C88	C	0.451665	-0.171770	0.901835
C89	C	-0.064214	-0.763416	0.450041
C90	C	0.435786	-0.263416	0.950041
C91	C	-0.045160	-0.820731	0.469172
C92	C	0.454840	-0.320731	0.969172
C93	C	0.047573	-0.820841	0.433980
C94	C	0.547573	-0.320841	0.933980
C95	C	0.028517	-0.763527	0.414847
C96	C	0.528517	-0.263527	0.914847
C97	C	-0.140115	-0.664483	0.479060
C98	C	0.359885	-0.164483	0.979060
C99	C	-0.197425	-0.645309	0.498058
C100	C	0.302575	-0.145309	0.998058
C101	C	-0.197256	-0.598535	0.404405
C102	C	0.302744	-0.098535	0.904405
C103	C	-0.139946	-0.617709	0.385407
C104	C	0.360054	-0.117709	0.885407
C105	C	-0.041168	-0.594444	0.409067
C106	C	0.458832	-0.094444	0.909067
C107	C	-0.022104	-0.575374	0.428250
C108	C	0.477896	-0.075374	0.928250
C109	C	0.024568	-0.668986	0.475143
C110	C	0.524568	-0.168986	0.975143
C111	C	0.005504	-0.688059	0.455967
C112	C	0.505504	-0.188059	0.955967
C113	C	-0.041000	-0.594453	0.310105
C114	C	0.459000	-0.094453	0.810105
C115	C	-0.021803	-0.575386	0.252792
C116	C	0.478197	-0.075386	0.752792
C117	C	0.024951	-0.669004	0.252854
C118	C	0.524951	-0.169004	0.752854
C119	C	0.005755	-0.688070	0.310168
C120	C	0.505755	-0.188070	0.810168
C121	C	-0.027222	-0.650793	0.338792
C122	C	0.472778	-0.150793	0.838792
C123	C	-0.027377	-0.734817	0.422881
C124	C	0.472623	-0.234817	0.922881
N125	N	0.491125	-0.518235	0.555255
N126	N	0.991125	-0.018235	1.055255
O127	O	0.678406	-0.527360	0.420422
O128	O	1.178406	-0.027360	0.920422
O129	O	0.678588	-0.633782	0.564887
O130	O	1.178588	-0.133782	1.064887
O131	O	0.678516	-0.633539	0.473265
O132	O	1.178516	-0.133539	0.973265
O133	O	0.678478	-0.527602	0.512044
O134	O	1.178478	-0.027602	1.012044
O135	O	0.587469	-0.603251	0.503685
O136	O	1.087469	-0.103251	1.003685
O137	O	0.587541	-0.603493	0.595307
O138	O	1.087541	-0.103493	1.095307
O139	O	0.587359	-0.497071	0.450842
O140	O	1.087359	0.002929	0.950842
Zn141	Zn	0.572994	-0.545473	0.527905
Zn142	Zn	1.072994	-0.045473	1.027905
Zn143	Zn	0.692953	-0.585380	0.487825
Zn144	Zn	1.192953	-0.085380	0.987825
O145	O	0.587431	-0.497313	0.542465
O146	O	1.087431	0.002687	1.042465
N147	N	0.774821	-0.612618	0.460470
N148	N	1.274821	-0.112618	0.960470
N149	N	0.105125	-0.132348	0.555445
N150	N	0.605125	0.367652	1.055445
O151	O	-0.029633	0.055031	0.546198
O152	O	0.470367	0.555031	1.046198
O153	O	0.114837	0.055047	0.439777
O154	O	0.614837	0.555047	0.939777
O155	O	0.023189	0.055024	0.440050
O156	O	0.523189	0.555024	0.940050
O157	O	0.062016	0.055054	0.545925
O158	O	0.562016	0.555054	1.045925
O159	O	0.053572	-0.036031	0.470398
O160	O	0.553572	0.463969	0.970398
O161	O	0.145220	-0.036008	0.470125
O162	O	0.645220	0.463992	0.970125
O163	O	0.000750	-0.036024	0.576546
O164	O	0.500750	0.463976	1.076546
Zn165	Zn	0.077809	-0.050473	0.528154
Zn166	Zn	0.577809	0.449527	1.028154
Zn167	Zn	0.037778	0.069496	0.488169
Zn168	Zn	0.537778	0.569496	0.988169
O169	O	0.092399	-0.036001	0.576273
O170	O	0.592399	0.463999	1.076273
N171	N	0.010456	0.151371	0.460879
N172	N	0.510456	0.651371	0.960879
N173	N	0.105414	-0.518315	0.941279
N174	N	0.605414	-0.018315	1.441279
O175	O	0.096182	-0.653057	1.128644
O176	O	0.596182	-0.153057	1.628644
O177	O	-0.010215	-0.508539	1.128670
O178	O	0.489785	-0.008539	1.628670
O179	O	-0.009968	-0.600172	1.128636
O180	O	0.490032	-0.100172	1.628636
O181	O	0.095935	-0.561424	1.128678
O182	O	0.595935	-0.061424	1.628678
O183	O	0.020367	-0.569808	1.037586
O184	O	0.520367	-0.069808	1.537586
O185	O	0.020121	-0.478175	1.037620
O186	O	0.520121	0.021825	1.537620
O187	O	0.126517	-0.622693	1.037594
O188	O	0.626517	-0.122693	1.537594
Zn189	Zn	0.078135	-0.545613	1.023151
Zn190	Zn	0.578135	-0.045613	1.523151
Zn191	Zn	0.038167	-0.585619	1.143113
Zn192	Zn	0.538167	-0.085619	1.643113
O193	O	0.126270	-0.531061	1.037628
O194	O	0.626270	-0.031061	1.537628
N195	N	0.010887	-0.612923	1.224985
N196	N	0.510887	-0.112923	1.724985
C197	C	0.034899	-0.475056	0.440551
C198	C	0.534899	0.024944	0.940551
C199	C	0.148298	-0.588365	0.440456
C200	C	0.648298	-0.088365	0.940456
C201	C	0.080746	-0.656109	0.575876
C202	C	0.580746	-0.156109	1.075876
C203	C	-0.032653	-0.542801	0.575971
C204	C	0.467347	-0.042801	1.075971
C205	C	0.633086	-0.633292	0.598298
C206	C	1.133086	-0.133292	1.098298
C207	C	0.632998	-0.632993	0.484834
C208	C	1.132998	-0.132993	0.984834
C209	C	0.632857	-0.497559	0.417433
C210	C	1.132857	0.002441	0.917433
C211	C	0.632949	-0.497860	0.530895
C212	C	1.132949	0.002140	1.030895
C213	C	0.148191	0.009634	0.440259
C214	C	0.648191	0.509634	0.940259
C215	C	0.034733	0.009493	0.440634
C216	C	0.534733	0.509493	0.940634
C217	C	-0.032641	0.009502	0.576027
C218	C	0.467359	0.509502	1.076027
C219	C	0.080854	0.009529	0.575690
C220	C	0.580854	0.509529	1.075690
C221	C	-0.009699	-0.475150	1.083148
C222	C	0.490301	0.024850	1.583148
C223	C	-0.009388	-0.588620	1.083088
C224	C	0.490612	-0.088620	1.583088
C225	C	0.126001	-0.656082	1.083116
C226	C	0.626001	-0.156082	1.583116
C227	C	0.125697	-0.542605	1.083155
C228	C	0.625697	-0.042605	1.583155
H229	H	0.056584	-0.439691	0.832846
H230	H	0.556584	0.060309	1.332846
O231	O	0.019170	-0.742821	0.337949
O232	O	0.519170	-0.242821	0.837949
C233	C	0.052399	-0.771630	0.300392
C234	C	0.552399	-0.271630	0.800392
H235	H	0.045163	-0.744297	0.259497
H236	H	0.545163	-0.244297	0.759497
H237	H	0.041628	-0.809849	0.316922
H238	H	0.541628	-0.309849	0.816922
H239	H	0.097275	-0.784042	0.294389
H240	H	0.597275	-0.284042	0.794389
H241	H	0.632798	-0.464146	0.375944
H242	H	1.132798	0.035854	0.875944
H243	H	-0.042644	-0.596897	1.083039
H244	H	0.457356	-0.096897	1.583039
H245	H	-0.043102	-0.433644	1.083156
H246	H	0.456898	0.066356	1.583156
H247	H	0.632941	-0.464583	0.539193
H248	H	1.132941	0.035417	1.039193
H249	H	0.159407	-0.697586	1.083101
H250	H	0.659407	-0.197586	1.583101
O251	O	0.165406	-0.532660	1.083065
O252	O	0.665406	-0.032660	1.583065
C253	C	0.177958	-0.488317	1.035924
C254	C	0.677958	0.011683	1.535924
H255	H	0.165926	-0.484002	1.002960
H256	H	0.665926	0.015998	1.502960
H257	H	0.223761	-0.496030	1.020095
H258	H	0.723761	0.003970	1.520095
H259	H	0.154336	-0.449063	1.046595
H260	H	0.654336	0.050937	1.546595
O261	O	0.013133	-0.472127	0.941236
O262	O	0.513133	0.027873	1.441236
C263	C	-0.015674	-0.438950	0.903672
C264	C	0.484326	0.061050	1.403672
H265	H	0.011640	-0.418110	0.862813
H266	H	0.511640	0.081890	1.362813
H267	H	-0.053916	-0.406526	0.920249
H268	H	0.446084	0.093474	1.420249
H269	H	-0.028039	-0.465386	0.897580
H270	H	0.471961	0.034614	1.397580
O271	O	0.633052	-0.673140	0.647817
O272	O	1.133052	-0.173140	1.147817
C273	C	0.585931	-0.687884	0.672064
C274	C	1.085931	-0.187884	1.172064
H275	H	0.552935	-0.652734	0.653986
H276	H	1.052935	-0.152734	1.153986
H277	H	0.570144	-0.696947	0.718134
H278	H	1.070144	-0.196947	1.218134
H279	H	0.596612	-0.725893	0.663678
H280	H	1.096612	-0.225893	1.163678
H281	H	0.191844	-0.559260	0.936723
H282	H	0.691844	-0.059260	1.436723
O283	O	0.197606	0.009968	0.400350
O284	O	0.697606	0.509968	0.900350
C285	C	0.231661	0.010070	0.420011
C286	C	0.731661	0.510070	0.920011
H287	H	0.205330	0.027129	0.455282
H288	H	0.705330	0.527129	0.955282
H289	H	0.257674	0.036719	0.385633
H290	H	0.757674	0.536719	0.885633
H291	H	0.259516	-0.033554	0.435018
H292	H	0.759516	0.466446	0.935018
O293	O	0.090573	-0.705706	0.615580
O294	O	0.590573	-0.205706	1.115580
C295	C	0.103445	-0.746938	0.596784
C296	C	0.603445	-0.246938	1.096784
H297	H	0.085804	-0.728261	0.562768
H298	H	0.585804	-0.228261	1.062768
H299	H	0.085135	-0.779705	0.632065
H300	H	0.585135	-0.279705	1.132065
H301	H	0.149804	-0.766190	0.580320
H302	H	0.649804	-0.266190	1.080320
O303	O	0.025122	-0.425478	0.400811
O304	O	0.525122	0.074522	0.900811
C305	C	0.062692	-0.401165	0.386051
C306	C	0.562692	0.098835	0.886051
H307	H	0.078714	-0.419295	0.421143
H308	H	0.578714	0.080705	0.921143
H309	H	0.041398	-0.355112	0.377109
H310	H	0.541398	0.144888	0.877109
H311	H	0.098342	-0.409427	0.347967
H312	H	0.598342	0.090573	0.847967
O313	O	-0.082179	0.009531	0.615816
O314	O	0.417821	0.509531	1.115816
C315	C	-0.116260	0.009509	0.596128
C316	C	0.383740	0.509509	1.096128
H317	H	-0.101449	0.026736	0.549494
H318	H	0.398551	0.526736	1.049494
H319	H	-0.160111	0.035951	0.612910
H320	H	0.339889	0.535951	1.112910
H321	H	-0.114781	-0.034176	0.610058
H322	H	0.385219	0.465824	1.110058
H323	H	0.226428	-0.524588	0.832752
H324	H	0.726428	-0.024588	1.332752
O325	O	-0.080935	-0.848512	0.495489
O326	O	0.419065	-0.348512	0.995489
C327	C	-0.066630	-0.881690	0.466459
C328	C	0.433370	-0.381690	0.966459
H329	H	-0.041790	-0.864488	0.421915
H330	H	0.458210	-0.364488	0.921915
H331	H	-0.105397	-0.882262	0.468425
H332	H	0.394603	-0.382262	0.968425
H333	H	-0.041136	-0.925150	0.485560
H334	H	0.458864	-0.425150	0.985560
H335	H	0.189808	-0.596548	0.407092
H336	H	0.689808	-0.096548	0.907092
H337	H	0.089168	0.009538	0.608950
H338	H	0.589168	0.509538	1.108950
O339	O	0.050530	-0.434472	0.639201
O340	O	0.550530	0.065528	1.139201
C341	C	-0.003302	-0.426364	0.647353
C342	C	0.496698	0.073636	1.147353
H343	H	-0.003221	-0.432761	0.612803
H344	H	0.496779	0.067239	1.112803
H345	H	-0.030517	-0.382897	0.647666
H346	H	0.469483	0.117103	1.147666
H347	H	-0.019698	-0.456874	0.688181
H348	H	0.480302	0.043126	1.188181
H349	H	0.191560	-0.559196	0.514439
H350	H	0.691560	-0.059196	1.014439
O351	O	0.012927	-0.472086	0.601487
O352	O	0.512927	0.027914	1.101487
C353	C	-0.000961	-0.443233	0.553349
C354	C	0.499039	0.056767	1.053349
H355	H	0.031328	-0.423829	0.518911
H356	H	0.531328	0.076171	1.018911
H357	H	-0.042571	-0.409839	0.560926
H358	H	0.457429	0.090161	1.060926
H359	H	-0.002871	-0.472698	0.541283
H360	H	0.497129	0.027302	1.041283
O361	O	0.235100	-0.526675	0.546800
O362	O	0.735100	-0.026675	1.046800
C363	C	0.258856	-0.507043	0.489393
C364	C	0.758856	-0.007043	0.989393
H365	H	0.231664	-0.501431	0.469354
H366	H	0.731664	-0.001431	0.969354
H367	H	0.301017	-0.537746	0.475971
H368	H	0.801017	-0.037746	0.975971
H369	H	0.263096	-0.466078	0.476435
H370	H	0.763096	0.033922	0.976435
O371	O	0.378254	-0.572063	0.627791
O372	O	0.878254	-0.072063	1.127791
C373	C	0.415849	-0.625511	0.630864
C374	C	0.915849	-0.125511	1.130864
H375	H	0.456687	-0.623324	0.597002
H376	H	0.956687	-0.123324	1.097002
H377	H	0.399286	-0.649037	0.625683
H378	H	0.899286	-0.149037	1.125683
H379	H	0.421974	-0.647390	0.672390
H380	H	0.921974	-0.147390	1.172390
O381	O	0.491228	-0.609624	0.590053
O382	O	0.991228	-0.109624	1.090053
C383	C	0.547952	-0.618589	0.567343
C384	C	1.047952	-0.118589	1.067343
H385	H	0.555757	-0.579143	0.534493
H386	H	1.055757	-0.079143	1.034493
H387	H	0.569728	-0.652074	0.548293
H388	H	1.069728	-0.152074	1.048293
H389	H	0.564241	-0.631799	0.600878
H390	H	1.064241	-0.131799	1.100878
H391	H	0.486593	-0.432619	0.524694
H392	H	0.986593	0.067381	1.024694
O393	O	0.024809	0.009577	0.400906
O394	O	0.524809	0.509577	0.900906
C395	C	0.030876	0.056725	0.354729
C396	C	0.530876	0.556725	0.854729
H397	H	0.024952	0.089696	0.367818
H398	H	0.524952	0.589696	0.867818
H399	H	-0.001034	0.072542	0.335328
H400	H	0.498966	0.572542	0.835328
H401	H	0.073612	0.046065	0.323703
H402	H	0.573612	0.546065	0.823703
O403	O	0.378176	-0.389159	0.558016
O404	O	0.878176	0.110841	1.058016
C405	C	0.392139	-0.359587	0.501429
C406	C	0.892139	0.140413	1.001429
H407	H	0.433744	-0.384628	0.478851
H408	H	0.933744	0.115372	0.978851
H409	H	0.394095	-0.319183	0.493857
H410	H	0.894095	0.180817	0.993857
H411	H	0.359868	-0.351036	0.485822
H412	H	0.859868	0.148964	0.985822
O413	O	0.188813	-0.245294	0.500798
O414	O	0.688813	0.254706	1.000798
C415	C	0.159849	-0.231277	0.467675
C416	C	0.659849	0.268723	0.967675
H417	H	0.114003	-0.215532	0.489825
H418	H	0.614003	0.284468	0.989825
H419	H	0.170102	-0.268967	0.459006
H420	H	0.670102	0.231033	0.959006
H421	H	0.172022	-0.198000	0.427410
H422	H	0.672022	0.302000	0.927410
O423	O	0.151117	-0.132244	0.463211
O424	O	0.651117	0.367756	0.963211
C425	C	0.127183	-0.075514	0.454353
C426	C	0.627183	0.424486	0.954353
H427	H	0.090409	-0.067698	0.491972
H428	H	0.590409	0.432302	0.991972
H429	H	0.113253	-0.053727	0.417219
H430	H	0.613253	0.446273	0.917219
H431	H	0.158532	-0.059244	0.446704
H432	H	0.658532	0.440756	0.946704
O433	O	0.059035	-0.132457	0.647789
O434	O	0.559035	0.367543	1.147789
C435	C	0.050969	-0.170051	0.701612
C436	C	0.550969	0.329949	1.201612
H437	H	0.057377	-0.210907	0.701508
H438	H	0.557377	0.289093	1.201508
H439	H	0.007513	-0.153502	0.728842
H440	H	0.507513	0.346498	1.228842
H441	H	0.081493	-0.176143	0.718010
H442	H	0.581493	0.323857	1.218010
H443	H	-0.074166	-0.534620	0.609333
H444	H	0.425834	-0.034620	1.109333
H445	H	0.098918	-0.240852	0.676488
H446	H	0.598918	0.259148	1.176488
H447	H	-0.033030	-0.529506	0.229442
H448	H	0.466970	-0.029506	0.729442
O449	O	0.632990	-0.672629	0.474856
O450	O	1.132990	-0.172629	0.974856
C451	C	0.632949	-0.652689	0.421047
C452	C	1.132949	-0.152689	0.921047
H453	H	0.615671	-0.606056	0.406660
H454	H	1.115671	-0.106056	0.906660
H455	H	0.606523	-0.669378	0.420272
H456	H	1.106523	-0.169378	0.920272
H457	H	0.676617	-0.666508	0.392697
H458	H	1.176617	-0.166508	0.892697
O459	O	-0.118498	-0.735546	0.457755
O460	O	0.381502	-0.235546	0.957755
C461	C	-0.135940	-0.749541	0.431949
C462	C	0.364060	-0.249541	0.931949
H463	H	-0.099302	-0.765348	0.398138
H464	H	0.400698	-0.265348	0.898138
H465	H	-0.167443	-0.711825	0.413505
H466	H	0.332557	-0.211825	0.913505
H467	H	-0.155180	-0.782765	0.463335
H468	H	0.344820	-0.282765	0.963335
O469	O	-0.072947	-0.558222	0.337891
O470	O	0.427053	-0.058222	0.837891
C471	C	-0.043996	-0.525129	0.323944
C472	C	0.456004	-0.025129	0.823944
H473	H	0.001853	-0.547308	0.308259
H474	H	0.501853	-0.047308	0.808259
H475	H	-0.054296	-0.516460	0.361651
H476	H	0.445704	-0.016460	0.861651
H477	H	-0.056136	-0.484860	0.290644
H478	H	0.443864	0.015140	0.790644
O479	O	0.056897	-0.705195	0.225028
O480	O	0.556897	-0.205195	0.725028
C481	C	0.030920	-0.696908	0.191782
C482	C	0.530920	-0.196908	0.691782
H483	H	-0.015025	-0.676051	0.208972
H484	H	0.484975	-0.176051	0.708972
H485	H	0.038888	-0.738075	0.191135
H486	H	0.538888	-0.238075	0.691135
H487	H	0.047892	-0.669899	0.148356
H488	H	0.547892	-0.169899	0.648356
H489	H	-0.067926	-0.564092	0.382165
H490	H	0.432074	-0.064092	0.882165
H491	H	-0.033345	-0.529494	0.416965
H492	H	0.466655	-0.029494	0.916965
H493	H	0.051334	-0.699339	0.502037
H494	H	0.551334	-0.199339	1.002037
H495	H	0.016742	-0.733938	0.467255
H496	H	0.516742	-0.233938	0.967255
H497	H	0.093086	-0.844219	0.427442
H498	H	0.593086	-0.344219	0.927442
O499	O	0.064365	-0.735804	0.388408
O500	O	0.564365	-0.235804	0.888408
C501	C	0.103317	-0.749844	0.341185
C502	C	0.603317	-0.249844	0.841185
H503	H	0.106002	-0.791446	0.346349
H504	H	0.606002	-0.291446	0.846349
H505	H	0.145014	-0.751853	0.335007
H506	H	0.645014	-0.251853	0.835007
H507	H	0.090435	-0.717586	0.304015
H508	H	0.590435	-0.217586	0.804015
O509	O	-0.112421	-0.696565	0.515370
O510	O	0.387579	-0.196565	1.015370
C511	C	-0.126475	-0.744602	0.548474
C512	C	0.373525	-0.244602	1.048474
H513	H	-0.168065	-0.736865	0.548950
H514	H	0.331935	-0.236865	1.048950
H515	H	-0.128509	-0.756681	0.591965
H516	H	0.371491	-0.256681	1.091965
H517	H	-0.094215	-0.779103	0.531277
H518	H	0.405785	-0.279103	1.031277
O519	O	-0.225407	-0.658737	0.552761
O520	O	0.274593	-0.158737	1.052761
C521	C	-0.258558	-0.687546	0.566528
C522	C	0.241442	-0.187546	1.066528
H523	H	-0.267067	-0.677201	0.528707
H524	H	0.232933	-0.177201	1.028707
H525	H	-0.298895	-0.675306	0.599709
H526	H	0.201105	-0.175306	1.099709
H527	H	-0.236519	-0.733427	0.582300
H528	H	0.263481	-0.233427	1.082300
O529	O	-0.224926	-0.566498	0.368072
O530	O	0.275074	-0.066498	0.868072
C531	C	-0.187272	-0.558449	0.314283
C532	C	0.312728	-0.058449	0.814283
H533	H	-0.146440	-0.564901	0.314469
H534	H	0.353560	-0.064901	0.814469
H535	H	-0.203767	-0.514981	0.287029
H536	H	0.296233	-0.014981	0.787029
H537	H	-0.181163	-0.588956	0.297854
H538	H	0.318837	-0.088956	0.797854
H539	H	-0.116547	-0.606465	0.339541
H540	H	0.383453	-0.106465	0.839541
