data_functionalizedCrystal
_audit_creation_method	'MofGen! by Chris Wilmer'
_symmetry_space_group_name_H-M	'P1'
_symmetry_Int_Tables_number	1
_symmetry_cell_setting	triclinic
loop_
_symmetry_equiv_pos_as_xyz
  x,y,z
_cell_length_a	17.640112
_cell_length_b	21.395363
_cell_length_c	21.395355
_cell_angle_alpha	89.996048
_cell_angle_beta	101.169017
_cell_angle_gamma	101.224970
loop_
_atom_site_label
_atom_site_type_symbol
_atom_site_fract_x
_atom_site_fract_y
_atom_site_fract_z
Zn1	Zn	1.208374	-0.055622	-0.160944
Zn2	Zn	1.708374	0.444378	0.339056
Zn3	Zn	1.208317	-0.160391	-0.056202
Zn4	Zn	1.708317	0.339609	0.443798
Zn5	Zn	1.076201	-0.076830	-0.077333
Zn6	Zn	1.576201	0.423170	0.422667
Zn7	Zn	1.076228	-0.181569	-0.182081
Zn8	Zn	1.576228	0.318431	0.317919
O9	O	1.142280	-0.118603	-0.119140
O10	O	1.642280	0.381397	0.380860
O11	O	1.318961	-0.051781	-0.129360
O12	O	1.818961	0.448219	0.370640
O13	O	1.190757	-0.149319	0.028667
O14	O	1.690757	0.350681	0.528667
O15	O	1.093747	0.013664	-0.088421
O16	O	1.593747	0.513664	0.411579
O17	O	1.318919	-0.128754	-0.052407
O18	O	1.818919	0.371246	0.447593
O19	O	1.190854	0.029245	-0.149850
O20	O	1.690854	0.529245	0.350150
O21	O	1.093692	-0.087927	0.013143
O22	O	1.593692	0.412073	0.513143
O23	O	0.965611	-0.108462	-0.108917
O24	O	1.465611	0.391538	0.391083
O25	O	1.093793	-0.164849	-0.266949
O26	O	1.593793	0.335151	0.233051
O27	O	0.965630	-0.185414	-0.185875
O28	O	1.465630	0.314586	0.314125
O29	O	1.190880	-0.072316	-0.251420
O30	O	1.690880	0.427684	0.248580
O31	O	1.190783	-0.250880	-0.072903
O32	O	1.690783	0.249120	0.427097
O33	O	1.093738	-0.266439	-0.165385
O34	O	1.593738	0.233561	0.334615
C35	C	0.936945	-0.151538	-0.151983
C36	C	1.436945	0.348462	0.348017
C37	C	0.849101	-0.165643	-0.166048
C38	C	1.349101	0.334357	0.333952
C39	C	1.142278	-0.281391	-0.119155
C40	C	1.642278	0.218609	0.380845
C41	C	1.142350	-0.351020	-0.119171
C42	C	1.642350	0.148980	0.380829
C43	C	1.142346	-0.118579	-0.282553
C44	C	1.642346	0.381421	0.217447
C45	C	1.142374	-0.118570	-0.352189
C46	C	1.642374	0.381430	0.147811
C47	C	0.560033	-0.011439	-0.012292
C48	C	1.060033	0.488561	0.487708
C49	C	0.477491	-0.024705	-0.025517
C50	C	0.977491	0.475295	0.474483
C51	C	0.477566	-0.104945	-0.105515
C52	C	0.977566	0.395055	0.394485
C53	C	0.560110	-0.091683	-0.092299
C54	C	1.060110	0.408317	0.407701
C55	C	0.601337	-0.044930	-0.045687
C56	C	1.101337	0.455070	0.454313
C57	C	0.601414	-0.125174	-0.125694
C58	C	1.101414	0.374826	0.374306
C59	C	0.683951	-0.111915	-0.112476
C60	C	1.183951	0.388085	0.387524
C61	C	0.725183	-0.065166	-0.065864
C62	C	1.225183	0.434834	0.434136
C63	C	0.683874	-0.031671	-0.032469
C64	C	1.183874	0.468329	0.467531
C65	C	0.560185	-0.171930	-0.172303
C66	C	1.060185	0.328070	0.327697
C67	C	0.601489	-0.205421	-0.205698
C68	C	1.101489	0.294579	0.294302
C69	C	0.684027	-0.192160	-0.192483
C70	C	1.184027	0.307840	0.307517
C71	C	0.725260	-0.145410	-0.145871
C72	C	1.225260	0.354590	0.354129
C73	C	0.725337	-0.225654	-0.225879
C74	C	1.225337	0.274346	0.274121
C75	C	0.807874	-0.212396	-0.212661
C76	C	1.307874	0.287604	0.287339
C77	C	0.807797	-0.132152	-0.132654
C78	C	1.307797	0.367848	0.367346
C79	C	1.348418	-0.085539	-0.086169
C80	C	1.848418	0.414461	0.413831
C81	C	1.436262	-0.071450	-0.072118
C82	C	1.936262	0.428550	0.427882
C83	C	1.142304	0.044824	-0.119135
C84	C	1.642304	0.544824	0.380865
C85	C	1.142314	0.114467	-0.119132
C86	C	1.642314	0.614467	0.380868
C87	C	1.091765	0.139070	-0.087149
C88	C	1.591765	0.639070	0.412851
C89	C	1.091764	0.204506	-0.087157
C90	C	1.591764	0.704506	0.412843
C91	C	1.142326	0.245338	-0.119139
C92	C	1.642326	0.745338	0.380861
C93	C	1.192879	0.220727	-0.151129
C94	C	1.692879	0.720727	0.348871
C95	C	1.192873	0.155292	-0.151126
C96	C	1.692873	0.655292	0.348874
C97	C	1.213542	0.360430	-0.112700
C98	C	1.713542	0.860430	0.387300
C99	C	1.213549	0.425864	-0.112698
C100	C	1.713549	0.925864	0.387302
C101	C	1.142345	0.447161	-0.119152
C102	C	1.642345	0.947161	0.380848
C103	C	1.071130	0.403016	-0.125595
C104	C	1.571130	0.903016	0.374405
C105	C	1.071124	0.337581	-0.125591
C106	C	1.571124	0.837581	0.374409
C107	C	1.142338	0.316292	-0.119146
C108	C	1.642338	0.816292	0.380854
C109	C	1.091790	0.542716	-0.087176
C110	C	1.591790	1.042716	0.412824
C111	C	1.091788	0.608152	-0.087188
C112	C	1.591788	1.108152	0.412812
C113	C	1.192910	0.624374	-0.151156
C114	C	1.692910	1.124374	0.348844
C115	C	1.192905	0.558937	-0.151148
C116	C	1.692905	1.058937	0.348852
C117	C	1.142346	0.518113	-0.119154
C118	C	1.642346	1.018113	0.380846
C119	C	1.192925	-0.070386	-0.376818
C120	C	1.692925	0.429614	0.123182
C121	C	1.192924	-0.070360	-0.442253
C122	C	1.692924	0.429640	0.057747
C123	C	1.142380	-0.118526	-0.483057
C124	C	1.642380	0.381474	0.016943
C125	C	1.091819	-0.166713	-0.458422
C126	C	1.591819	0.333287	0.041578
C127	C	1.091816	-0.166735	-0.392988
C128	C	1.591816	0.333265	0.107012
C129	C	1.136139	-0.175943	-0.587735
C130	C	1.636139	0.324057	-0.087735
C131	C	1.136148	-0.175921	-0.653167
C132	C	1.636148	0.324079	-0.153167
C133	C	1.142385	-0.118459	-0.684877
C134	C	1.642385	0.381541	-0.184877
C135	C	1.148630	-0.061014	-0.651144
C136	C	1.648630	0.438986	-0.151144
C137	C	1.148627	-0.061036	-0.585711
C138	C	1.648627	0.438964	-0.085711
C139	C	1.142377	-0.118507	-0.554010
C140	C	1.642377	0.381493	-0.054010
C141	C	1.192938	-0.070243	-0.780457
C142	C	1.692938	0.429757	-0.280457
C143	C	1.192931	-0.070216	-0.845895
C144	C	1.692931	0.429784	-0.345895
C145	C	1.091830	-0.166575	-0.862062
C146	C	1.591830	0.333425	-0.362062
C147	C	1.091833	-0.166597	-0.796626
C148	C	1.591833	0.333403	-0.296626
C149	C	1.142391	-0.118431	-0.755827
C150	C	1.642391	0.381569	-0.255827
C151	C	1.142261	-0.118573	0.043645
C152	C	1.642261	0.381427	0.543645
C153	C	1.142386	-0.118382	0.113306
C154	C	1.642386	0.381618	0.613306
H155	H	0.841367	-0.094071	-0.094706
H156	H	1.341367	0.405929	0.405294
H157	H	0.443864	0.002576	0.001676
H158	H	0.943864	0.502576	0.501676
Cl159	Cl	0.859803	-0.254501	-0.254641
Cl160	Cl	1.359803	0.245499	0.245359
Cl161	Cl	1.028275	-0.227263	-0.509717
Cl162	Cl	1.528275	0.272737	-0.009717
H163	H	1.234100	-0.031021	-0.747238
H164	H	1.734100	0.468979	-0.247238
H165	H	1.234094	-0.030976	-0.865946
H166	H	1.734094	0.469024	-0.365946
Cl167	Cl	0.425730	-0.163725	-0.164105
Cl168	Cl	0.925730	0.336275	0.335895
H169	H	1.050594	0.105834	-0.061099
H170	H	1.550594	0.605834	0.438901
Cl171	Cl	1.028217	0.235444	-0.046941
Cl172	Cl	1.528217	0.735444	0.453059
H173	H	0.691757	-0.263725	-0.263826
H174	H	1.191757	0.236275	0.236174
H175	H	1.050669	-0.205788	-0.895285
H176	H	1.550669	0.294212	-0.395285
Cl177	Cl	1.256425	0.124361	-0.191337
Cl178	Cl	1.756425	0.624361	0.308663
Cl179	Cl	0.456423	-0.188606	-0.188912
Cl180	Cl	0.956423	0.311394	0.311088
H181	H	0.792390	-0.054373	-0.055102
H182	H	1.292390	0.445627	0.444898
H183	H	1.153710	-0.014223	-0.676961
H184	H	1.653710	0.485777	-0.176961
Cl185	Cl	1.256479	-0.009832	-0.325532
Cl186	Cl	1.756479	0.490168	0.174468
Cl187	Cl	0.549653	-0.264202	-0.264287
Cl188	Cl	1.049653	0.235798	0.235713
Cl189	Cl	0.735709	0.027110	0.026127
Cl190	Cl	1.235709	0.527110	0.526127
H191	H	1.153710	-0.014263	-0.558249
H192	H	1.653710	0.485737	-0.058249
H193	H	1.050648	-0.205972	-0.372938
H194	H	1.550648	0.294028	0.127062
H195	H	0.593603	0.026642	0.025655
H196	H	1.093603	0.526642	0.525655
Cl197	Cl	1.028225	0.639080	-0.046986
Cl198	Cl	1.528225	1.139080	0.453014
H199	H	1.050673	-0.205836	-0.776574
H200	H	1.550673	0.294164	-0.276574
H201	H	1.013139	0.301640	-0.130839
H202	H	1.513139	0.801640	0.369161
H203	H	1.013150	0.420355	-0.130849
H204	H	1.513150	0.920355	0.369151
Cl205	Cl	1.028229	0.491391	-0.046960
Cl206	Cl	1.528229	0.991391	0.453040
Cl207	Cl	1.256473	0.675699	-0.191364
Cl208	Cl	1.756473	1.175699	0.308636
H209	H	1.234072	0.538907	-0.177188
H210	H	1.734072	1.038907	0.322812
H211	H	1.271535	0.461804	-0.107449
H212	H	1.771535	0.961804	0.392551
Cl213	Cl	1.303065	0.333664	-0.104585
Cl214	Cl	1.803065	0.833664	0.395415
H215	H	1.234046	0.253975	-0.177171
H216	H	1.734046	0.753975	0.322829
H217	H	1.234087	-0.031120	-0.462310
H218	H	1.734087	0.468880	0.037690
H219	H	1.131067	-0.222695	-0.680626
H220	H	1.631067	0.277305	-0.180626
Cl221	Cl	1.128321	-0.248186	-0.547875
Cl222	Cl	1.628321	0.251814	-0.047875
