data_functionalizedCrystal
_audit_creation_method	'MofGen! by Chris Wilmer'
_symmetry_space_group_name_H-M	'P1'
_symmetry_Int_Tables_number	1
_symmetry_cell_setting	triclinic
loop_
_symmetry_equiv_pos_as_xyz
  x,y,z
_cell_length_a	14.560438
_cell_length_b	21.606444
_cell_length_c	21.606444
_cell_angle_alpha	60.000398
_cell_angle_beta	90.000378
_cell_angle_gamma	60.000320
loop_
_atom_site_label
_atom_site_type_symbol
_atom_site_fract_x
_atom_site_fract_y
_atom_site_fract_z
Zr1	Zr	0.884743	0.677460	-0.081190
O2	O	0.738095	0.806579	-0.180014
O3	O	0.929699	0.548341	-0.050899
O4	O	0.929699	0.677463	-0.180016
O5	O	0.738095	0.677455	0.050957
O6	O	1.080837	0.677464	-0.180014
O7	O	0.738096	0.677457	-0.050897
O8	O	1.080838	0.446490	0.050953
O9	O	0.738094	0.908430	-0.180010
O10	O	1.061664	0.601451	-0.037975
O11	O	0.948870	0.601447	0.038036
O12	O	0.948869	0.753471	-0.113983
O13	O	0.836076	0.753468	-0.037972
Zr14	Zr	1.125789	0.677459	0.081256
Zr15	Zr	1.125791	0.677462	-0.081188
Zr16	Zr	0.884741	0.677456	0.081254
Zr17	Zr	0.884740	0.839900	-0.081185
Zr18	Zr	1.125792	0.515018	0.081251
O19	O	1.080833	0.806577	0.050964
O20	O	1.080835	0.806583	-0.180010
O21	O	0.738093	0.806573	0.050961
O22	O	1.272437	0.548340	0.180079
O23	O	1.272439	0.548345	-0.050895
O24	O	0.929697	0.548336	0.180076
O25	O	1.272437	0.677463	-0.050891
O26	O	1.080834	0.677456	0.180082
O27	O	0.929695	0.677454	0.180080
O28	O	1.272436	0.677461	0.050962
O29	O	0.929695	0.908432	-0.180008
O30	O	1.080837	0.446487	0.180074
O31	O	1.272438	0.446489	0.180076
O32	O	1.272439	0.446492	0.050955
O33	O	0.738093	0.908426	-0.050889
O34	O	0.929694	0.908429	-0.050887
O35	O	1.061663	0.601447	0.114049
O36	O	1.174456	0.601450	0.038038
O37	O	1.061662	0.753471	-0.037970
O38	O	0.948868	0.753468	0.038041
C39	C	1.005269	0.474271	0.000026
C40	C	1.005270	0.405311	0.000024
C41	C	1.064145	0.372915	-0.039654
C42	C	1.064149	0.308115	-0.039649
C43	C	1.005271	0.275717	0.000030
C44	C	0.946395	0.308115	0.039713
C45	C	0.946398	0.372910	0.039712
C46	C	0.946381	0.046806	0.039719
C47	C	0.946380	-0.017991	0.039716
C48	C	1.064132	-0.017989	-0.039641
C49	C	1.064136	0.046806	-0.039642
C50	C	1.005265	0.079195	0.000043
C51	C	1.005263	0.149458	0.000039
C52	C	1.005266	0.205460	0.000031
C53	C	0.703752	0.677456	0.000030
C54	C	0.601420	0.677454	0.000029
C55	C	0.612220	0.598103	0.039704
C56	C	0.516065	0.598107	0.039711
C57	C	0.398315	0.756822	-0.039639
C58	C	0.494469	0.756817	-0.039641
C59	C	0.719171	0.518741	0.079373
C60	C	0.729975	0.439382	0.119051
C61	C	0.633820	0.439387	0.119058
C62	C	0.526861	0.518749	0.079387
C63	C	1.306780	0.677463	0.000036
C64	C	1.409112	0.677464	0.000037
C65	C	1.005268	0.677464	-0.203160
C66	C	1.005268	0.677466	-0.272122
C67	C	1.005263	0.880647	0.000039
C68	C	1.005262	0.949607	0.000042
C69	C	1.088532	0.677468	-0.304519
C70	C	1.088535	0.677462	-0.369312
C71	C	1.005270	0.677460	-0.401709
C72	C	0.922002	0.677454	-0.369306
C73	C	0.922004	0.677454	-0.304511
C74	C	0.921993	0.677454	-0.630616
C75	C	0.921995	0.677456	-0.695417
C76	C	1.088523	0.677461	-0.695417
C77	C	1.088525	0.677461	-0.630622
C78	C	1.005262	0.677451	-0.598222
C79	C	1.005260	0.677456	-0.527965
C80	C	1.005266	0.677461	-0.471968
C81	C	1.005264	0.677454	0.203226
C82	C	1.005264	0.677453	0.272187
C83	C	1.306784	0.474275	0.000030
C84	C	1.409116	0.405316	0.000028
C85	C	1.005267	0.474266	0.203219
C86	C	1.005268	0.405304	0.272178
C87	C	1.306782	0.474270	0.203222
C88	C	1.409113	0.405309	0.272183
C89	C	0.703750	0.880649	-0.203156
C90	C	0.601419	0.949609	-0.272117
C91	C	0.703748	0.880644	0.000036
C92	C	0.601416	0.949603	0.000037
C93	C	1.005265	0.880652	-0.203153
C94	C	1.005264	0.949614	-0.272113
C95	C	1.398296	0.372932	-0.039657
C96	C	1.494439	0.308147	-0.039673
C97	C	1.601400	0.275742	0.000001
C98	C	1.612218	0.308132	0.039687
C99	C	1.516076	0.372920	0.039699
C100	C	1.064144	0.372919	0.344247
C101	C	1.064140	0.308131	0.409048
C102	C	1.005266	0.275725	0.401779
C103	C	0.946382	0.308117	0.329702
C104	C	0.946380	0.372908	0.264903
C105	C	1.516057	0.372926	0.264891
C106	C	1.612217	0.308139	0.329680
C107	C	1.601432	0.275732	0.401761
C108	C	1.494478	0.308122	0.409052
C109	C	1.398320	0.372912	0.344263
C110	C	0.494475	0.982000	-0.264825
C111	C	0.398315	1.046807	-0.329615
C112	C	0.409100	1.079217	-0.401696
C113	C	0.516054	1.046824	-0.408986
C114	C	0.612212	0.982023	-0.344197
C115	C	0.612236	0.981993	0.039716
C116	C	0.516093	1.046796	0.039714
C117	C	0.409132	1.079203	0.000038
C118	C	0.398314	1.046810	-0.039646
C119	C	0.494456	0.982013	-0.039648
C120	C	1.064150	0.981999	-0.264819
C121	C	1.064172	1.046787	-0.329607
C122	C	1.005300	1.079194	-0.401689
C123	C	0.946412	1.046802	-0.408982
C124	C	0.946398	0.982011	-0.344194
H125	H	1.112075	0.073186	-0.071956
N126	N	0.832186	0.677457	-0.404246
H127	H	0.835825	0.623491	-0.365987
H128	H	0.844862	0.677494	-0.450217
N129	N	0.882864	0.947100	-0.352075
H130	H	0.823605	0.958383	-0.326968
H131	H	0.936921	0.882068	-0.326978
N132	N	1.705144	0.205846	0.471642
H133	H	1.751421	0.228399	0.471669
H134	H	1.751330	0.152110	0.471621
N135	N	0.305384	1.149100	-0.471574
H136	H	0.305325	1.202873	-0.502764
H137	H	0.236058	1.164622	-0.455951
H138	H	1.699319	0.281738	0.071988
N139	N	1.127645	0.273180	-0.082449
H140	H	1.073643	0.284452	-0.122373
H141	H	1.186899	0.208149	-0.046008
H142	H	1.112084	0.399293	-0.071969
N143	N	0.882892	0.273157	0.321867
H144	H	0.891842	0.227194	0.373857
H145	H	0.913819	0.246313	0.293222
H146	H	1.156324	0.677465	-0.721802
H147	H	0.898440	0.399268	0.206223
N148	N	1.705094	0.205855	-0.000005
H149	H	1.751377	0.228400	-0.022587
H150	H	1.681911	0.190285	-0.031154
H151	H	0.485672	0.821432	-0.071934
H152	H	0.699288	0.955650	-0.350144
N153	N	1.005307	1.149087	-0.471562
H154	H	0.959076	1.164709	-0.518337
H155	H	1.085084	1.126483	-0.471516
N156	N	1.282972	0.407824	0.352129
H157	H	1.240432	0.472867	0.327020
H158	H	1.290832	0.377395	0.407638
H159	H	1.112073	-0.044370	-0.071953
N160	N	0.527678	1.081784	-0.486733
H161	H	0.450529	1.127746	-0.526663
H162	H	0.570182	1.032304	-0.492742
N163	N	1.482854	0.273164	0.486798
H164	H	1.560004	0.227203	0.526729
H165	H	1.440349	0.246318	0.492804
H166	H	1.485609	0.281783	-0.071991
N167	N	0.282961	0.842415	-0.082424
H168	H	0.223687	0.830376	-0.076402
H169	H	0.274050	0.877072	-0.137912
N170	N	0.482784	0.947066	-0.082433
H171	H	0.520046	0.958335	-0.122365
H172	H	0.400415	0.977443	-0.107515
H173	H	1.524902	0.399279	0.072020
N174	N	0.832205	0.677445	-0.269562
H175	H	0.779455	0.677444	-0.299917
H176	H	0.788535	0.731409	-0.269658
N177	N	1.127652	0.407861	0.352099
H178	H	1.164941	0.377508	0.407592
H179	H	1.073589	0.472905	0.326941
N180	N	1.127650	0.947055	-0.187079
H181	H	1.164956	0.977407	-0.192300
H182	H	1.186838	0.882011	-0.158468
H183	H	1.311211	0.399315	-0.071974
H184	H	0.699321	0.955612	0.072030
H185	H	1.524859	0.399302	0.206204
H186	H	1.112095	0.281765	0.467730
N187	N	1.727565	0.273212	0.321807
H188	H	1.719797	0.303569	0.266312
H189	H	1.770031	0.208167	0.346963
N190	N	0.527767	1.081733	0.082512
H191	H	0.570231	1.032300	0.138019
H192	H	0.450594	1.127717	0.076428
N193	N	0.882880	-0.052942	0.082518
H194	H	0.845590	-0.022595	0.107662
H195	H	0.936950	-0.117986	0.122402
N196	N	0.882882	0.273181	0.082508
H197	H	0.913768	0.246298	0.138014
H198	H	0.891825	0.227255	0.076428
N199	N	0.845333	0.353793	0.161834
H200	H	0.854326	0.319104	0.141020
H201	H	0.854281	0.319166	0.217333
N202	N	1.127691	1.081714	-0.321732
H203	H	1.164972	1.051355	-0.266237
H204	H	1.073639	1.146758	-0.346888
N205	N	1.178334	0.677479	-0.269582
H206	H	1.231082	0.677478	-0.299939
H207	H	1.222005	0.623513	-0.215714
N208	N	1.005275	0.205842	0.471673
H209	H	1.051514	0.190246	0.518429
H210	H	1.038763	0.152118	0.471639
N211	N	0.882894	0.081732	0.082525
H212	H	0.845595	0.051375	0.107659
H213	H	0.823702	0.146777	0.046099
N214	N	0.482815	0.947055	-0.187089
H215	H	0.440348	0.996492	-0.181019
H216	H	0.559987	0.901073	-0.147189
H217	H	0.311237	1.073171	-0.323664
H218	H	0.898453	0.399288	0.072020
N219	N	0.305440	1.149092	0.000044
H220	H	0.328536	1.164687	0.031205
H221	H	0.259204	1.126494	0.022609
H222	H	0.898481	1.073198	-0.467679
H223	H	0.854195	0.677448	-0.604243
N224	N	0.282945	1.081753	-0.082423
H225	H	0.223691	1.127708	-0.076388
H226	H	0.274050	1.032261	-0.061575
H227	H	0.642622	0.374769	0.151372
N228	N	0.822879	0.518737	0.079359
H229	H	0.892272	0.456423	0.110508
H230	H	0.822839	0.549927	0.101925
H231	H	1.156335	0.677463	-0.395689
N232	N	0.423136	0.518774	0.079384
H233	H	0.423085	0.487621	0.133120
H234	H	0.423135	0.487642	0.056766
N235	N	1.178329	0.677463	-0.595674
H236	H	1.174697	0.731427	-0.633930
H237	H	1.254725	0.623461	-0.579962
N238	N	0.832189	0.677446	-0.730359
H239	H	0.779445	0.677435	-0.700000
H240	H	0.868618	0.623478	-0.730259
