data_functionalizedCrystal
_audit_creation_method	'MofGen! by Chris Wilmer'
_symmetry_space_group_name_H-M	'P1'
_symmetry_Int_Tables_number	1
_symmetry_cell_setting	triclinic
loop_
_symmetry_equiv_pos_as_xyz
  x,y,z
_cell_length_a	16.109302
_cell_length_b	17.019448
_cell_length_c	15.186229
_cell_angle_alpha	93.871099
_cell_angle_beta	89.994701
_cell_angle_gamma	83.432388
loop_
_atom_site_label
_atom_site_type_symbol
_atom_site_fract_x
_atom_site_fract_y
_atom_site_fract_z
O1	O	1.103046	0.101394	-0.065589
O2	O	0.860974	0.114012	-0.064627
O3	O	0.988755	-0.007128	-0.073799
O4	O	0.975265	0.222534	-0.056417
O5	O	0.988746	-0.007130	0.072658
O6	O	0.860965	0.114010	0.081831
O7	O	1.103038	0.101393	0.080868
Zn8	Zn	0.982000	0.107701	0.104603
Zn9	Zn	0.982012	0.107703	-0.088361
O10	O	0.975257	0.222532	0.090040
C11	C	0.829995	0.113500	0.008564
C12	C	0.737701	0.111967	0.008451
C13	C	0.525359	0.108422	0.088008
C14	C	0.438640	0.106974	0.087895
C15	C	0.438660	0.106980	-0.071780
C16	C	0.525378	0.108423	-0.071667
C17	C	0.568724	0.109148	0.008230
C18	C	0.395287	0.106257	0.008004
C19	C	0.301263	0.104686	0.007881
C20	C	0.662755	0.110717	0.008353
C21	C	0.988236	-0.036517	-0.002796
C22	C	0.986694	-0.124084	-0.009429
C23	C	0.978044	-0.619356	-0.051045
C24	C	0.979486	-0.537076	-0.044794
C25	C	0.980195	-0.495953	0.038165
C26	C	0.979472	-0.537115	0.114878
C27	C	0.978036	-0.619394	0.108627
C28	C	0.984535	-0.247525	0.061033
C29	C	0.985968	-0.165240	0.067279
C30	C	0.985983	-0.165207	-0.092395
C31	C	0.984543	-0.247487	-0.098639
C32	C	0.983824	-0.288642	-0.021925
C33	C	0.981666	-0.411849	0.044556
C34	C	0.982359	-0.372745	-0.028317
C35	C	1.134017	0.101905	0.007675
C36	C	1.226311	0.103437	0.007783
C37	C	0.975776	0.251921	0.019036
C38	C	0.977318	0.339488	0.025663
N39	N	0.981999	0.107699	0.236295
N40	N	0.982020	0.107699	-0.220054
C41	C	1.038599	0.054077	0.457958
C42	C	1.038602	0.054075	0.550147
C43	C	0.925413	0.161324	0.558277
C44	C	0.925407	0.161322	0.466089
C45	C	0.982005	0.107699	0.415932
C46	C	0.982013	0.107699	0.600309
C47	C	0.982016	0.107698	0.700265
C48	C	0.982002	0.107699	0.315969
H49	H	0.403335	0.106383	0.152858
H50	H	1.084685	0.010410	0.584362
C51	C	0.863921	0.219633	0.420620
C52	C	0.814376	0.266613	0.484276
C53	C	0.757735	0.320339	0.442423
H54	H	0.829266	0.191337	0.382521
H55	H	0.893768	0.252519	0.387157
H56	H	0.784531	0.233731	0.517724
H57	H	0.849008	0.294927	0.522378
H58	H	0.787582	0.353225	0.408959
H59	H	0.723085	0.292036	0.404325
H60	H	0.724117	0.352226	0.485607
H61	H	1.084683	0.010412	0.417122
C62	C	0.864066	0.219512	0.612892
C63	C	0.876199	0.208055	0.702624
C64	C	0.819710	0.261653	0.752960
H65	H	0.808552	0.210984	0.597257
H66	H	0.873043	0.272176	0.601814
H67	H	0.867215	0.155403	0.713698
H68	H	0.931702	0.216589	0.718286
H69	H	0.828687	0.314317	0.741881
H70	H	0.764199	0.253120	0.737318
H71	H	0.827940	0.253891	0.813848
H72	H	0.977459	-0.652831	-0.118599
C73	C	0.980096	-0.492545	0.205005
C74	C	0.908253	-0.503710	0.252316
C75	C	0.908795	-0.462671	0.335349
H76	H	0.981005	-0.437631	0.197862
H77	H	1.028287	-0.512060	0.236389
H78	H	0.860074	-0.484191	0.220940
H79	H	0.907329	-0.558615	0.259484
H80	H	0.956987	-0.482186	0.366732
H81	H	0.909707	-0.407759	0.328196
H82	H	0.860055	-0.470247	0.367463
C83	C	0.986748	-0.120733	0.157435
C84	C	0.985819	-0.174386	0.223281
C85	C	0.986532	-0.133414	0.306338
H86	H	0.938850	-0.082628	0.163749
H87	H	1.035775	-0.094660	0.162802
H88	H	0.936798	-0.200446	0.217917
H89	H	1.033715	-0.212492	0.216997
H90	H	1.035559	-0.107341	0.311705
H91	H	0.938633	-0.095311	0.312643
H92	H	0.985910	-0.169812	0.351024
C93	C	0.572403	0.109036	0.174764
C94	C	0.560750	0.040846	0.217749
C95	C	0.604082	0.041375	0.297667
H96	H	0.551838	0.154714	0.211134
H97	H	0.630274	0.109957	0.163441
H98	H	0.502891	0.039932	0.229075
H99	H	0.581319	-0.004844	0.181404
H100	H	0.661953	0.042296	0.286344
H101	H	0.583513	0.087057	0.334030
H102	H	0.596188	-0.004894	0.326838
C103	C	0.391439	0.106238	-0.158427
C104	C	0.306209	0.104843	-0.141451
C105	C	0.262684	0.104172	-0.221249
H106	H	0.411943	0.060515	-0.194759
H107	H	0.399213	0.152466	-0.187734
H108	H	0.298440	0.058619	-0.112157
H109	H	0.285680	0.150562	-0.105132
H110	H	0.270459	0.150400	-0.250557
H111	H	0.283196	0.058449	-0.257575
H112	H	0.204851	0.103233	-0.209741
H113	H	0.980078	-0.503571	-0.107258
C114	C	0.977415	-0.664143	0.191879
C115	C	1.048095	-0.720248	0.192296
C116	C	1.047559	-0.761478	0.268980
H117	H	0.928451	-0.690293	0.193293
H118	H	0.978085	-0.627900	0.242207
H119	H	1.047416	-0.756486	0.141982
H120	H	1.097070	-0.694118	0.190896
H121	H	1.048230	-0.725235	0.319308
H122	H	0.998593	-0.787623	0.270387
H123	H	1.095518	-0.799544	0.269277
H124	H	0.560687	0.109011	-0.136636
H125	H	0.983950	-0.281024	0.123499
C126	C	0.983688	-0.292003	-0.188778
C127	C	0.912579	-0.263090	-0.234795
C128	C	0.911785	-0.304065	-0.317844
H129	H	0.982698	-0.346911	-0.181662
H130	H	1.032375	-0.284488	-0.221022
H131	H	0.863905	-0.270612	-0.202559
H132	H	0.913555	-0.208187	-0.241935
H133	H	0.960472	-0.296551	-0.350088
H134	H	0.910796	-0.358972	-0.310719
H135	H	0.863543	-0.284449	-0.349080
C136	C	0.986638	-0.120410	-0.175608
C137	C	0.915979	-0.064279	-0.176005
C138	C	0.916562	-0.022993	-0.252646
H139	H	0.985969	-0.156592	-0.225974
H140	H	1.035633	-0.094282	-0.176951
H141	H	0.866997	-0.090406	-0.174671
H142	H	0.916634	-0.028080	-0.125656
H143	H	0.965556	0.003135	-0.253989
H144	H	0.915894	-0.059181	-0.303006
H145	H	0.868625	0.015101	-0.252922
H146	H	0.981785	-0.406232	-0.095862
H147	H	0.982242	-0.378357	0.112101
