data_functionalizedCrystal
_audit_creation_method	'MofGen! by Chris Wilmer'
_symmetry_space_group_name_H-M	'P1'
_symmetry_Int_Tables_number	1
_symmetry_cell_setting	triclinic
loop_
_symmetry_equiv_pos_as_xyz
  x,y,z
_cell_length_a	16.992694
_cell_length_b	16.974894
_cell_length_c	15.455313
_cell_angle_alpha	89.016788
_cell_angle_beta	92.857794
_cell_angle_gamma	92.973137
loop_
_atom_site_label
_atom_site_type_symbol
_atom_site_fract_x
_atom_site_fract_y
_atom_site_fract_z
O1	O	-1.044200	0.163895	-0.083510
O2	O	-0.815912	0.162060	-0.083407
O3	O	-0.936033	0.048638	-0.075438
O4	O	-0.924079	0.277317	-0.091480
O5	O	-0.929164	0.055096	0.068371
O6	O	-0.809043	0.168518	0.060401
O7	O	-1.037331	0.170352	0.060298
Cu8	Cu	-0.922560	0.170025	0.073480
Cu9	Cu	-0.930683	0.162388	-0.096590
O10	O	-0.917210	0.283775	0.052328
C11	C	-0.783260	0.162930	-0.011341
C12	C	-0.696200	0.155892	-0.010857
C13	C	-0.932015	0.022471	-0.001473
C14	C	-0.930266	-0.065121	0.004665
C15	C	-1.069984	0.169482	-0.011770
C16	C	-1.157044	0.176520	-0.012260
C17	C	-0.921228	0.309942	-0.021638
C18	C	-0.922977	0.397534	-0.027782
C19	C	-0.646116	0.223793	-0.015620
C20	C	-0.564313	0.217177	-0.015144
C21	C	-0.532597	0.142659	-0.009911
C22	C	-0.582687	0.074753	-0.005146
C23	C	-0.664488	0.081370	-0.005616
C24	C	-0.288935	0.115232	-0.007964
C25	C	-0.207128	0.108619	-0.007497
C26	C	-0.188760	0.251044	-0.017494
C27	C	-0.270563	0.257655	-0.017969
C28	C	-0.320646	0.189749	-0.013198
N29	N	-0.448982	0.135894	-0.009427
N30	N	-0.404259	0.196515	-0.013676
N31	N	-0.916852	0.175396	0.193098
C32	C	-0.920054	0.442209	0.047716
C33	C	-0.921687	0.524511	0.041933
C34	C	-0.926250	0.562135	-0.039350
C35	C	-0.929171	0.517453	-0.114854
C36	C	-0.927532	0.435154	-0.109070
C37	C	-0.931548	0.807897	-0.065055
C38	C	-0.933190	0.890203	-0.070833
C39	C	-0.925704	0.897255	0.085954
C40	C	-0.924070	0.814953	0.091731
C41	C	-0.926987	0.770279	0.016227
N42	N	-0.927922	0.646261	-0.045263
N43	N	-0.925310	0.686155	0.022141
N44	N	-0.936397	0.157011	-0.216207
C45	C	-0.967901	0.127230	0.241877
C46	C	-0.963592	0.131300	0.332399
C47	C	-0.908236	0.183540	0.374140
C48	C	-0.857181	0.231707	0.325355
C49	C	-0.861488	0.227633	0.234835
C50	C	-0.889649	0.201104	0.644488
C51	C	-0.885348	0.205177	0.735014
C52	C	-0.991758	0.104768	0.742051
C53	C	-0.996063	0.100701	0.651529
C54	C	-0.945005	0.148866	0.602752
N55	N	-0.903832	0.187703	0.466668
N56	N	-0.949406	0.144699	0.510227
H57	H	-0.671932	0.284474	-0.019882
F58	F	-0.342226	0.042959	-0.002887
H59	H	-0.181308	0.047934	-0.003237
F60	F	-0.922597	0.944806	0.166305
F61	F	-0.548929	-0.004556	0.000429
H62	H	-0.919318	0.560882	0.103412
F63	F	-0.511013	0.289447	-0.020217
H64	H	-0.705266	0.026078	-0.001738
H65	H	-0.916342	0.411582	0.113905
F66	F	-0.919213	0.774917	0.178243
H67	H	-0.936904	0.920834	-0.137027
F68	F	-0.934658	0.760362	-0.145414
H69	H	-0.932881	0.548094	-0.181036
F70	F	-0.930639	0.387607	-0.189426
F71	F	-1.026823	0.071632	0.197461
F72	F	-1.017923	0.080036	0.384313
H73	H	-1.033326	0.065553	0.781774
H74	H	-1.041137	0.058163	0.617545
F75	F	-0.826428	0.260783	0.779432
F76	F	-0.835312	0.252367	0.592582
F77	F	-0.807151	0.278896	0.182923
F78	F	-0.798263	0.287302	0.369781
H79	H	-0.147974	0.306329	-0.021376
F80	F	-0.304312	0.336967	-0.023543
