data_functionalizedCrystal
_audit_creation_method	'MofGen! by Chris Wilmer'
_symmetry_space_group_name_H-M	'P1'
_symmetry_Int_Tables_number	1
_symmetry_cell_setting	triclinic
loop_
_symmetry_equiv_pos_as_xyz
  x,y,z
_cell_length_a	21.295417
_cell_length_b	21.395362
_cell_length_c	21.395355
_cell_angle_alpha	90.048039
_cell_angle_beta	89.978549
_cell_angle_gamma	89.951233
loop_
_atom_site_label
_atom_site_type_symbol
_atom_site_fract_x
_atom_site_fract_y
_atom_site_fract_z
Zn1	Zn	-0.250375	-0.957860	-0.354641
Zn2	Zn	-0.355627	-0.957763	-0.249859
Zn3	Zn	-0.250409	-0.853075	-0.249835
Zn4	Zn	-0.355644	-0.853045	-0.354556
O5	O	-0.303014	-0.905436	-0.302223
O6	O	-0.264316	-1.045525	-0.340787
O7	O	-0.341676	-0.943848	-0.162177
O8	O	-0.162315	-0.867029	-0.263764
O9	O	-0.341644	-1.045454	-0.263804
O10	O	-0.162290	-0.944014	-0.340765
O11	O	-0.264373	-0.866935	-0.162160
O12	O	-0.264390	-0.765393	-0.263681
O13	O	-0.341673	-0.866977	-0.442245
O14	O	-0.341706	-0.765371	-0.340619
O15	O	-0.264333	-0.943984	-0.442308
O16	O	-0.443718	-0.943819	-0.263721
O17	O	-0.443731	-0.866883	-0.340641
C18	C	-0.303054	-0.742648	-0.302138
C19	C	-0.303086	-0.673007	-0.302117
C20	C	-0.343399	-0.640299	-0.342116
C21	C	-0.343387	-0.574863	-0.342140
C22	C	-0.303067	-0.542139	-0.302152
C23	C	-0.262747	-0.574855	-0.262150
C24	C	-0.262756	-0.640289	-0.262133
C25	C	-0.298001	-0.438414	-0.245740
C26	C	-0.297996	-0.372981	-0.245757
C27	C	-0.303035	-0.340318	-0.302207
C28	C	-0.308092	-0.373096	-0.358643
C29	C	-0.308102	-0.438530	-0.358625
C30	C	-0.303052	-0.471186	-0.302167
C31	C	-0.343336	-0.236657	-0.342235
C32	C	-0.343319	-0.171221	-0.342259
C33	C	-0.262682	-0.171214	-0.262265
C34	C	-0.262696	-0.236649	-0.262246
C35	C	-0.303026	-0.269367	-0.302230
C36	C	-0.466565	-0.905354	-0.302188
C37	C	-0.536534	-0.905376	-0.302194
C38	C	-0.569373	-0.945472	-0.262183
C39	C	-0.635115	-0.945502	-0.262197
C40	C	-0.668016	-0.905424	-0.302216
C41	C	-0.635169	-0.865325	-0.342235
C42	C	-0.569428	-0.865301	-0.342224
N43	N	-0.771300	-0.850614	-0.306964
N44	N	-0.833752	-0.850638	-0.306970
C45	C	-0.866091	-0.905494	-0.302252
N46	N	-0.833619	-0.960325	-0.297514
N47	N	-0.771162	-0.960300	-0.297504
C48	C	-0.739301	-0.905445	-0.302232
C49	C	-0.970215	-0.945625	-0.262253
C50	C	-1.035959	-0.945656	-0.262272
C51	C	-1.036012	-0.865473	-0.342307
C52	C	-0.970269	-0.865448	-0.342292
C53	C	-0.937375	-0.905523	-0.302262
C54	C	-0.138823	-0.905536	-0.302271
C55	C	-0.068855	-0.905578	-0.302292
C56	C	-0.303001	-0.905488	-0.465646
C57	C	-0.302996	-0.905510	-0.535287
C58	C	-0.302984	-0.068859	-0.302290
C59	C	-0.302999	-0.138501	-0.302272
C60	C	-0.262723	-0.945606	-0.568034
C61	C	-0.262696	-0.945605	-0.633470
C62	C	-0.302953	-0.905515	-0.666156
C63	C	-0.343228	-0.865411	-0.633401
C64	C	-0.343250	-0.865409	-0.567967
C65	C	-0.359634	-0.900539	-0.769816
C66	C	-0.359614	-0.900546	-0.835249
C67	C	-0.302886	-0.905519	-0.867977
C68	C	-0.246177	-0.910498	-0.835263
C69	C	-0.246198	-0.910496	-0.769829
C70	C	-0.302934	-0.905513	-0.737108
C71	C	-0.262580	-0.945616	-0.971676
C72	C	-0.262552	-0.945611	-1.037113
C73	C	-0.343091	-0.865420	-1.037043
C74	C	-0.343113	-0.865422	-0.971607
C75	C	-0.302859	-0.905523	-0.938928
C76	C	-0.302981	-0.905420	-0.139435
C77	C	-0.302809	-0.905520	-0.069794
H78	H	-0.312218	-0.465215	-0.404577
F79	F	-0.670185	-0.822673	-0.384828
F80	F	-0.292613	-0.338102	-0.185694
F81	F	-0.385980	-0.822748	-0.936754
H82	H	-0.375863	-0.832771	-1.063655
F83	F	-0.670072	-0.988179	-0.219609
H84	H	-0.229800	-0.978266	-0.945067
H85	H	-0.943432	-0.978259	-0.229660
H86	H	-0.542592	-0.978105	-0.229589
H87	H	-0.943530	-0.832795	-0.374870
F88	F	-0.534477	-0.822623	-0.384812
F89	F	-1.070909	-0.988338	-0.219688
H90	H	-0.229926	-0.666920	-0.229561
F91	F	-0.386321	-0.675116	-0.384673
F92	F	-0.313453	-0.338339	-0.418727
H93	H	-1.062799	-0.832843	-0.374894
F94	F	-0.219878	-0.988283	-0.533258
F95	F	-0.386116	-0.822731	-0.533114
F96	F	-0.219693	-0.988296	-1.071964
H97	H	-0.229851	-0.144570	-0.229709
F98	F	-0.219820	-0.988273	-0.668328
H99	H	-0.200024	-0.914548	-0.743196
F100	F	-0.386256	-0.271480	-0.384792
F101	F	-0.419968	-0.895252	-0.870060
F102	F	-0.185798	-0.915793	-0.870088
H103	H	-0.405817	-0.896322	-0.743175
F104	F	-0.219791	-0.271461	-0.219671
H105	H	-0.376214	-0.548227	-0.374714
F106	F	-0.386225	-0.136410	-0.384838
F107	F	-0.386071	-0.822742	-0.668189
H108	H	-0.293894	-0.465003	-0.199768
H109	H	-0.229917	-0.548207	-0.229594
