data_functionalizedCrystal
_audit_creation_method	'MofGen! by Chris Wilmer'
_symmetry_space_group_name_H-M	'P1'
_symmetry_Int_Tables_number	1
_symmetry_cell_setting	triclinic
loop_
_symmetry_equiv_pos_as_xyz
  x,y,z
_cell_length_a	15.995350
_cell_length_b	19.188930
_cell_length_c	15.072220
_cell_angle_alpha	89.993728
_cell_angle_beta	89.991149
_cell_angle_gamma	83.318578
loop_
_atom_site_label
_atom_site_type_symbol
_atom_site_fract_x
_atom_site_fract_y
_atom_site_fract_z
O1	O	1.110666	0.089991	-0.073718
O2	O	1.360666	0.339991	0.176282
O3	O	1.610666	0.589991	0.426282
O4	O	1.860666	0.839991	0.676282
O5	O	0.866850	0.101105	-0.073737
O6	O	1.116850	0.351105	0.176263
O7	O	1.366850	0.601105	0.426263
O8	O	1.616850	0.851105	0.676263
O9	O	0.995794	-0.006090	-0.073709
O10	O	1.245794	0.243910	0.176291
O11	O	1.495794	0.493910	0.426291
O12	O	1.745794	0.743910	0.676291
O13	O	0.981722	0.197186	-0.073745
O14	O	1.231722	0.447186	0.176255
O15	O	1.481722	0.697186	0.426255
O16	O	1.731722	0.947186	0.676255
O17	O	0.995763	-0.006084	0.073856
O18	O	1.245763	0.243916	0.323856
O19	O	1.495763	0.493916	0.573856
O20	O	1.745763	0.743916	0.823856
O21	O	0.866819	0.101111	0.073828
O22	O	1.116819	0.351111	0.323828
O23	O	1.366819	0.601111	0.573828
O24	O	1.616819	0.851111	0.823828
O25	O	1.110634	0.089997	0.073848
O26	O	1.360634	0.339997	0.323848
O27	O	1.610634	0.589997	0.573848
O28	O	1.860634	0.839997	0.823848
Zn29	Zn	0.988721	0.095555	0.097267
Zn30	Zn	1.238721	0.345555	0.347267
Zn31	Zn	1.488721	0.595555	0.597267
Zn32	Zn	1.738721	0.845555	0.847267
Zn33	Zn	0.988763	0.095547	-0.097156
Zn34	Zn	1.238763	0.345547	0.152844
Zn35	Zn	1.488763	0.595547	0.402844
Zn36	Zn	1.738763	0.845547	0.652844
O37	O	0.981690	0.197192	0.073820
O38	O	1.231690	0.447192	0.323820
O39	O	1.481690	0.697192	0.573820
O40	O	1.731690	0.947192	0.823820
C41	C	0.835641	0.100648	0.000043
C42	C	1.085641	0.350648	0.250043
C43	C	1.335641	0.600648	0.500043
C44	C	1.585641	0.850648	0.750043
C45	C	0.742696	0.099271	0.000037
C46	C	0.992696	0.349271	0.250037
C47	C	1.242696	0.599271	0.500037
C48	C	1.492696	0.849271	0.750037
C49	C	0.404967	0.094324	0.000056
C50	C	0.654967	0.344324	0.250056
C51	C	0.904967	0.594324	0.500056
C52	C	1.154967	0.844324	0.750056
C53	C	0.452680	0.017982	0.000398
C54	C	0.702680	0.267982	0.250398
C55	C	0.952680	0.517982	0.500398
C56	C	1.202680	0.767982	0.750398
C57	C	0.549365	0.019360	0.000059
C58	C	0.799365	0.269360	0.250059
C59	C	1.049365	0.519360	0.500059
C60	C	1.299365	0.769360	0.750059
C61	C	0.572518	0.096778	0.000047
C62	C	0.822518	0.346778	0.250047
C63	C	1.072518	0.596778	0.500047
C64	C	1.322518	0.846778	0.750047
C65	C	0.531311	0.134429	-0.084223
C66	C	0.781311	0.384429	0.165777
C67	C	1.031311	0.634429	0.415777
C68	C	1.281311	0.884429	0.665777
C69	C	0.434683	0.132511	-0.084287
C70	C	0.684683	0.382511	0.165713
C71	C	0.934683	0.632511	0.415713
C72	C	1.184683	0.882511	0.665713
C73	C	0.434302	0.134095	0.083522
C74	C	0.684302	0.384095	0.333522
C75	C	0.934302	0.634095	0.583522
C76	C	1.184302	0.884095	0.833522
C77	C	0.531247	0.134077	0.084629
C78	C	0.781247	0.384077	0.334629
C79	C	1.031247	0.634077	0.584629
C80	C	1.281247	0.884077	0.834629
C81	C	0.667211	0.098169	0.000039
C82	C	0.917211	0.348169	0.250039
C83	C	1.167211	0.598169	0.500039
C84	C	1.417211	0.848169	0.750039
C85	C	0.310274	0.092936	0.000058
C86	C	0.560274	0.342936	0.250058
C87	C	0.810274	0.592936	0.500058
C88	C	1.060274	0.842936	0.750058
C89	C	0.995323	-0.032099	0.000076
C90	C	1.245323	0.217901	0.250076
C91	C	1.495323	0.467901	0.500076
C92	C	1.745323	0.717901	0.750076
C93	C	0.993955	-0.109607	0.000083
C94	C	1.243955	0.140393	0.250083
C95	C	1.493955	0.390393	0.500083
C96	C	1.743955	0.640393	0.750083
C97	C	1.069615	-0.154338	0.000093
C98	C	1.319615	0.095662	0.250093
C99	C	1.569615	0.345662	0.500093
C100	C	1.819615	0.595662	0.750093
C101	C	1.068330	-0.227165	0.000079
C102	C	1.318330	0.022835	0.250079
C103	C	1.568330	0.272835	0.500079
C104	C	1.818330	0.522835	0.750079
C105	C	0.991380	-0.255258	0.000072
C106	C	1.241380	-0.005258	0.250072
C107	C	1.491380	0.244742	0.500072
C108	C	1.741380	0.494742	0.750072
C109	C	0.915710	-0.210517	0.000057
C110	C	1.165710	0.039483	0.250057
C111	C	1.415710	0.289483	0.500057
C112	C	1.665710	0.539483	0.750057
C113	C	0.916997	-0.137691	0.000062
C114	C	1.166997	0.112309	0.250062
C115	C	1.416997	0.362309	0.500062
C116	C	1.666997	0.612309	0.750062
N117	N	0.932550	-0.363410	0.050287
N118	N	1.182550	-0.113410	0.300287
N119	N	1.432550	0.136590	0.550287
N120	N	1.682550	0.386590	0.800287
N121	N	0.931333	-0.432592	0.050284
N122	N	1.181333	-0.182592	0.300284
N123	N	1.431333	0.067408	0.550284
N124	N	1.681333	0.317408	0.800284
C125	C	0.987497	-0.474676	0.000054
C126	C	1.237497	-0.224676	0.250054
C127	C	1.487497	0.025324	0.500054
C128	C	1.737497	0.275324	0.750054
N129	N	1.044937	-0.444966	-0.050161
N130	N	1.294937	-0.194966	0.199839
N131	N	1.544937	0.055034	0.449839
N132	N	1.794937	0.305034	0.699839
N133	N	1.046158	-0.375779	-0.050154
N134	N	1.296158	-0.125779	0.199846
N135	N	1.546158	0.124221	0.449846
N136	N	1.796158	0.374221	0.699846
C137	C	0.989976	-0.334224	0.000066
C138	C	1.239976	-0.084224	0.250066
C139	C	1.489976	0.165776	0.500066
C140	C	1.739976	0.415776	0.750066
C141	C	1.061769	-0.598375	0.000048
C142	C	1.311769	-0.348375	0.250048
C143	C	1.561769	-0.098375	0.500048
C144	C	1.811769	0.151625	0.750048
C145	C	1.060480	-0.671204	0.000028
C146	C	1.310480	-0.421204	0.250028
C147	C	1.560480	-0.171204	0.500028
C148	C	1.810480	0.078796	0.750028
C149	C	0.907859	-0.654553	0.000015
C150	C	1.157859	-0.404553	0.250015
C151	C	1.407859	-0.154553	0.500015
C152	C	1.657859	0.095447	0.750015
C153	C	0.909149	-0.581727	0.000025
C154	C	1.159149	-0.331727	0.250025
C155	C	1.409149	-0.081727	0.500025
C156	C	1.659149	0.168273	0.750025
C157	C	0.986106	-0.553643	0.000046
C158	C	1.236106	-0.303643	0.250046
C159	C	1.486106	-0.053643	0.500046
C160	C	1.736106	0.196357	0.750046
C161	C	1.141843	0.090454	0.000065
C162	C	1.391843	0.340454	0.250065
C163	C	1.641843	0.590454	0.500065
C164	C	1.891843	0.840454	0.750065
C165	C	1.234789	0.091831	0.000066
C166	C	1.484789	0.341831	0.250066
C167	C	1.734789	0.591831	0.500066
C168	C	1.984789	0.841831	0.750066
C169	C	0.982162	0.223201	0.000033
C170	C	1.232162	0.473201	0.250033
C171	C	1.482162	0.723201	0.500033
C172	C	1.732162	0.973201	0.750033
C173	C	0.983530	0.300709	0.000019
C174	C	1.233530	0.550709	0.250019
C175	C	1.483530	0.800709	0.500019
C176	C	1.733530	1.050709	0.750019
N177	N	0.988699	0.095560	0.229956
N178	N	1.238699	0.345560	0.479956
N179	N	1.488699	0.595560	0.729956
N180	N	1.738699	0.845560	0.979956
N181	N	0.988792	0.095537	-0.229845
N182	N	1.238792	0.345537	0.020155
N183	N	1.488792	0.595537	0.270155
N184	N	1.738792	0.845537	0.520155
C185	C	0.988762	0.095544	0.589157
C186	C	1.238762	0.345544	0.839157
C187	C	1.488762	0.595544	1.089157
C188	C	1.738762	0.845544	1.339157
C189	C	0.919536	0.152710	0.551535
C190	C	1.169536	0.402710	0.801535
C191	C	1.419536	0.652710	1.051535
C192	C	1.669536	0.902710	1.301535
C193	C	0.919693	0.152918	0.448710
C194	C	1.169693	0.402918	0.698710
C195	C	1.419693	0.652918	0.948710
C196	C	1.669693	0.902918	1.198710
C197	C	0.988730	0.095552	0.410953
C198	C	1.238730	0.345552	0.660953
C199	C	1.488730	0.595552	0.910953
C200	C	1.738730	0.845552	1.160953
C201	C	1.076036	0.111464	0.448248
C202	C	1.326036	0.361464	0.698248
C203	C	1.576036	0.611464	0.948248
C204	C	1.826036	0.861464	1.198248
C205	C	1.075648	0.111870	0.551106
C206	C	1.325648	0.361870	0.801106
C207	C	1.575648	0.611870	1.051106
C208	C	1.825648	0.861870	1.301106
C209	C	0.971460	0.022298	0.551269
C210	C	1.221460	0.272298	0.801269
C211	C	1.471460	0.522298	1.051269
C212	C	1.721460	0.772298	1.301269
C213	C	0.969454	0.022787	0.448405
C214	C	1.219454	0.272787	0.698405
C215	C	1.469454	0.522787	0.948405
C216	C	1.719454	0.772787	1.198405
C217	C	0.988717	0.095555	0.310240
C218	C	1.238717	0.345555	0.560240
C219	C	1.488717	0.595555	0.810240
C220	C	1.738717	0.845555	1.060240
C221	C	0.988780	0.095543	0.689871
C222	C	1.238780	0.345543	0.939871
C223	C	1.488780	0.595543	1.189871
C224	C	1.738780	0.845543	1.439871
H225	H	0.402230	0.188560	-0.088121
H226	H	0.652230	0.438560	0.161879
H227	H	0.902230	0.688560	0.411879
H228	H	1.152230	0.938560	0.661879
H229	H	1.091695	0.164273	0.422471
H230	H	1.341695	0.414273	0.672471
H231	H	1.591695	0.664273	0.922471
H232	H	1.841695	0.914273	1.172471
H233	H	0.413844	0.109140	0.147396
H234	H	0.663844	0.359140	0.397396
H235	H	0.913844	0.609140	0.647396
H236	H	1.163844	0.859140	0.897396
H237	H	1.124432	-0.575508	0.000060
H238	H	1.374432	-0.325508	0.250060
H239	H	1.624432	-0.075508	0.500060
H240	H	1.874432	0.174492	0.750060
H241	H	1.122095	-0.707624	0.000031
H242	H	1.372095	-0.457624	0.250031
H243	H	1.622095	-0.207624	0.500031
H244	H	1.872095	0.042376	0.750031
H245	H	0.854788	0.143438	0.423496
H246	H	1.104788	0.393438	0.673496
H247	H	1.354788	0.643438	0.923496
H248	H	1.604788	0.893438	1.173496
H249	H	0.577890	-0.010236	0.060468
H250	H	0.827890	0.239764	0.310468
H251	H	1.077890	0.489764	0.560468
H252	H	1.327890	0.739764	0.810468
H253	H	0.546404	0.190533	0.089710
H254	H	0.796404	0.440533	0.339710
H255	H	1.046404	0.690533	0.589710
H256	H	1.296404	0.940533	0.839710
H257	H	0.558651	0.106592	0.146972
H258	H	0.808651	0.356592	0.396972
H259	H	1.058651	0.606592	0.646972
H260	H	1.308651	0.856592	0.896972
H261	H	0.909194	0.006998	0.577257
H262	H	1.159194	0.256998	0.827257
H263	H	1.409194	0.506998	1.077257
H264	H	1.659194	0.756998	1.327257
H265	H	0.905232	0.010712	0.424030
H266	H	1.155232	0.260712	0.674030
H267	H	1.405232	0.510712	0.924030
H268	H	1.655232	0.760712	1.174030
H269	H	1.128756	0.071875	0.575991
H270	H	1.378756	0.321875	0.825991
H271	H	1.628756	0.571875	1.075991
H272	H	1.878756	0.821875	1.325991
H273	H	1.129943	-0.263592	0.000084
H274	H	1.379943	-0.013592	0.250084
H275	H	1.629943	0.236408	0.500084
H276	H	1.879943	0.486408	0.750084
H277	H	1.016620	-0.021746	0.422708
H278	H	1.266620	0.228254	0.672708
H279	H	1.516620	0.478254	0.922708
H280	H	1.766620	0.728254	1.172708
H281	H	0.853057	-0.233394	0.000050
H282	H	1.103057	0.016606	0.250050
H283	H	1.353057	0.266606	0.500050
H284	H	1.603057	0.516606	0.750050
H285	H	0.434257	-0.012531	0.060832
H286	H	0.684257	0.237469	0.310832
H287	H	0.934257	0.487469	0.560832
H288	H	1.184257	0.737469	0.810832
H289	H	1.021947	-0.020242	0.575598
H290	H	1.271947	0.229758	0.825598
H291	H	1.521947	0.479758	1.075598
H292	H	1.771947	0.729758	1.325598
H293	H	0.402334	0.190382	0.084082
H294	H	0.652334	0.440382	0.334082
H295	H	0.902334	0.690382	0.584082
H296	H	1.152334	0.940382	0.834082
H297	H	0.845205	-0.677425	0.000005
H298	H	1.095205	-0.427425	0.250005
H299	H	1.345205	-0.177425	0.500005
H300	H	1.595205	0.072575	0.750005
H301	H	0.577345	-0.010441	-0.060444
H302	H	0.827345	0.239559	0.189556
H303	H	1.077345	0.489559	0.439556
H304	H	1.327345	0.739559	0.689556
H305	H	0.416488	0.105049	-0.147272
H306	H	0.666488	0.355049	0.102728
H307	H	0.916488	0.605049	0.352728
H308	H	1.166488	0.855049	0.602728
H309	H	0.433211	-0.012395	-0.059692
H310	H	0.683211	0.237605	0.190308
H311	H	0.933211	0.487605	0.440308
H312	H	1.183211	0.737605	0.690308
H313	H	1.128769	0.070935	0.423790
H314	H	1.378769	0.320935	0.673790
H315	H	1.628769	0.570935	0.923790
H316	H	1.878769	0.820935	1.173790
H317	H	0.559795	0.108273	-0.146930
H318	H	0.809795	0.358273	0.103070
H319	H	1.059795	0.608273	0.353070
H320	H	1.309795	0.858273	0.603070
H321	H	0.545229	0.191306	-0.087366
H322	H	0.795229	0.441306	0.162634
H323	H	1.045229	0.691306	0.412634
H324	H	1.295229	0.941306	0.662634
H325	H	1.132280	-0.131477	0.000107
H326	H	1.382280	0.118523	0.250107
H327	H	1.632280	0.368523	0.500107
H328	H	1.882280	0.618523	0.750107
H329	H	0.930714	0.207273	0.424087
H330	H	1.180714	0.457273	0.674087
H331	H	1.430714	0.707273	0.924087
H332	H	1.680714	0.957273	1.174087
H333	H	0.855384	-0.101270	0.000054
H334	H	1.105384	0.148730	0.250054
H335	H	1.355384	0.398730	0.500054
H336	H	1.605384	0.648730	0.750054
H337	H	0.847538	-0.545305	0.000022
H338	H	1.097538	-0.295305	0.250022
H339	H	1.347538	-0.045305	0.500022
H340	H	1.597538	0.204695	0.750022
H341	H	0.854420	0.143386	0.576294
H342	H	1.104420	0.393386	0.826294
H343	H	1.354420	0.643386	1.076294
H344	H	1.604420	0.893386	1.326294
H345	H	0.930403	0.206759	0.577365
H346	H	1.180403	0.456759	0.827365
H347	H	1.430403	0.706759	1.077365
H348	H	1.680403	0.956759	1.327365
H349	H	1.090935	0.165288	0.575079
H350	H	1.340935	0.415288	0.825079
H351	H	1.590935	0.665288	1.075079
H352	H	1.840935	0.915288	1.325079
