data_functionalizedCrystal
_audit_creation_method	'MofGen! by Chris Wilmer'
_symmetry_space_group_name_H-M	'P1'
_symmetry_Int_Tables_number	1
_symmetry_cell_setting	triclinic
loop_
_symmetry_equiv_pos_as_xyz
  x,y,z
_cell_length_a	14.853567
_cell_length_b	14.519709
_cell_length_c	13.930277
_cell_angle_alpha	89.994503
_cell_angle_beta	89.995755
_cell_angle_gamma	83.657538
loop_
_atom_site_label
_atom_site_type_symbol
_atom_site_fract_x
_atom_site_fract_y
_atom_site_fract_z
O1	O	1.196415	0.120405	-0.079767
O2	O	0.933961	0.134748	-0.079783
O3	O	1.072147	-0.006665	-0.079766
O4	O	1.058230	0.261817	-0.079784
O5	O	1.072128	-0.006668	0.079896
O6	O	0.933942	0.134745	0.079878
O7	O	1.196396	0.120402	0.079895
Zn8	Zn	1.065166	0.127573	0.105236
Zn9	Zn	1.065191	0.127577	-0.105125
O10	O	1.058210	0.261814	0.079878
C11	C	0.900363	0.134096	0.000045
C12	C	0.800278	0.132149	0.000039
C13	C	0.387709	0.039914	0.000067
C14	C	0.366493	0.207916	0.000055
C15	C	0.460527	0.209747	0.000052
C16	C	0.518157	0.126660	0.000055
C17	C	0.481752	0.041743	0.000061
C18	C	0.496939	0.294663	0.000035
C19	C	0.590979	0.296498	0.000031
C20	C	0.648610	0.213410	0.000041
C21	C	0.612200	0.128489	0.000049
C22	C	0.669830	0.045403	0.000052
C23	C	0.633422	-0.039520	0.000066
C24	C	0.539383	-0.041345	0.000071
C25	C	0.742649	0.215235	0.000036
C26	C	0.763873	0.047231	0.000046
C27	C	1.071488	-0.041026	0.000065
C28	C	1.069545	-0.143407	0.000065
C29	C	1.062390	-0.518299	0.000040
C30	C	1.064377	-0.413992	0.000047
C31	C	1.065967	-0.330856	0.000054
C32	C	1.067955	-0.226543	0.000059
C33	C	1.229994	0.121053	0.000064
C34	C	1.330079	0.123001	0.000064
C35	C	1.058869	0.296175	0.000044
C36	C	1.060812	0.398556	0.000038
N37	N	1.065155	0.127569	0.248803
N38	N	1.065209	0.127573	-0.248691
C39	C	1.004000	0.190170	0.701064
C40	C	1.126407	0.064977	0.701049
C41	C	1.126396	0.064974	0.600553
C42	C	1.065188	0.127571	0.550308
C43	C	1.003989	0.190171	0.600559
C44	C	1.187599	0.002381	0.550295
C45	C	1.187592	0.002376	0.449793
C46	C	1.126378	0.064970	0.399546
C47	C	1.065177	0.127571	0.449803
C48	C	1.003968	0.190168	0.399558
C49	C	0.942762	0.252767	0.449814
C50	C	0.942776	0.252764	0.550312
C51	C	1.126364	0.064972	0.299047
C52	C	1.003957	0.190169	0.299053
H53	H	0.319566	0.275561	0.000044
H54	H	0.509731	-0.110484	0.000105
C55	C	0.877381	0.292633	0.000017
C56	C	0.782671	0.308571	0.000019
H57	H	0.902086	0.350259	0.000002
H58	H	0.897142	0.258427	0.055696
H59	H	0.897146	0.258414	-0.055660
H60	H	0.762906	0.342784	0.055700
H61	H	0.762902	0.342791	-0.055666
C62	C	0.984576	0.315651	0.186029
C63	C	0.936675	0.258980	0.243826
H64	H	0.943037	0.358127	0.151930
H65	H	1.022146	0.348892	0.225228
H66	H	1.021019	0.278364	0.141718
H67	H	0.900236	0.296266	0.288141
H68	H	0.899089	0.225736	0.204623
H69	H	1.176246	0.014016	0.741962
C70	C	1.249029	0.045230	0.186037
C71	C	1.193660	-0.003815	0.243822
H72	H	1.290587	0.002763	0.151953
H73	H	1.212573	0.082484	0.141723
H74	H	1.281491	0.083695	0.225250
H75	H	1.161193	-0.042274	0.204607
H76	H	1.230121	-0.041084	0.288141
H77	H	1.237428	-0.048595	0.408882
H78	H	0.358060	-0.029228	0.000082
H79	H	0.450011	0.362307	0.000023
C80	C	0.560551	0.462380	0.000029
C81	C	0.630995	0.389841	0.000029
H82	H	0.585259	0.520005	0.000036
H83	H	0.524322	0.458177	-0.055646
H84	H	0.524308	0.458161	0.055709
H85	H	0.667234	0.394057	-0.055656
H86	H	0.667239	0.394046	0.055710
C87	C	0.923391	0.378238	0.336779
C88	C	0.875484	0.321573	0.394575
H89	H	0.881857	0.420710	0.302671
H90	H	0.960956	0.411484	0.375980
H91	H	0.959841	0.340947	0.292477
H92	H	0.839039	0.358864	0.438882
H93	H	0.837903	0.288325	0.355371
C94	C	0.888456	0.308361	0.704375
C95	C	0.875511	0.321576	0.605554
H96	H	0.846935	0.350848	0.738480
H97	H	0.878565	0.246801	0.720851
H98	H	0.948644	0.318487	0.720815
H99	H	0.815324	0.311443	0.589113
H100	H	0.885394	0.383150	0.589072
H101	H	0.810790	-0.020429	0.000052
H102	H	1.237438	-0.048579	0.591208
C103	C	0.787000	-0.111300	0.000058
C104	C	0.696775	-0.130847	0.000070
H105	H	0.826112	-0.167681	0.000066
H106	H	0.798040	-0.076492	-0.055623
H107	H	0.798041	-0.076482	0.055733
H108	H	0.685732	-0.165660	-0.055609
H109	H	0.685731	-0.165670	0.055756
H110	H	0.954164	0.241134	0.741984
