data_functionalizedCrystal
_audit_creation_method	'MofGen! by Chris Wilmer'
_symmetry_space_group_name_H-M	'P1'
_symmetry_Int_Tables_number	1
_symmetry_cell_setting	triclinic
loop_
_symmetry_equiv_pos_as_xyz
  x,y,z
_cell_length_a	25.639239
_cell_length_b	17.640112
_cell_length_c	17.640968
_cell_angle_alpha	87.860920
_cell_angle_beta	78.768889
_cell_angle_gamma	78.736162
loop_
_atom_site_label
_atom_site_type_symbol
_atom_site_fract_x
_atom_site_fract_y
_atom_site_fract_z
Zn1	Zn	-0.015023	-1.247772	-0.195080
Zn2	Zn	-0.122899	-1.221957	-0.068099
Zn3	Zn	-0.049036	-1.095090	-0.093726
Zn4	Zn	-0.116017	-1.120701	-0.220680
O5	O	-0.075744	-1.171380	-0.144396
O6	O	-0.017980	-1.350622	-0.156797
O7	O	-0.130216	-1.183606	0.034775
O8	O	0.028654	-1.115429	-0.107183
O9	O	-0.097236	-1.331655	-0.063504
O10	O	0.053643	-1.227604	-0.181647
O11	O	-0.075949	-1.090397	0.015946
O12	O	-0.069275	-0.992213	-0.132006
O13	O	-0.085505	-1.159079	-0.323557
O14	O	-0.118485	-1.011029	-0.225279
O15	O	-0.011306	-1.252438	-0.304749
O16	O	-0.195165	-1.208439	-0.088327
O17	O	-0.190108	-1.134047	-0.200429
C18	C	-0.096824	-0.974065	-0.184202
C19	C	-0.105852	-0.889657	-0.201249
C20	C	-0.211606	-1.171245	-0.144387
C21	C	-0.269716	-1.171262	-0.144395
C22	C	-0.043844	-1.211495	-0.342479
C23	C	-0.030250	-1.228589	-0.426890
C24	C	-0.632657	-1.210259	-0.086082
C25	C	-0.687257	-1.210291	-0.086087
O26	O	-0.717705	-1.243308	-0.036496
N27	N	-0.711960	-1.171523	-0.144420
C28	C	-0.682060	-1.132728	-0.202757
O29	O	-0.708086	-1.099757	-0.252374
C30	C	-0.627461	-1.132702	-0.202755
C31	C	-0.602761	-1.171465	-0.144414
C32	C	-0.607957	-1.249020	-0.027746
C33	C	-0.553362	-1.248988	-0.027742
C34	C	-0.523466	-1.210194	-0.086073
C35	C	-0.548166	-1.171433	-0.144409
C36	C	-0.597561	-1.093912	-0.261094
C37	C	-0.542958	-1.093890	-0.261088
C38	C	-0.518258	-1.132653	-0.202747
C39	C	-0.463675	-1.132606	-0.202735
N40	N	-0.438971	-1.171373	-0.144402
C41	C	-0.468867	-1.210167	-0.086071
C42	C	-0.796723	-1.132788	-0.202757
C43	C	-0.851323	-1.132809	-0.202756
C44	C	-0.856515	-1.210373	-0.086087
C45	C	-0.801915	-1.210347	-0.086085
C46	C	-0.772019	-1.171556	-0.144424
C47	C	-0.354212	-1.210095	-0.086065
C48	C	-0.299612	-1.210056	-0.086064
C49	C	-0.294424	-1.132496	-0.202735
C50	C	-0.349020	-1.132531	-0.202735
C51	C	-0.378912	-1.171336	-0.144396
O52	O	-0.433192	-1.099609	-0.252303
O53	O	-0.442832	-1.243141	-0.036467
C54	C	0.060653	-1.171539	-0.144418
C55	C	0.118778	-1.171607	-0.144427
C56	C	-0.054581	-1.369465	-0.104436
C57	C	-0.045563	-1.453877	-0.087407
C58	C	-0.007149	-0.563036	-0.014898
C59	C	-0.015641	-0.483724	-0.030927
C60	C	-0.067003	-0.503337	-0.127884
C61	C	-0.058513	-0.582654	-0.111866
C62	C	-0.028586	-0.612496	-0.055372
C63	C	-0.079950	-0.632114	-0.152340
C64	C	-0.071463	-0.711422	-0.136320
C65	C	-0.041538	-0.741271	-0.079827
C66	C	-0.020099	-0.691805	-0.039352
C67	C	-0.109880	-0.602269	-0.208830
C68	C	-0.131317	-0.651729	-0.249304
C69	C	-0.122827	-0.731040	-0.233288
C70	C	-0.092902	-0.760888	-0.176795
C71	C	-0.144266	-0.780506	-0.273763
C72	C	-0.135779	-0.859815	-0.257743
C73	C	-0.084415	-0.840197	-0.160775
C74	C	-0.178700	-1.041806	-0.753464
C75	C	-0.165918	-1.057885	-0.832778
C76	C	-0.088661	-1.155091	-0.813184
C77	C	-0.101435	-1.139017	-0.733867
C78	C	-0.146456	-1.082375	-0.704014
C79	C	-0.069190	-1.179586	-0.684417
C80	C	-0.081965	-1.163517	-0.605107
C81	C	-0.126985	-1.106878	-0.575247
C82	C	-0.159230	-1.066305	-0.624704
C83	C	-0.024172	-1.236233	-0.714271
C84	C	0.008072	-1.276802	-0.664821
C85	C	-0.004700	-1.260728	-0.585510
C86	C	-0.049719	-1.204090	-0.555650
C87	C	0.027546	-1.301302	-0.536054
C88	C	0.014771	-1.285232	-0.456743
C89	C	-0.062494	-1.188020	-0.476340
C90	C	-0.107478	-1.131465	0.052925
C91	C	-0.120908	-1.114517	0.137365
H92	H	-0.279504	-1.241621	-0.038553
H93	H	-0.034630	-0.805849	-0.066783
Br94	Br	-0.006837	-1.258047	-0.821907
Br95	Br	-0.144327	-1.085073	-0.467610
H96	H	0.004281	-0.716106	0.006640
Br97	Br	0.058529	-1.340295	-0.389626
H98	H	-0.781808	-1.241912	-0.038579
Br99	Br	-0.502387	-1.041245	-0.340269
Br100	Br	0.013449	-0.416598	0.024017
Br101	Br	-0.394772	-1.262759	-0.006890
H102	H	-0.369130	-1.100970	-0.250243
Br103	Br	0.033473	-0.603546	0.061766
H104	H	-0.099144	-1.141878	-0.452036
H105	H	-0.091371	-0.479028	-0.173879
H106	H	-0.215350	-0.995663	-0.729160
H107	H	-0.116789	-0.537690	-0.221871
H108	H	-0.880865	-1.241964	-0.038592
Br109	Br	-0.253840	-1.079853	-0.281898
Br110	Br	-0.184895	-0.739992	-0.350413
Br111	Br	-0.519847	-1.301611	0.051431
Br112	Br	-0.631065	-1.041311	-0.340284
H113	H	-0.155685	-0.627419	-0.295299
H114	H	-0.632292	-1.280615	0.019755
Br115	Br	-0.164876	-0.926944	-0.312668
H116	H	-0.192179	-1.024844	-0.873039
H117	H	-0.195880	-1.020163	-0.600400
H118	H	-0.052007	-1.201211	-0.837501
Br119	Br	0.069167	-1.353675	-0.705343
H120	H	-0.060036	-0.864498	-0.114783
H121	H	-0.871430	-1.101236	-0.250258
Br122	Br	-0.756156	-1.080132	-0.281935
Br123	Br	0.088636	-1.378182	-0.576577
