data_functionalizedCrystal
_audit_creation_method	'MofGen! by Chris Wilmer'
_symmetry_space_group_name_H-M	'P1'
_symmetry_Int_Tables_number	1
_symmetry_cell_setting	triclinic
loop_
_symmetry_equiv_pos_as_xyz
  x,y,z
_cell_length_a	17.077404
_cell_length_b	19.121063
_cell_length_c	17.077396
_cell_angle_alpha	92.408800
_cell_angle_beta	89.978556
_cell_angle_gamma	92.467319
loop_
_atom_site_label
_atom_site_type_symbol
_atom_site_fract_x
_atom_site_fract_y
_atom_site_fract_z
Zn1	Zn	1.186696	-0.279646	-0.457194
Zn2	Zn	1.180992	-0.397103	-0.331518
Zn3	Zn	1.055426	-0.279667	-0.325938
Zn4	Zn	1.049786	-0.397057	-0.462735
O5	O	1.118225	-0.338368	-0.394346
O6	O	1.295785	-0.295238	-0.440539
O7	O	1.164308	-0.381553	-0.220932
O8	O	1.077587	-0.181380	-0.338695
O9	O	1.291595	-0.381533	-0.348205
O10	O	1.174030	-0.181365	-0.435128
O11	O	1.072056	-0.295273	-0.216833
O12	O	0.944832	-0.295229	-0.344068
O13	O	1.067975	-0.381455	-0.571846
O14	O	0.940688	-0.381475	-0.444572
O15	O	1.168561	-0.295193	-0.567774
O16	O	1.158840	-0.495382	-0.353579
O17	O	1.062444	-0.495348	-0.449983
C18	C	0.914278	-0.338349	-0.394317
C19	C	0.827028	-0.338358	-0.394324
C20	C	0.453387	-0.293535	-0.442538
C21	C	0.535368	-0.293530	-0.442529
C22	C	0.574178	-0.338383	-0.394367
C23	C	0.531002	-0.383250	-0.346216
C24	C	0.449023	-0.383258	-0.346230
C25	C	0.701873	-0.383229	-0.346190
C26	C	0.783858	-0.383220	-0.346175
C27	C	0.788218	-0.293500	-0.442489
C28	C	0.706239	-0.293509	-0.442503
C29	C	0.663069	-0.338374	-0.394351
C30	C	1.109432	-0.520849	-0.403005
C31	C	1.105742	-0.598915	-0.406735
C32	C	1.154236	-0.635584	-0.358337
C33	C	1.150770	-0.708936	-0.361850
C34	C	1.098806	-0.745616	-0.413758
C35	C	1.050311	-0.708941	-0.462162
C36	C	1.053781	-0.635591	-0.458652
C37	C	1.085819	-0.967085	-0.426868
C38	C	1.082351	-1.040440	-0.430372
C39	C	1.182812	-1.040430	-0.330061
C40	C	1.186274	-0.967078	-0.326553
C41	C	1.137782	-0.930410	-0.374959
C42	C	1.095261	-0.820592	-0.417349
C43	C	1.141332	-0.855435	-0.371372
C44	C	1.322968	-0.338388	-0.394376
C45	C	1.410218	-0.338396	-0.394389
C46	C	1.118275	-0.338317	-0.599088
C47	C	1.118296	-0.338295	-0.686337
C48	C	1.127074	-0.155176	-0.385671
C49	C	1.130845	-0.077110	-0.381974
C50	C	1.170674	-0.293375	-0.725208
C51	C	1.170684	-0.293351	-0.807188
C52	C	1.118321	-0.338252	-0.850294
C53	C	1.065938	-0.383174	-0.811417
C54	C	1.065924	-0.383193	-0.729439
C55	C	1.065971	-0.383132	-0.982286
C56	C	1.065986	-0.383114	-1.064269
C57	C	1.170732	-0.293290	-1.060034
C58	C	1.170718	-0.293309	-0.978056
C59	C	1.118336	-0.338232	-0.939184
C60	C	1.118223	-0.338369	-0.190398
C61	C	1.118363	-0.338194	-0.103141
H62	H	0.823371	-0.256968	-0.481695
C63	C	1.228352	-0.243871	-1.102788
C64	C	1.228369	-0.243843	-1.192960
C65	C	1.285991	-0.194430	-1.235718
C66	C	1.343595	-0.145046	-1.188304
C67	C	1.343581	-0.145073	-1.098127
C68	C	1.285959	-0.194485	-1.055369
H69	H	1.185724	-0.280402	-1.228064
H70	H	1.286001	-0.194411	-1.302474
H71	H	1.386250	-0.108468	-1.219956
H72	H	1.386225	-0.108514	-1.063023
H73	H	1.285948	-0.194505	-0.988613
H74	H	1.023304	-0.419702	-0.950639
H75	H	1.023265	-0.419765	-0.697791
H76	H	1.014293	-0.605735	-0.498065
C77	C	1.008342	-0.432577	-0.858826
C78	C	0.919379	-0.426851	-0.847268
C79	C	0.861786	-0.476262	-0.894672
C80	C	0.893157	-0.531398	-0.953635
C81	C	0.982125	-0.537126	-0.965196
C82	C	1.039718	-0.487715	-0.917792
H83	H	0.896152	-0.386034	-0.803618
H84	H	0.795926	-0.472021	-0.886113
H85	H	0.850524	-0.567975	-0.988726
H86	H	1.005352	-0.577944	-1.008846
H87	H	1.105578	-0.491956	-0.926350
C88	C	1.198490	-0.815089	-0.314274
C89	C	1.191651	-0.825229	-0.225515
C90	C	1.248806	-0.784875	-0.168414
C91	C	1.312800	-0.734381	-0.200071
C92	C	1.319642	-0.724238	-0.288834
C93	C	1.262486	-0.764592	-0.345935
H94	H	1.144276	-0.862610	-0.202077
H95	H	1.243741	-0.792384	-0.102706
H96	H	1.355110	-0.704509	-0.157801
H97	H	1.367017	-0.686857	-0.312272
H98	H	1.267551	-0.757083	-0.411643
C99	C	0.410699	-0.244194	-0.495517
C100	C	0.421737	-0.250032	-0.585018
C101	C	0.379051	-0.200692	-0.638001
C102	C	0.325328	-0.145514	-0.601483
C103	C	0.314288	-0.139674	-0.511977
C104	C	0.356974	-0.189014	-0.458994
H105	H	0.461508	-0.290880	-0.612056
H106	H	0.387223	-0.205015	-0.704260
H107	H	0.293729	-0.108989	-0.640704
H108	H	0.274517	-0.098826	-0.484940
H109	H	0.348802	-0.184691	-0.392736
H110	H	1.008004	-0.738812	-0.504430
H111	H	0.413875	-0.419790	-0.307024
H112	H	1.213361	-0.256751	-0.942960
H113	H	1.213337	-0.256774	-0.838833
C114	C	1.008412	-0.432528	-1.111690
C115	C	0.950809	-0.481957	-1.068938
C116	C	0.893250	-0.531385	-1.116360
C117	C	0.893294	-0.531386	-1.206534
C118	C	0.950899	-0.481956	-1.249291
C119	C	1.008458	-0.432527	-1.201869
H120	H	0.950775	-0.481958	-1.002182
H121	H	0.850607	-0.567977	-1.084708
H122	H	0.850685	-0.567976	-1.241638
H123	H	0.950933	-0.481954	-1.316047
H124	H	1.051101	-0.395935	-1.233521
H125	H	1.052950	-0.850465	-0.459611
H126	H	0.570513	-0.257001	-0.481739
C127	C	1.032476	-0.926761	-0.480116
C128	C	0.942762	-0.936915	-0.474115
C129	C	0.889416	-0.896589	-0.527369
C130	C	0.925784	-0.846109	-0.586623
C131	C	1.015502	-0.835952	-0.592627
C132	C	1.068848	-0.876278	-0.539373
H133	H	0.915837	-0.974286	-0.430249
H134	H	0.823001	-0.904108	-0.522924
H135	H	0.886294	-0.816258	-0.626045
H136	H	1.042428	-0.798582	-0.636493
H137	H	1.135263	-0.868759	-0.543818
C138	C	1.243440	-0.926738	-0.269452
C139	C	1.236605	-0.936892	-0.180696
C140	C	1.293769	-0.896554	-0.123591
C141	C	1.357769	-0.846061	-0.155242
C142	C	1.364607	-0.835905	-0.244003
C143	C	1.307442	-0.876243	-0.301108
H144	H	1.189226	-0.974271	-0.157262
H145	H	1.288707	-0.904072	-0.057885
H146	H	1.400085	-0.816201	-0.112970
H147	H	1.411985	-0.798526	-0.267437
H148	H	1.312504	-0.868725	-0.366814
H149	H	0.674643	-0.256982	-0.481717
C150	C	0.654383	-0.432580	-0.293222
C151	C	0.599457	-0.402075	-0.230216
C152	C	0.551966	-0.451421	-0.177247
C153	C	0.559401	-0.531272	-0.187284
C154	C	0.614330	-0.561780	-0.250293
C155	C	0.661821	-0.512434	-0.303262
H156	H	0.593950	-0.342961	-0.222784
H157	H	0.511304	-0.428836	-0.130604
H158	H	0.524246	-0.567801	-0.148073
H159	H	0.619837	-0.620894	-0.257725
H160	H	0.702483	-0.535019	-0.349905
H161	H	0.562607	-0.419773	-0.307005
H162	H	0.815455	-0.419746	-0.306959
C163	C	1.211399	-0.595240	-0.301237
C164	C	1.275395	-0.544749	-0.332894
C165	C	1.332562	-0.504407	-0.275795
C166	C	1.325733	-0.514557	-0.187038
C167	C	1.261734	-0.565051	-0.155376
C168	C	1.204567	-0.605392	-0.212475
H169	H	1.280453	-0.537233	-0.398602
H170	H	1.379939	-0.467028	-0.299234
H171	H	1.368051	-0.484694	-0.144769
H172	H	1.256676	-0.572566	-0.089668
H173	H	1.157190	-0.642771	-0.189036
H174	H	1.190258	-0.738789	-0.322438
H175	H	1.222293	-1.070293	-0.290652
C176	C	1.025192	-1.080794	-0.487477
C177	C	0.936432	-1.070781	-0.480518
C178	C	0.879276	-1.111137	-0.537618
C179	C	0.910882	-1.161507	-0.601675
C180	C	0.999647	-1.171523	-0.608637
C181	C	1.056803	-1.131166	-0.551538
H182	H	0.913031	-1.033492	-0.433097
H183	H	0.813566	-1.103722	-0.532464
H184	H	0.868572	-1.191381	-0.643944
H185	H	1.023048	-1.208811	-0.656059
H186	H	1.122513	-1.138581	-0.556691
H187	H	1.213317	-0.256813	-0.690116
