data_functionalizedCrystal
_audit_creation_method	'MofGen! by Chris Wilmer'
_symmetry_space_group_name_H-M	'P1'
_symmetry_Int_Tables_number	1
_symmetry_cell_setting	triclinic
loop_
_symmetry_equiv_pos_as_xyz
  x,y,z
_cell_length_a	18.101398
_cell_length_b	18.101395
_cell_length_c	18.101389
_cell_angle_alpha	90.016841
_cell_angle_beta	89.975673
_cell_angle_gamma	89.973629
loop_
_atom_site_label
_atom_site_type_symbol
_atom_site_fract_x
_atom_site_fract_y
_atom_site_fract_z
Zn1	Zn	1.132121	0.295001	-0.418847
Zn2	Zn	1.382121	0.545001	-0.168847
Zn3	Zn	1.632121	0.795001	0.081153
Zn4	Zn	1.882121	1.045001	0.331153
Zn5	Zn	1.132017	0.418826	-0.295009
Zn6	Zn	1.382017	0.668826	-0.045009
Zn7	Zn	1.632017	0.918826	0.204991
Zn8	Zn	1.882017	1.168826	0.454991
Zn9	Zn	1.008280	0.294993	-0.295008
Zn10	Zn	1.258280	0.544993	-0.045008
Zn11	Zn	1.508280	0.794993	0.204992
Zn12	Zn	1.758280	1.044993	0.454992
Zn13	Zn	1.008231	0.418795	-0.418797
Zn14	Zn	1.258231	0.668795	-0.168797
Zn15	Zn	1.508231	0.918795	0.081203
Zn16	Zn	1.758231	1.168795	0.331203
O17	O	1.070162	0.356904	-0.356915
O18	O	1.320162	0.606904	-0.106915
O19	O	1.570162	0.856904	0.143085
O20	O	1.820162	1.106904	0.393085
O21	O	1.235740	0.311443	-0.402440
O22	O	1.485740	0.561443	-0.152440
O23	O	1.735740	0.811443	0.097560
O24	O	1.985740	1.061443	0.347560
O25	O	1.115580	0.402410	-0.191376
O26	O	1.365580	0.652410	0.058624
O27	O	1.615580	0.902410	0.308624
O28	O	1.865580	1.152410	0.558624
O29	O	1.024772	0.191361	-0.311456
O30	O	1.274772	0.441361	-0.061456
O31	O	1.524772	0.691361	0.188544
O32	O	1.774772	0.941361	0.438544
O33	O	1.235664	0.402417	-0.311457
O34	O	1.485664	0.652417	-0.061457
O35	O	1.735664	0.902417	0.188543
O36	O	1.985664	1.152417	0.438543
O37	O	1.115757	0.191367	-0.402440
O38	O	1.365757	0.441367	-0.152440
O39	O	1.615757	0.691367	0.097560
O40	O	1.865757	0.941367	0.347560
O41	O	1.024671	0.311430	-0.191375
O42	O	1.274671	0.561430	0.058625
O43	O	1.524671	0.811430	0.308625
O44	O	1.774671	1.061430	0.558625
O45	O	0.904641	0.311399	-0.311408
O46	O	1.154641	0.561399	-0.061408
O47	O	1.404641	0.811399	0.188592
O48	O	1.654641	1.061399	0.438592
O49	O	1.024688	0.402363	-0.522437
O50	O	1.274688	0.652363	-0.272437
O51	O	1.524688	0.902363	-0.022437
O52	O	1.774688	1.152363	0.227563
O53	O	0.904604	0.402356	-0.402355
O54	O	1.154604	0.652356	-0.152355
O55	O	1.404604	0.902356	0.097645
O56	O	1.654604	1.152356	0.347645
O57	O	1.115710	0.311412	-0.522473
O58	O	1.365710	0.561412	-0.272473
O59	O	1.615710	0.811412	-0.022473
O60	O	1.865710	1.061412	0.227527
O61	O	1.115532	0.522455	-0.311409
O62	O	1.365532	0.772455	-0.061409
O63	O	1.615532	1.022455	0.188591
O64	O	1.865532	1.272455	0.438591
O65	O	1.024587	0.522432	-0.402356
O66	O	1.274587	0.772432	-0.152356
O67	O	1.524587	1.022432	0.097644
O68	O	1.774587	1.272432	0.347644
C69	C	0.877752	0.356874	-0.356877
C70	C	1.127752	0.606874	-0.106877
C71	C	1.377752	0.856874	0.143123
C72	C	1.627752	1.106874	0.393123
C73	C	0.795437	0.356879	-0.356878
C74	C	1.045437	0.606879	-0.106878
C75	C	1.295437	0.856879	0.143122
C76	C	1.545437	1.106879	0.393122
C77	C	1.070205	0.356885	-0.550077
C78	C	1.320205	0.606885	-0.300077
C79	C	1.570205	0.856885	-0.050077
C80	C	1.820205	1.106885	0.199923
C81	C	1.070223	0.356877	-0.632391
C82	C	1.320223	0.606877	-0.382391
C83	C	1.570223	0.856877	-0.132391
C84	C	1.820223	1.106877	0.117609
C85	C	1.070063	0.549314	-0.356893
C86	C	1.320063	0.799314	-0.106893
C87	C	1.570063	1.049314	0.143107
C88	C	1.820063	1.299314	0.393107
C89	C	1.070088	0.631628	-0.356909
C90	C	1.320088	0.881628	-0.106909
C91	C	1.570088	1.131628	0.143091
C92	C	1.820088	1.381628	0.393091
C93	C	0.496347	0.356925	-0.356940
C94	C	0.746347	0.606925	-0.106940
C95	C	0.996347	0.856925	0.143060
C96	C	1.246347	1.106925	0.393060
C97	C	0.527670	0.299412	-0.299997
C98	C	0.777670	0.549412	-0.049997
C99	C	1.027670	0.799412	0.200003
C100	C	1.277670	1.049412	0.450003
C101	C	0.613288	0.299566	-0.299754
C102	C	0.863288	0.549566	-0.049754
C103	C	1.113288	0.799566	0.200246
C104	C	1.363288	1.049566	0.450246
C105	C	0.644729	0.356901	-0.356909
C106	C	0.894729	0.606901	-0.106909
C107	C	1.144729	0.856901	0.143091
C108	C	1.394729	1.106901	0.393091
C109	C	0.613611	0.434909	-0.335587
C110	C	0.863611	0.684909	-0.085587
C111	C	1.113611	0.934909	0.164413
C112	C	1.363611	1.184909	0.414413
C113	C	0.527966	0.434590	-0.335191
C114	C	0.777966	0.684590	-0.085191
C115	C	1.027966	0.934590	0.164809
C116	C	1.277966	1.184590	0.414809
C117	C	0.527961	0.337109	-0.435339
C118	C	0.777961	0.587109	-0.185339
C119	C	1.027961	0.837109	0.064661
C120	C	1.277961	1.087109	0.314661
C121	C	0.613612	0.335371	-0.434911
C122	C	0.863612	0.585371	-0.184911
C123	C	1.113612	0.835371	0.065089
C124	C	1.363612	1.085371	0.315089
C125	C	0.728589	0.356893	-0.356893
C126	C	0.978589	0.606893	-0.106893
C127	C	1.228589	0.856893	0.143107
C128	C	1.478589	1.106893	0.393107
C129	C	0.412487	0.356939	-0.356954
C130	C	0.662487	0.606939	-0.106954
C131	C	0.912487	0.856939	0.143046
C132	C	1.162487	1.106939	0.393046
C133	C	1.263324	0.356934	-0.356954
C134	C	1.513324	0.606934	-0.106954
C135	C	1.763324	0.856934	0.143046
C136	C	2.013324	1.106934	0.393046
C137	C	1.345638	0.356948	-0.356971
C138	C	1.595638	0.606948	-0.106971
C139	C	1.845638	0.856948	0.143029
C140	C	2.095638	1.106948	0.393029
C141	C	1.070282	0.163742	-0.356953
C142	C	1.320282	0.413742	-0.106953
C143	C	1.570282	0.663742	0.143047
C144	C	1.820282	0.913742	0.393047
C145	C	1.070333	0.081428	-0.356970
C146	C	1.320333	0.331428	-0.106970
C147	C	1.570333	0.581428	0.143030
C148	C	1.820333	0.831428	0.393030
C149	C	1.070251	0.930719	-0.356949
C150	C	1.320251	1.180719	-0.106949
C151	C	1.570251	1.430719	0.143051
C152	C	1.820251	1.680719	0.393051
C153	C	1.013163	0.899410	-0.414312
C154	C	1.263163	1.149410	-0.164312
C155	C	1.513163	1.399410	0.085688
C156	C	1.763163	1.649410	0.335688
C157	C	1.012892	0.813792	-0.414133
C158	C	1.262892	1.063792	-0.164133
C159	C	1.512892	1.313792	0.085867
C160	C	1.762892	1.563792	0.335867
C161	C	1.070170	0.782337	-0.356930
C162	C	1.320170	1.032337	-0.106930
C163	C	1.570170	1.282337	0.143070
C164	C	1.820170	1.532337	0.393070
C165	C	1.049041	0.813472	-0.278878
C166	C	1.299041	1.063472	-0.028878
C167	C	1.549041	1.313472	0.221122
C168	C	1.799041	1.563472	0.471122
C169	C	1.048673	0.899117	-0.279221
C170	C	1.298673	1.149117	-0.029221
C171	C	1.548673	1.399117	0.220779
C172	C	1.798673	1.649117	0.470779
C173	C	1.148593	0.899073	-0.376950
C174	C	1.398593	1.149073	-0.126950
C175	C	1.648593	1.399073	0.123050
C176	C	1.898593	1.649073	0.373050
C177	C	1.148132	0.813422	-0.378661
C178	C	1.398132	1.063422	-0.128661
C179	C	1.648132	1.313422	0.121339
C180	C	1.898132	1.563422	0.371339
C181	C	1.070126	0.698477	-0.356914
C182	C	1.320126	0.948477	-0.106914
C183	C	1.570126	1.198477	0.143086
C184	C	1.820126	1.448477	0.393086
C185	C	1.070293	1.014579	-0.356959
C186	C	1.320293	1.264579	-0.106959
C187	C	1.570293	1.514579	0.143041
C188	C	1.820293	1.764579	0.393041
C189	C	1.070266	0.356738	-0.931482
C190	C	1.320266	0.606738	-0.681482
C191	C	1.570266	0.856738	-0.431482
C192	C	1.820266	1.106738	-0.181482
C193	C	1.012801	0.413780	-0.900134
C194	C	1.262801	0.663780	-0.650134
C195	C	1.512801	0.913780	-0.400134
C196	C	1.762801	1.163780	-0.150134
C197	C	1.012956	0.414045	-0.814516
C198	C	1.262956	0.664045	-0.564516
C199	C	1.512956	0.914045	-0.314516
C200	C	1.762956	1.164045	-0.064516
C201	C	1.070244	0.356807	-0.783100
C202	C	1.320244	0.606807	-0.533100
C203	C	1.570244	0.856807	-0.283100
C204	C	1.820244	1.106807	-0.033100
C205	C	1.148270	0.377998	-0.814206
C206	C	1.398270	0.627998	-0.564206
C207	C	1.648270	0.877998	-0.314206
C208	C	1.898270	1.127998	-0.064206
C209	C	1.147949	0.378372	-0.899851
C210	C	1.397949	0.628372	-0.649851
C211	C	1.647949	0.878372	-0.399851
C212	C	1.897949	1.128372	-0.149851
C213	C	1.050385	0.278379	-0.899905
C214	C	1.300385	0.528379	-0.649905
C215	C	1.550385	0.778379	-0.399905
C216	C	1.800385	1.028379	-0.149905
C217	C	1.048649	0.278832	-0.814254
C218	C	1.298649	0.528832	-0.564254
C219	C	1.548649	0.778832	-0.314254
C220	C	1.798649	1.028832	-0.064254
C221	C	1.070237	0.356845	-0.699240
C222	C	1.320237	0.606845	-0.449240
C223	C	1.570237	0.856845	-0.199240
C224	C	1.820237	1.106845	0.050760
C225	C	1.070279	0.356702	-1.015342
C226	C	1.320279	0.606702	-0.765342
C227	C	1.570279	0.856702	-0.515342
C228	C	1.820279	1.106702	-0.265342
C229	C	1.070162	0.356869	-0.164505
C230	C	1.320162	0.606869	0.085495
C231	C	1.570162	0.856869	0.335495
C232	C	1.820162	1.106869	0.585495
C233	C	1.070287	0.356668	-0.082191
C234	C	1.320287	0.606668	0.167809
C235	C	1.570287	0.856668	0.417809
C236	C	1.820287	1.106668	0.667809
H237	H	0.634329	0.241719	-0.313119
H238	H	0.884329	0.491719	-0.063119
H239	H	1.134329	0.741719	0.186881
H240	H	1.384329	0.991719	0.436881
H241	H	1.026252	0.919970	-0.472374
H242	H	1.276252	1.169970	-0.222374
H243	H	1.526252	1.419970	0.027626
H244	H	1.776252	1.669970	0.277626
H245	H	1.164065	0.793071	-0.436103
H246	H	1.414065	1.043071	-0.186103
H247	H	1.664065	1.293071	0.063897
H248	H	1.914065	1.543071	0.313897
H249	H	1.167856	0.920633	-0.432895
H250	H	1.417856	1.170633	-0.182895
H251	H	1.667856	1.420633	0.067105
H252	H	1.917856	1.670633	0.317105
H253	H	1.165415	0.434671	-0.792765
H254	H	1.415415	0.684671	-0.542765
H255	H	1.665415	0.934671	-0.292765
H256	H	1.915415	1.184671	-0.042765
H257	H	0.506389	0.281216	-0.454725
H258	H	0.756389	0.531216	-0.204725
H259	H	1.006389	0.781216	0.045275
H260	H	1.256389	1.031216	0.295275
H261	H	1.025796	0.471508	-0.921661
H262	H	1.275796	0.721508	-0.671661
H263	H	1.525796	0.971508	-0.421661
H264	H	1.775796	1.221508	-0.171661
H265	H	0.507099	0.241388	-0.313215
H266	H	0.757099	0.491388	-0.063215
H267	H	1.007099	0.741388	0.186785
H268	H	1.257099	0.991388	0.436785
H269	H	0.954823	0.793362	-0.400884
H270	H	1.204823	1.043362	-0.150884
H271	H	1.454823	1.293362	0.099116
H272	H	1.704823	1.543362	0.349116
H273	H	0.955097	0.400784	-0.793483
H274	H	1.205097	0.650784	-0.543483
H275	H	1.455097	0.900784	-0.293483
H276	H	1.705097	1.150784	-0.043483
H277	H	0.633975	0.478909	-0.375763
H278	H	0.883975	0.728909	-0.125763
H279	H	1.133975	0.978909	0.124237
H280	H	1.383975	1.228909	0.374237
H281	H	1.192236	0.337757	-0.793859
H282	H	1.442236	0.587757	-0.543859
H283	H	1.692236	0.837757	-0.293859
H284	H	1.942236	1.087757	-0.043859
H285	H	0.507705	0.378999	-0.477766
H286	H	0.757705	0.628999	-0.227766
H287	H	1.007705	0.878999	0.022234
H288	H	1.257705	1.128999	0.272234
H289	H	1.192217	0.338629	-0.920590
H290	H	1.442217	0.588629	-0.670590
H291	H	1.692217	0.838629	-0.420590
H292	H	1.942217	1.088629	-0.170590
H293	H	1.087450	0.234076	-0.792868
H294	H	1.337450	0.484076	-0.542868
H295	H	1.587450	0.734076	-0.292868
H296	H	1.837450	0.984076	-0.042868
H297	H	1.026082	0.472127	-0.794035
H298	H	1.276082	0.722127	-0.544035
H299	H	1.526082	0.972127	-0.294035
H300	H	1.776082	1.222127	-0.044035
H301	H	0.633741	0.312665	-0.241661
H302	H	0.883741	0.562665	0.008339
H303	H	1.133741	0.812665	0.258339
H304	H	1.383741	1.062665	0.508339
H305	H	0.994478	0.259074	-0.921490
H306	H	1.244478	0.509074	-0.671490
H307	H	1.494478	0.759074	-0.421490
H308	H	1.744478	1.009074	-0.171490
H309	H	0.992380	0.792080	-0.261633
H310	H	1.242380	1.042080	-0.011633
H311	H	1.492380	1.292080	0.238367
H312	H	1.742380	1.542080	0.488367
H313	H	1.164804	0.435654	-0.919836
H314	H	1.414804	0.685654	-0.669836
H315	H	1.664804	0.935654	-0.419836
H316	H	1.914804	1.185654	-0.169836
H317	H	1.026111	0.792740	-0.472007
H318	H	1.276111	1.042740	-0.222007
H319	H	1.526111	1.292740	0.027993
H320	H	1.776111	1.542740	0.277993
H321	H	0.955448	0.920990	-0.401230
H322	H	1.205448	1.170990	-0.151230
H323	H	1.455448	1.420990	0.098770
H324	H	1.705448	1.670990	0.348770
H325	H	0.506120	0.312363	-0.242242
H326	H	0.756120	0.562363	0.007758
H327	H	1.006120	0.812363	0.257758
H328	H	1.256120	1.062363	0.507758
H329	H	0.991229	0.262852	-0.793921
H330	H	1.241229	0.512852	-0.543921
H331	H	1.491229	0.762852	-0.293921
H332	H	1.741229	1.012852	-0.043921
H333	H	0.507954	0.451397	-0.277877
H334	H	0.757954	0.701397	-0.027877
H335	H	1.007954	0.951397	0.222123
H336	H	1.257954	1.201397	0.472123
H337	H	1.092240	0.235880	-0.920179
H338	H	1.342240	0.485880	-0.670179
H339	H	1.592240	0.735880	-0.420179
H340	H	1.842240	0.985880	-0.170179
H341	H	1.192915	0.792007	-0.339927
H342	H	1.442915	1.042007	-0.089927
H343	H	1.692915	1.292007	0.160073
H344	H	1.942915	1.542007	0.410073
H345	H	1.089313	0.793097	-0.234972
H346	H	1.339313	1.043097	0.015028
H347	H	1.589313	1.293097	0.265028
H348	H	1.839313	1.543097	0.515028
H349	H	0.507244	0.478892	-0.374857
H350	H	0.757244	0.728892	-0.124857
H351	H	1.007244	0.978892	0.125143
H352	H	1.257244	1.228892	0.375143
H353	H	0.633956	0.277966	-0.450989
H354	H	0.883956	0.527966	-0.200989
H355	H	1.133956	0.777966	0.049011
H356	H	1.383956	1.027966	0.299011
H357	H	0.635026	0.452008	-0.278892
H358	H	0.885026	0.702008	-0.028892
H359	H	1.135026	0.952008	0.221108
H360	H	1.385026	1.202008	0.471108
H361	H	1.088449	0.919830	-0.235023
H362	H	1.338449	1.169830	0.014977
H363	H	1.588449	1.419830	0.264977
H364	H	1.838449	1.669830	0.514977
H365	H	0.635017	0.374209	-0.479611
H366	H	0.885017	0.624209	-0.229611
H367	H	1.135017	0.874209	0.020389
H368	H	1.385017	1.124209	0.270389
H369	H	1.191125	0.919319	-0.335170
H370	H	1.441125	1.169319	-0.085170
H371	H	1.691125	1.419319	0.164830
H372	H	1.941125	1.669319	0.414830
H373	H	0.991406	0.919153	-0.262279
H374	H	1.241406	1.169153	-0.012279
H375	H	1.491406	1.419153	0.237721
H376	H	1.741406	1.669153	0.487721
H377	H	0.954768	0.400655	-0.920720
H378	H	1.204768	0.650655	-0.670720
H379	H	1.454768	0.900655	-0.420720
H380	H	1.704768	1.150655	-0.170720
