data_functionalizedCrystal
_audit_creation_method	'MofGen! by Chris Wilmer'
_symmetry_space_group_name_H-M	'P1'
_symmetry_Int_Tables_number	1
_symmetry_cell_setting	triclinic
loop_
_symmetry_equiv_pos_as_xyz
  x,y,z
_cell_length_a	18.050591
_cell_length_b	21.295417
_cell_length_c	18.050582
_cell_angle_alpha	89.974292
_cell_angle_beta	89.989456
_cell_angle_gamma	90.028543
loop_
_atom_site_label
_atom_site_type_symbol
_atom_site_fract_x
_atom_site_fract_y
_atom_site_fract_z
Zn1	Zn	1.135285	-0.250669	-0.419810
Zn2	Zn	1.635285	0.249331	0.080190
Zn3	Zn	1.135192	-0.355930	-0.295613
Zn4	Zn	1.635192	0.144070	0.204387
Zn5	Zn	1.011104	-0.250676	-0.295643
Zn6	Zn	1.511104	0.249324	0.204357
Zn7	Zn	1.011049	-0.355902	-0.419771
Zn8	Zn	1.511049	0.144098	0.080229
O9	O	1.073157	-0.303294	-0.357709
O10	O	1.573157	0.196706	0.142291
O11	O	1.239197	-0.264640	-0.403338
O12	O	1.739197	0.235360	0.096662
O13	O	1.118716	-0.341983	-0.191692
O14	O	1.618716	0.158017	0.308308
O15	O	1.027639	-0.162586	-0.312143
O16	O	1.527639	0.337414	0.187857
O17	O	1.239129	-0.341975	-0.312091
O18	O	1.739129	0.158025	0.187909
O19	O	1.118874	-0.162580	-0.403368
O20	O	1.618874	0.337420	0.096632
O21	O	1.027549	-0.264654	-0.191715
O22	O	1.527549	0.235346	0.308285
O23	O	0.907172	-0.264626	-0.312105
O24	O	1.407172	0.235374	0.187895
O25	O	1.027545	-0.341927	-0.523701
O26	O	1.527545	0.158073	-0.023701
O27	O	0.907132	-0.341935	-0.403301
O28	O	1.407132	0.158065	0.096699
O29	O	1.118820	-0.264613	-0.523729
O30	O	1.618820	0.235387	-0.023729
O31	O	1.118663	-0.444016	-0.312054
O32	O	1.618663	0.055984	0.187946
O33	O	1.027455	-0.443995	-0.403272
O34	O	1.527455	0.056005	0.096728
C35	C	0.880205	-0.303279	-0.357703
C36	C	1.380205	0.196721	0.142297
C37	C	0.797660	-0.303287	-0.357718
C38	C	1.297660	0.196713	0.142282
C39	C	0.548833	-0.345415	-0.407243
C40	C	1.048833	0.154585	0.092757
C41	C	0.598203	-0.360732	-0.339456
C42	C	1.098203	0.139268	0.160544
C43	C	0.500539	-0.303307	-0.357717
C44	C	1.000539	0.196693	0.142283
C45	C	0.598251	-0.288010	-0.425500
C46	C	1.098251	0.211990	0.074500
C47	C	0.646524	-0.303299	-0.357721
C48	C	1.146524	0.196701	0.142279
C49	C	0.548821	-0.318654	-0.289894
C50	C	1.048821	0.181346	0.210106
C51	C	0.548866	-0.245905	-0.375984
C52	C	1.048866	0.254095	0.124016
C53	C	0.598213	-0.261201	-0.308150
C54	C	1.098213	0.238799	0.191850
C55	C	0.416441	-0.303314	-0.357715
C56	C	0.916441	0.196686	0.142285
C57	C	0.730621	-0.303293	-0.357715
C58	C	1.230621	0.196707	0.142285
C59	C	1.073063	-0.466846	-0.357672
C60	C	1.573063	0.033154	0.142328
C61	C	1.073090	-0.536814	-0.357680
C62	C	1.573090	-0.036814	0.142320
C63	C	1.120569	-0.569620	-0.405215
C64	C	1.620569	-0.069620	0.094785
C65	C	1.120595	-0.635363	-0.405233
C66	C	1.620595	-0.135363	0.094767
C67	C	1.073151	-0.668296	-0.357704
C68	C	1.573151	-0.168296	0.142296
C69	C	1.025662	-0.635482	-0.310166
C70	C	1.525662	-0.135482	0.189834
C71	C	1.025632	-0.569741	-0.310154
C72	C	1.525632	-0.069741	0.189846
N73	N	1.067546	-0.771554	-0.292710
N74	N	1.567546	-0.271554	0.207290
N75	N	1.067579	-0.834005	-0.292723
N76	N	1.567579	-0.334005	0.207277
C77	C	1.073237	-0.866371	-0.357737
C78	C	1.573237	-0.366371	0.142263
N79	N	1.078875	-0.833927	-0.422739
N80	N	1.578875	-0.333927	0.077261
N81	N	1.078846	-0.771469	-0.422725
N82	N	1.578846	-0.271469	0.077275
C83	C	1.073178	-0.739582	-0.357711
C84	C	1.573178	-0.239582	0.142289
C85	C	1.120747	-0.970463	-0.405296
C86	C	1.620747	-0.470463	0.094704
C87	C	1.120768	-1.036207	-0.405315
C88	C	1.620768	-0.536207	0.094685
C89	C	1.025839	-1.036325	-0.310241
C90	C	1.525839	-0.536325	0.189759
C91	C	1.025814	-0.970582	-0.310228
C92	C	1.525814	-0.470582	0.189772
C93	C	1.073272	-0.937655	-0.357754
C94	C	1.573272	-0.437655	0.142246
C95	C	1.266863	-0.303310	-0.357716
C96	C	1.766863	0.196690	0.142284
C97	C	1.349409	-0.303317	-0.357718
C98	C	1.849409	0.196683	0.142282
C99	C	1.073187	-0.303266	-0.551415
C100	C	1.573187	0.196734	-0.051415
C101	C	1.073199	-0.303254	-0.633961
C102	C	1.573199	0.196746	-0.133961
C103	C	1.073273	-0.139104	-0.357763
C104	C	1.573273	0.360896	0.142237
C105	C	1.073322	-0.069136	-0.357786
C106	C	1.573322	0.430864	0.142214
C107	C	1.023601	-0.345241	-0.833396
C108	C	1.523601	0.154759	-0.333396
C109	C	1.091356	-0.360629	-0.882781
C110	C	1.591356	0.139371	-0.382781
C111	C	1.073236	-0.303206	-0.785091
C112	C	1.573236	0.196794	-0.285091
C113	C	1.005518	-0.287800	-0.882788
C114	C	1.505518	0.212200	-0.382788
C115	C	1.073265	-0.303161	-0.931076
C116	C	1.573265	0.196839	-0.431076
C117	C	1.141026	-0.318625	-0.833389
C118	C	1.641026	0.181375	-0.333389
C119	C	1.055142	-0.245770	-0.833391
C120	C	1.555142	0.254230	-0.333391
C121	C	1.122944	-0.261136	-0.882754
C122	C	1.622944	0.238864	-0.382754
C123	C	1.073218	-0.303234	-0.700993
C124	C	1.573218	0.196766	-0.200993
C125	C	1.073291	-0.303133	-1.015173
C126	C	1.573291	0.196867	-0.515173
C127	C	1.073171	-0.303277	-0.164757
C128	C	1.573171	0.196723	0.335243
C129	C	1.073303	-0.303111	-0.082212
C130	C	1.573303	0.196889	0.417788
H131	H	0.619757	-0.225588	-0.266221
H132	H	1.119757	0.274412	0.233779
N133	N	1.178623	-0.214032	-0.911295
N134	N	1.678623	0.285968	-0.411295
H135	H	1.165412	-0.170787	-0.892535
H136	H	1.665412	0.329213	-0.392535
H137	H	1.229716	-0.225792	-0.893220
H138	H	1.729716	0.274208	-0.393220
H139	H	0.527177	-0.197379	-0.391458
H140	H	1.027177	0.302621	0.108542
N141	N	1.034821	-0.181478	-0.804617
N142	N	1.534821	0.318522	-0.304617
H143	H	1.071780	-0.149580	-0.823352
H144	H	1.571780	0.350420	-0.323352
H145	H	0.983606	-0.169953	-0.822560
H146	H	1.483606	0.330047	-0.322560
H147	H	0.619964	-0.275074	-0.482822
H148	H	1.119964	0.224926	0.017178
H149	H	1.159431	-1.062917	-0.444027
H150	H	1.659431	-0.562917	0.055973
N151	N	0.929648	-0.270561	-0.911535
N152	N	1.429648	0.229439	-0.411535
H153	H	0.892189	-0.302361	-0.893580
H154	H	1.392189	0.197639	-0.393580
H155	H	0.915650	-0.227492	-0.892792
H156	H	1.415650	0.272508	-0.392792
N157	N	0.520099	-0.392621	-0.462643
N158	N	1.020099	0.107379	0.037357
H159	H	0.489319	-0.370359	-0.501285
H160	H	0.989319	0.129641	-0.001285
H161	H	0.563251	-0.414308	-0.487393
H162	H	1.063251	0.085692	0.012607
N163	N	0.626907	-0.425027	-0.318974
N164	N	1.126907	0.074973	0.181026
H165	H	0.608947	-0.456810	-0.356411
H166	H	1.108947	0.043190	0.143589
H167	H	0.682853	-0.424391	-0.318641
H168	H	1.182853	0.075609	0.181359
N169	N	1.216897	-0.335978	-0.804742
N170	N	1.716897	0.164022	-0.304742
H171	H	1.230651	-0.379211	-0.823146
H172	H	1.730651	0.120789	-0.323146
H173	H	1.254435	-0.304412	-0.823094
H174	H	1.754435	0.195588	-0.323094
H175	H	1.159210	-0.542813	-0.443915
H176	H	1.659210	-0.042813	0.056085
N177	N	0.520191	-0.335861	-0.213940
N178	N	1.020191	0.164139	0.286060
H179	H	0.464240	-0.335776	-0.214412
H180	H	0.964240	0.164224	0.285588
H181	H	0.538627	-0.379066	-0.200075
H182	H	1.038627	0.120934	0.299925
N183	N	1.171807	-0.670758	-0.456504
N184	N	1.671807	-0.170758	0.043496
H185	H	1.201865	-0.639923	-0.486609
H186	H	1.701865	-0.139923	0.013391
H187	H	1.206203	-0.698022	-0.426300
H188	H	1.706203	-0.198022	0.073700
H189	H	0.987204	-1.063138	-0.271546
H190	H	1.487204	-0.563138	0.228454
H191	H	0.987031	-0.662301	-0.271469
H192	H	1.487031	-0.162301	0.228531
N193	N	0.974422	-0.534352	-0.258881
N194	N	1.474422	-0.034352	0.241119
H195	H	0.944368	-0.565188	-0.228774
H196	H	1.444368	-0.065188	0.271226
H197	H	1.004666	-0.507073	-0.224533
H198	H	1.504666	-0.007073	0.275467
N199	N	0.974614	-0.935191	-0.258951
N200	N	1.474614	-0.435191	0.241049
H201	H	0.921548	-0.946665	-0.270438
H202	H	1.421548	-0.446665	0.229562
H203	H	0.986255	-0.946665	-0.205922
H204	H	1.486255	-0.446665	0.294078
H205	H	1.159388	-0.943653	-0.443997
H206	H	1.659388	-0.443653	0.056003
H207	H	1.106677	-0.409183	-0.904476
H208	H	1.606677	0.090817	-0.404476
N209	N	0.968054	-0.392382	-0.804680
N210	N	1.468054	0.107618	-0.304680
H211	H	0.981833	-0.435742	-0.822646
H212	H	1.481833	0.064258	-0.322646
H213	H	0.968127	-0.391728	-0.748735
H214	H	1.468127	0.108272	-0.248735
