data_functionalizedCrystal
_audit_creation_method	'MofGen! by Chris Wilmer'
_symmetry_space_group_name_H-M	'P1'
_symmetry_Int_Tables_number	1
_symmetry_cell_setting	triclinic
loop_
_symmetry_equiv_pos_as_xyz
  x,y,z
_cell_length_a	10.654550
_cell_length_b	13.339070
_cell_length_c	9.730223
_cell_angle_alpha	90.000235
_cell_angle_beta	89.996251
_cell_angle_gamma	100.057099
loop_
_atom_site_label
_atom_site_type_symbol
_atom_site_fract_x
_atom_site_fract_y
_atom_site_fract_z
O1	O	1.715926	0.142430	-0.114401
O2	O	1.355030	0.156000	-0.114379
O3	O	1.494059	0.001661	-0.114383
O4	O	1.576897	0.296769	-0.114397
O5	O	1.494058	0.001665	0.114196
O6	O	1.355029	0.156004	0.114201
O7	O	1.715925	0.142434	0.114179
Zn8	Zn	1.535477	0.149220	0.150482
Zn9	Zn	1.535478	0.149214	-0.150682
O10	O	1.576896	0.296773	0.114183
C11	C	1.307895	0.155006	-0.000086
C12	C	1.167445	0.152025	-0.000078
C13	C	1.118643	0.242897	-0.000102
C14	C	0.986674	0.240090	-0.000125
C15	C	0.952320	0.055530	-0.000106
C16	C	1.084286	0.058338	-0.000073
C17	C	1.138476	0.349452	-0.000119
C18	C	1.006507	0.346644	-0.000142
C19	C	1.480065	-0.036124	-0.000094
C20	C	1.438355	-0.148719	-0.000098
C21	C	1.762670	-0.511236	-0.000117
C22	C	1.801862	-0.405449	-0.000106
C23	C	1.710989	-0.341261	-0.000105
C24	C	1.580916	-0.382872	-0.000112
C25	C	1.541720	-0.488670	-0.000112
C26	C	1.490039	-0.318694	-0.000100
C27	C	1.359966	-0.360305	-0.000108
C28	C	1.320776	-0.466093	-0.000109
C29	C	1.411650	-0.530280	-0.000110
C30	C	1.529235	-0.212896	-0.000100
C31	C	1.308285	-0.190329	-0.000096
C32	C	1.269093	-0.296117	-0.000106
C33	C	1.763060	0.143428	-0.000117
C34	C	1.903510	0.146409	-0.000135
C35	C	1.590890	0.334559	-0.000109
C36	C	1.632600	0.447153	-0.000115
N37	N	1.535485	0.149223	0.356018
N38	N	1.535477	0.149204	-0.356218
C39	C	1.597077	0.080904	0.427942
C40	C	1.597069	0.080892	0.571825
C41	C	1.473877	0.217525	0.571847
C42	C	1.473878	0.217531	0.427967
C43	C	1.668206	0.002023	0.427931
C44	C	1.668198	0.002011	0.571814
H45	H	1.185588	0.383378	-0.098808
H46	H	1.836644	-0.563506	-0.000107
O47	O	1.594852	-0.095548	0.630959
H48	H	1.659506	-0.132850	0.695149
H49	H	1.770577	0.019386	0.610858
O50	O	1.669520	-0.168028	-0.000100
H51	H	1.681516	-0.083681	-0.000089
O52	O	1.369370	-0.644384	-0.000104
H53	H	1.454415	-0.682021	-0.000097
H54	H	1.124015	-0.015659	-0.000034
H55	H	1.423711	0.273153	0.369408
O56	O	1.942143	-0.360567	-0.000127
H57	H	1.998749	-0.422970	-0.000150
H58	H	0.971709	0.378848	0.098540
H59	H	0.884597	-0.020747	-0.000124
O60	O	1.128802	-0.340999	-0.000091
H61	H	1.116822	-0.425345	-0.000077
O62	O	1.180486	-0.510977	-0.000094
H63	H	1.135035	-0.485270	-0.093261
H64	H	1.620444	-0.075922	0.388882
H65	H	1.234288	-0.138068	-0.000087
O66	O	1.407443	0.291208	0.649447
H67	H	1.417796	0.279731	0.761580
O68	O	1.800032	0.034716	0.368788
H69	H	1.869922	0.052042	0.453791
O70	O	1.195969	0.404564	0.126660
H71	H	1.119458	0.429320	0.188702
O72	O	1.753251	-0.227160	-0.000106
H73	H	1.858963	-0.209009	-0.000114
H74	H	0.978331	0.386791	-0.095812
