data_functionalizedCrystal
_audit_creation_method	'MofGen! by Chris Wilmer'
_symmetry_space_group_name_H-M	'P1'
_symmetry_Int_Tables_number	1
_symmetry_cell_setting	triclinic
loop_
_symmetry_equiv_pos_as_xyz
  x,y,z
_cell_length_a	13.032831
_cell_length_b	16.625546
_cell_length_c	13.032268
_cell_angle_alpha	97.144614
_cell_angle_beta	90.886977
_cell_angle_gamma	82.826778
loop_
_atom_site_label
_atom_site_type_symbol
_atom_site_fract_x
_atom_site_fract_y
_atom_site_fract_z
Zn1	Zn	1.498429	-0.544521	-0.780776
Zn2	Zn	1.998429	-0.044521	-0.280776
Zn3	Zn	1.520160	-0.664651	-0.608784
Zn4	Zn	2.020160	-0.164651	-0.108784
Zn5	Zn	1.348291	-0.510838	-0.587021
Zn6	Zn	1.848291	-0.010838	-0.087021
Zn7	Zn	1.326409	-0.660292	-0.758909
Zn8	Zn	1.826409	-0.160292	-0.258909
O9	O	1.423322	-0.595075	-0.683873
O10	O	1.923322	-0.095075	-0.183873
O11	O	1.645231	-0.576377	-0.776220
O12	O	2.145231	-0.076377	-0.276220
O13	O	1.515614	-0.631976	-0.461981
O14	O	2.015614	-0.131976	0.038019
O15	O	1.368270	-0.402484	-0.612767
O16	O	1.868270	0.097516	-0.112767
O17	O	1.661197	-0.664636	-0.649858
O18	O	2.161197	-0.164636	-0.149858
O19	O	1.478576	-0.427231	-0.755118
O20	O	1.978576	0.072769	-0.255118
O21	O	1.389342	-0.518970	-0.445992
O22	O	1.889342	-0.018970	0.054008
O23	O	1.201469	-0.514743	-0.591563
O24	O	1.701469	-0.014743	-0.091563
O25	O	1.330976	-0.657206	-0.905725
O26	O	1.830976	-0.157206	-0.405725
O27	O	1.185392	-0.624546	-0.717849
O28	O	1.685392	-0.124546	-0.217849
O29	O	1.457358	-0.572150	-0.921791
O30	O	1.957358	-0.072150	-0.421791
O31	O	1.494396	-0.776895	-0.628654
O32	O	1.994396	-0.276895	-0.128654
O33	O	1.352048	-0.773692	-0.738951
O34	O	1.852048	-0.273692	-0.238951
C35	C	1.156114	-0.565517	-0.649972
C36	C	1.656114	-0.065517	-0.149972
C37	C	1.041798	-0.552893	-0.635494
C38	C	1.541798	-0.052893	-0.135494
C39	C	1.423230	-0.804552	-0.683817
C40	C	1.923230	-0.304552	-0.183817
C41	C	1.423281	-0.894180	-0.683840
C42	C	1.923281	-0.394180	-0.183840
C43	C	0.982917	-0.601664	-0.691429
C44	C	1.482917	-0.101664	-0.191429
C45	C	0.864766	-0.588618	-0.676466
C46	C	1.364766	-0.088618	-0.176466
C47	C	1.423447	-1.222385	-0.683970
C48	C	1.923447	-0.722385	-0.183970
C49	C	1.423397	-1.131068	-0.683936
C50	C	1.923397	-0.631068	-0.183936
C51	C	1.423363	-1.058285	-0.683904
C52	C	1.923363	-0.558285	-0.183904
C53	C	1.423315	-0.966963	-0.683872
C54	C	1.923315	-0.466963	-0.183872
C55	C	1.691574	-0.624750	-0.717906
C56	C	2.191574	-0.124750	-0.217906
C57	C	1.805887	-0.637396	-0.732409
C58	C	2.305887	-0.137396	-0.232409
C59	C	1.389302	-0.617949	-0.952117
C60	C	1.889302	-0.117949	-0.452117
C61	C	1.374805	-0.627696	-1.066427
C62	C	1.874805	-0.127696	-0.566427
C63	C	1.423440	-0.384786	-0.683954
C64	C	1.923440	0.115214	-0.183954
C65	C	1.423490	-0.295173	-0.683989
C66	C	1.923490	0.204827	-0.183989
C67	C	1.430873	-0.589958	-1.125339
C68	C	1.930873	-0.089958	-0.625339
C69	C	1.415890	-0.600031	-1.243485
C70	C	1.915890	-0.100031	-0.743485
C71	C	1.457270	-0.572239	-0.416679
C72	C	1.957270	-0.072239	0.083321
C73	C	1.471966	-0.562287	-0.302395
C74	C	1.971966	-0.062287	0.197605
H75	H	0.827708	-0.537199	-0.617501
H76	H	1.327708	-0.037199	-0.117501
H77	H	1.531059	-0.522512	-1.265370
H78	H	2.031059	-0.022512	-0.765370
H79	H	0.842942	-0.688808	-0.791385
H80	H	1.342942	-0.188808	-0.291385
H81	H	1.019978	-0.653074	-0.750398
H82	H	1.519978	-0.153074	-0.250398
C83	C	1.509823	-0.537006	-1.076131
C84	C	2.009823	-0.037006	-0.576131
C85	C	1.608285	-0.568014	-1.115111
C86	C	2.108285	-0.068014	-0.615111
C87	C	1.681039	-0.519250	-1.069819
C88	C	2.181039	-0.019250	-0.569819
H89	H	1.509564	-0.537245	-1.003287
H90	H	2.009564	-0.037245	-0.503287
H91	H	1.492651	-0.482653	-1.091829
H92	H	1.992651	0.017347	-0.591829
H93	H	1.625453	-0.622354	-1.099405
H94	H	2.125453	-0.122354	-0.599405
H95	H	1.608578	-0.567774	-1.187950
H96	H	2.108578	-0.067774	-0.687950
H97	H	1.663867	-0.464896	-1.085518
H98	H	2.163867	0.035104	-0.585518
H99	H	1.680771	-0.519491	-0.996977
H100	H	2.180771	-0.019491	-0.496977
H101	H	1.747852	-0.540277	-1.096268
H102	H	2.247852	-0.040277	-0.596268
C103	C	0.992204	-0.484417	-0.556869
C104	C	1.492204	0.015583	-0.056869
C105	C	0.884878	-0.485114	-0.557627
C106	C	1.384878	0.014886	-0.057627
C107	C	0.839164	-0.422055	-0.485195
C108	C	1.339164	0.077945	0.014805
H109	H	1.007735	-0.433423	-0.574158
H110	H	1.507735	0.066577	-0.074158
H111	H	1.018456	-0.492172	-0.489923
H112	H	1.518456	0.007828	0.010077
H113	H	0.858635	-0.477352	-0.624559
H114	H	1.358635	0.022648	-0.124559
H115	H	0.869318	-0.536093	-0.540327
H116	H	1.369318	-0.036093	-0.040327
H117	H	0.865416	-0.429810	-0.418249
H118	H	1.365416	0.070190	0.081751
H119	H	0.854702	-0.371065	-0.502491
H120	H	1.354702	0.128935	-0.002491
H121	H	0.766340	-0.422524	-0.485693
H122	H	1.266340	0.077476	0.014307
H123	H	1.356786	-0.639795	-1.280509
H124	H	1.856786	-0.139795	-0.780509
H125	H	1.315704	-0.667457	-1.103456
H126	H	1.815704	-0.167457	-0.603456
