data_functionalizedCrystal
_audit_creation_method	'MofGen! by Chris Wilmer'
_symmetry_space_group_name_H-M	'P1'
_symmetry_Int_Tables_number	1
_symmetry_cell_setting	triclinic
loop_
_symmetry_equiv_pos_as_xyz
  x,y,z
_cell_length_a	16.992694
_cell_length_b	13.930277
_cell_length_c	16.992695
_cell_angle_alpha	90.004629
_cell_angle_beta	90.668223
_cell_angle_gamma	90.001555
loop_
_atom_site_label
_atom_site_type_symbol
_atom_site_fract_x
_atom_site_fract_y
_atom_site_fract_z
O1	O	1.050854	0.079711	0.166916
O2	O	0.822454	0.079740	0.165085
O3	O	0.935738	0.079718	0.051801
O4	O	0.937569	0.079733	0.280201
O5	O	0.935721	-0.079944	0.051797
O6	O	0.822437	-0.079922	0.165081
O7	O	1.050837	-0.079950	0.166913
Zn8	Zn	0.936634	-0.105286	0.165996
Zn9	Zn	0.936656	0.105075	0.166001
O10	O	0.937552	-0.079929	0.280197
C11	C	0.793085	-0.000088	0.162727
C12	C	0.705600	-0.000077	0.155699
C13	C	0.659610	-0.000073	0.223517
C14	C	0.577409	-0.000087	0.216908
C15	C	0.541201	-0.000098	0.142480
C16	C	0.587198	-0.000104	0.074657
C17	C	0.669397	-0.000097	0.081267
C18	C	0.295886	-0.000125	0.115086
C19	C	0.213681	-0.000129	0.108481
C20	C	0.203898	-0.000114	0.250732
C21	C	0.286099	-0.000101	0.257336
C22	C	0.332089	-0.000113	0.189512
N23	N	0.457178	-0.000108	0.135723
N24	N	0.416110	-0.000109	0.196270
N25	N	0.936625	-0.248852	0.165993
C26	C	0.886491	-0.701112	0.216142
C27	C	0.986843	-0.701100	0.115855
C28	C	0.986834	-0.600605	0.115852
C29	C	0.936653	-0.550358	0.165996
C30	C	0.886481	-0.600607	0.216143
C31	C	1.037010	-0.550348	0.065712
C32	C	1.037003	-0.449846	0.065708
C33	C	0.986818	-0.399598	0.115848
C34	C	0.936643	-0.449853	0.165996
C35	C	0.886462	-0.399606	0.216140
C36	C	0.836284	-0.449859	0.266284
C37	C	0.836296	-0.550358	0.266283
C38	C	0.986806	-0.299099	0.115849
C39	C	0.886453	-0.299101	0.216140
C40	C	1.080205	-0.000121	0.169270
C41	C	1.167690	-0.000125	0.176299
N42	N	0.936672	0.248641	0.165999
C43	C	0.933374	-0.000112	0.022439
C44	C	0.926345	-0.000111	-0.065046
C45	C	0.994163	-0.000121	-0.111037
C46	C	0.987554	-0.000111	-0.193238
C47	C	0.913127	-0.000098	-0.229446
C48	C	0.845303	-0.000086	-0.183449
C49	C	0.851913	-0.000089	-0.101250
C50	C	0.885732	-0.000082	-0.474760
C51	C	0.879127	-0.000082	-0.556966
C52	C	1.021379	-0.000104	-0.566749
C53	C	1.027982	-0.000113	-0.484547
C54	C	0.960159	-0.000096	-0.438558
N55	N	0.906369	-0.000091	-0.313468
N56	N	0.966917	-0.000096	-0.354537
C57	C	0.939917	-0.000096	0.309559
C58	C	0.946945	-0.000091	0.397044
H59	H	0.689084	-0.000064	0.284124
H60	H	1.054770	-0.000137	-0.081563
O61	O	0.785978	0.000047	-0.056654
C62	C	0.666457	0.082816	-0.023096
C63	C	0.741088	0.082763	-0.073659
H64	H	0.630151	0.149695	-0.036814
H65	H	0.630018	0.016050	-0.036858
H66	H	0.683985	0.082768	0.041868
H67	H	0.723631	0.082845	-0.138638
H68	H	0.777509	0.149524	-0.059830
O69	O	0.321143	-0.000139	0.329695
C70	C	0.302762	-0.000072	0.470092
C71	C	0.262973	-0.000055	0.388193
H72	H	0.255750	0.000016	0.517409
H73	H	0.340978	-0.066902	0.476792
H74	H	0.341024	0.066734	0.476701
H75	H	0.224673	-0.066816	0.381528
H76	H	0.224805	0.066819	0.381529
O77	O	1.035653	-0.749757	0.067116
C78	C	1.135132	-0.739147	-0.032414
C79	C	1.079913	-0.683920	0.022765
H80	H	1.170919	-0.685942	-0.068298
H81	H	1.176647	-0.786166	0.004012
H82	H	1.098663	-0.786231	-0.073847
H83	H	1.116318	-0.636784	0.064209
H84	H	1.038396	-0.636961	-0.013710
O85	O	0.806764	-0.000016	-0.592013
C86	C	0.666366	-0.000029	-0.573640
C87	C	0.748263	-0.000081	-0.533847
H88	H	0.619046	-0.000101	-0.526631
H89	H	0.659683	0.066807	-0.611850
H90	H	0.659744	-0.066829	-0.611909
H91	H	0.754941	0.066674	-0.495540
H92	H	0.754909	-0.066961	-0.495685
H93	H	0.784703	-0.000070	-0.212936
O94	O	0.819872	0.000099	-0.430062
C95	C	0.744797	0.082799	-0.331549
C96	C	0.819410	0.082725	-0.382138
H97	H	0.744407	0.149585	-0.292778
H98	H	0.690443	0.082866	-0.371517
H99	H	0.744329	0.015951	-0.292860
H100	H	0.819954	0.149561	-0.420834
H101	H	0.873730	0.082608	-0.342126
O102	O	0.340634	0.000003	0.049260
C103	C	0.439071	0.082757	-0.025867
C104	C	0.388452	0.082716	0.048726
H105	H	0.477733	0.149633	-0.026332
H106	H	0.477855	0.015987	-0.026347
H107	H	0.399050	0.082708	-0.080181
H108	H	0.428414	0.082799	0.103079
H109	H	0.349661	0.149480	0.049136
H110	H	1.088589	-0.000124	-0.455073
O111	O	0.787650	-0.400939	0.315033
C112	C	0.777628	-0.287503	0.421512
C113	C	0.832791	-0.342832	0.366343
H114	H	0.814103	-0.240525	0.463020
H115	H	0.736192	-0.240390	0.385079
H116	H	0.741746	-0.340694	0.457315
H117	H	0.868724	-0.289710	0.330528
H118	H	0.874175	-0.389959	0.402821
O119	O	0.787635	-0.599322	0.314970
C120	C	0.743154	-0.754155	0.359387
C121	C	0.798310	-0.698819	0.304221
H122	H	0.751754	-0.834608	0.350704
H123	H	0.757360	-0.734456	0.423103
H124	H	0.679468	-0.734357	0.345153
H125	H	0.862015	-0.718587	0.318384
H126	H	0.784036	-0.718523	0.240521
O127	O	0.552065	-0.000282	0.002339
C128	C	0.535321	-0.082974	-0.121285
C129	C	0.575141	-0.082909	-0.039402
H130	H	0.553975	-0.149760	-0.155063
H131	H	0.468664	-0.083036	-0.114410
H132	H	0.553886	-0.016127	-0.155024
H133	H	0.556638	-0.149745	-0.005619
H134	H	0.641790	-0.082797	-0.046333
H135	H	1.077870	-0.591262	0.024890
H136	H	0.539966	-0.000083	0.272133
O137	O	1.085764	-0.401184	0.016921
C138	C	1.185333	-0.411787	-0.082521
C139	C	1.130142	-0.467018	-0.027321
H140	H	1.221239	-0.464990	-0.118293
H141	H	1.148916	-0.364778	-0.124050
H142	H	1.226746	-0.364694	-0.046038
H143	H	1.088718	-0.514164	-0.063741
H144	H	1.166608	-0.513967	0.014210
H145	H	0.166444	-0.000106	0.305950
O146	O	1.035568	-0.250432	0.067072
C147	C	1.135150	-0.261032	-0.032358
C148	C	1.079950	-0.316265	0.022833
H149	H	1.171059	-0.314234	-0.068127
H150	H	1.098737	-0.214020	-0.073889
H151	H	1.176558	-0.213941	0.004132
H152	H	1.038531	-0.363408	-0.013593
H153	H	1.116412	-0.363217	0.064367
O154	O	1.053513	-0.000169	-0.237796
C155	C	1.195303	-0.000150	-0.238825
C156	C	1.120667	-0.000106	-0.188269
H157	H	1.249616	-0.000078	-0.198804
H158	H	1.195808	-0.066982	-0.277541
H159	H	1.195735	0.066655	-0.277565
H160	H	1.120186	-0.066864	-0.149483
H161	H	1.120191	0.066771	-0.149605
H162	H	0.184203	-0.000136	0.047870
H163	H	0.706842	-0.000100	0.026042
H164	H	0.845586	-0.258196	0.256970
H165	H	0.845633	-0.742031	0.256967
H166	H	1.076596	-0.000117	-0.604202
