data_functionalizedCrystal
_audit_creation_method	'MofGen! by Chris Wilmer'
_symmetry_space_group_name_H-M	'P1'
_symmetry_Int_Tables_number	1
_symmetry_cell_setting	triclinic
loop_
_symmetry_equiv_pos_as_xyz
  x,y,z
_cell_length_a	16.974810
_cell_length_b	17.699104
_cell_length_c	16.776229
_cell_angle_alpha	90.011179
_cell_angle_beta	86.350051
_cell_angle_gamma	83.342085
loop_
_atom_site_label
_atom_site_type_symbol
_atom_site_fract_x
_atom_site_fract_y
_atom_site_fract_z
O1	O	-1.048968	-0.096427	0.001404
O2	O	-0.548968	0.403573	0.501404
O3	O	-0.818740	-0.108722	-0.013457
O4	O	-0.318740	0.391278	0.486543
O5	O	-0.940350	0.007609	-0.005593
O6	O	-0.440350	0.507609	0.494407
O7	O	-0.927358	-0.212758	-0.006460
O8	O	-0.427358	0.287242	0.493540
O9	O	-0.940334	0.007616	0.126983
O10	O	-0.440334	0.507616	0.626983
O11	O	-0.818724	-0.108715	0.119118
O12	O	-0.318724	0.391285	0.619118
O13	O	-1.048952	-0.096420	0.133980
O14	O	-0.548952	0.403580	0.633980
Zn15	Zn	-0.933836	-0.102566	0.147598
Zn16	Zn	-0.433836	0.397434	0.647598
Zn17	Zn	-0.933857	-0.102576	-0.027076
Zn18	Zn	-0.433857	0.397424	0.472924
O19	O	-0.927342	-0.212751	0.126115
O20	O	-0.427342	0.287249	0.626115
C21	C	-0.789275	-0.108252	0.050929
C22	C	-0.289275	0.391748	0.550929
C23	C	-0.701501	-0.106854	0.045264
C24	C	-0.201501	0.393146	0.545264
C25	C	-0.660260	-0.106191	0.114871
C26	C	-0.160260	0.393809	0.614871
C27	C	-0.577789	-0.104865	0.109550
C28	C	-0.077789	0.395135	0.609550
C29	C	-0.536559	-0.104207	0.034621
C30	C	-0.036559	0.395793	0.534621
C31	C	-0.577806	-0.104868	-0.034991
C32	C	-0.077806	0.395132	0.465009
C33	C	-0.660276	-0.106188	-0.029669
C34	C	-0.160276	0.393812	0.470331
C35	C	-0.289911	-0.100253	0.010956
C36	C	0.210089	0.399747	0.510956
C37	C	-0.207434	-0.098935	0.005640
C38	C	0.292566	0.401065	0.505640
C39	C	-0.207424	-0.098931	0.150182
C40	C	0.292576	0.401069	0.650182
C41	C	-0.289895	-0.100256	0.155497
C42	C	0.210105	0.399744	0.655497
C43	C	-0.331135	-0.100912	0.085884
C44	C	0.168865	0.399088	0.585884
N45	N	-0.452260	-0.102854	0.029181
N46	N	0.047740	0.397146	0.529181
N47	N	-0.415433	-0.102260	0.091326
N48	N	0.084567	0.397740	0.591326
C49	C	-0.939874	0.035810	0.060667
C50	C	-0.439874	0.535810	0.560667
C51	C	-0.938469	0.119828	0.060582
C52	C	-0.438469	0.619828	0.560582
C53	C	-0.078418	-0.096885	0.069590
C54	C	0.421582	0.403115	0.569590
C55	C	-0.166194	-0.098272	0.075247
C56	C	0.333806	0.401728	0.575247
C57	C	-1.001928	0.644656	0.064690
C58	C	-0.501928	1.144656	0.564690
C59	C	-1.003243	0.565711	0.064777
C60	C	-0.503243	1.065711	0.564777
C61	C	-0.931853	0.517142	0.060167
C62	C	-0.431853	1.017142	0.560167
C63	C	-0.859144	0.547522	0.055479
C64	C	-0.359144	1.047522	0.555479
C65	C	-0.857829	0.626465	0.055398
C66	C	-0.357829	1.126465	0.555398
C67	C	-0.864443	0.229152	0.055807
C68	C	-0.364443	0.729152	0.555807
C69	C	-0.865764	0.150204	0.055886
C70	C	-0.365764	0.650204	0.555886
C71	C	-1.009858	0.168398	0.065186
C72	C	-0.509858	0.668398	0.565186
C73	C	-1.008543	0.247341	0.065105
C74	C	-0.508543	0.747341	0.565105
C75	C	-0.935834	0.277714	0.060420
C76	C	-0.435834	0.777714	0.560420
C77	C	-0.934408	0.363315	0.060328
C78	C	-0.434408	0.863315	0.560328
C79	C	-0.933278	0.431543	0.060254
C80	C	-0.433278	0.931543	0.560254
C81	C	-0.927819	0.759048	0.059871
C82	C	-0.427819	1.259048	0.559871
C83	C	-0.929224	0.675030	0.060000
C84	C	-0.429224	1.175030	0.560000
N85	N	-0.933827	-0.102559	0.266809
N86	N	-0.433827	0.397441	0.766809
N87	N	-0.933872	-0.102576	-0.146286
N88	N	-0.433872	0.397424	0.353714
C89	C	-0.987692	-0.051069	0.312009
C90	C	-0.487692	0.448931	0.812009
C91	C	-0.987697	-0.051068	0.395462
C92	C	-0.487697	0.448932	0.895462
C93	C	-0.933839	-0.102562	0.433713
C94	C	-0.433839	0.397438	0.933713
C95	C	-0.879968	-0.154055	0.388506
C96	C	-0.379968	0.345945	0.888506
C97	C	-0.879960	-0.154052	0.305055
C98	C	-0.379960	0.345948	0.805055
C99	C	-0.879996	-0.154070	0.725055
C100	C	-0.379996	0.345930	1.225055
C101	C	-0.880010	-0.154071	0.808512
C102	C	-0.380010	0.345929	1.308512
C103	C	-0.987733	-0.051087	0.815462
C104	C	-0.487733	0.448913	1.315462
C105	C	-0.987725	-0.051083	0.732011
C106	C	-0.487725	0.448917	1.232011
C107	C	-0.933852	-0.102573	0.686811
C108	C	-0.433852	0.397427	1.186811
C109	C	-0.933847	-0.102572	0.596323
C110	C	-0.433847	0.397428	1.096323
C111	C	-0.933847	-0.102567	0.524200
C112	C	-0.433847	0.397433	1.024200
H113	H	-0.693853	-0.106730	-0.086351
H114	H	-0.193853	0.393270	0.413649
O115	O	-0.827793	-0.204166	0.845712
O116	O	-0.327793	0.295834	1.345712
C117	C	-0.870047	-0.250832	0.896702
C118	C	-0.370047	0.249168	1.396702
H119	H	-0.932393	-0.252086	0.875559
H120	H	-0.432393	0.247914	1.375559
H121	H	-0.837666	-0.311004	0.895555
H122	H	-0.337666	0.188996	1.395555
H123	H	-0.874249	-0.227142	0.960224
H124	H	-0.374249	0.272858	1.460224
H125	H	-1.069061	0.143660	0.068989
H126	H	-0.569061	0.643660	0.568989
H127	H	-0.801017	0.507970	0.051731
H128	H	-0.301017	1.007970	0.551731
H129	H	-0.544217	-0.104313	0.166232
H130	H	-0.044217	0.395687	0.666232
H131	H	-0.836097	-0.195979	0.268253
H132	H	-0.336097	0.304021	0.768253
H133	H	-0.836132	-0.195996	0.688260
H134	H	-0.336132	0.304004	1.188260
O135	O	-0.537631	-0.104260	-0.107714
O136	O	-0.037631	0.395740	0.392286
C137	C	-0.455998	-0.102935	-0.097487
C138	C	0.044002	0.397065	0.402513
H139	H	-0.441409	-0.126702	-0.036322
H140	H	0.058591	0.373298	0.463678
H141	H	-0.419571	-0.139163	-0.145998
H142	H	0.080429	0.360837	0.354002
H143	H	-0.441005	-0.041871	-0.101872
H144	H	0.058995	0.458129	0.398128
O145	O	-0.793886	0.258775	0.051283
O146	O	-0.293886	0.758775	0.551283
C147	C	-0.808026	0.338867	0.052180
C148	C	-0.308026	0.838867	0.552180
H149	H	-0.869759	0.357473	0.081272
H150	H	-0.369759	0.857473	0.581272
H151	H	-0.761500	0.363063	0.087661
H152	H	-0.261500	0.863063	0.587661
H153	H	-0.804251	0.360829	-0.011668
H154	H	-0.304251	0.860829	0.488332
H155	H	-0.807626	0.110660	0.052134
H156	H	-0.307626	0.610660	0.552134
H157	H	-0.693823	-0.106733	0.175886
H158	H	-0.193823	0.393267	0.675886
O159	O	-0.827726	-0.204048	0.425788
O160	O	-0.327726	0.295952	0.925788
C161	C	-0.839270	-0.193001	0.509137
C162	C	-0.339270	0.306999	1.009137
H163	H	-0.902185	-0.164681	0.524588
H164	H	-0.402185	0.335319	1.024588
H165	H	-0.830368	-0.250325	0.540263
H166	H	-0.330368	0.249675	1.040263
H167	H	-0.794593	-0.155064	0.529957
H168	H	-0.294593	0.344936	1.029957
O169	O	-1.039947	-0.001081	0.439488
O170	O	-0.539947	0.498919	0.939488
C171	C	-1.028418	-0.012133	0.521347
C172	C	-0.528418	0.487867	1.021347
H173	H	-0.965504	-0.040449	0.528692
H174	H	-0.465504	0.459551	1.028692
H175	H	-1.037330	0.045190	0.553648
H176	H	-0.537330	0.545190	1.053648
H177	H	-1.073097	-0.050074	0.547895
H178	H	-0.573097	0.449926	1.047895
O179	O	-0.787184	0.655937	0.050695
O180	O	-0.287184	1.155937	0.550695
C181	C	-0.743673	0.631092	-0.020767
C182	C	-0.243673	1.131092	0.479233
H183	H	-0.786196	0.614705	-0.066015
H184	H	-0.286196	1.114705	0.433985
H185	H	-0.710131	0.678881	-0.045976
H186	H	-0.210131	1.178881	0.454024
H187	H	-0.699509	0.579600	-0.008097
H188	H	-0.199509	1.079600	0.491903
O189	O	-0.329826	-0.100859	0.228347
O190	O	0.170174	0.399141	0.728347
C191	C	-0.275738	-0.100011	0.288645
C192	C	0.224262	0.399989	0.788645
H193	H	-0.220273	-0.075117	0.263886
H194	H	0.279727	0.424883	0.763886
H195	H	-0.304654	-0.063667	0.341063
H196	H	0.195346	0.436333	0.841063
H197	H	-0.258551	-0.160560	0.309745
H198	H	0.241449	0.339440	0.809745
O199	O	-1.040072	-0.000988	0.694981
O200	O	-0.540072	0.499012	1.194981
C201	C	-1.087630	0.044448	0.752773
C202	C	-0.587630	0.544448	1.252773
H203	H	-1.055223	0.045284	0.810176
H204	H	-0.555223	0.545284	1.310176
H205	H	-1.099802	0.104900	0.729459
H206	H	-0.599802	0.604900	1.229459
H207	H	-1.146320	0.019905	0.765414
H208	H	-0.646320	0.519905	1.265414
H209	H	-0.173838	-0.098395	0.206856
H210	H	0.326162	0.401605	0.706856
H211	H	-1.031597	-0.009158	0.852273
H212	H	-0.531597	0.490842	1.352273
O213	O	-1.040041	-0.000974	0.274982
O214	O	-0.540041	0.499026	0.774982
C215	C	-1.087596	0.044461	0.332777
C216	C	-0.587596	0.544461	0.832777
H217	H	-1.055186	0.045295	0.390179
H218	H	-0.555186	0.545295	0.890179
H219	H	-1.099771	0.104913	0.309466
H220	H	-0.599771	0.604913	0.809466
H221	H	-1.146285	0.019915	0.345422
H222	H	-0.646285	0.519915	0.845422
H223	H	-0.173866	-0.098401	-0.055379
H224	H	0.326134	0.401599	0.444621
H225	H	-1.066676	0.286883	0.068854
H226	H	-0.566676	0.786883	0.568854
H227	H	-0.323478	-0.100785	-0.045727
H228	H	0.176522	0.399215	0.454273
H229	H	-1.060062	0.684196	0.068437
H230	H	-0.560062	1.184196	0.568437
H231	H	-1.062446	0.540985	0.068597
H232	H	-0.562446	1.040985	0.568597
