data_functionalizedCrystal
_audit_creation_method	'MofGen! by Chris Wilmer'
_symmetry_space_group_name_H-M	'P1'
_symmetry_Int_Tables_number	1
_symmetry_cell_setting	triclinic
loop_
_symmetry_equiv_pos_as_xyz
  x,y,z
_cell_length_a	18.215405
_cell_length_b	18.215407
_cell_length_c	18.215399
_cell_angle_alpha	89.983176
_cell_angle_beta	89.970050
_cell_angle_gamma	90.023180
loop_
_atom_site_label
_atom_site_type_symbol
_atom_site_fract_x
_atom_site_fract_y
_atom_site_fract_z
Zn1	Zn	-0.292966	1.125061	-0.416118
Zn2	Zn	0.207034	1.625061	0.083882
Zn3	Zn	-0.416042	1.124981	-0.293053
Zn4	Zn	0.083958	1.624981	0.206947
Zn5	Zn	-0.292995	1.002000	-0.293065
Zn6	Zn	0.207005	1.502000	0.206935
Zn7	Zn	-0.415996	1.001964	-0.416077
Zn8	Zn	0.084004	1.501964	0.083923
O9	O	-0.354500	1.063502	-0.354578
O10	O	0.145500	1.563502	0.145422
O11	O	-0.309299	1.228035	-0.399805
O12	O	0.190701	1.728035	0.100195
O13	O	-0.399751	1.108648	-0.190070
O14	O	0.100249	1.608648	0.309930
O15	O	-0.190007	1.018373	-0.309411
O16	O	0.309993	1.518373	0.190589
O17	O	-0.399723	1.227976	-0.309389
O18	O	0.100277	1.727976	0.190611
O19	O	-0.189985	1.108786	-0.399817
O20	O	0.310015	1.608786	0.100183
O21	O	-0.309349	1.018295	-0.190079
O22	O	0.190651	1.518295	0.309921
O23	O	-0.309304	0.899011	-0.309372
O24	O	0.190696	1.399011	0.190628
O25	O	-0.399644	1.018312	-0.519067
O26	O	0.100356	1.518312	-0.019067
O27	O	-0.399672	0.898985	-0.399748
O28	O	0.100328	1.398985	0.100252
O29	O	-0.309254	1.108751	-0.519097
O30	O	0.190746	1.608751	-0.019097
O31	O	-0.519020	1.108613	-0.309350
O32	O	-0.019020	1.608613	0.190650
O33	O	-0.518986	1.018234	-0.399736
O34	O	-0.018986	1.518234	0.100264
C35	C	-0.354487	0.872295	-0.354557
C36	C	0.145513	1.372295	0.145443
C37	C	-0.354499	0.790496	-0.354566
C38	C	0.145501	1.290496	0.145434
C39	C	-0.545706	1.063431	-0.354553
C40	C	-0.045706	1.563431	0.145447
C41	C	-0.627505	1.063468	-0.354567
C42	C	-0.127505	1.563468	0.145433
C43	C	-0.401628	0.602308	-0.401566
C44	C	0.098372	1.102308	0.098434
C45	C	-0.401630	0.525449	-0.401575
C46	C	0.098370	1.025449	0.098425
C47	C	-0.307384	0.525447	-0.307607
C48	C	0.192616	1.025447	0.192393
C49	C	-0.307379	0.602304	-0.307602
C50	C	0.192621	1.102304	0.192398
C51	C	-0.354505	0.640733	-0.354580
C52	C	0.145495	1.140733	0.145420
C53	C	-0.354513	0.487017	-0.354594
C54	C	0.145487	0.987017	0.145406
C55	C	-0.354515	0.403683	-0.354604
C56	C	0.145485	0.903683	0.145396
C57	C	-0.354502	0.724072	-0.354572
C58	C	0.145498	1.224072	0.145428
C59	C	-0.815626	1.110568	-0.401705
C60	C	-0.315626	1.610568	0.098295
C61	C	-0.892485	1.110595	-0.401719
C62	C	-0.392485	1.610595	0.098281
C63	C	-0.892621	1.016526	-0.307497
C64	C	-0.392621	1.516526	0.192503
C65	C	-0.815763	1.016496	-0.307488
C66	C	-0.315763	1.516496	0.192512
C67	C	-0.777268	1.063521	-0.354590
C68	C	-0.277268	1.563521	0.145410
C69	C	-0.930984	1.063578	-0.354614
C70	C	-0.430984	1.563578	0.145386
C71	C	-1.014318	1.063607	-0.354628
C72	C	-0.514318	1.563607	0.145372
C73	C	-0.693929	1.063492	-0.354577
C74	C	-0.193929	1.563492	0.145423
C75	C	-0.162547	1.063592	-0.354620
C76	C	0.337453	1.563592	0.145380
C77	C	-0.080748	1.063631	-0.354638
C78	C	0.419252	1.563631	0.145362
C79	C	-0.354441	1.063536	-0.546531
C80	C	0.145559	1.563536	-0.046531
C81	C	-0.354416	1.063551	-0.628330
C82	C	0.145584	1.563551	-0.128330
C83	C	-0.354513	1.255454	-0.354600
C84	C	0.145487	1.755454	0.145400
C85	C	-0.354518	1.337253	-0.354609
C86	C	0.145482	1.837253	0.145391
C87	C	-0.307311	1.016544	-0.816530
C88	C	0.192689	1.516544	-0.316530
C89	C	-0.307297	1.016557	-0.893389
C90	C	0.192703	1.516557	-0.393389
C91	C	-0.401432	1.110646	-0.893368
C92	C	0.098568	1.610646	-0.393368
C93	C	-0.401450	1.110629	-0.816511
C94	C	0.098550	1.610629	-0.316511
C95	C	-0.354386	1.063579	-0.778094
C96	C	0.145614	1.563579	-0.278094
C97	C	-0.354353	1.063609	-0.931810
C98	C	0.145647	1.563609	-0.431810
C99	C	-0.354337	1.063623	-1.015144
C100	C	0.145663	1.563623	-0.515144
C101	C	-0.354402	1.063564	-0.694755
C102	C	0.145598	1.563564	-0.194755
C103	C	-0.354505	1.063509	-0.163372
C104	C	0.145495	1.563509	0.336628
C105	C	-0.354323	1.063637	-0.081574
C106	C	0.145677	1.563637	0.418426
H107	H	-0.440002	0.494167	-0.439836
H108	H	0.059998	0.994167	0.060164
H109	H	-0.268965	0.978255	-0.924680
H110	H	0.231035	1.478255	-0.424680
H111	H	-0.269017	0.494149	-0.269358
H112	H	0.230983	0.994149	0.230642
C113	C	-0.452535	1.161619	-0.774642
C114	C	0.047465	1.661619	-0.274642
C115	C	-0.442491	1.151516	-0.699111
C116	C	0.057509	1.651516	-0.199111
C117	C	-0.489544	1.198463	-0.660518
C118	C	0.010456	1.698463	-0.160518
H119	H	-0.441812	1.211105	-0.787152
H120	H	0.058188	1.711105	-0.287152
H121	H	-0.501994	1.150821	-0.787180
H122	H	-0.001994	1.650821	-0.287180
H123	H	-0.393043	1.162319	-0.686578
H124	H	0.106957	1.662319	-0.186578
H125	H	-0.453220	1.102041	-0.686579
H126	H	0.046780	1.602041	-0.186579
H127	H	-0.539004	1.187665	-0.673056
H128	H	-0.039004	1.687665	-0.173056
H129	H	-0.478818	1.247946	-0.673035
H130	H	0.021182	1.747946	-0.173035
H131	H	-0.482741	1.191610	-0.609267
H132	H	0.017259	1.691610	-0.109267
C133	C	-0.256186	0.643896	-0.256505
C134	C	0.243814	1.143896	0.243495
C135	C	-0.214934	0.593794	-0.215346
C136	C	0.285066	1.093794	0.284654
C137	C	-0.167776	0.632081	-0.168266
C138	C	0.332224	1.132081	0.331734
H139	H	-0.224088	0.673901	-0.284630
H140	H	0.275912	1.173901	0.215370
H141	H	-0.284282	0.673842	-0.224351
H142	H	0.215718	1.173842	0.275649
H143	H	-0.186841	0.563861	-0.247496
H144	H	0.313159	1.063861	0.252504
H145	H	-0.247013	0.563787	-0.187206
H146	H	0.252987	1.063787	0.312794
H147	H	-0.195872	0.662027	-0.136112
H148	H	0.304128	1.162027	0.363888
H149	H	-0.135683	0.662085	-0.196397
H150	H	0.364317	1.162085	0.303603
H151	H	-0.139786	0.598093	-0.140329
H152	H	0.360214	1.098093	0.359671
H153	H	-0.784285	1.148858	-0.440060
H154	H	-0.284285	1.648858	0.059940
C155	C	-0.774244	0.965385	-0.256251
C156	C	-0.274244	1.465385	0.243749
C157	C	-0.824405	0.924227	-0.214984
C158	C	-0.324405	1.424227	0.285016
C159	C	-0.786184	0.877144	-0.167776
C160	C	-0.286184	1.377144	0.332224
H161	H	-0.744267	0.933226	-0.284288
H162	H	-0.244267	1.433226	0.215712
H163	H	-0.744275	0.993531	-0.224170
H164	H	-0.244275	1.493531	0.275830
H165	H	-0.854361	0.896083	-0.247061
H166	H	-0.354361	1.396083	0.252939
H167	H	-0.854383	0.956367	-0.186932
H168	H	-0.354383	1.456367	0.313068
H169	H	-0.756215	0.905289	-0.135695
H170	H	-0.256215	1.405289	0.364305
H171	H	-0.756209	0.844989	-0.195819
H172	H	-0.256209	1.344989	0.304181
H173	H	-0.820212	0.849217	-0.139766
H174	H	-0.320212	1.349217	0.360234
C175	C	-0.256194	0.965375	-0.774952
C176	C	0.243806	1.465375	-0.274952
C177	C	-0.214981	0.924171	-0.825067
C178	C	0.285019	1.424171	-0.325067
C179	C	-0.167893	0.877016	-0.786795
C180	C	0.332107	1.377016	-0.286795
H181	H	-0.224069	0.993448	-0.744977
H182	H	0.275931	1.493448	-0.244977
H183	H	-0.284339	0.933252	-0.744976
H184	H	0.215661	1.433252	-0.244976
H185	H	-0.186839	0.956290	-0.855030
H186	H	0.313161	1.456290	-0.355030
H187	H	-0.247087	0.896083	-0.855043
H188	H	0.252913	1.396083	-0.355043
H189	H	-0.196038	0.844893	-0.756819
H190	H	0.303962	1.344893	-0.256819
H191	H	-0.135773	0.905095	-0.756822
H192	H	0.364227	1.405095	-0.256822
H193	H	-0.139929	0.849049	-0.820792
H194	H	0.360071	1.349049	-0.320792
C195	C	-0.452694	0.643993	-0.452698
C196	C	0.047306	1.143993	0.047302
C197	C	-0.436741	0.625342	-0.525541
C198	C	0.063259	1.125342	-0.025541
C199	C	-0.483760	0.663732	-0.572668
C200	C	0.016240	1.163732	-0.072668
H201	H	-0.502156	0.631408	-0.441944
H202	H	-0.002156	1.131408	0.058056
H203	H	-0.445938	0.695277	-0.446017
H204	H	0.054062	1.195277	0.053983
H205	H	-0.443504	0.574069	-0.532219
H206	H	0.056496	1.074069	-0.032219
H207	H	-0.387288	0.637928	-0.536318
H208	H	0.112712	1.137928	-0.036318
H209	H	-0.477004	0.715016	-0.565986
H210	H	0.022996	1.215016	-0.065986
H211	H	-0.533220	0.651144	-0.561907
H212	H	-0.033220	1.151144	-0.061907
H213	H	-0.472938	0.651088	-0.622097
H214	H	0.027062	1.151088	-0.122097
H215	H	-0.923713	1.148904	-0.440086
H216	H	-0.423713	1.648904	0.059914
H217	H	-0.923973	0.978241	-0.269147
H218	H	-0.423973	1.478241	0.230853
C219	C	-0.452444	1.161703	-0.935213
C220	C	0.047556	1.661703	-0.435213
C221	C	-0.442340	1.151667	-1.010749
C222	C	0.057660	1.651667	-0.510749
C223	C	-0.489312	1.198697	-1.049317
C224	C	0.010688	1.698697	-0.549317
H225	H	-0.501924	1.150955	-0.922692
H226	H	-0.001924	1.650955	-0.422692
H227	H	-0.441671	1.211168	-0.922665
H228	H	0.058329	1.711168	-0.422665
H229	H	-0.453118	1.102214	-1.023291
H230	H	0.046882	1.602214	-0.523291
H231	H	-0.392870	1.162421	-1.023292
H232	H	0.107130	1.662421	-0.523292
H233	H	-0.478539	1.248162	-1.036769
H234	H	0.021461	1.748162	-0.536769
H235	H	-0.538789	1.187945	-1.036789
H236	H	-0.038789	1.687945	-0.536789
H237	H	-0.482458	1.191899	-1.100571
H238	H	0.017542	1.691899	-0.600571
