data_functionalizedCrystal
_audit_creation_method	'MofGen! by Chris Wilmer'
_symmetry_space_group_name_H-M	'P1'
_symmetry_Int_Tables_number	1
_symmetry_cell_setting	triclinic
loop_
_symmetry_equiv_pos_as_xyz
  x,y,z
_cell_length_a	10.654559
_cell_length_b	8.597304
_cell_length_c	9.730223
_cell_angle_alpha	97.699907
_cell_angle_beta	90.003067
_cell_angle_gamma	84.911587
loop_
_atom_site_label
_atom_site_type_symbol
_atom_site_fract_x
_atom_site_fract_y
_atom_site_fract_z
O1	O	1.669003	0.220521	0.140404
O2	O	1.303638	0.241510	0.142890
O3	O	1.493511	0.002629	0.114600
O4	O	1.479131	0.459402	0.168693
O5	O	1.493498	0.002642	-0.113978
O6	O	1.303626	0.241523	-0.085689
O7	O	1.668991	0.220534	-0.088175
Zn8	Zn	1.486306	0.231031	-0.123223
Zn9	Zn	1.486323	0.231013	0.177938
O10	O	1.479118	0.459415	-0.059885
C11	C	1.256826	0.239972	0.028418
C12	C	1.117359	0.235353	0.027871
C13	C	1.065049	0.090361	0.010697
C14	C	0.934004	0.086030	0.010194
C15	C	0.907589	0.371694	0.044036
C16	C	1.038631	0.376024	0.044548
C17	C	1.080298	-0.074566	-0.008847
C18	C	0.949253	-0.078897	-0.009350
C19	C	1.491960	-0.055852	-0.006612
C20	C	1.487343	-0.230128	-0.027242
C21	C	1.715803	0.222072	0.026300
C22	C	1.855271	0.226692	0.026856
C23	C	1.480669	0.517896	0.061331
C24	C	1.485287	0.692172	0.081969
N25	N	1.486305	0.231042	-0.328758
C26	C	1.563644	0.327123	-0.389319
C27	C	1.563663	0.327093	-0.533206
C28	C	1.408992	0.134898	-0.555958
C29	C	1.408980	0.134921	-0.412075
C30	C	1.652939	0.438090	-0.376184
C31	C	1.652957	0.438060	-0.520071
N32	N	1.486334	0.230990	0.383472
H33	H	0.913350	-0.131432	0.083125
C34	C	1.267298	-0.154130	0.110832
C35	C	1.136232	-0.158466	0.110344
H36	H	1.301826	-0.205933	0.184409
H37	H	1.287167	-0.047652	0.123447
H38	H	1.301787	-0.205892	0.024974
H39	H	1.101741	-0.106693	0.196198
H40	H	1.116352	-0.264964	0.097739
C41	C	1.484866	-0.323953	0.326413
C42	C	1.487684	-0.217659	0.229516
H43	H	1.486339	-0.268275	0.417502
H44	H	1.556217	-0.398994	0.312415
H45	H	1.410118	-0.376658	0.315047
H46	H	1.562438	-0.164962	0.240875
H47	H	1.416327	-0.142590	0.243521
H48	H	1.485556	-0.296937	-0.136541
C49	C	1.256107	-0.055066	-0.449025
C50	C	1.323974	0.029296	-0.345507
H51	H	1.203621	-0.120269	-0.407924
H52	H	1.313128	-0.118709	-0.512659
H53	H	1.205526	0.016572	-0.496680
H54	H	1.374562	-0.042342	-0.297858
H55	H	1.266945	0.092944	-0.281848
H56	H	1.346037	0.056640	-0.623812
H57	H	1.751785	0.399529	-0.341686
C58	C	1.015853	-0.214389	-0.232869
C59	C	0.909123	-0.165939	-0.148794
H60	H	0.991074	-0.268113	-0.318955
H61	H	1.071752	-0.283089	-0.187869
H62	H	1.057105	-0.124815	-0.248822
H63	H	0.867876	-0.255515	-0.132833
H64	H	0.853203	-0.097236	-0.193804
C65	C	1.773893	0.374794	-0.731511
C66	C	1.780294	0.371476	-0.588185
H67	H	1.852500	0.333675	-0.773561
H68	H	1.755331	0.480352	-0.749168
H69	H	1.709518	0.312580	-0.769006
H70	H	1.844663	0.433700	-0.550687
H71	H	1.798871	0.265900	-0.570517
C72	C	1.565945	0.702396	-0.391851
C73	C	1.600424	0.597637	-0.297062
H74	H	1.533531	0.800894	-0.343000
H75	H	1.503214	0.660556	-0.451743
H76	H	1.637718	0.716803	-0.445080
H77	H	1.528649	0.583220	-0.243840
H78	H	1.663160	0.639486	-0.237146
H79	H	1.081216	0.494090	0.058556
H80	H	0.843473	0.486224	0.057614
H81	H	1.622682	0.561831	-0.544487
H82	H	1.125670	-0.124386	-0.113444
