data_functionalizedCrystal
_audit_creation_method	'MofGen! by Chris Wilmer'
_symmetry_space_group_name_H-M	'P1'
_symmetry_Int_Tables_number	1
_symmetry_cell_setting	triclinic
loop_
_symmetry_equiv_pos_as_xyz
  x,y,z
_cell_length_a	15.297327
_cell_length_b	11.169417
_cell_length_c	11.169409
_cell_angle_alpha	89.980176
_cell_angle_beta	80.360209
_cell_angle_gamma	80.292774
loop_
_atom_site_label
_atom_site_type_symbol
_atom_site_fract_x
_atom_site_fract_y
_atom_site_fract_z
Zn1	Zn	-0.359064	-1.752166	0.761131
Zn2	Zn	0.140936	-1.252166	1.261131
Zn3	Zn	-0.509956	-1.717262	0.595155
Zn4	Zn	-0.009956	-1.217262	1.095155
Zn5	Zn	-0.359119	-1.551440	0.560478
Zn6	Zn	0.140881	-1.051440	1.060478
Zn7	Zn	-0.509883	-1.516683	0.795783
Zn8	Zn	-0.009883	-1.016683	1.295783
O9	O	-0.434505	-1.634387	0.678137
O10	O	0.065495	-1.134387	1.178137
O11	O	-0.379088	-1.915484	0.739125
O12	O	0.120912	-1.415484	1.239125
O13	O	-0.490001	-1.695203	0.422618
O14	O	0.009999	-1.195203	0.922618
O15	O	-0.232867	-1.607220	0.558081
O16	O	0.267133	-1.107220	1.058081
O17	O	-0.489948	-1.889840	0.617183
O18	O	0.010052	-1.389840	1.117183
O19	O	-0.232827	-1.754693	0.705500
O20	O	0.267173	-1.254693	1.205500
O21	O	-0.379181	-1.573374	0.397141
O22	O	0.120819	-1.073374	0.897141
O23	O	-0.379110	-1.378881	0.591682
O24	O	0.120890	-0.878881	1.091682
O25	O	-0.489823	-1.547982	0.959124
O26	O	0.010177	-1.047982	1.459124
O27	O	-0.489876	-1.353345	0.764559
O28	O	0.010124	-0.853345	1.264559
O29	O	-0.379016	-1.720991	0.933665
O30	O	0.120984	-1.220991	1.433665
O31	O	-0.636191	-1.661501	0.650783
O32	O	-0.136191	-1.161501	1.150783
O33	O	-0.636137	-1.514136	0.798184
O34	O	-0.136137	-1.014136	1.298184
C35	C	-0.668898	-1.580292	0.732033
C36	C	-0.168898	-1.080292	1.232033
C37	C	-0.769172	-1.557259	0.755130
C38	C	-0.269172	-1.057259	1.255130
C39	C	-0.434492	-1.322566	0.678118
C40	C	0.065508	-0.822566	1.178118
C41	C	-0.434508	-1.189162	0.678144
C42	C	0.065492	-0.689162	1.178144
C43	C	-0.434405	-1.634503	0.991157
C44	C	0.065595	-1.134503	1.491157
C45	C	-0.434362	-1.634552	1.124547
C46	C	0.065638	-1.134552	1.624547
C47	C	-1.051814	-1.799500	0.513469
C48	C	-0.551814	-1.299500	1.013469
C49	C	-0.957602	-1.821139	0.491762
C50	C	-0.457602	-1.321139	0.991762
C51	C	-0.910490	-1.755172	0.557602
C52	C	-0.410490	-1.255172	1.057602
C53	C	-0.957599	-1.667560	0.645153
C54	C	-0.457599	-1.167560	1.145153
C55	C	-1.051821	-1.645911	0.666855
C56	C	-0.551821	-1.145911	1.166855
C57	C	-0.910496	-1.601583	0.710988
C58	C	-0.410496	-1.101583	1.210988
C59	C	-0.957606	-1.513971	0.798539
C60	C	-0.457606	-1.013971	1.298539
C61	C	-1.051818	-1.492327	0.820238
C62	C	-0.551818	-0.992327	1.320238
C63	C	-1.098930	-1.558295	0.754397
C64	C	-0.598930	-1.058295	1.254397
C65	C	-0.816275	-1.623232	0.689286
C66	C	-0.316275	-1.123232	1.189286
C67	C	-0.816281	-1.469643	0.842672
C68	C	-0.316281	-0.969643	1.342672
C69	C	-0.910493	-1.448003	0.864379
C70	C	-0.410493	-0.948003	1.364379
C71	C	-0.199198	-1.688727	0.624057
C72	C	0.300802	-1.188727	1.124057
C73	C	-0.098924	-1.711884	0.601011
C74	C	0.401076	-1.211884	1.101011
C75	C	-0.434520	-1.947426	0.678156
C76	C	0.065480	-1.447426	1.178156
C77	C	-0.434526	-2.080825	0.678165
C78	C	0.065474	-1.580825	1.178165
C79	C	-0.434540	-1.634357	0.366320
C80	C	0.065460	-1.134357	0.866320
C81	C	-0.434329	-1.634599	0.232872
C82	C	0.065671	-1.134599	0.732872
H83	H	-0.777926	-1.694565	0.618002
H84	H	-0.277926	-1.194565	1.118002
H85	H	-1.175646	-1.540684	0.772069
H86	H	-0.675646	-1.040684	1.272069
F87	F	-0.960642	-1.354763	0.957554
F88	F	-0.460642	-0.854763	1.457554
F89	F	-0.766146	-1.399424	0.912742
F90	F	-0.266146	-0.899424	1.412742
F91	F	-1.101953	-1.399077	0.913411
F92	F	-0.601953	-0.899077	1.413411
F93	F	-0.810220	-1.778462	0.534755
F94	F	-0.310220	-1.278462	1.034755
F95	F	-1.101959	-1.869694	0.443405
F96	F	-0.601959	-1.369694	0.943405
H97	H	-0.919249	-1.892471	0.420479
H98	H	-0.419249	-1.392471	0.920479
