data_functionalizedCrystal
_audit_creation_method	'MofGen! by Chris Wilmer'
_symmetry_space_group_name_H-M	'P1'
_symmetry_Int_Tables_number	1
_symmetry_cell_setting	triclinic
loop_
_symmetry_equiv_pos_as_xyz
  x,y,z
_cell_length_a	14.971486
_cell_length_b	13.339070
_cell_length_c	14.048226
_cell_angle_alpha	89.996915
_cell_angle_beta	89.998499
_cell_angle_gamma	99.621712
loop_
_atom_site_label
_atom_site_type_symbol
_atom_site_fract_x
_atom_site_fract_y
_atom_site_fract_z
O1	O	1.219550	0.131873	-0.079045
O2	O	0.963054	0.147665	-0.079070
O3	O	1.061865	-0.007530	-0.079057
O4	O	1.120740	0.287068	-0.079057
O5	O	1.061846	-0.007539	0.079264
O6	O	0.963035	0.147656	0.079251
O7	O	1.219531	0.131864	0.079276
Zn8	Zn	1.091280	0.139758	0.104401
Zn9	Zn	1.091305	0.139770	-0.104194
O10	O	1.120721	0.287059	0.079264
C11	C	0.929545	0.146954	0.000087
C12	C	0.829725	0.144838	0.000077
C13	C	1.051910	-0.045236	0.000101
C14	C	1.022266	-0.157574	0.000094
C15	C	0.795041	0.236011	0.000079
C16	C	0.701248	0.234016	0.000093
C17	C	0.642141	0.140847	0.000099
C18	C	0.676832	0.049667	0.000101
C19	C	0.770623	0.051663	0.000093
C20	C	0.481342	0.045514	0.000114
C21	C	0.387545	0.043518	0.000119
C22	C	0.411968	0.227867	0.000114
C23	C	0.505759	0.229863	0.000106
C24	C	0.540442	0.138682	0.000106
C25	C	1.252762	-0.522088	0.000117
C26	C	1.280617	-0.416541	0.000129
C27	C	1.216032	-0.351794	0.000120
C28	C	1.123587	-0.392604	0.000100
C29	C	1.095729	-0.498161	0.000096
C30	C	1.058999	-0.327867	0.000098
C31	C	0.966554	-0.368677	0.000078
C32	C	0.938701	-0.474224	0.000073
C33	C	1.003286	-0.538970	0.000082
C34	C	1.086856	-0.222311	0.000102
C35	C	0.929823	-0.198383	0.000081
C36	C	0.901968	-0.303930	0.000069
C37	C	1.253040	0.132575	0.000117
C38	C	1.352860	0.134691	0.000121
C39	C	1.130675	0.324765	0.000103
C40	C	1.160319	0.437102	0.000104
N41	N	1.091270	0.139749	0.246761
N42	N	1.091321	0.139771	-0.246555
C43	C	1.135049	0.071057	0.296585
C44	C	1.135055	0.071057	0.396243
C45	C	1.091287	0.139754	0.446075
C46	C	1.047502	0.208449	0.396244
C47	C	1.047491	0.208444	0.296589
C48	C	1.047529	0.208457	0.603959
C49	C	1.047541	0.208463	0.703621
C50	C	1.135094	0.071069	0.703613
C51	C	1.135083	0.071064	0.603957
C52	C	1.091299	0.139761	0.554133
H53	H	0.843160	0.311879	0.000073
H54	H	1.170728	0.015131	0.563384
H55	H	0.673013	0.308258	0.000093
C56	C	0.999373	0.284026	0.549154
H57	H	0.973316	0.324949	0.593104
H58	H	0.953087	0.247558	0.510285
H59	H	1.042021	0.326210	0.510273
C60	C	1.183246	-0.004504	0.758414
H61	H	1.176975	0.005326	0.824903
H62	H	1.245692	0.006597	0.742076
H63	H	1.156762	-0.072061	0.742086
H64	H	0.553882	0.305729	0.000092
H65	H	0.628700	-0.026192	0.000119
C66	C	1.183203	-0.004501	0.241774
H67	H	1.176937	0.005340	0.175286
H68	H	1.156735	-0.072058	0.258112
H69	H	1.245655	0.006616	0.258101
H70	H	1.162125	-0.189094	0.000119
C71	C	0.808776	-0.048627	0.000082
H72	H	0.760143	-0.104401	0.000076
H73	H	0.844860	-0.051687	0.055288
H74	H	0.844852	-0.051673	-0.055140
H75	H	1.011840	0.264379	0.256023
H76	H	1.170703	0.015122	0.436809
C77	C	0.800284	-0.348828	0.000056
H78	H	0.792949	-0.420962	0.000062
H79	H	0.772593	-0.326611	-0.055155
H80	H	0.772582	-0.326623	0.055272
H81	H	1.011859	0.264380	0.436824
C82	C	1.323794	-0.593307	0.000131
H83	H	1.293961	-0.662013	0.000121
H84	H	1.360611	-0.580931	0.055346
H85	H	1.360628	-0.580926	-0.055082
H86	H	0.980611	-0.624916	0.000069
H87	H	0.339422	-0.032348	0.000125
C88	C	0.837016	-0.519117	0.000057
H89	H	0.829676	-0.591252	0.000063
H90	H	0.809329	-0.496898	-0.055157
H91	H	0.809312	-0.496909	0.055270
H92	H	1.011899	0.264403	0.744190
C93	C	0.373824	0.328167	0.000119
H94	H	0.422459	0.383939	0.000103
H95	H	0.337748	0.331223	0.055333
H96	H	0.337741	0.331219	-0.055094
H97	H	1.238717	-0.265854	0.000130
H98	H	1.355886	-0.383322	0.000147
C99	C	0.858774	-0.127173	0.000063
H100	H	0.888605	-0.058466	0.000057
H101	H	0.821937	-0.139554	0.055266
H102	H	0.821961	-0.139552	-0.055161
C103	C	0.519493	-0.054782	0.000102
H104	H	0.470860	-0.110557	0.000094
H105	H	0.555579	-0.057848	0.055305
H106	H	0.555567	-0.057822	-0.055122
