data_functionalizedCrystal
_audit_creation_method	'MofGen! by Chris Wilmer'
_symmetry_space_group_name_H-M	'P1'
_symmetry_Int_Tables_number	1
_symmetry_cell_setting	triclinic
loop_
_symmetry_equiv_pos_as_xyz
  x,y,z
_cell_length_a	18.215407
_cell_length_b	19.077068
_cell_length_c	18.215399
_cell_angle_alpha	87.731836
_cell_angle_beta	90.019833
_cell_angle_gamma	92.327501
loop_
_atom_site_label
_atom_site_type_symbol
_atom_site_fract_x
_atom_site_fract_y
_atom_site_fract_z
Zn1	Zn	1.113288	-0.280200	0.427869
Zn2	Zn	1.108246	-0.397902	0.309739
Zn3	Zn	0.990220	-0.280223	0.304817
Zn4	Zn	0.985238	-0.397863	0.432763
O5	O	1.049248	-0.339047	0.368797
O6	O	1.215603	-0.295821	0.412210
O7	O	1.092565	-0.382318	0.206103
O8	O	1.010740	-0.181729	0.317032
O9	O	1.211899	-0.382295	0.325421
O10	O	1.101157	-0.181712	0.407437
O11	O	1.005851	-0.295860	0.202487
O12	O	0.886575	-0.295822	0.321777
O13	O	1.002249	-0.382229	0.535097
O14	O	0.882915	-0.382251	0.415778
O15	O	1.096327	-0.295783	0.531501
O16	O	1.087734	-0.496388	0.330167
O17	O	0.997361	-0.496359	0.420551
C18	C	0.858042	-0.339035	0.368775
C19	C	0.776243	-0.339047	0.368784
C20	C	1.041480	-0.521911	0.376440
C21	C	1.038224	-0.600141	0.379735
C22	C	0.586159	-0.384121	0.417674
C23	C	0.509301	-0.384124	0.417684
C24	C	0.513088	-0.293986	0.319936
C25	C	0.589945	-0.293980	0.319931
C26	C	0.626479	-0.339052	0.368799
C27	C	0.472763	-0.339060	0.368814
C28	C	0.389429	-0.339062	0.368823
C29	C	0.709818	-0.339050	0.368791
C30	C	1.083783	-0.636886	0.334263
C31	C	1.080725	-0.710391	0.337366
C32	C	1.032104	-0.747151	0.385937
C33	C	0.986542	-0.710401	0.431414
C34	C	0.989604	-0.636897	0.428314
C35	C	1.017899	-0.966985	0.400254
C36	C	1.014839	-1.040495	0.403348
C37	C	1.109023	-1.040479	0.309301
C38	C	1.112078	-0.966974	0.306202
C39	C	1.066520	-0.930231	0.351682
N40	N	1.028975	-0.822285	0.389109
N41	N	1.069652	-0.855098	0.348514
C42	C	1.241200	-0.339060	0.368819
C43	C	1.322999	-0.339065	0.368828
C44	C	1.049295	-0.338999	0.560748
C45	C	1.049315	-0.338978	0.642546
C46	C	1.057067	-0.155469	0.361140
C47	C	1.060398	-0.077239	0.357877
C48	C	1.049246	-0.339045	0.177591
C49	C	1.049377	-0.338867	0.095785
C50	C	1.098320	-0.293923	0.828867
C51	C	1.098329	-0.293903	0.905725
C52	C	1.000366	-0.383924	0.909458
C53	C	1.000354	-0.383940	0.832601
C54	C	1.049335	-0.338941	0.792308
C55	C	1.049357	-0.338904	0.946023
C56	C	1.049367	-0.338882	1.029355
C57	C	1.049324	-0.338962	0.708970
H58	H	0.615903	-0.420820	0.457468
Cl59	Cl	1.159920	-0.237313	0.951682
H60	H	0.476476	-0.420822	0.457484
H61	H	0.483333	-0.257291	0.280148
H62	H	0.975254	-1.070422	0.442914
Cl63	Cl	0.640637	-0.237313	0.258487
Cl64	Cl	0.938798	-0.440495	0.960118
Cl65	Cl	1.144907	-0.590681	0.273194
H66	H	1.117824	-0.740305	0.300338
H67	H	1.151670	-0.937045	0.266652
Cl68	Cl	1.166298	-1.086674	0.252136
H69	H	0.980802	-0.937075	0.437283
H70	H	0.946956	-0.740337	0.470965
Cl71	Cl	0.932329	-0.590704	0.485484
Cl72	Cl	1.159893	-0.237350	0.778215
Cl73	Cl	0.938763	-0.440535	0.786637
