data_functionalizedCrystal
_audit_creation_method	'MofGen! by Chris Wilmer'
_symmetry_space_group_name_H-M	'P1'
_symmetry_Int_Tables_number	1
_symmetry_cell_setting	triclinic
loop_
_symmetry_equiv_pos_as_xyz
  x,y,z
_cell_length_a	17.699083
_cell_length_b	17.038272
_cell_length_c	16.776229
_cell_angle_alpha	89.993292
_cell_angle_beta	89.998886
_cell_angle_gamma	87.197286
loop_
_atom_site_label
_atom_site_type_symbol
_atom_site_fract_x
_atom_site_fract_y
_atom_site_fract_z
O1	O	1.010620	0.098861	-0.066177
O2	O	1.510620	0.598861	0.433823
O3	O	0.791093	0.111723	-0.066203
O4	O	1.291093	0.611723	0.433797
O5	O	0.899552	-0.008521	-0.066184
O6	O	1.399552	0.491479	0.433816
O7	O	0.902161	0.219105	-0.066196
O8	O	1.402161	0.719105	0.433804
O9	O	0.899536	-0.008529	0.066393
O10	O	1.399536	0.491471	0.566393
O11	O	0.791077	0.111716	0.066374
O12	O	1.291077	0.611716	0.566374
O13	O	1.010604	0.098854	0.066400
O14	O	1.510604	0.598854	0.566400
Zn15	Zn	0.900838	0.105283	0.087436
Zn16	Zn	1.400838	0.605283	0.587436
Zn17	Zn	0.900859	0.105293	-0.087239
Zn18	Zn	1.400859	0.605293	0.412761
O19	O	0.902145	0.219098	0.066381
O20	O	1.402145	0.719098	0.566381
C21	C	0.762857	0.111258	0.000082
C22	C	1.262857	0.611258	0.500082
C23	C	0.678748	0.109876	0.000072
C24	C	1.178748	0.609876	0.500072
C25	C	0.634797	0.180457	0.000069
C26	C	1.134797	0.680457	0.500069
C27	C	0.555767	0.179153	0.000079
C28	C	1.055767	0.679153	0.500079
C29	C	0.520690	0.107267	0.000087
C30	C	1.020690	0.607267	0.500087
C31	C	0.564647	0.036681	0.000093
C32	C	1.064647	0.536681	0.500093
C33	C	0.643675	0.037986	0.000089
C34	C	1.143675	0.537986	0.500089
C35	C	0.245935	0.031418	0.000113
C36	C	0.745935	0.531418	0.500113
C37	C	0.166901	0.030119	0.000116
C38	C	0.666901	0.530119	0.500116
C39	C	0.158028	0.172585	0.000104
C40	C	0.658028	0.672585	0.500104
C41	C	0.237056	0.173890	0.000099
C42	C	0.737056	0.673890	0.500099
C43	C	0.281006	0.103304	0.000109
C44	C	0.781006	0.603304	0.500109
C45	C	0.366699	0.104719	0.000100
C46	C	0.866699	0.604719	0.500100
C47	C	0.434999	0.105852	0.000091
C48	C	0.934999	0.605852	0.500091
C49	C	0.897170	-0.037649	0.000104
C50	C	1.397170	0.462351	0.500104
C51	C	0.890090	-0.124431	0.000103
C52	C	1.390090	0.375569	0.500103
C53	C	0.955100	-0.174651	0.000112
C54	C	1.455100	0.325349	0.500112
C55	C	0.948442	-0.256191	0.000103
C56	C	1.448442	0.243809	0.500103
C57	C	0.876773	-0.287509	0.000092
C58	C	1.376773	0.212491	0.500092
C59	C	0.811758	-0.237282	0.000081
C60	C	1.311758	0.262718	0.500081
C61	C	0.818417	-0.155744	0.000084
C62	C	1.318417	0.344256	0.500084
C63	C	0.853251	-0.533228	0.000079
C64	C	1.353251	-0.033228	0.500079
C65	C	0.846597	-0.614773	0.000078
C66	C	1.346597	-0.114773	0.500078
C67	C	0.983282	-0.633676	0.000099
C68	C	1.483282	-0.133676	0.500099
C69	C	0.989934	-0.552135	0.000106
C70	C	1.489934	-0.052135	0.500106
C71	C	0.924919	-0.501916	0.000091
C72	C	1.424919	-0.001916	0.500091
C73	C	0.869967	-0.370855	0.000086
C74	C	1.369967	0.129145	0.500086
C75	C	0.931726	-0.418571	0.000092
C76	C	1.431726	0.081429	0.500092
C77	C	1.038840	0.099318	0.000113
C78	C	1.538840	0.599318	0.500113
C79	C	1.122949	0.100701	0.000118
C80	C	1.622949	0.600701	0.500118
C81	C	0.904526	0.248226	0.000091
C82	C	1.404526	0.748226	0.500091
C83	C	0.911607	0.335007	0.000087
C84	C	1.411607	0.835007	0.500087
N85	N	0.900829	0.105276	0.206647
N86	N	1.400829	0.605276	0.706647
N87	N	0.900873	0.105294	-0.206450
N88	N	1.400873	0.605294	0.293550
C89	C	0.948872	0.052054	0.248373
C90	C	1.448872	0.552054	0.748373
C91	C	0.948876	0.052053	0.331825
C92	C	1.448876	0.552053	0.831825
C93	C	0.900841	0.105279	0.373550
C94	C	1.400841	0.605279	0.873550
C95	C	0.852793	0.158504	0.331819
C96	C	1.352793	0.658504	0.831819
C97	C	0.852785	0.158501	0.248368
C98	C	1.352785	0.658501	0.748368
C99	C	0.852821	0.158520	0.668366
C100	C	1.352821	0.658520	1.168366
C101	C	0.852834	0.158521	0.751823
C102	C	1.352834	0.658521	1.251823
C103	C	0.948912	0.052072	0.751823
C104	C	1.448912	0.552072	1.251823
C105	C	0.948904	0.052069	0.668372
C106	C	1.448904	0.552069	1.168372
C107	C	0.900854	0.105290	0.626648
C108	C	1.400854	0.605290	1.126648
C109	C	0.900849	0.105289	0.536160
C110	C	1.400849	0.605289	1.036160
C111	C	0.900849	0.105285	0.464037
C112	C	1.400849	0.605285	0.964037
H113	H	0.138344	-0.028422	0.000123
H114	H	0.638344	0.471578	0.500123
H115	H	0.813698	0.201856	0.634401
H116	H	1.313698	0.701856	1.134401
H117	H	0.281710	-0.026057	0.000122
H118	H	0.781710	0.473943	0.500122
H119	H	0.536080	-0.021849	0.000112
H120	H	1.036080	0.478151	0.500112
C121	C	1.043869	-0.053147	0.323444
C122	C	1.543869	0.446853	0.823444
C123	C	1.001699	-0.006439	0.377690
C124	C	1.501699	0.493561	0.877690
H125	H	1.076485	-0.089253	0.351760
H126	H	1.576485	0.410747	0.851760
H127	H	1.010562	-0.081238	0.290909
H128	H	1.510562	0.418762	0.790909
H129	H	1.073168	-0.020626	0.290881
H130	H	1.573168	0.479374	0.790881
H131	H	0.972395	-0.038960	0.410249
H132	H	1.472395	0.461040	0.910249
H133	H	1.035010	0.021654	0.410238
H134	H	1.535010	0.521654	0.910238
H135	H	0.800310	-0.492349	0.000066
H136	H	1.300310	0.007651	0.500066
C137	C	0.958395	-0.054396	0.154586
C138	C	1.458395	0.445604	0.654586
C139	C	1.001653	-0.006491	0.202532
C140	C	1.501653	0.493509	0.702532
H141	H	0.990975	-0.090549	0.126291
H142	H	1.490975	0.409451	0.626291
H143	H	0.925077	-0.082434	0.187165
H144	H	1.425077	0.417566	0.687165
H145	H	0.929805	-0.022692	0.117776
H146	H	1.429805	0.477308	0.617776
H147	H	1.030239	-0.038195	0.239346
H148	H	1.530239	0.461805	0.739346
H149	H	1.034984	0.021549	0.169950
H150	H	1.534984	0.521549	0.669950
H151	H	0.813678	0.201839	0.365796
H152	H	1.313678	0.701839	0.865796
C153	C	0.757821	0.263731	0.256744
C154	C	1.257821	0.763731	0.756744
C155	C	0.799979	0.217008	0.202500
C156	C	1.299979	0.717008	0.702500
H157	H	0.725222	0.299853	0.228426
H158	H	1.225222	0.799853	0.728426
H159	H	0.728510	0.231226	0.289300
H160	H	1.228510	0.731226	0.789300
H161	H	0.791142	0.291811	0.289286
H162	H	1.291142	0.791811	0.789286
H163	H	0.766658	0.188923	0.169963
H164	H	1.266658	0.688923	0.669963
H165	H	0.829292	0.249517	0.169930
H166	H	1.329292	0.749517	0.669930
H167	H	0.988022	0.008730	0.634402
H168	H	1.488022	0.508730	1.134402
H169	H	0.663351	0.238994	0.000061
H170	H	1.163351	0.738994	0.500061
H171	H	0.679459	-0.019489	0.000091
H172	H	1.179459	0.480511	0.500091
C173	C	0.554934	0.320109	0.000055
C174	C	1.054934	0.820109	0.500055
C175	C	0.507457	0.256738	0.000071
C176	C	1.007457	0.756738	0.500071
H177	H	0.525108	0.368008	0.000047
H178	H	1.025108	0.868008	0.500047
H179	H	0.585944	0.317654	0.046282
H180	H	1.085944	0.817654	0.546282
H181	H	0.585941	0.317647	-0.046183
H182	H	1.085941	0.817647	0.453817
H183	H	0.476454	0.259196	0.046313
H184	H	0.976454	0.759196	0.546313
H185	H	0.476434	0.259193	-0.046160
H186	H	0.976434	0.759193	0.453840
C187	C	0.958501	-0.054352	0.845679
C188	C	1.458501	0.445648	1.345679
C189	C	1.001723	-0.006440	0.797689
C190	C	1.501723	0.493560	1.297689
H191	H	0.991104	-0.090475	0.873989
H192	H	1.491104	0.409525	1.373989
H193	H	0.929901	-0.022654	0.882468
H194	H	1.429901	0.477346	1.382468
H195	H	0.925192	-0.082430	0.813121
H196	H	1.425192	0.417570	1.313121
H197	H	1.035027	0.021642	0.830248
H198	H	1.535027	0.521642	1.330248
H199	H	1.030335	-0.038142	0.760896
H200	H	1.530335	0.461858	1.260896
C201	C	0.757840	0.263734	0.743444
C202	C	1.257840	0.763734	1.243444
C203	C	0.800022	0.217024	0.797689
C204	C	1.300022	0.717024	1.297689
H205	H	0.725235	0.299845	0.771762
H206	H	1.225235	0.799845	1.271762
H207	H	0.791140	0.291820	0.710888
H208	H	1.291140	0.791820	1.210888
H209	H	0.728527	0.231214	0.710903
H210	H	1.228527	0.731214	1.210903
H211	H	0.829339	0.249544	0.830226
H212	H	1.329339	0.749544	1.330226
H213	H	0.766718	0.188937	0.830259
H214	H	1.266718	0.688937	1.330259
H215	H	0.990079	-0.393068	0.000083
H216	H	1.490079	0.106932	0.500083
H217	H	0.265612	0.232426	0.000089
H218	H	0.765612	0.732426	0.500089
H219	H	1.001381	-0.297077	0.000112
H220	H	1.501381	0.202923	0.500112
C221	C	0.063998	0.253777	-0.068045
C222	C	0.563998	0.753777	0.431955
C223	C	0.109714	0.250176	0.000102
C224	C	0.609714	0.750176	0.500102
H225	H	0.034170	0.301675	-0.068044
H226	H	0.534170	0.801675	0.431956
H227	H	0.095009	0.251327	-0.114271
H228	H	0.595009	0.751327	0.385729
H229	H	0.031800	0.210775	-0.068028
H230	H	0.531800	0.710775	0.431972
H231	H	0.141916	0.293175	0.000082
H232	H	0.641916	0.793175	0.500082
H233	H	0.078700	0.252634	0.046340
H234	H	0.578700	0.752634	0.546340
C235	C	1.073655	-0.165650	-0.068032
C236	C	1.573655	0.334350	0.431968
C237	C	1.033880	-0.140227	0.000120
C238	C	1.533880	0.359773	0.500120
H239	H	1.122289	-0.144395	-0.068030
H240	H	1.622289	0.355605	0.431970
H241	H	1.078993	-0.221391	-0.068026
H242	H	1.578993	0.278609	0.431974
H243	H	1.046661	-0.148391	-0.114260
H244	H	1.546661	0.351609	0.385740
H245	H	1.060871	-0.157491	0.046348
H246	H	1.560871	0.342509	0.546348
H247	H	1.028545	-0.084474	0.000121
H248	H	1.528545	0.415526	0.500121
C249	C	1.124372	-0.579013	0.000126
C250	C	1.624372	-0.079013	0.500126
C251	C	1.068715	-0.517713	0.000120
C252	C	1.568715	-0.017713	0.500120
H253	H	1.173008	-0.557761	0.000133
H254	H	1.673008	-0.057761	0.500133
H255	H	1.118924	-0.610429	0.046352
H256	H	1.618924	-0.110429	0.546352
H257	H	1.118938	-0.610416	-0.046113
H258	H	1.618938	-0.110416	0.453887
H259	H	1.074146	-0.486314	0.046362
H260	H	1.574146	0.013686	0.546362
H261	H	1.074166	-0.486284	-0.046111
H262	H	1.574166	0.013716	0.453889
C263	C	0.712152	-0.587901	0.000033
C264	C	1.212152	-0.087901	0.500033
C265	C	0.767813	-0.649199	0.000053
C266	C	1.267813	-0.149199	0.500053
H267	H	0.663518	-0.609157	0.000012
H268	H	1.163518	-0.109157	0.500012
H269	H	0.717574	-0.556498	0.046265
H270	H	1.217574	-0.056498	0.546265
H271	H	0.717609	-0.556485	-0.046200
H272	H	1.217609	-0.056485	0.453800
H273	H	0.762359	-0.680612	0.046290
H274	H	1.262359	-0.180612	0.546290
H275	H	0.762387	-0.680615	-0.046183
H276	H	1.262387	-0.180615	0.453817
C277	C	0.740860	-0.353879	0.000078
C278	C	1.240860	0.146121	0.500078
C279	C	0.732978	-0.271705	0.000072
C280	C	1.232978	0.228295	0.500072
H281	H	0.692222	-0.375127	0.000079
H282	H	1.192222	0.124873	0.500079
H283	H	0.767848	-0.371117	-0.046149
H284	H	1.267848	0.128883	0.453851
H285	H	0.767846	-0.371122	0.046316
H286	H	1.267846	0.128878	0.546316
H287	H	0.705997	-0.254461	-0.046170
H288	H	1.205997	0.245539	0.453830
H289	H	0.705978	-0.254460	0.046303
H290	H	1.205978	0.245540	0.546303
H291	H	1.036213	-0.674572	0.000110
H292	H	1.536213	-0.174572	0.500110
C293	C	0.682642	-0.145244	0.000069
C294	C	1.182642	0.354756	0.500069
C295	C	0.746955	-0.100539	0.000077
C296	C	1.246955	0.399461	0.500077
H297	H	0.638525	-0.111162	0.000067
H298	H	1.138525	0.388838	0.500067
H299	H	0.682895	-0.177434	-0.046160
H300	H	1.182895	0.322566	0.453840
H301	H	0.682886	-0.177447	0.046306
H302	H	1.182886	0.322553	0.546306
H303	H	0.746715	-0.068340	-0.046163
H304	H	1.246715	0.431660	0.453837
H305	H	0.746702	-0.068335	0.046310
H306	H	1.246702	0.431665	0.546310
H307	H	0.811613	-0.396363	0.000079
H308	H	1.311613	0.103637	0.500079
