data_functionalizedCrystal
_audit_creation_method	'MofGen! by Chris Wilmer'
_symmetry_space_group_name_H-M	'P1'
_symmetry_Int_Tables_number	1
_symmetry_cell_setting	triclinic
loop_
_symmetry_equiv_pos_as_xyz
  x,y,z
_cell_length_a	12.784905
_cell_length_b	12.811415
_cell_length_c	9.798715
_cell_angle_alpha	84.565994
_cell_angle_beta	89.995828
_cell_angle_gamma	78.600455
loop_
_atom_site_label
_atom_site_type_symbol
_atom_site_fract_x
_atom_site_fract_y
_atom_site_fract_z
O1	O	1.410343	0.006571	-0.114312
O2	O	1.101087	0.051503	-0.119873
O3	O	1.263495	-0.124465	-0.098089
O4	O	1.247935	0.182539	-0.136097
O5	O	1.263483	-0.124465	0.128894
O6	O	1.101075	0.051504	0.107109
O7	O	1.410331	0.006572	0.112670
Zn8	Zn	1.255701	0.029038	0.145928
Zn9	Zn	1.255717	0.029037	-0.153131
O10	O	1.247923	0.182540	0.090885
C11	C	1.061494	0.054425	-0.006744
C12	C	0.943539	0.063120	-0.007820
C13	C	0.746371	-0.114026	0.014087
C14	C	0.635542	-0.105861	0.013076
C15	C	0.611051	0.087613	-0.010861
C16	C	0.721880	0.079448	-0.009851
C17	C	0.789536	-0.021375	0.002626
C18	C	0.900367	-0.029538	0.003646
C19	C	0.875874	0.163935	-0.020301
C20	C	0.765045	0.172100	-0.021312
C21	C	1.262617	-0.163490	0.020231
C22	C	1.260005	-0.279769	0.034618
C23	C	1.255092	-0.498259	-0.185832
C24	C	1.252639	-0.607514	-0.172320
C25	C	1.252637	-0.607535	0.075151
C26	C	1.255090	-0.498280	0.061640
C27	C	1.256320	-0.443646	-0.068856
C28	C	1.258781	-0.334390	-0.082366
C29	C	1.258771	-0.334412	0.165104
C30	C	1.256318	-0.443667	0.178615
C31	C	1.449923	0.003649	-0.000462
C32	C	1.567879	-0.005046	0.000605
C33	C	1.248801	0.221564	-0.027437
C34	C	1.251412	0.337844	-0.041833
N35	N	1.255698	0.029037	0.350028
N36	N	1.255728	0.029028	-0.357230
C37	C	1.323890	-0.045143	0.426988
C38	C	1.323907	-0.045148	0.584151
H39	H	0.801459	-0.196120	0.024255
N40	N	1.251334	-0.666432	-0.298478
H41	H	1.316104	-0.726270	-0.296571
H42	H	1.184495	-0.697187	-0.300107
N43	N	1.251331	-0.666474	0.215890
H44	H	1.249597	-0.743975	0.206692
H45	H	1.317557	-0.661892	0.269326
H46	H	1.382256	-0.108651	0.376527
N47	N	1.178380	0.113152	0.555168
H48	H	1.132882	0.162651	0.615889
H49	H	1.219433	0.155664	0.490607
N50	N	1.255006	-0.502599	0.319357
H51	H	1.253270	-0.580100	0.310170
H52	H	1.321228	-0.498014	0.372797
N53	N	0.973340	-0.138278	0.017089
H54	H	1.050101	-0.129395	0.015994
H55	H	0.959310	-0.179101	0.106282
H56	H	0.911029	0.239379	-0.029627
N57	N	0.588983	-0.205791	0.025433
H58	H	0.648664	-0.270897	0.033489
H59	H	0.543529	-0.206623	0.109681
H60	H	1.197325	0.092538	0.400491
N61	N	1.260104	-0.275511	0.291282
H62	H	1.261849	-0.198009	0.262926
H63	H	1.193891	-0.280097	0.345889
H64	H	0.555946	0.169697	-0.021037
N65	N	0.692070	0.280839	-0.034775
H66	H	0.615310	0.271954	-0.033679
H67	H	0.706090	0.321649	0.044324
H68	H	1.382293	-0.108653	0.650298
N69	N	1.260113	-0.275461	-0.223106
H70	H	1.258960	-0.326640	-0.295158
H71	H	1.195347	-0.215616	-0.235893
H72	H	1.256103	-0.453777	-0.292086
