data_functionalizedCrystal
_audit_creation_method	'MofGen! by Chris Wilmer'
_symmetry_space_group_name_H-M	'P1'
_symmetry_Int_Tables_number	1
_symmetry_cell_setting	triclinic
loop_
_symmetry_equiv_pos_as_xyz
  x,y,z
_cell_length_a	13.897447
_cell_length_b	19.077241
_cell_length_c	13.897441
_cell_angle_alpha	87.675400
_cell_angle_beta	90.029327
_cell_angle_gamma	87.688469
loop_
_atom_site_label
_atom_site_type_symbol
_atom_site_fract_x
_atom_site_fract_y
_atom_site_fract_z
Zn1	Zn	-0.324880	-1.076050	0.604799
Zn2	Zn	0.175120	-0.576050	1.104799
Zn3	Zn	-0.486206	-1.075969	0.443500
Zn4	Zn	0.013794	-0.575969	0.943500
Zn5	Zn	-0.331388	-0.958345	0.437019
Zn6	Zn	0.168612	-0.458345	0.937019
Zn7	Zn	-0.492601	-0.958327	0.598257
Zn8	Zn	0.007399	-0.458327	1.098257
O9	O	-0.408769	-1.017173	0.520894
O10	O	0.091231	-0.517173	1.020894
O11	O	-0.340881	-1.174532	0.588852
O12	O	0.159119	-0.674532	1.088852
O13	O	-0.465717	-1.060339	0.307657
O14	O	0.034283	-0.560339	0.807657
O15	O	-0.195541	-0.974000	0.459301
O16	O	0.304459	-0.474000	0.959301
O17	O	-0.459407	-1.174472	0.470346
O18	O	0.040593	-0.674472	0.970346
O19	O	-0.190760	-1.060477	0.582568
O20	O	0.309240	-0.560477	1.082568
O21	O	-0.351972	-0.973921	0.302895
O22	O	0.148028	-0.473921	0.802895
O23	O	-0.358173	-0.859849	0.452957
O24	O	0.141827	-0.359849	0.952957
O25	O	-0.470305	-0.973970	0.734108
O26	O	0.029695	-0.473970	1.234108
O27	O	-0.476615	-0.859837	0.571419
O28	O	0.023385	-0.359837	1.071419
O29	O	-0.347082	-1.060460	0.738914
O30	O	0.152918	-0.560460	1.238914
O31	O	-0.622039	-1.060322	0.464003
O32	O	-0.122039	-0.560322	0.964003
O33	O	-0.626737	-0.973892	0.577703
O34	O	-0.126737	-0.473892	1.077703
C35	C	-0.418795	-0.834305	0.510775
C36	C	0.081205	-0.334305	1.010775
C37	C	-0.423107	-0.756073	0.506470
C38	C	0.076893	-0.256073	1.006470
C39	C	-0.363521	-0.719351	0.566241
C40	C	0.136479	-0.219351	1.066241
C41	C	-0.367568	-0.645844	0.562187
C42	C	0.132432	-0.145844	1.062187
C43	C	-0.431207	-0.609060	0.498366
C44	C	0.068793	-0.109060	0.998366
C45	C	-0.490796	-0.645787	0.438588
C46	C	0.009204	-0.145787	0.938588
C47	C	-0.486743	-0.719293	0.442638
C48	C	0.013257	-0.219293	0.942638
C49	C	-0.449930	-0.389219	0.479623
C50	C	0.050070	0.110781	0.979623
C51	C	-0.453981	-0.315708	0.475579
C52	C	0.046019	0.184292	0.975579
C53	C	-0.330752	-0.315770	0.599177
C54	C	0.169248	0.184230	1.099177
C55	C	-0.326708	-0.389277	0.603226
C56	C	0.173292	0.110723	1.103226
C57	C	-0.386293	-0.425998	0.543444
C58	C	0.113707	0.074002	1.043444
N59	N	-0.435348	-0.533924	0.494223
N60	N	0.064652	-0.033924	0.994223
N61	N	-0.382147	-0.501132	0.547584
N62	N	0.117853	-0.001132	1.047584
C63	C	-0.659386	-1.017115	0.520868
C64	C	-0.159386	-0.517115	1.020868
C65	C	-0.766598	-1.017155	0.520893
C66	C	-0.266598	-0.517155	1.020893
C67	C	-0.853666	-1.017189	0.520917
C68	C	-0.353666	-0.517189	1.020917
C69	C	-0.962896	-1.017239	0.520944
C70	C	-0.462896	-0.517239	1.020944
C71	C	-0.157172	-1.017249	0.520941
C72	C	0.342828	-0.517249	1.020941
C73	C	-0.049956	-1.017282	0.520962
C74	C	0.450044	-0.517282	1.020962
C75	C	-0.408681	-1.017222	0.772490
C76	C	0.091319	-0.517222	1.272490
C77	C	-0.408643	-1.017244	0.879705
C78	C	0.091357	-0.517244	1.379705
C79	C	-0.398699	-0.200754	0.531044
C80	C	0.101301	0.299246	1.031044
C81	C	-0.394395	-0.278986	0.535351
C82	C	0.105605	0.221014	1.035351
C83	C	-0.408785	-1.017163	0.270279
C84	C	0.091215	-0.517163	0.770279
C85	C	-0.408543	-1.017278	0.163072
C86	C	0.091457	-0.517278	0.663072
C87	C	-0.408577	-1.017263	1.076001
C88	C	0.091423	-0.517263	1.576001
C89	C	-0.408617	-1.017250	0.966768
C90	C	0.091383	-0.517250	1.466768
H91	H	-0.274890	-0.419222	0.655199
H92	H	0.225110	0.080778	1.155199
H93	H	-0.319049	-0.615949	0.610861
H94	H	0.180951	-0.115949	1.110861
Br95	Br	-0.567611	-0.769131	0.361515
Br96	Br	-0.067611	-0.269131	0.861515
H97	H	-0.498450	-0.419108	0.430946
H98	H	0.001550	0.080892	0.930946
Br99	Br	-0.577156	-0.595867	0.351965
Br100	Br	-0.077156	-0.095867	0.851965
H101	H	-0.282240	-0.285864	0.647846
H102	H	0.217760	0.214136	1.147846
H103	H	-0.505808	-0.285760	0.423608
H104	H	-0.005808	0.214240	0.923608
Br105	Br	-0.277156	-0.769265	0.652866
Br106	Br	0.222844	-0.269265	1.152866
