data_functionalizedCrystal
_audit_creation_method	'MofGen! by Chris Wilmer'
_symmetry_space_group_name_H-M	'P1'
_symmetry_Int_Tables_number	1
_symmetry_cell_setting	triclinic
loop_
_symmetry_equiv_pos_as_xyz
  x,y,z
_cell_length_a	13.339071
_cell_length_b	13.262508
_cell_length_c	9.130313
_cell_angle_alpha	105.917062
_cell_angle_beta	89.999265
_cell_angle_gamma	99.430290
loop_
_atom_site_label
_atom_site_type_symbol
_atom_site_fract_x
_atom_site_fract_y
_atom_site_fract_z
O1	O	1.344496	0.526826	0.088056
O2	O	1.049677	0.457676	0.060511
O3	O	1.204503	0.341621	0.014283
O4	O	1.189670	0.642882	0.134284
O5	O	1.204501	0.341625	0.257883
O6	O	1.049676	0.457680	0.304111
O7	O	1.344494	0.526830	0.331657
Cu8	Cu	1.197084	0.492255	0.340126
Cu9	Cu	1.197087	0.492251	0.052041
O10	O	1.189668	0.642885	0.377884
C11	C	1.011938	0.445997	0.177658
C12	C	0.899490	0.411180	0.163788
C13	C	0.858334	0.302603	0.120544
C14	C	0.752684	0.269887	0.107505
C15	C	0.688178	0.345744	0.137719
C16	C	0.729333	0.454323	0.180975
C17	C	0.834994	0.487042	0.194004
C18	C	0.664838	0.530183	0.211179
C19	C	0.705993	0.638762	0.254435
C20	C	0.811644	0.671476	0.267463
C21	C	0.876149	0.595619	0.237248
C22	C	0.559177	0.497464	0.198150
C23	C	0.535837	0.681903	0.271610
C24	C	0.641487	0.714619	0.284650
C25	C	1.203671	0.302277	0.120407
C26	C	1.201181	0.185036	0.073697
C27	C	1.194155	-0.145454	0.473191
C28	C	1.196486	-0.035302	0.517079
C29	C	1.197660	0.019788	0.406237
C30	C	1.196503	-0.035286	0.251500
C31	C	1.194163	-0.145451	0.207608
C32	C	1.197669	0.019792	0.140654
C33	C	1.196511	-0.035282	-0.014083
C34	C	1.194173	-0.145436	-0.057967
C35	C	1.192998	-0.200526	0.052874
C36	C	1.200008	0.129957	0.184546
C37	C	1.200017	0.129961	-0.081037
C38	C	1.197686	0.019808	-0.124924
C39	C	1.382233	0.538509	0.214506
C40	C	1.494682	0.573327	0.228366
C41	C	1.190500	0.682229	0.271757
C42	C	1.192990	0.799471	0.318457
N43	N	1.197090	0.492260	0.542751
N44	N	1.197089	0.492240	-0.150586
C45	C	1.265665	0.440900	0.598945
C46	C	1.265662	0.440887	0.752276
C47	C	1.128507	0.543602	0.793210
C48	C	1.128506	0.543608	0.639878
C49	C	1.334249	0.389552	0.501817
C50	C	1.402830	0.338189	0.558010
C51	C	1.402827	0.338175	0.711342
C52	C	1.334244	0.389525	0.808480
H53	H	0.525679	0.409059	0.162931
H54	H	1.072665	0.585429	0.594126
F55	F	1.192927	-0.204049	-0.222653
F56	F	1.190518	-0.317765	0.006172
H57	H	0.675011	0.803026	0.319868
H58	H	0.962180	0.622252	0.247870
H59	H	0.845148	0.759888	0.302662
H60	H	0.719183	0.181482	0.072284
H61	H	1.196742	-0.025049	-0.250913
F62	F	1.334260	0.389567	0.338630
F63	F	1.055523	0.598251	0.896595
H64	H	1.458663	0.296374	0.478910
H65	H	1.200941	0.174786	0.310533
F66	F	1.197703	0.023302	0.681753
F67	F	1.475807	0.283502	0.771140
F68	F	1.201250	0.188583	-0.199012
F69	F	1.334238	0.389496	0.971665
H70	H	0.602153	0.319100	0.127101
H71	H	1.199556	0.109479	0.441980
H72	H	0.910863	0.240852	0.095938
F73	F	1.192888	-0.204093	0.591137
F74	F	0.467190	0.762642	0.303764
