data_functionalizedCrystal
_audit_creation_method	'MofGen! by Chris Wilmer'
_symmetry_space_group_name_H-M	'P1'
_symmetry_Int_Tables_number	1
_symmetry_cell_setting	triclinic
loop_
_symmetry_equiv_pos_as_xyz
  x,y,z
_cell_length_a	12.759401
_cell_length_b	12.759400
_cell_length_c	18.215399
_cell_angle_alpha	90.024546
_cell_angle_beta	90.016569
_cell_angle_gamma	90.013728
loop_
_atom_site_label
_atom_site_type_symbol
_atom_site_fract_x
_atom_site_fract_y
_atom_site_fract_z
Zn1	Zn	1.606235	-0.418304	0.416069
Zn2	Zn	1.606135	-0.594001	0.293010
Zn3	Zn	1.430543	-0.418334	0.293024
Zn4	Zn	1.430525	-0.593938	0.416042
O5	O	1.518360	-0.506144	0.354536
O6	O	1.753243	-0.441624	0.399751
O7	O	1.582808	-0.570737	0.190028
O8	O	1.453898	-0.271309	0.309363
O9	O	1.753169	-0.570708	0.309340
O10	O	1.582978	-0.271287	0.399764
O11	O	1.453801	-0.441675	0.190037
O12	O	1.283520	-0.441615	0.309337
O13	O	1.453868	-0.570601	0.519030
O14	O	1.283507	-0.570630	0.399718
O15	O	1.582961	-0.441563	0.519050
O16	O	1.582791	-0.741014	0.309314
O17	O	1.453772	-0.740968	0.399705
C18	C	1.245392	-0.506120	0.354526
C19	C	1.128616	-0.506134	0.354539
C20	C	1.073785	-0.439047	0.401689
C21	C	0.964061	-0.439067	0.401694
C22	C	0.964008	-0.573271	0.307396
C23	C	1.073730	-0.573245	0.307389
C24	C	1.128670	-0.371937	0.448840
C25	C	1.073839	-0.304845	0.495994
C26	C	0.964115	-0.304865	0.495998
C27	C	0.909222	-0.371977	0.448849
C28	C	1.518297	-0.779112	0.354521
C29	C	1.518367	-0.895888	0.354539
C30	C	1.585622	-0.950740	0.307524
C31	C	1.585686	-1.060464	0.307547
C32	C	1.451232	-1.060476	0.401601
C33	C	1.451173	-0.950754	0.401581
C34	C	1.652815	-0.895874	0.260482
C35	C	1.720075	-0.950726	0.213463
C36	C	1.720140	-1.060450	0.213486
C37	C	1.652944	-1.115322	0.260527
C38	C	1.792393	-0.506170	0.354547
C39	C	1.909169	-0.506181	0.354552
C40	C	1.518424	-0.506072	0.546489
C41	C	1.518451	-0.506041	0.628288
C42	C	1.518451	-0.232111	0.354568
C43	C	1.518490	-0.115334	0.354581
C44	C	1.518356	-0.506141	0.163330
C45	C	1.518533	-0.505876	0.081532
C46	C	1.585694	-0.438788	0.816494
C47	C	1.585706	-0.438758	0.893353
C48	C	1.451282	-0.573132	0.893321
C49	C	1.451265	-0.573156	0.816463
C50	C	1.518477	-0.505986	0.778052
C51	C	1.518506	-0.505931	0.931768
C52	C	1.518520	-0.505898	1.015102
C53	C	1.518463	-0.506017	0.694713
H54	H	1.118375	-0.627873	0.268995
C55	C	0.904449	-0.232195	0.547233
C56	C	0.841461	-0.291786	0.594319
C57	C	0.786475	-0.224880	0.641525
H58	H	0.952735	-0.192202	0.575381
H59	H	0.861572	-0.186387	0.519163
H60	H	0.884334	-0.337576	0.622387
H61	H	0.793156	-0.331777	0.566192
H62	H	0.743598	-0.179072	0.613454
H63	H	0.834768	-0.184891	0.669667
H64	H	0.743724	-0.265302	0.673473
H65	H	1.396524	-1.105162	0.439899
C66	C	0.904224	-0.646100	0.256295
C67	C	0.796398	-0.631784	0.266408
C68	C	0.741294	-0.698870	0.219355
H69	H	0.922048	-0.630698	0.206834
H70	H	0.922152	-0.716728	0.266987
H71	H	0.778477	-0.561172	0.255711
H72	H	0.778543	-0.647194	0.315859
H73	H	0.759222	-0.769499	0.230047
H74	H	0.759126	-0.683462	0.169897
H75	H	0.668129	-0.689173	0.226215
C76	C	1.658803	-0.365762	0.934957
C77	C	1.717674	-0.306965	0.884864
C78	C	1.785034	-0.239717	0.923163
H79	H	1.618753	-0.319876	0.964943
H80	H	1.704629	-0.405922	0.964923
H81	H	1.671854	-0.266808	0.854911
H82	H	1.757746	-0.352823	0.854877
H83	H	1.830860	-0.279877	0.953129
H84	H	1.744975	-0.193838	0.953147
H85	H	1.824992	-0.199822	0.889181
C86	C	1.378207	-0.646105	0.934894
C87	C	1.319318	-0.704940	0.884774
C88	C	1.251982	-0.772169	0.923042
H89	H	1.418275	-0.691968	0.964874
H90	H	1.332392	-0.605929	0.964863
H91	H	1.365127	-0.745113	0.854818
H92	H	1.279228	-0.659105	0.854792
H93	H	1.206166	-0.731993	0.953012
H94	H	1.292058	-0.818024	0.953022
H95	H	1.212010	-0.812089	0.889043
H96	H	1.218013	-0.371913	0.448841
C97	C	1.793203	-0.891211	0.162483
C98	C	1.897158	-0.917778	0.178585
C99	C	1.964554	-0.862967	0.131643
H100	H	1.778014	-0.909214	0.113005
H101	H	1.783605	-0.817998	0.169206
H102	H	1.906752	-0.990975	0.171856
H103	H	1.912380	-0.899772	0.228055
H104	H	1.954956	-0.789754	0.138366
H105	H	1.949356	-0.880974	0.082168
H106	H	2.035095	-0.880977	0.142567
H107	H	1.118540	-0.250199	0.534377
H108	H	0.819877	-0.371966	0.448841
C109	C	1.378047	-0.891382	0.452659
C110	C	1.319192	-0.962912	0.493845
C111	C	1.251814	-0.908258	0.540904
H112	H	1.418083	-0.848519	0.484802
H113	H	1.332211	-0.848659	0.424494
H114	H	1.365022	-1.005618	0.522008
H115	H	1.279134	-1.005778	0.461722
H116	H	1.205979	-0.865534	0.512740
H117	H	1.291859	-0.865396	0.573042
H118	H	1.211867	-0.956782	0.568850
C119	C	1.793363	-1.120021	0.162591
C120	C	1.860724	-1.182850	0.204346
C121	C	1.928230	-1.237711	0.157496
H122	H	1.753412	-1.163001	0.130472
H123	H	1.833429	-1.071629	0.134612
H124	H	1.820662	-1.231236	0.232313
H125	H	1.900697	-1.139896	0.236464
H126	H	1.968296	-1.189319	0.129517
H127	H	1.888271	-1.280685	0.125380
H128	H	1.973948	-1.280339	0.185821
C129	C	1.378454	-0.646180	0.774626
C130	C	1.437912	-0.713516	0.730482
C131	C	1.370875	-0.780783	0.691924
H132	H	1.338408	-0.686287	0.808424
H133	H	1.332701	-0.606023	0.744603
H134	H	1.483647	-0.753669	0.760502
H135	H	1.477956	-0.673438	0.696671
H136	H	1.325122	-0.740626	0.661901
H137	H	1.330833	-0.820882	0.725727
H138	H	1.411207	-0.826472	0.661963
H139	H	1.653011	-1.204667	0.260548
H140	H	1.640419	-0.384091	0.785221
H141	H	1.652767	-0.806532	0.260456
