data_functionalizedCrystal
_audit_creation_method	'MofGen! by Chris Wilmer'
_symmetry_space_group_name_H-M	'P1'
_symmetry_Int_Tables_number	1
_symmetry_cell_setting	triclinic
loop_
_symmetry_equiv_pos_as_xyz
  x,y,z
_cell_length_a	14.044220
_cell_length_b	13.339070
_cell_length_c	13.101050
_cell_angle_alpha	85.723856
_cell_angle_beta	86.339940
_cell_angle_gamma	75.590914
loop_
_atom_site_label
_atom_site_type_symbol
_atom_site_fract_x
_atom_site_fract_y
_atom_site_fract_z
O1	O	1.327240	-0.244587	-0.085093
O2	O	1.660574	0.088746	0.248240
O3	O	1.993907	0.422079	0.581573
O4	O	1.048901	-0.235571	-0.085120
O5	O	1.382235	0.097762	0.248214
O6	O	1.715568	0.431096	0.581547
O7	O	1.156126	-0.089933	-0.085106
O8	O	1.489460	0.243400	0.248227
O9	O	1.822793	0.576734	0.581560
O10	O	1.220015	-0.390225	-0.085107
O11	O	1.553349	-0.056892	0.248227
O12	O	1.886682	0.276441	0.581560
O13	O	1.148438	-0.100403	0.085322
O14	O	1.481771	0.232930	0.418656
O15	O	1.815105	0.566264	0.751989
O16	O	1.041213	-0.246041	0.085309
O17	O	1.374546	0.087292	0.418643
O18	O	1.707880	0.420626	0.751976
O19	O	1.319552	-0.255057	0.085336
O20	O	1.652885	0.078276	0.418669
O21	O	1.986219	0.411609	0.752002
Zn22	Zn	1.179162	-0.252212	0.112382
Zn23	Zn	1.512495	0.081122	0.445715
Zn24	Zn	1.845828	0.414455	0.779048
Zn25	Zn	1.189292	-0.238417	-0.112166
Zn26	Zn	1.522625	0.094916	0.221168
Zn27	Zn	1.855958	0.428250	0.554501
O28	O	1.212327	-0.400695	0.085322
O29	O	1.545660	-0.067362	0.418656
O30	O	1.878994	0.265971	0.751989
C31	C	1.008705	-0.236860	0.000091
C32	C	1.342038	0.096473	0.333425
C33	C	1.675372	0.429807	0.666758
C34	C	0.900384	-0.225089	0.000081
C35	C	1.233717	0.108245	0.333414
C36	C	1.567051	0.441578	0.666748
C37	C	1.141490	-0.056505	0.000106
C38	C	1.474823	0.276828	0.333439
C39	C	1.808157	0.610162	0.666772
C40	C	1.109322	0.058700	0.000098
C41	C	1.442655	0.392034	0.333432
C42	C	1.775988	0.725367	0.666765
N43	N	1.172255	-0.261626	0.265629
N44	N	1.505589	0.071707	0.598963
N45	N	1.838922	0.405041	0.932296
C46	C	0.702062	-0.203571	0.000101
C47	C	1.035396	0.129762	0.333435
C48	C	1.368729	0.463096	0.666768
C49	C	0.666384	-0.287052	0.000106
C50	C	0.999718	0.046281	0.333439
C51	C	1.333051	0.379614	0.666772
C52	C	0.556031	-0.275080	0.000117
C53	C	0.889365	0.058254	0.333450
C54	C	1.222698	0.391587	0.666784
C55	C	0.812425	-0.215542	0.000090
C56	C	1.145758	0.117791	0.333423
C57	C	1.479092	0.451124	0.666757
C58	C	1.359748	-0.253769	0.000122
C59	C	1.693082	0.079565	0.333456
C60	C	2.026415	0.412898	0.666789
C61	C	1.468069	-0.265539	0.000126
C62	C	1.801403	0.067794	0.333459
C63	C	2.134736	0.401127	0.666793
C64	C	1.226963	-0.434124	0.000108
C65	C	1.560296	-0.100790	0.333441
C66	C	1.893630	0.232543	0.666775
C67	C	1.259132	-0.549328	0.000109
C68	C	1.592465	-0.215995	0.333442
C69	C	1.925798	0.117338	0.666775
C70	C	1.359447	0.400921	0.000123
C71	C	1.692780	0.734254	0.333456
C72	C	2.026114	1.067587	0.666789
C73	C	1.389674	0.292679	0.000135
C74	C	1.723007	0.626013	0.333468
C75	C	2.056340	0.959346	0.666802
C76	C	1.319588	0.234179	0.000126
C77	C	1.652922	0.567513	0.333459
C78	C	1.986255	0.900846	0.666792
C79	C	1.219271	0.283931	0.000104
C80	C	1.552605	0.617264	0.333438
C81	C	1.885938	0.950598	0.666771
C82	C	1.189041	0.392182	0.000100
C83	C	1.522375	0.725516	0.333433
C84	C	1.855708	1.058849	0.666766
C85	C	1.149182	0.225441	0.000103
C86	C	1.482516	0.558774	0.333436
C87	C	1.815849	0.892108	0.666769
C88	C	1.048865	0.275193	0.000081
C89	C	1.382199	0.608526	0.333415
C90	C	1.715532	0.941859	0.666748
C91	C	1.018641	0.383433	0.000076
C92	C	1.351974	0.716767	0.333409
C93	C	1.685307	1.050100	0.666743
C94	C	1.088726	0.441933	0.000086
C95	C	1.422059	0.775267	0.333419
C96	C	1.755393	1.108600	0.666752
C97	C	1.179412	0.117190	0.000107
C98	C	1.512746	0.450523	0.333440
C99	C	1.846079	0.783856	0.666774
C100	C	1.009007	0.108451	0.000084
C101	C	1.342340	0.441785	0.333418
C102	C	1.675673	0.775118	0.666751
C103	C	0.978780	0.216693	0.000072
C104	C	1.312113	0.550026	0.333405
C105	C	1.645447	0.883359	0.666738
C106	C	1.162861	-0.274444	0.474671
C107	C	1.496195	0.058889	0.808004
C108	C	1.829528	0.392222	1.141337
C109	C	1.205594	-0.216190	0.525552
C110	C	1.538928	0.117143	0.858885
C111	C	1.872261	0.450477	1.192218
C112	C	1.200368	-0.223322	0.641870
C113	C	1.533701	0.110011	0.975203
C114	C	1.867034	0.443344	1.308536
C115	C	1.168087	-0.267313	0.358342
C116	C	1.501421	0.066020	0.691676
C117	C	1.834754	0.399353	1.025009
N118	N	1.196203	-0.229005	0.734587
N119	N	1.529536	0.104328	1.067920
N120	N	1.862869	0.437661	1.401253
H121	H	0.649733	-0.123115	0.000107
H122	H	0.983066	0.210218	0.333440
H123	H	1.316400	0.543551	0.666774
H124	H	1.261091	0.076693	0.000125
H125	H	1.594424	0.410026	0.333458
H126	H	1.927757	0.743359	0.666792
N127	N	1.350462	0.123616	0.000111
N128	N	1.683795	0.456949	0.333444
N129	N	2.017128	0.790283	0.666777
N130	N	1.329164	0.077767	-0.071741
N131	N	1.662497	0.411100	0.261593
N132	N	1.995831	0.744433	0.594926
H133	H	1.350972	-0.000323	-0.071757
H134	H	1.684305	0.333010	0.261576
H135	H	2.017639	0.666344	0.594910
H136	H	1.471351	0.252179	0.000154
H137	H	1.804685	0.585513	0.333487
H138	H	2.138018	0.918846	0.666821
H139	H	1.246106	-0.160961	0.481754
H140	H	1.579439	0.172372	0.815088
H141	H	1.912772	0.505705	1.148421
H142	H	0.936956	0.423937	0.000067
H143	H	1.270289	0.757271	0.333400
H144	H	1.603622	1.090604	0.666733
H145	H	1.416499	0.448560	0.000139
H146	H	1.749832	0.781894	0.333472
H147	H	2.083166	1.115227	0.666806
H148	H	1.122354	-0.329671	0.518463
H149	H	1.455688	0.003662	0.851796
H150	H	1.789021	0.336996	1.185130
H151	H	0.897100	0.257216	0.000055
H152	H	1.230433	0.590549	0.333388
H153	H	1.563767	0.923882	0.666722
H154	H	0.718717	-0.367515	0.000101
H155	H	1.052051	-0.034181	0.333434
H156	H	1.385384	0.299152	0.666767
H157	H	1.064120	0.530073	0.000072
H158	H	1.397454	0.863406	0.333405
H159	H	1.730787	1.196740	0.666738
H160	H	0.951937	0.060820	0.000082
H161	H	1.285270	0.394154	0.333415
H162	H	1.618603	0.727487	0.666748
