data_functionalizedCrystal
_audit_creation_method	'MofGen! by Chris Wilmer'
_symmetry_space_group_name_H-M	'P1'
_symmetry_Int_Tables_number	1
_symmetry_cell_setting	triclinic
loop_
_symmetry_equiv_pos_as_xyz
  x,y,z
_cell_length_a	14.853558
_cell_length_b	14.044190
_cell_length_c	13.930277
_cell_angle_alpha	89.990896
_cell_angle_beta	89.993309
_cell_angle_gamma	88.411455
loop_
_atom_site_label
_atom_site_type_symbol
_atom_site_fract_x
_atom_site_fract_y
_atom_site_fract_z
O1	O	1.206179	0.123725	-0.079830
O2	O	0.944888	0.138478	-0.079836
O3	O	1.071608	-0.006889	-0.079814
O4	O	1.079459	0.269091	-0.079852
O5	O	1.071589	-0.006892	0.079848
O6	O	0.944868	0.138474	0.079826
O7	O	1.206160	0.123722	0.079832
Zn8	Zn	1.075511	0.131097	0.105178
Zn9	Zn	1.075536	0.131102	-0.105183
O10	O	1.079439	0.269088	0.079810
C11	C	0.911236	0.137809	-0.000006
C12	C	0.810994	0.135811	-0.000007
C13	C	0.763910	0.134875	-0.087042
C14	C	0.763886	0.134861	0.087027
C15	C	0.669703	0.132978	0.087029
C16	C	0.622619	0.132042	-0.000006
C17	C	0.669718	0.132989	-0.087043
C18	C	0.622598	0.132021	0.174065
C19	C	0.528409	0.130137	0.174070
C20	C	0.481323	0.129208	0.087034
C21	C	0.528428	0.130157	-0.000007
C22	C	0.481344	0.129221	-0.087042
C23	C	0.528447	0.130176	-0.174084
C24	C	0.622632	0.132061	-0.174079
C25	C	0.387137	0.127324	0.087029
C26	C	0.387152	0.127335	-0.087043
C27	C	1.068164	-0.042209	0.000019
C28	C	1.057920	-0.147448	0.000027
C29	C	1.111846	-0.397666	-0.000009
C30	C	1.039205	-0.340130	-0.000004
C31	C	1.049620	-0.232912	0.000014
C32	C	1.101432	-0.504893	-0.000026
C33	C	1.239811	0.124390	-0.000001
C34	C	1.340053	0.126388	-0.000006
C35	C	1.082883	0.304408	-0.000026
C36	C	1.093128	0.409647	-0.000040
N37	N	1.075500	0.131094	0.248745
N38	N	1.075554	0.131097	-0.248749
C39	C	1.019420	0.195444	0.701004
C40	C	1.131677	0.066751	0.700993
C41	C	1.131666	0.066748	0.600497
C42	C	1.075532	0.131095	0.550250
C43	C	1.019409	0.195445	0.600499
C44	C	1.187794	0.002406	0.550241
C45	C	1.187786	0.002401	0.449739
C46	C	1.131647	0.066744	0.399490
C47	C	1.075521	0.131096	0.449745
C48	C	1.019388	0.195443	0.399498
C49	C	0.963257	0.259791	0.449752
C50	C	0.963270	0.259789	0.550251
C51	C	1.131633	0.066747	0.298991
C52	C	1.019377	0.195444	0.298993
H53	H	0.348823	0.126579	-0.157918
C54	C	1.206421	-0.355440	0.000014
H55	H	1.250632	-0.405637	0.000006
H56	H	1.213476	-0.317335	0.055700
H57	H	1.213505	-0.317300	-0.055662
C58	C	0.944626	-0.382359	-0.000007
H59	H	0.949940	-0.449928	-0.000008
H60	H	0.912798	-0.361592	-0.055679
H61	H	0.912797	-0.361624	0.055684
H62	H	0.973716	0.247833	0.741923
H63	H	1.233501	-0.049979	0.591155
C64	C	0.815675	0.135890	0.182757
H65	H	0.878515	0.137154	0.170292
H66	H	0.802670	0.080344	0.218528
H67	H	0.797803	0.190826	0.218509
H68	H	0.973662	0.247840	0.258089
C69	C	0.476652	0.129155	-0.269819
H70	H	0.518189	0.129991	-0.321658
H71	H	0.437473	0.183656	-0.273429
H72	H	0.442349	0.073175	-0.273435
H73	H	0.660992	0.132837	-0.244944
H74	H	0.917556	0.312187	0.408829
H75	H	0.917571	0.312179	0.591173
H76	H	1.177384	0.014366	0.741907
C77	C	1.249518	-0.068385	0.394469
H78	H	1.282945	-0.106712	0.438789
H79	H	1.289787	-0.034219	0.355242
H80	H	1.213896	-0.107913	0.355286
C81	C	1.193369	-0.004026	0.243717
H82	H	1.226799	-0.042350	0.288036
H83	H	1.233634	0.030147	0.204493
H84	H	1.157753	-0.043558	0.204532
H85	H	0.660941	0.132774	0.244924
C86	C	0.815712	0.135928	-0.182783
H87	H	0.774178	0.135107	-0.234615
H88	H	0.854895	0.081431	-0.186403
H89	H	0.850013	0.191912	-0.186403
C90	C	0.476604	0.129099	0.269809
H91	H	0.518135	0.129933	0.321643
H92	H	0.442290	0.073130	0.273437
H93	H	0.437432	0.183612	0.273419
H94	H	0.348790	0.126555	0.157897
