data_functionalizedCrystal
_audit_creation_method	'MofGen! by Chris Wilmer'
_symmetry_space_group_name_H-M	'P1'
_symmetry_Int_Tables_number	1
_symmetry_cell_setting	triclinic
loop_
_symmetry_equiv_pos_as_xyz
  x,y,z
_cell_length_a	14.044220
_cell_length_b	12.837942
_cell_length_c	11.892095
_cell_angle_alpha	94.302569
_cell_angle_beta	85.750402
_cell_angle_gamma	94.008909
loop_
_atom_site_label
_atom_site_type_symbol
_atom_site_fract_x
_atom_site_fract_y
_atom_site_fract_z
O1	O	1.285971	0.245911	-0.093880
O2	O	1.785971	0.745911	0.406120
O3	O	1.009182	0.236815	-0.093908
O4	O	1.509182	0.736815	0.406092
O5	O	1.141439	0.089893	-0.093888
O6	O	1.641439	0.589893	0.406112
O7	O	1.153714	0.392833	-0.093900
O8	O	1.653714	0.892833	0.406100
O9	O	1.130409	0.102123	0.094118
O10	O	1.630409	0.602123	0.594118
O11	O	0.998153	0.249045	0.094097
O12	O	1.498153	0.749045	0.594097
O13	O	1.274942	0.258141	0.094126
O14	O	1.774942	0.758141	0.594126
Zn15	Zn	1.134796	0.255535	0.123962
Zn16	Zn	1.634796	0.755535	0.623962
Zn17	Zn	1.149328	0.239422	-0.123744
Zn18	Zn	1.649328	0.739422	0.376256
O19	O	1.142685	0.405063	0.094105
O20	O	1.642685	0.905063	0.594105
C21	C	1.131777	0.057004	0.000114
C22	C	1.631777	0.557004	0.500114
C23	C	1.119410	-0.059217	0.000111
C24	C	1.619410	0.440783	0.500111
C25	C	0.967994	0.238949	0.000091
C26	C	1.467994	0.738949	0.500091
C27	C	0.861696	0.227074	0.000080
C28	C	1.361696	0.727074	0.500080
C29	C	1.268090	-0.286428	0.000103
C30	C	1.768090	0.213572	0.500103
C31	C	1.256474	-0.395628	0.000100
C32	C	1.756474	0.104372	0.500100
C33	C	1.084564	-0.386820	0.000094
C34	C	1.584564	0.113180	0.500094
C35	C	1.096180	-0.277620	0.000097
C36	C	1.596180	0.222380	0.500097
C37	C	1.187946	-0.227427	0.000103
C38	C	1.687946	0.272573	0.500103
C39	C	1.199560	-0.118225	0.000114
C40	C	1.699560	0.381775	0.500114
C41	C	1.027652	-0.109419	0.000100
C42	C	1.527652	0.390581	0.500100
C43	C	1.016036	-0.218619	0.000097
C44	C	1.516036	0.281381	0.500097
C45	C	0.667072	0.205367	0.000103
C46	C	1.167072	0.705367	0.500103
C47	C	0.617046	0.289584	0.000104
C48	C	1.117046	0.789584	0.500104
C49	C	0.508751	0.277506	0.000117
C50	C	1.008751	0.777506	0.500117
C51	C	0.775377	0.217443	0.000090
C52	C	1.275377	0.717443	0.500090
C53	C	1.316130	0.256007	0.000124
C54	C	1.816130	0.756007	0.500124
C55	C	1.422428	0.267882	0.000128
C56	C	1.922428	0.767882	0.500128
C57	C	1.152347	0.437952	0.000101
C58	C	1.652347	0.937952	0.500101
C59	C	1.164714	0.554172	0.000097
C60	C	1.664714	1.054172	0.500097
N61	N	1.124886	0.266531	0.293014
N62	N	1.624886	0.766531	0.793014
N63	N	1.159245	0.228418	-0.292797
N64	N	1.659245	0.728418	0.207203
C65	C	1.228200	0.151838	0.529678
C66	C	1.728200	0.651838	1.029678
C67	C	1.221281	0.159533	0.648019
C68	C	1.721281	0.659533	1.148019
C69	C	1.104122	0.289609	0.648039
C70	C	1.604122	0.789609	1.148039
C71	C	1.111042	0.281915	0.529698
C72	C	1.611042	0.781915	1.029698
C73	C	1.173084	0.213028	0.470522
C74	C	1.673084	0.713028	0.970522
C75	C	1.180008	0.205339	0.352179
C76	C	1.680008	0.705339	0.852179
C77	C	1.062846	0.335410	0.352201
C78	C	1.562846	0.835410	0.852201
C79	C	1.055926	0.343104	0.470542
C80	C	1.555926	0.843104	0.970542
H81	H	1.274280	-0.077360	0.000123
H82	H	1.774280	0.422640	0.500123
F83	F	0.667370	0.395682	0.000095
F84	F	1.167370	0.895682	0.500095
H85	H	1.342808	-0.245560	0.000119
H86	H	1.842808	0.254440	0.500119
F87	F	0.986910	-0.440257	0.000059
F88	F	1.486910	0.059743	0.500059
F89	F	0.616749	0.099276	0.000111
F90	F	1.116749	0.599276	0.500111
H91	H	1.230528	0.149251	0.303999
H92	H	1.730528	0.649251	0.803999
F93	F	0.942350	-0.046618	0.000112
F94	F	1.442350	0.453382	0.500112
H95	H	1.278724	0.095756	0.481496
H96	H	1.778724	0.595756	0.981496
H97	H	1.321736	-0.443662	0.000096
H98	H	1.821736	0.056338	0.500096
H99	H	1.266160	0.109705	0.696181
H100	H	1.766160	0.609705	1.196181
H101	H	1.053602	0.345688	0.696235
H102	H	1.553602	0.845688	1.196235
H103	H	1.005410	0.399188	0.518736
H104	H	1.505410	0.899188	1.018736
H105	H	1.017969	0.385238	0.304022
H106	H	1.517969	0.885238	0.804022
H107	H	0.941323	-0.259501	0.000087
H108	H	1.441323	0.240499	0.500087
