data_functionalizedCrystal
_audit_creation_method	'MofGen! by Chris Wilmer'
_symmetry_space_group_name_H-M	'P1'
_symmetry_Int_Tables_number	1
_symmetry_cell_setting	triclinic
loop_
_symmetry_equiv_pos_as_xyz
  x,y,z
_cell_length_a	6.817900
_cell_length_b	10.992421
_cell_length_c	10.992410
_cell_angle_alpha	91.831025
_cell_angle_beta	108.764651
_cell_angle_gamma	108.764763
loop_
_atom_site_label
_atom_site_type_symbol
_atom_site_fract_x
_atom_site_fract_y
_atom_site_fract_z
V1	V	-4.114248	-0.177761	-0.400575
O2	O	-4.072376	0.008542	-0.392968
O3	O	-4.091827	-0.352470	-0.397818
O4	O	-4.091840	-0.175026	-0.575288
O5	O	-4.072363	-0.170129	-0.214270
V6	V	-4.591142	-0.155477	-0.378294
O7	O	-4.390048	-0.226642	-0.449452
O8	O	-4.765539	-0.106595	-0.329417
O9	O	-4.390356	0.019232	-0.381051
O10	O	-4.750411	-0.341780	-0.385901
O11	O	-4.750424	-0.163108	-0.564599
O12	O	-4.390343	-0.158211	-0.203581
C13	C	-3.942307	-0.395060	-0.391494
C14	C	-4.005435	-0.537887	-0.390404
C15	C	-3.873099	-0.733174	-0.381618
C16	C	-3.807017	-0.584530	-0.382242
C17	C	-4.076044	-0.576522	-0.270588
C18	C	-4.140279	-0.725065	-0.269320
C19	C	-4.271785	-0.763647	-0.514935
C20	C	-4.202731	-0.615133	-0.517535
C21	C	-3.942322	-0.168712	-0.617873
C22	C	-4.005457	-0.167632	-0.760702
C23	C	-3.872580	-0.157795	-0.955826
C24	C	-3.807029	-0.159451	-0.807343
C25	C	-4.203473	-0.294312	-0.837793
C26	C	-4.267786	-0.293192	-0.986360
C27	C	-4.145552	-0.047893	-0.948352
C28	C	-4.074843	-0.047293	-0.799340
C29	C	-4.203219	0.061816	-0.387371
C30	C	-4.119331	0.204641	-0.388470
C31	C	-4.203203	-0.164530	-0.160989
C32	C	-4.119306	-0.165603	-0.018159
H33	H	-4.153731	-0.591237	-0.606180
H34	H	-4.216956	-0.045805	-0.766828
H35	H	-4.449788	-0.304208	-1.028990
C36	C	-4.475688	-0.914940	-0.712806
C37	C	-4.263239	-0.830493	-0.637328
H38	H	-4.470386	-0.956212	-0.788355
H39	H	-4.572282	-0.867036	-0.737646
H40	H	-4.528461	-0.978857	-0.663608
H41	H	-4.210473	-0.766570	-0.686523
H42	H	-4.166612	-0.878400	-0.612490
C43	C	-4.597532	-0.717856	-0.524789
C44	C	-4.514570	-0.819148	-0.523408
H45	H	-4.747404	-0.752128	-0.530003
H46	H	-4.588945	-0.675564	-0.597905
H47	H	-4.512529	-0.657192	-0.447383
H48	H	-4.599564	-0.879807	-0.600819
H49	H	-4.523175	-0.861461	-0.450286
C50	C	-4.452057	-0.645861	-0.277963
C51	C	-4.272652	-0.535714	-0.272458
H52	H	-4.573441	-0.620668	-0.279132
H53	H	-4.411131	-0.686914	-0.203930
H54	H	-4.493290	-0.704693	-0.354576
H55	H	-4.231408	-0.476887	-0.195839
H56	H	-4.313583	-0.494642	-0.346498
H57	H	-4.352513	-0.584926	-0.530916
H58	H	-3.847276	-0.779594	-0.466700
H59	H	-3.749849	-0.245200	-0.782519
H60	H	-3.847642	-0.242371	-1.003810
C61	C	-3.836591	0.036854	-1.053307
C62	C	-3.714343	-0.033996	-0.981272
H63	H	-3.738899	0.113279	-1.069029
H64	H	-3.916905	0.060175	-1.005921
H65	H	-3.936851	-0.014839	-1.133835
H66	H	-3.614094	0.017694	-0.900738
H67	H	-3.633992	-0.057315	-1.028657
H68	H	-3.757306	-0.753734	-0.290415
C69	C	-4.463940	-0.424642	-0.747905
C70	C	-4.406480	-0.308590	-0.798907
H71	H	-4.589273	-0.433455	-0.723903
H72	H	-4.343410	-0.423215	-0.673566
H73	H	-4.498143	-0.495962	-0.811668
H74	H	-4.372261	-0.237268	-0.735140
H75	H	-4.527036	-0.310005	-0.873255
H76	H	-3.658574	-0.068362	-0.754011
C77	C	-4.153794	-0.484860	-0.915756
C78	C	-4.141725	-0.414938	-0.803228
H79	H	-4.115681	-0.559331	-0.894416
H80	H	-4.053805	-0.431311	-0.952046
H81	H	-4.300099	-0.511378	-0.977114
H82	H	-3.995415	-0.388412	-0.741874
H83	H	-4.241717	-0.468498	-0.766919
H84	H	-4.252224	-0.382320	-1.032621
C85	C	-3.844176	-0.629215	-0.065833
C86	C	-3.990696	-0.748720	-0.140904
H87	H	-3.751816	-0.643817	0.013441
H88	H	-3.925765	-0.579851	-0.047710
H89	H	-3.755552	-0.582940	-0.112315
H90	H	-4.079332	-0.794992	-0.094426
H91	H	-3.909099	-0.798105	-0.159024
H92	H	-3.931589	0.046420	-0.746991
H93	H	-3.935455	-0.522284	-0.176470
H94	H	-3.658336	-0.532087	-0.290964
H95	H	-4.042638	0.048305	-0.968721
C96	C	-4.395166	0.058625	-1.057524
C97	C	-4.387162	-0.054091	-1.003488
H98	H	-4.544326	0.054792	-1.091560
H99	H	-4.336072	0.064994	-1.125382
H100	H	-4.310554	0.132533	-0.992266
H101	H	-4.471762	-0.127999	-1.068749
H102	H	-4.446286	-0.060473	-0.935624
C103	C	-3.670298	-0.415482	-0.498673
C104	C	-3.730043	-0.549747	-0.497866
H105	H	-3.622833	-0.394022	-0.570078
H106	H	-3.553362	-0.371072	-0.419901
H107	H	-3.794200	-0.390301	-0.506610
H108	H	-3.606136	-0.574927	-0.489920
H109	H	-3.846990	-0.594173	-0.576658
H110	H	-4.316491	-0.765948	-0.269130
