data_functionalizedCrystal
_audit_creation_method	'MofGen! by Chris Wilmer'
_symmetry_space_group_name_H-M	'P1'
_symmetry_Int_Tables_number	1
_symmetry_cell_setting	triclinic
loop_
_symmetry_equiv_pos_as_xyz
  x,y,z
_cell_length_a	12.594517
_cell_length_b	12.759399
_cell_length_c	12.759393
_cell_angle_alpha	90.030906
_cell_angle_beta	89.976057
_cell_angle_gamma	89.985452
loop_
_atom_site_label
_atom_site_type_symbol
_atom_site_fract_x
_atom_site_fract_y
_atom_site_fract_z
Zn1	Zn	1.627292	0.418231	-0.594101
Zn2	Zn	1.627180	0.593947	-0.418420
Zn3	Zn	1.449291	0.418281	-0.418427
Zn4	Zn	1.449281	0.593867	-0.594048
O5	O	1.538261	0.506082	-0.506249
O6	O	1.776223	0.441553	-0.570816
O7	O	1.603540	0.570699	-0.271400
O8	O	1.472954	0.271253	-0.441756
O9	O	1.776141	0.570651	-0.441744
O10	O	1.603730	0.271217	-0.570823
O11	O	1.472845	0.441637	-0.271405
O12	O	1.300344	0.441560	-0.441705
O13	O	1.472937	0.570515	-0.741076
O14	O	1.300337	0.570562	-0.570732
O15	O	1.603721	0.441476	-0.741115
O16	O	1.603531	0.740957	-0.441692
O17	O	1.472829	0.740899	-0.570726
C18	C	1.261720	0.506059	-0.506214
C19	C	1.143415	0.506074	-0.506224
C20	C	1.003371	0.435833	-0.436206
C21	C	1.074232	0.410231	-0.532077
C22	C	1.074125	0.531628	-0.410363
C23	C	1.003490	0.480465	-0.602223
C24	C	1.003377	0.601906	-0.480444
C25	C	1.074206	0.576341	-0.576381
C26	C	1.538196	0.779049	-0.506225
C27	C	1.538265	0.895826	-0.506250
C28	C	1.538341	0.505981	-0.780283
C29	C	1.538375	0.505938	-0.897059
C30	C	1.815882	0.506105	-0.506285
C31	C	1.934187	0.506115	-0.506300
C32	C	1.538356	0.232048	-0.506296
C33	C	1.538396	0.115272	-0.506316
C34	C	1.606399	0.950683	-0.439139
C35	C	1.606468	1.060407	-0.439174
C36	C	1.470259	1.060406	-0.573435
C37	C	1.470196	0.950684	-0.573404
C38	C	1.606479	0.438736	-0.951943
C39	C	1.606497	0.438691	-1.061668
C40	C	1.470303	0.573057	-1.061614
C41	C	1.470281	0.573097	-0.951892
C42	C	1.538243	0.506106	-0.233282
C43	C	1.538415	0.505853	-0.116506
H44	H	0.972231	0.682909	-0.458572
H45	H	1.105156	0.553224	-0.329262
C46	C	0.961751	0.451155	-0.711818
N47	N	0.930310	0.429073	-0.794361
H48	H	1.661951	1.105067	-0.384527
H49	H	1.105110	0.635760	-0.635693
H50	H	1.661827	0.906020	-0.384460
H51	H	1.414838	1.105086	-0.628108
H52	H	1.414713	0.906016	-0.628059
C53	C	1.681374	0.364851	-0.891632
N54	N	1.737784	0.309194	-0.846208
C55	C	1.681420	0.364767	-1.122035
N56	N	1.737855	0.309084	-1.167503
H57	H	1.414815	0.627819	-0.907204
C58	C	0.961345	0.355502	-0.356275
N59	N	0.929687	0.294995	-0.296078
C60	C	1.116282	0.300771	-0.561586
N61	N	1.147951	0.218323	-0.583806
H62	H	1.414866	0.627738	-1.106272
