data_functionalizedCrystal
_audit_creation_method	'MofGen! by Chris Wilmer'
_symmetry_space_group_name_H-M	'P1'
_symmetry_Int_Tables_number	1
_symmetry_cell_setting	triclinic
loop_
_symmetry_equiv_pos_as_xyz
  x,y,z
_cell_length_a	12.759401
_cell_length_b	12.759394
_cell_length_c	12.759401
_cell_angle_alpha	90.008686
_cell_angle_beta	90.003115
_cell_angle_gamma	90.014998
loop_
_atom_site_label
_atom_site_type_symbol
_atom_site_fract_x
_atom_site_fract_y
_atom_site_fract_z
Zn1	Zn	1.606095	-0.418445	0.593976
Zn2	Zn	1.606036	-0.594091	0.418294
Zn3	Zn	1.430444	-0.418427	0.418315
Zn4	Zn	1.430385	-0.594083	0.593935
O5	O	1.518240	-0.506262	0.506130
O6	O	1.753108	-0.441756	0.570679
O7	O	1.582743	-0.570785	0.271275
O8	O	1.453794	-0.271409	0.441643
O9	O	1.753065	-0.570802	0.441606
O10	O	1.582844	-0.271421	0.570700
O11	O	1.453737	-0.441726	0.271291
O12	O	1.283415	-0.441718	0.441603
O13	O	1.453693	-0.570788	0.740961
O14	O	1.283372	-0.570771	0.570631
O15	O	1.582787	-0.441747	0.740991
O16	O	1.582686	-0.741111	0.441567
O17	O	1.453636	-0.741105	0.570610
C18	C	1.245273	-0.506242	0.506116
C19	C	1.128496	-0.506259	0.506134
C20	C	1.073639	-0.573565	0.573208
C21	C	0.963915	-0.573578	0.573219
C22	C	0.963915	-0.438977	0.439075
C23	C	1.073637	-0.438960	0.439070
C24	C	1.073638	-0.651279	0.650652
C25	C	0.963914	-0.651292	0.650663
C26	C	1.518177	-0.779229	0.506104
C27	C	1.518246	-0.896006	0.506129
C28	C	1.652727	-0.895959	0.371857
C29	C	1.719994	-0.950796	0.304733
C30	C	1.720056	-1.060518	0.304762
C31	C	1.652845	-1.115405	0.371923
C32	C	1.585577	-1.060567	0.439047
C33	C	1.585521	-0.950843	0.439009
C34	C	1.451103	-1.060614	0.573322
C35	C	1.451035	-0.950893	0.573290
C36	C	1.383892	-1.115501	0.640484
C37	C	1.316618	-1.060663	0.707604
C38	C	1.316558	-0.950935	0.707572
C39	C	1.383767	-0.896055	0.640414
C40	C	1.792273	-0.506282	0.506145
C41	C	1.909050	-0.506290	0.506151
C42	C	1.518240	-0.506269	0.780163
C43	C	1.518240	-0.506272	0.896940
C44	C	1.518332	-0.232228	0.506178
C45	C	1.518371	-0.115451	0.506199
C46	C	1.585402	-0.573469	0.951791
C47	C	1.585405	-0.573467	1.061515
C48	C	1.451074	-0.439068	1.061527
C49	C	1.451077	-0.439065	0.951805
C50	C	1.662954	-0.651066	0.951785
C51	C	1.662957	-0.651065	1.061509
C52	C	1.518234	-0.506278	1.233162
C53	C	1.518239	-0.506273	1.116386
H54	H	0.934124	-0.732633	0.628730
C55	C	1.767386	-0.611696	1.107508
C56	C	1.856868	-0.577964	1.033879
C57	C	1.961289	-0.538585	1.079881
C58	C	1.976228	-0.532938	1.199512
C59	C	1.886742	-0.566671	1.273148
C60	C	1.782321	-0.606050	1.227146
H61	H	1.845813	-0.582143	0.945315
H62	H	2.027532	-0.513614	1.025370
H63	H	2.053526	-0.503787	1.233565
H64	H	1.897798	-0.562492	1.361712
H65	H	1.716079	-0.631021	1.281657
C66	C	1.623549	-0.755476	0.905775
C67	C	1.589778	-0.844946	0.979397
C68	C	1.550371	-0.949355	0.933386
C69	C	1.544734	-0.964294	0.813754
C70	C	1.578506	-0.874822	0.740126
C71	C	1.617914	-0.770413	0.786136
H72	H	1.593950	-0.833890	1.067962
H73	H	1.525370	-1.015588	0.987891
H74	H	1.515562	-1.041584	0.779694
H75	H	1.574334	-0.885878	0.651561
H76	H	1.642914	-0.704180	0.731631
H77	H	1.652910	-1.204746	0.371950
H78	H	1.774836	-1.105166	0.250109
C79	C	1.633583	-0.760989	1.101791
C80	C	1.701849	-0.856138	1.072642
C81	C	1.672531	-0.966061	1.112954
C82	C	1.574948	-0.980834	1.182416
C83	C	1.506676	-0.885681	1.211570
C84	C	1.535994	-0.775759	1.171257
H85	H	1.774092	-0.845205	1.021218
H86	H	1.723071	-1.036499	1.091373
H87	H	1.553245	-1.062205	1.212258
H88	H	1.434433	-0.896614	1.262993
H89	H	1.485454	-0.705321	1.192839
H90	H	1.774719	-0.906098	0.250053
C91	C	1.133973	-0.364922	0.365283
C92	C	1.118896	-0.245502	0.374063
C93	C	1.179229	-0.171463	0.300268
C94	C	1.254640	-0.216843	0.217693
C95	C	1.269721	-0.336269	0.208910
C96	C	1.209387	-0.410308	0.282705
H97	H	1.063069	-0.211903	0.435193
H98	H	1.168065	-0.083056	0.306770
H99	H	1.299302	-0.162035	0.163066
H100	H	1.325547	-0.369868	0.147780
H101	H	1.220551	-0.498715	0.276202
H102	H	0.919235	-0.384184	0.384474
C103	C	1.113889	-0.622005	0.760620
C104	C	1.183271	-0.699314	0.822034
C105	C	1.223522	-0.670040	0.931999
C106	C	1.194391	-0.563457	0.980551
C107	C	1.125005	-0.486141	0.919136
C108	C	1.084754	-0.515415	0.809171
H109	H	1.204839	-0.778220	0.786094
H110	H	1.274887	-0.727275	0.977462
H111	H	1.224187	-0.541787	1.061953
H112	H	1.103437	-0.407235	0.955077
H113	H	1.033389	-0.458180	0.763709
C114	C	1.119611	-0.755625	0.611101
C115	C	1.045959	-0.845055	0.577214
C116	C	1.091933	-0.949400	0.537663
C117	C	1.211560	-0.964315	0.531998
C118	C	1.285219	-0.874883	0.565886
C119	C	1.239245	-0.770537	0.605438
H120	H	0.957398	-0.834016	0.581407
H121	H	1.037405	-1.015604	0.512576
H122	H	1.245593	-1.041558	0.502719
H123	H	1.373781	-0.885921	0.561694
H124	H	1.293773	-0.704333	0.630524
H125	H	1.261785	-0.906292	0.762236
C126	C	1.242696	-1.121038	0.781477
C127	C	1.242772	-1.241728	0.781520
C128	C	1.168848	-1.302106	0.855395
C129	C	1.094850	-1.241795	0.929228
C130	C	1.094772	-1.121099	0.929188
C131	C	1.168695	-1.060720	0.855313
H132	H	1.297552	-1.286380	0.726862
H133	H	1.168907	-1.391454	0.855424
H134	H	1.040128	-1.286491	0.983915
H135	H	1.039992	-1.076446	0.983846
H136	H	1.168637	-0.971372	0.855284
H137	H	0.929896	-0.622280	0.728015
H138	H	1.652670	-0.806618	0.371813
H139	H	1.383952	-1.204842	0.640507
H140	H	1.383718	-0.806714	0.640374
H141	H	1.396395	-0.384338	0.907149
H142	H	1.396393	-0.384350	1.106212
H143	H	1.744333	-0.629282	0.922020
