data_functionalizedCrystal
_audit_creation_method	'MofGen! by Chris Wilmer'
_symmetry_space_group_name_H-M	'P1'
_symmetry_Int_Tables_number	1
_symmetry_cell_setting	triclinic
loop_
_symmetry_equiv_pos_as_xyz
  x,y,z
_cell_length_a	17.699077
_cell_length_b	15.995292
_cell_length_c	16.776229
_cell_angle_alpha	89.996541
_cell_angle_beta	89.993415
_cell_angle_gamma	83.374596
loop_
_atom_site_label
_atom_site_type_symbol
_atom_site_fract_x
_atom_site_fract_y
_atom_site_fract_z
O1	O	1.004237	0.105864	-0.066272
O2	O	1.337571	0.439198	0.267061
O3	O	1.670904	0.772531	0.600395
O4	O	0.783879	0.119646	-0.066275
O5	O	1.117212	0.452979	0.267058
O6	O	1.450545	0.786312	0.600391
O7	O	0.900105	-0.009148	-0.066275
O8	O	1.233438	0.324185	0.267059
O9	O	1.566771	0.657518	0.600392
O10	O	0.888011	0.234658	-0.066272
O11	O	1.221345	0.567992	0.267061
O12	O	1.554678	0.901325	0.600394
O13	O	0.900089	-0.009156	0.066302
O14	O	1.233423	0.324177	0.399635
O15	O	1.566756	0.657510	0.732968
O16	O	0.783863	0.119638	0.066301
O17	O	1.117197	0.452971	0.399635
O18	O	1.450530	0.786305	0.732968
O19	O	1.004222	0.105856	0.066305
O20	O	1.337555	0.439190	0.399638
O21	O	1.670889	0.772523	0.732971
Zn22	Zn	0.894040	0.112746	0.087352
Zn23	Zn	1.227373	0.446079	0.420686
Zn24	Zn	1.560707	0.779413	0.754019
Zn25	Zn	0.894060	0.112756	-0.087323
Zn26	Zn	1.227394	0.446090	0.246010
Zn27	Zn	1.560727	0.779423	0.579344
O28	O	0.887996	0.234651	0.066304
O29	O	1.221329	0.567984	0.399637
O30	O	1.554663	0.901317	0.732971
C31	C	0.755673	0.119149	0.000013
C32	C	1.089006	0.452482	0.333346
C33	C	1.422340	0.785816	0.666679
C34	C	0.671653	0.117670	0.000011
C35	C	1.004986	0.451003	0.333344
C36	C	1.338319	0.784337	0.666678
C37	C	0.632176	0.116969	0.072279
C38	C	0.965509	0.450302	0.405613
C39	C	1.298843	0.783635	0.738946
C40	C	0.553231	0.115566	0.072280
C41	C	0.886565	0.448899	0.405614
C42	C	1.219898	0.782232	0.738947
C43	C	0.513764	0.114870	0.000012
C44	C	0.847098	0.448203	0.333345
C45	C	1.180431	0.781537	0.666679
C46	C	0.553247	0.115569	-0.072262
C47	C	0.886580	0.448902	0.261071
C48	C	1.219913	0.782235	0.594405
C49	C	0.632191	0.116966	-0.072262
C50	C	0.965524	0.450299	0.261071
C51	C	1.298857	0.783632	0.594405
C52	C	0.234875	0.109934	-0.072264
C53	C	0.568209	0.443267	0.261070
C54	C	0.901542	0.776601	0.594403
C55	C	0.155926	0.108539	-0.072258
C56	C	0.489259	0.441873	0.261075
C57	C	0.822592	0.775206	0.594409
C58	C	0.155916	0.108534	0.072279
C59	C	0.489249	0.441867	0.405612
C60	C	0.822582	0.775201	0.738945
C61	C	0.234860	0.109931	0.072279
C62	C	0.568193	0.443264	0.405612
C63	C	0.901526	0.776598	0.738945
C64	C	0.274336	0.110625	0.000005
C65	C	0.607669	0.443959	0.333339
C66	C	0.941003	0.777292	0.666672
C67	C	0.359937	0.112145	0.000005
C68	C	0.693270	0.445478	0.333339
C69	C	1.026603	0.778812	0.666672
C70	C	0.428164	0.113356	0.000011
C71	C	0.761497	0.446690	0.333344
C72	C	1.094831	0.780023	0.666678
C73	C	0.899605	-0.040347	0.000012
C74	C	1.232938	0.292986	0.333345
C75	C	1.566271	0.626320	0.666678
C76	C	0.898129	-0.133297	0.000006
C77	C	1.231462	0.200037	0.333339
C78	C	1.564796	0.533370	0.666672
C79	C	0.892704	-0.471024	0.000013
C80	C	1.226038	-0.137691	0.333346
C81	C	1.559371	0.195643	0.666679
C82	C	0.976593	-0.447884	0.000310
C83	C	1.309927	-0.114551	0.333643
C84	C	1.643260	0.218782	0.666977
C85	C	0.978188	-0.351212	0.000008
C86	C	1.311521	-0.017879	0.333342
C87	C	1.644854	0.315455	0.666675
C88	C	0.895396	-0.303474	0.000010
C89	C	1.228730	0.029860	0.333343
C90	C	1.562063	0.363193	0.666676
C91	C	0.853465	-0.332484	-0.075696
C92	C	1.186798	0.000849	0.257637
C93	C	1.520131	0.334183	0.590970
C94	C	0.852455	-0.429272	-0.075757
C95	C	1.185788	-0.095939	0.257577
C96	C	1.519121	0.237394	0.590910
C97	C	0.850724	-0.429135	0.075008
C98	C	1.184057	-0.095802	0.408341
C99	C	1.517391	0.237532	0.741674
C100	C	0.853833	-0.332649	0.076005
C101	C	1.187166	0.000685	0.409339
C102	C	1.520499	0.334018	0.742672
C103	C	0.896913	-0.208781	0.000005
C104	C	1.230246	0.124553	0.333338
C105	C	1.563580	0.457886	0.666672
C106	C	0.891185	-0.565717	0.000012
C107	C	1.224518	-0.232383	0.333345
C108	C	1.557852	0.100950	0.666678
C109	C	1.032427	0.106353	0.000015
C110	C	1.365761	0.439687	0.333348
C111	C	1.699094	0.773020	0.666682
C112	C	1.116448	0.107832	0.000011
C113	C	1.449781	0.441166	0.333345
C114	C	1.783115	0.774499	0.666678
C115	C	0.888496	0.265849	0.000016
C116	C	1.221829	0.599182	0.333349
C117	C	1.555163	0.932516	0.666683
C118	C	0.889972	0.358799	0.000017
C119	C	1.223305	0.692132	0.333350
C120	C	1.556638	1.025466	0.666683
N121	N	0.894032	0.112738	0.206564
N122	N	1.227365	0.446072	0.539897
N123	N	1.560698	0.779405	0.873230
N124	N	0.894075	0.112757	-0.206534
N125	N	1.227408	0.446091	0.126799
N126	N	1.560741	0.779424	0.460132
C127	C	0.945512	0.055732	0.248281
C128	C	1.278846	0.389065	0.581614
C129	C	1.612179	0.722398	0.914947
C130	C	0.945517	0.055731	0.331733
C131	C	1.278850	0.389064	0.665066
C132	C	1.612183	0.722398	0.998400
C133	C	0.894043	0.112742	0.373466
C134	C	1.227377	0.446075	0.706800
C135	C	1.560710	0.779408	1.040133
C136	C	0.842557	0.169751	0.331743
C137	C	1.175891	0.503084	0.665077
C138	C	1.509224	0.836418	0.998410
C139	C	0.842550	0.169747	0.248293
C140	C	1.175883	0.503080	0.581626
C141	C	1.509217	0.836414	0.914959
C142	C	0.842585	0.169767	0.668290
C143	C	1.175918	0.503101	1.001624
C144	C	1.509251	0.836434	1.334957
C145	C	0.842597	0.169769	0.751747
C146	C	1.175931	0.503102	1.085080
C147	C	1.509264	0.836435	1.418414
C148	C	0.945551	0.055751	0.751731
C149	C	1.278884	0.389085	1.085064
C150	C	1.612218	0.722418	1.418398
C151	C	0.945544	0.055747	0.668280
C152	C	1.278877	0.389081	1.001614
C153	C	1.612211	0.722414	1.334947
C154	C	0.894056	0.112753	0.626564
C155	C	1.227389	0.446087	0.959898
C156	C	1.560722	0.779420	1.293231
C157	C	0.894051	0.112752	0.536076
C158	C	1.227384	0.446086	0.869409
C159	C	1.560717	0.779419	1.202743
C160	C	0.894051	0.112747	0.463953
C161	C	1.227385	0.446081	0.797287
C162	C	1.560718	0.779414	1.130620
H163	H	0.521107	0.114996	-0.131104
H164	H	0.854440	0.448330	0.202229
H165	H	1.187774	0.781663	0.535563
H166	H	0.987435	0.009311	0.365699
H167	H	1.320769	0.342645	0.699032
H168	H	1.654102	0.675978	1.032366
F169	F	1.000348	-0.004923	0.796134
F170	F	1.333681	0.328410	1.129467
F171	F	1.667015	0.661743	1.462801
H172	H	0.521094	0.114981	0.131128
H173	H	0.854428	0.448314	0.464462
H174	H	1.187761	0.781648	0.797795
F175	F	0.113896	0.107791	0.149199
F176	F	0.447230	0.441125	0.482533
F177	F	0.780563	0.774458	0.815866
H178	H	0.123794	0.107972	-0.131111
H179	H	0.457127	0.441305	0.202222
H180	H	0.790460	0.774639	0.535556
F181	F	0.787771	0.230423	0.376160
F182	F	1.121104	0.563756	0.709493
F183	F	1.454438	0.897090	1.042826
F184	F	0.276859	0.110677	0.149196
F185	F	0.610192	0.444010	0.482530
F186	F	0.943525	0.777343	0.815863
F187	F	0.674205	0.117709	-0.149180
F188	F	1.007538	0.451042	0.184154
F189	F	1.340872	0.784375	0.517487
F190	F	1.021380	-0.327236	-0.071049
F191	F	1.354713	0.006097	0.262284
F192	F	1.688046	0.339430	0.595617
F193	F	1.018851	-0.484569	0.071274
F194	F	1.352185	-0.151235	0.404608
F195	F	1.685518	0.182098	0.737941
F196	F	0.674172	0.117715	0.149199
F197	F	1.007505	0.451048	0.482532
F198	F	1.340839	0.784382	0.815865
H199	H	0.267008	0.110497	-0.131113
H200	H	0.600341	0.443830	0.202220
H201	H	0.933674	0.777163	0.535554
F202	F	0.893736	-0.308463	0.149212
F203	F	1.227069	0.024870	0.482545
F204	F	1.560402	0.358203	0.815879
H205	H	1.011028	-0.332258	0.054276
H206	H	1.344361	0.001076	0.387609
H207	H	1.677695	0.334409	0.720943
H208	H	1.008754	-0.476965	-0.053676
H209	H	1.342088	-0.143632	0.279657
H210	H	1.675421	0.189702	0.612990
F211	F	0.890433	-0.464400	-0.149724
F212	F	1.223766	-0.131067	0.183609
F213	F	1.557100	0.202267	0.516943
H214	H	0.987461	0.009327	0.634303
H215	H	1.320794	0.342660	0.967637
H216	H	1.654127	0.675993	1.300970
H217	H	0.882596	-0.312480	-0.132037
H218	H	1.215929	0.020853	0.201297
H219	H	1.549262	0.354187	0.534630
H220	H	0.790947	-0.443696	-0.079186
H221	H	1.124281	-0.110362	0.254147
H222	H	1.457614	0.222971	0.587481
F223	F	0.773834	-0.290664	-0.079380
F224	F	1.107168	0.042669	0.253954
F225	F	1.440501	0.376002	0.587287
F226	F	0.885022	-0.466194	0.150010
F227	F	1.218355	-0.132861	0.483343
F228	F	1.551688	0.200472	0.816676
F229	F	0.774845	-0.289395	0.081984
F230	F	1.108178	0.043938	0.415317
F231	F	1.441511	0.377271	0.748650
H232	H	0.987431	0.009310	0.214307
H233	H	1.320764	0.342644	0.547640
H234	H	1.654098	0.675977	0.880974
H235	H	0.788976	-0.442998	0.075518
H236	H	1.122309	-0.109665	0.408852
H237	H	1.455642	0.223668	0.742185
F238	F	0.787809	0.230449	0.796161
F239	F	1.121142	0.563783	1.129495
F240	F	1.454476	0.897116	1.462828
H241	H	0.800662	0.216185	0.634332
H242	H	1.133996	0.549518	0.967665
H243	H	1.467329	0.882852	1.300999
H244	H	0.800628	0.216167	0.214327
H245	H	1.133962	0.549500	0.547660
H246	H	1.467295	0.882833	0.880994
