data_functionalizedCrystal
_audit_creation_method	'MofGen! by Chris Wilmer'
_symmetry_space_group_name_H-M	'P1'
_symmetry_Int_Tables_number	1
_symmetry_cell_setting	triclinic
loop_
_symmetry_equiv_pos_as_xyz
  x,y,z
_cell_length_a	14.560438
_cell_length_b	20.919273
_cell_length_c	14.560438
_cell_angle_alpha	58.213855
_cell_angle_beta	60.006412
_cell_angle_gamma	61.856661
loop_
_atom_site_label
_atom_site_type_symbol
_atom_site_fract_x
_atom_site_fract_y
_atom_site_fract_z
Zr1	Zr	0.891367	0.084012	0.878217
O2	O	0.944406	0.186235	0.723493
O3	O	0.742249	0.052677	0.925632
O4	O	0.752815	0.186239	0.915070
O5	O	1.076636	-0.052685	0.742404
O6	O	0.752817	0.186240	1.066208
O7	O	0.933839	0.052673	0.734055
O8	O	0.733915	-0.052679	1.085101
O9	O	1.095537	0.186234	0.723512
O10	O	0.839169	0.039311	1.058666
O11	O	0.945736	-0.039317	0.952105
O12	O	0.958176	0.117935	0.939670
O13	O	1.064742	0.039307	0.833109
Zr14	Zr	1.119113	-0.084020	1.132581
Zr15	Zr	0.891369	0.084014	1.119265
Zr16	Zr	1.119111	-0.084022	0.891534
Zr17	Zr	1.132404	0.084009	0.878247
Zr18	Zr	0.878076	-0.084017	1.132552
O19	O	1.268231	-0.052684	1.085167
O20	O	0.944409	0.186238	1.066232
O21	O	1.268228	-0.052687	0.742428
O22	O	1.066074	-0.186243	1.287305
O23	O	0.742252	0.052679	1.268370
O24	O	1.066071	-0.186246	0.944567
O25	O	0.933844	0.052677	1.268394
O26	O	1.257665	-0.186247	1.095728
O27	O	1.257664	-0.186248	0.944590
O28	O	1.076641	-0.052681	1.276744
O29	O	1.095539	0.186235	0.915112
O30	O	0.914941	-0.186243	1.095686
O31	O	0.914943	-0.186242	1.287287
O32	O	0.733917	-0.052677	1.276702
O33	O	1.276563	0.052669	0.734097
O34	O	1.276565	0.052671	0.925698
O35	O	1.052304	-0.117943	1.071129
O36	O	0.945738	-0.039315	1.177690
O37	O	1.064744	0.039309	1.058694
O38	O	1.171311	-0.039319	0.952132
C39	C	0.703739	-0.000001	1.005362
C40	C	0.601413	0.000000	1.005349
C41	C	0.548766	-0.058042	1.093232
C42	C	0.452594	-0.058048	1.093280
C43	C	0.461723	0.058037	0.917558
C44	C	0.557897	0.058040	0.917506
C45	C	0.592281	-0.116081	1.181075
C46	C	0.539633	-0.174128	1.268965
C47	C	0.443462	-0.174134	1.269013
C48	C	0.399938	-0.116094	1.181171
C49	C	0.988612	-0.210185	1.022019
C50	C	0.982969	-0.281519	1.027660
C51	C	1.063581	-0.315032	0.947059
C52	C	1.058277	-0.382057	0.952357
C53	C	0.972365	-0.415569	1.038263
C54	C	0.891745	-0.382050	1.118869
C55	C	0.897045	-0.315023	1.113564
C56	C	0.952192	-0.617943	1.058439
C57	C	0.946899	-0.684976	1.063740
C58	C	1.113431	-0.684977	0.897226
C59	C	1.118727	-0.617952	0.891934
C60	C	1.038104	-0.584436	0.972535
C61	C	0.966943	-0.484081	1.043683
C62	C	1.043522	-0.515923	0.967109
C63	C	1.306741	-0.000007	1.005436
C64	C	1.409067	-0.000008	1.005449
C65	C	1.005237	-0.000006	0.703885
C66	C	1.005236	-0.000007	0.601554
C67	C	1.021868	0.210177	0.988779
C68	C	1.027511	0.281511	0.983138
C69	C	1.083904	-0.058051	0.558083
C70	C	1.083911	-0.058047	0.461925
C71	C	0.926572	0.058049	0.452720
C72	C	0.926571	0.058047	0.548872
C73	C	1.162570	-0.116106	0.610766
C74	C	1.241244	-0.174155	0.567295
C75	C	1.241250	-0.174151	0.471137
C76	C	1.162583	-0.116097	0.418449
C77	C	1.005243	-0.000002	1.306913
C78	C	1.005244	-0.000001	1.409244
C79	C	0.720367	0.210180	0.988742
C80	C	0.623684	0.281515	0.983088
C81	C	0.703742	0.000001	1.306876
C82	C	0.601417	0.000003	1.409194
C83	C	0.988615	-0.210183	1.323533
C84	C	0.982973	-0.281516	1.431505
C85	C	1.021865	0.210175	0.687265
C86	C	1.027507	0.281508	0.579293
C87	C	1.306738	-0.000009	0.703922
C88	C	1.409063	-0.000011	0.601604
C89	C	1.290113	-0.210188	1.022057
C90	C	1.386796	-0.281523	1.027710
C91	C	0.640401	0.356063	0.918318
C92	C	0.549567	0.423095	0.913011
C93	C	0.442016	0.415579	0.972467
C94	C	0.425300	0.341024	1.037245
C95	C	0.516134	0.273993	1.042558
C96	C	0.924696	-0.273971	1.537844
C97	C	0.919399	-0.340990	1.639304
C98	C	0.972373	-0.415552	1.634422
C99	C	1.030657	-0.423095	1.528072
C100	C	1.035959	-0.356077	1.426615
C101	C	1.085795	0.273963	0.472954
C102	C	1.091122	0.340982	0.371495
C103	C	1.038154	0.415544	0.376376
C104	C	0.979864	0.423087	0.482726
C105	C	0.974544	0.356069	0.584184
C106	C	1.494330	-0.273982	0.968240
C107	C	1.585184	-0.341002	0.973528
C108	C	1.568501	-0.415562	1.038294
C109	C	1.460956	-0.423102	1.097766
C110	C	1.370105	-0.356083	1.092470
C111	C	0.497716	0.041044	1.395138
C112	C	0.401574	0.041048	1.491281
C113	C	0.512847	-0.041035	1.615534
C114	C	0.608987	-0.041034	1.519392
C115	C	0.490146	0.082082	1.284941
C116	C	0.386440	0.123125	1.270879
C117	C	0.290299	0.123129	1.367022
C118	C	0.297862	0.082090	1.477226
H119	H	0.575082	-0.221386	1.340477
Cl120	Cl	1.164400	0.331481	0.237813
Cl121	Cl	0.858101	-0.180244	1.544011
Cl122	Cl	1.515331	-0.180256	0.886811
Cl123	Cl	0.176996	0.082106	1.598090
Cl124	Cl	0.570606	0.516812	0.831565
H125	H	1.188689	-0.590673	0.821983
H126	H	1.162570	-0.116115	0.689065
Cl127	Cl	0.290085	0.331588	1.111974
Cl128	Cl	0.159931	0.174732	1.349343
Cl129	Cl	0.327836	0.499856	0.965772
Cl130	Cl	0.739360	-0.092626	1.537059
H131	H	0.727967	0.362198	0.869895
Cl132	Cl	1.044849	0.499788	0.248818
H133	H	1.282549	-0.362234	1.140905
Cl134	Cl	0.495098	0.180278	1.123973
Cl135	Cl	0.846118	-0.331489	1.772985
H136	H	1.073786	-0.483812	1.524115
Cl137	Cl	1.720371	-0.331505	0.898755
H138	H	0.927074	0.362221	0.670766
H139	H	0.518995	-0.074448	1.705267
Cl140	Cl	0.611005	0.082073	1.164072
H141	H	1.113468	-0.488631	0.897161
Cl142	Cl	1.162606	-0.116091	0.297555
Cl143	Cl	0.965694	-0.499796	1.761980
H144	H	0.862523	0.105314	0.409816
Cl145	Cl	1.171595	-0.272912	0.839061
H146	H	0.600778	0.105292	0.845931
Cl147	Cl	1.159628	-0.424189	0.851030
Cl148	Cl	1.682728	-0.499809	1.044943
H149	H	1.083411	-0.362231	1.340033
Cl150	Cl	0.795698	-0.272889	1.214894
H151	H	0.896996	-0.511376	1.113632
H152	H	0.862513	0.105313	0.584265
H153	H	0.670587	-0.116081	1.181047
H154	H	1.447389	-0.483819	1.150498
Cl155	Cl	0.377286	-0.247111	1.379493
Cl156	Cl	1.152393	0.180236	0.466787
Cl157	Cl	0.376935	0.174722	1.132343
H158	H	0.321634	-0.116108	1.181211
Cl159	Cl	0.407004	0.130998	0.807139
Cl160	Cl	0.913275	0.516828	0.488844
H161	H	1.179068	-0.712273	0.831603
H162	H	0.876935	-0.712259	1.133698
H163	H	1.305316	-0.221412	0.435738
Cl164	Cl	0.783736	-0.424177	1.226861
Cl165	Cl	0.850836	-0.575817	1.159768
Cl166	Cl	1.340143	-0.247127	0.633520
