data_functionalizedCrystal
_audit_creation_method	'MofGen! by Chris Wilmer'
_symmetry_space_group_name_H-M	'P1'
_symmetry_Int_Tables_number	1
_symmetry_cell_setting	triclinic
loop_
_symmetry_equiv_pos_as_xyz
  x,y,z
_cell_length_a	17.699097
_cell_length_b	10.967953
_cell_length_c	16.776229
_cell_angle_alpha	102.123608
_cell_angle_beta	89.989262
_cell_angle_gamma	84.015389
loop_
_atom_site_label
_atom_site_type_symbol
_atom_site_fract_x
_atom_site_fract_y
_atom_site_fract_z
O1	O	1.005064	0.157872	-0.044666
O2	O	1.505064	0.657872	0.455334
O3	O	0.784816	0.178384	-0.041835
O4	O	1.284816	0.678384	0.458165
O5	O	0.900025	-0.013530	-0.068202
O6	O	1.400025	0.486470	0.431798
O7	O	0.889856	0.349786	-0.018299
O8	O	1.389856	0.849786	0.481701
O9	O	0.900009	-0.013542	0.064373
O10	O	1.400009	0.486458	0.564373
O11	O	0.784801	0.178372	0.090740
O12	O	1.284801	0.678372	0.590740
O13	O	1.005049	0.157860	0.087909
O14	O	1.505049	0.657860	0.587909
Zn15	Zn	0.894922	0.168114	0.110374
Zn16	Zn	1.394922	0.668114	0.610374
Zn17	Zn	0.894943	0.168130	-0.064299
Zn18	Zn	1.394943	0.668130	0.435701
O19	O	0.889840	0.349775	0.114276
O20	O	1.389840	0.849775	0.614276
C21	C	0.756607	0.177640	0.024353
C22	C	1.256607	0.677640	0.524353
C23	C	0.672576	0.175427	0.024054
C24	C	1.172576	0.675427	0.524054
C25	C	0.156781	0.161866	-0.050108
C26	C	0.656781	0.661866	0.449892
C27	C	0.235738	0.163937	-0.049820
C28	C	0.735738	0.663937	0.450180
C29	C	0.275202	0.164969	0.022592
C30	C	0.775202	0.664969	0.522592
C31	C	0.235706	0.163916	0.094719
C32	C	0.735706	0.663916	0.594719
C33	C	0.156750	0.161836	0.094429
C34	C	0.656750	0.661836	0.594429
C35	C	0.554122	0.172303	0.095892
C36	C	1.054122	0.672303	0.595892
C37	C	0.633083	0.174387	0.096178
C38	C	1.133083	0.674387	0.596178
C39	C	0.633110	0.174405	-0.048356
C40	C	1.133110	0.674405	0.451644
C41	C	0.554155	0.172325	-0.048647
C42	C	1.054155	0.672325	0.451353
C43	C	0.514666	0.171265	0.023478
C44	C	1.014666	0.671265	0.523478
C45	C	0.429052	0.169017	0.023164
C46	C	0.929052	0.669017	0.523164
C47	C	0.360814	0.167226	0.022908
C48	C	0.860814	0.667226	0.522908
C49	C	0.899279	-0.060022	-0.008301
C50	C	1.399279	0.439978	0.491699
C51	C	0.897070	-0.198535	-0.027331
C52	C	1.397070	0.301465	0.472669
C53	C	0.893790	-0.403456	0.013205
C54	C	1.393790	0.096544	0.513205
C55	C	0.896076	-0.260296	0.032871
C56	C	1.396076	0.239704	0.532871
C57	C	1.033258	0.158604	0.021720
C58	C	1.533258	0.658604	0.521720
C59	C	1.117290	0.160817	0.022013
C60	C	1.617290	0.660817	0.522013
C61	C	0.890587	0.396266	0.054373
C62	C	1.390587	0.896266	0.554373
C63	C	0.892796	0.534779	0.073398
C64	C	1.392796	1.034779	0.573398
N65	N	0.894914	0.168103	0.229583
N66	N	1.394914	0.668103	0.729583
N67	N	0.894957	0.168131	-0.183511
N68	N	1.394957	0.668131	0.316489
C69	C	0.945944	0.083158	0.259630
C70	C	1.445944	0.583158	0.759630
C71	C	0.945948	0.083157	0.343082
C72	C	1.445948	0.583157	0.843082
C73	C	0.894925	0.168108	0.396487
C74	C	1.394925	0.668108	0.896487
C75	C	0.843890	0.253057	0.366435
C76	C	1.343890	0.753057	0.866435
C77	C	0.843883	0.253051	0.282984
C78	C	1.343883	0.753051	0.782984
C79	C	0.843917	0.253081	0.702986
C80	C	1.343917	0.753081	1.202986
C81	C	0.843930	0.253083	0.786442
C82	C	1.343930	0.753083	1.286442
C83	C	0.945983	0.083188	0.763084
C84	C	1.445983	0.583188	1.263084
C85	C	0.945976	0.083182	0.679632
C86	C	1.445976	0.583182	1.179632
C87	C	0.894938	0.168126	0.649587
C88	C	1.394938	0.668126	1.149587
C89	C	0.894933	0.168124	0.559099
C90	C	1.394933	0.668124	1.059099
C91	C	0.894933	0.168116	0.486975
C92	C	1.394933	0.668116	0.986975
H93	H	0.665271	0.175262	-0.107085
H94	H	1.165271	0.675262	0.392915
N95	N	0.675650	0.175503	0.174283
N96	N	1.175650	0.675503	0.674283
H97	H	0.638654	0.174514	0.219931
H98	H	1.138654	0.674514	0.719931
H99	H	0.714147	0.099048	0.166926
H100	H	1.214147	0.599048	0.666926
N101	N	0.511534	0.171163	0.173680
N102	N	1.011534	0.671163	0.673680
H103	H	0.548578	0.171254	0.219474
H104	H	1.048578	0.671254	0.719474
H105	H	0.473404	0.248069	0.187634
H106	H	0.973404	0.748069	0.687634
H107	H	0.267844	0.164748	0.153678
H108	H	0.767844	0.664748	0.653678
N109	N	0.114155	0.160697	0.172217
N110	N	0.614155	0.660697	0.672217
H111	H	0.151200	0.160791	0.218011
H112	H	0.651200	0.660791	0.718011
H113	H	0.076022	0.237597	0.186172
H114	H	0.576022	0.737597	0.686172
N115	N	1.001031	-0.008435	0.795492
N116	N	1.501031	0.491565	1.295492
H117	H	0.971836	-0.063633	0.822546
H118	H	1.471836	0.436367	1.322546
H119	H	1.033342	-0.062158	0.748958
H120	H	1.533342	0.437842	1.248958
H121	H	0.267888	0.164784	-0.108550
H122	H	0.767888	0.664784	0.391450
N123	N	0.788863	0.344690	0.424035
N124	N	1.288863	0.844690	0.924035
H125	H	0.756533	0.398501	0.392335
H126	H	1.256533	0.898501	0.892335
H127	H	0.755163	0.296992	0.452125
H128	H	1.255163	0.796992	0.952125
H129	H	0.892953	-0.456564	-0.052888
H130	H	1.392953	0.043436	0.447112
N131	N	0.897198	-0.189973	0.120426
N132	N	1.397198	0.310027	0.620426
H133	H	0.898674	-0.097674	0.122064
H134	H	1.398674	0.402326	0.622064
H135	H	0.849996	-0.202405	0.150301
H136	H	1.349996	0.297595	0.650301
N137	N	0.895978	-0.268831	-0.114895
N138	N	1.395978	0.231169	0.385105
H139	H	0.848287	-0.312590	-0.124111
H140	H	1.348287	0.187410	0.375889
H141	H	0.896992	-0.207839	-0.152284
H142	H	1.396992	0.292161	0.347716
N143	N	0.114222	0.160740	-0.128215
N144	N	0.614222	0.660740	0.371785
H145	H	0.058212	0.159263	-0.117458
H146	H	0.558212	0.659263	0.382542
H147	H	0.122295	0.238424	-0.149106
H148	H	0.622295	0.738424	0.350894
H149	H	0.893641	-0.412115	0.139491
H150	H	1.393641	0.087885	0.639491
H151	H	0.802378	0.322263	0.829925
H152	H	1.302378	0.822263	1.329925
H153	H	0.987496	0.013987	0.216152
H154	H	1.487496	0.513987	0.716152
H155	H	0.802328	0.322220	0.258521
H156	H	1.302328	0.822220	0.758521
H157	H	0.987526	0.014011	0.636152
H158	H	1.487526	0.514011	1.136152
N159	N	0.511589	0.171214	-0.126748
N160	N	1.011589	0.671214	0.373252
H161	H	0.548589	0.172188	-0.172395
H162	H	1.048589	0.672188	0.327605
H163	H	0.484569	0.093027	-0.140633
H164	H	0.984569	0.593027	0.359367
N165	N	1.001014	-0.008419	0.375496
N166	N	1.501014	0.491581	0.875496
H167	H	1.033348	-0.062215	0.329004
H168	H	1.533348	0.437785	0.829004
H169	H	1.034705	0.039340	0.416651
H170	H	1.534705	0.539340	0.916651
H171	H	0.802362	0.322248	0.678530
H172	H	1.302362	0.822248	1.178530
