data_functionalizedCrystal
_audit_creation_method	'MofGen! by Chris Wilmer'
_symmetry_space_group_name_H-M	'P1'
_symmetry_Int_Tables_number	1
_symmetry_cell_setting	triclinic
loop_
_symmetry_equiv_pos_as_xyz
  x,y,z
_cell_length_a	18.101398
_cell_length_b	19.120786
_cell_length_c	18.101390
_cell_angle_alpha	87.524897
_cell_angle_beta	89.991806
_cell_angle_gamma	92.461076
loop_
_atom_site_label
_atom_site_type_symbol
_atom_site_fract_x
_atom_site_fract_y
_atom_site_fract_z
Zn1	Zn	1.119559	-0.279688	-0.405959
Zn2	Zn	1.114186	-0.397159	-0.276829
Zn3	Zn	0.995720	-0.279710	-0.282151
Zn4	Zn	0.990400	-0.397100	-0.400652
O5	O	1.054966	-0.338414	-0.341398
O6	O	1.222478	-0.295286	-0.388824
O7	O	1.098450	-0.381614	-0.173901
O8	O	1.016622	-0.181417	-0.303023
O9	O	1.218531	-0.381591	-0.293952
O10	O	1.107606	-0.181400	-0.393984
O11	O	1.011413	-0.295324	-0.177810
O12	O	0.891382	-0.295267	-0.297876
O13	O	1.007554	-0.381491	-0.504990
O14	O	0.887473	-0.381513	-0.384938
O15	O	1.102447	-0.295228	-0.508890
O16	O	1.093291	-0.495442	-0.288806
O17	O	1.002345	-0.495398	-0.379778
C18	C	0.862557	-0.338387	-0.341409
C19	C	0.780243	-0.338392	-0.341431
C20	C	0.481150	-0.338433	-0.341398
C21	C	0.510028	-0.392959	-0.395881
C22	C	0.595655	-0.392788	-0.396123
C23	C	0.629533	-0.338413	-0.341415
C24	C	0.601798	-0.264431	-0.366073
C25	C	0.516138	-0.264758	-0.366463
C26	C	0.511855	-0.357238	-0.262149
C27	C	0.597433	-0.358861	-0.262495
C28	C	0.713393	-0.338397	-0.341423
C29	C	0.397290	-0.338444	-0.341392
C30	C	1.046678	-0.520906	-0.333155
C31	C	1.043200	-0.598976	-0.329653
C32	C	1.088901	-0.635585	-0.375406
C33	C	1.085630	-0.708940	-0.372117
C34	C	1.036661	-0.745686	-0.323072
C35	C	0.990955	-0.709072	-0.277318
C36	C	0.994223	-0.635718	-0.280611
C37	C	1.024423	-0.967172	-0.310761
C38	C	1.021160	-1.040531	-0.307470
C39	C	1.115835	-1.040394	-0.402271
C40	C	1.119101	-0.967039	-0.405556
C41	C	1.073392	-0.930431	-0.359805
C42	C	1.033318	-0.820667	-0.319707
C43	C	1.076732	-0.855451	-0.363174
C44	C	1.248127	-0.338443	-0.341387
C45	C	1.330440	-0.338455	-0.341382
C46	C	1.055007	-0.338350	-0.534563
C47	C	1.055024	-0.338323	-0.616878
C48	C	1.063307	-0.155210	-0.349689
C49	C	1.066861	-0.077140	-0.353222
C50	C	1.055051	-0.338301	-0.767587
C51	C	1.114758	-0.284022	-0.801395
C52	C	1.114990	-0.284169	-0.887006
C53	C	1.055078	-0.338278	-0.915971
C54	C	1.072630	-0.412365	-0.881522
C55	C	1.073044	-0.412064	-0.795891
C56	C	0.977626	-0.319137	-0.800020
C57	C	0.978135	-0.317491	-0.885746
C58	C	1.055092	-0.338270	-0.999831
C59	C	1.055039	-0.338315	-0.683727
C60	C	1.054971	-0.338427	-0.148987
C61	C	1.055106	-0.338257	-0.066681
H62	H	0.614188	-0.447650	-0.380286
H63	H	0.957007	-0.605912	-0.243355
H64	H	0.931569	-0.354116	-0.905470
N65	N	0.491973	-0.244770	-0.439264
N66	N	0.424460	-0.241403	-0.452717
H67	H	0.407395	-0.227290	-0.504135
H68	H	1.129533	-0.428273	-0.775181
H69	H	0.486944	-0.448000	-0.380186
H70	H	0.497306	-0.222676	-0.328788
H71	H	1.172436	-0.296868	-0.906922
N72	N	1.169139	-0.929478	-0.455617
N73	N	1.144921	-0.888498	-0.504616
H74	H	1.180274	-0.861960	-0.539951
H75	H	0.493380	-0.317521	-0.221513
H76	H	0.987207	-0.937372	-0.273507
H77	H	1.031236	-0.453883	-0.773257
H78	H	1.122850	-0.738744	-0.409368
N79	N	0.940950	-0.746594	-0.227195
N80	N	0.900160	-0.713896	-0.186337
H81	H	0.864849	-0.740394	-0.150929
H82	H	1.104413	-0.229244	-0.910518
H83	H	0.964834	-0.262969	-0.908539
N84	N	1.138914	-0.598052	-0.425512
N85	N	1.114654	-0.557107	-0.474522
H86	H	1.149976	-0.530600	-0.509912
H87	H	1.116600	-0.825531	-0.403109
N88	N	0.956687	-0.252519	-0.775968
N89	N	0.896501	-0.228465	-0.796301
H90	H	0.881719	-0.181413	-0.779315
H91	H	1.153047	-1.070208	-0.439520
H92	H	0.981280	-1.070448	-0.267531
H93	H	1.104344	-0.228928	-0.783305
N94	N	0.983321	-0.858225	-0.269603
N95	N	1.007605	-0.899173	-0.220610
H96	H	0.972298	-0.925704	-0.185224
N97	N	0.921862	-0.368711	-0.772339
N98	N	0.856029	-0.362778	-0.791570
H99	H	0.816649	-0.397791	-0.772017
H100	H	0.623990	-0.248194	-0.423497
N101	N	0.483733	-0.377543	-0.469027
N102	N	0.443817	-0.326573	-0.481205
H103	H	0.425244	-0.315682	-0.532864
H104	H	1.171873	-0.296573	-0.779306
N105	N	0.622068	-0.377180	-0.469703
N106	N	0.577245	-0.366374	-0.521036
H107	H	0.595898	-0.355349	-0.573006
H108	H	0.624036	-0.222703	-0.327775
N109	N	1.019570	-0.464473	-0.904687
N110	N	0.968106	-0.447547	-0.946947
H111	H	0.930630	-0.484347	-0.963309
N112	N	1.142709	-0.433040	-0.907474
N113	N	1.193423	-0.445271	-0.862497
H114	H	1.242919	-0.459869	-0.880824
N115	N	0.619847	-0.427156	-0.239253
N116	N	0.687036	-0.438886	-0.233312
H117	H	0.702874	-0.487119	-0.216901
H118	H	0.487863	-0.410263	-0.240380
H119	H	0.620487	-0.322031	-0.219452
