data_functionalizedCrystal
_audit_creation_method	'MofGen! by Chris Wilmer'
_symmetry_space_group_name_H-M	'P1'
_symmetry_Int_Tables_number	1
_symmetry_cell_setting	triclinic
loop_
_symmetry_equiv_pos_as_xyz
  x,y,z
_cell_length_a	17.917603
_cell_length_b	12.970454
_cell_length_c	12.970454
_cell_angle_alpha	89.998622
_cell_angle_beta	57.010876
_cell_angle_gamma	63.033876
loop_
_atom_site_label
_atom_site_type_symbol
_atom_site_fract_x
_atom_site_fract_y
_atom_site_fract_z
Zr1	Zr	0.818633	1.044677	-0.186794
O2	O	0.974660	0.889862	-0.361225
O3	O	0.662607	1.085335	-0.126519
O4	O	0.818634	1.095144	-0.351420
O5	O	0.818632	0.880053	0.033343
O6	O	0.818635	1.264810	-0.351424
O7	O	0.818633	0.880054	-0.136324
O8	O	0.539530	1.247264	0.050883
O9	O	1.097737	0.897599	-0.368964
O10	O	0.726783	1.237513	-0.109034
O11	O	0.726782	1.110892	0.017590
O12	O	0.910485	1.122441	-0.247202
O13	O	0.910484	0.995820	-0.120578
Zr14	Zr	0.818633	1.315276	0.083800
Zr15	Zr	0.818634	1.315276	-0.186800
Zr16	Zr	0.818632	1.044677	0.083806
Zr17	Zr	1.014927	1.057017	-0.199136
Zr18	Zr	0.622340	1.302936	0.096142
O19	O	0.974660	1.274618	0.023525
O20	O	0.974662	1.274619	-0.361234
O21	O	0.974659	0.889861	0.023533
O22	O	0.662607	1.470091	0.258231
O23	O	0.662608	1.470091	-0.126527
O24	O	0.662605	1.085334	0.258240
O25	O	0.818635	1.479900	-0.136338
O26	O	0.818633	1.264809	0.248426
O27	O	0.818632	1.095143	0.248430
O28	O	0.818634	1.479899	0.033330
O29	O	1.097738	1.112689	-0.368969
O30	O	0.539529	1.247264	0.265974
O31	O	0.539530	1.462354	0.265970
O32	O	0.539531	1.462354	0.050879
O33	O	1.097736	0.897599	-0.153873
O34	O	1.097737	1.112688	-0.153878
O35	O	0.726782	1.237512	0.144208
O36	O	0.726783	1.364133	0.017584
O37	O	0.910485	1.249061	-0.120584
O38	O	0.910484	1.122440	0.006040
C39	C	0.573101	1.164542	-0.036059
C40	C	0.489769	1.159303	-0.030820
C41	C	0.818632	1.179976	0.286982
C42	C	0.818632	1.179976	0.401859
C43	C	0.818635	1.518454	-0.051505
C44	C	0.818635	1.633330	-0.051507
C45	C	0.337199	1.149732	-0.021252
C46	C	0.300063	1.210218	-0.081739
C47	C	0.215168	1.204892	-0.076416
C48	C	0.422102	1.155056	-0.026574
C49	C	1.064166	1.195411	-0.066935
C50	C	1.147498	1.200650	-0.072174
C51	C	0.818632	0.841499	-0.051489
C52	C	0.818632	0.726623	-0.051487
C53	C	0.818635	1.179977	-0.389976
C54	C	0.818635	1.179977	-0.504853
C55	C	0.573102	1.503019	-0.036067
C56	C	0.489771	1.612657	-0.030830
C57	C	0.573099	1.164541	0.302420
C58	C	0.489767	1.159302	0.422537
C59	C	0.573101	1.503019	0.302413
C60	C	0.489769	1.612656	0.422526
C61	C	1.064166	0.856934	-0.405407
C62	C	1.147498	0.747297	-0.525520
C63	C	1.064165	0.856934	-0.066927
C64	C	1.147496	0.747296	-0.072164
C65	C	1.064168	1.195412	-0.405414
C66	C	1.147500	1.200651	-0.525531
C67	C	0.450638	1.598050	-0.094475
C68	C	0.372350	1.701056	-0.089581
C69	C	0.333192	1.818669	-0.021032
C70	C	0.372332	1.833274	0.042615
C71	C	0.450624	1.730269	0.037712
C72	C	0.450634	1.222937	0.545049
C73	C	0.372345	1.218010	0.657921
C74	C	0.333187	1.149456	0.648277
C75	C	0.372328	1.085814	0.525752
C76	C	0.450620	1.090734	0.412883
C77	C	0.450636	1.730249	0.412837
C78	C	0.372348	1.833276	0.525685
C79	C	0.333189	1.818707	0.648222
C80	C	0.372330	1.701102	0.657909
C81	C	0.450622	1.598078	0.545062
C82	C	1.186640	0.629704	-0.515831
C83	C	1.264953	0.526679	-0.628681
C84	C	1.304116	0.541248	-0.751219
C85	C	1.264970	0.658853	-0.760905
C86	C	1.186664	0.761876	-0.648057
C87	C	1.186637	0.761904	-0.008531
C88	C	1.264947	0.658898	-0.013456
C89	C	1.304108	0.541286	-0.082009
C90	C	1.264963	0.526681	-0.145650
C91	C	1.186661	0.629685	-0.140732
C92	C	1.186633	1.269216	-0.515845
C93	C	1.264922	1.274162	-0.628696
C94	C	1.304081	1.210535	-0.751232
C95	C	1.264940	1.141967	-0.760914
C96	C	1.186647	1.137029	-0.648064
H97	H	0.305237	1.093953	0.034526
H98	H	0.340486	1.269840	0.757675
O99	O	0.492875	1.471203	-0.168428
H100	H	0.452511	1.478371	-0.211871
O101	O	1.144434	0.888708	-0.658512
H102	H	1.184819	0.881517	-0.762682
O103	O	0.492866	1.745992	0.280684
H104	H	0.477830	1.699056	0.229285
H105	H	0.340488	1.929026	0.517775
H106	H	0.269439	1.902607	0.740100
H107	H	0.340433	1.029998	0.517919
H108	H	0.340491	1.689140	-0.141410
O109	O	0.492810	1.746041	0.106386
H110	H	0.553833	1.654665	0.091468
O111	O	0.330076	1.685394	0.790078
H112	H	0.269049	1.776796	0.866910
H113	H	1.154794	0.617774	-0.192547
O114	O	1.144407	1.337858	-0.383694
H115	H	1.083393	1.322910	-0.306834
O116	O	1.144416	0.888747	0.065411
H117	H	1.083383	0.957933	0.058161
O118	O	1.388531	1.215861	-0.872944
H119	H	1.459878	1.121925	-0.934425
H120	H	0.482473	1.502332	0.552969
H121	H	0.269441	1.902532	-0.017049
H122	H	1.154758	0.617818	-0.416065
O123	O	0.492856	1.296886	0.555472
H124	H	0.579230	1.235589	0.504013
O125	O	0.248725	1.144183	0.770028
H126	H	0.278774	1.104734	0.825143
H127	H	1.296812	0.430930	-0.620769
O128	O	0.330085	1.960130	0.116561
H129	H	0.269060	2.029290	0.109284
H130	H	0.482473	1.038919	0.313132
H131	H	0.332028	1.265999	-0.137524
O132	O	1.388586	0.430126	-0.872933
H133	H	1.409216	0.345913	-0.845595
O134	O	1.307146	0.674663	0.055207
H135	H	1.266738	0.773752	0.103722
H136	H	1.296860	0.430907	-0.201465
O137	O	1.388561	0.430197	-0.087299
H138	H	1.409227	0.345953	-0.145664
H139	H	1.296835	1.090165	-0.860698
H140	H	1.296867	0.670701	-0.860689
O141	O	1.307134	1.348116	-0.618240
H142	H	1.266759	1.391508	-0.514073
O143	O	1.144453	1.063055	-0.658517
H144	H	1.184851	1.019635	-0.762687
