data_functionalizedCrystal
_audit_creation_method	'MofGen! by Chris Wilmer'
_symmetry_space_group_name_H-M	'P1'
_symmetry_Int_Tables_number	1
_symmetry_cell_setting	triclinic
loop_
_symmetry_equiv_pos_as_xyz
  x,y,z
_cell_length_a	31.640172
_cell_length_b	31.640172
_cell_length_c	31.640172
_cell_angle_alpha	59.998907
_cell_angle_beta	90.008445
_cell_angle_gamma	59.998920
loop_
_atom_site_label
_atom_site_type_symbol
_atom_site_fract_x
_atom_site_fract_y
_atom_site_fract_z
Zr1	Zr	0.407162	0.462612	-0.055486
O2	O	0.339668	0.550794	-0.122991
O3	O	0.427855	0.374429	-0.034781
O4	O	0.427850	0.462600	-0.122964
O5	O	0.339673	0.462631	0.034740
O6	O	0.497407	0.462592	-0.122955
O7	O	0.339673	0.462623	-0.034808
O8	O	0.497416	0.304869	0.034788
O9	O	0.339665	0.620354	-0.123003
O10	O	0.488587	0.410693	-0.025957
O11	O	0.436678	0.410706	0.025939
O12	O	0.436672	0.514517	-0.077885
O13	O	0.384763	0.514530	-0.025988
Zr14	Zr	0.518099	0.462612	0.055450
Zr15	Zr	0.518097	0.462598	-0.055471
Zr16	Zr	0.407163	0.462625	0.055436
Zr17	Zr	0.407157	0.573552	-0.055505
Zr18	Zr	0.518104	0.351671	0.055469
O19	O	0.497406	0.550794	0.034746
O20	O	0.497403	0.550774	-0.122970
O21	O	0.339670	0.550814	0.034725
O22	O	0.585593	0.374429	0.122956
O23	O	0.585591	0.374409	-0.034760
O24	O	0.427857	0.374449	0.122935
O25	O	0.585587	0.462592	-0.034775
O26	O	0.497411	0.462623	0.122929
O27	O	0.427854	0.462631	0.122920
O28	O	0.585588	0.462600	0.034773
O29	O	0.427844	0.620343	-0.122991
O30	O	0.497417	0.304880	0.122956
O31	O	0.585596	0.304869	0.122968
O32	O	0.585595	0.304858	0.034800
O33	O	0.339666	0.620365	-0.034835
O34	O	0.427845	0.620354	-0.034823
O35	O	0.488588	0.410706	0.077849
O36	O	0.540497	0.410693	0.025953
O37	O	0.488583	0.514517	-0.025975
O38	O	0.436674	0.514530	0.025922
C39	C	0.462636	0.323842	0.000006
C40	C	0.462638	0.276745	0.000014
C41	C	0.424310	0.023071	-0.038353
C42	C	0.424306	-0.153910	-0.038368
O43	O	0.391727	-0.144204	-0.070977
N44	N	0.462627	-0.214362	-0.000041
C45	C	0.500954	-0.230569	0.038290
O46	O	0.533551	-0.286048	0.070886
C47	C	0.500959	-0.053588	0.038302
C48	C	0.462633	0.006864	-0.000024
C49	C	0.385987	0.083520	-0.076677
C50	C	0.385986	0.127762	-0.076671
C51	C	0.424309	0.111555	-0.038342
C52	C	0.462633	0.051106	-0.000019
C53	C	0.539288	-0.069796	0.076630
C54	C	0.539287	-0.025544	0.076629
C55	C	0.500960	0.034908	0.038303
C56	C	0.500955	0.079141	0.038316
N57	N	0.462634	0.139593	-0.000011
C58	C	0.424311	0.155800	-0.038340
C59	C	0.500947	-0.323484	0.038282
C60	C	0.500946	-0.367729	0.038279
C61	C	0.424298	-0.291067	-0.038379
C62	C	0.424298	-0.246821	-0.038374
C63	C	0.462626	-0.263032	-0.000045
C64	C	0.424313	0.248709	-0.038325
C65	C	0.424315	0.292952	-0.038315
C66	C	0.500964	0.216286	0.038342
C67	C	0.500961	0.172047	0.038333
C68	C	0.462633	0.188263	-0.000004
O69	O	0.533520	0.069479	0.070905
O70	O	0.391725	0.211282	-0.070937
C71	C	0.424310	-0.021171	-0.038359
C72	C	0.462633	-0.081621	-0.000036
C73	C	0.500956	-0.097828	0.038293
C74	C	0.462631	-0.125866	-0.000038
C75	C	0.424308	-0.109659	-0.038367
C76	C	0.385987	-0.049207	-0.076694
C77	C	0.385987	-0.004964	-0.076688
C78	C	0.539277	-0.158280	0.076620
C79	C	0.539274	-0.202519	0.076612
C80	C	0.500951	-0.186312	0.038283
C81	C	0.323867	0.462629	-0.000036
C82	C	0.276772	0.462635	-0.000042
C83	C	0.011865	0.408411	0.027099
C84	C	-0.165120	0.408401	0.027109
O85	O	-0.164959	0.362309	0.050180
N86	N	-0.214349	0.462595	0.000002
C87	C	-0.219330	0.516796	-0.027106
O88	O	-0.265263	0.562892	-0.050157
C89	C	-0.042346	0.516806	-0.027113
C90	C	0.006882	0.462608	-0.000009
C91	C	0.061091	0.354217	0.054201
C92	C	0.105334	0.354220	0.054196
C93	C	0.100352	0.408417	0.027088
C94	C	0.051126	0.462611	-0.000014
C95	C	-0.047328	0.571006	-0.054218
C96	C	-0.003077	0.571004	-0.054216
C97	C	0.046152	0.516806	-0.027112
C98	C	0.090386	0.516811	-0.027126
N99	N	0.139615	0.462616	-0.000020
C100	C	0.144598	0.408419	0.027087
C101	C	-0.312248	0.516787	-0.027101
C102	C	-0.356494	0.516785	-0.027100
C103	C	-0.302280	0.408389	0.027115
C104	C	-0.258034	0.408392	0.027111
C105	C	-0.263019	0.462593	0.000005
C106	C	0.237510	0.408430	0.027074
C107	C	0.281755	0.408438	0.027065
C108	C	0.227538	0.516833	-0.027148
C109	C	0.183296	0.516826	-0.027141
C110	C	0.188286	0.462619	-0.000026
O111	O	0.090265	0.562878	-0.050181
O112	O	0.190535	0.362331	0.050144
C113	C	-0.032378	0.408408	0.027104
C114	C	-0.081604	0.462601	0.000002
C115	C	-0.086587	0.516798	-0.027106
C116	C	-0.125850	0.462599	0.000002
C117	C	-0.120868	0.408402	0.027110
C118	C	-0.071639	0.354208	0.054216
C119	C	-0.027396	0.354211	0.054211
C120	C	-0.135816	0.570993	-0.054212
C121	C	-0.180057	0.570985	-0.054205
C122	C	-0.175074	0.516788	-0.027098
C123	C	0.601394	0.462594	0.000001
C124	C	0.648489	0.462588	0.000007
C125	C	0.462628	0.462594	-0.138763
C126	C	0.462628	0.462588	-0.185853
C127	C	0.462625	0.601381	-0.000041
C128	C	0.462623	0.648478	-0.000049
C129	C	0.435536	0.516812	-0.504993
C130	C	0.435537	0.516822	-0.681989
O131	O	0.412509	0.562914	-0.727927
N132	N	0.462635	0.462628	-0.677013
C133	C	0.489737	0.408427	-0.627784
O134	O	0.512790	0.362331	-0.627613
C135	C	0.489739	0.408417	-0.450790
C136	C	0.462635	0.462615	-0.455769
C137	C	0.408435	0.571006	-0.509971
C138	C	0.408433	0.571003	-0.465724
C139	C	0.435532	0.516806	-0.416500
C140	C	0.462633	0.462612	-0.411523
C141	C	0.516845	0.354217	-0.401562
C142	C	0.516844	0.354219	-0.357313
C143	C	0.489740	0.408417	-0.362292
C144	C	0.489730	0.408412	-0.318053
N145	N	0.462632	0.462607	-0.323028
C146	C	0.435533	0.516804	-0.372252
C147	C	0.489733	0.408436	-0.720710
C148	C	0.489732	0.408438	-0.764959
C149	C	0.435532	0.516834	-0.819161
C150	C	0.435531	0.516831	-0.774911
C151	C	0.462635	0.462630	-0.725686
C152	C	0.435530	0.516793	-0.279329
C153	C	0.435529	0.516785	-0.235076
C154	C	0.489730	0.408390	-0.180879
C155	C	0.489730	0.408397	-0.225127
C156	C	0.462629	0.462604	-0.274354
O157	O	0.512751	0.362345	-0.272099
O158	O	0.412493	0.562892	-0.372412
C159	C	0.435538	0.516815	-0.549240
C160	C	0.462640	0.462622	-0.544262
C161	C	0.489739	0.408425	-0.495038
C162	C	0.462638	0.462624	-0.588511
C163	C	0.435539	0.516821	-0.637735
C164	C	0.408441	0.571015	-0.642710
C165	C	0.408439	0.571012	-0.598464
C166	C	0.516837	0.354230	-0.490063
C167	C	0.516836	0.354238	-0.534312
C168	C	0.489737	0.408435	-0.583535
C169	C	0.462632	0.462629	0.138728
C170	C	0.462633	0.462635	0.185817
C171	C	0.601400	0.323825	0.000025
C172	C	0.648496	0.276722	0.000039
C173	C	0.462638	0.323860	0.138752
C174	C	0.462641	0.276769	0.185849
C175	C	0.601401	0.323842	0.138770
C176	C	0.648499	0.276745	0.185874
C177	C	0.323859	0.601381	-0.138806
C178	C	0.276762	0.648478	-0.185909
C179	C	0.323861	0.601398	-0.000060
C180	C	0.276764	0.648501	-0.000074
C181	C	0.462623	0.601363	-0.138787
C182	C	0.462620	0.648455	-0.185884
C183	C	0.643517	0.254602	-0.027055
C184	C	0.687765	0.210349	-0.027052
C185	C	0.736993	0.188215	0.000049
C186	C	0.741971	0.210340	0.027144
C187	C	0.697723	0.254594	0.027137
C188	C	0.489739	0.254654	0.235068
C189	C	0.489739	0.210413	0.279325
C190	C	0.462645	0.188285	0.274362
C191	C	0.435543	0.210403	0.225138
C192	C	0.435540	0.254646	0.180882
C193	C	0.697717	0.254621	0.180905
C194	C	0.741975	0.210374	0.225159
C195	C	0.737013	0.188250	0.274382
C196	C	0.687790	0.210378	0.279350
C197	C	0.643533	0.254627	0.235096
C198	C	0.227544	0.670607	-0.180940
C199	C	0.183286	0.714868	-0.225195
C200	C	0.188248	0.736995	-0.274418
C201	C	0.237471	0.714863	-0.279386
C202	C	0.281728	0.670607	-0.235132
C203	C	0.281744	0.670626	0.027016
C204	C	0.237495	0.714890	0.027000
C205	C	0.188268	0.737026	-0.000102
C206	C	0.183290	0.714900	-0.027195
C207	C	0.227538	0.670639	-0.027183
C208	C	0.489720	0.670569	-0.180905
C209	C	0.489728	0.714810	-0.225154
C210	C	0.462632	0.736939	-0.274381
C211	C	0.435531	0.714820	-0.279359
C212	C	0.435527	0.670577	-0.235111
H213	H	0.354779	0.096727	-0.107892
F214	F	-0.066344	0.296528	0.083064
F215	F	0.518561	0.647026	-0.128518
F216	F	0.794367	0.186775	0.055986
H217	H	0.511795	0.732815	-0.221090
H218	H	0.603438	0.272623	-0.049131
F219	F	0.406692	0.738381	-0.331755
F220	F	0.222251	0.647065	-0.128558
F221	F	0.518580	0.278195	0.240361
F222	F	0.383507	-0.182486	-0.079166
F223	F	0.462640	0.784029	-0.321470
F224	F	0.545697	0.296530	-0.304924
H225	H	0.683702	0.192341	-0.049116
F226	F	0.334147	0.350751	0.055913
F227	F	0.541749	0.107708	0.079128
H228	H	0.511810	0.192409	0.319400
F229	F	0.406700	0.278175	0.128502
H230	H	0.683757	0.192358	0.319433
H231	H	0.321823	0.652606	0.049089
H232	H	0.143211	0.732879	-0.221139
F233	F	0.462653	0.141196	0.321468
F234	F	0.379588	0.628698	-0.603771
H235	H	0.413457	0.652576	-0.239172
F236	F	0.545693	0.296531	-0.396250
F237	F	0.794357	0.186830	0.219861
F238	F	0.383520	0.357292	-0.079107
F239	F	0.242805	0.738429	0.055839
H240	H	0.152243	0.773066	-0.000108
H241	H	0.701767	0.272628	0.140829
F242	F	0.383512	-0.273825	-0.079172
F243	F	0.157723	0.296535	0.083047
F244	F	0.383521	0.265975	-0.079129
H245	H	0.354781	0.176983	-0.107884
H246	H	-0.396574	0.560918	-0.049178
F247	F	0.784081	0.141115	0.000051
H248	H	0.413465	0.560963	-0.859247
H249	H	0.143203	0.732930	-0.049261
F250	F	0.222230	0.647094	-0.056014
H251	H	0.152207	0.773031	-0.310448
F252	F	0.784120	0.141155	0.321477
H253	H	0.701785	0.272598	0.049204
H254	H	0.241505	0.732885	-0.319468
H255	H	0.511793	0.364265	-0.221072
H256	H	0.603459	0.272635	0.239149
F257	F	0.406709	0.186846	0.219865
H258	H	0.532150	-0.416949	0.069493
F259	F	0.580081	-0.134127	0.117424
F260	F	0.541743	-0.340747	0.079081
F261	F	0.580083	-0.042803	0.117424
H262	H	0.532165	0.203100	0.069549
F263	F	0.334108	0.647056	-0.240428
H264	H	0.354777	0.044256	-0.107897
H265	H	-0.217953	0.364259	0.049186
F266	F	-0.232448	0.628675	-0.083057
H267	H	0.354782	-0.036017	-0.107901
H268	H	0.570484	-0.251742	0.107826
H269	H	0.570486	-0.171485	0.107832
F270	F	0.406686	0.574485	-0.331715
F271	F	0.242827	0.350738	0.055933
F272	F	0.545683	0.296548	-0.529003
F273	F	0.066405	0.296528	0.083057
F274	F	-0.099713	0.628692	-0.083062
H275	H	-0.139881	0.615127	-0.076288
F276	F	-0.317563	0.574479	-0.055954
F277	F	-0.296985	0.350709	0.055965
H278	H	-0.007142	0.615142	-0.076282
F279	F	0.222244	0.574511	-0.055990
F280	F	0.024993	0.296525	0.083060
F281	F	0.406676	0.574472	-0.240382
F282	F	0.130903	0.574509	-0.055998
F283	F	0.379578	0.628688	-0.471032
H284	H	0.413460	0.560964	-0.778971
F285	F	0.518572	0.350753	-0.759653
F286	F	0.379590	0.628695	-0.562356
F287	F	0.518568	0.350712	-0.128485
F288	F	0.379598	0.628695	-0.695106
F289	F	0.518575	0.350744	-0.668323
H290	H	0.538906	0.310096	-0.449985
