data_functionalizedCrystal
_audit_creation_method	'MofGen! by Chris Wilmer'
_symmetry_space_group_name_H-M	'P1'
_symmetry_Int_Tables_number	1
_symmetry_cell_setting	triclinic
loop_
_symmetry_equiv_pos_as_xyz
  x,y,z
_cell_length_a	15.944551
_cell_length_b	15.995350
_cell_length_c	14.472310
_cell_angle_alpha	89.998838
_cell_angle_beta	89.982781
_cell_angle_gamma	96.504444
loop_
_atom_site_label
_atom_site_type_symbol
_atom_site_fract_x
_atom_site_fract_y
_atom_site_fract_z
O1	O	1.114529	-0.107983	-0.076926
O2	O	1.447862	0.225350	0.256407
O3	O	1.781196	0.558684	0.589741
O4	O	0.869979	-0.121297	-0.076908
O5	O	1.203312	0.212036	0.256426
O6	O	1.536645	0.545370	0.589759
O7	O	0.998939	0.007247	-0.076916
O8	O	1.332272	0.340581	0.256417
O9	O	1.665606	0.673914	0.589750
O10	O	0.985569	-0.236527	-0.076917
O11	O	1.318902	0.096806	0.256416
O12	O	1.652236	0.430139	0.589749
O13	O	0.998906	0.007240	0.076766
O14	O	1.332239	0.340573	0.410099
O15	O	1.665572	0.673907	0.743432
O16	O	0.869946	-0.121304	0.076774
O17	O	1.203279	0.212029	0.410108
O18	O	1.536612	0.545362	0.743441
O19	O	1.114496	-0.107990	0.076756
O20	O	1.447829	0.225343	0.410089
O21	O	1.781163	0.558676	0.743423
Cu22	Cu	0.992218	-0.114648	0.090798
Cu23	Cu	1.325551	0.218685	0.424131
Cu24	Cu	1.658884	0.552019	0.757464
Cu25	Cu	0.992257	-0.114639	-0.090949
Cu26	Cu	1.325590	0.218694	0.242384
Cu27	Cu	1.658924	0.552027	0.575717
O28	O	0.985536	-0.236535	0.076765
O29	O	1.318869	0.096799	0.410098
O30	O	1.652202	0.430132	0.743431
C31	C	0.838668	-0.120748	-0.000064
C32	C	1.172002	0.212585	0.333269
C33	C	1.505335	0.545919	0.666602
C34	C	0.745422	-0.119091	-0.000057
C35	C	1.078756	0.214242	0.333276
C36	C	1.412089	0.547576	0.666609
C37	C	0.998370	0.038438	-0.000077
C38	C	1.331703	0.371772	0.333256
C39	C	1.665036	0.705105	0.666589
C40	C	0.996713	0.131389	-0.000082
C41	C	1.330046	0.464722	0.333251
C42	C	1.663379	0.798056	0.666584
C43	C	1.145806	-0.108539	-0.000089
C44	C	1.479140	0.224794	0.333244
C45	C	1.812473	0.558127	0.666577
C46	C	1.239052	-0.110196	-0.000102
C47	C	1.572386	0.223137	0.333231
C48	C	1.905719	0.556470	0.666564
C49	C	1.453904	-0.193835	-0.000081
C50	C	1.787238	0.139498	0.333252
C51	C	2.120571	0.472832	0.666585
C52	C	1.514943	-0.154992	-0.075854
C53	C	1.848276	0.178341	0.257480
C54	C	2.181610	0.511674	0.590813
C55	C	1.409778	-0.113194	-0.000089
C56	C	1.743111	0.220139	0.333244
C57	C	2.076445	0.553473	0.666578
C58	C	1.514888	-0.154981	0.075665
C59	C	1.848222	0.178353	0.408998
C60	C	2.181555	0.511686	0.742331
C61	C	1.574691	-0.116096	-0.000072
C62	C	1.908024	0.217238	0.333261
C63	C	2.241357	0.550571	0.666595
C64	C	1.469589	-0.074329	-0.075924
C65	C	1.802922	0.259004	0.257409
C66	C	2.136255	0.592337	0.590743
C67	C	1.469527	-0.074329	0.075663
C68	C	1.802861	0.259004	0.408996
C69	C	2.136194	0.592338	0.742329
C70	C	1.530548	-0.035428	-0.000128
C71	C	1.863882	0.297905	0.333205
C72	C	2.197215	0.631239	0.666538
C73	C	1.314776	-0.111525	-0.000099
C74	C	1.648109	0.221808	0.333234
C75	C	1.981443	0.555142	0.666567
C76	C	1.669692	-0.117759	-0.000068
C77	C	2.003025	0.215575	0.333265
C78	C	2.336358	0.548908	0.666599
C79	C	0.986105	-0.267726	-0.000077
C80	C	1.319438	0.065608	0.333257
C81	C	1.652772	0.398941	0.666590
C82	C	0.987762	-0.360676	-0.000077
C83	C	1.321096	-0.027343	0.333256
C84	C	1.654429	0.305991	0.666589
N85	N	0.992196	-0.114654	0.218628
N86	N	1.325530	0.218680	0.551962
N87	N	1.658863	0.552013	0.885295
C88	C	0.990761	0.469137	-0.000079
C89	C	1.324095	0.802470	0.333255
C90	C	1.657428	1.135803	0.666588
C91	C	0.898918	0.421708	-0.000417
C92	C	1.232252	0.755041	0.332917
C93	C	1.565585	1.088374	0.666250
C94	C	0.900576	0.325017	-0.000070
C95	C	1.233909	0.658351	0.333263
C96	C	1.567242	0.991684	0.666596
C97	C	0.993713	0.301576	-0.000081
C98	C	1.327047	0.634909	0.333252
C99	C	1.660380	0.968243	0.666586
C100	C	1.038995	0.342647	0.087674
C101	C	1.372328	0.675980	0.421007
C102	C	1.705661	1.009313	0.754341
C103	C	1.036687	0.439283	0.087748
C104	C	1.370021	0.772616	0.421081
C105	C	1.703354	1.105949	0.754414
C106	C	1.038622	0.439649	-0.087018
C107	C	1.371956	0.772982	0.246316
C108	C	1.705289	1.106316	0.579649
C109	C	1.038601	0.342704	-0.088178
C110	C	1.371934	0.676037	0.245156
C111	C	1.705268	1.009370	0.578489
C112	C	0.995386	0.206878	-0.000079
C113	C	1.328720	0.540212	0.333254
C114	C	1.662053	0.873545	0.666587
C115	C	0.989091	0.563835	-0.000074
C116	C	1.322424	0.897168	0.333259
C117	C	1.655758	1.230501	0.666592
N118	N	0.992285	-0.114627	-0.218780
N119	N	1.325618	0.218706	0.114553
N120	N	1.658952	0.552040	0.447887
C121	C	0.992256	-0.114636	0.592720
C122	C	1.325589	0.218697	0.926053
C123	C	1.658923	0.552031	1.259386
C124	C	0.923020	-0.183187	0.553559
C125	C	1.256354	0.150147	0.886892
C126	C	1.589687	0.483480	1.220225
C127	C	0.923180	-0.183437	0.446470
C128	C	1.256513	0.149897	0.779804
C129	C	1.589847	0.483230	1.113137
C130	C	0.992226	-0.114645	0.407129
C131	C	1.325559	0.218689	0.740462
C132	C	1.658892	0.552022	1.073795
C133	C	1.079868	-0.133731	0.445959
C134	C	1.413201	0.199602	0.779292
C135	C	1.746535	0.532935	1.112626
C136	C	1.079479	-0.134219	0.553081
C137	C	1.412812	0.199115	0.886414
C138	C	1.746146	0.532448	1.219747
C139	C	0.974631	-0.026795	0.553251
C140	C	1.307964	0.306538	0.886584
C141	C	1.641298	0.639871	1.219918
C142	C	0.972621	-0.027381	0.446124
C143	C	1.305954	0.305952	0.779457
C144	C	1.639287	0.639286	1.112790
C145	C	0.992214	-0.114648	0.302240
C146	C	1.325547	0.218685	0.635574
C147	C	1.658881	0.552019	0.968907
C148	C	0.992273	-0.114634	0.697608
C149	C	1.325607	0.218699	1.030941
C150	C	1.658940	0.552032	1.364274
H151	H	1.535069	-0.189098	-0.139912
H152	H	1.868403	0.144235	0.193422
H153	H	2.201736	0.477568	0.526755
H154	H	0.862359	0.441301	0.062169
H155	H	1.195692	0.774634	0.395502
H156	H	1.529026	1.107968	0.728836
H157	H	0.908150	-0.012896	0.420746
H158	H	1.241483	0.320437	0.754080
H159	H	1.574817	0.653771	1.087413
H160	H	1.106522	0.327338	-0.093484
H161	H	1.439855	0.660672	0.239849
H162	H	1.773188	0.994005	0.573182
H163	H	1.563705	0.031569	-0.000166
H164	H	1.897039	0.364902	0.333167
H165	H	2.230372	0.698235	0.666501
H166	H	0.858034	-0.172064	0.420219
H167	H	1.191367	0.161269	0.753553
H168	H	1.524701	0.494603	1.086886
H169	H	1.449616	-0.040249	-0.140058
H170	H	1.782949	0.293084	0.193276
H171	H	2.116283	0.626417	0.526609
H172	H	1.019773	0.026022	0.419347
H173	H	1.353106	0.359355	0.752680
H174	H	1.686440	0.692689	1.086013
H175	H	0.934120	-0.248005	0.580467
H176	H	1.267453	0.085329	0.913800
H177	H	1.600787	0.418662	1.247133
H178	H	1.007517	0.314264	0.152986
H179	H	1.340851	0.647597	0.486319
H180	H	1.674184	0.980931	0.819652
H181	H	1.132619	-0.085131	0.420472
H182	H	1.465953	0.248202	0.753805
H183	H	1.799286	0.581536	1.087139
H184	H	0.934435	-0.248621	0.420835
H185	H	1.267769	0.084712	0.754168
H186	H	1.601102	0.418045	1.087502
O187	O	0.853090	0.288104	0.083417
O188	O	1.186424	0.621437	0.416750
O189	O	1.519757	0.954771	0.750084
H190	H	0.786774	0.302833	0.080374
H191	H	1.120107	0.636167	0.413708
H192	H	1.453441	0.969500	0.747041
O193	O	1.126000	0.481997	0.093045
O194	O	1.459334	0.815330	0.426378
O195	O	1.792667	1.148663	0.759712
H196	H	1.125023	0.551271	0.093139
H197	H	1.458356	0.884605	0.426472
H198	H	1.791690	1.217938	0.759805
H199	H	0.857663	-0.172001	0.579351
H200	H	1.190997	0.161332	0.912685
H201	H	1.524330	0.494666	1.246018
O202	O	1.128318	0.481717	-0.087825
O203	O	1.461651	0.815050	0.245509
O204	O	1.794984	1.148383	0.578842
H205	H	1.138800	0.523430	-0.026642
H206	H	1.472133	0.856763	0.306691
H207	H	1.805466	1.190096	0.640024
H208	H	1.095010	-0.198280	0.578055
H209	H	1.428344	0.135053	0.911388
H210	H	1.761677	0.468386	1.244721
O211	O	1.149775	-0.070608	0.587404
O212	O	1.483108	0.262725	0.920737
O213	O	1.816441	0.596058	1.254071
H214	H	1.183901	-0.039640	0.527488
H215	H	1.517234	0.293693	0.860821
H216	H	1.850567	0.627027	1.194155
H217	H	1.095771	-0.197063	0.419120
H218	H	1.429104	0.136271	0.752453
H219	H	1.762437	0.469604	1.085787
O220	O	1.442830	-0.029190	0.160516
O221	O	1.776163	0.304143	0.493850
O222	O	2.109497	0.637476	0.827183
H223	H	1.460758	-0.062798	0.223328
H224	H	1.794092	0.270535	0.556661
H225	H	2.127425	0.603869	0.889994
H226	H	1.534957	-0.189106	0.139724
H227	H	1.868291	0.144228	0.473057
H228	H	2.201624	0.477561	0.806391
O229	O	0.992905	0.463533	0.174641
O230	O	1.326238	0.796867	0.507974
O231	O	1.659572	1.130200	0.841308
H232	H	0.973573	0.406264	0.216211
H233	H	1.306906	0.739598	0.549545
H234	H	1.640239	1.072931	0.882878
H235	H	0.864980	0.296600	-0.062976
H236	H	1.198314	0.629934	0.270357
H237	H	1.531647	0.963267	0.603691
O238	O	0.850293	0.446272	-0.083759
O239	O	1.183626	0.779605	0.249575
O240	O	1.516960	1.112939	0.582908
H241	H	0.891061	0.492551	-0.125832
H242	H	1.224395	0.825884	0.207501
H243	H	1.557728	1.159217	0.540835
O244	O	0.891796	-0.002496	0.589070
O245	O	1.225130	0.330837	0.922403
O246	O	1.558463	0.664171	1.255736
H247	H	0.862262	-0.052763	0.635408
H248	H	1.195595	0.280570	0.968742
H249	H	1.528929	0.613904	1.302075
H250	H	1.107420	0.328517	0.090930
H251	H	1.440753	0.661850	0.424263
H252	H	1.774086	0.995184	0.757596
H253	H	1.420595	-0.260771	-0.000157
H254	H	1.753928	0.072562	0.333176
H255	H	2.087261	0.405896	0.666510
H256	H	1.008609	0.460194	-0.153531
H257	H	1.341942	0.793527	0.179802
H258	H	1.675275	1.126860	0.513135
O259	O	1.041499	0.040786	0.586799
O260	O	1.374832	0.374119	0.920132
O261	O	1.708165	0.707453	1.253465
H262	H	1.087071	0.012007	0.631367
H263	H	1.420404	0.345340	0.964700
H264	H	1.753738	0.678674	1.298033
H265	H	1.005495	0.315460	-0.153096
H266	H	1.338828	0.648793	0.180237
H267	H	1.672161	0.982127	0.513570
