data_functionalizedCrystal
_audit_creation_method	'MofGen! by Chris Wilmer'
_symmetry_space_group_name_H-M	'P1'
_symmetry_Int_Tables_number	1
_symmetry_cell_setting	triclinic
loop_
_symmetry_equiv_pos_as_xyz
  x,y,z
_cell_length_a	16.109302
_cell_length_b	10.908878
_cell_length_c	15.186229
_cell_angle_alpha	89.996729
_cell_angle_beta	89.994701
_cell_angle_gamma	71.773286
loop_
_atom_site_label
_atom_site_type_symbol
_atom_site_fract_x
_atom_site_fract_y
_atom_site_fract_z
O1	O	1.080336	0.165071	-0.073265
O2	O	0.835438	0.185612	-0.073258
O3	O	0.990351	-0.011604	-0.073259
O4	O	0.925423	0.362287	-0.073264
O5	O	0.990343	-0.011607	0.073198
O6	O	0.835430	0.185609	0.073199
O7	O	1.080328	0.165068	0.073192
Zn8	Zn	0.957878	0.175338	0.096449
Zn9	Zn	0.957888	0.175342	-0.096515
O10	O	0.925415	0.362284	0.073193
C11	C	0.804574	0.184778	-0.000028
C12	C	0.712623	0.182283	-0.000026
C13	C	0.501074	0.176512	0.079799
C14	C	0.414680	0.174154	0.079796
C15	C	0.414698	0.174164	-0.079879
C16	C	0.501093	0.176513	-0.079875
C17	C	0.544278	0.177694	-0.000033
C18	C	0.371488	0.172986	-0.000040
C19	C	0.277816	0.170430	-0.000044
C20	C	0.637957	0.180248	-0.000029
C21	C	0.996415	-0.059450	-0.000032
C22	C	1.014486	-0.202010	-0.000035
C23	C	0.948550	-0.250991	-0.000035
C24	C	0.967225	-0.398334	-0.000039
C25	C	1.111192	0.165902	-0.000039
C26	C	1.203143	0.168397	-0.000048
C27	C	0.919351	0.410130	-0.000036
C28	C	0.901280	0.552690	-0.000038
N29	N	0.957876	0.175335	0.228142
N30	N	0.957897	0.175335	-0.228208
C31	C	1.026487	0.088037	0.453864
C32	C	1.026490	0.088034	0.546054
C33	C	0.889280	0.262637	0.546064
C34	C	0.889275	0.262633	0.453876
C35	C	0.957883	0.175334	0.407778
C36	C	0.957891	0.175335	0.592156
C37	C	0.957894	0.175333	0.692112
C38	C	0.957879	0.175335	0.307816
H39	H	0.536271	0.177471	-0.144889
C40	C	0.810600	-0.183344	-0.075320
C41	C	0.853676	-0.160358	-0.000033
H42	H	0.752026	-0.127397	-0.075315
H43	H	0.839839	-0.167749	-0.126383
H44	H	0.810709	-0.270474	-0.075313
H45	H	0.853573	-0.073229	-0.000043
H46	H	0.824429	-0.175943	0.051043
H47	H	1.037506	-0.465478	-0.000038
C48	C	1.152444	-0.269637	-0.075328
C49	C	1.109360	-0.292640	-0.000040
H50	H	1.211018	-0.325582	-0.075327
H51	H	1.123211	-0.285225	-0.126390
H52	H	1.152333	-0.182506	-0.075318
H53	H	1.109466	-0.379770	-0.000054
H54	H	1.138601	-0.277062	0.051035
C55	C	0.828369	0.340182	0.687387
C56	C	0.813875	0.358605	0.596738
H57	H	0.781818	0.399439	0.718667
H58	H	0.831186	0.254483	0.702499
H59	H	0.881926	0.354153	0.702473
H60	H	0.760320	0.344625	0.581650
H61	H	0.811048	0.444324	0.581620
H62	H	0.833404	0.333721	0.416350
C63	C	0.763318	-0.379677	0.075256
C64	C	0.806402	-0.356679	-0.000032
H65	H	0.704747	-0.323717	0.075261
H66	H	0.763421	-0.466793	0.075246
H67	H	0.792560	-0.364094	0.126323
H68	H	0.777163	-0.372270	-0.051100
H69	H	0.806294	-0.269542	-0.000030
C70	C	0.492380	0.176245	0.237630
C71	C	0.548548	0.177789	0.167560
H72	H	0.521691	0.177021	0.291811
H73	H	0.441998	0.250169	0.234313
H74	H	0.475370	0.100483	0.234295
H75	H	0.565553	0.253557	0.170893
H76	H	0.598946	0.103858	0.170879
C77	C	1.106016	-0.134271	0.425533
C78	C	1.101897	-0.007961	0.403214
H79	H	1.152569	-0.193547	0.394268
H80	H	1.115820	-0.146722	0.487029
H81	H	1.052455	-0.148212	0.410422
H82	H	1.155456	0.005983	0.418331
H83	H	1.092100	0.004495	0.341704
C84	C	0.342133	0.061163	0.172429
C85	C	0.367196	0.172851	0.167554
H86	H	0.312825	0.060354	0.226612
H87	H	0.304045	0.060138	0.124890
H88	H	0.392536	-0.012749	0.169105
H89	H	0.316792	0.246763	0.170871
H90	H	0.405285	0.173888	0.215106
C91	C	0.423393	0.174417	-0.237711
C92	C	0.367224	0.172886	-0.167639
H93	H	0.394084	0.173626	-0.291890
H94	H	0.440404	0.250167	-0.234383
H95	H	0.473780	0.100481	-0.234387
H96	H	0.316840	0.246828	-0.170959
H97	H	0.350200	0.097128	-0.170969
C98	C	1.143482	0.060220	0.649713
C99	C	1.101903	-0.007922	0.596714
H100	H	1.190036	0.000974	0.680992
H101	H	1.165991	0.113678	0.613744
H102	H	1.102617	0.112205	0.690359
H103	H	1.142766	-0.059901	0.556063
H104	H	1.079395	-0.061403	0.632686
