data_functionalizedCrystal
_audit_creation_method	'MofGen! by Chris Wilmer'
_symmetry_space_group_name_H-M	'P1'
_symmetry_Int_Tables_number	1
_symmetry_cell_setting	triclinic
loop_
_symmetry_equiv_pos_as_xyz
  x,y,z
_cell_length_a	6.817900
_cell_length_b	17.982959
_cell_length_c	11.102193
_cell_angle_alpha	94.235331
_cell_angle_beta	108.604059
_cell_angle_gamma	102.451857
loop_
_atom_site_label
_atom_site_type_symbol
_atom_site_fract_x
_atom_site_fract_y
_atom_site_fract_z
V1	V	-4.080382	-0.105418	-0.396788
O2	O	-4.072042	0.005060	-0.388689
O3	O	-4.026563	-0.209021	-0.394600
O4	O	-4.057634	-0.103799	-0.569602
O5	O	-4.040755	-0.100890	-0.212475
V6	V	-4.561388	-0.092203	-0.374679
O7	O	-4.347161	-0.134406	-0.445286
O8	O	-4.744806	-0.063216	-0.326181
O9	O	-4.392001	0.011399	-0.376868
O10	O	-4.687125	-0.202681	-0.382778
O11	O	-4.718412	-0.096731	-0.558992
O12	O	-4.360929	-0.093822	-0.201866
C13	C	-3.869415	-0.234277	-0.388476
C14	C	-3.906869	-0.318973	-0.387838
C15	C	-3.909049	-0.100055	-0.611706
C16	C	-3.971698	-0.099417	-0.752986
C17	C	-4.107326	-0.362645	-0.393898
C18	C	-4.142510	-0.442227	-0.393306
C19	C	-3.977230	-0.478135	-0.386646
C20	C	-3.776759	-0.434458	-0.380590
C21	C	-3.741582	-0.354879	-0.381191
C22	C	-3.918620	-0.755394	-0.378169
C23	C	-3.953811	-0.834979	-0.377565
C24	C	-4.319548	-0.842742	-0.390285
C25	C	-4.284371	-0.763162	-0.390885
C26	C	-4.083907	-0.719493	-0.384836
C27	C	-4.045760	-0.633202	-0.385480
C28	C	-4.015370	-0.564424	-0.385993
C29	C	-4.050815	-0.238963	-0.790015
C30	C	-4.119798	-0.308434	-0.874901
C31	C	-4.178663	-0.307830	-1.007644
C32	C	-4.168547	-0.237748	-1.055502
C33	C	-4.099564	-0.168277	-0.970617
C34	C	-4.040696	-0.168889	-0.837873
C35	C	-4.020462	-0.028733	-0.933588
C36	C	-3.961582	-0.029335	-0.800844
C37	C	-4.010347	0.041349	-0.981446
C38	C	-3.941348	0.110821	-0.896560
C39	C	-3.882479	0.110214	-0.763809
C40	C	-3.892599	0.040135	-0.715958
C41	C	-4.212490	0.036652	-0.382988
C42	C	-4.154275	0.121347	-0.383634
C43	C	-4.172856	-0.097569	-0.159754
C44	C	-4.089445	-0.098203	-0.018474
H45	H	-4.241915	-0.333413	-0.399309
H46	H	-3.578354	-0.319323	-0.376262
N47	N	-4.358742	-0.489375	-0.399969
H48	H	-4.342873	-0.515210	-0.320867
H49	H	-4.419908	-0.529892	-0.479280
N50	N	-4.462641	-0.724434	-0.398081
H51	H	-4.594978	-0.764177	-0.401840
H52	H	-4.494723	-0.698991	-0.477803
N53	N	-4.535687	-0.889826	-0.396638
H54	H	-4.532877	-0.945683	-0.395193
H55	H	-4.648317	-0.885051	-0.478655
H56	H	-3.755391	-0.719847	-0.373236
N57	N	-3.775537	-0.873711	-0.370380
H58	H	-3.643206	-0.833973	-0.366642
H59	H	-3.820915	-0.913964	-0.449041
N60	N	-3.808095	0.185144	-0.672257
H61	H	-3.810627	0.229626	-0.722723
H62	H	-3.657564	0.190527	-0.611962
H63	H	-3.642191	-0.463702	-0.375175
N64	N	-3.987327	-0.239617	-0.646845
H65	H	-3.942093	-0.184975	-0.600332
H66	H	-3.864354	-0.264600	-0.617838
H67	H	-4.216508	-0.237263	-1.163591
N68	N	-4.130724	-0.384020	-0.823285
H69	H	-4.082965	-0.373865	-0.726313
H70	H	-4.033905	-0.411792	-0.850159
H71	H	-3.844657	0.039635	-0.607874
N72	N	-4.253090	-0.382756	-1.099209
H73	H	-4.250575	-0.427244	-1.048755
H74	H	-4.154855	-0.382952	-1.150678
N75	N	-4.073840	0.042005	-1.124617
H76	H	-4.119067	-0.012637	-1.171132
H77	H	-3.948037	0.072174	-1.144790
H78	H	-3.933133	0.167876	-0.935538
