data_functionalizedCrystal
_audit_creation_method	'MofGen! by Chris Wilmer'
_symmetry_space_group_name_H-M	'P1'
_symmetry_Int_Tables_number	1
_symmetry_cell_setting	triclinic
loop_
_symmetry_equiv_pos_as_xyz
  x,y,z
_cell_length_a	14.853566
_cell_length_b	14.185328
_cell_length_c	14.853567
_cell_angle_alpha	75.242911
_cell_angle_beta	96.365328
_cell_angle_gamma	104.758799
loop_
_atom_site_label
_atom_site_type_symbol
_atom_site_fract_x
_atom_site_fract_y
_atom_site_fract_z
O1	O	1.214617	0.083345	-0.135949
O2	O	0.952161	0.083360	-0.149975
O3	O	1.090400	0.083355	-0.011732
O4	O	1.076377	0.083350	-0.274191
O5	O	1.053852	-0.083484	0.024804
O6	O	0.915613	-0.083479	-0.113438
O7	O	1.178069	-0.083495	-0.099412
Cu8	Cu	1.043504	-0.098721	-0.103089
Cu9	Cu	1.086726	0.098586	-0.146298
O10	O	1.039830	-0.083490	-0.237654
C11	C	0.900299	-0.000057	-0.131071
C12	C	0.800216	-0.000051	-0.129169
C13	C	0.396950	0.090876	-0.141031
C14	C	0.357125	-0.091019	-0.101198
C15	C	0.451160	-0.091016	-0.102986
C16	C	0.518094	-0.000066	-0.123798
C17	C	0.490993	0.090882	-0.142823
C18	C	0.478267	-0.181962	-0.083971
C19	C	0.572307	-0.181962	-0.085760
C20	C	0.639243	-0.091011	-0.106566
C21	C	0.612138	-0.000060	-0.125590
C22	C	0.679072	0.090890	-0.146402
C23	C	0.651969	0.181843	-0.165420
C24	C	0.557930	0.181833	-0.163629
C25	C	0.733282	-0.091001	-0.108357
C26	C	0.773115	0.090896	-0.148194
N27	N	1.013111	-0.237496	-0.072697
C28	C	1.206349	-0.605120	-0.265998
C29	C	1.183348	-0.710144	-0.242963
C30	C	1.073877	-0.710120	-0.133414
C31	C	1.096866	-0.605093	-0.156443
C32	C	1.163104	-0.552601	-0.222735
C33	C	1.053620	-0.552575	-0.113180
C34	C	1.076612	-0.447557	-0.136204
C35	C	1.142848	-0.395058	-0.202491
C36	C	1.186095	-0.447584	-0.245759
C37	C	0.987388	-0.605069	-0.046884
C38	C	0.944142	-0.552551	-0.003621
C39	C	0.967128	-0.447531	-0.026649
C40	C	1.033365	-0.395032	-0.092936
C41	C	0.923882	-0.395006	0.016619
C42	C	0.946873	-0.289988	-0.006405
C43	C	1.056356	-0.290014	-0.115960
C44	C	1.229932	-0.000075	-0.118315
C45	C	1.330016	-0.000075	-0.120219
C46	C	1.071492	-0.000062	0.040124
C47	C	1.069590	-0.000053	0.140206
N48	N	1.117126	0.237361	-0.176682
C49	C	1.058739	-0.000071	-0.289511
C50	C	1.060642	-0.000073	-0.389594
C51	C	0.979421	-0.000067	0.552742
C52	C	1.143652	-0.000076	0.574026
C53	C	1.145443	-0.000070	0.479991
C54	C	1.064222	-0.000064	0.422328
C55	C	0.981209	-0.000064	0.458699
C56	C	1.228452	-0.000081	0.443615
C57	C	1.230246	-0.000076	0.349575
C58	C	1.149026	-0.000063	0.291908
C59	C	1.066010	-0.000061	0.328284
C60	C	0.984789	-0.000055	0.270621
C61	C	0.901774	-0.000047	0.306994
C62	C	0.899988	-0.000050	0.401032
C63	C	1.150811	-0.000059	0.197869
C64	C	0.986577	-0.000052	0.176577
H65	H	0.423763	-0.256009	-0.067033
C66	C	0.725608	0.281885	-0.188314
N67	N	0.781076	0.357234	-0.205555
H68	H	0.374878	0.164927	-0.156511
H69	H	0.302622	-0.165067	-0.084260
H70	H	1.294576	-0.000095	0.490573
C71	C	0.808675	-0.000062	0.441055
N72	N	0.739897	-0.000079	0.471206
H73	H	0.755344	-0.165053	-0.092882
C74	C	0.528108	0.281871	-0.184553
N75	N	0.505641	0.357219	-0.200315
C76	C	0.602112	-0.282011	-0.064830
N77	N	0.624563	-0.357368	-0.049061
H78	H	0.869958	-0.437760	0.070601
H79	H	1.110283	-0.247272	-0.169951
C80	C	1.230936	-0.767911	-0.290553
N81	N	1.266784	-0.811420	-0.326392
H82	H	0.911656	-0.247227	0.028822
H83	H	1.161568	-0.309546	-0.221234
H84	H	1.240022	-0.404842	-0.299750
C85	C	1.001013	-0.767873	-0.060499
N86	N	0.946127	-0.811372	-0.005581
H87	H	0.911833	-0.000056	0.582361
H88	H	1.297843	-0.000082	0.319968
C89	C	1.279209	-0.547372	-0.338927
N90	N	1.334087	-0.503877	-0.393854
C91	C	1.232989	-0.000088	0.637460
N92	N	1.300281	-0.000095	0.685242
C93	C	0.871278	-0.610304	0.069295
N94	N	0.816392	-0.653803	0.124212
C95	C	1.242122	-0.000069	0.157863
N96	N	1.310903	-0.000073	0.127731
H97	H	0.968676	-0.690581	-0.028134
C98	C	0.846738	0.190951	-0.171086
N99	N	0.902190	0.266313	-0.188329
C100	C	0.897226	-0.000042	0.113153
N101	N	0.829925	-0.000036	0.065383
H102	H	0.835642	-0.000048	0.260033
