data_functionalizedCrystal
_audit_creation_method	'MofGen! by Chris Wilmer'
_symmetry_space_group_name_H-M	'P1'
_symmetry_Int_Tables_number	1
_symmetry_cell_setting	triclinic
loop_
_symmetry_equiv_pos_as_xyz
  x,y,z
_cell_length_a	29.839134
_cell_length_b	25.639239
_cell_length_c	25.639234
_cell_angle_alpha	89.975416
_cell_angle_beta	90.027955
_cell_angle_gamma	89.966453
loop_
_atom_site_label
_atom_site_type_symbol
_atom_site_fract_x
_atom_site_fract_y
_atom_site_fract_z
Zn1	Zn	0.686755	0.208256	0.295756
Zn2	Zn	1.186755	0.708256	0.795756
Zn3	Zn	0.686683	0.295684	0.208320
Zn4	Zn	1.186683	0.795684	0.708320
Zn5	Zn	0.611630	0.208256	0.208318
Zn6	Zn	1.111630	0.708256	0.708318
Zn7	Zn	0.611589	0.295654	0.295708
Zn8	Zn	1.111589	0.795654	0.795708
O9	O	0.649164	0.251963	0.252026
O10	O	1.149164	0.751963	0.752026
O11	O	0.749612	0.219866	0.284178
O12	O	1.249612	0.719866	0.784178
O13	O	0.676714	0.284099	0.135155
O14	O	1.176714	0.784099	0.635155
O15	O	0.621642	0.135091	0.219936
O16	O	1.121642	0.635091	0.719936
O17	O	0.749559	0.284098	0.219939
O18	O	1.249559	0.784098	0.719939
O19	O	0.676836	0.135091	0.284176
O20	O	1.176836	0.635091	0.784176
O21	O	0.621572	0.219866	0.135153
O22	O	1.121572	0.719866	0.635153
O23	O	0.548757	0.219838	0.219890
O24	O	1.048757	0.719838	0.719890
O25	O	0.621573	0.284048	0.368880
O26	O	1.121573	0.784048	0.868880
O27	O	0.548727	0.284049	0.284095
O28	O	1.048727	0.784049	0.784095
O29	O	0.676797	0.219837	0.368915
O30	O	1.176797	0.719837	0.868915
O31	O	0.676674	0.368845	0.219893
O32	O	1.176674	0.868845	0.719893
O33	O	0.621503	0.368823	0.284097
O34	O	1.121503	0.868823	0.784097
C35	C	0.649088	0.387805	0.252002
C36	C	1.149088	0.887805	0.752002
C37	C	0.649097	0.445919	0.252009
C38	C	1.149097	0.945919	0.752009
C39	C	0.532441	0.251940	0.251988
C40	C	1.032441	0.751940	0.751988
C41	C	0.482507	0.251943	0.251984
C42	C	0.982507	0.751943	0.751984
C43	C	0.649188	0.251939	0.388399
C44	C	1.149188	0.751939	0.888399
C45	C	0.649199	0.251930	0.446513
C46	C	1.149199	0.751930	0.946513
C47	C	0.172857	0.285447	0.285416
C48	C	0.672857	0.785447	0.785416
C49	C	-0.014816	0.285461	0.285439
C50	C	0.485184	0.785461	0.785439
O51	O	-0.039086	0.313922	0.313842
O52	O	0.460914	0.813922	0.813842
N53	N	-0.038278	0.251982	0.252065
N54	N	0.461722	0.751982	0.752065
C55	C	-0.014820	0.218494	0.218685
C56	C	0.485180	0.718494	0.718685
O57	O	-0.039082	0.190014	0.190302
O58	O	0.460918	0.690014	0.690302
C59	C	0.172853	0.218477	0.218664
C60	C	0.672853	0.718477	0.718664
C61	C	0.196313	0.251962	0.252037
C62	C	0.696313	0.751962	0.752037
C63	C	0.196317	0.318929	0.318787
C64	C	0.696317	0.818929	0.818787
C65	C	0.243233	0.318927	0.318779
C66	C	0.743233	0.818927	0.818779
C67	C	0.266688	0.285443	0.285400
C68	C	0.766688	0.785443	0.785400
C69	C	0.243228	0.251960	0.252029
C70	C	0.743228	0.751960	0.752029
C71	C	0.196310	0.184986	0.185287
C72	C	0.696310	0.684986	0.685287
C73	C	0.243232	0.184984	0.185286
C74	C	0.743232	0.684984	0.685286
C75	C	0.266692	0.218470	0.218659
C76	C	0.766692	0.718470	0.718659
C77	C	0.313599	0.218474	0.218642
C78	C	0.813599	0.718474	0.718642
N79	N	0.337061	0.251953	0.252017
N80	N	0.837061	0.751953	0.752017
C81	C	0.313606	0.285438	0.285396
C82	C	0.813606	0.785438	0.785396
C83	C	-0.113350	0.218506	0.218697
C84	C	0.386650	0.718506	0.718697
C85	C	-0.160268	0.218510	0.218701
C86	C	0.339732	0.718510	0.718701
C87	C	-0.160261	0.285478	0.285457
C88	C	0.339739	0.785478	0.785457
C89	C	-0.113342	0.285475	0.285450
C90	C	0.386658	0.785475	0.785450
C91	C	-0.089888	0.251985	0.252071
C92	C	0.410112	0.751985	0.752071
C93	C	0.412132	0.285431	0.285376
C94	C	0.912132	0.785431	0.785376
C95	C	0.459052	0.285428	0.285363
C96	C	0.959052	0.785428	0.785363
C97	C	0.459040	0.218459	0.218609
C98	C	0.959040	0.718459	0.718609
C99	C	0.412125	0.218464	0.218620
C100	C	0.912125	0.718464	0.718620
C101	C	0.388672	0.251952	0.252007
C102	C	0.888672	0.751952	0.752007
O103	O	0.337898	0.190023	0.190258
O104	O	0.837898	0.690023	0.690258
O105	O	0.337877	0.313905	0.313782
O106	O	0.837877	0.813905	0.813782
C107	C	0.125942	0.285449	0.285424
C108	C	0.625942	0.785449	0.785424
C109	C	0.102482	0.251966	0.252054
C110	C	0.602482	0.751966	0.752054
C111	C	0.125937	0.218482	0.218675
C112	C	0.625937	0.718482	0.718675
C113	C	0.055564	0.251971	0.252058
C114	C	0.555564	0.751971	0.752058
C115	C	0.032109	0.285455	0.285437
C116	C	0.532109	0.785455	0.785437
C117	C	0.055571	0.318935	0.318811
C118	C	0.555571	0.818935	0.818811
C119	C	0.102487	0.318933	0.318803
C120	C	0.602487	0.818933	0.818803
C121	C	0.102475	0.185002	0.185300
C122	C	0.602475	0.685002	0.685300
C123	C	0.055559	0.185007	0.185311
C124	C	0.555559	0.685007	0.685311
C125	C	0.032104	0.218492	0.218690
C126	C	0.532104	0.718492	0.718690
C127	C	0.766342	0.251985	0.252064
C128	C	1.266342	0.751985	0.752064
C129	C	0.816277	0.251995	0.252080
C130	C	1.316277	0.751995	0.752080
C131	C	0.649252	0.115589	0.252061
C132	C	1.149252	0.615589	0.752061
C133	C	0.649290	0.057475	0.252076
C134	C	1.149290	0.557475	0.752076
C135	C	0.677966	0.806281	0.218652
C136	C	1.177966	1.306281	0.718652
C137	C	0.677984	0.860885	0.218659
C138	C	1.177984	1.360885	0.718659
O139	O	0.702451	0.889121	0.190271
O140	O	1.202451	1.389121	0.690271
N141	N	0.649243	0.888202	0.252060
N142	N	1.149243	1.388202	0.752060
C143	C	0.620486	0.860911	0.285461
C144	C	1.120486	1.360911	0.785461
O145	O	0.596041	0.889160	0.313873
O146	O	1.096041	1.389160	0.813873
C147	C	0.620471	0.806308	0.285456
C148	C	1.120471	1.306308	0.785456
C149	C	0.649211	0.778994	0.252048
C150	C	1.149211	1.278994	0.752048
C151	C	0.706704	0.778967	0.185247
C152	C	1.206704	1.278967	0.685247
C153	C	0.706686	0.724367	0.185240
C154	C	1.206686	1.224367	0.685240
C155	C	0.677930	0.697080	0.218636
C156	C	1.177930	1.197080	0.718636
C157	C	0.649193	0.724393	0.252041
C158	C	1.149193	1.224393	0.752041
C159	C	0.591717	0.779018	0.318859
C160	C	1.091717	1.279018	0.818859
C161	C	0.591704	0.724411	0.318852
C162	C	1.091704	1.224411	0.818852
C163	C	0.620444	0.697097	0.285444
C164	C	1.120444	1.197097	0.785444
C165	C	0.620419	0.642506	0.285430
C166	C	1.120419	1.142506	0.785430
N167	N	0.649160	0.615190	0.252029
N168	N	1.149160	1.115190	0.752029
C169	C	0.677915	0.642476	0.218632
C170	C	1.177915	1.142476	0.718632
C171	C	0.620520	0.975581	0.285469
C172	C	1.120520	1.475581	0.785469
C173	C	0.620532	1.030184	0.285471
C174	C	1.120532	1.530184	0.785471
C175	C	0.678031	1.030154	0.218670
C176	C	1.178031	1.530154	0.718670
C177	C	0.678016	0.975551	0.218665
C178	C	1.178016	1.475551	0.718665
C179	C	0.649261	0.948265	0.252067
C180	C	1.149261	1.448265	0.752067
C181	C	0.677875	0.527811	0.218618
C182	C	1.177875	1.027811	0.718618
C183	C	0.677853	0.473206	0.218612
C184	C	1.177853	0.973206	0.718612
C185	C	0.620356	0.473240	0.285415
C186	C	1.120356	0.973240	0.785415
C187	C	0.620376	0.527841	0.285420
C188	C	1.120376	1.027841	0.785420
C189	C	0.649139	0.555125	0.252019
C190	C	1.149139	1.055125	0.752019
O191	O	0.595965	0.614236	0.313805
O192	O	1.095965	1.114236	0.813805
O193	O	0.702360	0.614221	0.190230
O194	O	1.202360	1.114221	0.690230
C195	C	0.649165	0.251948	0.116183
C196	C	1.149165	0.751948	0.616183
C197	C	0.649242	0.251810	0.058069
C198	C	1.149242	0.751810	0.558069
C199	C	0.677922	0.285333	0.697699
C200	C	1.177922	0.785333	1.197699
C201	C	0.677918	0.285343	0.643095
C202	C	1.177918	0.785343	1.143095
O203	O	0.702319	0.313802	0.614852
O204	O	1.202319	0.813802	1.114852
N205	N	0.649208	0.251904	0.615787
N206	N	1.149208	0.751904	1.115787
C207	C	0.620499	0.218456	0.643085
C208	C	1.120499	0.718456	1.143085
O209	O	0.596079	0.190014	0.614844
O210	O	1.096079	0.690014	1.114844
C211	C	0.620502	0.218448	0.697689
C212	C	1.120502	0.718448	1.197689
C213	C	0.649216	0.251885	0.724994
C214	C	1.149216	0.751885	1.224994
C215	C	0.706634	0.318768	0.725005
C216	C	1.206634	0.818768	1.225005
C217	C	0.706639	0.318756	0.779605
C218	C	1.206639	0.818756	1.279605
C219	C	0.677933	0.285309	0.806900
C220	C	1.177933	0.785309	1.306900
C221	C	0.649221	0.251874	0.779595
C222	C	1.149221	0.751874	1.279595
C223	C	0.591790	0.185002	0.724987
C224	C	1.091790	0.685002	1.224987
C225	C	0.591795	0.184997	0.779594
C226	C	1.091795	0.684997	1.279594
C227	C	0.620509	0.218435	0.806899
C228	C	1.120509	0.718435	1.306899
C229	C	0.620520	0.218415	0.861490
C230	C	1.120520	0.718415	1.361490
N231	N	0.649229	0.251854	0.888799
N232	N	1.149229	0.751854	1.388799
C233	C	0.677936	0.285301	0.861504
C234	C	1.177936	0.785301	1.361504
C235	C	0.620495	0.218475	0.528415
C236	C	1.120495	0.718475	1.028415
C237	C	0.620494	0.218480	0.473812
C238	C	1.120494	0.718480	0.973812
C239	C	0.677912	0.285369	0.473826
C240	C	1.177912	0.785369	0.973826
C241	C	0.677915	0.285361	0.528429
C242	C	1.177915	0.785361	1.028429
C243	C	0.649204	0.251915	0.555723
C244	C	1.149204	0.751915	1.055723
C245	C	0.677945	0.285274	0.976169
C246	C	1.177945	0.785274	1.476169
C247	C	0.677949	0.285257	1.030774
C248	C	1.177949	0.785257	1.530774
C249	C	0.620529	0.218371	1.030756
C250	C	1.120529	0.718371	1.530756
C251	C	0.620526	0.218385	0.976156
C252	C	1.120526	0.718385	1.476156
C253	C	0.649236	0.251841	0.948863
C254	C	1.149236	0.751841	1.448863
O255	O	0.596130	0.189973	0.889768
O256	O	1.096130	0.689973	1.389768
O257	O	0.702348	0.313743	0.889752
O258	O	1.202348	0.813743	1.389752
H259	H	0.478151	0.312698	0.312540
H260	H	0.978151	0.812698	0.812540
C261	C	0.534876	0.729929	0.384890
C262	C	1.034876	1.229929	0.884890
C263	C	0.560095	0.694419	0.355570
C264	C	1.060095	1.194419	0.855570
H265	H	0.515361	0.711413	0.407556
H266	H	1.015361	1.211413	0.907556
H267	H	0.554448	0.751193	0.404912
H268	H	1.054448	1.251193	0.904912
H269	H	0.517710	0.751258	0.362086
H270	H	1.017710	1.251258	0.862086
H271	H	0.577264	0.673092	0.378374
H272	H	1.077264	1.173092	0.878374
H273	H	0.540520	0.673146	0.335546
H274	H	1.040520	1.173146	0.835546
C275	C	0.732158	0.348439	0.863309
C276	C	1.232158	0.848439	1.363309
C277	C	0.738207	0.355508	0.809616
C278	C	1.238207	0.855508	1.309616
H279	H	0.751652	0.371126	0.881832
H280	H	1.251652	0.871126	1.381832
H281	H	0.701976	0.356092	0.872245
H282	H	1.201976	0.856092	1.372245
H283	H	0.738754	0.313307	0.872264
H284	H	1.238754	0.813307	1.372264
H285	H	0.731609	0.390639	0.800660
H286	H	1.231609	0.890639	1.300660
H287	H	0.768397	0.347859	0.800676
H288	H	1.268397	0.847859	1.300676
H289	H	0.730090	0.702131	0.158038
H290	H	1.230090	1.202131	0.658038
H291	H	0.597117	0.191246	0.451585
H292	H	1.097117	0.691246	0.951585
H293	H	0.568407	0.157775	0.702764
H294	H	1.068407	0.657775	1.202764
H295	H	0.597158	0.191138	1.052990
H296	H	1.097158	0.691138	1.552990
C297	C	0.238508	0.118790	0.119299
C298	C	0.738508	0.618790	0.619299
C299	C	0.269012	0.148175	0.148589
C300	C	0.769012	0.648175	0.648589
H301	H	0.254424	0.096071	0.096642
H302	H	0.754424	0.596071	0.596642
H303	H	0.220233	0.098823	0.142119
H304	H	0.720233	0.598823	0.642119
H305	H	0.220185	0.141551	0.099266
H306	H	0.720185	0.641551	0.599266
H307	H	0.287333	0.125415	0.168626
H308	H	0.787333	0.625415	0.668626
H309	H	0.287295	0.168143	0.125767
H310	H	0.787295	0.668143	0.625767
H311	H	0.177225	0.346196	0.345971
H312	H	0.677225	0.846196	0.845971
H313	H	0.701297	0.312589	0.550658
H314	H	1.201297	0.812589	1.050658
C315	C	0.416833	0.152270	0.152634
C316	C	0.916833	0.652270	0.652634
C317	C	0.386335	0.181659	0.181934
C318	C	0.886335	0.681659	0.681934
H319	H	0.400913	0.129543	0.129991
H320	H	0.900913	0.629543	0.629991
H321	H	0.435107	0.175023	0.132590
H322	H	0.935107	0.675023	0.632590
H323	H	0.435158	0.132305	0.175452
H324	H	0.935158	0.632305	0.675452
H325	H	0.368012	0.201627	0.159116
H326	H	0.868012	0.701627	0.659116
H327	H	0.368053	0.158903	0.201980
H328	H	0.868053	0.658903	0.701980
C329	C	0.563744	0.152353	0.522908
C330	C	1.063744	0.652353	1.022908
C331	C	0.588939	0.181700	0.558414
C332	C	1.088939	0.681700	1.058414
H333	H	0.544265	0.129648	0.541428
H334	H	1.044265	0.629648	1.041428
H335	H	0.546544	0.175134	0.501599
H336	H	1.046544	0.675134	1.001599
H337	H	0.583337	0.132367	0.501624
H338	H	1.083337	0.632367	1.001624
H339	H	0.569345	0.201689	0.579696
H340	H	1.069345	0.701689	1.079696
H341	H	0.606140	0.158917	0.579732
H342	H	1.106140	0.658917	1.079732
H343	H	0.701326	0.312513	0.953954
H344	H	1.201326	0.812513	1.453954
C345	C	-0.060551	0.292833	0.355764
C346	C	0.439449	0.792833	0.855764
C347	C	-0.087556	0.322279	0.322137
C348	C	0.412444	0.822279	0.822137
H349	H	-0.044632	0.315555	0.378412
H350	H	0.455368	0.815555	0.878412
H351	H	-0.078836	0.270087	0.375802
H352	H	0.421164	0.770087	0.875802
H353	H	-0.039866	0.272893	0.335881
H354	H	0.460134	0.772893	0.835881
H355	H	-0.108244	0.342216	0.342020
H356	H	0.391756	0.842216	0.842020
H357	H	-0.069269	0.345034	0.302096
H358	H	0.430731	0.845034	0.802096
C359	C	0.416865	0.351627	0.351359
C360	C	0.916865	0.851627	0.851359
C361	C	0.386357	0.322242	0.322074
C362	C	0.886357	0.822242	0.822074
H363	H	0.400951	0.374355	0.374011
H364	H	0.900951	0.874355	0.874011
H365	H	0.435184	0.328872	0.371393
H366	H	0.935184	0.828872	0.871393
H367	H	0.435143	0.371590	0.328531
H368	H	0.935143	0.871590	0.828531
H369	H	0.368081	0.302276	0.344902
H370	H	0.868081	0.802276	0.844902
H371	H	0.368030	0.345001	0.302039
H372	H	0.868030	0.845001	0.802039
C373	C	0.763529	0.773439	0.119212
C374	C	1.263529	1.273439	0.619212
C375	C	0.738314	0.808955	0.148530
C376	C	1.238314	1.308955	0.648530
H377	H	0.783041	0.791950	0.096539
H378	H	1.283041	1.291950	0.596539
H379	H	0.780696	0.752116	0.142014
H380	H	1.280696	1.252116	0.642014
H381	H	0.743951	0.752170	0.099195
H382	H	1.243951	1.252170	0.599195
H383	H	0.757892	0.830221	0.168550
H384	H	1.257892	1.330221	0.668550
H385	H	0.721146	0.830287	0.125725
H386	H	1.221146	1.330287	0.625725
H387	H	0.701256	0.450969	0.191406
H388	H	1.201256	0.950969	0.691406
C389	C	0.684095	0.355713	0.412404
C390	C	1.184095	0.855713	0.912404
C391	C	0.709464	0.322141	0.443817
C392	C	1.209464	0.822141	0.943817
H393	H	0.703573	0.378414	0.393881
H394	H	1.203573	0.878414	0.893881
H395	H	0.666999	0.335796	0.388332
H396	H	1.166999	0.835796	0.888332
H397	H	0.664512	0.375701	0.433699
H398	H	1.164512	0.875701	0.933699
H399	H	0.729045	0.302149	0.422522
H400	H	1.229045	0.802149	0.922522
H401	H	0.726567	0.342059	0.467892
H402	H	1.226567	0.842059	0.967892
C403	C	0.563542	0.522383	0.351453
C404	C	1.063542	1.022383	0.851453
C405	C	0.588786	0.557867	0.322141
C406	C	1.088786	1.057867	0.822141
H407	H	0.544044	0.540918	0.374128
H408	H	1.044044	1.040918	0.874128
H409	H	0.546360	0.501123	0.328647
H410	H	1.046360	1.001123	0.828647
H411	H	0.583104	0.501047	0.371468
H412	H	1.083104	1.001047	0.871468
H413	H	0.569224	0.579201	0.302123
H414	H	1.069224	1.079201	0.802123
H415	H	0.605969	0.579136	0.344950
H416	H	1.105969	1.079136	0.844950
H417	H	0.036462	0.157740	0.158130
H418	H	0.536462	0.657740	0.658130
H419	H	-0.179366	0.312742	0.312635
H420	H	0.320634	0.812742	0.812635
H421	H	0.730011	0.346007	0.702787
H422	H	1.230011	0.846007	1.202787
H423	H	0.568414	0.157761	0.801814
H424	H	1.068414	0.657761	1.301814
H425	H	0.597100	0.953368	0.312667
H426	H	1.097100	1.453368	0.812667
C427	C	0.614319	0.148061	0.914761
C428	C	1.114319	0.648061	1.414761
C429	C	0.588966	0.181626	0.946141
C430	C	1.088966	0.681626	1.446141
H431	H	0.594832	0.125368	0.896238
H432	H	1.094832	0.625368	1.396238
H433	H	0.631408	0.167983	0.890689
H434	H	1.131408	0.667983	1.390689
H435	H	0.633909	0.128063	0.936078
H436	H	1.133909	0.628063	1.436078
H437	H	0.569378	0.201627	0.924823
H438	H	1.069378	0.701627	1.424823
H439	H	0.571870	0.161702	0.970216
H440	H	1.071870	0.661702	1.470216
C441	C	0.754010	0.310743	1.047603
C442	C	1.254010	0.810743	1.547603
C443	C	0.709514	0.322017	1.060785
C444	C	1.209514	0.822017	1.560785
H445	H	0.773495	0.333439	1.066126
H446	H	1.273495	0.833439	1.566126
H447	H	0.760606	0.275618	1.056567
H448	H	1.260606	0.775618	1.556567
H449	H	0.758105	0.315534	1.011174
H450	H	1.258105	0.815534	1.511174
H451	H	0.705417	0.317221	1.097213
H452	H	1.205417	0.817221	1.597213
H453	H	0.702916	0.357150	1.051824
H454	H	1.202916	0.857150	1.551824
C455	C	0.155277	0.326294	0.389118
C456	C	0.655277	0.826294	0.889118
C457	C	0.128271	0.355738	0.355492
C458	C	0.628271	0.855738	0.855492
H459	H	0.171194	0.349017	0.411767
H460	H	0.671194	0.849017	0.911767
H461	H	0.136994	0.303544	0.409155
H462	H	0.636994	0.803544	0.909155
H463	H	0.175965	0.306357	0.369234
H464	H	0.675965	0.806357	0.869234
H465	H	0.107581	0.375672	0.375375
H466	H	0.607581	0.875672	0.875375
H467	H	0.146556	0.378496	0.335453
H468	H	0.646556	0.878496	0.835453
C469	C	0.734850	0.981019	0.152635
C470	C	1.234850	1.481019	0.652635
C471	C	0.709610	0.945531	0.181946
C472	C	1.209610	1.445531	0.681946
H473	H	0.754358	0.962487	0.129969
H474	H	1.254358	1.462487	0.629969
H475	H	0.715290	1.002344	0.132615
H476	H	1.215290	1.502344	0.632615
H477	H	0.752026	1.002289	0.175446
H478	H	1.252026	1.502289	0.675446
H479	H	0.692432	0.924263	0.159136
H480	H	1.192432	1.424263	0.659136
H481	H	0.729172	0.924196	0.201967
H482	H	1.229172	1.424196	0.701967
H483	H	0.262330	0.346193	0.345956
H484	H	0.762330	0.846193	0.845956
C485	C	0.594811	0.389545	0.315065
C486	C	1.094811	0.889545	0.815065
C487	C	0.588751	0.443239	0.322127
C488	C	1.088751	0.943239	0.822127
H489	H	0.575302	0.371024	0.337734
H490	H	1.075302	0.871024	0.837734
H491	H	0.588247	0.380628	0.279930
H492	H	1.088247	0.880628	0.779930
H493	H	0.624992	0.380569	0.322749
H494	H	1.124992	0.880569	0.822749
H495	H	0.558570	0.452216	0.314438
H496	H	1.058570	0.952216	0.814438
H497	H	0.595311	0.452161	0.357269
H498	H	1.095311	0.952161	0.857269
C499	C	0.155261	0.114654	0.178144
C500	C	0.655261	0.614654	0.678144
C501	C	0.128253	0.148195	0.148605
C502	C	0.628253	0.648195	0.648605
H503	H	0.171172	0.091929	0.155486
H504	H	0.671172	0.591929	0.655486
H505	H	0.175950	0.134591	0.198011
H506	H	0.675950	0.634591	0.698011
H507	H	0.136976	0.094688	0.200962
H508	H	0.636976	0.594688	0.700962
H509	H	0.146538	0.168164	0.125789
H510	H	0.646538	0.668164	0.625789
H511	H	0.107561	0.128256	0.128729
H512	H	0.607561	0.628256	0.628729
H513	H	0.701298	0.550020	0.191421
H514	H	1.201298	1.050020	0.691421
C515	C	0.703640	1.113849	0.189090
C516	C	1.203640	1.613849	0.689090
C517	C	0.709680	1.060155	0.182005
C518	C	1.209680	1.560155	0.682005
H519	H	0.723191	1.132370	0.166470
H520	H	1.223191	1.632370	0.666470
H521	H	0.673478	1.122852	0.181357
H522	H	1.173478	1.622852	0.681357
H523	H	0.710162	1.122740	0.224246
H524	H	1.210162	1.622740	0.724246
H525	H	0.703155	1.051264	0.146849
H526	H	1.203155	1.551264	0.646849
H527	H	0.739850	1.051148	0.189734
H528	H	1.239850	1.551148	0.689734
H529	H	-0.179365	0.191248	0.191520
H530	H	0.320635	0.691248	0.691520
H531	H	-0.094258	0.191233	0.191514
H532	H	0.405742	0.691233	0.691514
C533	C	0.614268	1.091553	0.355802
C534	C	1.114268	1.591553	0.855802
C535	C	0.588938	1.060204	0.322190
C536	C	1.088938	1.560204	0.822190
H537	H	0.594763	1.110087	0.378471
H538	H	1.094763	1.610087	0.878471
H539	H	0.633821	1.070218	0.375820
H540	H	1.133821	1.570218	0.875820
H541	H	0.631393	1.115621	0.335910
H542	H	1.131393	1.615621	0.835910
H543	H	0.571815	1.036134	0.342082
H544	H	1.071815	1.536134	0.842082
H545	H	0.569376	1.081541	0.302170
H546	H	1.069376	1.581541	0.802170
H547	H	0.177217	0.157720	0.158110
H548	H	0.677217	0.657720	0.658110
H549	H	0.478146	0.191198	0.191432
H550	H	0.978146	0.691198	0.691432
C551	C	0.041154	0.344522	0.407302
C552	C	0.541154	0.844522	0.907302
C553	C	0.029783	0.355740	0.355505
C554	C	0.529783	0.855740	0.855505
H555	H	0.025234	0.367243	0.429955
H556	H	0.525234	0.867243	0.929955
H557	H	0.033488	0.309406	0.415010
H558	H	0.533488	0.809406	0.915010
H559	H	0.072454	0.349320	0.412071
H560	H	0.572454	0.849320	0.912071
H561	H	-0.001517	0.350939	0.350735
H562	H	0.498483	0.850939	0.850735
H563	H	0.037447	0.390864	0.347795
H564	H	0.537447	0.890864	0.847795
H565	H	0.568311	0.801247	0.346061
H566	H	1.068311	1.301247	0.846061
