data_functionalizedCrystal
_audit_creation_method	'MofGen! by Chris Wilmer'
_symmetry_space_group_name_H-M	'P1'
_symmetry_Int_Tables_number	1
_symmetry_cell_setting	triclinic
loop_
_symmetry_equiv_pos_as_xyz
  x,y,z
_cell_length_a	31.640172
_cell_length_b	18.878441
_cell_length_c	18.878441
_cell_angle_alpha	90.001442
_cell_angle_beta	60.007187
_cell_angle_gamma	59.999889
loop_
_atom_site_label
_atom_site_type_symbol
_atom_site_fract_x
_atom_site_fract_y
_atom_site_fract_z
Zr1	Zr	0.462586	-0.092940	0.682497
O2	O	0.550750	-0.206043	0.569413
O3	O	0.374420	-0.058270	0.717150
O4	O	0.462584	-0.206043	0.717171
O5	O	0.462589	0.058298	0.569392
O6	O	0.462584	-0.206042	0.833740
O7	O	0.462586	-0.058269	0.569392
O8	O	0.304875	0.058298	0.833703
O9	O	0.620298	-0.206042	0.569429
O10	O	0.410685	-0.043481	0.818940
O11	O	0.410687	0.043512	0.731945
O12	O	0.514488	-0.130473	0.731970
O13	O	0.514490	-0.043480	0.644975
Zr14	Zr	0.462591	0.092974	0.868411
Zr15	Zr	0.462587	-0.092939	0.868412
Zr16	Zr	0.462590	0.092972	0.682496
Zr17	Zr	0.573506	-0.092938	0.682523
Zr18	Zr	0.351670	0.092972	0.868386
O19	O	0.550756	0.058303	0.833759
O20	O	0.550751	-0.206041	0.833760
O21	O	0.550756	0.058300	0.569412
O22	O	0.374426	0.206076	0.981496
O23	O	0.374421	-0.058267	0.981497
O24	O	0.374426	0.206074	0.717148
O25	O	0.462588	-0.058265	0.981517
O26	O	0.462593	0.206076	0.833738
O27	O	0.462593	0.206075	0.717168
O28	O	0.462590	0.058303	0.981517
O29	O	0.620298	-0.206040	0.717207
O30	O	0.304879	0.206073	0.833702
O31	O	0.304879	0.206075	0.981480
O32	O	0.304876	0.058300	0.981480
O33	O	0.620301	-0.058266	0.569428
O34	O	0.620301	-0.058265	0.717206
O35	O	0.410689	0.130506	0.818939
O36	O	0.410687	0.043514	0.905934
O37	O	0.514490	-0.043479	0.818964
O38	O	0.514492	0.043514	0.731969
C39	C	0.323844	0.000014	0.775422
C40	C	0.276755	0.000013	0.775412
C41	C	0.462588	0.000014	0.542903
C42	C	0.462587	0.000013	0.463977
C43	C	0.462593	0.232564	0.775453
C44	C	0.462595	0.311489	0.775453
C45	C	-0.015287	-0.045385	0.820882
C46	C	-0.192283	-0.045384	0.820900
O47	O	-0.215189	-0.083972	0.859552
N48	N	-0.214411	0.000023	0.775489
C49	C	-0.192291	0.045438	0.730074
O50	O	-0.215178	0.084068	0.691456
C51	C	-0.015299	0.045443	0.730062
C52	C	0.006831	0.000025	0.775469
C53	C	0.006842	-0.090798	0.866287
C54	C	0.051091	-0.090801	0.866278
C55	C	0.073210	-0.045392	0.820865
C56	C	0.051080	0.000021	0.775460
C57	C	0.006818	0.090862	0.684653
C58	C	0.051068	0.090861	0.684655
C59	C	0.073198	0.045443	0.730063
C60	C	0.117447	0.045427	0.730038
N61	N	0.139576	0.000020	0.775450
C62	C	0.117457	-0.045389	0.820863
C63	C	-0.285213	0.045432	0.730082
C64	C	-0.329460	0.045430	0.730084
C65	C	-0.329450	-0.045392	0.820912
C66	C	-0.285199	-0.045394	0.820904
C67	C	-0.263085	0.000024	0.775494
C68	C	0.210382	-0.045394	0.820841
C69	C	0.254637	-0.045396	0.820825
C70	C	0.254621	0.045428	0.730001
C71	C	0.210373	0.045427	0.730013
C72	C	0.188253	0.000014	0.775439
O73	O	0.140375	0.084003	0.691415
O74	O	0.140342	-0.083997	0.859491
C75	C	-0.059536	-0.045381	0.820891
C76	C	-0.081666	0.000032	0.775487
C77	C	-0.059547	0.045442	0.730073
C78	C	-0.125913	0.000030	0.775488
C79	C	-0.148031	-0.045380	0.820902
C80	C	-0.125903	-0.090787	0.866313
C81	C	-0.081655	-0.090791	0.866304
C82	C	-0.081675	0.090849	0.684662
C83	C	-0.125923	0.090848	0.684673
C84	C	-0.148042	0.045438	0.730087
C85	C	0.601333	0.000019	0.775486
C86	C	0.648421	0.000020	0.775497
C87	C	0.462583	-0.232531	0.775456
C88	C	0.462582	-0.311456	0.775456
C89	C	0.516778	0.303161	0.730057
C90	C	0.516776	0.377322	0.730052
C91	C	0.462590	0.459810	0.775450
C92	C	0.408403	0.468136	0.820848
C93	C	0.408405	0.393976	0.820846
C94	C	0.408401	0.622706	0.820849
C95	C	0.408398	0.696872	0.820852
C96	C	0.516772	0.606053	0.730055
C97	C	0.516775	0.531892	0.730054
C98	C	0.462587	0.540224	0.775453
C99	C	0.462588	-0.064207	0.426897
C100	C	0.462584	-0.064203	0.352741
C101	C	0.462585	0.000018	0.315662
C102	C	0.462583	0.064244	0.352748
C103	C	0.462582	0.064244	0.426907
C104	C	0.462587	0.064240	0.198176
C105	C	0.462589	0.064240	0.124011
C106	C	0.462589	-0.064207	0.124010
C107	C	0.462588	-0.064208	0.198169
C108	C	0.462587	0.000018	0.235249
C109	C	0.462589	0.000019	1.008006
C110	C	0.462589	0.000020	1.086932
C111	C	0.323845	0.000016	1.007974
C112	C	0.276756	0.000016	1.086889
C113	C	0.323849	0.232562	0.775421
C114	C	0.276762	0.311485	0.775410
C115	C	0.323850	0.232564	1.007973
C116	C	0.276763	0.311489	1.086887
C117	C	0.601327	-0.232531	0.542936
C118	C	0.648414	-0.311456	0.464021
C119	C	0.601332	0.000017	0.542935
C120	C	0.648420	0.000017	0.464020
C121	C	0.601328	-0.232529	0.775487
C122	C	0.648414	-0.311452	0.775499
C123	C	0.254642	-0.045402	1.078538
C124	C	0.210404	-0.045419	1.152680
C125	C	0.188277	-0.000013	1.235172
C126	C	0.210396	0.045406	1.243521
C127	C	0.254637	0.045418	1.169380
C128	C	0.254651	0.393967	0.820815
C129	C	0.210414	0.468131	0.820801
C130	C	0.188286	0.459812	0.775387
C131	C	0.210402	0.377322	0.729977
C132	C	0.254641	0.303160	0.729986
C133	C	0.254650	0.303143	1.169365
C134	C	0.210413	0.377294	1.243520
C135	C	0.188287	0.459790	1.235197
C136	C	0.210405	0.468133	1.152711
C137	C	0.254644	0.393983	1.078557
C138	C	0.670532	-0.303110	0.381544
C139	C	0.714783	-0.377261	0.307388
C140	C	0.736911	-0.459756	0.315712
C141	C	0.714790	-0.468100	0.398198
C142	C	0.670544	-0.393950	0.472352
C143	C	0.670539	0.045427	0.472371
C144	C	0.714790	0.045424	0.398229
C145	C	0.736918	0.000015	0.315737
C146	C	0.714797	-0.045400	0.307388
C147	C	0.670550	-0.045402	0.381529
C148	C	0.670528	-0.303106	0.820922
C149	C	0.714765	-0.377256	0.820949
C150	C	0.736891	-0.459752	0.775548
C151	C	0.714773	-0.468097	0.730124
C152	C	0.670534	-0.393947	0.730102
H153	H	0.272655	-0.082384	0.857800
H154	H	0.192374	0.082374	1.310696
C155	C	0.646210	0.095379	0.563105
N156	N	0.627890	0.133001	0.631444
H157	H	0.560894	0.599271	0.693087
H158	H	0.192409	0.370485	1.310678
C159	C	0.348791	0.787610	0.870785
N160	N	0.303893	0.855954	0.908393
H161	H	0.152265	0.520160	1.295585
H162	H	0.560898	0.370534	0.693088
H163	H	0.462580	0.116538	0.322557
C164	C	0.348797	0.558876	0.870916
N165	N	0.303901	0.627222	0.908680
C166	C	0.462586	-0.134856	0.467678
N167	N	0.462583	-0.188069	0.498395
H168	H	0.732786	-0.370451	0.240232
C169	C	0.278952	0.095394	1.178580
N170	N	0.297263	0.133040	1.185517
C171	C	-0.017555	0.140892	0.634766
N172	N	-0.035927	0.178603	0.597214
H173	H	0.364283	0.400762	0.857810
H174	H	0.152253	-0.000029	1.295535
H175	H	0.462584	-0.116496	0.322551
H176	H	0.272662	0.400757	0.857797
C177	C	-0.150244	-0.140736	0.916270
N178	N	-0.168582	-0.178350	0.953899
H179	H	0.272658	0.235978	1.176158
C180	C	0.462587	-0.134854	0.238955
N181	N	0.462584	-0.188064	0.269677
C182	C	0.278962	0.403178	0.987833
N183	N	0.297278	0.410110	0.919501
C184	C	0.462582	0.134891	0.467694
N185	N	0.462580	0.188106	0.498415
C186	C	0.186055	0.558887	1.143569
N187	N	0.167710	0.627244	1.136687
C188	C	0.739110	0.095395	0.407432
N189	N	0.757425	0.133035	0.414367
H190	H	0.772914	-0.520122	0.775573
H191	H	0.560898	0.464729	0.693093
C192	C	-0.150280	0.140846	0.634749
N193	N	-0.168635	0.178521	0.597165
C194	C	0.075423	-0.140754	0.916240
N195	N	0.093744	-0.178378	0.953878
H196	H	0.772946	0.000024	0.255373
C197	C	0.186089	0.558862	0.870768
N198	N	0.167767	0.627198	0.908406
C199	C	0.739136	-0.095333	0.216638
N200	N	0.757464	-0.132933	0.148284
C201	C	0.186062	-0.095358	0.870804
N202	N	0.167748	-0.132998	0.908430
C203	C	0.646203	-0.212372	0.372367
N204	N	0.627885	-0.144030	0.365447
C205	C	0.186052	0.368186	0.680029
N206	N	0.167706	0.361307	0.642414
H207	H	0.732813	-0.535277	0.404965
C208	C	0.278952	0.212432	0.680045
N209	N	0.297260	0.144096	0.642428
H210	H	0.652542	-0.082378	0.374717
C211	C	-0.017474	-0.140769	0.916237
N212	N	-0.035780	-0.178420	0.953853
C213	C	0.785579	-0.541316	0.234131
N214	N	0.822233	-0.602743	0.172682
H215	H	0.152264	0.520207	0.775386
C216	C	0.646211	-0.403145	0.563076
N217	N	0.627885	-0.410077	0.631408
C218	C	0.462587	-0.134854	0.083223
N219	N	0.462587	-0.188064	0.052498
H220	H	0.462589	0.116536	0.093826
C221	C	0.186076	-0.095377	1.143477
N222	N	0.167752	-0.133003	1.136542
C223	C	0.646195	-0.212367	0.870875
N224	N	0.627867	-0.144024	0.908508
C225	C	0.462591	0.134888	0.238958
N226	N	0.462599	0.188095	0.269671
H227	H	0.732769	-0.370444	0.857938
C228	C	0.739097	-0.558851	0.680222
N229	N	0.757413	-0.627209	0.642645
H230	H	-0.267184	-0.082376	0.857879
H231	H	0.652534	-0.400756	0.693109
H232	H	-0.347468	0.082402	0.693097
C233	C	-0.260902	0.095414	0.680139
N234	N	-0.242595	0.133065	0.642524
H235	H	-0.347466	-0.082368	0.857887
H236	H	0.192360	0.082398	0.693027
C237	C	0.075391	0.140826	0.634698
N238	N	0.093712	0.178457	0.597068
H239	H	0.272640	0.082397	0.693024
H240	H	-0.063640	-0.127774	0.903279
H241	H	0.560903	0.235999	0.693092
H242	H	-0.063672	0.127830	0.647682
H243	H	0.364275	0.629497	0.857813
H244	H	0.272657	-0.082387	1.011376
