data_functionalizedCrystal
_audit_creation_method	'MofGen! by Chris Wilmer'
_symmetry_space_group_name_H-M	'P1'
_symmetry_Int_Tables_number	1
_symmetry_cell_setting	triclinic
loop_
_symmetry_equiv_pos_as_xyz
  x,y,z
_cell_length_a	17.077404
_cell_length_b	12.594516
_cell_length_c	17.077396
_cell_angle_alpha	89.976020
_cell_angle_beta	89.982480
_cell_angle_gamma	90.011439
loop_
_atom_site_label
_atom_site_type_symbol
_atom_site_fract_x
_atom_site_fract_y
_atom_site_fract_z
Zn1	Zn	1.200074	-0.423864	-0.443878
Zn2	Zn	1.200002	-0.601868	-0.312624
Zn3	Zn	1.068811	-0.423889	-0.312625
Zn4	Zn	1.068790	-0.601787	-0.443847
O5	O	1.134420	-0.512852	-0.378243
O6	O	1.309912	-0.447500	-0.426479
O7	O	1.182578	-0.578303	-0.202777
O8	O	1.086263	-0.274940	-0.330049
O9	O	1.309859	-0.578279	-0.330047
O10	O	1.182701	-0.274922	-0.426480
O11	O	1.086193	-0.447543	-0.202778
O12	O	0.958962	-0.447464	-0.330019
O13	O	1.086226	-0.578141	-0.553698
O14	O	0.958946	-0.578165	-0.426427
O15	O	1.182680	-0.447422	-0.553720
O16	O	1.182558	-0.750803	-0.330017
O17	O	1.086156	-0.750743	-0.426426
C18	C	0.930472	-0.512809	-0.378221
C19	C	0.843222	-0.512817	-0.378230
C20	C	0.467420	-0.581060	-0.428387
C21	C	0.549400	-0.581046	-0.428375
C22	C	0.590373	-0.512880	-0.378256
C23	C	0.549361	-0.444731	-0.328140
C24	C	0.467382	-0.444751	-0.328149
C25	C	0.720231	-0.444693	-0.328127
C26	C	0.802216	-0.444671	-0.328119
C27	C	0.802249	-0.580988	-0.428353
C28	C	0.720270	-0.581008	-0.428362
C29	C	0.679264	-0.512857	-0.378247
C30	C	1.134368	-0.789393	-0.378236
C31	C	1.134418	-0.907698	-0.378259
C32	C	1.081980	-0.976958	-0.430658
C33	C	1.062859	-1.047817	-0.359031
C34	C	1.153611	-1.047638	-0.449899
C35	C	1.115259	-0.977000	-0.306593
C36	C	1.206044	-0.976814	-0.397509
C37	C	1.186950	-1.047642	-0.325832
C38	C	1.339164	-0.512896	-0.378266
C39	C	1.426414	-0.512914	-0.378276
C40	C	1.134459	-0.512770	-0.582988
C41	C	1.134476	-0.512734	-0.670237
C42	C	1.134493	-0.235231	-0.378268
C43	C	1.134524	-0.116926	-0.378279
C44	C	1.084303	-0.444640	-0.711227
C45	C	1.084316	-0.444615	-0.793208
C46	C	1.134506	-0.512682	-0.834197
C47	C	1.184681	-0.580784	-0.793201
C48	C	1.184663	-0.580813	-0.711222
C49	C	1.184715	-0.580717	-0.964071
C50	C	1.184733	-0.580688	-1.046056
C51	C	1.084367	-0.444520	-1.046057
C52	C	1.084350	-0.444549	-0.964078
C53	C	1.134526	-0.512650	-0.923088
C54	C	1.134425	-0.512857	-0.174295
C55	C	1.134561	-0.512593	-0.087046
H56	H	0.434066	-0.636563	-0.469204
H57	H	0.433996	-0.389257	-0.287346
N58	N	0.678355	-0.375077	-0.276928
N59	N	0.714945	-0.314216	-0.232185
H60	H	0.685370	-0.265046	-0.196028
H61	H	1.037556	-0.945921	-0.474907
H62	H	1.225580	-0.636163	-0.930700
N63	N	1.235949	-0.650293	-0.835086
N64	N	1.285985	-0.612825	-0.880839
H65	H	1.322197	-0.661911	-0.910422
N66	N	1.033056	-0.375058	-0.835066
N67	N	0.988249	-0.314288	-0.798459
H68	H	0.952042	-0.265161	-0.828020
N69	N	0.844141	-0.650616	-0.479528
N70	N	0.889866	-0.718386	-0.451814
H71	H	0.919455	-0.767560	-0.487955
H72	H	0.835573	-0.389154	-0.287316
H73	H	1.043484	-0.389119	-0.930707
H74	H	0.582784	-0.636540	-0.469178
H75	H	1.002336	-1.079029	-0.342765
H76	H	0.582727	-0.389234	-0.287329
H77	H	0.686912	-0.636509	-0.469176
H78	H	1.266553	-0.945605	-0.413809
H79	H	1.098998	-0.946099	-0.245999
N80	N	1.173911	-1.086567	-0.525893
N81	N	1.132205	-1.063902	-0.583666
H82	H	1.146535	-1.091393	-0.637339
N83	N	1.242648	-1.086342	-0.270205
N84	N	1.313345	-1.062205	-0.276789
H85	H	1.352680	-1.089540	-0.237502
H86	H	1.043437	-0.389206	-0.677860
H87	H	1.043513	-0.389068	-1.079435
N88	N	1.235926	-0.650367	-0.669362
N89	N	1.308363	-0.643322	-0.678527
H90	H	1.344568	-0.692449	-0.648965
N91	N	1.236026	-0.650192	-1.087915
N92	N	1.280831	-0.710978	-1.051310
H93	H	1.317065	-0.760057	-1.080872
