data_functionalizedCrystal
_audit_creation_method	'MofGen! by Chris Wilmer'
_symmetry_space_group_name_H-M	'P1'
_symmetry_Int_Tables_number	1
_symmetry_cell_setting	triclinic
loop_
_symmetry_equiv_pos_as_xyz
  x,y,z
_cell_length_a	29.999520
_cell_length_b	29.998686
_cell_length_c	29.995014
_cell_angle_alpha	60.005185
_cell_angle_beta	60.010401
_cell_angle_gamma	59.993433
loop_
_atom_site_label
_atom_site_type_symbol
_atom_site_fract_x
_atom_site_fract_y
_atom_site_fract_z
O1	O	0.061772	-0.651300	0.544623
O2	O	0.561772	-0.151300	1.044623
O3	O	0.023267	-0.507084	0.438819
O4	O	0.523267	-0.007084	0.938819
O5	O	0.114589	-0.598332	0.438743
O6	O	0.614589	-0.098332	0.938743
O7	O	-0.029550	-0.560051	0.544699
O8	O	0.470450	-0.060051	1.044699
O9	O	0.144886	-0.568039	0.468961
O10	O	0.644886	-0.068039	0.968961
O11	O	0.053564	-0.476791	0.469038
O12	O	0.553564	0.023209	0.969038
O13	O	0.092069	-0.621007	0.574841
O14	O	0.592069	-0.121007	1.074841
Zn15	Zn	0.077627	-0.544089	0.526737
Zn16	Zn	0.577627	-0.044089	1.026737
Zn17	Zn	0.037709	-0.584002	0.486923
Zn18	Zn	0.537709	-0.084002	0.986923
O19	O	0.000748	-0.529758	0.574918
O20	O	0.500748	-0.029758	1.074918
N21	N	0.104871	-0.516854	0.553912
N22	N	0.604871	-0.016854	1.053912
N23	N	0.010470	-0.611242	0.459748
N24	N	0.510470	-0.111242	0.959748
C25	C	0.143162	-0.478782	0.827124
C26	C	0.643162	0.021218	1.327124
C27	C	0.378203	-0.478734	0.591892
C28	C	0.878203	0.021266	1.091892
C29	C	0.143005	-0.478752	0.591997
C30	C	0.643005	0.021248	1.091997
C31	C	0.142986	-0.243586	0.592008
C32	C	0.642986	0.256414	1.092008
C33	C	0.180857	-0.357087	0.629814
C34	C	0.680857	0.142913	1.129814
C35	C	0.180866	-0.440920	0.629807
C36	C	0.680866	0.059080	1.129807
C37	C	0.201840	-0.419964	0.650755
C38	C	0.701840	0.080036	1.150755
C39	C	0.293272	-0.404201	0.602606
C40	C	0.793272	0.095799	1.102606
C41	C	0.350426	-0.423248	0.583534
C42	C	0.850426	0.076752	1.083534
C43	C	0.350451	-0.515727	0.618798
C44	C	0.850451	-0.015727	1.118798
C45	C	0.293297	-0.496678	0.637872
C46	C	0.793297	0.003322	1.137872
C47	C	0.194628	-0.328499	0.573626
C48	C	0.694628	0.171501	1.073626
C49	C	0.175551	-0.271340	0.554591
C50	C	0.675551	0.228660	1.054591
C51	C	0.128936	-0.271362	0.647935
C52	C	0.628936	0.228638	1.147935
C53	C	0.148014	-0.328521	0.666970
C54	C	0.648014	0.171479	1.166970
C55	C	0.124672	-0.427119	0.643641
C56	C	0.624672	0.072881	1.143641
C57	C	0.105611	-0.446170	0.624592
C58	C	0.605611	0.053830	1.124592
C59	C	0.198934	-0.492820	0.577889
C60	C	0.698934	0.007180	1.077889
C61	C	0.217998	-0.473770	0.596931
C62	C	0.717998	0.026230	1.096931
C63	C	0.124740	-0.427136	0.742229
C64	C	0.624740	0.072864	1.242229
C65	C	0.105728	-0.446202	0.799386
C66	C	0.605728	0.053798	1.299386
C67	C	0.199085	-0.492863	0.799337
C68	C	0.699085	0.007137	1.299337
C69	C	0.218096	-0.473798	0.742178
C70	C	0.718096	0.026202	1.242178
C71	C	0.180923	-0.440933	0.713626
C72	C	0.680923	0.059067	1.213626
C73	C	0.264710	-0.440915	0.629773
C74	C	0.764710	0.059085	1.129773
C75	C	0.121509	-0.499370	0.889991
C76	C	0.621509	0.000630	1.389991
C77	C	0.441068	-0.498953	0.570621
C78	C	0.941068	0.001047	1.070621
C79	C	0.121297	-0.499349	0.571429
C80	C	0.621297	0.000651	1.071429
C81	C	0.121653	-0.180715	0.571802
C82	C	0.621653	0.319285	1.071802
C83	C	-0.111071	-0.648912	0.421584
C84	C	0.388929	-0.148912	0.921584
C85	C	-0.027286	-0.649018	0.421777
C86	C	0.472714	-0.149018	0.921777
C87	C	-0.048200	-0.669944	0.400740
C88	C	0.451800	-0.169944	0.900740
C89	C	-0.064036	-0.761340	0.448814
C90	C	0.435964	-0.261340	0.948814
C91	C	-0.045033	-0.818500	0.467893
C92	C	0.454967	-0.318500	0.967893
C93	C	0.047447	-0.818609	0.432797
C94	C	0.547447	-0.318609	0.932797
C95	C	0.028444	-0.761451	0.413717
C96	C	0.528444	-0.261451	0.913717
C97	C	-0.139731	-0.662677	0.477755
C98	C	0.360269	-0.162677	0.977755
C99	C	-0.196885	-0.643554	0.496701
C100	C	0.303115	-0.143554	0.996701
C101	C	-0.196717	-0.596907	0.403303
C102	C	0.303283	-0.096907	0.903303
C103	C	-0.139562	-0.616030	0.384357
C104	C	0.360438	-0.116030	0.884357
C105	C	-0.041053	-0.592827	0.407952
C106	C	0.458947	-0.092827	0.907952
C107	C	-0.022041	-0.573809	0.427083
C108	C	0.477959	-0.073809	0.927083
C109	C	0.024504	-0.667167	0.473848
C110	C	0.524504	-0.167167	0.973848
C111	C	0.005492	-0.686188	0.454725
C112	C	0.505492	-0.186188	0.954725
C113	C	-0.040886	-0.592836	0.309259
C114	C	0.459114	-0.092836	0.809259
C115	C	-0.021740	-0.573821	0.252102
C116	C	0.478260	-0.073821	0.752102
C117	C	0.024886	-0.667185	0.252163
C118	C	0.524886	-0.167185	0.752163
C119	C	0.005743	-0.686199	0.309322
C120	C	0.505743	-0.186199	0.809322
C121	C	-0.027145	-0.649023	0.337868
C122	C	0.472855	-0.149023	0.837868
C123	C	-0.027299	-0.732818	0.421728
C124	C	0.472701	-0.232818	0.921728
N125	N	0.492511	-0.516826	0.553742
N126	N	0.992511	-0.016826	1.053742
O127	O	0.679283	-0.525926	0.419277
O128	O	1.179283	-0.025926	0.919277
O129	O	0.679465	-0.632059	0.563349
O130	O	1.179465	-0.132059	1.063349
O131	O	0.679393	-0.631817	0.471975
O132	O	1.179393	-0.131817	0.971975
O133	O	0.679355	-0.526168	0.510650
O134	O	1.179355	-0.026168	1.010650
O135	O	0.588593	-0.601610	0.502313
O136	O	1.088593	-0.101610	1.002313
O137	O	0.588665	-0.601852	0.593686
O138	O	1.088665	-0.101852	1.093686
O139	O	0.588483	-0.495720	0.449614
O140	O	1.088483	0.004280	0.949614
Zn141	Zn	0.574158	-0.543990	0.526467
Zn142	Zn	1.074158	-0.043990	1.026467
Zn143	Zn	0.693790	-0.583788	0.486496
Zn144	Zn	1.193790	-0.083788	0.986496
O145	O	0.588555	-0.495962	0.540987
O146	O	1.088555	0.004038	1.040987
N147	N	0.775436	-0.610952	0.459215
N148	N	1.275436	-0.110952	0.959215
N149	N	0.104844	-0.129269	0.553931
N150	N	0.604844	0.370731	1.053931
O151	O	-0.029548	0.057600	0.544709
O152	O	0.470452	0.557600	1.044709
O153	O	0.114530	0.057617	0.438578
O154	O	0.614530	0.557617	0.938578
O155	O	0.023130	0.057594	0.438850
O156	O	0.523130	0.557594	0.938850
O157	O	0.061852	0.057623	0.544437
O158	O	0.561852	0.557623	1.044437
O159	O	0.053431	-0.033213	0.469115
O160	O	0.553431	0.466787	0.969115
O161	O	0.144831	-0.033190	0.468843
O162	O	0.644831	0.466810	0.968843
O163	O	0.000753	-0.033207	0.574974
O164	O	0.500753	0.466793	1.074974
Zn165	Zn	0.077603	-0.047616	0.526714
Zn166	Zn	0.577603	0.452384	1.026714
Zn167	Zn	0.037680	0.072026	0.486838
Zn168	Zn	0.537680	0.572026	0.986838
O169	O	0.092153	-0.033184	0.574702
O170	O	0.592153	0.466816	1.074702
N171	N	0.010432	0.153679	0.459622
N172	N	0.510432	0.653679	0.959622
N173	N	0.105130	-0.516904	0.941437
N174	N	0.605130	-0.016904	1.441437
O175	O	0.095923	-0.651280	1.128292
O176	O	0.595923	-0.151280	1.628292
O177	O	-0.010184	-0.507155	1.128318
O178	O	0.489816	-0.007155	1.628318
O179	O	-0.009938	-0.598539	1.128284
O180	O	0.490062	-0.098539	1.628284
O181	O	0.095677	-0.559897	1.128326
O182	O	0.595677	-0.059897	1.628326
O183	O	0.020315	-0.568257	1.037481
O184	O	0.520315	-0.068257	1.537481
O185	O	0.020068	-0.476874	1.037515
O186	O	0.520068	0.023126	1.537515
O187	O	0.126176	-0.620999	1.037489
O188	O	0.626176	-0.120999	1.537489
Zn189	Zn	0.077925	-0.544128	1.023085
Zn190	Zn	0.577925	-0.044128	1.523085
Zn191	Zn	0.038066	-0.584026	1.142722
Zn192	Zn	0.538066	-0.084026	1.642722
O193	O	0.125929	-0.529616	1.037523
O194	O	0.625929	-0.029616	1.537523
N195	N	0.010860	-0.611256	1.224371
N196	N	0.510860	-0.111256	1.724371
C197	C	0.034807	-0.473765	0.439352
C198	C	0.534807	0.026235	0.939352
C199	C	0.147897	-0.586765	0.439257
C200	C	0.647897	-0.086765	0.939257
C201	C	0.080529	-0.654326	0.574308
C202	C	0.580529	-0.154326	1.074308
C203	C	-0.032561	-0.541326	0.574403
C204	C	0.467439	-0.041326	1.074403
C205	C	0.634087	-0.631571	0.596668
C206	C	1.134087	-0.131571	1.096668
C207	C	0.633999	-0.631272	0.483513
C208	C	1.133999	-0.131272	0.983513
C209	C	0.633858	-0.496206	0.416295
C210	C	1.133858	0.003794	0.916295
C211	C	0.633949	-0.496507	0.529449
C212	C	1.133949	0.003493	1.029449
C213	C	0.147793	0.012327	0.439058
C214	C	0.647793	0.512327	0.939058
C215	C	0.034644	0.012187	0.439432
C216	C	0.534644	0.512187	0.939432
C217	C	-0.032548	0.012195	0.574457
C218	C	0.467452	0.512195	1.074457
C219	C	0.080639	0.012222	0.574120
C220	C	0.580639	0.512222	1.074120
C221	C	-0.009670	-0.473857	1.082920
C222	C	0.490330	0.026143	1.582920
C223	C	-0.009359	-0.587018	1.082860
C224	C	0.490641	-0.087018	1.582860
C225	C	0.125662	-0.654297	1.082887
C226	C	0.625662	-0.154297	1.582887
C227	C	0.125358	-0.541129	1.082927
C228	C	0.625358	-0.041129	1.582927
H229	H	0.094465	-0.400370	0.718985
H230	H	0.594465	0.099630	1.218985
H231	H	0.189295	-0.594927	0.405983
H232	H	0.689295	-0.094927	0.905983
H233	H	0.634133	-0.664888	0.638048
H234	H	1.134133	-0.164888	1.138048
H235	H	-0.032937	-0.528066	0.228816
H236	H	0.467063	-0.028066	0.728816
O237	O	-0.081971	-0.531498	0.614048
O238	O	0.418029	-0.031498	1.114048
C239	C	-0.171888	-0.466817	0.639283
C240	C	0.328112	0.033183	1.139283
C241	C	-0.115954	-0.477871	0.594341
C242	C	0.384046	0.022129	1.094341
H243	H	-0.199384	-0.423464	0.623363
H244	H	0.300616	0.076536	1.123363
H245	H	-0.166198	-0.471703	0.676515
H246	H	0.333802	0.028297	1.176515
H247	H	-0.191505	-0.497121	0.651234
H248	H	0.308495	0.002879	1.151234
H249	H	-0.096308	-0.447576	0.582345
H250	H	0.403692	0.052424	1.082345
H251	H	-0.121680	-0.473004	0.557139
H252	H	0.378320	0.026996	1.057139
H253	H	0.634015	-0.664461	0.475235
H254	H	1.134015	-0.164461	0.975235
O255	O	-0.048947	-0.596771	1.082727
O256	O	0.451053	-0.096771	1.582727
C257	C	-0.108434	-0.570487	1.035584
C258	C	0.391566	-0.070487	1.535584
C259	C	-0.063612	-0.559376	1.035673
C260	C	0.436388	-0.059376	1.535673
H261	H	-0.120296	-0.540268	0.997539
H262	H	0.379704	-0.040268	1.497539
H263	H	-0.145741	-0.565574	1.073546
H264	H	0.354259	-0.065574	1.573546
H265	H	-0.092418	-0.613879	1.035586
H266	H	0.407582	-0.113879	1.535586
H267	H	-0.079576	-0.515987	1.035651
H268	H	0.420424	-0.015987	1.535651
H269	H	-0.026314	-0.564326	0.997714
H270	H	0.473686	-0.064326	1.497714
O271	O	0.633812	-0.456519	0.366898
O272	O	1.133812	0.043481	0.866898
C273	C	0.633681	-0.431117	0.276989
C274	C	1.133681	0.068883	0.776989
C275	C	0.633747	-0.476115	0.332901
C276	C	1.133747	0.023885	0.832901
H277	H	0.633616	-0.446940	0.249490
H278	H	1.133616	0.053060	0.749490
H279	H	0.671666	-0.419180	0.257320
H280	H	1.171666	0.080820	0.757320
H281	H	0.595667	-0.393898	0.282779
H282	H	1.095667	0.106102	0.782779
H283	H	0.671735	-0.513364	0.327158
H284	H	1.171735	-0.013364	0.827158
H285	H	0.595736	-0.488006	0.352550
H286	H	1.095736	0.011994	0.852550
H287	H	0.633941	-0.463320	0.537725
H288	H	1.133941	0.036680	1.037725
H289	H	0.189085	0.012584	0.405656
H290	H	0.689085	0.512584	0.905656
H291	H	0.026351	0.012184	0.406260
H292	H	0.526351	0.512184	0.906260
O293	O	-0.081871	0.012168	0.614276
O294	O	0.418129	0.512168	1.114276
C295	C	-0.137784	0.012207	0.706310
C296	C	0.362216	0.512207	1.206310
C297	C	-0.081898	0.012226	0.661268
C298	C	0.418102	0.512226	1.161268
H299	H	-0.137828	0.012266	0.744310
H300	H	0.362172	0.512266	1.244310
H301	H	-0.145787	-0.025810	0.716675
H302	H	0.354213	0.474190	1.216675
H303	H	-0.171127	0.050196	0.691273
H304	H	0.328873	0.550196	1.191273
H305	H	-0.048520	-0.025737	0.676269
H306	H	0.451480	0.474263	1.176269
H307	H	-0.073942	0.050268	0.650910
H308	H	0.426058	0.550268	1.150910
O309	O	0.090627	0.012197	0.613647
O310	O	0.590627	0.512197	1.113647
C311	C	0.155510	0.012230	0.638587
C312	C	0.655510	0.512230	1.138587
C313	C	0.144274	0.012250	0.593778
C314	C	0.644274	0.512250	1.093778
H315	H	0.198878	0.012285	0.622536
H316	H	0.698878	0.512285	1.122536
H317	H	0.150685	-0.025786	0.675850
H318	H	0.650685	0.474214	1.175850
H319	H	0.125262	0.050219	0.650540
H320	H	0.625262	0.550219	1.150540
H321	H	0.174511	-0.025713	0.581779
H322	H	0.674511	0.474287	1.081779
H323	H	0.149079	0.050292	0.556545
H324	H	0.649079	0.550292	1.056545
H325	H	-0.042983	-0.432464	1.082928
H326	H	0.457017	0.067536	1.582928
O327	O	0.165340	-0.703714	1.082900
O328	O	0.665340	-0.203714	1.582900
C329	C	0.190737	-0.793644	1.082832
C330	C	0.690737	-0.293644	1.582832
C331	C	0.145750	-0.737709	1.082832
C332	C	0.645750	-0.237709	1.582832
H333	H	0.174920	-0.821140	1.082765
H334	H	0.674920	-0.321140	1.582765
H335	H	0.202646	-0.813297	1.120844
H336	H	0.702646	-0.313297	1.620844
H337	H	0.227969	-0.787887	1.044843
H338	H	0.727969	-0.287887	1.544843
H339	H	0.108489	-0.743418	1.120795
H340	H	0.608489	-0.243418	1.620795
H341	H	0.133888	-0.718075	1.044794
H342	H	0.633888	-0.218075	1.544794
H343	H	0.158538	-0.532861	1.082933
H344	H	0.658538	-0.032861	1.582933
O345	O	0.090331	-0.703789	0.613904
O346	O	0.590331	-0.203789	1.113904
C347	C	0.114304	-0.800930	0.640074
C348	C	0.614304	-0.300930	1.140074
C349	C	0.103206	-0.744948	0.595190
C350	C	0.603206	-0.244948	1.095190
H351	H	0.124728	-0.834224	0.624956
H352	H	0.624728	-0.334224	1.124956
H353	H	0.076417	-0.801154	0.678184
H354	H	0.576417	-0.301154	1.178184
H355	H	0.150025	-0.808859	0.650299
H356	H	0.650025	-0.308859	1.150299
H357	H	0.067504	-0.736984	0.584918
H358	H	0.567504	-0.236984	1.084918
H359	H	0.141121	-0.744752	0.557109
H360	H	0.641121	-0.244752	1.057109
H361	H	0.229358	-0.519614	0.822579
H362	H	0.729358	-0.019614	1.322579
O363	O	0.051131	-0.432720	0.827082
O364	O	0.551131	0.067280	1.327082
C365	C	-0.039458	-0.384441	0.821093
C366	C	0.460542	0.115559	1.321093
C367	C	0.022356	-0.399658	0.789659
C368	C	0.522356	0.100342	1.289659
H369	H	-0.062740	-0.357718	0.790850
H370	H	0.437260	0.142282	1.290850
H371	H	-0.050722	-0.361142	0.847838
H372	H	0.449278	0.138858	1.347838
H373	H	-0.050674	-0.423236	0.847867
H374	H	0.449326	0.076764	1.347867
H375	H	0.033616	-0.360891	0.762854
H376	H	0.533616	0.139109	1.262854
H377	H	0.033587	-0.422978	0.762947
H378	H	0.533587	0.077022	1.262947
H379	H	0.094434	-0.400372	0.670409
H380	H	0.594434	0.099628	1.170409
O381	O	0.272693	-0.487235	0.714479
O382	O	0.772693	0.012765	1.214479
C383	C	0.363283	-0.535557	0.720466
C384	C	0.863283	-0.035557	1.220466
C385	C	0.301469	-0.520370	0.751901
C386	C	0.801469	-0.020370	1.251901
H387	H	0.386567	-0.562358	0.750707
H388	H	0.886567	-0.062358	1.250707
H389	H	0.374548	-0.496786	0.693722
H390	H	0.874548	0.003214	1.193722
H391	H	0.374497	-0.558800	0.693689
H392	H	0.874497	-0.058800	1.193689
H393	H	0.290211	-0.497140	0.778707
H394	H	0.790211	0.002860	1.278707
H395	H	0.290238	-0.559161	0.778610
H396	H	0.790238	-0.059161	1.278610
H397	H	0.229173	-0.519573	0.551126
H398	H	0.729173	-0.019573	1.051126
O399	O	0.051019	-0.432836	0.638122
O400	O	0.551019	0.067164	1.138122
C401	C	-0.034551	-0.437199	0.710619
C402	C	0.465449	0.062801	1.210619
C403	C	0.027267	-0.452342	0.695372
C404	C	0.527267	0.047658	1.195372
H405	H	-0.053774	-0.452953	0.756906
H406	H	0.446226	0.047047	1.256906
H407	H	-0.041824	-0.456476	0.691399
H408	H	0.458176	0.043524	1.191399
H409	H	-0.053825	-0.390916	0.694836
H410	H	0.446175	0.109084	1.194836
H411	H	0.046583	-0.498617	0.711152
H412	H	0.546583	0.001383	1.211152
H413	H	0.034502	-0.433027	0.714584
H414	H	0.534502	0.066973	1.214584
O415	O	0.272603	-0.487229	0.583450
O416	O	0.772603	0.012771	1.083450
C417	C	0.363160	-0.535445	0.535052
C418	C	0.863160	-0.035445	1.035052
C419	C	0.301336	-0.520264	0.550297
C420	C	0.801336	-0.020264	1.050297
H421	H	0.386408	-0.562147	0.508236
H422	H	0.886408	-0.062147	1.008236
H423	H	0.374491	-0.558754	0.573795
H424	H	0.874491	-0.058754	1.073795
H425	H	0.374349	-0.496634	0.511806
H426	H	0.874349	0.003366	1.011806
H427	H	0.290102	-0.559047	0.573529
H428	H	0.790102	-0.059047	1.073529
H429	H	0.290038	-0.496934	0.511534
H430	H	0.790038	0.003066	1.011534
H431	H	0.373728	-0.561133	0.625383
H432	H	0.873728	-0.061133	1.125383
O433	O	0.265575	-0.532353	0.664173
O434	O	0.765575	-0.032353	1.164173
C435	C	0.248109	-0.599566	0.659098
C436	C	0.748109	-0.099566	1.159098
C437	C	0.279527	-0.559176	0.629244
C438	C	0.779527	-0.059176	1.129244
H439	H	0.259386	-0.621272	0.630875
H440	H	0.759386	-0.121272	1.130875
H441	H	0.202342	-0.576398	0.671325
H442	H	0.702342	-0.076398	1.171325
H443	H	0.259369	-0.630958	0.697218
H444	H	0.759369	-0.130958	1.197218
H445	H	0.268312	-0.527775	0.591105
H446	H	0.768312	-0.027775	1.091105
H447	H	0.325286	-0.582381	0.617058
H448	H	0.825286	-0.082381	1.117058
O449	O	0.378147	-0.387550	0.557060
O450	O	0.878147	0.112450	1.057060
C451	C	0.395560	-0.308297	0.480041
C452	C	0.895560	0.191703	0.980041
C453	C	0.364142	-0.348696	0.509961
C454	C	0.864142	0.151304	1.009961
H455	H	0.384240	-0.276867	0.441962
H456	H	0.884240	0.223133	0.941962
H457	H	0.441327	-0.331456	0.467756
H458	H	0.941327	0.168544	0.967756
H459	H	0.384343	-0.286637	0.508281
H460	H	0.884343	0.213363	1.008281
H461	H	0.375313	-0.370367	0.481751
H462	H	0.875313	0.129633	0.981751
H463	H	0.318382	-0.325507	0.522255
H464	H	0.818382	0.174493	1.022255
O465	O	0.265444	-0.350054	0.594836
O466	O	0.765444	0.149946	1.094836
C467	C	0.200956	-0.280893	0.636959
C468	C	0.700956	0.219107	1.136959
C469	C	0.232428	-0.342231	0.645837
C470	C	0.732428	0.157769	1.145837
H471	H	0.174264	-0.274546	0.678186
H472	H	0.674264	0.225454	1.178186
H473	H	0.174139	-0.264781	0.611872
H474	H	0.674139	0.235219	1.111872
H475	H	0.231202	-0.257935	0.614241
H476	H	0.731202	0.242065	1.114241
H477	H	0.202221	-0.365233	0.668569
H478	H	0.702221	0.134767	1.168569
H479	H	0.259253	-0.358300	0.670901
H480	H	0.759253	0.141700	1.170901
H481	H	0.186762	-0.248063	0.508836
H482	H	0.686762	0.251937	1.008836
O483	O	0.226503	-0.356166	0.537461
O484	O	0.726503	0.143834	1.037461
C485	C	0.270739	-0.350111	0.442865
C486	C	0.770739	0.149889	0.942865
C487	C	0.234628	-0.318712	0.483764
C488	C	0.734628	0.181288	0.983764
H489	H	0.277329	-0.319844	0.399442
H490	H	0.777329	0.180156	0.899442
H491	H	0.249806	-0.376860	0.449421
H492	H	0.749806	0.123140	0.949421
H493	H	0.311853	-0.376882	0.449458
H494	H	0.811853	0.123118	0.949458
H495	H	0.193508	-0.291911	0.477195
H496	H	0.693508	0.208089	0.977195
H497	H	0.255604	-0.291998	0.477197
H498	H	0.755604	0.208002	0.977197
H499	H	0.102202	-0.248101	0.678192
H500	H	0.602202	0.251899	1.178192
H501	H	0.136793	-0.351798	0.712725
H502	H	0.636793	0.148202	1.212725
H503	H	0.051655	-0.697459	0.228927
H504	H	0.551655	-0.197459	0.728927
O505	O	-0.072798	-0.556647	0.336904
O506	O	0.427202	-0.056647	0.836904
C507	C	-0.117034	-0.462036	0.330810
C508	C	0.382966	0.037964	0.830810
C509	C	-0.080887	-0.502956	0.299435
C510	C	0.419113	-0.002956	0.799435
H511	H	-0.123595	-0.418618	0.300530
H512	H	0.376405	0.081382	0.800530
H513	H	-0.096146	-0.468608	0.357617
H514	H	0.403854	0.031392	0.857617
H515	H	-0.158158	-0.468593	0.357519
H516	H	0.341842	0.031407	0.857519
H517	H	-0.039757	-0.496423	0.272697
H518	H	0.460243	0.003577	0.772697
H519	H	-0.101818	-0.496374	0.272663
H520	H	0.398182	0.003626	0.772663
H521	H	-0.067739	-0.562558	0.381123
H522	H	0.432261	-0.062558	0.881123
O523	O	0.019122	-0.740800	0.337027
O524	O	0.519122	-0.240800	0.837027
C525	C	0.067412	-0.831397	0.331052
C526	C	0.567412	-0.331397	0.831052
C527	C	0.052292	-0.769577	0.299610
C528	C	0.552292	-0.269577	0.799610
H529	H	0.094241	-0.854681	0.300815
H530	H	0.594241	-0.354681	0.800815
H531	H	0.028619	-0.842623	0.357725
H532	H	0.528619	-0.342623	0.857725
H533	H	0.090600	-0.842651	0.357900
H534	H	0.590600	-0.342651	0.857900
H535	H	0.029118	-0.758278	0.272733
H536	H	0.529118	-0.258278	0.772733
H537	H	0.091105	-0.758384	0.272972
H538	H	0.591105	-0.258384	0.772972
H539	H	-0.033252	-0.528055	0.415829
H540	H	0.466748	-0.028055	0.915829
H541	H	0.051198	-0.697438	0.500669
H542	H	0.551198	-0.197438	1.000669
H543	H	0.016700	-0.731943	0.465981
H544	H	0.516700	-0.231943	0.965981
H545	H	0.026581	-0.432337	0.406123
H546	H	0.526581	0.067663	0.906123
H547	H	0.058362	-0.738230	0.391661
H548	H	0.558362	-0.238230	0.891661
H549	H	-0.074948	-0.841721	0.489940
H550	H	0.425052	-0.341721	0.989940
O551	O	0.101617	-0.846342	0.424951
O552	O	0.601617	-0.346342	0.924951
C553	C	0.191338	-0.840424	0.388153
C554	C	0.691338	-0.340424	0.888153
C555	C	0.130008	-0.808949	0.396993
C556	C	0.630008	-0.308949	0.896993
H557	H	0.214308	-0.810205	0.365559
H558	H	0.714308	-0.310205	0.865559
H559	H	0.207488	-0.867178	0.362991
H560	H	0.707488	-0.367178	0.862991
H561	H	0.197613	-0.867196	0.429407
H562	H	0.697613	-0.367196	0.929407
H563	H	0.123686	-0.782147	0.355765
H564	H	0.623686	-0.282147	0.855765
H565	H	0.113888	-0.782230	0.422181
H566	H	0.613888	-0.282230	0.922181
H567	H	-0.109425	-0.738032	0.455342
H568	H	0.390575	-0.238032	0.955342
H569	H	-0.220220	-0.654760	0.542443
H570	H	0.279780	-0.154760	1.042443
O571	O	-0.112138	-0.694592	0.513988
O572	O	0.387862	-0.194592	1.013988
C573	C	-0.118338	-0.738862	0.608628
C574	C	0.381662	-0.238862	1.108628
C575	C	-0.149653	-0.702703	0.567651
C576	C	0.350347	-0.202703	1.067651
H577	H	-0.148655	-0.745441	0.652024
H578	H	0.351345	-0.245441	1.152024
H579	H	-0.091591	-0.717970	0.602148
H580	H	0.408409	-0.217970	1.102148
H581	H	-0.091577	-0.779981	0.602044
H582	H	0.408423	-0.279981	1.102044
H583	H	-0.176444	-0.661578	0.574210
H584	H	0.323556	-0.161578	1.074210
H585	H	-0.176366	-0.723639	0.574142
H586	H	0.323634	-0.223639	1.074142
H587	H	-0.219915	-0.570138	0.372989
H588	H	0.280085	-0.070138	0.872989
H589	H	-0.116227	-0.604815	0.338615
H590	H	0.383773	-0.104815	0.838615
