data_functionalizedCrystal
_audit_creation_method	'MofGen! by Chris Wilmer'
_symmetry_space_group_name_H-M	'P1'
_symmetry_Int_Tables_number	1
_symmetry_cell_setting	triclinic
loop_
_symmetry_equiv_pos_as_xyz
  x,y,z
_cell_length_a	17.699083
_cell_length_b	9.730217
_cell_length_c	17.699083
_cell_angle_alpha	90.004134
_cell_angle_beta	83.283015
_cell_angle_gamma	89.995378
loop_
_atom_site_label
_atom_site_type_symbol
_atom_site_fract_x
_atom_site_fract_y
_atom_site_fract_z
O1	O	1.004073	0.114100	0.095710
O2	O	0.783694	0.114145	0.108162
O3	O	0.900110	0.114109	-0.008253
O4	O	0.887657	0.114136	0.212125
O5	O	0.900106	-0.114471	-0.008254
O6	O	0.783691	-0.114435	0.108161
O7	O	1.004069	-0.114480	0.095709
Zn8	Zn	0.893879	-0.150749	0.101935
Zn9	Zn	0.893884	0.150415	0.101936
O10	O	0.887654	-0.114444	0.212124
C11	C	0.755495	-0.000139	0.107716
C12	C	0.671477	-0.000122	0.106377
C13	C	0.622856	-0.000114	0.174710
C14	C	0.543913	-0.000132	0.173448
C15	C	0.513592	-0.000148	0.103852
C16	C	0.562219	-0.000160	0.035513
C17	C	0.641161	-0.000152	0.036776
C18	C	0.243856	-0.000195	0.030418
C19	C	0.164908	-0.000199	0.029160
C20	C	0.146608	-0.000175	0.167090
C21	C	0.225550	-0.000167	0.168353
C22	C	0.274170	-0.000186	0.100015
C23	C	0.359769	-0.000169	0.101384
C24	C	0.427995	-0.000155	0.102481
N25	N	0.893882	-0.356286	0.101934
C26	C	0.997009	-0.356309	-0.001123
C27	C	1.048578	-0.428260	-0.052649
C28	C	1.048586	-0.572139	-0.052649
C29	C	0.997018	-0.644071	-0.001120
C30	C	0.945449	-0.572120	0.050406
C31	C	0.945448	-0.428237	0.050403
C32	C	0.842319	-0.572098	0.153458
C33	C	0.842313	-0.428218	0.153463
C34	C	0.790751	-0.644029	0.204987
C35	C	0.739184	-0.572078	0.256518
C36	C	0.739179	-0.428190	0.256517
C37	C	0.790745	-0.356267	0.204989
C38	C	1.032268	-0.000193	0.096156
C39	C	1.116286	-0.000201	0.097494
C40	C	0.899662	-0.000181	-0.036451
C41	C	0.898323	-0.000181	-0.120469
N42	N	0.893888	0.355951	0.101932
C43	C	0.966656	-0.000197	-0.169090
C44	C	0.965394	-0.000185	-0.248033
C45	C	0.895798	-0.000166	-0.278354
C46	C	0.827459	-0.000146	-0.229727
C47	C	0.828722	-0.000149	-0.150785
C48	C	0.822364	-0.000134	-0.548090
C49	C	0.821106	-0.000135	-0.627038
C50	C	0.959036	-0.000170	-0.645338
C51	C	0.960299	-0.000173	-0.566396
C52	C	0.891961	-0.000145	-0.517776
C53	C	0.893330	-0.000156	-0.432177
C54	C	0.894427	-0.000165	-0.363951
C55	C	0.888102	-0.000151	0.240322
C56	C	0.889440	-0.000142	0.324340
H57	H	0.140225	-0.000214	-0.027517
O58	O	0.790754	-0.799214	0.204989
H59	H	0.802739	-0.837134	0.261521
H60	H	1.023330	-0.000221	-0.144409
O61	O	0.258256	-0.000170	0.243417
H62	H	0.211183	-0.000187	0.290723
H63	H	0.283434	-0.000212	-0.025228
O64	O	0.529522	-0.000182	-0.039555
H65	H	0.466461	-0.000174	-0.028955
O66	O	1.039096	-0.000200	-0.300478
H67	H	1.041811	-0.093356	-0.336892
O68	O	0.683543	-0.350596	0.312083
H69	H	0.692192	-0.238461	0.303423
H70	H	0.790748	-0.239112	0.204986
O71	O	0.655551	-0.000105	0.249780
H72	H	0.691066	0.093069	0.253664
O73	O	0.094169	-0.000184	0.240803
H74	H	0.034181	-0.000213	0.228237
O75	O	1.035363	-0.000173	-0.533690
H76	H	1.082669	-0.000163	-0.580763
H77	H	0.997014	-0.239154	-0.001121
O78	O	0.683578	-0.649657	0.312101
H79	H	0.624595	-0.622051	0.302532
O80	O	1.032748	-0.000195	-0.697778
H81	H	1.035485	0.092976	-0.734173
H82	H	0.680748	-0.000158	-0.018868
H83	H	0.764429	-0.000123	-0.651721
O84	O	0.752394	-0.000123	-0.262430
H85	H	0.705090	-0.000098	-0.215356
O86	O	0.748660	-0.000139	-0.495653
H87	H	0.700056	-0.000151	-0.530002
H88	H	1.090563	-0.369680	-0.094605
O89	O	0.755019	-0.000150	-0.098341
H90	H	0.721702	0.093016	-0.109103
O91	O	0.491469	-0.000124	0.247150
H92	H	0.525815	-0.000095	0.295756
O93	O	1.104209	-0.649758	-0.108216
H94	H	1.140071	-0.575575	-0.144044
H95	H	0.997021	-0.761226	-0.001130
