data_functionalizedCrystal
_audit_creation_method	'MofGen! by Chris Wilmer'
_symmetry_space_group_name_H-M	'P1'
_symmetry_Int_Tables_number	1
_symmetry_cell_setting	triclinic
loop_
_symmetry_equiv_pos_as_xyz
  x,y,z
_cell_length_a	10.967904
_cell_length_b	17.038272
_cell_length_c	9.482900
_cell_angle_alpha	100.012096
_cell_angle_beta	111.293435
_cell_angle_gamma	92.163609
loop_
_atom_site_label
_atom_site_type_symbol
_atom_site_fract_x
_atom_site_fract_y
_atom_site_fract_z
O1	O	-1.751438	0.053464	-0.559703
O2	O	-1.375088	0.073445	-0.465416
O3	O	-1.561025	-0.050315	-0.511987
O4	O	-1.565502	0.177224	-0.513132
O5	O	-1.523268	-0.025079	-0.260738
O6	O	-1.337331	0.098681	-0.214166
O7	O	-1.713681	0.078700	-0.308454
Cu8	Cu	-1.522059	0.090995	-0.238369
Cu9	Cu	-1.566711	0.061150	-0.535501
O10	O	-1.527745	0.202460	-0.261882
C11	C	-1.307818	0.086518	-0.327667
C12	C	-1.163623	0.087863	-0.291541
C13	C	-1.118896	0.075389	-0.405590
C14	C	-0.969864	0.076779	-0.368255
C15	C	-1.538078	-0.066745	-0.385343
C16	C	-1.525938	-0.153296	-0.382302
C17	C	-1.637390	-0.205625	-0.410223
C18	C	-1.625978	-0.286950	-0.407378
C19	C	-1.503112	-0.315944	-0.376601
C20	C	-1.391654	-0.263610	-0.348683
C21	C	-1.403068	-0.182287	-0.351539
C22	C	-1.462789	-0.560903	-0.366518
C23	C	-1.451382	-0.642232	-0.363660
C24	C	-1.685708	-0.665566	-0.422358
C25	C	-1.697110	-0.584240	-0.425202
C26	C	-1.585653	-0.531914	-0.397292
C27	C	-1.491444	-0.399071	-0.373687
C28	C	-1.597323	-0.448790	-0.400217
C29	C	-0.780951	0.065633	-0.446200
C30	C	-0.925143	0.064304	-0.482320
C31	C	-1.550693	0.218889	-0.388530
C32	C	-1.562833	0.305440	-0.391580
N33	N	-1.490662	0.111985	-0.029385
N34	N	-1.598117	0.040153	-0.744487
C35	C	-1.557441	0.067337	0.026088
C36	C	-1.531329	0.084808	0.200046
H37	H	-1.091582	0.099575	-0.166260
O38	O	-0.874618	0.092380	-0.202208
H39	H	-0.885197	0.152118	-0.141812
H40	H	-1.776450	-0.708179	-0.445084
H41	H	-1.372031	-0.518308	-0.343791
H42	H	-1.454815	0.135967	0.281335
O43	O	-1.020546	0.048787	-0.648288
H44	H	-1.122632	0.050121	-0.651573
O45	O	-1.318860	-0.673511	-0.330480
H46	H	-1.243275	-0.623465	-0.311569
H47	H	-1.697365	-0.425183	-0.425309
H48	H	-1.391406	-0.422687	-0.348625
H49	H	-1.633940	0.016176	-0.055200
H50	H	-1.291615	-0.287224	-0.323633
H51	H	-1.414154	0.163141	0.051908
H52	H	-1.674620	-0.011011	0.174227
H53	H	-1.737438	-0.182024	-0.435276
O54	O	-1.214306	0.059866	-0.571548
H55	H	-1.316391	0.061198	-0.574830
H56	H	-1.716733	-0.329553	-0.430111
H57	H	-1.797160	-0.560640	-0.450264
O58	O	-1.282860	-0.125840	-0.321409
H59	H	-1.195502	-0.159660	-0.299510
