data_functionalizedCrystal
_audit_creation_method	'MofGen! by Chris Wilmer'
_symmetry_space_group_name_H-M	'P1'
_symmetry_Int_Tables_number	1
_symmetry_cell_setting	triclinic
loop_
_symmetry_equiv_pos_as_xyz
  x,y,z
_cell_length_a	10.654550
_cell_length_b	10.654550
_cell_length_c	15.500215
_cell_angle_alpha	93.157993
_cell_angle_beta	93.155089
_cell_angle_gamma	84.484931
loop_
_atom_site_label
_atom_site_type_symbol
_atom_site_fract_x
_atom_site_fract_y
_atom_site_fract_z
O1	O	-1.673090	-0.181647	-0.071880
O2	O	-1.307613	-0.198454	-0.071896
O3	O	-1.498754	-0.007311	-0.071882
O4	O	-1.481949	-0.372790	-0.071893
O5	O	-1.488230	0.003201	0.072007
O6	O	-1.297089	-0.187943	0.071994
O7	O	-1.662566	-0.171136	0.072009
Cu8	Cu	-1.478867	-0.178579	0.085140
Cu9	Cu	-1.491312	-0.191010	-0.085026
O10	O	-1.471425	-0.362279	0.071996
C11	C	-1.255553	-0.191965	0.000047
C12	C	-1.116110	-0.188273	0.000041
C13	C	-1.492258	0.044743	0.000062
C14	C	-1.488566	0.184186	0.000061
C15	C	-1.714626	-0.177625	0.000065
C16	C	-1.854069	-0.181317	0.000065
C17	C	-1.036625	-0.300815	0.000040
C18	C	-0.905603	-0.297337	0.000055
C19	C	-0.933565	-0.068767	0.000069
C20	C	-1.064584	-0.072245	0.000060
N21	N	-1.470122	-0.169835	0.204825
C22	C	-1.477921	-0.414333	0.000050
C23	C	-1.481613	-0.553776	0.000046
C24	C	-1.601107	0.263672	0.000065
C25	C	-1.597632	0.394692	0.000055
C26	C	-1.369064	0.366727	0.000038
C27	C	-1.372541	0.235710	0.000043
N28	N	-1.500066	-0.199744	-0.204711
C29	C	-1.543646	-0.243412	0.250099
C30	C	-1.537049	-0.236791	0.340672
C31	C	-1.456922	-0.156600	0.385969
C32	C	-1.383395	-0.083015	0.340689
C33	C	-1.389999	-0.089630	0.250118
C34	C	-1.433144	-0.132775	0.659437
C35	C	-1.426543	-0.126168	0.750015
C36	C	-1.580199	-0.279943	0.749992
C37	C	-1.586791	-0.286556	0.659418
C38	C	-1.513269	-0.212967	0.614146
C39	C	-1.450174	-0.149833	0.478550
C40	C	-1.520025	-0.219727	0.521567
H41	H	-1.078572	-0.395292	0.000031
H42	H	-1.689275	0.459405	0.000056
H43	H	-1.640057	-0.339854	0.786862
O44	O	-1.348680	-0.048153	0.793882
C45	C	-1.285183	0.015355	0.734500
H46	H	-1.341818	0.017489	0.669935
H47	H	-1.274635	0.116099	0.760679
H48	H	-1.187753	-0.036165	0.724868
O49	O	-0.828574	-0.406781	0.000013
C50	C	-0.902153	-0.509927	0.000018
H51	H	-1.001631	-0.480888	-0.027230
H52	H	-0.857565	-0.591900	-0.041760
H53	H	-0.906760	-0.540400	0.069044
H54	H	-0.891595	0.025700	0.000089
O55	O	-1.141628	0.037200	0.000022
C56	C	-1.068057	0.140356	0.000054
H57	H	-0.972549	0.107350	-0.027184
H58	H	-1.118743	0.216229	-0.041717
H59	H	-1.053388	0.180904	0.069088
H60	H	-1.652043	-0.351853	0.622543
H61	H	-1.318160	-0.017716	0.377578
O62	O	-1.256276	0.416640	0.000142
C63	C	-1.182160	0.381594	0.074670
H64	H	-1.215364	0.292261	0.099520
H65	H	-1.078958	0.363091	0.057902
H66	H	-1.192223	0.461089	0.126852
O67	O	-1.361621	-0.061506	0.615384
C68	C	-1.280387	-0.141142	0.563029
H69	H	-1.321300	-0.235665	0.549435
H70	H	-1.270547	-0.095175	0.499350
H71	H	-1.183627	-0.156982	0.597963
O72	O	-1.318449	-0.018117	0.206270
C73	C	-1.246331	0.054104	0.265670
H74	H	-1.234741	0.006893	0.330230
H75	H	-1.149419	0.060906	0.239506
H76	H	-1.296515	0.152909	0.275305
H77	H	-1.585269	-0.285014	0.484682
O78	O	-1.713741	0.213462	-0.000042
C79	C	-1.728054	0.133083	-0.074572
H80	H	-1.631167	0.099497	-0.099418
H81	H	-1.777643	0.048096	-0.057807
H82	H	-1.786924	0.186658	-0.126755
H83	H	-1.280891	0.170988	0.000037
H84	H	-1.608887	-0.308719	0.213224
O85	O	-1.608508	-0.308397	0.384517
C86	C	-1.680661	-0.380578	0.325114
H87	H	-1.633440	-0.392132	0.260556
H88	H	-1.687388	-0.477503	0.351277
H89	H	-1.779498	-0.330469	0.315476
H90	H	-1.384933	-0.084542	0.515441
