data_functionalizedCrystal
_audit_creation_method	'MofGen! by Chris Wilmer'
_symmetry_space_group_name_H-M	'P1'
_symmetry_Int_Tables_number	1
_symmetry_cell_setting	triclinic
loop_
_symmetry_equiv_pos_as_xyz
  x,y,z
_cell_length_a	18.215407
_cell_length_b	12.759400
_cell_length_c	18.215398
_cell_angle_alpha	89.977980
_cell_angle_beta	89.980536
_cell_angle_gamma	90.015132
loop_
_atom_site_label
_atom_site_type_symbol
_atom_site_fract_x
_atom_site_fract_y
_atom_site_fract_z
Zn1	Zn	1.125121	-0.418291	-0.416133
Zn2	Zn	1.625121	0.081709	0.083867
Zn3	Zn	1.125053	-0.593980	-0.293074
Zn4	Zn	1.625053	-0.093980	0.206926
Zn5	Zn	1.002055	-0.418317	-0.293081
Zn6	Zn	1.502055	0.081683	0.206919
Zn7	Zn	1.002042	-0.593930	-0.416099
Zn8	Zn	1.502042	-0.093930	0.083901
O9	O	1.063568	-0.506129	-0.354597
O10	O	1.563568	-0.006129	0.145403
O11	O	1.228097	-0.441606	-0.399821
O12	O	1.728097	0.058394	0.100179
O13	O	1.108713	-0.570711	-0.190091
O14	O	1.608713	-0.070711	0.309909
O15	O	1.018414	-0.271293	-0.309421
O16	O	1.518414	0.228707	0.190579
O17	O	1.228046	-0.570685	-0.309410
O18	O	1.728046	-0.070685	0.190590
O19	O	1.108831	-0.271273	-0.399827
O20	O	1.608831	0.228727	0.100173
O21	O	1.018347	-0.441652	-0.190096
O22	O	1.518347	0.058348	0.309904
O23	O	0.899069	-0.441603	-0.309388
O24	O	1.399069	0.058397	0.190612
O25	O	1.018392	-0.570598	-0.519088
O26	O	1.518392	-0.070598	-0.019088
O27	O	0.899059	-0.570624	-0.399769
O28	O	1.399059	-0.070624	0.100231
O29	O	1.108818	-0.441557	-0.519113
O30	O	1.608818	0.058443	-0.019113
O31	O	1.108701	-0.740995	-0.309377
O32	O	1.608701	-0.240995	0.190623
O33	O	1.018325	-0.740957	-0.399763
O34	O	1.518325	-0.240957	0.100237
C35	C	0.872361	-0.506111	-0.354576
C36	C	1.372361	-0.006111	0.145424
C37	C	0.790562	-0.506129	-0.354584
C38	C	1.290562	-0.006129	0.145416
C39	C	0.602383	-0.573416	-0.401587
C40	C	1.102383	-0.073416	0.098413
C41	C	0.525524	-0.573420	-0.401596
C42	C	1.025524	-0.073420	0.098404
C43	C	0.525504	-0.438862	-0.307623
C44	C	1.025504	0.061138	0.192377
C45	C	0.602362	-0.438854	-0.307618
C46	C	1.102362	0.061146	0.192382
C47	C	0.640799	-0.506137	-0.354599
C48	C	1.140799	-0.006137	0.145401
C49	C	0.487083	-0.506148	-0.354613
C50	C	0.987083	-0.006148	0.145387
C51	C	0.403749	-0.506151	-0.354623
C52	C	0.903749	-0.006151	0.145377
C53	C	0.724138	-0.506133	-0.354590
C54	C	1.224138	-0.006133	0.145410
C55	C	1.063524	-0.779097	-0.354582
C56	C	1.563524	-0.279097	0.145418
C57	C	1.063573	-0.895873	-0.354600
C58	C	1.563573	-0.395873	0.145400
C59	C	1.110683	-0.950720	-0.307588
C60	C	1.610683	-0.450720	0.192412
C61	C	1.110729	-1.060444	-0.307610
C62	C	1.610729	-0.560444	0.192390
C63	C	1.016546	-1.060465	-0.401659
C64	C	1.516546	-0.560465	0.098341
C65	C	1.016505	-0.950743	-0.401639
C66	C	1.516505	-0.450743	0.098361
C67	C	1.157751	-0.895850	-0.260548
C68	C	1.657751	-0.395850	0.239452
C69	C	1.204865	-0.950697	-0.213532
C70	C	1.704865	-0.450697	0.286468
C71	C	1.204910	-1.060421	-0.213554
C72	C	1.704910	-0.560421	0.286446
C73	C	1.157841	-1.115298	-0.260593
C74	C	1.657841	-0.615298	0.239407
C75	C	1.255521	-0.506148	-0.354618
C76	C	1.755521	-0.006148	0.145382
C77	C	1.337319	-0.506156	-0.354628
C78	C	1.837319	-0.006156	0.145372
C79	C	1.063611	-0.506069	-0.546550
C80	C	1.563611	-0.006069	-0.046550
C81	C	1.063630	-0.506043	-0.628349
C82	C	1.563630	-0.006043	-0.128349
C83	C	1.063632	-0.232096	-0.354628
C84	C	1.563632	0.267904	0.145372
C85	C	1.063659	-0.115320	-0.354642
C86	C	1.563659	0.384680	0.145358
C87	C	1.110717	-0.573115	-0.893409
C88	C	1.610717	-0.073115	-0.393409
C89	C	1.110706	-0.573151	-0.816550
C90	C	1.610706	-0.073151	-0.316550
C91	C	1.016598	-0.438769	-0.816538
C92	C	1.516598	0.061231	-0.316538
C93	C	1.016606	-0.438739	-0.893395
C94	C	1.516606	0.061261	-0.393395
C95	C	1.063670	-0.505910	-0.931829
C96	C	1.563670	-0.005910	-0.431829
C97	C	1.063651	-0.505977	-0.778112
C98	C	1.563651	-0.005977	-0.278112
C99	C	1.063638	-0.506016	-0.694779
C100	C	1.563638	-0.006016	-0.194779
C101	C	1.063682	-0.505873	-1.015168
C102	C	1.563682	-0.005873	-0.515168
C103	C	1.063567	-0.506114	-0.163391
C104	C	1.563567	-0.006114	0.336609
C105	C	1.063691	-0.505844	-0.081592
C106	C	1.563691	-0.005844	0.418408
H107	H	0.494200	-0.384084	-0.269372
H108	H	0.994200	0.115916	0.230628
Cl109	Cl	1.169852	-0.657642	-0.768253
Cl110	Cl	1.669852	-0.157642	-0.268253
Cl111	Cl	1.264144	-1.129368	-0.154456
Cl112	Cl	1.764144	-0.629368	0.345544
H113	H	0.978282	-0.384080	-0.785236
H114	H	1.478282	0.115920	-0.285236
Cl115	Cl	0.957445	-0.354262	-0.941698
Cl116	Cl	1.457445	0.145738	-0.441698
Cl117	Cl	1.169880	-0.657561	-0.941722
Cl118	Cl	1.669880	-0.157561	-0.441722
Cl119	Cl	0.957280	-0.881788	-0.460743
Cl120	Cl	1.457280	-0.381788	0.039257
Cl121	Cl	1.157903	-0.757912	-0.260722
Cl122	Cl	1.657903	-0.257912	0.239278
Cl123	Cl	0.650701	-0.657996	-0.460651
Cl124	Cl	1.150701	-0.157996	0.039349
Cl125	Cl	0.477233	-0.658001	-0.460670
Cl126	Cl	0.977233	-0.158001	0.039330
H127	H	0.633641	-0.384061	-0.269355
H128	H	1.133641	0.115939	0.230645
H129	H	1.157888	-1.204643	-0.260614
H130	H	1.657888	-0.704643	0.239386
Cl131	Cl	1.264040	-0.881710	-0.154407
Cl132	Cl	1.764040	-0.381710	0.345593
H133	H	0.978224	-1.105155	-0.439955
H134	H	1.478224	-0.605155	0.060045
