data_functionalizedCrystal
_audit_creation_method	'MofGen! by Chris Wilmer'
_symmetry_space_group_name_H-M	'P1'
_symmetry_Int_Tables_number	1
_symmetry_cell_setting	triclinic
loop_
_symmetry_equiv_pos_as_xyz
  x,y,z
_cell_length_a	10.686220
_cell_length_b	12.759394
_cell_length_c	10.686551
_cell_angle_alpha	94.406554
_cell_angle_beta	89.691918
_cell_angle_gamma	94.396533
loop_
_atom_site_label
_atom_site_type_symbol
_atom_site_fract_x
_atom_site_fract_y
_atom_site_fract_z
Zn1	Zn	1.972288	-0.256139	0.562381
Zn2	Zn	1.956059	-0.446299	0.352619
Zn3	Zn	1.746406	-0.283015	0.368698
Zn4	Zn	1.762489	-0.444170	0.578397
O5	O	1.859311	-0.357405	0.465524
O6	O	2.145677	-0.271007	0.521124
O7	O	1.914725	-0.436778	0.179206
O8	O	1.776431	-0.132423	0.394417
O9	O	2.133754	-0.410717	0.367013
O10	O	1.942386	-0.112677	0.536715
O11	O	1.760695	-0.316813	0.191020
O12	O	1.572998	-0.314749	0.409947
O13	O	1.803842	-0.407088	0.751818
O14	O	1.584814	-0.433149	0.564012
O15	O	1.957980	-0.268943	0.740052
O16	O	1.930320	-0.593043	0.382543
O17	O	1.788105	-0.591479	0.548421
C18	C	1.533390	-0.376635	0.490463
C19	C	1.393962	-0.384885	0.501162
C20	C	1.859233	-0.630379	0.465499
C21	C	1.859318	-0.747149	0.465522
C22	C	2.007536	-0.748709	0.292904
C23	C	2.081679	-0.804347	0.206608
C24	C	2.081755	-0.914062	0.206636
C25	C	2.007683	-0.968141	0.292973
C26	C	1.933540	-0.912503	0.379270
C27	C	1.933469	-0.802786	0.379229
C28	C	1.785331	-0.910942	0.551891
C29	C	1.785246	-0.801228	0.551859
C30	C	1.711259	-0.965022	0.638228
C31	C	1.637107	-0.909384	0.724521
C32	C	1.637033	-0.799663	0.724488
C33	C	1.711103	-0.745590	0.638155
C34	C	2.186504	-0.338102	0.440489
C35	C	2.325934	-0.329875	0.429820
C36	C	1.884515	-0.334780	0.792725
C37	C	1.895256	-0.325138	0.932158
C38	C	1.859425	-0.083362	0.465573
C39	C	1.859473	0.033420	0.465595
C40	C	1.834276	-0.379863	0.139591
C41	C	1.823778	-0.389194	0.000139
H42	H	1.374359	-0.276469	0.360555
C43	C	1.730001	-0.473248	0.934671
C44	C	1.741550	-0.590862	0.951760
C45	C	1.647771	-0.674918	0.886283
C46	C	1.542443	-0.641360	0.803716
C47	C	1.530890	-0.523740	0.786623
C48	C	1.624669	-0.439684	0.852101
H49	H	1.819523	-0.615710	1.012884
H50	H	1.656324	-0.761988	0.898936
H51	H	1.473022	-0.703583	0.755246
H52	H	1.452916	-0.498893	0.725499
H53	H	1.616116	-0.352614	0.839447
C54	C	1.989038	-0.241080	0.997631
C55	C	2.071838	-0.166878	0.918990
C56	C	2.165618	-0.082821	0.984463
C57	C	2.176599	-0.072966	1.128578
C58	C	2.093797	-0.147170	1.207228
C59	C	2.000017	-0.231227	1.141755
H60	H	2.063711	-0.174171	0.812300
H61	H	2.226914	-0.027890	0.926240
H62	H	2.246021	-0.010742	1.177045
H63	H	2.101923	-0.139877	1.313918
H64	H	1.938721	-0.286158	1.199978
H65	H	1.576811	-0.953424	0.794814
C66	C	1.328547	-0.457045	0.594737
C67	C	1.234221	-0.548504	0.547044
C68	C	1.168806	-0.620663	0.640617
C69	C	1.197717	-0.601364	0.781885
C70	C	1.292048	-0.509901	0.829585
C71	C	1.357463	-0.437742	0.736012
H72	H	1.212814	-0.562794	0.442463
H73	H	1.098976	-0.688370	0.605305
H74	H	1.149294	-0.654780	0.851153
H75	H	1.313455	-0.495611	0.934166
H76	H	1.427293	-0.370035	0.771324
H77	H	1.576663	-0.754368	0.794765
H78	H	2.007464	-0.659376	0.292858
H79	H	2.141990	-0.760306	0.136315
H80	H	2.142135	-0.959362	0.136372
H81	H	2.007763	-1.057476	0.292999
H82	H	1.711332	-1.054357	0.638250
H83	H	1.711041	-0.656256	0.638113
