data_functionalizedCrystal
_audit_creation_method	'MofGen! by Chris Wilmer'
_symmetry_space_group_name_H-M	'P1'
_symmetry_Int_Tables_number	1
_symmetry_cell_setting	triclinic
loop_
_symmetry_equiv_pos_as_xyz
  x,y,z
_cell_length_a	16.956995
_cell_length_b	19.188930
_cell_length_c	17.666332
_cell_angle_alpha	90.006765
_cell_angle_beta	90.009565
_cell_angle_gamma	79.599626
loop_
_atom_site_label
_atom_site_type_symbol
_atom_site_fract_x
_atom_site_fract_y
_atom_site_fract_z
O1	O	1.057939	0.028939	0.063003
O2	O	0.825696	0.053455	0.062996
O3	O	0.948520	-0.060827	0.062985
O4	O	0.935116	0.143222	0.063014
O5	O	0.948503	-0.060823	-0.062912
O6	O	0.825680	0.053460	-0.062901
O7	O	1.057923	0.028944	-0.062894
Cu8	Cu	0.941800	0.041202	-0.074393
Cu9	Cu	0.941819	0.041197	0.074495
O10	O	0.935099	0.143226	-0.062883
C11	C	0.795976	0.054713	0.000046
C12	C	0.707442	0.058445	0.000043
C13	C	0.948077	-0.086812	0.000034
C14	C	0.946774	-0.164245	0.000028
C15	C	0.208044	0.086363	0.000075
C16	C	0.291232	0.082851	0.000074
C17	C	0.342550	0.016930	0.000058
C18	C	0.310677	-0.045484	0.000052
C19	C	0.227491	-0.041971	0.000059
C20	C	0.592383	-0.000456	0.000043
C21	C	0.675574	-0.003964	0.000034
C22	C	0.656123	0.124371	0.000057
C23	C	0.572937	0.127878	0.000059
C24	C	0.541071	0.065465	0.000056
N25	N	0.427581	0.013338	0.000055
N26	N	0.456041	0.069057	0.000065
C27	C	1.018843	-0.213135	0.000026
C28	C	1.017619	-0.285892	0.000038
C29	C	0.944322	-0.309754	0.000037
C30	C	0.872244	-0.260854	0.000042
C31	C	0.873470	-0.188099	0.000038
N32	N	0.888290	-0.414674	-0.042810
N33	N	0.887130	-0.483789	-0.042808
C34	C	0.940623	-0.528959	0.000052
N35	N	0.995332	-0.502406	0.042899
N36	N	0.996495	-0.433285	0.042893
C37	C	0.942984	-0.388643	0.000042
C38	C	1.011369	-0.656741	0.000065
C39	C	1.010142	-0.729499	0.000082
C40	C	0.864765	-0.704459	0.000078
C41	C	0.865994	-0.631703	0.000068
C42	C	0.939299	-0.607849	0.000058
C43	C	1.087643	0.027686	0.000058
C44	C	1.176177	0.023954	0.000066
C45	C	0.935541	0.169211	0.000069
C46	C	0.936844	0.246644	0.000081
N47	N	0.941792	0.041205	-0.179112
C48	C	0.990054	0.080770	-0.781153
C49	C	0.990046	0.080777	-0.701906
C50	C	0.941826	0.041189	-0.662294
C51	C	0.893595	0.001605	-0.701936
C52	C	0.893599	0.001605	-0.781182
N53	N	0.939895	-0.019865	-0.537878
N54	N	0.939897	-0.019863	-0.462598
C55	C	0.941812	0.041190	-0.423530
N56	N	0.943742	0.102240	-0.462586
N57	N	0.943745	0.102237	-0.537873
C58	C	0.941817	0.041186	-0.576365
C59	C	0.990027	0.080783	-0.297968
C60	C	0.990014	0.080792	-0.218719
C61	C	0.893567	0.001614	-0.218750
C62	C	0.893576	0.001611	-0.297998
C63	C	0.941811	0.041195	-0.337602
N64	N	0.941833	0.041188	0.179214
H65	H	0.166266	0.140044	0.000081
N66	N	0.559822	-0.064198	0.000034
N67	N	0.515585	-0.076564	0.053101
H68	H	0.492582	-0.121584	0.053093
N69	N	0.844330	-0.038821	-0.821669
N70	N	0.769977	-0.026202	-0.812836
H71	H	0.735180	-0.054752	-0.841431
N72	N	0.363106	-0.112816	0.000046
N73	N	0.437377	-0.115945	0.000040
H74	H	0.474406	-0.163500	0.000035
N75	N	0.844339	-0.038824	-0.661465
N76	N	0.844342	-0.038819	-0.590710
H77	H	0.809550	-0.067370	-0.562127
H78	H	0.812565	-0.280287	0.000042
N79	N	0.792377	-0.581758	0.000044
N80	N	0.776839	-0.538378	-0.053031
H81	H	0.724843	-0.503103	-0.053047
H82	H	1.029313	0.113012	-0.669631
H83	H	1.029329	0.113003	-0.813394
N84	N	0.799843	-0.138164	0.000043
N85	N	0.734402	-0.159474	0.000049
H86	H	0.682401	-0.124207	0.000052
N87	N	0.194949	-0.105727	0.000055
N88	N	0.240776	-0.164582	0.000043
H89	H	0.217795	-0.209613	0.000044
N90	N	1.039298	0.121219	-0.338416
N91	N	1.082346	0.156564	-0.303016
H92	H	1.117144	0.185122	-0.331581
N93	N	0.844337	-0.038837	-0.338487
N94	N	0.875645	-0.086792	-0.382706
H95	H	0.840867	-0.115359	-0.411302
N96	N	0.844319	-0.038825	-0.178287
N97	N	0.875618	-0.086777	-0.134064
H98	H	0.840833	-0.115337	-0.105483
H99	H	0.682078	0.175185	0.000060
N100	N	0.323771	0.146607	0.000091
N101	N	0.277942	0.205461	0.000104
H102	H	0.300921	0.250493	0.000120
N103	N	1.039265	0.121243	-0.178244
N104	N	1.082318	0.156584	-0.213618
H105	H	1.117101	0.185156	-0.185033
N106	N	1.093720	-0.188772	0.000009
N107	N	1.142241	-0.205287	-0.053061
H108	H	1.195124	-0.188079	-0.053072
N109	N	0.520530	0.195222	0.000071
N110	N	0.548995	0.250940	0.000078
H111	H	0.511983	0.298503	0.000084
H112	H	0.717357	-0.057648	0.000025
N113	N	1.086237	-0.632357	0.000074
N114	N	1.087323	-0.567397	0.000069
H115	H	1.140198	-0.550176	0.000077
H116	H	1.068832	-0.769306	0.000085
H117	H	1.076308	-0.325706	0.000040
H118	H	0.805085	-0.723887	0.000080
