data_functionalizedCrystal
_audit_creation_method	'MofGen! by Chris Wilmer'
_symmetry_space_group_name_H-M	'P1'
_symmetry_Int_Tables_number	1
_symmetry_cell_setting	triclinic
loop_
_symmetry_equiv_pos_as_xyz
  x,y,z
_cell_length_a	10.489741
_cell_length_b	10.489716
_cell_length_c	8.965430
_cell_angle_alpha	90.004464
_cell_angle_beta	89.998843
_cell_angle_gamma	84.534155
loop_
_atom_site_label
_atom_site_type_symbol
_atom_site_fract_x
_atom_site_fract_y
_atom_site_fract_z
O1	O	1.694038	0.179960	-0.123932
O2	O	1.322840	0.196853	-0.123954
O3	O	1.516902	0.002807	-0.123948
O4	O	1.499976	0.374007	-0.123938
O5	O	1.516885	0.002820	0.124131
O6	O	1.322824	0.196866	0.124125
O7	O	1.694021	0.179973	0.124146
Cu8	Cu	1.508421	0.188421	0.146787
Cu9	Cu	1.508440	0.188406	-0.146595
O10	O	1.499960	0.374020	0.124140
C11	C	1.275301	0.195584	0.000082
C12	C	1.133672	0.191767	0.000073
C13	C	1.515622	-0.044719	0.000087
C14	C	1.511817	-0.186350	0.000073
C15	C	1.065542	0.068301	0.000084
C16	C	0.973418	0.126618	-0.122227
C17	C	0.973436	0.126661	0.122359
C18	C	1.043413	0.250135	-0.122339
C19	C	1.043440	0.250160	0.122357
C20	C	0.951344	0.308568	0.000016
C21	C	1.630822	-0.284024	0.000093
C22	C	1.567945	-0.361391	-0.122222
C23	C	1.567901	-0.361342	0.122364
C24	C	1.448990	-0.261851	-0.122344
C25	C	1.448964	-0.261797	0.122352
C26	C	1.386000	-0.339115	0.000007
C27	C	1.741561	0.181243	0.000107
C28	C	1.883190	0.185060	0.000106
C29	C	1.501240	0.421545	0.000102
C30	C	1.505044	0.563176	0.000106
N31	N	1.508417	0.188431	0.353136
N32	N	1.508455	0.188386	-0.352944
C33	C	1.418642	0.278141	0.450439
C34	C	1.534136	0.303952	0.549861
C35	C	1.392971	0.162631	0.549842
C36	C	1.623970	0.214300	0.450369
C37	C	1.482728	0.072928	0.450341
C38	C	1.598306	0.098691	0.549718
H39	H	0.942416	0.074372	-0.225637
H40	H	1.398788	-0.218553	-0.225867
H41	H	1.074243	0.302330	-0.225860
H42	H	1.721638	0.236219	0.406858
C43	C	1.700994	-0.003822	0.608254
H44	H	1.782930	0.014703	0.574009
H45	H	1.683430	-0.085639	0.572672
H46	H	1.699988	-0.003749	0.714211
H47	H	1.342793	0.354076	0.406848
H48	H	1.115241	-0.033196	-0.000072
H49	H	1.460939	-0.024699	0.406594
C50	C	1.381137	-0.203002	0.262041
H51	H	1.310829	-0.144601	0.232659
H52	H	1.439735	-0.159007	0.318648
H53	H	1.350985	-0.269136	0.320994
C54	C	1.635815	-0.420169	-0.261905
H55	H	1.722736	-0.401693	-0.261755
H56	H	1.594409	-0.384772	-0.348771
H57	H	1.632196	-0.510316	-0.261341
H58	H	0.901911	0.410172	-0.000048
H59	H	1.074475	0.302364	0.225772
C60	C	1.635779	-0.420048	0.262066
H61	H	1.722692	-0.401545	0.261907
H62	H	1.632168	-0.510190	0.261557
H63	H	1.594368	-0.384601	0.348922
H64	H	1.555890	0.401610	0.593573
H65	H	1.295325	0.140830	0.593541
H66	H	0.942456	0.074402	0.225764
H67	H	1.734335	-0.259347	-0.000025
H68	H	1.282408	-0.363546	-0.000065
