data_functionalizedCrystal
_audit_creation_method	'MofGen! by Chris Wilmer'
_symmetry_space_group_name_H-M	'P1'
_symmetry_Int_Tables_number	1
_symmetry_cell_setting	triclinic
loop_
_symmetry_equiv_pos_as_xyz
  x,y,z
_cell_length_a	10.540539
_cell_length_b	10.540539
_cell_length_c	8.140239
_cell_angle_alpha	89.998610
_cell_angle_beta	89.999332
_cell_angle_gamma	84.525492
loop_
_atom_site_label
_atom_site_type_symbol
_atom_site_fract_x
_atom_site_fract_y
_atom_site_fract_z
O1	O	1.685884	0.178898	-0.136528
O2	O	1.316471	0.195754	-0.136547
O3	O	1.509606	0.002620	-0.136535
O4	O	1.492750	0.372033	-0.136540
O5	O	1.509595	0.002618	0.136692
O6	O	1.316460	0.195752	0.136680
O7	O	1.685873	0.178896	0.136700
Zn8	Zn	1.501165	0.187324	0.180070
Zn9	Zn	1.501179	0.187327	-0.179918
O10	O	1.492739	0.372031	0.136687
C11	C	1.269163	0.194489	0.000064
C12	C	1.128215	0.190707	0.000056
C13	C	0.944788	0.045790	0.000696
C14	C	1.091406	0.049624	0.000063
C15	C	1.066548	0.258604	-0.155965
C16	C	0.920004	0.253789	-0.156078
C17	C	0.919503	0.256656	0.154632
C18	C	1.066485	0.257956	0.156677
C19	C	1.508336	-0.044684	0.000076
C20	C	1.504554	-0.185632	0.000067
C21	C	1.359637	-0.369059	-0.000554
C22	C	1.363471	-0.222441	0.000061
C23	C	1.572444	-0.247291	0.156096
C24	C	1.567629	-0.393836	0.156228
C25	C	1.570510	-0.394351	-0.154483
C26	C	1.571810	-0.247369	-0.156545
C27	C	1.733182	0.180161	0.000085
C28	C	1.874130	0.183943	0.000082
C29	C	1.494008	0.419335	0.000073
C30	C	1.497790	0.560283	0.000071
N31	N	1.501165	0.187321	0.425753
N32	N	1.501190	0.187320	-0.425601
H33	H	0.916198	-0.009947	0.112588
F34	F	1.706256	-0.215705	-0.168864
H35	H	1.669094	-0.441804	0.163311
F36	F	0.905305	-0.026759	-0.144728
H37	H	1.672414	-0.441577	-0.155526
F38	F	1.286794	-0.406436	-0.146807
H39	H	1.133156	-0.004174	-0.111971
F40	F	1.510825	-0.435578	-0.309059
F41	F	1.507391	-0.193369	-0.307439
H42	H	1.304128	-0.399267	0.110705
H43	H	0.872276	0.358560	0.155685
H44	H	0.891798	0.203609	-0.272704
H45	H	1.134016	-0.003800	0.111906
H46	H	0.872035	0.355254	-0.163161
F47	F	1.293143	-0.167858	0.146488
F48	F	1.119893	0.193020	0.307544
H49	H	1.088901	0.362212	-0.161771
H50	H	1.517446	-0.422036	0.272858
F51	F	0.878270	0.196974	0.309212
F52	F	1.122216	0.196960	-0.307736
F53	F	1.098142	0.392404	0.168988
H54	H	1.676051	-0.224937	0.161903
F55	F	1.510793	-0.191616	0.307860
H56	H	1.310052	-0.179837	-0.111787
