data_functionalizedCrystal
_audit_creation_method	'MofGen! by Chris Wilmer'
_symmetry_space_group_name_H-M	'P1'
_symmetry_Int_Tables_number	1
_symmetry_cell_setting	triclinic
loop_
_symmetry_equiv_pos_as_xyz
  x,y,z
_cell_length_a	15.995350
_cell_length_b	17.038272
_cell_length_c	15.072220
_cell_angle_alpha	89.999202
_cell_angle_beta	89.991149
_cell_angle_gamma	87.301966
loop_
_atom_site_label
_atom_site_type_symbol
_atom_site_fract_x
_atom_site_fract_y
_atom_site_fract_z
O1	O	1.118174	0.100774	-0.073708
O2	O	0.875285	0.113219	-0.073726
O3	O	0.995286	-0.006819	-0.073710
O4	O	0.998173	0.220812	-0.073724
O5	O	0.995255	-0.006813	0.073855
O6	O	0.875254	0.113226	0.073839
O7	O	1.118143	0.100781	0.073857
Zn8	Zn	0.996694	0.107004	0.097277
Zn9	Zn	0.996735	0.106995	-0.097146
O10	O	0.998142	0.220819	0.073841
C11	C	0.844038	0.112708	0.000054
C12	C	0.750978	0.111165	0.000047
C13	C	0.992645	-0.035945	0.000072
C14	C	0.984810	-0.122740	0.000071
C15	C	0.412836	0.105626	0.000066
C16	C	0.454180	0.020137	0.000400
C17	C	0.550981	0.021680	0.000062
C18	C	0.580592	0.108374	0.000057
C19	C	0.542527	0.150536	-0.084209
C20	C	0.445738	0.148388	-0.084273
C21	C	0.445489	0.150162	0.083536
C22	C	0.542433	0.150142	0.084644
C23	C	0.675401	0.109931	0.000049
C24	C	0.318027	0.104071	0.000068
C25	C	1.056739	-0.172836	0.000078
C26	C	1.049373	-0.254389	0.000069
C27	C	0.970077	-0.285843	0.000060
C28	C	0.898143	-0.235740	0.000051
C29	C	0.905510	-0.154189	0.000053
C30	C	0.944051	-0.531607	0.000046
C31	C	0.936689	-0.613164	0.000046
C32	C	1.087920	-0.631807	0.000062
C33	C	1.095280	-0.550254	0.000070
C34	C	1.023346	-0.500158	0.000056
C35	C	0.962546	-0.369202	0.000053
C36	C	1.030878	-0.416801	0.000056
C37	C	1.149390	0.101292	0.000075
C38	C	1.242450	0.102834	0.000076
C39	C	1.000784	0.249944	0.000057
C40	C	1.008618	0.336739	0.000052
N41	N	0.996671	0.107010	0.229966
N42	N	0.996763	0.106984	-0.229835
C43	C	0.996733	0.106992	0.589168
C44	C	0.932276	0.171007	0.551552
C45	C	0.932451	0.171241	0.448726
C46	C	0.996702	0.107001	0.410963
C47	C	1.085336	0.124819	0.448260
C48	C	1.084981	0.125274	0.551118
C49	C	0.973321	0.024970	0.551271
C50	C	0.971355	0.025517	0.448408
C51	C	0.996689	0.107004	0.310250
C52	C	0.996751	0.106991	0.689881
H53	H	0.577036	-0.011462	0.060467
H54	H	0.909778	0.007836	0.577258
H55	H	0.561189	0.214228	-0.087345
C56	C	0.953471	0.253465	0.415461
C57	C	0.957813	0.270039	0.315169
C58	C	0.978839	0.352267	0.281905
C59	C	0.995523	0.417920	0.348933
C60	C	0.991182	0.401348	0.449232
C61	C	0.970156	0.319121	0.482496
H62	H	0.945462	0.221437	0.265545
H63	H	0.982053	0.364534	0.207657
H64	H	1.011088	0.478790	0.324309
H65	H	1.003533	0.449951	0.498856
H66	H	0.966942	0.306854	0.556744
C67	C	1.118101	-0.382203	0.000068
C68	C	1.143932	-0.328702	0.076700
C69	C	1.231155	-0.294096	0.076716
C70	C	1.292548	-0.312991	0.000100
C71	C	1.266718	-0.366496	-0.076538
C72	C	1.179495	-0.401102	-0.076554
H73	H	1.098484	-0.314712	0.133422
H74	H	1.250275	-0.254488	0.133449
H75	H	1.357116	-0.287374	0.000112
H76	H	1.312166	-0.380486	-0.133260
H77	H	1.160375	-0.440709	-0.133288
C78	C	0.864922	-0.476513	0.000047
C79	C	0.801538	-0.480039	-0.076577
C80	C	0.722404	-0.424942	-0.076571
C81	C	0.706654	-0.366318	0.000058
C82	C	0.770040	-0.362789	0.076688
C83	C	0.849174	-0.417886	0.076682
H84	H	0.813195	-0.523438	-0.133308
H85	H	0.675481	-0.427555	-0.133298
H86	H	0.648074	-0.325532	0.000062
H87	H	0.758383	-0.319390	0.133419
H88	H	0.896097	-0.415274	0.133409
H89	H	0.432177	-0.013880	-0.059693
C90	C	0.843701	0.156911	0.414650
C91	C	0.797365	0.218922	0.356080
C92	C	0.708611	0.204596	0.322007
C93	C	0.666192	0.128259	0.346504
C94	C	0.712528	0.066243	0.405077
C95	C	0.801282	0.080569	0.439150
H96	H	0.828766	0.275436	0.337943
H97	H	0.674311	0.250506	0.278647
H98	H	0.600491	0.117654	0.321281
H99	H	0.681127	0.009728	0.423213
H100	H	0.835583	0.034659	0.482509
C101	C	1.143966	-0.138240	0.000088
C102	C	1.205319	-0.157150	0.076717
C103	C	1.292548	-0.122556	0.076725
C104	C	1.318425	-0.069053	0.000103
C105	C	1.257072	-0.050141	-0.076532
C106	C	1.169842	-0.084734	-0.076539
H107	H	1.186164	-0.196758	0.133443
H108	H	1.337966	-0.136557	0.133456
H109	H	1.382998	-0.043445	0.000109
H110	H	1.276227	-0.010532	-0.133257
H111	H	1.124425	-0.070734	-0.133270
C112	C	0.953074	0.252768	0.586447
C113	C	0.888261	0.301046	0.641979
C114	C	0.909076	0.382801	0.676876
C115	C	0.994703	0.416279	0.656241
C116	C	1.059521	0.368000	0.600706
C117	C	1.038706	0.286244	0.565809
H118	H	0.824870	0.276265	0.657257
H119	H	0.861093	0.418540	0.717986
H120	H	1.010111	0.476799	0.682073
H121	H	1.122912	0.392781	0.585428
H122	H	1.086689	0.250505	0.524699
C123	C	0.425844	-0.026025	0.082036
C124	C	0.491014	-0.058374	0.149525
C125	C	0.462669	-0.104535	0.231164
C126	C	0.369153	-0.118347	0.245313
C127	C	0.303976	-0.085996	0.177822
C128	C	0.332322	-0.039836	0.096184
H129	H	0.560246	-0.048151	0.139052
H130	H	0.510917	-0.128483	0.281125
H131	H	0.348170	-0.152518	0.305747
H132	H	0.234745	-0.096220	0.188295
H133	H	0.284073	-0.015888	0.046222
H134	H	1.146484	-0.672604	0.000071
C135	C	1.111646	0.206085	0.583519
C136	C	1.198152	0.235190	0.558127
C137	C	1.224815	0.316004	0.590523
C138	C	1.164974	0.367712	0.648310
C139	C	1.078463	0.338608	0.673705
C140	C	1.051799	0.257794	0.641310
H141	H	1.242455	0.196912	0.515347
H142	H	1.288856	0.337549	0.571723
H143	H	1.184712	0.427535	0.672291
H144	H	1.034160	0.376886	0.716486
H145	H	0.987758	0.236249	0.660109
C146	C	0.843256	0.156913	0.585002
C147	C	0.769492	0.212625	0.556578
C148	C	0.680469	0.198531	0.590036
C149	C	0.665209	0.128724	0.651918
C150	C	0.738974	0.073007	0.680346
C151	C	0.827998	0.087102	0.646888
H152	H	0.780787	0.264304	0.510765
H153	H	0.625863	0.239776	0.568991
H154	H	0.599309	0.118291	0.676686
H155	H	0.727680	0.021328	0.726159
H156	H	0.882603	0.045856	0.667933
H157	H	1.134752	0.080487	0.575999
C158	C	0.415055	0.112399	0.169823
C159	C	0.479037	0.078650	0.237759
C160	C	0.448605	0.040873	0.324038
C161	C	0.354192	0.036845	0.342381
C162	C	0.290205	0.070595	0.274444
C163	C	0.320636	0.108373	0.188164
H164	H	0.548932	0.081631	0.224181
H165	H	0.495974	0.015889	0.374330
H166	H	0.331665	0.008880	0.406250
H167	H	0.220309	0.067615	0.288021
H168	H	0.273268	0.133357	0.137873
H169	H	0.568828	0.121246	-0.146918
C170	C	0.883235	0.007242	0.415479
C171	C	0.834495	0.066008	0.354876
C172	C	0.746375	0.047735	0.321941
C173	C	0.706995	-0.029304	0.349609
C174	C	0.755735	-0.088075	0.410216
C175	C	0.843855	-0.069802	0.443151
H176	H	0.863647	0.123042	0.334391
H177	H	0.710295	0.091242	0.277076
H178	H	0.641763	-0.042831	0.325229
H179	H	0.726583	-0.145109	0.430701
H180	H	0.879935	-0.113309	0.488016
H181	H	1.014806	-0.024351	0.422706
C182	C	1.036719	-0.039392	0.584137
C183	C	1.047593	-0.054515	0.684294
C184	C	1.110993	-0.118870	0.717165
C185	C	1.163518	-0.168101	0.649879
C186	C	1.152645	-0.152979	0.549715
C187	C	1.089245	-0.088624	0.516844
H188	H	1.008710	-0.018070	0.734109
H189	H	1.119041	-0.130064	0.791314
H190	H	1.210450	-0.215740	0.674212
H191	H	1.191528	-0.189423	0.499900
H192	H	1.081197	-0.077430	0.442696
C193	C	0.585429	-0.023392	-0.081685
C194	C	0.524839	-0.060899	-0.146864
C195	C	0.559287	-0.105969	-0.228616
C196	C	0.654325	-0.113533	-0.245190
C197	C	0.714922	-0.076025	-0.180009
C198	C	0.680474	-0.030954	-0.098257
H199	H	0.454480	-0.055301	-0.134596
H200	H	0.514428	-0.133735	-0.276867
H201	H	0.679826	-0.146897	-0.305708
H202	H	0.785280	-0.081623	-0.192277
H203	H	0.725332	-0.003188	-0.050006
H204	H	0.425253	0.117636	-0.147261
H205	H	0.417961	0.211153	-0.088100
H206	H	0.567544	0.119364	0.146983
H207	H	1.107945	-0.295174	0.000076
H208	H	1.159850	-0.524651	0.000077
C209	C	0.849462	-0.647772	0.000028
C210	C	0.788065	-0.628876	0.076640
C211	C	0.700845	-0.663489	0.076623
C212	C	0.675022	-0.716997	-0.000007
C213	C	0.736420	-0.735896	-0.076625
C214	C	0.823641	-0.701283	-0.076608
H215	H	0.807179	-0.589264	0.133371
H216	H	0.655393	-0.649498	0.133341
H217	H	0.610456	-0.742619	-0.000020
H218	H	0.717306	-0.775508	-0.133356
H219	H	0.869092	-0.715274	-0.133326
C220	C	0.408648	0.235312	0.084309
C221	C	0.349231	0.264326	0.009608
C222	C	0.312386	0.349472	0.010373
C223	C	0.334957	0.405603	0.085837
C224	C	0.394377	0.376589	0.160544
C225	C	0.431223	0.291443	0.159779
H226	H	0.332519	0.222774	-0.046260
H227	H	0.268399	0.370950	-0.044930
H228	H	0.307682	0.468632	0.086403
H229	H	0.411089	0.418141	0.216412
H230	H	0.475209	0.269966	0.215082
H231	H	0.562300	0.213362	0.089730
H232	H	1.134687	0.079434	0.423797
H233	H	0.833579	-0.261356	0.000038
H234	H	0.897983	-0.394821	0.000048
H235	H	0.846938	-0.113400	0.000048
H236	H	1.105400	0.183956	0.422489
