data_functionalizedCrystal
_audit_creation_method	'MofGen! by Chris Wilmer'
_symmetry_space_group_name_H-M	'P1'
_symmetry_Int_Tables_number	1
_symmetry_cell_setting	triclinic
loop_
_symmetry_equiv_pos_as_xyz
  x,y,z
_cell_length_a	14.044220
_cell_length_b	8.559649
_cell_length_c	7.681481
_cell_angle_alpha	94.930900
_cell_angle_beta	96.248816
_cell_angle_gamma	98.516229
loop_
_atom_site_label
_atom_site_type_symbol
_atom_site_fract_x
_atom_site_fract_y
_atom_site_fract_z
O1	O	1.219993	-0.394972	-0.146409
O2	O	0.945025	-0.381214	-0.146414
O3	O	1.106734	-0.158944	-0.146410
O4	O	1.058284	-0.617243	-0.146414
O5	O	1.126643	-0.131518	0.146449
O6	O	0.964934	-0.353789	0.146444
O7	O	1.239902	-0.367547	0.146449
Zn8	Zn	1.105579	-0.356313	0.192944
Zn9	Zn	1.079348	-0.392448	-0.192909
O10	O	1.078193	-0.589817	0.146444
C11	C	1.120360	-0.086225	0.000016
C12	C	1.131289	0.089597	0.000007
C13	C	0.920104	-0.361479	0.000014
C14	C	0.816185	-0.343516	0.000012
C15	C	1.264823	-0.387282	0.000017
C16	C	1.368741	-0.405247	0.000007
C17	C	1.559012	-0.438088	0.000009
C18	C	1.625920	-0.310681	0.000010
C19	C	1.731793	-0.328955	0.000011
C20	C	1.453128	-0.419817	0.000008
C21	C	1.064567	-0.662536	0.000014
C22	C	1.053638	-0.838359	0.000012
N23	N	1.123487	-0.331653	0.456279
N24	N	1.061448	-0.417097	-0.456244
H25	H	1.603679	-0.187893	-0.000116
H26	H	0.998119	-0.504308	0.468557
H27	H	1.186826	-0.244448	0.531486
H28	H	0.978796	0.088812	0.000017
F29	F	1.229122	0.184796	0.000029
F30	F	1.588067	-0.598588	-0.000003
