data_functionalizedCrystal
_audit_creation_method	'MofGen! by Chris Wilmer'
_symmetry_space_group_name_H-M	'P1'
_symmetry_Int_Tables_number	1
_symmetry_cell_setting	triclinic
loop_
_symmetry_equiv_pos_as_xyz
  x,y,z
_cell_length_a	14.044220
_cell_length_b	14.519709
_cell_length_c	13.596369
_cell_angle_alpha	90.006934
_cell_angle_beta	89.995243
_cell_angle_gamma	91.565489
loop_
_atom_site_label
_atom_site_type_symbol
_atom_site_fract_x
_atom_site_fract_y
_atom_site_fract_z
O1	O	1.258085	-0.222370	-0.081793
O2	O	1.508085	0.027630	0.168207
O3	O	1.758085	0.277630	0.418207
O4	O	2.008085	0.527630	0.668207
O5	O	0.982102	-0.214346	-0.081795
O6	O	1.232102	0.035654	0.168205
O7	O	1.482102	0.285654	0.418205
O8	O	1.732102	0.535654	0.668205
O9	O	1.127410	-0.084710	-0.081785
O10	O	1.377410	0.165290	0.168215
O11	O	1.627410	0.415290	0.418215
O12	O	1.877410	0.665290	0.668215
O13	O	1.112776	-0.352006	-0.081803
O14	O	1.362776	-0.102006	0.168197
O15	O	1.612776	0.147994	0.418197
O16	O	1.862776	0.397994	0.668197
O17	O	1.127396	-0.084701	0.081798
O18	O	1.377396	0.165299	0.331798
O19	O	1.627396	0.415299	0.581798
O20	O	1.877396	0.665299	0.831798
O21	O	0.982087	-0.214337	0.081787
O22	O	1.232087	0.035663	0.331787
O23	O	1.482087	0.285663	0.581787
O24	O	1.732087	0.535663	0.831787
O25	O	1.258070	-0.222361	0.081790
O26	O	1.508070	0.027639	0.331790
O27	O	1.758070	0.277639	0.581790
O28	O	2.008070	0.527639	0.831790
Zn29	Zn	1.120076	-0.218348	0.107761
Zn30	Zn	1.370076	0.031652	0.357761
Zn31	Zn	1.620076	0.281652	0.607761
Zn32	Zn	1.870076	0.531652	0.857761
Zn33	Zn	1.120095	-0.218359	-0.107767
Zn34	Zn	1.370095	0.031641	0.142233
Zn35	Zn	1.620095	0.281641	0.392233
Zn36	Zn	1.870095	0.531641	0.642233
O37	O	1.112761	-0.351997	0.081780
O38	O	1.362761	-0.101997	0.331780
O39	O	1.612761	0.148003	0.581780
O40	O	1.862761	0.398003	0.831780
C41	C	1.126721	-0.050290	0.000006
C42	C	1.376721	0.199710	0.250006
C43	C	1.626721	0.449710	0.500006
C44	C	1.876721	0.699710	0.750006
C45	C	1.124677	0.052256	0.000007
C46	C	1.374677	0.302256	0.250007
C47	C	1.624677	0.552256	0.500007
C48	C	1.874677	0.802256	0.750007
C49	C	0.946774	-0.210829	-0.000004
C50	C	1.196774	0.039171	0.249996
C51	C	1.446774	0.289171	0.499996
C52	C	1.696774	0.539171	0.749996
C53	C	0.841531	-0.200352	-0.000005
C54	C	1.091531	0.049648	0.249995
C55	C	1.341531	0.299648	0.499995
C56	C	1.591531	0.549648	0.749995
C57	C	1.293398	-0.225878	-0.000004
C58	C	1.543398	0.024122	0.249996
C59	C	1.793398	0.274122	0.499996
C60	C	2.043398	0.524122	0.749996
C61	C	1.398641	-0.236355	-0.000009
C62	C	1.648641	0.013645	0.249991
C63	C	1.898641	0.263645	0.499991
C64	C	2.148641	0.513645	0.749991
C65	C	1.591335	-0.255510	-0.000010
C66	C	1.841335	-0.005510	0.249990
C67	C	2.091335	0.244490	0.499990
C68	C	2.341335	0.494490	0.749990
C69	C	1.648842	-0.181201	-0.000005
C70	C	1.898842	0.068799	0.249995
C71	C	2.148842	0.318799	0.499995
C72	C	2.398842	0.568799	0.749995
C73	C	1.756064	-0.191859	-0.000005
C74	C	2.006064	0.058141	0.249995
C75	C	2.256064	0.308141	0.499995
C76	C	2.506064	0.558141	0.749995
C77	C	1.484104	-0.244853	-0.000010
C78	C	1.734104	0.005147	0.249990
C79	C	1.984104	0.255147	0.499990
C80	C	2.234104	0.505147	0.749990
C81	C	1.113451	-0.386417	-0.000014
C82	C	1.363451	-0.136417	0.249986
C83	C	1.613451	0.113583	0.499986
C84	C	1.863451	0.363583	0.749986
C85	C	1.115494	-0.488963	-0.000021
C86	C	1.365494	-0.238963	0.249979
C87	C	1.615494	0.011037	0.499979
C88	C	1.865494	0.261037	0.749979
N89	N	1.120070	-0.218340	0.254853
N90	N	1.370070	0.031660	0.504853
N91	N	1.620070	0.281660	0.754853
N92	N	1.870070	0.531660	1.004853
C93	C	1.117153	0.427758	-0.000019
C94	C	1.367153	0.677758	0.249981
C95	C	1.617153	0.927758	0.499981
C96	C	1.867153	1.177758	0.749981
C97	C	1.119243	0.323282	-0.000011
C98	C	1.369243	0.573282	0.249989
C99	C	1.619243	0.823282	0.499989
C100	C	1.869243	1.073282	0.749989
C101	C	1.120915	0.240010	-0.000005
C102	C	1.370915	0.490010	0.249995
C103	C	1.620915	0.740010	0.499995
C104	C	1.870915	0.990010	0.749995
C105	C	1.123005	0.135527	0.000000
C106	C	1.373005	0.385527	0.250000
C107	C	1.623005	0.635527	0.500000
C108	C	1.873005	0.885527	0.750000
N109	N	1.120109	-0.218360	-0.254858
N110	N	1.370109	0.031640	-0.004858
N111	N	1.620109	0.281640	0.245142
N112	N	1.870109	0.531640	0.495142
C113	C	1.120094	-0.218360	0.656144
C114	C	1.370094	0.031640	0.906144
C115	C	1.620094	0.281640	1.156144
C116	C	1.870094	0.531640	1.406144
C117	C	1.120085	-0.218357	0.544492
C118	C	1.370085	0.031643	0.794492
C119	C	1.620085	0.281643	1.044492
C120	C	1.870085	0.531643	1.294492
C121	C	1.120083	-0.218351	0.455502
C122	C	1.370083	0.031649	0.705502
C123	C	1.620083	0.281649	0.955502
C124	C	1.870083	0.531649	1.205502
C125	C	1.120072	-0.218347	0.343843
C126	C	1.370072	0.031653	0.593843
C127	C	1.620072	0.281653	0.843843
C128	C	1.870072	0.531653	1.093843
H129	H	1.622626	-0.327125	-0.000015
H130	H	1.872626	-0.077125	0.249985
H131	H	2.122626	0.172875	0.499985
H132	H	2.372626	0.422875	0.749985
O133	O	1.611676	-0.095687	0.000036
O134	O	1.861676	0.154313	0.250036
O135	O	2.111676	0.404313	0.500036
O136	O	2.361676	0.654313	0.750036
C137	C	1.686264	-0.028690	0.000010
C138	C	1.936264	0.221310	0.250010
C139	C	2.186264	0.471310	0.500010
C140	C	2.436264	0.721310	0.750010
H141	H	1.753532	-0.059959	0.030984
H142	H	2.003532	0.190041	0.280984
H143	H	2.253532	0.440041	0.530984
H144	H	2.503532	0.690041	0.780984
H145	H	1.665391	0.032245	0.047497
H146	H	1.915391	0.282245	0.297497
H147	H	2.165391	0.532245	0.547497
H148	H	2.415391	0.782245	0.797497
H149	H	1.700181	-0.004181	-0.078471
H150	H	1.950181	0.245819	0.171529
H151	H	2.200181	0.495819	0.421529
H152	H	2.450181	0.745819	0.671529
