data_functionalizedCrystal
_audit_creation_method	'MofGen! by Chris Wilmer'
_symmetry_space_group_name_H-M	'P1'
_symmetry_Int_Tables_number	1
_symmetry_cell_setting	triclinic
loop_
_symmetry_equiv_pos_as_xyz
  x,y,z
_cell_length_a	6.817900
_cell_length_b	11.168129
_cell_length_c	14.858340
_cell_angle_alpha	93.501048
_cell_angle_beta	104.519754
_cell_angle_gamma	108.508637
loop_
_atom_site_label
_atom_site_type_symbol
_atom_site_fract_x
_atom_site_fract_y
_atom_site_fract_z
V1	V	-4.063997	-0.175510	-0.289968
V2	V	-3.563997	0.324490	0.210032
O3	O	-4.024455	0.007605	-0.284440
O4	O	-3.524455	0.507605	0.215560
O5	O	-4.040598	-0.347210	-0.287993
O6	O	-3.540598	0.152790	0.212007
O7	O	-4.020275	-0.173174	-0.416430
O8	O	-3.520275	0.326826	0.083570
O9	O	-4.044918	-0.167635	-0.155114
O10	O	-3.544918	0.332365	0.344886
V11	V	-4.543779	-0.153564	-0.273838
V12	V	-4.043779	0.346436	0.226162
O13	O	-4.333461	-0.223650	-0.325352
O14	O	-3.833461	0.276350	0.174648
O15	O	-4.724512	-0.105425	-0.238454
O16	O	-4.224512	0.394575	0.261546
O17	O	-4.343971	0.018136	-0.275813
O18	O	-3.843971	0.518136	0.224187
O19	O	-4.700717	-0.336680	-0.279366
O20	O	-4.200717	0.163320	0.220634
O21	O	-4.680254	-0.161439	-0.408692
O22	O	-4.180254	0.338561	0.091308
O23	O	-4.364294	-0.155900	-0.147376
O24	O	-3.864294	0.344100	0.352624
C25	C	-3.891529	-0.389055	-0.283421
C26	C	-3.391529	0.110945	0.216579
C27	C	-3.953716	-0.529425	-0.282649
C28	C	-3.453716	-0.029425	0.217351
C29	C	-4.089715	-0.754438	-0.362442
C30	C	-3.589715	-0.254438	0.137558
C31	C	-4.025443	-0.609359	-0.363241
C32	C	-3.525443	-0.109359	0.136759
C33	C	-3.865604	-0.167053	-0.447254
C34	C	-3.365604	0.332947	0.052746
C35	C	-3.911306	-0.166280	-0.550637
C36	C	-3.411306	0.333720	-0.050637
C37	C	-3.948419	-0.165650	-0.634595
C38	C	-3.448419	0.334350	-0.134595
C39	C	-3.994992	-0.164854	-0.739924
C40	C	-3.494992	0.335146	-0.239924
C41	C	-4.032128	-0.164220	-0.823876
C42	C	-3.532128	0.335780	-0.323876
C43	C	-4.078707	-0.163427	-0.929212
C44	C	-3.578707	0.336573	-0.429212
C45	C	-4.156382	0.059974	-0.280383
C46	C	-3.656382	0.559974	0.219617
C47	C	-4.073434	0.200342	-0.281161
C48	C	-3.573434	0.700342	0.218839
C49	C	-4.182307	-0.162025	-0.116548
C50	C	-3.682307	0.337975	0.383452
C51	C	-4.115843	-0.162793	-0.013164
C52	C	-3.615843	0.337207	0.486836
H53	H	-4.011923	-0.730967	-0.212166
H54	H	-3.511923	-0.230967	0.287834
H55	H	-4.151248	-0.823129	-0.431437
H56	H	-3.651248	-0.323129	0.068563
H57	H	-3.939865	-0.568370	-0.213056
H58	H	-3.439865	-0.068370	0.286944
C59	C	-4.044077	-0.556743	-0.457252
C60	C	-3.544077	-0.056743	0.042748
H61	H	-3.998422	-0.466137	-0.445456
H62	H	-3.498422	0.033863	0.054544
H63	H	-3.955421	-0.581699	-0.489163
H64	H	-3.455421	-0.081699	0.010837
H65	H	-4.189892	-0.589919	-0.495132
H66	H	-3.689892	-0.089919	0.004868
