data_functionalizedCrystal
_audit_creation_method	'MofGen! by Chris Wilmer'
_symmetry_space_group_name_H-M	'P1'
_symmetry_Int_Tables_number	1
_symmetry_cell_setting	triclinic
loop_
_symmetry_equiv_pos_as_xyz
  x,y,z
_cell_length_a	27.354012
_cell_length_b	27.353283
_cell_length_c	27.349551
_cell_angle_alpha	60.005606
_cell_angle_beta	60.011434
_cell_angle_gamma	59.993282
loop_
_atom_site_label
_atom_site_type_symbol
_atom_site_fract_x
_atom_site_fract_y
_atom_site_fract_z
O1	O	0.067635	-0.714267	0.597330
O2	O	0.025429	-0.556105	0.481282
O3	O	0.125575	-0.656186	0.481214
O4	O	-0.032512	-0.614186	0.597397
O5	O	0.158797	-0.622968	0.514367
O6	O	0.058650	-0.522887	0.514434
O7	O	0.100856	-0.681048	0.630482
Zn8	Zn	0.085028	-0.596693	0.577722
Zn9	Zn	0.041257	-0.640460	0.534042
O10	O	0.000709	-0.580967	0.630549
N11	N	0.114901	-0.566828	0.607534
N12	N	0.011389	-0.670331	0.504229
C13	C	0.179404	-0.338196	0.672015
C14	C	0.179501	-0.502386	0.836160
C15	C	0.179415	-0.502363	0.671996
C16	C	0.343611	-0.502373	0.671960
C17	C	0.197478	-0.392371	0.690061
C18	C	0.197534	-0.484321	0.781984
C19	C	0.289434	-0.484312	0.690032
C20	C	0.197486	-0.484308	0.690051
C21	C	0.156398	-0.269238	0.649045
C22	C	0.156418	-0.525342	0.649015
C23	C	0.220484	-0.461329	0.713032
C24	C	0.443889	-0.485097	0.619172
C25	C	0.506571	-0.505993	0.598266
C26	C	0.506589	-0.607412	0.636940
C27	C	0.443909	-0.586515	0.657848
C28	C	0.171510	-0.237888	0.587422
C29	C	0.150593	-0.175201	0.566543
C30	C	0.099458	-0.175218	0.668913
C31	C	0.120375	-0.237905	0.689792
C32	C	0.094789	-0.510201	0.664176
C33	C	0.073888	-0.531091	0.643278
C34	C	0.176239	-0.582263	0.592072
C35	C	0.197142	-0.561373	0.612963
C36	C	0.094933	-0.510244	0.936476
C37	C	0.074073	-0.531151	0.999161
C38	C	0.176453	-0.582335	0.999126
C39	C	0.197312	-0.561429	0.936439
C40	C	0.156551	-0.525382	0.905116
C41	C	0.412561	-0.525357	0.648961
C42	C	-0.098513	-0.688235	0.485867
C43	C	-0.006461	-0.688368	0.394066
C44	C	-0.006645	-0.780264	0.486040
C45	C	-0.006630	-0.688361	0.486097
C46	C	-0.029562	-0.711308	0.463018
N47	N	0.537030	-0.566846	0.607436
O48	O	0.741877	-0.576849	0.459995
O49	O	0.742050	-0.693241	0.618010
O50	O	0.741986	-0.692977	0.517791
O51	O	0.741941	-0.577114	0.560214
O52	O	0.642405	-0.659839	0.551046
O53	O	0.642469	-0.660104	0.651265
O54	O	0.642296	-0.543712	0.493251
Zn55	Zn	0.626572	-0.596646	0.577538
Zn56	Zn	0.757774	-0.640307	0.533723
O57	O	0.642360	-0.543976	0.593469
N58	N	0.847316	-0.670107	0.503818
N59	N	0.114877	-0.144758	0.607577
O60	O	-0.032498	0.060193	0.597441
O61	O	0.125523	0.060193	0.481067
O62	O	0.025289	0.060179	0.481345
O63	O	0.067736	0.060207	0.597163
O64	O	0.058511	-0.039410	0.514543
O65	O	0.158745	-0.039397	0.514265
O66	O	0.000724	-0.039396	0.630638
Zn67	Zn	0.085009	-0.055208	0.577722
Zn68	Zn	0.041238	0.076005	0.533983
O69	O	0.100958	-0.039382	0.630360
N70	N	0.011362	0.165555	0.504130
N71	N	0.115121	-0.566884	1.029592
O72	O	0.104990	-0.714248	1.234528
O73	O	-0.011371	-0.556177	1.234539
O74	O	-0.011103	-0.656395	1.234497
O75	O	0.104722	-0.614030	1.234569
O76	O	0.022090	-0.623190	1.134913
O77	O	0.021822	-0.522972	1.134954
O78	O	0.138182	-0.681044	1.134943
Zn79	Zn	0.085272	-0.596736	1.119137
Zn80	Zn	0.041539	-0.640484	1.250344
O81	O	0.137914	-0.580826	1.134984
N82	N	0.011689	-0.670343	1.339890
C83	C	0.038085	-0.519567	0.481870
C84	C	0.162104	-0.643505	0.481786
C85	C	0.088200	-0.717587	0.629893
C86	C	-0.035819	-0.593649	0.629977
C87	C	0.692280	-0.692701	0.654545
C88	C	0.692203	-0.692374	0.530435
C89	C	0.692063	-0.544251	0.456717
C90	C	0.692144	-0.544580	0.580825
C91	C	0.162000	0.010521	0.481600
C92	C	0.037914	0.010381	0.481984
C93	C	-0.035795	0.010399	0.630065
C94	C	0.088333	0.010415	0.629722
C95	C	-0.010799	-0.519660	1.184747
C96	C	-0.010461	-0.643761	1.184677
C97	C	0.137610	-0.717561	1.184734
C98	C	0.137280	-0.593452	1.184783
H99	H	0.061737	-0.480889	0.910978
H100	H	0.097215	-0.763020	0.666340
O101	O	0.180677	-0.582708	1.184905
C102	C	0.196805	-0.623770	1.236475
H103	H	0.158448	-0.641315	1.272514
H104	H	0.206508	-0.600441	1.253800
H105	H	0.238499	-0.662757	1.224811
O106	O	-0.090011	-0.582864	0.673449
C107	C	-0.127220	-0.524030	0.651793
H108	H	-0.098383	-0.495600	0.613340
H109	H	-0.155906	-0.503978	0.689367
H110	H	-0.157459	-0.524938	0.635160
O111	O	0.413529	-0.425671	0.610515
C112	C	0.454626	-0.394619	0.579727
H113	H	0.499317	-0.426796	0.586952
H114	H	0.436521	-0.356815	0.597478
H115	H	0.461272	-0.375137	0.529856
O116	O	0.692207	-0.501230	0.591695
C117	C	0.743813	-0.521830	0.605743
H118	H	0.761048	-0.572873	0.622919
H119	H	0.732229	-0.504532	0.641778
H120	H	0.779890	-0.504742	0.563895
H121	H	0.028825	0.010378	0.445599
O122	O	0.181250	-0.771673	1.184625
C123	C	0.231707	-0.763786	1.133069
H124	H	0.217278	-0.719936	1.097022
H125	H	0.253145	-0.802628	1.115744
H126	H	0.265499	-0.762416	1.144750
O127	O	0.692419	-0.736369	0.708633
C128	C	0.744027	-0.786797	0.700710
H129	H	0.761192	-0.786114	0.652928
H130	H	0.732474	-0.829343	0.733515
H131	H	0.780145	-0.785714	0.709282
H132	H	0.692005	-0.507708	0.411338
O133	O	0.692194	-0.735723	0.519519
C134	C	0.692159	-0.713915	0.460662
H135	H	0.673266	-0.662911	0.444924
H136	H	0.663257	-0.732165	0.459808
H137	H	0.739923	-0.729035	0.429662
H138	H	0.207290	0.010797	0.444973
O139	O	0.014196	-0.516358	1.029526
C140	C	-0.017302	-0.480069	0.988433
H141	H	0.012578	-0.457280	0.943748
H142	H	-0.059129	-0.444602	1.006558
H143	H	-0.030825	-0.508980	0.981765
O144	O	-0.089980	0.010438	0.673576
C145	C	-0.127251	0.010418	0.652033
H146	H	-0.111044	0.029256	0.601028
H147	H	-0.175212	0.039342	0.670381
H148	H	-0.125636	-0.037360	0.667268
H149	H	-0.047330	-0.474261	1.184750
O150	O	0.099280	0.010386	0.673077
C151	C	0.158134	0.010401	0.651260
H152	H	0.186449	-0.008448	0.612820
H153	H	0.178297	-0.018517	0.688757
H154	H	0.157247	0.058179	0.634562
O155	O	-0.053779	-0.654639	1.184574
C156	C	-0.031971	-0.713501	1.184558
H157	H	0.019032	-0.729278	1.165748
H158	H	-0.050167	-0.714340	1.155593
H159	H	-0.047141	-0.744481	1.232319
H160	H	0.209648	-0.611676	1.024626
H161	H	0.532080	-0.473208	0.574011
O162	O	0.257185	-0.576240	0.906044
C163	C	0.283232	-0.639026	0.921335
H164	H	0.253531	-0.660968	0.966850
H165	H	0.329345	-0.653680	0.923468
H166	H	0.287882	-0.653202	0.886054
O167	O	0.055148	-0.475181	0.699163
C168	C	-0.003728	-0.466306	0.708068
H169	H	-0.003634	-0.473303	0.670277
H170	H	-0.033492	-0.418763	0.708407
H171	H	-0.021668	-0.499673	0.752721
H172	H	0.209407	-0.611608	0.562721
O173	O	0.014027	-0.516315	0.657901
C174	C	-0.001153	-0.484757	0.605244
H175	H	0.034167	-0.463539	0.567583
H176	H	-0.046662	-0.448229	0.613524
H177	H	-0.003241	-0.516982	0.592045
O178	O	0.257028	-0.576149	0.598195
C179	C	0.288490	-0.612412	0.561877
H180	H	0.258601	-0.635209	0.569886
H181	H	0.330344	-0.647874	0.573597
H182	H	0.301965	-0.583479	0.512781
H183	H	0.532110	-0.657210	0.644171
O184	O	0.413571	-0.625703	0.686750
C185	C	0.454687	-0.684163	0.690117
H186	H	0.499356	-0.681777	0.653088
H187	H	0.436573	-0.709891	0.684445
H188	H	0.461378	-0.708093	0.735540
H189	H	0.162897	-0.149674	0.516363
O190	O	0.206412	-0.268296	0.547816
C191	C	0.174741	-0.252963	0.511579
H192	H	0.124596	-0.235737	0.535798
H193	H	0.185954	-0.294185	0.502097
H194	H	0.188061	-0.216570	0.467540
O195	O	0.064454	-0.144871	0.708574
C196	C	0.055623	-0.185986	0.767443
H197	H	0.062631	-0.230670	0.767329
H198	H	0.008092	-0.167881	0.797219
H199	H	0.089003	-0.192652	0.785386
H200	H	0.108067	-0.263426	0.739970
O201	O	0.216267	-0.654279	0.438277
C202	C	0.226968	-0.702728	0.424439
H203	H	0.198982	-0.731492	0.464031
H204	H	0.276466	-0.730934	0.414732
H205	H	0.214109	-0.684936	0.383364
H206	H	0.029071	-0.474132	0.445424
