data_functionalizedCrystal
_audit_creation_method	'MofGen! by Chris Wilmer'
_symmetry_space_group_name_H-M	'P1'
_symmetry_Int_Tables_number	1
_symmetry_cell_setting	triclinic
loop_
_symmetry_equiv_pos_as_xyz
  x,y,z
_cell_length_a	14.908742
_cell_length_b	25.639240
_cell_length_c	25.639243
_cell_angle_alpha	90.016535
_cell_angle_beta	86.699456
_cell_angle_gamma	86.739913
loop_
_atom_site_label
_atom_site_type_symbol
_atom_site_fract_x
_atom_site_fract_y
_atom_site_fract_z
Zn1	Zn	1.378939	-0.254332	0.249364
Zn2	Zn	1.378848	-0.341733	0.161921
Zn3	Zn	1.228123	-0.249278	0.166998
Zn4	Zn	1.228018	-0.336696	0.254381
O5	O	1.303482	-0.295510	0.208166
O6	O	1.505166	-0.270149	0.233541
O7	O	1.358859	-0.329462	0.089429
O8	O	1.248211	-0.176786	0.177950
O9	O	1.505099	-0.334362	0.169296
O10	O	1.359014	-0.180499	0.238464
O11	O	1.248122	-0.261536	0.093159
O12	O	1.101869	-0.256651	0.182814
O13	O	1.248032	-0.325777	0.326881
O14	O	1.101792	-0.320877	0.247013
O15	O	1.358913	-0.265265	0.323195
O16	O	1.358758	-0.414228	0.174160
O17	O	1.247944	-0.410527	0.242090
C18	C	1.069098	-0.287669	0.216009
C19	C	0.968828	-0.284328	0.219377
C20	C	1.303354	-0.431348	0.208129
C21	C	1.303382	-0.489463	0.208128
C22	C	0.827532	-0.246245	0.257620
C23	C	0.921745	-0.249380	0.254459
C24	C	0.921691	-0.316144	0.187456
C25	C	0.827478	-0.313009	0.190617
C26	C	0.780402	-0.278057	0.225700
C27	C	0.686188	-0.274920	0.228859
C28	C	0.686135	-0.341686	0.161859
C29	C	0.780348	-0.344821	0.158697
C30	C	1.361206	-0.851725	0.239735
C31	C	1.361232	-0.906331	0.239745
O32	O	1.410245	-0.936177	0.266581
N33	N	1.303607	-0.931753	0.208212
C34	C	1.245944	-0.902567	0.176672
O35	O	1.196931	-0.929205	0.149852
C36	C	1.245914	-0.847963	0.176665
C37	C	1.303550	-0.822544	0.208196
C38	C	1.418836	-0.826306	0.271264
C39	C	1.418811	-0.771704	0.271253
C40	C	1.361155	-0.742523	0.239714
C41	C	1.303524	-0.767942	0.208185
C42	C	1.188248	-0.818778	0.145128
C43	C	1.188222	-0.764170	0.145125
C44	C	1.245857	-0.738751	0.176655
C45	C	1.245842	-0.684159	0.176636
N46	N	1.303468	-0.658736	0.208168
C47	C	1.361124	-0.687918	0.239707
C48	C	1.246012	-1.017240	0.176689
C49	C	1.246046	-1.071844	0.176692
C50	C	1.361333	-1.075603	0.239766
C51	C	1.361303	-1.020999	0.239759
C52	C	1.303637	-0.991818	0.208221
C53	C	1.361066	-0.573251	0.239682
C54	C	1.361038	-0.518645	0.239667
C55	C	1.245748	-0.514890	0.176596
C56	C	1.245779	-0.569492	0.176609
C57	C	1.303441	-0.598671	0.208156
O58	O	1.196853	-0.654279	0.149815
O59	O	1.410121	-0.661273	0.266528
C60	C	1.538780	-0.303381	0.200293
C61	C	1.639051	-0.306736	0.196937
C62	C	1.303471	-0.295523	0.344539
C63	C	1.303467	-0.295528	0.402654
C64	C	1.303634	-0.159142	0.208213
C65	C	1.303699	-0.101030	0.208234
C66	C	1.245736	-0.327023	0.655760
C67	C	1.245732	-0.327023	0.601156
O68	O	1.196615	-0.353803	0.574547
N69	N	1.303464	-0.295521	0.571928
C70	C	1.361197	-0.264011	0.597306
O71	O	1.410301	-0.237215	0.567431
C72	C	1.361195	-0.264008	0.651910
C73	C	1.303466	-0.295517	0.681135
C74	C	1.188011	-0.358529	0.684986
C75	C	1.188017	-0.358529	0.739586
C76	C	1.245747	-0.327023	0.764961
C77	C	1.303472	-0.295517	0.735735
C78	C	1.418923	-0.232497	0.677287
C79	C	1.418916	-0.232496	0.731895
C80	C	1.361187	-0.264005	0.761120
C81	C	1.361207	-0.264012	0.815711
N82	N	1.303475	-0.295515	0.844939
C83	C	1.245745	-0.327020	0.819564
C84	C	1.361194	-0.264019	0.482636
C85	C	1.361200	-0.264024	0.428033
C86	C	1.245735	-0.327036	0.431887
C87	C	1.245733	-0.327033	0.486490
C88	C	1.303462	-0.295522	0.511864
C89	C	1.245761	-0.327019	0.934229
C90	C	1.245774	-0.327018	0.988834
C91	C	1.361236	-0.264004	0.984976
C92	C	1.361227	-0.264007	0.930375
C93	C	1.303482	-0.295516	0.905003
O94	O	1.410297	-0.237244	0.842355
O95	O	1.196641	-0.353807	0.849446
C96	C	1.303489	-0.295511	1.072323
C97	C	1.303505	-0.295512	1.014209
H98	H	0.647860	-0.246458	0.257423
H99	H	0.789202	-0.217781	0.286181
H100	H	1.408278	-1.099373	0.265448
H101	H	1.407976	-0.497950	0.265343
H102	H	1.198725	-0.352690	0.510282
H103	H	0.960115	-0.223475	0.280451
H104	H	1.199056	-0.993483	0.151002
H105	H	0.960037	-0.344601	0.158894
H106	H	1.198764	-0.352678	1.012627
H107	H	0.818690	-0.373279	0.130135
H108	H	1.408014	-0.597003	0.265375
H109	H	0.647752	-0.367591	0.135868
H110	H	1.465740	-0.751011	0.296930
H111	H	1.141005	-0.384185	0.763377
H112	H	1.198726	-0.352689	0.411217
H113	H	1.140995	-0.384184	0.664331
H114	H	1.408234	-1.000306	0.265435
H115	H	1.465787	-0.850060	0.296950
H116	H	1.199123	-1.092536	0.151011
H117	H	1.141261	-0.740413	0.119443
H118	H	1.141315	-0.839465	0.119452
H119	H	1.198855	-0.590189	0.150930
H120	H	1.198808	-0.491122	0.150916
H121	H	1.408219	-0.238372	0.404242
H122	H	1.198732	-0.352671	0.913578
H123	H	1.408211	-0.238360	0.503291
H124	H	1.465932	-0.206839	0.653501
H125	H	1.408242	-0.238355	1.005646
H126	H	1.465923	-0.206833	0.752551
H127	H	1.408241	-0.238354	0.906578
