data_functionalizedCrystal
_audit_creation_method	'MofGen! by Chris Wilmer'
_symmetry_space_group_name_H-M	'P1'
_symmetry_Int_Tables_number	1
_symmetry_cell_setting	triclinic
loop_
_symmetry_equiv_pos_as_xyz
  x,y,z
_cell_length_a	19.377372
_cell_length_b	14.560438
_cell_length_c	14.560438
_cell_angle_alpha	59.996693
_cell_angle_beta	90.000766
_cell_angle_gamma	72.113948
loop_
_atom_site_label
_atom_site_type_symbol
_atom_site_fract_x
_atom_site_fract_y
_atom_site_fract_z
Zr1	Zr	0.580564	1.278763	-0.257333
O2	O	0.484336	1.425050	-0.381329
O3	O	0.610063	1.101049	-0.219313
O4	O	0.610060	1.292659	-0.410929
O5	O	0.484340	1.233439	-0.038573
O6	O	0.709235	1.339370	-0.434288
O7	O	0.484338	1.233440	-0.189713
O8	O	0.709239	0.996615	-0.091522
O9	O	0.484336	1.576194	-0.381339
O10	O	0.696657	1.220646	-0.220541
O11	O	0.622646	1.185784	-0.090314
O12	O	0.622643	1.411381	-0.315917
O13	O	0.548632	1.376519	-0.185690
Zr14	Zr	0.738740	1.353261	-0.053537
Zr15	Zr	0.738736	1.353263	-0.294588
Zr16	Zr	0.580568	1.278761	-0.016282
Zr17	Zr	0.580565	1.519821	-0.257349
Zr18	Zr	0.738739	1.112203	-0.053521
O19	O	0.709242	1.530976	-0.091557
O20	O	0.709236	1.530979	-0.434300
O21	O	0.484341	1.425047	-0.038585
O22	O	0.834969	1.206974	0.070459
O23	O	0.834963	1.206977	-0.272284
O24	O	0.610068	1.101045	0.123431
O25	O	0.834964	1.398586	-0.272297
O26	O	0.709244	1.339366	0.100059
O27	O	0.610069	1.292654	0.123418
O28	O	0.834966	1.398585	-0.121157
O29	O	0.610062	1.635412	-0.410951
O30	O	0.709242	0.996613	0.100082
O31	O	0.834968	1.055830	0.070469
O32	O	0.834965	1.055832	-0.121134
O33	O	0.484339	1.576193	-0.189735
O34	O	0.610065	1.635410	-0.219348
O35	O	0.696661	1.220644	0.005048
O36	O	0.770672	1.255505	-0.125179
O37	O	0.696658	1.446240	-0.220555
O38	O	0.622647	1.411379	-0.090329
C39	C	0.659651	1.014486	-0.155415
C40	C	0.659650	0.912151	-0.155408
C41	C	0.605011	0.921631	-0.225821
C42	C	0.605014	0.825493	-0.225851
C43	C	0.714298	0.710396	-0.085045
C44	C	0.714298	0.806535	-0.085021
C45	C	0.461803	1.222825	-0.108835
C46	C	0.394655	1.191198	-0.093019
C47	C	-0.019354	1.584977	-0.289933
C48	C	-0.082440	1.555233	-0.275057
C49	C	-0.005166	1.356120	-0.175491
C50	C	0.057928	1.385848	-0.190354
C51	C	0.050827	1.500278	-0.247577
C52	C	0.128109	1.301149	-0.147998
C53	C	0.191197	1.330875	-0.162865
C54	C	0.184104	1.445300	-0.220087
C55	C	0.113915	1.530004	-0.262443
C56	C	0.135208	1.186719	-0.090782
C57	C	0.205389	1.102020	-0.048426
C58	C	0.268479	1.131745	-0.063286
C59	C	0.261386	1.246170	-0.120508
C60	C	0.338668	1.047041	-0.020930
C61	C	0.401756	1.076767	-0.035796
C62	C	0.324473	1.275896	-0.135375
C63	C	0.857501	1.409200	-0.202035
C64	C	0.924649	1.440827	-0.217850
C65	C	0.659647	1.316015	-0.456953
C66	C	0.659645	1.316016	-0.559286
C67	C	0.659654	1.617538	-0.155454
C68	C	0.659654	1.719874	-0.155461
C69	C	0.621012	1.415576	-0.657148
C70	C	0.621020	1.415574	-0.753298
C71	C	0.698297	1.216442	-0.653712
C72	C	0.698292	1.216447	-0.557564
C73	C	0.659657	1.316010	0.146084
C74	C	0.659659	1.316009	0.248416
C75	C	0.857500	1.107674	-0.202015
C76	C	0.924647	1.036965	-0.217824
C77	C	0.659656	1.014483	0.146103
C78	C	0.659657	0.912147	0.248443
C79	C	0.857505	1.107671	0.099503
C80	C	0.924654	1.036962	0.186027
C81	C	0.461799	1.524353	-0.410373
C82	C	0.394650	1.595063	-0.496896
C83	C	0.461804	1.524351	-0.108854
C84	C	0.394657	1.595059	-0.093045
C85	C	0.659649	1.617541	-0.456973
C86	C	0.659647	1.719877	-0.559312
C87	C	0.917546	0.985564	-0.275036
C88	C	0.980632	0.919136	-0.289911
C89	C	1.050819	0.904105	-0.247567
C90	C	1.057920	0.955516	-0.190353
C91	C	0.994834	1.021948	-0.175485
C92	C	0.994828	1.021956	0.158681
C93	C	1.057928	0.955534	0.239968
C94	C	1.050853	0.904111	0.348601
C95	C	0.980672	0.919123	0.375947
C96	C	0.917573	0.985551	0.294660
C97	C	0.324476	1.610080	-0.469550
C98	C	0.261376	1.676532	-0.550838
C99	C	0.268452	1.727960	-0.659471
C100	C	0.338633	1.712942	-0.686816
C101	C	0.401731	1.646497	-0.605529
C102	C	0.401758	1.646471	-0.035843
C103	C	0.338672	1.712925	-0.020995
C104	C	0.268485	1.727959	-0.063342
C105	C	0.261385	1.676544	-0.120552
C106	C	0.324470	1.610098	-0.135406
C107	C	0.698292	0.882263	0.346300
C108	C	0.698284	0.786113	0.442456
C109	C	0.621006	0.749734	0.342885
C110	C	0.621010	0.845888	0.246732
H111	H	0.758790	0.624394	-0.027737
C112	C	0.740789	1.106925	-0.449909
H113	H	0.763798	1.047620	-0.462651
H114	H	0.777346	1.119253	-0.418562
H115	H	0.707434	1.086325	-0.402104
H116	H	0.729761	1.135376	-0.652324
C117	C	0.774402	0.796106	-0.007560
H118	H	0.806941	0.719435	0.034367
H119	H	0.801386	0.842874	-0.048113
H120	H	0.751952	0.819563	0.038867
H121	H	0.860401	0.997802	-0.309534
C122	C	0.972898	0.862542	0.495444
H123	H	1.020531	0.820822	0.539929
H124	H	0.946685	0.919203	0.510072
H125	H	0.946693	0.812665	0.510056
H126	H	0.235476	1.469500	-0.232192
H127	H	1.000603	1.063817	0.070232
C128	C	0.316672	1.401767	-0.198437
H129	H	0.364298	1.407334	-0.201255
H130	H	0.290461	1.437701	-0.269708
H131	H	0.290455	1.437911	-0.163271
H132	H	0.108131	1.623185	-0.309007
H133	H	0.458868	1.634272	-0.627809
H134	H	0.344385	1.754823	-0.775275
H135	H	0.974836	0.877283	-0.336498
C136	C	0.840386	1.002034	0.324754
H137	H	0.845216	0.961881	0.401094
H138	H	0.814153	1.080459	0.295871
H139	H	0.814174	0.973903	0.295880
H140	H	0.589543	1.496651	-0.658555
H141	H	0.318701	1.568206	-0.381101
C142	C	0.740786	0.753241	0.550095
H143	H	0.763806	0.806471	0.537336
H144	H	0.707441	0.753297	0.597905
H145	H	0.777346	0.679674	0.581442
H146	H	0.589562	1.496646	-0.832979
H147	H	0.211160	1.008851	-0.001839
H148	H	0.458903	1.634236	-0.001349
C149	C	1.120207	0.831018	-0.263918
H150	H	1.105919	0.802551	-0.304047
H151	H	1.148756	0.875964	-0.302166
H152	H	1.148747	0.769425	-0.195617
C153	C	0.578508	0.676838	0.341009
H154	H	0.584045	0.615284	0.412288
H155	H	0.527679	0.721924	0.313024
H156	H	0.597594	0.648312	0.296565
C157	C	1.135127	0.938963	-0.143770
H158	H	1.171676	0.892024	-0.160813
H159	H	1.140677	1.010586	-0.174140
H160	H	1.140666	0.904037	-0.067603
H161	H	0.083835	1.162520	-0.078688
C162	C	0.578506	0.878766	0.139083
H163	H	0.555496	0.825527	0.151833
H164	H	0.541950	0.952328	0.107740
H165	H	0.611856	0.878710	0.091272
H166	H	-0.025138	1.678158	-0.336496
H167	H	0.344468	1.754777	0.025593
H168	H	0.458901	1.007797	-0.001287
C169	C	1.002655	1.078469	-0.112535
H170	H	1.053492	1.059987	-0.089440
H171	H	0.979652	1.158415	-0.157922
H172	H	0.979658	1.051851	-0.051386
C173	C	1.135117	0.939022	0.209870
H174	H	1.130288	0.979146	0.133530
H175	H	1.161343	0.967138	0.238735
H176	H	1.161336	0.860585	0.238763
C177	C	1.120265	0.831034	0.438005
H178	H	1.163069	0.829458	0.406151
H179	H	1.120280	0.862542	0.481507
H180	H	1.120275	0.756004	0.481502
C181	C	0.199095	1.801044	-0.046993
H182	H	0.156273	1.802645	-0.080410
H183	H	0.199101	1.769522	0.028025
H184	H	0.199099	1.876066	-0.078528
C185	C	0.316649	1.553535	-0.198314
H186	H	0.265812	1.572001	-0.221392
H187	H	0.339651	1.580114	-0.259456
H188	H	0.339648	1.473585	-0.152891
C189	C	0.184185	1.693035	-0.520745
H190	H	0.147614	1.739983	-0.584708
H191	H	0.178655	1.621396	-0.479493
H192	H	0.178662	1.727930	-0.479480
H193	H	0.560510	1.007623	-0.283128
C194	C	0.544909	0.835924	-0.303300
H195	H	0.512362	0.912592	-0.345208
H196	H	0.567348	0.812471	-0.349730
H197	H	0.517923	0.789154	-0.262738
C198	C	-0.159642	1.648405	-0.321651
H199	H	-0.196200	1.614316	-0.304612
H200	H	-0.165182	1.694192	-0.291283
H201	H	-0.165177	1.694178	-0.397818
C202	C	0.740794	0.955155	0.348177
H203	H	0.735270	1.016696	0.276896
H204	H	0.721716	0.983679	0.392619
H205	H	0.791625	0.910056	0.376162
H206	H	0.000605	1.262951	-0.128904
H207	H	0.344437	0.953872	0.025651
H208	H	0.217067	1.782060	-0.725649
H209	H	0.204230	1.688796	-0.155028
