data_functionalizedCrystal
_audit_creation_method	'MofGen! by Chris Wilmer'
_symmetry_space_group_name_H-M	'P1'
_symmetry_Int_Tables_number	1
_symmetry_cell_setting	triclinic
loop_
_symmetry_equiv_pos_as_xyz
  x,y,z
_cell_length_a	19.805407
_cell_length_b	17.640280
_cell_length_c	19.805398
_cell_angle_alpha	78.779257
_cell_angle_beta	89.984135
_cell_angle_gamma	78.800112
loop_
_atom_site_label
_atom_site_type_symbol
_atom_site_fract_x
_atom_site_fract_y
_atom_site_fract_z
Zn1	Zn	1.089261	-0.314691	-0.328315
Zn2	Zn	1.112094	-0.446860	-0.192278
Zn3	Zn	0.976086	-0.314709	-0.215137
Zn4	Zn	0.998944	-0.446822	-0.305431
O5	O	1.044096	-0.380770	-0.260290
O6	O	1.187008	-0.332232	-0.310280
O7	O	1.094042	-0.429353	-0.100589
O8	O	0.971978	-0.204103	-0.249294
O9	O	1.203784	-0.429336	-0.210334
O10	O	1.055127	-0.204090	-0.332446
O11	O	0.994118	-0.332262	-0.117384
O12	O	0.884400	-0.332225	-0.227104
O13	O	1.010935	-0.429271	-0.403187
O14	O	0.901194	-0.429288	-0.293443
O15	O	1.077291	-0.332195	-0.420000
O16	O	1.116206	-0.557458	-0.188144
O17	O	1.033075	-0.557430	-0.271277
C18	C	0.868238	-0.380755	-0.260271
C19	C	0.793008	-0.380768	-0.260275
C20	C	0.766439	-0.431384	-0.294735
C21	C	0.695751	-0.431386	-0.294744
C22	C	0.651633	-0.380774	-0.260290
C23	C	0.678206	-0.330152	-0.225829
C24	C	0.748893	-0.330147	-0.225824
C25	C	0.393136	-0.330169	-0.225849
C26	C	0.322446	-0.330179	-0.225854
C27	C	0.339994	-0.431408	-0.294768
C28	C	0.410680	-0.431403	-0.294763
C29	C	0.437247	-0.380778	-0.260306
C30	C	0.513895	-0.380776	-0.260298
C31	C	0.574987	-0.380779	-0.260294
C32	C	1.079617	-0.586122	-0.224761
C33	C	1.094875	-0.673972	-0.209584
C34	C	0.928462	-0.962966	-0.375833
C35	C	0.942800	-1.045515	-0.361551
C36	C	1.029419	-1.045478	-0.275071
C37	C	1.015090	-0.962928	-0.289349
C38	C	0.964610	-0.921678	-0.339730
C39	C	1.051238	-0.921640	-0.253246
C40	C	1.036908	-0.839097	-0.267520
C41	C	0.986429	-0.797841	-0.317897
C42	C	0.950280	-0.839135	-0.354004
C43	C	1.101714	-0.962891	-0.202862
C44	C	1.137862	-0.921604	-0.166759
C45	C	1.123536	-0.839059	-0.181036
C46	C	1.073057	-0.797803	-0.231413
C47	C	1.159685	-0.797766	-0.144929
C48	C	1.145355	-0.715222	-0.159203
C49	C	1.058727	-0.715260	-0.245687
C50	C	1.220642	-0.380786	-0.260310
C51	C	1.295875	-0.380793	-0.260318
C52	C	1.044115	-0.380726	-0.436841
C53	C	1.044123	-0.380708	-0.512076
C54	C	1.008455	-0.174617	-0.295973
C55	C	0.993267	-0.086766	-0.311179
C56	C	1.078732	-0.330020	-0.982647
C57	C	1.078726	-0.330045	-0.911954
C58	C	1.044174	-0.380598	-0.867857
C59	C	1.009632	-0.431136	-0.894454
C60	C	1.009643	-0.431115	-0.965145
C61	C	1.009588	-0.431222	-0.609366
C62	C	1.009578	-0.431237	-0.538671
C63	C	1.078671	-0.330151	-0.556175
C64	C	1.078682	-0.330130	-0.626866
C65	C	1.044143	-0.380671	-0.653457
C66	C	1.044152	-0.380645	-0.730110
C67	C	1.044161	-0.380620	-0.791206
C68	C	1.044107	-0.380757	-0.084436
C69	C	1.044191	-0.380553	-0.009240
H70	H	0.642280	-0.288939	-0.197779
H71	H	0.887361	-0.929379	-0.416863
O72	O	1.112239	-0.280986	-0.530461
C73	C	1.142748	-0.236375	-0.584540
H74	H	1.114556	-0.233623	-0.635401
H75	H	1.199159	-0.265318	-0.587056
C76	C	1.172581	-0.155643	-0.509042
C77	C	1.137951	-0.152257	-0.571510
H78	H	1.169625	-0.103756	-0.501004
H79	H	1.152029	-0.185700	-0.472607
H80	H	1.219588	-0.179766	-0.511147
H81	H	1.090944	-0.128144	-0.569402
H82	H	1.158495	-0.122194	-0.607945
O83	O	1.009747	-0.675266	-0.294714
C84	C	1.028005	-0.695373	-0.358710
H85	H	1.064417	-0.755286	-0.349776
H86	H	1.054728	-0.648879	-0.389570
C87	C	0.917946	-0.625624	-0.409968
C88	C	0.962662	-0.699213	-0.398996
H89	H	0.877639	-0.627989	-0.434821
H90	H	0.905645	-0.612074	-0.366854
H91	H	0.940223	-0.586887	-0.435683
H92	H	0.940388	-0.737946	-0.373274
H93	H	0.974958	-0.712769	-0.442107
O94	O	0.670061	-0.480639	-0.328217
C95	C	0.724156	-0.525303	-0.358632
H96	H	0.774999	-0.527981	-0.330438
H97	H	0.726699	-0.496453	-0.415075
C98	C	0.648687	-0.606154	-0.388325
C99	C	0.711132	-0.609450	-0.353692
H100	H	0.640653	-0.658059	-0.385281
H101	H	0.612241	-0.576062	-0.367836
H102	H	0.650814	-0.582109	-0.435358
H103	H	0.709002	-0.633485	-0.306659
H104	H	0.747578	-0.639548	-0.374173
O105	O	1.112183	-0.281045	-0.669802
C106	C	1.104798	-0.291875	-0.737896
H107	H	1.057041	-0.317757	-0.743066
H108	H	1.152227	-0.333959	-0.750678
C109	C	1.155830	-0.180105	-0.781680
C110	C	1.097170	-0.211887	-0.788031
H111	H	1.151128	-0.130766	-0.812606
H112	H	1.160808	-0.172810	-0.735804
H113	H	1.195348	-0.215183	-0.792330
H114	H	1.057655	-0.176814	-0.777372
H115	H	1.092186	-0.219175	-0.833906
H116	H	0.318355	-0.472626	-0.322828
H117	H	0.974758	-0.730629	-0.329514
O118	O	0.907644	-1.085500	-0.396713
C119	C	0.860006	-1.031388	-0.444227
H120	H	0.877507	-0.972521	-0.456775
H121	H	0.807103	-1.022669	-0.420901
C122	C	0.834297	-1.135876	-0.495279
C123	C	0.855796	-1.063577	-0.510695
H124	H	0.831697	-1.155733	-0.536278
H125	H	0.866389	-1.172333	-0.463267
H126	H	0.790213	-1.128601	-0.475839
H127	H	0.899882	-1.070855	-0.530126
H128	H	0.823711	-1.027122	-0.542712
H129	H	0.770523	-0.288925	-0.197768
H130	H	0.981516	-0.472265	-0.986795
H131	H	1.106855	-0.288898	-0.890306
O132	O	0.976072	-0.480331	-0.851709
C133	C	0.945580	-0.524921	-0.890344
H134	H	0.973778	-0.527630	-0.940268
H135	H	0.889166	-0.495988	-0.902857
C136	C	0.915755	-0.605728	-0.786884
C137	C	0.950392	-0.609061	-0.848200
H138	H	0.918720	-0.657628	-0.760887
H139	H	0.936295	-0.575685	-0.760855
H140	H	0.868746	-0.581613	-0.797321
H141	H	0.997401	-0.633166	-0.837762
H142	H	0.929860	-0.639110	-0.874226
O143	O	0.975973	-0.480334	-0.635082
C144	C	0.945486	-0.524966	-0.580998
H145	H	0.937541	-0.492603	-0.536212
H146	H	0.980648	-0.584999	-0.563091
C147	C	0.885179	-0.576090	-0.661615
C148	C	0.875415	-0.536339	-0.606610
H149	H	0.841957	-0.583109	-0.677413
H150	H	0.905720	-0.546024	-0.698053
H151	H	0.914482	-0.626113	-0.646685
H152	H	0.846119	-0.486313	-0.621543
H153	H	0.854867	-0.566397	-0.570175
H154	H	1.178961	-0.955201	-0.125737
O155	O	0.901300	-0.799140	-0.403031
C156	C	0.919559	-0.819247	-0.467026
H157	H	0.955970	-0.879160	-0.458093
H158	H	0.946281	-0.772754	-0.497887
C159	C	0.809499	-0.749498	-0.518285
C160	C	0.854215	-0.823088	-0.507312
H161	H	0.769193	-0.751864	-0.543137
H162	H	0.797198	-0.735949	-0.475171
H163	H	0.831776	-0.710761	-0.543999
H164	H	0.831941	-0.861821	-0.481591
H165	H	0.866511	-0.836644	-0.550424
H166	H	1.070517	-1.079075	-0.234049
O167	O	1.112236	-0.280936	-1.025581
C168	C	1.104854	-0.291764	-1.093676
H169	H	1.057096	-0.317642	-1.098850
H170	H	1.152282	-0.333850	-1.106456
C171	C	1.155894	-0.179998	-1.137453
C172	C	1.097233	-0.211776	-1.143809
H173	H	1.151196	-0.130659	-1.168378
H174	H	1.160870	-0.172704	-1.091576
H175	H	1.195412	-0.215078	-1.148102
H176	H	1.057718	-0.176701	-1.133152
H177	H	1.092250	-0.219061	-1.189685
H178	H	0.802356	-0.472601	-0.322789
H179	H	1.113382	-1.030104	-0.191243
H180	H	0.446599	-0.472619	-0.322817
H181	H	0.286526	-0.288960	-0.197798
O182	O	1.208789	-0.837879	-0.096076
C183	C	1.260749	-0.885595	-0.126393
H184	H	1.260583	-0.860695	-0.184012
H185	H	1.250673	-0.948166	-0.117885
C186	C	1.331548	-0.917412	-0.022400
C187	C	1.331348	-0.886826	-0.093168
H188	H	1.375097	-0.918175	-0.001904
H189	H	1.296541	-0.885268	-0.001974
H190	H	1.323148	-0.969552	-0.015320
H191	H	1.339739	-0.834684	-0.100248
H192	H	1.366359	-0.918962	-0.113595
O193	O	1.180551	-0.675232	-0.124090
C194	C	1.228166	-0.729340	-0.076550
H195	H	1.240710	-0.788164	-0.094104
H196	H	1.204944	-0.738167	-0.023596
C197	C	1.279195	-0.624808	-0.050883
C198	C	1.294606	-0.697055	-0.072445
H199	H	1.320178	-0.604893	-0.048347
H200	H	1.247115	-0.588354	-0.082909
H201	H	1.259843	-0.632174	-0.006756
H202	H	1.313950	-0.689687	-0.116574
H203	H	1.326692	-0.733508	-0.040425
H204	H	0.414758	-0.288953	-0.197785
H205	H	0.981437	-0.472403	-0.502768
