data_functionalizedCrystal
_audit_creation_method	'MofGen! by Chris Wilmer'
_symmetry_space_group_name_H-M	'P1'
_symmetry_Int_Tables_number	1
_symmetry_cell_setting	triclinic
loop_
_symmetry_equiv_pos_as_xyz
  x,y,z
_cell_length_a	21.395364
_cell_length_b	21.395362
_cell_length_c	21.395355
_cell_angle_alpha	89.980094
_cell_angle_beta	89.975448
_cell_angle_gamma	90.042450
loop_
_atom_site_label
_atom_site_type_symbol
_atom_site_fract_x
_atom_site_fract_y
_atom_site_fract_z
Zn1	Zn	0.957873	-0.249261	-0.354255
Zn2	Zn	1.457873	0.250739	0.145745
Zn3	Zn	0.957782	-0.354021	-0.249475
Zn4	Zn	1.457782	0.145979	0.250525
Zn5	Zn	0.853088	-0.249289	-0.249492
Zn6	Zn	1.353088	0.250711	0.250508
Zn7	Zn	0.853063	-0.354032	-0.354216
Zn8	Zn	1.353063	0.145968	0.145784
O9	O	0.905452	-0.301651	-0.301860
O10	O	1.405452	0.198349	0.198140
O11	O	1.045539	-0.263142	-0.340366
O12	O	1.545539	0.236858	0.159634
O13	O	0.943866	-0.340135	-0.161800
O14	O	1.443866	0.159865	0.338200
O15	O	0.867037	-0.161607	-0.263413
O16	O	1.367037	0.338393	0.236587
O17	O	1.045472	-0.340108	-0.263384
O18	O	1.545472	0.159892	0.236616
O19	O	0.944022	-0.161587	-0.340382
O20	O	1.444022	0.338413	0.159618
O21	O	0.866948	-0.263188	-0.161812
O22	O	1.366948	0.236812	0.338188
O23	O	0.765407	-0.263199	-0.263374
O24	O	1.265407	0.236801	0.236626
O25	O	0.866994	-0.340127	-0.441899
O26	O	1.366994	0.159873	0.058101
O27	O	0.765389	-0.340154	-0.340314
O28	O	1.265389	0.159846	0.159686
O29	O	0.943998	-0.263152	-0.441928
O30	O	1.443998	0.236848	0.058072
O31	O	0.943842	-0.441700	-0.263346
O32	O	1.443842	0.058300	0.236654
O33	O	0.866906	-0.441709	-0.340298
O34	O	1.366906	0.058291	0.159702
C35	C	0.742664	-0.301681	-0.301842
C36	C	1.242664	0.198319	0.198158
C37	C	0.673023	-0.301709	-0.301849
C38	C	1.173023	0.198291	0.198151
C39	C	0.640367	-0.261698	-0.341996
C40	C	1.140367	0.238302	0.158004
C41	C	0.574932	-0.261682	-0.341998
C42	C	1.074932	0.238318	0.158002
C43	C	0.542154	-0.301687	-0.301861
C44	C	1.042154	0.198313	0.198139
C45	C	0.574818	-0.341701	-0.261707
C46	C	1.074818	0.158299	0.238293
C47	C	0.640252	-0.341712	-0.261701
C48	C	1.140252	0.158288	0.238299
C49	C	0.438433	-0.358112	-0.296822
C50	C	0.938433	0.141888	0.203178
C51	C	0.373000	-0.358102	-0.296832
C52	C	0.873000	0.141898	0.203168
C53	C	0.340334	-0.301653	-0.301875
C54	C	0.840334	0.198347	0.198125
C55	C	0.373108	-0.245212	-0.306921
C56	C	0.873108	0.254788	0.193079
C57	C	0.438542	-0.245223	-0.306915
C58	C	0.938542	0.254777	0.193085
C59	C	0.471202	-0.301679	-0.301862
C60	C	0.971202	0.198321	0.198138
C61	C	0.236725	-0.261620	-0.342026
C62	C	0.736725	0.238380	0.157974
C63	C	0.171289	-0.261603	-0.342024
C64	C	0.671289	0.238397	0.157976
C65	C	0.171176	-0.341627	-0.261736
C66	C	0.671176	0.158373	0.238264
C67	C	0.236612	-0.341639	-0.261735
C68	C	0.736612	0.158361	0.238265
C69	C	0.269382	-0.301637	-0.301883
C70	C	0.769382	0.198363	0.198117
C71	C	0.905378	-0.464438	-0.301829
C72	C	1.405378	0.035562	0.198171
C73	C	0.905404	-0.534080	-0.301837
C74	C	1.405404	-0.034080	0.198163
C75	C	0.945663	-1.035851	-0.261892
C76	C	1.445663	-0.535851	0.238108
C77	C	0.945639	-0.970415	-0.261878
C78	C	1.445639	-0.470415	0.238122
C79	C	0.905540	-0.937718	-0.301904
C80	C	1.405540	-0.437718	0.198096
C81	C	0.865451	-0.970461	-0.341937
C82	C	1.365451	-0.470461	0.158063
C83	C	0.865471	-1.035895	-0.341947
C84	C	1.365471	-0.535895	0.158053
C85	C	0.900532	-0.834028	-0.358335
C86	C	1.400532	-0.334028	0.141665
C87	C	0.900516	-0.768595	-0.358327
C88	C	1.400516	-0.268595	0.141673
C89	C	0.905474	-0.735897	-0.301876
C90	C	1.405474	-0.235897	0.198124
C91	C	0.910460	-0.768640	-0.245432
C92	C	1.410460	-0.268640	0.254568
C93	C	0.910481	-0.834074	-0.245441
C94	C	1.410481	-0.334074	0.254559
C95	C	0.905513	-0.866765	-0.301899
C96	C	1.405513	-0.366765	0.198101
C97	C	0.945532	-0.632209	-0.261827
C98	C	1.445532	-0.132209	0.238173
C99	C	0.945504	-0.566772	-0.261811
C100	C	1.445504	-0.066772	0.238189
C101	C	0.865319	-0.566820	-0.341876
C102	C	1.365319	-0.066820	0.158124
C103	C	0.865343	-0.632255	-0.341886
C104	C	1.365343	-0.132255	0.158114
C105	C	0.905453	-0.664946	-0.301862
C106	C	1.405453	-0.164946	0.198138
C107	C	1.068875	-0.301621	-0.301878
C108	C	1.568875	0.198379	0.198122
C109	C	1.138516	-0.301608	-0.301885
C110	C	1.638516	0.198392	0.198115
C111	C	0.905504	-0.301638	-0.465283
C112	C	1.405504	0.198362	0.034717
C113	C	0.905526	-0.301633	-0.534924
C114	C	1.405526	0.198367	-0.034924
C115	C	0.905542	-0.138227	-0.301904
C116	C	1.405542	0.361773	0.198096
C117	C	0.905581	-0.068586	-0.301923
C118	C	1.405581	0.431414	0.198077
C119	C	0.945620	-0.261550	-0.567654
C120	C	1.445620	0.238450	-0.067654
C121	C	0.945619	-0.261523	-0.633089
C122	C	1.445619	0.238477	-0.133089
C123	C	0.905531	-0.301590	-0.665793
C124	C	1.405531	0.198410	-0.165793
C125	C	0.865429	-0.341675	-0.633055
C126	C	1.365429	0.158325	-0.133055
C127	C	0.865426	-0.341697	-0.567621
C128	C	1.365426	0.158303	-0.067621
C129	C	0.900558	-0.358007	-0.769457
C130	C	1.400558	0.141993	-0.269457
C131	C	0.900565	-0.357986	-0.834890
C132	C	1.400565	0.142014	-0.334890
C133	C	0.905534	-0.301524	-0.867614
C134	C	1.405534	0.198476	-0.367614
C135	C	0.910511	-0.245080	-0.834896
C136	C	1.410511	0.254920	-0.334896
C137	C	0.910508	-0.245101	-0.769462
C138	C	1.410508	0.254899	-0.269462
C139	C	0.905528	-0.301571	-0.736745
C140	C	1.405528	0.198429	-0.236745
C141	C	0.945630	-0.261409	-0.971295
C142	C	1.445630	0.238591	-0.471295
C143	C	0.945624	-0.261381	-1.036732
C144	C	1.445624	0.238619	-0.536732
C145	C	0.865438	-0.341538	-1.036697
C146	C	1.365438	0.158462	-0.536697
C147	C	0.865440	-0.341561	-0.971262
C148	C	1.365440	0.158439	-0.471262
C149	C	0.905539	-0.301497	-0.938565
C150	C	1.405539	0.198503	-0.438565
C151	C	0.905436	-0.301618	-0.139072
C152	C	1.405436	0.198382	0.360928
C153	C	0.905535	-0.301447	-0.069431
C154	C	1.405535	0.198553	0.430569
H155	H	0.263409	-0.229044	-0.374713
H156	H	0.763409	0.270956	0.125287
H157	H	0.832774	-0.374336	-0.540973
H158	H	1.332774	0.125664	-0.040973
O159	O	0.135830	-0.384771	-0.218440
O160	O	0.635830	0.115229	0.281560
H161	H	0.169534	-0.412594	-0.190519
H162	H	0.669534	0.087406	0.309481
H163	H	0.832801	-0.943836	-0.374527
H164	H	1.332801	-0.443836	0.125473
H165	H	0.978191	-0.658827	-0.229236
H166	H	1.478191	-0.158827	0.270764
O167	O	0.271840	-0.384797	-0.218436
O168	O	0.771840	0.115203	0.281564
H169	H	0.238057	-0.412615	-0.190528
H170	H	0.738057	0.087385	0.309472
O171	O	0.337651	-0.418972	-0.291378
O172	O	0.837651	0.081028	0.208622
H173	H	0.371358	-0.458225	-0.287853
H174	H	0.871358	0.041775	0.212147
O175	O	0.675476	-0.384872	-0.218400
O176	O	1.175476	0.115128	0.281600
H177	H	0.705294	-0.356785	-0.186571
H178	H	1.205294	0.143215	0.313429
H179	H	0.896517	-0.403946	-0.861523
H180	H	1.396517	0.096054	-0.361523
H181	H	0.914558	-0.199142	-0.742826
H182	H	1.414558	0.300858	-0.242826
O183	O	0.988866	-0.218335	-0.532391
O184	O	1.488866	0.281665	-0.032391
H185	H	0.982134	-0.225085	-0.481391
H186	H	1.482134	0.274915	0.018609
H187	H	0.896343	-0.403973	-0.742819
H188	H	1.396343	0.096027	-0.242819
O189	O	0.136067	-0.218441	-0.385325
O190	O	0.636067	0.281559	0.114675
H191	H	0.085061	-0.225146	-0.378579
H192	H	0.585061	0.274854	0.121421
O193	O	0.822179	-0.384776	-0.935954
O194	O	1.322179	0.115224	-0.435954
H195	H	0.794297	-0.412628	-0.969686
H196	H	1.294297	0.087372	-0.469686
H197	H	0.978141	-0.540119	-0.229210
H198	H	1.478141	-0.040119	0.270790
H199	H	0.548338	-0.229097	-0.374689
H200	H	1.048338	0.270903	0.125311
H201	H	0.914559	-0.199103	-0.861538
H202	H	1.414559	0.300897	-0.361538
H203	H	0.832706	-0.658909	-0.374485
H204	H	1.332706	-0.158909	0.125515
H205	H	0.667045	-0.229125	-0.374687
H206	H	1.167045	0.270875	0.125313
O207	O	0.988891	-0.935100	-0.218716
O208	O	1.488891	-0.435100	0.281284
H209	H	0.982140	-0.884108	-0.225438
H210	H	1.482140	-0.384108	0.274562
H211	H	0.896609	-0.860646	-0.404317
H212	H	1.396609	-0.360646	0.095683
O213	O	0.822243	-1.071210	-0.385128
O214	O	1.322243	-0.571210	0.114872
H215	H	0.794356	-1.037483	-0.412962
H216	H	1.294356	-0.537483	0.087038
H217	H	0.978277	-0.228783	-0.944672
H218	H	1.478277	0.271217	-0.444672
O219	O	0.915849	-0.869392	-0.184567
O220	O	1.415849	-0.369392	0.315433
H221	H	0.919288	-0.835667	-0.145308
H222	H	1.419288	-0.335667	0.354692
O223	O	0.988870	-0.218296	-0.668403
O224	O	1.488870	0.281704	-0.168403
H225	H	1.016755	-0.190444	-0.634673
H226	H	1.516755	0.309556	-0.134673
O227	O	0.473895	-0.184353	-0.312341
O228	O	0.973895	0.315647	0.187659
H229	H	0.440192	-0.145094	-0.315841
H230	H	0.940192	0.354906	0.184159
H231	H	0.978273	-0.228737	-1.063379
H232	H	1.478273	0.271263	-0.563379
H233	H	0.832791	-0.374155	-1.063324
H234	H	1.332791	0.125845	-0.563324
O235	O	0.822188	-0.384890	-0.668323
O236	O	1.322188	0.115110	-0.168323
H237	H	0.828928	-0.378145	-0.719322
H238	H	1.328928	0.121855	-0.219322
O239	O	0.473665	-0.419000	-0.291387
O240	O	0.973665	0.081000	0.208613
H241	H	0.439884	-0.458244	-0.287891
H242	H	0.939884	0.041756	0.212109
H243	H	0.548127	-0.374273	-0.229026
H244	H	1.048127	0.125727	0.270974
O245	O	0.337885	-0.184321	-0.312353
O246	O	0.837885	0.315679	0.187647
H247	H	0.308086	-0.185370	-0.354793
H248	H	0.808086	0.314630	0.145207
O249	O	0.988915	-1.071111	-0.218719
O250	O	1.488915	-0.571111	0.281281
H251	H	1.016778	-1.037351	-0.190876
H252	H	1.516778	-0.537351	0.309124
O253	O	0.915802	-0.733384	-0.184538
O254	O	1.415802	-0.233384	0.315462
H255	H	0.914941	-0.682383	-0.194010
H256	H	1.414941	-0.182383	0.305990
O257	O	0.822068	-0.531564	-0.385051
O258	O	1.322068	-0.031564	0.114949
H259	H	0.828789	-0.480563	-0.378323
H260	H	1.328789	0.019437	0.121677
H261	H	0.896460	-0.741939	-0.404286
H262	H	1.396460	-0.241939	0.095714
