data_functionalizedCrystal
_audit_creation_method	'MofGen! by Chris Wilmer'
_symmetry_space_group_name_H-M	'P1'
_symmetry_Int_Tables_number	1
_symmetry_cell_setting	triclinic
loop_
_symmetry_equiv_pos_as_xyz
  x,y,z
_cell_length_a	23.532361
_cell_length_b	23.532407
_cell_length_c	22.010155
_cell_angle_alpha	90.000423
_cell_angle_beta	90.004127
_cell_angle_gamma	82.839173
loop_
_atom_site_label
_atom_site_type_symbol
_atom_site_fract_x
_atom_site_fract_y
_atom_site_fract_z
O1	O	0.755281	0.069001	0.050470
O2	O	1.005281	0.319001	0.300470
O3	O	1.255281	0.569001	0.550470
O4	O	1.505281	0.819001	0.800470
O5	O	0.589414	0.079032	0.050486
O6	O	0.839414	0.329032	0.300486
O7	O	1.089414	0.579032	0.550486
O8	O	1.339414	0.829032	0.800486
O9	O	0.677349	-0.008916	0.050466
O10	O	0.927349	0.241084	0.300466
O11	O	1.177349	0.491084	0.550466
O12	O	1.427349	0.741084	0.800466
O13	O	0.667346	0.156949	0.050490
O14	O	0.917346	0.406949	0.300490
O15	O	1.167346	0.656949	0.550490
O16	O	1.417346	0.906949	0.800490
O17	O	0.677333	-0.008903	-0.050584
O18	O	0.927333	0.241097	0.199416
O19	O	1.177333	0.491097	0.449416
O20	O	1.427333	0.741097	0.699416
O21	O	0.589398	0.079045	-0.050565
O22	O	0.839398	0.329045	0.199435
O23	O	1.089398	0.579045	0.449435
O24	O	1.339398	0.829045	0.699435
O25	O	0.755265	0.069014	-0.050580
O26	O	1.005265	0.319014	0.199420
O27	O	1.255265	0.569014	0.449420
O28	O	1.505265	0.819014	0.699420
Cu29	Cu	0.672330	0.074030	-0.059799
Cu30	Cu	0.922330	0.324030	0.190201
Cu31	Cu	1.172330	0.574030	0.440201
Cu32	Cu	1.422330	0.824030	0.690201
Cu33	Cu	0.672349	0.074015	0.059705
Cu34	Cu	0.922349	0.324015	0.309705
Cu35	Cu	1.172349	0.574015	0.559705
Cu36	Cu	1.422349	0.824015	0.809705
O37	O	0.667330	0.156962	-0.050561
O38	O	0.917330	0.406962	0.199439
O39	O	1.167330	0.656962	0.449439
O40	O	1.417330	0.906962	0.699439
C41	C	0.568189	0.078787	-0.000038
C42	C	0.818189	0.328787	0.249962
C43	C	1.068189	0.578787	0.499962
C44	C	1.318189	0.828787	0.749962
C45	C	0.504971	0.078032	-0.000032
C46	C	0.754971	0.328032	0.249968
C47	C	1.004971	0.578032	0.499968
C48	C	1.254971	0.828032	0.749968
C49	C	0.231736	0.074721	0.055046
C50	C	0.481736	0.324721	0.305046
C51	C	0.731736	0.574721	0.555046
C52	C	0.981736	0.824721	0.805046
C53	C	0.291136	0.075436	0.055048
C54	C	0.541136	0.325436	0.305048
C55	C	0.791136	0.575436	0.555048
C56	C	1.041136	0.825436	0.805048
O57	O	0.321869	0.075780	0.101892
O58	O	0.571869	0.325780	0.351892
O59	O	0.821869	0.575780	0.601892
O60	O	1.071869	0.825780	0.851892
N61	N	0.320832	0.075804	-0.000035
N62	N	0.570832	0.325804	0.249965
N63	N	0.820832	0.575804	0.499965
N64	N	1.070832	0.825804	0.749965
C65	C	0.291127	0.075452	-0.055123
C66	C	0.541127	0.325452	0.194877
C67	C	0.791127	0.575452	0.444877
C68	C	1.041127	0.825452	0.694877
O69	O	0.321841	0.075830	-0.101975
O70	O	0.571841	0.325830	0.148025
O71	O	0.821841	0.575830	0.398025
O72	O	1.071841	0.825830	0.648025
C73	C	0.231729	0.074733	-0.055124
C74	C	0.481729	0.324733	0.194876
C75	C	0.731729	0.574733	0.444876
C76	C	0.981729	0.824733	0.694876
C77	C	0.202035	0.074370	-0.000037
C78	C	0.452035	0.324370	0.249963
C79	C	0.702035	0.574370	0.499963
C80	C	0.952035	0.824370	0.749963
C81	C	0.202041	0.074358	0.110128
C82	C	0.452041	0.324358	0.360128
C83	C	0.702041	0.574358	0.610128
C84	C	0.952041	0.824358	0.860128
C85	C	0.142645	0.073644	0.110126
C86	C	0.392645	0.323644	0.360126
C87	C	0.642645	0.573644	0.610126
C88	C	0.892645	0.823644	0.860126
C89	C	0.112944	0.073293	0.055043
C90	C	0.362944	0.323293	0.305043
C91	C	0.612944	0.573293	0.555043
C92	C	0.862944	0.823293	0.805043
C93	C	0.142639	0.073657	-0.000039
C94	C	0.392639	0.323657	0.249961
C95	C	0.642639	0.573657	0.499961
C96	C	0.892639	0.823657	0.749961
C97	C	0.202026	0.074376	-0.110211
C98	C	0.452026	0.324376	0.139789
C99	C	0.702026	0.574376	0.389789
C100	C	0.952026	0.824376	0.639789
C101	C	0.142624	0.073657	-0.110207
C102	C	0.392624	0.323657	0.139793
C103	C	0.642624	0.573657	0.389793
C104	C	0.892624	0.823657	0.639793
C105	C	0.112929	0.073294	-0.055121
C106	C	0.362929	0.323294	0.194879
C107	C	0.612929	0.573294	0.444879
C108	C	0.862929	0.823294	0.694879
C109	C	0.053542	0.072592	-0.055125
C110	C	0.303542	0.322592	0.194875
C111	C	0.553542	0.572592	0.444875
C112	C	0.803542	0.822592	0.694875
N113	N	0.023845	0.072224	-0.000042
N114	N	0.273845	0.322224	0.249958
N115	N	0.523845	0.572224	0.499958
N116	N	0.773845	0.822224	0.749958
C117	C	0.053546	0.072574	0.055042
C118	C	0.303546	0.322574	0.305042
C119	C	0.553546	0.572574	0.555042
C120	C	0.803546	0.822574	0.805042
C121	C	0.415868	0.076961	-0.055117
C122	C	0.665868	0.326961	0.194883
C123	C	0.915868	0.576961	0.444883
C124	C	1.165868	0.826961	0.694883
C125	C	0.475264	0.077684	-0.055116
C126	C	0.725264	0.327684	0.194884
C127	C	0.975264	0.577684	0.444884
C128	C	1.225264	0.827684	0.694884
C129	C	0.475268	0.077667	0.055055
C130	C	0.725268	0.327667	0.305055
C131	C	0.975268	0.577667	0.555055
C132	C	1.225268	0.827667	0.805055
C133	C	0.415870	0.076948	0.055054
C134	C	0.665870	0.326948	0.305054
C135	C	0.915870	0.576948	0.555054
C136	C	1.165870	0.826948	0.805054
C137	C	0.386171	0.076593	-0.000034
C138	C	0.636171	0.326593	0.249966
C139	C	0.886171	0.576593	0.499966
C140	C	1.136171	0.826593	0.749966
C141	C	-0.071190	0.071076	0.055034
C142	C	0.178810	0.321076	0.305034
C143	C	0.428810	0.571076	0.555034
C144	C	0.678810	0.821076	0.805034
C145	C	-0.130591	0.070364	0.055027
C146	C	0.119409	0.320364	0.305027
C147	C	0.369409	0.570364	0.555027
C148	C	0.619409	0.820364	0.805027
C149	C	-0.130589	0.070378	-0.055144
C150	C	0.119411	0.320378	0.194856
C151	C	0.369411	0.570378	0.444856
C152	C	0.619411	0.820378	0.694856
C153	C	-0.071194	0.071093	-0.055137
C154	C	0.178806	0.321093	0.194863
C155	C	0.428806	0.571093	0.444863
C156	C	0.678806	0.821093	0.694863
C157	C	-0.041495	0.071440	-0.000044
C158	C	0.208505	0.321440	0.249956
C159	C	0.458505	0.571440	0.499956
C160	C	0.708505	0.821440	0.749956
O161	O	0.022771	0.072245	-0.101945
O162	O	0.272771	0.322245	0.148055
O163	O	0.522771	0.572245	0.398055
O164	O	0.772771	0.822245	0.648055
O165	O	0.022826	0.072188	0.101886
O166	O	0.272826	0.322188	0.351886
O167	O	0.522826	0.572188	0.601886
O168	O	0.772826	0.822188	0.851886
C169	C	0.677086	-0.030126	-0.000060
C170	C	0.927086	0.219874	0.249940
C171	C	1.177086	0.469874	0.499940
C172	C	1.427086	0.719874	0.749940
C173	C	0.676320	-0.093343	-0.000065
C174	C	0.926320	0.156657	0.249935
C175	C	1.176320	0.406657	0.499935
C176	C	1.426320	0.656657	0.749935
C177	C	0.723555	-0.492454	-0.000036
C178	C	0.973555	-0.242454	0.249964
C179	C	1.223555	0.007546	0.499964
C180	C	1.473555	0.257546	0.749964
C181	C	0.722844	-0.551854	-0.000031
C182	C	0.972844	-0.301854	0.249969
C183	C	1.222844	-0.051854	0.499969
C184	C	1.472844	0.198146	0.749969
O185	O	0.766630	-0.588606	-0.000013
O186	O	1.016630	-0.338606	0.249987
O187	O	1.266630	-0.088606	0.499987
O188	O	1.516630	0.161394	0.749987
N189	N	0.670566	-0.574471	-0.000027
N190	N	0.920566	-0.324471	0.249973
N191	N	1.170566	-0.074471	0.499973
N192	N	1.420566	0.175529	0.749973
C193	C	0.618997	-0.537685	-0.000021
C194	C	0.868997	-0.287685	0.249979
C195	C	1.118997	-0.037685	0.499979
C196	C	1.368997	0.212315	0.749979
O197	O	0.574465	-0.562377	-0.000016
O198	O	0.824465	-0.312377	0.249984
O199	O	1.074465	-0.062377	0.499984
O200	O	1.324465	0.187623	0.749984
C201	C	0.619709	-0.478286	-0.000021
C202	C	0.869709	-0.228286	0.249979
C203	C	1.119709	0.021714	0.499979
C204	C	1.369709	0.271714	0.749979
C205	C	0.671990	-0.455672	-0.000032
C206	C	0.921990	-0.205672	0.249968
C207	C	1.171990	0.044328	0.499968
C208	C	1.421990	0.294328	0.749968
C209	C	0.775832	-0.469839	-0.000046
C210	C	1.025832	-0.219839	0.249954
C211	C	1.275832	0.030161	0.499954
C212	C	1.525832	0.280161	0.749954
C213	C	0.776543	-0.410443	-0.000052
C214	C	1.026543	-0.160443	0.249948
C215	C	1.276543	0.089557	0.499948
C216	C	1.526543	0.339557	0.749948
C217	C	0.724977	-0.373662	-0.000048
C218	C	0.974977	-0.123662	0.249952
C219	C	1.224977	0.126338	0.499952
C220	C	1.474977	0.376338	0.749952
C221	C	0.672701	-0.396276	-0.000038
C222	C	0.922701	-0.146276	0.249962
C223	C	1.172701	0.103724	0.499962
C224	C	1.422701	0.353724	0.749962
C225	C	0.568140	-0.441501	-0.000011
C226	C	0.818140	-0.191501	0.249989
C227	C	1.068140	0.058499	0.499989
C228	C	1.318140	0.308499	0.749989
C229	C	0.568857	-0.382099	-0.000011
C230	C	0.818857	-0.132099	0.249989
C231	C	1.068857	0.117901	0.499989
C232	C	1.318857	0.367901	0.749989
C233	C	0.621137	-0.359485	-0.000021
C234	C	0.871137	-0.109485	0.249979
C235	C	1.121137	0.140515	0.499979
C236	C	1.371137	0.390515	0.749979
C237	C	0.621847	-0.300099	-0.000039
C238	C	0.871847	-0.050099	0.249961
C239	C	1.121847	0.199901	0.499961
C240	C	1.371847	0.449901	0.749961
N241	N	0.674124	-0.277481	-0.000044
N242	N	0.924124	-0.027481	0.249956
N243	N	1.174124	0.222519	0.499956
N244	N	1.424124	0.472519	0.749956
C245	C	0.725690	-0.314263	-0.000048
C246	C	0.975690	-0.064263	0.249952
C247	C	1.225690	0.185737	0.499952
C248	C	1.475690	0.435737	0.749952
C249	C	0.617505	-0.662427	-0.000019
C250	C	0.867505	-0.412427	0.249981
C251	C	1.117505	-0.162427	0.499981
C252	C	1.367505	0.087573	0.749981
C253	C	0.616793	-0.721825	-0.000023
C254	C	0.866793	-0.471825	0.249977
C255	C	1.116793	-0.221825	0.499977
C256	C	1.366793	0.028175	0.749977
C257	C	0.720640	-0.735990	-0.000032
C258	C	0.970640	-0.485990	0.249968
C259	C	1.220640	-0.235990	0.499968
C260	C	1.470640	0.014010	0.749968
C261	C	0.721352	-0.676591	-0.000033
C262	C	0.971352	-0.426591	0.249967
C263	C	1.221352	-0.176591	0.499967
C264	C	1.471352	0.073409	0.749967
C265	C	0.669783	-0.639810	-0.000024
C266	C	0.919783	-0.389810	0.249976
C267	C	1.169783	-0.139810	0.499976
C268	C	1.419783	0.110190	0.749976
C269	C	0.727179	-0.189526	-0.000061
C270	C	0.977179	0.060474	0.249939
C271	C	1.227179	0.310474	0.499939
C272	C	1.477179	0.560474	0.749939
C273	C	0.727886	-0.130124	-0.000069
C274	C	0.977886	0.119876	0.249931
C275	C	1.227886	0.369876	0.499931
C276	C	1.477886	0.619876	0.749931
C277	C	0.624039	-0.115965	-0.000057
C278	C	0.874039	0.134035	0.249943
C279	C	1.124039	0.384035	0.499943
C280	C	1.374039	0.634035	0.749943
C281	C	0.623332	-0.175361	-0.000051
C282	C	0.873332	0.074639	0.249949
C283	C	1.123332	0.324639	0.499949
C284	C	1.373332	0.574639	0.749949
C285	C	0.674907	-0.212141	-0.000051
C286	C	0.924907	0.037859	0.249949
C287	C	1.174907	0.287859	0.499949
C288	C	1.424907	0.537859	0.749949
O289	O	0.578083	-0.263312	-0.000055
O290	O	0.828083	-0.013312	0.249945
O291	O	1.078083	0.236688	0.499945
O292	O	1.328083	0.486688	0.749945
O293	O	0.770214	-0.289562	-0.000045
O294	O	1.020214	-0.039562	0.249955
O295	O	1.270214	0.210438	0.499955
O296	O	1.520214	0.460438	0.749955
C297	C	0.776489	0.069258	-0.000055
C298	C	1.026489	0.319258	0.249945
C299	C	1.276489	0.569258	0.499945
C300	C	1.526489	0.819258	0.749945
C301	C	0.839708	0.070014	-0.000057
C302	C	1.089708	0.320014	0.249943
C303	C	1.339708	0.570014	0.499943
C304	C	1.589708	0.820014	0.749943
C305	C	0.667592	0.178171	-0.000033
C306	C	0.917592	0.428171	0.249967
C307	C	1.167592	0.678171	0.499967
C308	C	1.417592	0.928171	0.749967
C309	C	0.668358	0.241388	-0.000024
C310	C	0.918358	0.491388	0.249976
C311	C	1.168358	0.741388	0.499976
C312	C	1.418358	0.991388	0.749976
N313	N	0.672321	0.074041	-0.143851
N314	N	0.922321	0.324041	0.106149
N315	N	1.172321	0.574041	0.356149
N316	N	1.422321	0.824041	0.606149
C317	C	0.711289	0.035077	-0.563639
C318	C	0.961289	0.285077	-0.313639
C319	C	1.211289	0.535077	-0.063639
C320	C	1.461289	0.785077	0.186361
C321	C	0.711291	0.035073	-0.627247
C322	C	0.961291	0.285073	-0.377247
C323	C	1.211291	0.535073	-0.127247
C324	C	1.461291	0.785073	0.122753
O325	O	0.744400	0.001952	-0.660146
O326	O	0.994400	0.251952	-0.410146
O327	O	1.244400	0.501952	-0.160146
O328	O	1.494400	0.751952	0.089854
N329	N	0.672349	0.074003	-0.659059
N330	N	0.922349	0.324003	-0.409059
N331	N	1.172349	0.574003	-0.159059
N332	N	1.422349	0.824003	0.090941
C333	C	0.633397	0.112935	-0.627259
C334	C	0.883397	0.362935	-0.377259
C335	C	1.133397	0.612935	-0.127259
C336	C	1.383397	0.862935	0.122741
O337	O	0.600272	0.146048	-0.660158
O338	O	0.850272	0.396048	-0.410158
O339	O	1.100272	0.646048	-0.160158
O340	O	1.350272	0.896048	0.089842
C341	C	0.633392	0.112936	-0.563653
C342	C	0.883392	0.362936	-0.313653
C343	C	1.133392	0.612936	-0.063653
C344	C	1.383392	0.862936	0.186347
C345	C	0.672341	0.074008	-0.531845
C346	C	0.922341	0.324008	-0.281845
C347	C	1.172341	0.574008	-0.031845
C348	C	1.422341	0.824008	0.218155
C349	C	0.750235	-0.003849	-0.531831
C350	C	1.000235	0.246151	-0.281831
C351	C	1.250235	0.496151	-0.031831
C352	C	1.500235	0.746151	0.218169
C353	C	0.750232	-0.003844	-0.468228
C354	C	1.000232	0.246156	-0.218228
C355	C	1.250232	0.496156	0.031772
C356	C	1.500232	0.746156	0.281772
C357	C	0.711285	0.035087	-0.436433
C358	C	0.961285	0.285087	-0.186433
C359	C	1.211285	0.535087	0.063567
C360	C	1.461285	0.785087	0.313567
C361	C	0.672339	0.074012	-0.468241
C362	C	0.922339	0.324012	-0.218241
C363	C	1.172339	0.574012	0.031759
C364	C	1.422339	0.824012	0.281759
C365	C	0.594437	0.151866	-0.531855
C366	C	0.844437	0.401866	-0.281855
C367	C	1.094437	0.651866	-0.031855
C368	C	1.344437	0.901866	0.218145
C369	C	0.594436	0.151863	-0.468244
C370	C	0.844436	0.401863	-0.218244
C371	C	1.094436	0.651863	0.031756
C372	C	1.344436	0.901863	0.281756
C373	C	0.633385	0.112934	-0.436436
C374	C	0.883385	0.362934	-0.186436
C375	C	1.133385	0.612934	0.063564
C376	C	1.383385	0.862934	0.313564
C377	C	0.633389	0.112948	-0.372843
C378	C	0.883389	0.362948	-0.122843
C379	C	1.133389	0.612948	0.127157
C380	C	1.383389	0.862948	0.377157
N381	N	0.672332	0.074018	-0.341032
N382	N	0.922332	0.324018	-0.091032
N383	N	1.172332	0.574018	0.158968
N384	N	1.422332	0.824018	0.408968
C385	C	0.711280	0.035087	-0.372827
C386	C	0.961280	0.285087	-0.122827
C387	C	1.211280	0.535087	0.127173
C388	C	1.461280	0.785087	0.377173
C389	C	0.633409	0.112930	-0.760837
C390	C	0.883409	0.362930	-0.510837
C391	C	1.133409	0.612930	-0.260837
C392	C	1.383409	0.862930	-0.010837
C393	C	0.633416	0.112933	-0.824442
C394	C	0.883416	0.362933	-0.574442
C395	C	1.133416	0.612933	-0.324442
C396	C	1.383416	0.862933	-0.074442
C397	C	0.711311	0.035069	-0.824426
C398	C	0.961311	0.285069	-0.574426
C399	C	1.211311	0.535069	-0.324426
C400	C	1.461311	0.785069	-0.074426
C401	C	0.711306	0.035070	-0.760819
C402	C	0.961306	0.285070	-0.510819
C403	C	1.211306	0.535070	-0.260819
C404	C	1.461306	0.785070	-0.010819
C405	C	0.672352	0.074000	-0.729025
C406	C	0.922352	0.324000	-0.479025
C407	C	1.172352	0.574000	-0.229025
C408	C	1.422352	0.824000	0.020975
C409	C	0.711273	0.035101	-0.239255
C410	C	0.961273	0.285101	0.010745
C411	C	1.211273	0.535101	0.260745
C412	C	1.461273	0.785101	0.510745
C413	C	0.711269	0.035110	-0.175646
C414	C	0.961269	0.285110	0.074354
C415	C	1.211269	0.535110	0.324354
C416	C	1.461269	0.785110	0.574354
C417	C	0.633373	0.112971	-0.175669
C418	C	0.883373	0.362971	0.074331
C419	C	1.133373	0.612971	0.324331
C420	C	1.383373	0.862971	0.574331
C421	C	0.633378	0.112964	-0.239272
C422	C	0.883378	0.362964	0.010728
C423	C	1.133378	0.612964	0.260728
C424	C	1.383378	0.862964	0.510728
C425	C	0.672331	0.074024	-0.271064
C426	C	0.922331	0.324024	-0.021064
C427	C	1.172331	0.574024	0.228936
C428	C	1.422331	0.824024	0.478936
O429	O	0.600295	0.146051	-0.339904
O430	O	0.850295	0.396051	-0.089904
O431	O	1.100295	0.646051	0.160096
O432	O	1.350295	0.896051	0.410096
O433	O	0.744393	0.001976	-0.339920
O434	O	0.994393	0.251976	-0.089920
O435	O	1.244393	0.501976	0.160080
O436	O	1.494393	0.751976	0.410080
N437	N	0.672362	0.074000	0.143757
N438	N	0.922362	0.324000	0.393757
N439	N	1.172362	0.574000	0.643757
N440	N	1.422362	0.824000	0.893757
H441	H	0.499435	0.077988	-0.099973
H442	H	0.749435	0.327988	0.150027
H443	H	0.999435	0.577988	0.400027
H444	H	1.249435	0.827988	0.650027
H445	H	0.562721	0.183564	-0.557744
H446	H	0.812721	0.433564	-0.307744
H447	H	1.062721	0.683564	-0.057744
H448	H	1.312721	0.933564	0.192256
H449	H	-0.154766	0.070071	0.099887
H450	H	0.095234	0.320071	0.349887
H451	H	0.345234	0.570071	0.599887
H452	H	0.595234	0.820071	0.849887
F453	F	0.832188	-0.386384	-0.000050
F454	F	1.082188	-0.136384	0.249950
F455	F	1.332188	0.113616	0.499950
F456	F	1.582188	0.363616	0.749950
H457	H	0.580761	-0.193774	-0.000060
H458	H	0.830761	0.056226	0.249940
H459	H	1.080761	0.306226	0.499940
H460	H	1.330761	0.556226	0.749940
F461	F	0.752727	-0.006323	-0.141797
F462	F	1.002727	0.243677	0.108203
F463	F	1.252727	0.493677	0.358203
F464	F	1.502727	0.743677	0.608203
H465	H	0.601690	0.144637	-0.734954
H466	H	0.851690	0.394637	-0.484954
H467	H	1.101690	0.644637	-0.234954
H468	H	1.351690	0.894637	0.015046
F469	F	0.562614	-0.623286	-0.000015
F470	F	0.812614	-0.373286	0.249985
F471	F	1.062614	-0.123286	0.499985
F472	F	1.312614	0.126714	0.749985
H473	H	0.769176	-0.219466	-0.000058
H474	H	1.019176	0.030534	0.249942
H475	H	1.269176	0.280534	0.499942
H476	H	1.519176	0.530534	0.749942
H477	H	-0.154783	0.070095	-0.099991
H478	H	0.095217	0.320095	0.150009
H479	H	0.345217	0.570095	0.400009
H480	H	0.595217	0.820095	0.650009
H481	H	0.562713	0.183564	-0.442360
H482	H	0.812713	0.433564	-0.192360
H483	H	1.062713	0.683564	0.057640
H484	H	1.312713	0.933564	0.307640
H485	H	0.601663	0.144670	-0.149771
H486	H	0.851663	0.394670	0.100229
H487	H	1.101663	0.644670	0.350229
H488	H	1.351663	0.894670	0.600229
H489	H	0.118445	0.073372	-0.155067
H490	H	0.368445	0.323372	0.094933
H491	H	0.618445	0.573372	0.344933
H492	H	0.868445	0.823372	0.594933
H493	H	0.743021	0.003371	-0.734925
H494	H	0.993021	0.253371	-0.484925
H495	H	1.243021	0.503371	-0.234925
H496	H	1.493021	0.753371	0.015075
F497	F	0.512495	-0.465555	0.000003
F498	F	0.762495	-0.215555	0.250003
F499	F	1.012495	0.034445	0.500003
F500	F	1.262495	0.284445	0.750003
H501	H	0.743023	0.003369	-0.850325
H502	H	0.993023	0.253369	-0.600325
H503	H	1.243023	0.503369	-0.350325
H504	H	1.493023	0.753369	-0.100325
F505	F	0.830720	-0.508977	-0.000050
F506	F	1.080720	-0.258977	0.249950
F507	F	1.330720	-0.008977	0.499950
F508	F	1.580720	0.241023	0.749950
H509	H	0.499462	0.077952	0.099907
H510	H	0.749462	0.327952	0.349907
H511	H	0.999462	0.577952	0.599907
H512	H	1.249462	0.827952	0.849907
H513	H	0.226218	0.074642	0.154986
H514	H	0.476218	0.324642	0.404986
H515	H	0.726218	0.574642	0.654986
H516	H	0.976218	0.824642	0.904986
F517	F	0.591968	0.154373	-0.858289
F518	F	0.841968	0.404373	-0.608289
F519	F	1.091968	0.654373	-0.358289
F520	F	1.341968	0.904373	-0.108289
F521	F	-0.039590	0.071486	-0.113766
F522	F	0.210410	0.321486	0.136234
F523	F	0.460410	0.571486	0.386234
F524	F	0.710410	0.821486	0.636234
H525	H	0.118474	0.073346	0.154983
H526	H	0.368474	0.323346	0.404983
H527	H	0.618474	0.573346	0.654983
H528	H	0.868474	0.823346	0.904983
H529	H	0.601668	0.144669	-0.265171
H530	H	0.851668	0.394669	-0.015171
H531	H	1.101668	0.644669	0.234829
H532	H	1.351668	0.894669	0.484829
F533	F	-0.039590	0.071445	0.113670
F534	F	0.210410	0.321445	0.363670
F535	F	0.460410	0.571445	0.613670
F536	F	0.710410	0.821445	0.863670
F537	F	0.776995	-0.652529	-0.000044
F538	F	1.026995	-0.402529	0.249956
F539	F	1.276995	-0.152529	0.499956
F540	F	1.526995	0.097471	0.749956
F541	F	0.233616	0.074762	-0.168843
F542	F	0.483616	0.324762	0.081157
F543	F	0.733616	0.574762	0.331157
F544	F	0.983616	0.824762	0.581157
F545	F	0.384272	0.076561	0.113683
F546	F	0.634272	0.326561	0.363683
F547	F	0.884272	0.576561	0.613683
F548	F	1.134272	0.826561	0.863683
H549	H	0.781951	-0.035553	-0.557713
H550	H	1.031951	0.214447	-0.307713
H551	H	1.281951	0.464447	-0.057713
H552	H	1.531951	0.714447	0.192287
F553	F	0.384263	0.076589	-0.113752
F554	F	0.634263	0.326589	0.136248
F555	F	0.884263	0.576589	0.386248
F556	F	1.134263	0.826589	0.636248
F557	F	0.783533	-0.106061	-0.000080
F558	F	1.033533	0.143939	0.249920
F559	F	1.283533	0.393939	0.499920
F560	F	1.533533	0.643939	0.749920
F561	F	0.775521	-0.775146	-0.000034
F562	F	1.025521	-0.525146	0.249966
F563	F	1.275521	-0.275146	0.499966
F564	F	1.525521	-0.025146	0.749966
H565	H	0.574220	-0.740232	-0.000025
H566	H	0.824220	-0.490232	0.249975
H567	H	1.074220	-0.240232	0.499975
H568	H	1.324220	0.009768	0.749975
H569	H	0.526862	-0.352154	-0.000003
H570	H	0.776862	-0.102154	0.249997
H571	H	1.026862	0.147846	0.499997
H572	H	1.276862	0.397846	0.749997
F573	F	0.752730	-0.006344	-0.273081
F574	F	1.002730	0.243656	-0.023081
F575	F	1.252730	0.493656	0.226919
F576	F	1.502730	0.743656	0.476919
F577	F	0.569162	-0.076809	-0.000052
F578	F	0.819162	0.173191	0.249948
F579	F	1.069162	0.423191	0.499948
F580	F	1.319162	0.673191	0.749948
F581	F	0.791685	-0.045279	-0.434381
F582	F	1.041685	0.204721	-0.184381
F583	F	1.291685	0.454721	0.065619
F584	F	1.541685	0.704721	0.315619
