data_functionalizedCrystal
_audit_creation_method	'MofGen! by Chris Wilmer'
_symmetry_space_group_name_H-M	'P1'
_symmetry_Int_Tables_number	1
_symmetry_cell_setting	triclinic
loop_
_symmetry_equiv_pos_as_xyz
  x,y,z
_cell_length_a	19.188930
_cell_length_b	11.792241
_cell_length_c	18.266242
_cell_angle_alpha	89.997832
_cell_angle_beta	90.006796
_cell_angle_gamma	96.330901
loop_
_atom_site_label
_atom_site_type_symbol
_atom_site_fract_x
_atom_site_fract_y
_atom_site_fract_z
O1	O	0.095691	-1.505480	0.060819
O2	O	0.105554	-1.174991	0.060837
O3	O	-0.000979	-1.349773	0.060813
O4	O	0.202224	-1.330699	0.060843
O5	O	-0.000976	-1.349751	-0.060949
O6	O	0.105557	-1.174969	-0.060925
O7	O	0.095695	-1.505458	-0.060943
Zn8	Zn	0.100626	-1.340210	-0.080266
Zn9	Zn	0.100622	-1.340239	0.080160
O10	O	0.202227	-1.330676	-0.060919
C11	C	0.104936	-1.132699	-0.000042
C12	C	0.103082	-1.006713	-0.000036
C13	C	-0.026992	-1.349144	-0.000070
C14	C	-0.104507	-1.347290	-0.000076
C15	C	0.096313	-1.547751	-0.000063
C16	C	0.098167	-1.673737	-0.000064
C17	C	-0.148850	-1.449846	-0.000085
C18	C	-0.221684	-1.448104	-0.000073
C19	C	-0.250171	-1.343800	-0.000067
C20	C	-0.205818	-1.241230	-0.000054
C21	C	-0.132986	-1.242975	-0.000059
N22	N	-0.358626	-1.264064	-0.041501
N23	N	-0.427814	-1.262414	-0.041498
C24	C	-0.469609	-1.338536	-0.000052
N25	N	-0.439604	-1.416389	0.041382
N26	N	-0.370410	-1.418043	0.041376
C27	C	-0.329144	-1.341896	-0.000062
C28	C	-0.592928	-1.439211	-0.000047
C29	C	-0.665762	-1.437464	-0.000031
C30	C	-0.649895	-1.230588	-0.000019
C31	C	-0.577062	-1.232337	-0.000028
C32	C	-0.548583	-1.336652	-0.000046
C33	C	0.228240	-1.331305	-0.000035
C34	C	0.305755	-1.333159	-0.000024
N35	N	0.100629	-1.340198	-0.189753
C36	C	0.099672	-0.776051	-0.000057
C37	C	0.101566	-0.904408	-0.000046
C38	C	0.143238	-1.408881	-0.772027
C39	C	0.143245	-1.408869	-0.695382
C40	C	0.100615	-1.340250	-0.657066
C41	C	0.057988	-1.271616	-0.695401
C42	C	0.057987	-1.271621	-0.772044
N43	N	0.039439	-1.337501	-0.536736
N44	N	0.039441	-1.337502	-0.463928
C45	C	0.100615	-1.340228	-0.426144
N46	N	0.161787	-1.342974	-0.463917
N47	N	0.161784	-1.342979	-0.536732
C48	C	0.100611	-1.340236	-0.573959
C49	C	0.143250	-1.408839	-0.304711
C50	C	0.143259	-1.408819	-0.228065
C51	C	0.057995	-1.271572	-0.228084
C52	C	0.057993	-1.271586	-0.304729
C53	C	0.100620	-1.340225	-0.343038
N54	N	0.100614	-1.340260	0.189647
H55	H	-0.125667	-1.534787	-0.000097
Br56	Br	0.000146	-1.178432	-0.176092
H57	H	0.177963	-1.464724	-0.335903
Br58	Br	0.201131	-1.501924	-0.176049
Br59	Br	0.201086	-1.502020	-0.643357
H60	H	0.023281	-1.215713	-0.335934
H61	H	-0.229017	-1.156305	-0.000047
Br62	Br	-0.281875	-1.587297	-0.000083
H63	H	0.023280	-1.215743	-0.664199
Br64	Br	0.000137	-1.178484	-0.824061
H65	H	-0.096881	-1.159459	-0.000051
Br66	Br	-0.554273	-1.580776	-0.000079
H67	H	-0.701866	-1.520981	-0.000034
H68	H	-0.673089	-1.145661	-0.000010
Br69	Br	-0.516878	-1.093146	-0.000016
H70	H	0.177949	-1.464770	-0.803213
