data_functionalizedCrystal
_audit_creation_method	'MofGen! by Chris Wilmer'
_symmetry_space_group_name_H-M	'P1'
_symmetry_Int_Tables_number	1
_symmetry_cell_setting	triclinic
loop_
_symmetry_equiv_pos_as_xyz
  x,y,z
_cell_length_a	14.908571
_cell_length_b	16.625545
_cell_length_c	14.908308
_cell_angle_alpha	86.733823
_cell_angle_beta	89.824947
_cell_angle_gamma	86.721711
loop_
_atom_site_label
_atom_site_type_symbol
_atom_site_fract_x
_atom_site_fract_y
_atom_site_fract_z
Zn1	Zn	1.345254	-0.420777	0.587574
Zn2	Zn	1.678587	-0.087444	0.920907
Zn3	Zn	2.011920	0.245889	1.254241
Zn4	Zn	1.353821	-0.548312	0.437212
Zn5	Zn	1.687155	-0.214978	0.770545
Zn6	Zn	2.020488	0.118355	1.103878
Zn7	Zn	1.203571	-0.405290	0.428572
Zn8	Zn	1.536904	-0.071957	0.761905
Zn9	Zn	1.870237	0.261376	1.095239
Zn10	Zn	1.194849	-0.547354	0.578863
Zn11	Zn	1.528183	-0.214020	0.912197
Zn12	Zn	1.861516	0.119313	1.245530
O13	O	1.274374	-0.480433	0.508055
O14	O	1.607707	-0.147100	0.841389
O15	O	1.941040	0.186233	1.174722
O16	O	1.472216	-0.444577	0.574889
O17	O	1.805549	-0.111244	0.908223
O18	O	2.138882	0.222089	1.241556
O19	O	1.341126	-0.523259	0.310241
O20	O	1.674459	-0.189926	0.643574
O21	O	2.007793	0.143408	0.976908
O22	O	1.222429	-0.294517	0.449694
O23	O	1.555763	0.038816	0.783027
O24	O	1.889096	0.372150	1.116360
O25	O	1.478510	-0.538276	0.464419
O26	O	1.811844	-0.204943	0.797752
O27	O	2.145177	0.128390	1.131085
O28	O	1.326523	-0.305895	0.566512
O29	O	1.659857	0.027438	0.899845
O30	O	1.993190	0.360771	1.233178
O31	O	1.230737	-0.418182	0.303894
O32	O	1.564071	-0.084849	0.637227
O33	O	1.897404	0.248485	0.970560
O34	O	1.076588	-0.417253	0.441247
O35	O	1.409922	-0.083920	0.774581
O36	O	1.743255	0.249414	1.107914
O37	O	1.207565	-0.536644	0.705843
O38	O	1.540899	-0.203310	1.039177
O39	O	1.874232	0.130023	1.372510
O40	O	1.070181	-0.521626	0.551666
O41	O	1.403514	-0.188293	0.884999
O42	O	1.736848	0.145040	1.218333
O43	O	1.318067	-0.443648	0.712243
O44	O	1.651400	-0.110315	1.045576
O45	O	1.984733	0.223018	1.378910
O46	O	1.332669	-0.661012	0.455973
O47	O	1.666003	-0.327679	0.789306
O48	O	1.999336	0.005655	1.122639
O49	O	1.215873	-0.660308	0.560043
O50	O	1.549206	-0.326975	0.893377
O51	O	1.882540	0.006358	1.226710
C52	C	1.040760	-0.467656	0.494574
C53	C	1.374093	-0.134323	0.827908
C54	C	1.707426	0.199011	1.161241
C55	C	0.940817	-0.462210	0.488829
C56	C	1.274150	-0.128877	0.822162
C57	C	1.607484	0.204457	1.155495
C58	C	0.746400	-0.560813	0.592856
C59	C	1.079733	-0.227480	0.926189
C60	C	1.413066	0.105853	1.259522
C61	C	0.652495	-0.555699	0.587460
C62	C	0.985828	-0.222366	0.920793
C63	C	1.319161	0.110967	1.254127
C64	C	0.659100	-0.446864	0.472647
C65	C	0.992433	-0.113531	0.805980
C66	C	1.325767	0.219802	1.139314
C67	C	0.753005	-0.451979	0.478042
C68	C	1.086338	-0.118645	0.811376
C69	C	1.419672	0.214688	1.144709
C70	C	0.796652	-0.508956	0.538148
C71	C	1.129985	-0.175622	0.871481
C72	C	1.463318	0.157711	1.204815
C73	C	0.890559	-0.514073	0.543538
C74	C	1.223892	-0.180740	0.876872
C75	C	1.557225	0.152593	1.210205
C76	C	0.897162	-0.405235	0.428730
C77	C	1.230495	-0.071902	0.762064
C78	C	1.563828	0.261432	1.095397
C79	C	0.803257	-0.400121	0.423335
C80	C	1.136590	-0.066788	0.756668
C81	C	1.469923	0.266546	1.090001
C82	C	1.274278	-0.689917	0.508021
C83	C	1.607611	-0.356584	0.841355
C84	C	1.940944	-0.023251	1.174688
C85	C	1.274317	-0.779542	0.508042
C86	C	1.607651	-0.446208	0.841375
C87	C	1.940984	-0.112875	1.174708
C88	C	1.274351	-0.852327	0.508062
C89	C	1.607684	-0.518993	0.841395
C90	C	1.941018	-0.185660	1.174728
C91	C	1.274402	-0.943639	0.508084
C92	C	1.607736	-0.610306	0.841418
C93	C	1.941069	-0.276972	1.174751
C94	C	1.274448	-1.016419	0.508098
C95	C	1.607782	-0.683085	0.841432
C96	C	1.941115	-0.349752	1.174765
C97	C	1.274499	-1.107737	0.508120
C98	C	1.607832	-0.774403	0.841453
C99	C	1.941165	-0.441070	1.174787
C100	C	1.508900	-0.493261	0.521589
C101	C	1.842234	-0.159928	0.854923
C102	C	2.175567	0.173406	1.188256
C103	C	1.608841	-0.498728	0.527357
C104	C	1.942175	-0.165394	0.860690
C105	C	2.275508	0.167939	1.194023
C106	C	1.260888	-0.491767	0.742580
C107	C	1.594221	-0.158433	1.075914
C108	C	1.927554	0.174900	1.409247
C109	C	1.255140	-0.496596	0.842521
C110	C	1.588474	-0.163263	1.175854
C111	C	1.921807	0.170070	1.509188
C112	C	1.274494	-0.270133	0.508110
C113	C	1.607827	0.063200	0.841444
C114	C	1.941160	0.396533	1.174777
C115	C	1.274545	-0.180516	0.508134
C116	C	1.607878	0.152817	0.841467
C117	C	1.941211	0.486151	1.174801
C118	C	1.287859	-0.469089	0.274446
C119	C	1.621193	-0.135755	0.607779
C120	C	1.954526	0.197578	0.941112
C121	C	1.293781	-0.464041	0.174516
C122	C	1.627114	-0.130708	0.507849
C123	C	1.960447	0.202625	0.841182
C124	C	1.359404	-0.408817	1.036985
C125	C	1.692737	-0.075484	1.370319
C126	C	2.026070	0.257850	1.703652
C127	C	1.354007	-0.413352	1.130889
C128	C	1.687340	-0.080019	1.464222
C129	C	2.020673	0.253315	1.797555
C130	C	1.238945	-0.510197	1.124232
C131	C	1.572279	-0.176864	1.457566
C132	C	1.905612	0.156470	1.790899
C133	C	1.244342	-0.505662	1.030329
C134	C	1.577676	-0.172329	1.363662
C135	C	1.911009	0.161005	1.696996
C136	C	1.304575	-0.454971	0.986709
C137	C	1.637908	-0.121638	1.320042
C138	C	1.971241	0.211696	1.653376
C139	C	1.309976	-0.450441	0.892804
C140	C	1.643309	-0.117107	1.226138
C141	C	1.976642	0.216226	1.559471
C142	C	1.194910	-0.547281	0.886149
C143	C	1.528244	-0.213947	1.219483
C144	C	1.861577	0.119386	1.552816
C145	C	1.189513	-0.551816	0.980053
C146	C	1.522847	-0.218483	1.313386
C147	C	1.856180	0.114851	1.646719
H148	H	0.926094	-0.560468	0.592478
H149	H	1.259427	-0.227135	0.925811
H150	H	1.592761	0.106198	1.259145
C151	C	1.172673	-0.565931	1.172229
C152	C	1.506006	-0.232598	1.505563
C153	C	1.839340	0.100735	1.838896
N154	N	1.122750	-0.607905	1.208382
N155	N	1.456084	-0.274572	1.541715
N156	N	1.789417	0.058762	1.875048
H157	H	1.140472	-0.593085	1.015581
H158	H	1.473806	-0.259752	1.348914
H159	H	1.807139	0.073581	1.682248
C160	C	0.794413	-0.623491	0.658968
C161	C	1.127747	-0.290157	0.992301
C162	C	1.461080	0.043176	1.325635
N163	N	0.830575	-0.670700	0.708766
N164	N	1.163909	-0.337366	1.042099
N165	N	1.497242	-0.004033	1.375433
H166	H	1.398652	-0.375766	1.171820
H167	H	1.731985	-0.042433	1.505154
H168	H	2.065319	0.290900	1.838487
C169	C	1.376229	-0.394677	0.844824
C170	C	1.709562	-0.061344	1.178157
C171	C	2.042895	0.271990	1.511490
N172	N	1.426129	-0.352672	0.808687
N173	N	1.759463	-0.019338	1.142020
N174	N	2.092796	0.313995	1.475354
C175	C	0.611072	-0.384187	0.406545
C176	C	0.944405	-0.050854	0.739879
C177	C	1.277738	0.282480	1.073212
N178	N	0.574896	-0.336977	0.356758
N179	N	0.908229	-0.003643	0.690092
N180	N	1.241562	0.329690	1.023425
H181	H	1.150267	-0.584865	0.845204
H182	H	1.483600	-0.251532	1.178538
H183	H	1.816933	0.081802	1.511871
H184	H	0.611583	-0.597926	0.632011
H185	H	0.944916	-0.264592	0.965344
H186	H	1.278250	0.068741	1.298677
C187	C	1.425663	-0.353061	0.989002
C188	C	1.758996	-0.019728	1.322335
C189	C	2.092329	0.313605	1.655668
N190	N	1.475570	-0.311064	0.952862
N191	N	1.808903	0.022269	1.286195
N192	N	2.142237	0.355602	1.619528
H193	H	0.767707	-0.353730	0.374401
H194	H	1.101040	-0.020397	0.707734
H195	H	1.434373	0.312937	1.041068
H196	H	0.938087	-0.363010	0.384181
H197	H	1.271420	-0.029677	0.717515
H198	H	1.604754	0.303656	1.050848
