data_functionalizedCrystal
_audit_creation_method	'MofGen! by Chris Wilmer'
_symmetry_space_group_name_H-M	'P1'
_symmetry_Int_Tables_number	1
_symmetry_cell_setting	triclinic
loop_
_symmetry_equiv_pos_as_xyz
  x,y,z
_cell_length_a	19.805407
_cell_length_b	18.101395
_cell_length_c	19.805399
_cell_angle_alpha	89.974882
_cell_angle_beta	89.980427
_cell_angle_gamma	90.031104
loop_
_atom_site_label
_atom_site_type_symbol
_atom_site_fract_x
_atom_site_fract_y
_atom_site_fract_z
Zn1	Zn	1.034714	-0.294847	-0.382731
Zn2	Zn	1.284714	-0.044847	-0.132731
Zn3	Zn	1.534714	0.205153	0.117269
Zn4	Zn	1.784714	0.455153	0.367269
Zn5	Zn	1.034619	-0.418690	-0.269548
Zn6	Zn	1.284619	-0.168690	-0.019548
Zn7	Zn	1.534619	0.081310	0.230452
Zn8	Zn	1.784619	0.331310	0.480452
Zn9	Zn	0.921528	-0.294867	-0.269556
Zn10	Zn	1.171528	-0.044867	-0.019556
Zn11	Zn	1.421528	0.205133	0.230444
Zn12	Zn	1.671528	0.455133	0.480444
Zn13	Zn	0.921482	-0.418651	-0.382695
Zn14	Zn	1.171482	-0.168651	-0.132695
Zn15	Zn	1.421482	0.081349	0.117305
Zn16	Zn	1.671482	0.331349	0.367305
O17	O	0.978086	-0.356764	-0.326132
O18	O	1.228086	-0.106764	-0.076132
O19	O	1.478086	0.143236	0.173868
O20	O	1.728086	0.393236	0.423868
O21	O	1.129418	-0.311283	-0.367729
O22	O	1.379418	-0.061283	-0.117729
O23	O	1.629418	0.188717	0.132271
O24	O	1.879418	0.438717	0.382271
O25	O	1.019597	-0.402290	-0.174832
O26	O	1.269597	-0.152290	0.075168
O27	O	1.519597	0.097710	0.325168
O28	O	1.769597	0.347710	0.575168
O29	O	0.936601	-0.191232	-0.284587
O30	O	1.186601	0.058768	-0.034587
O31	O	1.436601	0.308768	0.215413
O32	O	1.686601	0.558768	0.465413
O33	O	1.129348	-0.402270	-0.284574
O34	O	1.379348	-0.152270	-0.034574
O35	O	1.629348	0.097730	0.215426
O36	O	1.879348	0.347730	0.465426
O37	O	1.019758	-0.191217	-0.367737
O38	O	1.269758	0.058783	-0.117737
O39	O	1.519758	0.308783	0.132263
O40	O	1.769758	0.558783	0.382263
O41	O	0.936510	-0.311318	-0.174838
O42	O	1.186510	-0.061318	0.075162
O43	O	1.436510	0.188682	0.325162
O44	O	1.686510	0.438682	0.575162
O45	O	0.826806	-0.311279	-0.284552
O46	O	1.076806	-0.061279	-0.034552
O47	O	1.326806	0.188721	0.215448
O48	O	1.576806	0.438721	0.465448
O49	O	0.936523	-0.402203	-0.477416
O50	O	1.186523	-0.152203	-0.227416
O51	O	1.436523	0.097797	0.022584
O52	O	1.686523	0.347797	0.272584
O53	O	0.826772	-0.402223	-0.367674
O54	O	1.076772	-0.152223	-0.117674
O55	O	1.326772	0.097777	0.132326
O56	O	1.576772	0.347777	0.382326
O57	O	1.019714	-0.311245	-0.477443
O58	O	1.269714	-0.061245	-0.227443
O59	O	1.519714	0.188755	0.022557
O60	O	1.769714	0.438755	0.272557
O61	O	1.019553	-0.522318	-0.284538
O62	O	1.269553	-0.272318	-0.034538
O63	O	1.519553	-0.022318	0.215462
O64	O	1.769553	0.227682	0.465462
O65	O	0.936432	-0.522289	-0.367667
O66	O	1.186432	-0.272289	-0.117667
O67	O	1.436432	-0.022289	0.132333
O68	O	1.686432	0.227711	0.382333
C69	C	0.802230	-0.356750	-0.326110
C70	C	1.052230	-0.106750	-0.076110
C71	C	1.302230	0.143250	0.173890
C72	C	1.552230	0.393250	0.423890
C73	C	0.726998	-0.356761	-0.326117
C74	C	0.976998	-0.106761	-0.076117
C75	C	1.226998	0.143239	0.173883
C76	C	1.476998	0.393239	0.423883
C77	C	0.977995	-0.549174	-0.326112
C78	C	1.227995	-0.299174	-0.076112
C79	C	1.477995	-0.049174	0.173888
C80	C	1.727995	0.200826	0.423888
C81	C	0.978018	-0.631489	-0.326127
C82	C	1.228018	-0.381489	-0.076127
C83	C	1.478018	-0.131489	0.173873
C84	C	1.728018	0.118511	0.423873
C85	C	0.691654	-0.404187	-0.369329
C86	C	0.941654	-0.154187	-0.119329
C87	C	1.191654	0.095813	0.130671
C88	C	1.441654	0.345813	0.380671
C89	C	0.620965	-0.404188	-0.369339
C90	C	0.870965	-0.154188	-0.119339
C91	C	1.120965	0.095812	0.130661
C92	C	1.370965	0.345812	0.380661
C93	C	0.585622	-0.356767	-0.326132
C94	C	0.835622	-0.106767	-0.076132
C95	C	1.085622	0.143233	0.173868
C96	C	1.335622	0.393233	0.423868
C97	C	0.620971	-0.309336	-0.282919
C98	C	0.870971	-0.059336	-0.032919
C99	C	1.120971	0.190664	0.217081
C100	C	1.370971	0.440664	0.467081
C101	C	0.691658	-0.309332	-0.282913
C102	C	0.941658	-0.059332	-0.032913
C103	C	1.191658	0.190668	0.217087
C104	C	1.441658	0.440668	0.467087
C105	C	0.335898	-0.309353	-0.282941
C106	C	0.585898	-0.059353	-0.032941
C107	C	0.835898	0.190647	0.217059
C108	C	1.085898	0.440647	0.467059
C109	C	0.265206	-0.309363	-0.282948
C110	C	0.515206	-0.059363	-0.032948
C111	C	0.765206	0.190637	0.217052
C112	C	1.015206	0.440637	0.467052
C113	C	0.265205	-0.404209	-0.369367
C114	C	0.515205	-0.154209	-0.119367
C115	C	0.765205	0.095791	0.130633
C116	C	1.015205	0.345791	0.380633
C117	C	0.335892	-0.404205	-0.369361
C118	C	0.585892	-0.154205	-0.119361
C119	C	0.835892	0.095795	0.130639
C120	C	1.085892	0.345795	0.380639
C121	C	0.371235	-0.356771	-0.326150
C122	C	0.621235	-0.106771	-0.076150
C123	C	0.871235	0.143229	0.173850
C124	C	1.121235	0.393229	0.423850
C125	C	0.447883	-0.356770	-0.326141
C126	C	0.697883	-0.106770	-0.076141
C127	C	0.947883	0.143230	0.173859
C128	C	1.197883	0.393230	0.423859
C129	C	0.508975	-0.356772	-0.326137
C130	C	0.758975	-0.106772	-0.076137
C131	C	1.008975	0.143228	0.173863
C132	C	1.258975	0.393228	0.423863
C133	C	0.978167	-0.930579	-0.326163
C134	C	1.228167	-0.680579	-0.076163
C135	C	1.478167	-0.430579	0.173837
C136	C	1.728167	-0.180579	0.423837
C137	C	0.925991	-0.899267	-0.378595
C138	C	1.175991	-0.649267	-0.128595
C139	C	1.425991	-0.399267	0.121405
C140	C	1.675991	-0.149267	0.371405
C141	C	0.925743	-0.813649	-0.378431
C142	C	1.175743	-0.563649	-0.128431
C143	C	1.425743	-0.313649	0.121569
C144	C	1.675743	-0.063649	0.371569
C145	C	0.978093	-0.782197	-0.326146
C146	C	1.228093	-0.532197	-0.076146
C147	C	1.478093	-0.282197	0.173854
C148	C	1.728093	-0.032197	0.423854
C149	C	0.958782	-0.813345	-0.254811
C150	C	1.208782	-0.563345	-0.004811
C151	C	1.458782	-0.313345	0.245189
C152	C	1.708782	-0.063345	0.495189
C153	C	0.958446	-0.898990	-0.255125
C154	C	1.208446	-0.648990	-0.005125
C155	C	1.458446	-0.398990	0.244875
C156	C	1.708446	-0.148990	0.494875
C157	C	1.049768	-0.898924	-0.344438
C158	C	1.299768	-0.648924	-0.094438
C159	C	1.549768	-0.398924	0.155562
C160	C	1.799768	-0.148924	0.405562
C161	C	1.049347	-0.813273	-0.346002
C162	C	1.299347	-0.563273	-0.096002
C163	C	1.549347	-0.313273	0.153998
C164	C	1.799347	-0.063273	0.403998
C165	C	0.978053	-0.698337	-0.326131
C166	C	1.228053	-0.448337	-0.076131
C167	C	1.478053	-0.198337	0.173869
C168	C	1.728053	0.051663	0.423869
C169	C	0.978206	-1.014439	-0.326173
C170	C	1.228206	-0.764439	-0.076173
C171	C	1.478206	-0.514439	0.173827
C172	C	1.728206	-0.264439	0.423827
C173	C	1.154629	-0.356779	-0.326155
C174	C	1.404629	-0.106779	-0.076155
C175	C	1.654629	0.143221	0.173845
C176	C	1.904629	0.393221	0.423845
C177	C	1.229861	-0.356785	-0.326164
C178	C	1.479861	-0.106785	-0.076164
C179	C	1.729861	0.143215	0.173836
C180	C	1.979861	0.393215	0.423836
C181	C	0.978124	-0.356717	-0.502675
C182	C	1.228124	-0.106717	-0.252675
C183	C	1.478124	0.143283	-0.002675
C184	C	1.728124	0.393283	0.247325
C185	C	0.978140	-0.356697	-0.577907
C186	C	1.228140	-0.106697	-0.327907
C187	C	1.478140	0.143303	-0.077907
C188	C	1.728140	0.393303	0.172093
C189	C	0.978195	-0.163602	-0.326167
C190	C	1.228195	0.086398	-0.076167
C191	C	1.478195	0.336398	0.173833
C192	C	1.728195	0.586398	0.423833
C193	C	0.978242	-0.081288	-0.326182
C194	C	1.228242	0.168712	-0.076182
C195	C	1.478242	0.418712	0.173818
C196	C	1.728242	0.668712	0.423818
C197	C	1.021458	-0.309333	-0.613266
C198	C	1.271458	-0.059333	-0.363266
C199	C	1.521458	0.190667	-0.113266
C200	C	1.771458	0.440667	0.136734
C201	C	1.021465	-0.309311	-0.683955
C202	C	1.271465	-0.059311	-0.433955
C203	C	1.521465	0.190689	-0.183955
C204	C	1.771465	0.440689	0.066045
C205	C	0.978157	-0.356659	-0.719283
C206	C	1.228157	-0.106659	-0.469283
C207	C	1.478157	0.143341	-0.219283
C208	C	1.728157	0.393341	0.030717
C209	C	0.934834	-0.404025	-0.683919
C210	C	1.184834	-0.154025	-0.433919
C211	C	1.434834	0.095975	-0.183919
C212	C	1.684834	0.345975	0.066081
C213	C	0.934824	-0.404042	-0.613231
C214	C	1.184824	-0.154042	-0.363231
C215	C	1.434824	0.095958	-0.113231
C216	C	1.684824	0.345958	0.136769
C217	C	0.934872	-0.403956	-0.968992
C218	C	1.184872	-0.153956	-0.718992
C219	C	1.434872	0.096044	-0.468992
C220	C	1.684872	0.346044	-0.218992
C221	C	0.934887	-0.403937	-1.039684
C222	C	1.184887	-0.153937	-0.789684
C223	C	1.434887	0.096063	-0.539684
C224	C	1.684887	0.346063	-0.289684
C225	C	1.021513	-0.309225	-1.039716
C226	C	1.271513	-0.059225	-0.789716
C227	C	1.521513	0.190775	-0.539716
C228	C	1.771513	0.440775	-0.289716
C229	C	1.021503	-0.309242	-0.969028
C230	C	1.271503	-0.059242	-0.719028
C231	C	1.521503	0.190758	-0.469028
C232	C	1.771503	0.440758	-0.219028
C233	C	0.978178	-0.356606	-0.933670
C234	C	1.228178	-0.106606	-0.683670
C235	C	1.478178	0.143394	-0.433670
C236	C	1.728178	0.393394	-0.183670
C237	C	0.978170	-0.356628	-0.857022
C238	C	1.228170	-0.106628	-0.607022
C239	C	1.478170	0.143372	-0.357022
C240	C	1.728170	0.393372	-0.107022
C241	C	0.978168	-0.356641	-0.795930
C242	C	1.228168	-0.106641	-0.545930
C243	C	1.478168	0.143359	-0.295930
C244	C	1.728168	0.393359	-0.045930
C245	C	0.978087	-0.356757	-0.150276
C246	C	1.228087	-0.106757	0.099724
C247	C	1.478087	0.143243	0.349724
C248	C	1.728087	0.393243	0.599724
C249	C	0.978202	-0.356568	-0.075045
C250	C	1.228202	-0.106568	0.174955
C251	C	1.478202	0.143432	0.424955
C252	C	1.728202	0.393432	0.674955
H253	H	0.720425	-0.442805	-0.404510
H254	H	0.970425	-0.192805	-0.154510
H255	H	1.220425	0.057195	0.095490
H256	H	1.470425	0.307195	0.345490
H257	H	0.899604	-0.442533	-0.940212
H258	H	1.149604	-0.192533	-0.690212
H259	H	1.399604	0.057467	-0.440212
H260	H	1.649604	0.307467	-0.190212
H261	H	1.056741	-0.270744	-0.712741
H262	H	1.306741	-0.020744	-0.462741
H263	H	1.556741	0.229256	-0.212741
H264	H	1.806741	0.479256	0.037259
H265	H	0.364665	-0.442822	-0.404542
H266	H	0.614665	-0.192822	-0.154542
H267	H	0.864665	0.057178	0.095458
H268	H	1.114665	0.307178	0.345458
H269	H	0.720435	-0.270709	-0.247729
H270	H	0.970435	-0.020709	0.002271
H271	H	1.220435	0.229291	0.252271
H272	H	1.470435	0.479291	0.502271
H273	H	0.899569	-0.442573	-0.712688
H274	H	1.149569	-0.192573	-0.462688
H275	H	1.399569	0.057427	-0.212688
H276	H	1.649569	0.307427	0.037312
H277	H	0.364665	-0.270735	-0.247751
H278	H	0.614665	-0.020735	0.002249
H279	H	0.864665	0.229265	0.252249
H280	H	1.114665	0.479265	0.502249
H281	H	0.995590	-0.792973	-0.214680
H282	H	1.245590	-0.542973	0.035320
H283	H	1.495590	-0.292973	0.285320
H284	H	1.745590	-0.042973	0.535320
H285	H	0.937825	-0.792587	-0.431325
H286	H	1.187825	-0.542587	-0.181325
H287	H	1.437825	-0.292587	0.068675
H288	H	1.687825	-0.042587	0.318675
H289	H	0.899543	-0.442604	-0.584443
H290	H	1.149543	-0.192604	-0.334443
H291	H	1.399543	0.057396	-0.084443
H292	H	1.649543	0.307396	0.165557
H293	H	0.236431	-0.270742	-0.247765
H294	H	0.486431	-0.020742	0.002235
H295	H	0.736431	0.229258	0.252235
H296	H	0.986431	0.479258	0.502235
H297	H	0.906997	-0.791960	-0.239053
H298	H	1.156997	-0.541960	0.010947
H299	H	1.406997	-0.291960	0.260947
H300	H	1.656997	-0.041960	0.510947
H301	H	0.592189	-0.270722	-0.247742
H302	H	0.842189	-0.020722	0.002258
H303	H	1.092189	0.229278	0.252258
H304	H	1.342189	0.479278	0.502258
H305	H	0.873241	-0.920853	-0.366642
H306	H	1.123241	-0.670853	-0.116642
H307	H	1.373241	-0.420853	0.133358
H308	H	1.623241	-0.170853	0.383358
H309	H	0.937953	-0.919817	-0.431660
H310	H	1.187953	-0.669817	-0.181660
H311	H	1.437953	-0.419817	0.068340
H312	H	1.687953	-0.169817	0.318340
H313	H	0.236420	-0.442829	-0.404554
H314	H	0.486420	-0.192829	-0.154554
H315	H	0.736420	0.057171	0.095446
H316	H	0.986420	0.307171	0.345446
H317	H	1.067374	-0.920474	-0.395569
H318	H	1.317374	-0.670474	-0.145569
H319	H	1.567374	-0.420474	0.104431
H320	H	1.817374	-0.170474	0.354431
H321	H	0.872670	-0.793225	-0.366326
H322	H	1.122670	-0.543225	-0.116326
H323	H	1.372670	-0.293225	0.133674
H324	H	1.622670	-0.043225	0.383674
H325	H	0.906106	-0.919033	-0.239644
H326	H	1.156106	-0.669033	0.010356
H327	H	1.406106	-0.419033	0.260356
H328	H	1.656106	-0.169033	0.510356
H329	H	1.063910	-0.792912	-0.398501
H330	H	1.313910	-0.542912	-0.148501
H331	H	1.563910	-0.292912	0.101499
H332	H	1.813910	-0.042912	0.351499
H333	H	0.994801	-0.919706	-0.214727
H334	H	1.244801	-0.669706	0.035273
H335	H	1.494801	-0.419706	0.285273
H336	H	1.744801	-0.169706	0.535273
H337	H	1.090278	-0.791859	-0.310597
H338	H	1.340278	-0.541859	-0.060597
H339	H	1.590278	-0.291859	0.189403
H340	H	1.840278	-0.041859	0.439403
H341	H	0.592192	-0.442808	-0.404525
H342	H	0.842192	-0.192808	-0.154525
H343	H	1.092192	0.057192	0.095475
H344	H	1.342192	0.307192	0.345475
H345	H	1.088641	-0.919172	-0.306250
H346	H	1.338641	-0.669172	-0.056250
H347	H	1.588641	-0.419172	0.193750
H348	H	1.838641	-0.169172	0.443750
H349	H	1.056727	-0.270779	-0.584508
H350	H	1.306727	-0.020779	-0.334508
H351	H	1.556727	0.229221	-0.084508
H352	H	1.806727	0.479221	0.165492
H353	H	1.056772	-0.270690	-0.940268
H354	H	1.306772	-0.020690	-0.690268
H355	H	1.556772	0.229310	-0.440268
H356	H	1.806772	0.479310	-0.190268
H357	H	1.056788	-0.270657	-1.068513
H358	H	1.306788	-0.020657	-0.818513
H359	H	1.556788	0.229343	-0.568513
H360	H	1.806788	0.479343	-0.318513
H361	H	0.899617	-0.442494	-1.068446
H362	H	1.149617	-0.192494	-0.818446
H363	H	1.399617	0.057506	-0.568446
H364	H	1.649617	0.307506	-0.318446
