data_functionalizedCrystal
_audit_creation_method	'MofGen! by Chris Wilmer'
_symmetry_space_group_name_H-M	'P1'
_symmetry_Int_Tables_number	1
_symmetry_cell_setting	triclinic
loop_
_symmetry_equiv_pos_as_xyz
  x,y,z
_cell_length_a	14.853567
_cell_length_b	17.699083
_cell_length_c	13.930277
_cell_angle_alpha	90.000549
_cell_angle_beta	90.008437
_cell_angle_gamma	96.541028
loop_
_atom_site_label
_atom_site_type_symbol
_atom_site_fract_x
_atom_site_fract_y
_atom_site_fract_z
O1	O	0.113993	-1.004375	-0.079688
O2	O	0.128826	-0.784035	-0.079719
O3	O	-0.009842	-0.900091	-0.079706
O4	O	0.252661	-0.888320	-0.079701
O5	O	-0.009821	-0.900074	0.079956
O6	O	0.128847	-0.784018	0.079943
O7	O	0.114015	-1.004358	0.079974
Zn8	Zn	0.121434	-0.894185	0.105308
Zn9	Zn	0.121406	-0.894208	-0.105053
O10	O	0.252682	-0.888303	0.079961
C11	C	0.128305	-0.755828	0.000108
C12	C	0.126711	-0.671806	0.000096
C13	C	-0.043418	-0.899549	0.000123
C14	C	-0.143496	-0.897951	0.000114
C15	C	0.114535	-1.032565	0.000145
C16	C	0.116130	-1.116587	0.000150
C17	C	-0.555751	-0.822255	0.000122
C18	C	-0.577539	-0.960131	0.000141
C19	C	-0.483511	-0.961634	0.000135
C20	C	-0.425598	-0.893446	0.000125
C21	C	-0.461714	-0.823756	0.000119
C22	C	-0.447389	-1.031324	0.000150
C23	C	-0.353355	-1.032829	0.000146
C24	C	-0.295441	-0.964641	0.000128
C25	C	-0.331561	-0.894947	0.000122
C26	C	-0.273648	-0.826759	0.000111
C27	C	-0.309767	-0.757065	0.000098
C28	C	-0.403799	-0.755567	0.000102
C29	C	-0.201409	-0.966139	0.000125
C30	C	-0.179611	-0.828260	0.000109
C31	C	0.286258	-0.888844	0.000130
C32	C	0.386336	-0.890443	0.000133
N33	N	0.121453	-0.894176	0.248874
C34	C	0.208106	-0.623396	0.000098
C35	C	0.206602	-0.544449	0.000110
C36	C	0.123703	-0.513913	0.000114
C37	C	0.042301	-0.562329	0.000116
C38	C	0.043806	-0.641275	0.000110
C39	C	0.036232	-0.243950	0.000139
C40	C	0.034734	-0.164999	0.000142
C41	C	0.199028	-0.147125	0.000139
C42	C	0.200533	-0.226070	0.000134
C43	C	0.119132	-0.274479	0.000140
C44	C	0.120763	-0.360083	0.000129
C45	C	0.122070	-0.428311	0.000119
N46	N	0.121381	-0.894224	-0.248619
C47	C	0.176000	-0.940176	0.701141
C48	C	0.066776	-0.848263	0.701115
C49	C	0.066790	-0.848251	0.600620
C50	C	0.121410	-0.894204	0.550380
C51	C	0.176014	-0.940168	0.600636
C52	C	0.012180	-0.802294	0.550356
C53	C	0.012191	-0.802281	0.449854
C54	C	0.066816	-0.848230	0.399613
C55	C	0.121424	-0.894196	0.449875
C56	C	0.176043	-0.940148	0.399635
C57	C	0.230656	-0.986110	0.449896
C58	C	0.230639	-0.986117	0.550395
C59	C	0.066833	-0.848223	0.299114
C60	C	0.176057	-0.940140	0.299130
H61	H	-0.262602	-0.701546	0.000096
C62	C	-0.053305	-0.297190	0.000139
H63	H	-0.102889	-0.267695	0.000132
H64	H	-0.056129	-0.328359	0.055816
H65	H	-0.056143	-0.328358	-0.055546
H66	H	-0.022475	-0.680690	0.000108
H67	H	-0.132463	-0.772732	0.000096
H68	H	-0.585163	-0.765511	0.000107
C69	C	-0.048889	-0.528745	0.000119
H70	H	-0.097149	-0.568886	0.000125
H71	H	-0.052899	-0.498320	-0.055557
H72	H	-0.052883	-0.498321	0.055805
H73	H	-0.032296	-0.764888	0.591269
C74	C	0.006715	-0.797704	0.756371
H75	H	-0.025802	-0.770327	0.712045
H76	H	0.043721	-0.762921	0.795587
H77	H	-0.034839	-0.828672	0.795565
C78	C	-0.443532	-0.678912	0.000101
H79	H	-0.507828	-0.687786	0.000117
H80	H	-0.423660	-0.650833	-0.055579
H81	H	-0.423632	-0.650832	0.055783
C82	C	-0.641240	-1.035132	0.000155
H83	H	-0.702415	-1.024256	0.000152
H84	H	-0.630295	-1.063700	0.055833
H85	H	-0.630320	-1.063706	-0.055529
C86	C	0.236136	-0.990692	0.243874
H87	H	0.268651	-1.018068	0.288203
H88	H	0.277678	-0.959721	0.204679
H89	H	0.199136	-1.025488	0.204661
H90	H	-0.032277	-0.764855	0.408941
C91	C	-0.056460	-0.131411	0.000156
H92	H	-0.104724	-0.171547	0.000168
H93	H	-0.060474	-0.100985	-0.055520
H94	H	-0.060443	-0.100986	0.055843
C95	C	0.006768	-0.797671	0.243832
H96	H	-0.025761	-0.770303	0.288146
H97	H	-0.034760	-0.828639	0.204606
H98	H	0.043777	-0.762868	0.204648
H99	H	0.275100	-1.023539	0.591326
H100	H	-0.494548	-1.086839	0.000168
H101	H	-0.323956	-1.089579	0.000156
H102	H	-0.172005	-1.022883	0.000142
H103	H	0.275612	-0.648252	0.000094
H104	H	0.272882	-0.505037	0.000110
H105	H	0.275123	-1.023528	0.408977
C106	C	0.236073	-0.990730	0.756417
H107	H	0.268607	-1.018091	0.712099
H108	H	0.199078	-1.025527	0.795612
H109	H	0.277611	-0.959754	0.795631
C110	C	0.291722	-0.259656	0.000134
H111	H	0.339984	-0.219517	0.000146
H112	H	0.295719	-0.290082	-0.055544
H113	H	0.295726	-0.290080	0.055819
C114	C	0.288572	-0.093876	0.000139
H115	H	0.338157	-0.123370	0.000123
H116	H	0.291416	-0.062707	0.055818
H117	H	0.291388	-0.062709	-0.055545
