data_functionalizedCrystal
_audit_creation_method	'MofGen! by Chris Wilmer'
_symmetry_space_group_name_H-M	'P1'
_symmetry_Int_Tables_number	1
_symmetry_cell_setting	triclinic
loop_
_symmetry_equiv_pos_as_xyz
  x,y,z
_cell_length_a	10.489711
_cell_length_b	10.489711
_cell_length_c	9.016244
_cell_angle_alpha	90.001499
_cell_angle_beta	89.991106
_cell_angle_gamma	84.527009
loop_
_atom_site_label
_atom_site_type_symbol
_atom_site_fract_x
_atom_site_fract_y
_atom_site_fract_z
O1	O	1.694062	0.179784	-0.123381
O2	O	1.322860	0.196717	-0.123371
O3	O	1.516928	0.002650	-0.123380
O4	O	1.499995	0.373852	-0.123371
O5	O	1.516899	0.002654	0.123301
O6	O	1.322831	0.196721	0.123310
O7	O	1.694034	0.179789	0.123300
Cu8	Cu	1.508430	0.188255	0.145829
Cu9	Cu	1.508464	0.188250	-0.145900
O10	O	1.499966	0.373856	0.123309
C11	C	1.275314	0.195448	-0.000029
C12	C	1.133683	0.191646	-0.000026
C13	C	0.951284	0.308352	-0.000040
C14	C	1.043450	0.250054	-0.121666
C15	C	1.043394	0.250027	0.121542
C16	C	0.973512	0.126510	-0.121784
C17	C	0.973447	0.126500	0.121533
C18	C	1.065585	0.068112	-0.000122
C19	C	1.515642	-0.044880	-0.000044
C20	C	1.511840	-0.186511	-0.000056
C21	C	1.628547	-0.368910	-0.000044
C22	C	1.570236	-0.276758	0.121583
C23	C	1.570233	-0.276786	-0.121625
C24	C	1.446692	-0.346696	0.121700
C25	C	1.446706	-0.346734	-0.121617
C26	C	1.388306	-0.254609	0.000039
C27	C	1.741580	0.181057	-0.000045
C28	C	1.883211	0.184859	-0.000058
C29	C	1.501251	0.421386	-0.000030
C30	C	1.505054	0.563017	-0.000027
N31	N	1.508416	0.188258	0.351015
N32	N	1.508488	0.188237	-0.351086
C33	C	1.404284	0.291723	0.586053
C34	C	1.404514	0.292111	0.414162
C35	C	1.641782	0.218540	0.413351
C36	C	1.641213	0.219272	0.585296
C37	C	1.480505	0.054173	0.585557
C38	C	1.477445	0.055042	0.413602
H39	H	1.074451	0.302309	-0.224485
C40	C	1.640808	-0.234907	0.260500
N41	N	1.693969	-0.203394	0.365131
H42	H	1.394470	-0.377498	0.224641
H43	H	1.730049	-0.418611	0.000073
H44	H	1.622520	-0.245834	-0.224450
C45	C	1.251065	-0.187750	0.000141
N46	N	1.147699	-0.137386	0.000228
H47	H	1.115054	-0.033485	-0.000185
H48	H	1.422502	0.391575	0.373017
H49	H	0.942418	0.074292	0.224362
H50	H	0.942720	0.074304	-0.224730
C51	C	1.270635	0.267519	0.357226
N52	N	1.169789	0.249004	0.314350
C53	C	1.376198	-0.388656	-0.260536
N54	N	1.323104	-0.420240	-0.365182
H55	H	1.721240	0.146935	0.626875
C56	C	1.269992	0.267511	0.642010
N57	N	1.168842	0.249279	0.684177
H58	H	1.666802	0.315244	0.370274
C59	C	1.085187	0.320646	0.260460
N60	N	1.116659	0.373845	0.365087
C61	C	1.428265	0.425336	0.644404
N62	N	1.446332	0.525972	0.688356
C63	C	1.674251	0.351417	0.639460
N64	N	1.699126	0.450955	0.680249
H65	H	1.721219	0.145224	0.372443
H66	H	1.548313	-0.025667	0.370623
C67	C	1.351870	0.015266	0.644200
N68	N	1.254976	-0.014024	0.688369
H69	H	1.379334	0.032089	0.372863
C70	C	1.583139	-0.049886	0.640481
N71	N	1.660445	-0.128254	0.681861
H72	H	0.901583	0.409855	-0.000159
