data_functionalizedCrystal
_audit_creation_method	'MofGen! by Chris Wilmer'
_symmetry_space_group_name_H-M	'P1'
_symmetry_Int_Tables_number	1
_symmetry_cell_setting	triclinic
loop_
_symmetry_equiv_pos_as_xyz
  x,y,z
_cell_length_a	14.519709
_cell_length_b	16.098538
_cell_length_c	14.519709
_cell_angle_alpha	87.273050
_cell_angle_beta	83.680145
_cell_angle_gamma	92.738106
loop_
_atom_site_label
_atom_site_type_symbol
_atom_site_fract_x
_atom_site_fract_y
_atom_site_fract_z
O1	O	1.227984	0.069149	0.116783
O2	O	0.959508	0.069175	0.131018
O3	O	1.100864	0.069154	-0.010338
O4	O	1.086628	0.069170	0.258138
O5	O	1.092606	-0.069358	-0.002113
O6	O	0.951251	-0.069337	0.139243
O7	O	1.219726	-0.069363	0.125008
Zn8	Zn	1.084178	-0.091341	0.133431
Zn9	Zn	1.095057	0.091154	0.122595
O10	O	1.078371	-0.069342	0.266363
C11	C	0.921020	-0.000078	0.134467
C12	C	0.818639	-0.000068	0.132478
N13	N	1.076759	-0.215889	0.140826
C14	C	0.443741	-0.000107	0.125161
C15	C	0.548050	-0.000096	0.127193
C16	C	0.631187	-0.000087	0.128819
C17	C	0.735502	-0.000077	0.130852
C18	C	1.136778	-0.259483	0.080851
C19	C	1.131598	-0.346672	0.086033
C20	C	1.066402	-0.390264	0.151195
C21	C	1.006376	-0.346664	0.211174
C22	C	1.011553	-0.259478	0.205987
C23	C	1.047634	-0.653512	0.169983
C24	C	1.042464	-0.740704	0.175168
C25	C	1.167684	-0.740706	0.050025
C26	C	1.172859	-0.653517	0.044847
C27	C	1.112831	-0.609925	0.104822
C28	C	1.061106	-0.479385	0.156496
C29	C	1.118122	-0.520806	0.099517
C30	C	1.258215	-0.000108	0.121559
C31	C	1.360596	-0.000112	0.123547
C32	C	1.096072	-0.000102	-0.040585
C33	C	1.094083	-0.000102	-0.142966
N34	N	1.102483	0.215702	0.115192
C35	C	1.086765	-0.000080	-0.517863
C36	C	1.088797	-0.000087	-0.413555
C37	C	1.090424	-0.000092	-0.330418
C38	C	1.092457	-0.000097	-0.226103
C39	C	1.083163	-0.000084	0.296610
C40	C	1.085152	-0.000078	0.398991
H41	H	1.180469	-0.382165	0.037195
H42	H	0.998758	-0.618025	0.218819
H43	H	0.953288	-0.382162	0.264228
O44	O	1.200169	-0.217085	0.017656
C45	C	1.260129	-0.166595	0.064132
H46	H	1.260304	-0.192856	0.138422
H47	H	1.235161	-0.100534	0.064992
C48	C	1.358902	-0.132955	-0.077859
C49	C	1.359123	-0.165212	0.013383
H50	H	1.419966	-0.132097	-0.109164
H51	H	1.318504	-0.166968	-0.109172
H52	H	1.338091	-0.077906	-0.077129
H53	H	1.379923	-0.220263	0.012653
H54	H	1.399527	-0.131208	0.044695
O55	O	1.181357	-0.478518	0.036081
C56	C	1.164959	-0.499874	-0.053969
H57	H	1.089699	-0.523846	-0.053147
H58	H	1.213017	-0.550491	-0.077921
C59	C	1.276226	-0.393006	-0.122099
C60	C	1.183788	-0.422441	-0.121091
H61	H	1.287844	-0.345243	-0.163505
H62	H	1.287277	-0.378619	-0.061432
H63	H	1.316263	-0.435193	-0.142057
H64	H	1.143752	-0.380257	-0.101123
H65	H	1.172731	-0.436818	-0.181757
H66	H	1.225947	-0.618026	-0.008213
O67	O	1.225890	-0.783181	-0.008194
C68	C	1.207360	-0.869482	0.010368
H69	H	1.133392	-0.881394	0.045384
H70	H	1.258165	-0.894210	0.058209
C71	C	1.309259	-0.899624	-0.124288
C72	C	1.218407	-0.914256	-0.081288
H73	H	1.316077	-0.927245	-0.180824
H74	H	1.321746	-0.841482	-0.136792
H75	H	1.351585	-0.920232	-0.084411
H76	H	1.176083	-0.893640	-0.121159
H77	H	1.205913	-0.972396	-0.068792
H78	H	0.989370	-0.776193	0.228235
H79	H	0.962678	-0.223984	0.254824
H80	H	1.008024	-0.514885	0.209554
