data_functionalizedCrystal
_audit_creation_method	'MofGen! by Chris Wilmer'
_symmetry_space_group_name_H-M	'P1'
_symmetry_Int_Tables_number	1
_symmetry_cell_setting	triclinic
loop_
_symmetry_equiv_pos_as_xyz
  x,y,z
_cell_length_a	10.654562
_cell_length_b	10.654550
_cell_length_c	9.730223
_cell_angle_alpha	90.000193
_cell_angle_beta	90.003039
_cell_angle_gamma	84.487503
loop_
_atom_site_label
_atom_site_type_symbol
_atom_site_fract_x
_atom_site_fract_y
_atom_site_fract_z
O1	O	-1.667825	-0.176469	-0.114377
O2	O	-1.302348	-0.193259	-0.114359
O3	O	-1.493489	-0.002125	-0.114363
O4	O	-1.476683	-0.367603	-0.114373
O5	O	-1.493487	-0.002130	0.114217
O6	O	-1.302346	-0.193264	0.114221
O7	O	-1.667822	-0.176474	0.114203
Zn8	Zn	-1.485084	-0.184870	0.150504
Zn9	Zn	-1.485087	-0.184863	-0.150660
O10	O	-1.476681	-0.367608	0.114207
C11	C	-1.255549	-0.192025	-0.000067
C12	C	-1.116107	-0.188327	-0.000060
C13	C	-1.492254	0.044671	-0.000075
C14	C	-1.488563	0.184114	-0.000079
C15	C	-1.714621	-0.177708	-0.000092
C16	C	-1.854064	-0.181406	-0.000108
C17	C	-1.050575	-0.186604	0.124528
C18	C	-0.919553	-0.183139	0.124505
C19	C	-0.919605	-0.183125	-0.124705
C20	C	-1.050626	-0.186581	-0.124681
C21	C	-1.116056	-0.188351	0.249149
C22	C	-1.050524	-0.186630	0.373747
C23	C	-0.919501	-0.183165	0.373724
C24	C	-0.854011	-0.181421	0.249103
C25	C	-1.477916	-0.414403	-0.000084
C26	C	-1.481608	-0.553847	-0.000088
N27	N	-1.485091	-0.184873	0.356040
C28	C	-1.601103	0.263595	-0.000081
C29	C	-1.597627	0.394615	-0.000090
C30	C	-1.369059	0.366662	-0.000091
C31	C	-1.372537	0.235644	-0.000092
C32	C	-1.717129	0.212064	-0.000068
C33	C	-1.829680	0.291546	-0.000068
C34	C	-1.826203	0.422567	-0.000077
C35	C	-1.710176	0.474106	-0.000087
N36	N	-1.485089	-0.184850	-0.356196
C37	C	-1.569750	-0.100268	0.427965
C38	C	-1.569747	-0.100253	0.571848
C39	C	-1.400421	-0.269459	0.571869
C40	C	-1.400419	-0.269467	0.427989
C41	C	-1.654422	-0.015674	0.356016
C42	C	-1.739089	0.068937	0.427940
C43	C	-1.739086	0.068952	0.571823
C44	C	-1.654415	-0.015644	0.643782
H45	H	-1.222740	-0.191176	0.249181
O46	O	-1.114322	-0.188378	0.494674
C47	C	-1.244021	-0.191774	0.467984
H48	H	-1.257089	-0.231935	0.360900
H49	H	-1.286362	-0.253958	0.547569
H50	H	-1.293490	-0.092179	0.473900
H51	H	-1.654411	-0.015616	0.760941
O52	O	-1.821240	0.151034	0.357834
C53	C	-1.803048	0.132927	0.215417
H54	H	-1.757034	0.033491	0.195760
H55	H	-1.898018	0.146083	0.160706
H56	H	-1.739384	0.204562	0.174624
H57	H	-1.103983	-0.187989	-0.226132
O58	O	-0.856191	-0.181397	-0.245877
C59	C	-0.942124	-0.183694	-0.355840
H60	H	-1.040360	-0.146459	-0.319300
H61	H	-0.911712	-0.121836	-0.442996
H62	H	-0.943787	-0.284642	-0.394145
H63	H	-0.747324	-0.178596	0.249094
H64	H	-1.719973	0.105382	-0.000056
H65	H	-1.924144	0.249574	-0.000094
O66	O	-1.935645	0.499597	-0.000023
C67	C	-2.038790	0.426013	-0.000050
H68	H	-2.007760	0.328523	0.043229
H69	H	-2.117710	0.473644	0.066314
H70	H	-2.074307	0.416372	-0.109709
O71	O	-1.706956	0.601400	-0.000288
C72	C	-1.768453	0.652827	-0.118696
H73	H	-1.837190	0.585483	-0.158161
H74	H	-1.822307	0.747354	-0.092083
H75	H	-1.695595	0.667229	-0.201592
H76	H	-1.280896	0.170928	-0.000089
O77	O	-1.318306	-0.351590	0.641979
C78	C	-1.336442	-0.333420	0.784394
H79	H	-1.435882	-0.287410	0.804032
H80	H	-1.323296	-0.428399	0.839085
H81	H	-1.264816	-0.269761	0.825228
O82	O	-1.821442	0.151188	0.641480
C83	C	-1.896146	0.225868	0.547117
H84	H	-1.898007	0.174351	0.444560
H85	H	-1.996274	0.244089	0.588682
H86	H	-1.854568	0.319551	0.531805
H87	H	-0.866150	-0.181753	0.475178
O88	O	-1.318141	-0.351776	0.358326
C89	C	-1.243396	-0.426426	0.452679
H90	H	-1.294893	-0.428326	0.555241
H91	H	-1.225104	-0.526548	0.411109
H92	H	-1.149751	-0.384772	0.467982
H93	H	-1.274595	0.408637	-0.000097
H94	H	-1.654435	-0.015682	0.238859
