data_functionalizedCrystal
_audit_creation_method	'MofGen! by Chris Wilmer'
_symmetry_space_group_name_H-M	'P1'
_symmetry_Int_Tables_number	1
_symmetry_cell_setting	triclinic
loop_
_symmetry_equiv_pos_as_xyz
  x,y,z
_cell_length_a	19.902436
_cell_length_b	23.196402
_cell_length_c	23.196401
_cell_angle_alpha	60.007472
_cell_angle_beta	90.009915
_cell_angle_gamma	60.003050
loop_
_atom_site_label
_atom_site_type_symbol
_atom_site_fract_x
_atom_site_fract_y
_atom_site_fract_z
Zr1	Zr	0.647243	0.631073	-0.075710
O2	O	0.539942	0.751331	-0.167749
O3	O	0.680134	0.510809	-0.047496
O4	O	0.680104	0.631078	-0.167765
O5	O	0.539998	0.631060	0.047391
O6	O	0.790670	0.631089	-0.167776
O7	O	0.539971	0.631062	-0.047480
O8	O	0.790723	0.415950	0.047363
O9	O	0.539945	0.846199	-0.167747
O10	O	0.776679	0.560286	-0.035470
O11	O	0.694185	0.560277	0.035340
O12	O	0.694150	0.701878	-0.106261
O13	O	0.611655	0.701868	-0.035451
Zr14	Zr	0.823625	0.631089	0.075581
Zr15	Zr	0.823583	0.631091	-0.075728
Zr16	Zr	0.647285	0.631071	0.075599
Zr17	Zr	0.647248	0.782378	-0.075707
Zr18	Zr	0.823620	0.479784	0.075579
O19	O	0.790734	0.751353	0.047368
O20	O	0.790674	0.751356	-0.167774
O21	O	0.540002	0.751327	0.047393
O22	O	0.930926	0.510831	0.167620
O23	O	0.930866	0.510834	-0.047521
O24	O	0.680194	0.510806	0.167646
O25	O	0.930870	0.631101	-0.047520
O26	O	0.790764	0.631084	0.167636
O27	O	0.680198	0.631073	0.167647
O28	O	0.930897	0.631100	0.047352
O29	O	0.680111	0.846213	-0.167761
O30	O	0.790757	0.415948	0.167633
O31	O	0.930923	0.415963	0.167619
O32	O	0.930890	0.415964	0.047348
O33	O	0.539978	0.846197	-0.047477
O34	O	0.680145	0.846212	-0.047491
O35	O	0.776718	0.560284	0.106133
O36	O	0.859213	0.560293	0.035323
O37	O	0.776683	0.701885	-0.035468
O38	O	0.694189	0.701876	0.035342
C39	C	0.735428	0.441822	-0.000067
C40	C	0.735426	0.377589	-0.000068
C41	C	0.674523	-0.032998	-0.052323
C42	C	0.674516	0.027359	-0.052323
C43	C	0.735441	0.005282	-0.000065
C44	C	0.796365	-0.077161	0.052208
C45	C	0.796366	-0.137516	0.052210
C46	C	0.809792	0.060869	0.016216
C47	C	0.809792	0.121225	0.016209
C48	C	0.735440	0.191435	-0.000067
C49	C	0.661082	0.201291	-0.016352
C50	C	0.661083	0.140937	-0.016349
C51	C	0.735447	0.070721	-0.000061
C52	C	0.674508	0.339314	-0.052333
C53	C	0.674501	0.399671	-0.052328
C54	C	0.796357	0.295148	0.052200
C55	C	0.796358	0.234794	0.052198
C56	C	0.735434	0.256883	-0.000072
C57	C	0.514860	0.631059	-0.000042
C58	C	0.439999	0.631051	-0.000034
C59	C	0.167951	0.631091	-0.000074
C60	C	0.248502	0.541772	0.044370
C61	C	0.326405	0.541716	0.044620
C62	C	0.302917	0.631071	-0.000054
C63	C	0.248808	0.675427	0.032519
C64	C	0.171246	0.674856	0.032844
C65	C	0.170076	0.676692	-0.077110
C66	C	0.248954	0.675014	-0.076988
C67	C	0.379192	0.631064	-0.000044
C68	C	0.091674	0.631101	-0.000082
C69	C	0.956008	0.631103	-0.000086
C70	C	1.030869	0.631111	-0.000094
C71	C	0.735381	0.631084	-0.189329
C72	C	0.735363	0.631085	-0.253563
C73	C	0.735440	0.820340	-0.000061
C74	C	0.735442	0.884573	-0.000060
C75	C	0.692288	0.704992	-0.320688
C76	C	0.692309	0.704993	-0.381044
C77	C	0.735394	0.631083	-0.374269
C78	C	0.778479	0.557166	-0.307132
C79	C	0.778463	0.557167	-0.246779
C80	C	0.729274	0.574453	-0.441587
C81	C	0.729283	0.574455	-0.501940
C82	C	0.735446	0.631077	-0.560417
C83	C	0.741583	0.687709	-0.558540
C84	C	0.741567	0.687710	-0.498187
C85	C	0.735416	0.631073	-0.439708
C86	C	0.692391	0.704990	-0.692989
C87	C	0.692418	0.704988	-0.753344
C88	C	0.778582	0.557159	-0.679430
C89	C	0.778561	0.557163	-0.619078
C90	C	0.735461	0.631081	-0.625862
C91	C	0.735487	0.631078	0.189200
C92	C	0.735505	0.631077	0.253435
C93	C	0.956002	0.441844	-0.000089
C94	C	1.030861	0.377619	-0.000098
C95	C	0.735481	0.441819	0.189197
C96	C	0.735497	0.377585	0.253431
C97	C	0.956055	0.441841	0.189175
C98	C	1.030931	0.377615	0.253401
C99	C	0.514813	0.820320	-0.189303
C100	C	0.439936	0.884547	-0.253530
C101	C	0.514866	0.820317	-0.000039
C102	C	0.440007	0.884543	-0.000031
C103	C	0.735387	0.820343	-0.189326
C104	C	0.735371	0.884576	-0.253559
C105	C	1.022933	0.347455	-0.037062
C106	C	1.093264	0.287117	-0.037084
C107	C	1.171522	0.256940	-0.000138
C108	C	1.179448	0.287111	0.036827
C109	C	1.109117	0.347452	0.036845
C110	C	0.778586	0.347424	0.320555
C111	C	0.778598	0.287078	0.380915
C112	C	0.735525	0.256890	0.374149
C113	C	0.692430	0.287057	0.307018
C114	C	0.692414	0.347406	0.246659
C115	C	1.109163	0.347459	0.246600
C116	C	1.179524	0.287120	0.306942
C117	C	1.171652	0.256934	0.374083
C118	C	1.093413	0.287097	0.380883
C119	C	1.023053	0.347439	0.320542
C120	C	0.361705	0.914710	-0.246729
C121	C	0.291344	0.975068	-0.307070
C122	C	0.299216	1.005257	-0.374212
C123	C	0.377455	0.975090	-0.381011
C124	C	0.447815	0.914738	-0.320670
C125	C	0.447934	0.914714	0.036927
C126	C	0.377603	0.975068	0.036932
C127	C	0.299346	1.005247	-0.000016
C128	C	0.291420	0.975073	-0.036978
C129	C	0.361750	0.914724	-0.036987
C130	C	0.778453	0.914745	-0.246771
C131	C	0.778454	0.975092	-0.307119
C132	C	0.735368	1.005272	-0.374256
C133	C	0.692285	0.975097	-0.381043
C134	C	0.692290	0.914748	-0.320695
H135	H	0.624899	0.357301	-0.094893
H136	H	0.870344	0.003700	0.029474
C137	C	0.735559	0.190497	0.440553
N138	N	0.735592	0.140485	0.490571
H139	H	0.657196	0.765182	-0.326219
C140	C	0.386101	1.008300	-0.454874
N141	N	0.392610	1.033309	-0.510509
C142	C	1.249059	0.190550	0.440453
N143	N	1.307364	0.140547	0.490441
H144	H	0.813538	0.890182	-0.192110
C145	C	0.645057	0.253837	0.299587
N146	N	0.609381	0.228810	0.293993
C147	C	0.221988	1.071630	0.000005
N148	N	0.163725	1.121627	0.000026
H149	H	0.657328	0.371956	0.192006
C150	C	0.825968	0.380624	0.328015
N151	N	0.861654	0.405631	0.333640
H152	H	1.243224	0.262568	0.301393
C153	C	0.353016	0.881533	-0.077636
N154	N	0.346432	0.856536	-0.108254
H155	H	0.813560	0.496988	-0.301620
C156	C	0.533868	0.881555	-0.328163
N157	N	0.598682	0.856563	-0.333812
C158	C	0.607501	0.118044	-0.109822
N159	N	0.557027	0.186347	-0.153132
C160	C	0.825846	1.008277	-0.299638
N161	N	0.861540	1.033270	-0.294000
C162	C	0.534011	0.881532	0.077572
N163	N	0.598843	0.856548	0.108184
H164	H	0.624912	-0.015006	-0.094884
C165	C	0.579293	0.151772	-0.034248
N166	N	0.517688	0.159932	-0.047723
H167	H	0.959219	0.372024	-0.067156
H168	H	1.086795	0.262559	-0.067185
H169	H	0.624890	0.466792	-0.094888
C170	C	1.248880	0.190557	-0.000159
N171	N	1.307143	0.140555	-0.000174
C172	C	0.748365	0.749996	-0.622861
N173	N	0.753473	0.796909	-0.671310
C174	C	0.644928	1.008276	-0.454900
N175	N	0.609268	1.033260	-0.510530
H176	H	1.243174	0.262532	0.066907
C177	C	1.117852	0.380618	0.077518
N178	N	1.124436	0.405595	0.108156
H179	H	0.959356	0.371984	0.326089
H180	H	0.384073	0.999625	0.067034
H181	H	0.227694	0.999654	-0.067060
H182	H	1.115588	0.372027	0.191936
C183	C	0.826016	0.253898	0.454753
N184	N	0.861735	0.228906	0.510366
H185	H	0.657297	0.765178	-0.698514
H186	H	0.813541	0.496981	-0.192121
C187	C	0.205288	1.008238	-0.299575
N188	N	0.140473	1.033220	-0.293928
C189	C	0.299423	0.633806	0.108379
N190	N	0.337548	0.602451	0.165518
H191	H	0.735371	1.054413	-0.423389
H192	H	1.087015	0.262511	0.435557
H193	H	0.600537	0.258460	-0.029607
H194	H	0.355280	0.890134	-0.192064
H195	H	0.657204	0.890191	-0.326232
C196	C	0.863374	0.270859	0.109687
N197	N	0.913852	0.252566	0.152988
C198	C	0.863390	0.144116	0.109679
N199	N	0.913884	0.075814	0.152975
C200	C	0.891586	0.110377	0.034120
N201	N	0.953196	0.102204	0.047612
C202	C	0.748329	0.749998	-0.496119
N203	N	0.753427	0.796910	-0.494561
C204	C	0.221809	1.071640	-0.440582
N205	N	0.163504	1.121636	-0.490570
H206	H	0.845970	-0.095132	0.094758
H207	H	0.845975	-0.204637	0.094770
H208	H	0.365785	0.506927	0.022761
H209	H	0.250190	0.506712	0.022635
H210	H	0.365514	0.506595	0.101453
C211	C	0.249710	0.494757	0.120762
N212	N	0.250681	0.459388	0.178330
H213	H	0.114204	0.740388	0.002565
C214	C	0.171532	0.632263	0.109429
N215	N	0.171753	0.600178	0.167114
C216	C	0.222101	0.764183	-0.009101
N217	N	0.201988	0.831034	-0.040450
C218	C	0.722528	0.512162	-0.504001
N219	N	0.717440	0.465240	-0.505551
H220	H	0.167078	0.648109	-0.104320
H221	H	0.230422	0.740203	-0.112888
C222	C	0.299365	0.631319	-0.109863
N223	N	0.337339	0.598405	-0.134622
H224	H	0.113298	0.742491	-0.110379
C225	C	0.825938	0.475858	-0.545235
N226	N	0.861626	0.414615	-0.489615
H227	H	0.657230	0.765179	-0.435707
H228	H	0.657344	0.765174	-0.808002
H229	H	0.724249	0.528346	-0.393977
H230	H	0.813664	0.496980	-0.673913
