data_functionalizedCrystal
_audit_creation_method	'MofGen! by Chris Wilmer'
_symmetry_space_group_name_H-M	'P1'
_symmetry_Int_Tables_number	1
_symmetry_cell_setting	triclinic
loop_
_symmetry_equiv_pos_as_xyz
  x,y,z
_cell_length_a	12.837943
_cell_length_b	10.654541
_cell_length_c	11.892095
_cell_angle_alpha	93.927124
_cell_angle_beta	85.689438
_cell_angle_gamma	89.656434
loop_
_atom_site_label
_atom_site_type_symbol
_atom_site_fract_x
_atom_site_fract_y
_atom_site_fract_z
O1	O	1.384375	0.319511	-0.093982
O2	O	1.082454	0.303370	-0.093989
O3	O	1.240357	0.129459	-0.093979
O4	O	1.226472	0.493422	-0.093993
O5	O	1.227191	0.143935	0.094028
O6	O	1.069288	0.317845	0.094017
O7	O	1.371209	0.333987	0.094024
Zn8	Zn	1.218158	0.328214	0.123871
Zn9	Zn	1.235505	0.309142	-0.123836
O10	O	1.213306	0.507897	0.094014
C11	C	1.037212	0.305155	0.000013
C12	C	0.922018	0.288892	0.000011
C13	C	0.682463	0.484397	0.000020
C14	C	0.574228	0.469123	0.000018
C15	C	0.597309	0.243071	0.000015
C16	C	0.705544	0.258345	0.000016
C17	C	0.748117	0.379012	0.000017
C18	C	0.856355	0.394285	0.000010
C19	C	0.879434	0.168234	0.000015
C20	C	0.771199	0.152960	0.000014
C21	C	1.232755	0.089788	0.000024
C22	C	1.229707	-0.049989	0.000022
C23	C	1.418522	-0.057354	0.000040
C24	C	1.511493	-0.126702	0.000052
C25	C	1.508622	-0.258033	0.000048
C26	C	1.412770	-0.320020	0.000030
C27	C	1.319799	-0.250672	0.000018
C28	C	1.322680	-0.119337	0.000025
C29	C	1.130987	-0.243308	-0.000008
C30	C	1.133855	-0.111975	0.000003
C31	C	1.035135	-0.305294	-0.000027
C32	C	0.942161	-0.235946	-0.000030
C33	C	0.945036	-0.104606	-0.000025
C34	C	1.040884	-0.042627	-0.000008
C35	C	1.416452	0.332202	0.000019
C36	C	1.531646	0.348464	0.000014
C37	C	1.220908	0.547569	0.000009
C38	C	1.223958	0.687344	0.000003
N39	N	1.206327	0.341231	0.292924
N40	N	1.247344	0.296117	-0.292889
C41	C	1.329669	0.205471	0.529580
C42	C	1.321407	0.214579	0.647922
C43	C	1.181537	0.368549	0.647950
C44	C	1.189799	0.359440	0.529609
C45	C	1.263869	0.277900	0.470428
C46	C	1.272135	0.268799	0.352085
C47	C	1.132260	0.422761	0.352116
C48	C	1.123998	0.431869	0.470457
H49	H	0.736519	0.054717	0.000026
Cl50	Cl	0.961979	0.035741	-0.000006
Cl51	Cl	1.409170	-0.485129	-0.000051
H52	H	1.374987	0.155598	0.696080
H53	H	1.389987	0.139087	0.481394
H54	H	1.589533	-0.076217	0.000077
Cl55	Cl	1.031531	-0.470403	-0.000103
Cl56	Cl	1.030884	0.534369	0.544864
H57	H	1.332449	0.202409	0.303900
Cl58	Cl	1.044505	0.122477	0.000006
H59	H	1.420868	0.049584	0.000059
Cl60	Cl	0.735989	0.636087	0.000005
H61	H	1.121224	0.434927	0.696151
Cl62	Cl	0.491693	0.601614	0.000025
H63	H	1.078684	0.481742	0.303941
Cl64	Cl	0.543768	0.091389	0.000029
H65	H	0.891016	0.492538	0.000013
H66	H	1.584328	-0.314497	0.000049
Cl67	Cl	0.821676	-0.313878	-0.000067
Cl68	Cl	0.828151	-0.017437	-0.000048
