data_functionalizedCrystal
_audit_creation_method	'MofGen! by Chris Wilmer'
_symmetry_space_group_name_H-M	'P1'
_symmetry_Int_Tables_number	1
_symmetry_cell_setting	triclinic
loop_
_symmetry_equiv_pos_as_xyz
  x,y,z
_cell_length_a	14.908571
_cell_length_b	12.594516
_cell_length_c	14.908308
_cell_angle_alpha	86.728502
_cell_angle_beta	89.824947
_cell_angle_gamma	86.712497
loop_
_atom_site_label
_atom_site_type_symbol
_atom_site_fract_x
_atom_site_fract_y
_atom_site_fract_z
Zn1	Zn	1.345329	-0.555460	0.587618
Zn2	Zn	1.353920	-0.723816	0.437269
Zn3	Zn	1.203643	-0.535016	0.428614
Zn4	Zn	1.194948	-0.722551	0.578920
O5	O	1.274460	-0.634211	0.508105
O6	O	1.472295	-0.586878	0.574935
O7	O	1.341220	-0.690745	0.310295
O8	O	1.222482	-0.388787	0.449724
O9	O	1.478607	-0.710568	0.464475
O10	O	1.326578	-0.403807	0.566543
O11	O	1.230812	-0.552034	0.303937
O12	O	1.076663	-0.550808	0.441291
O13	O	1.207662	-0.708413	0.705899
O14	O	1.070275	-0.688589	0.551720
O15	O	1.318147	-0.585652	0.712289
O16	O	1.332788	-0.872590	0.456041
O17	O	1.215992	-0.871661	0.560112
C18	C	1.040844	-0.617344	0.494623
C19	C	0.940900	-0.610155	0.488877
C20	C	0.746501	-0.740319	0.592914
C21	C	0.652595	-0.733568	0.587518
C22	C	0.659180	-0.589898	0.472693
C23	C	0.753086	-0.596649	0.478089
C24	C	0.796743	-0.671863	0.538201
C25	C	0.890651	-0.678619	0.543592
C26	C	0.897235	-0.534943	0.428772
C27	C	0.803329	-0.528192	0.423376
C28	C	1.274402	-0.910747	0.508093
C29	C	1.274457	-1.029058	0.508123
C30	C	1.210928	-1.097842	0.564684
C31	C	1.193759	-1.161862	0.481377
C32	C	1.291708	-1.175844	0.591449
C33	C	1.257247	-1.091515	0.424769
C34	C	1.355231	-1.105496	0.534899
C35	C	1.338096	-1.169483	0.451537
C36	C	1.508989	-0.651145	0.521641
C37	C	1.608931	-0.658361	0.527409
C38	C	1.260976	-0.649172	0.742631
C39	C	1.255230	-0.655547	0.842572
C40	C	1.274542	-0.356598	0.508138
C41	C	1.274577	-0.238296	0.508153
C42	C	1.287944	-0.619235	0.274494
C43	C	1.293864	-0.612572	0.174564
C44	C	1.359477	-0.539672	1.037028
C45	C	1.354081	-0.545658	1.130932
C46	C	1.239037	-0.673502	1.124285
C47	C	1.244433	-0.667515	1.030381
C48	C	1.304656	-0.600599	0.986756
C49	C	1.310057	-0.594618	0.892851
C50	C	1.195009	-0.722455	0.886206
C51	C	1.189612	-0.728442	0.980110
H52	H	0.926195	-0.739864	0.592536
C53	C	0.611711	-0.508385	0.407355
C54	C	0.561088	-0.560959	0.346530
C55	C	0.517348	-0.485896	0.286334
H56	H	0.573056	-0.461626	0.439639
H57	H	0.655042	-0.468571	0.375483
H58	H	0.517762	-0.600755	0.378398
H59	H	0.599721	-0.607712	0.314225
H60	H	0.560679	-0.446081	0.254462
H61	H	0.478698	-0.439141	0.318626
H62	H	0.483002	-0.521557	0.245052
H63	H	1.398720	-0.496042	1.171859
C64	C	1.173730	-0.746105	1.171827
C65	C	1.180748	-0.738311	1.264823
C66	C	1.120604	-0.805181	1.308647
H67	H	1.114166	-0.725248	1.153052
H68	H	1.187748	-0.817621	1.157255
H69	H	1.166724	-0.666810	1.279388
H70	H	1.240299	-0.759177	1.283623
H71	H	1.134622	-0.876697	1.294075
H72	H	1.061044	-0.784318	1.289866
H73	H	1.125364	-0.799909	1.371749
H74	H	0.782047	-0.801567	0.641854
C75	C	1.139105	-1.056098	0.628366
C76	C	1.093973	-1.141608	0.667397
C77	C	1.027795	-1.103193	0.726051
H78	H	1.166411	-1.019528	0.674123
H79	H	1.097508	-1.008615	0.595911
H80	H	1.135563	-1.189074	0.699851
H81	H	1.066647	-1.178187	0.621662
H82	H	0.986199	-1.055709	0.693596
H83	H	1.055110	-1.066622	0.771803
H84	H	0.997160	-1.161203	0.752534
C85	C	1.237599	-1.042737	0.330774
C86	C	1.153349	-1.071974	0.302844
C87	C	1.135222	-1.027069	0.216260
H88	H	1.237579	-0.967347	0.331233
H89	H	1.282468	-1.067852	0.290521
H90	H	1.108491	-1.046853	0.343087
H91	H	1.153347	-1.147355	0.302364
H92	H	1.180091	-1.052185	0.176007
H93	H	1.135207	-0.951682	0.216727
H94	H	1.078061	-1.046908	0.197295
C95	C	0.755882	-0.446701	0.358004
C96	C	0.705282	-0.499307	0.297181
C97	C	0.661573	-0.424273	0.236938
H98	H	0.717215	-0.399917	0.390252
H99	H	0.799229	-0.406909	0.326135
H100	H	0.661940	-0.539080	0.329046
H101	H	0.743927	-0.546085	0.264912
H102	H	0.704920	-0.384481	0.205069
H103	H	0.622912	-0.377493	0.269194
H104	H	0.627243	-0.459955	0.195658
H105	H	1.140579	-0.782921	1.015642
H106	H	0.611690	-0.789311	0.632073
H107	H	1.125505	-1.186887	0.458752
H108	H	1.391875	-1.200727	0.403659
H109	H	1.408518	-0.485191	1.001508
H110	H	1.306251	-1.212658	0.661905
H111	H	1.150372	-0.772070	0.845265
H112	H	1.359094	-0.540133	0.857333
H113	H	0.938152	-0.479203	0.384219
H114	H	1.423467	-1.080476	0.557562
