data_functionalizedCrystal
_audit_creation_method	'MofGen! by Chris Wilmer'
_symmetry_space_group_name_H-M	'P1'
_symmetry_Int_Tables_number	1
_symmetry_cell_setting	triclinic
loop_
_symmetry_equiv_pos_as_xyz
  x,y,z
_cell_length_a	14.971486
_cell_length_b	15.944551
_cell_length_c	14.048226
_cell_angle_alpha	89.992615
_cell_angle_beta	89.998499
_cell_angle_gamma	83.556434
loop_
_atom_site_label
_atom_site_type_symbol
_atom_site_fract_x
_atom_site_fract_y
_atom_site_fract_z
O1	O	1.186829	0.109463	-0.079053
O2	O	0.926415	0.122572	-0.079079
O3	O	1.063733	-0.006251	-0.079057
O4	O	1.049510	0.238286	-0.079076
O5	O	1.063717	-0.006258	0.079264
O6	O	0.926398	0.122564	0.079242
O7	O	1.186812	0.109456	0.079268
Zn8	Zn	1.056603	0.116009	0.104392
Zn9	Zn	1.056624	0.116019	-0.104203
O10	O	1.049494	0.238278	0.079246
C11	C	0.893082	0.121982	0.000078
C12	C	0.793787	0.120225	0.000068
C13	C	0.736480	0.195904	0.000064
C14	C	0.643182	0.194249	0.000078
C15	C	0.607194	0.116913	0.000090
C16	C	0.664508	0.041227	0.000097
C17	C	0.757804	0.042884	0.000090
C18	C	0.470049	0.037780	0.000111
C19	C	0.376747	0.036123	0.000116
C20	C	0.355428	0.189145	0.000099
C21	C	0.448724	0.190801	0.000092
C22	C	0.506032	0.115116	0.000097
C23	C	1.063134	-0.037549	0.000104
C24	C	1.061364	-0.130797	0.000104
C25	C	0.972017	-0.345738	0.000082
C26	C	1.013499	-0.406720	0.078148
C27	C	1.058162	-0.301526	0.000096
C28	C	1.013535	-0.406696	-0.077944
C29	C	1.055062	-0.466441	0.000085
C30	C	1.099667	-0.361279	0.078227
C31	C	1.099692	-0.361248	-0.077935
C32	C	1.141236	-0.422212	0.000150
C33	C	1.059945	-0.206522	0.000104
C34	C	1.053286	-0.561444	0.000084
C35	C	1.220145	0.110046	0.000109
C36	C	1.319440	0.111802	0.000112
C37	C	1.050093	0.269576	0.000083
C38	C	1.051863	0.362824	0.000076
N39	N	1.056594	0.116001	0.246753
N40	N	1.056640	0.116019	-0.246564
C41	C	1.117418	0.058982	0.296581
C42	C	1.117424	0.058982	0.396238
C43	C	1.056610	0.116005	0.446066
C44	C	0.995780	0.173027	0.396231
C45	C	0.995770	0.173022	0.296575
C46	C	0.995806	0.173033	0.603945
C47	C	0.995816	0.173038	0.703608
C48	C	1.117459	0.058992	0.703608
C49	C	1.117450	0.058988	0.603952
C50	C	1.056621	0.116011	0.554124
H51	H	0.308763	0.250771	0.000099
H52	H	1.166988	0.012562	0.744184
N53	N	0.627749	-0.037770	0.000130
N54	N	0.578072	-0.055768	0.066873
H55	H	0.552112	-0.111562	0.066895
N56	N	1.231006	-0.463746	0.000222
N57	N	1.244219	-0.542556	-0.000398
H58	H	1.307618	-0.571892	-0.000342
H59	H	1.166943	0.012551	0.256017
N60	N	0.967807	-0.431936	-0.160727
N61	N	0.887415	-0.404239	-0.174621
H62	H	0.855112	-0.422062	-0.233083
N63	N	0.882313	-0.304047	0.000173
N64	N	0.830171	-0.315956	0.067092
H65	H	0.766819	-0.286512	0.067160
N66	N	0.339972	-0.042867	0.000124
N67	N	0.290289	-0.060861	-0.066608
H68	H	0.264316	-0.116649	-0.066604
N69	N	0.528576	-0.039538	0.000129
N70	N	0.496435	-0.108584	0.000141
H71	H	0.537769	-0.163189	0.000152
N72	N	0.816332	-0.034429	0.000105
N73	N	0.784190	-0.103474	0.000120
H74	H	0.825525	-0.158080	0.000137
N75	N	0.967775	-0.431989	0.160930
N76	N	0.887381	-0.404303	0.174830
H77	H	0.855082	-0.422146	0.233292
H78	H	0.946259	0.219453	0.436807
N79	N	0.584640	0.271551	0.000097
N80	N	0.530219	0.287692	0.066850
H81	H	0.488875	0.342292	0.066873
H82	H	1.136066	-0.341257	0.144298
H83	H	1.136103	-0.341080	-0.143930
N84	N	1.179557	0.000729	0.447121
N85	N	1.233853	-0.050177	0.402621
H86	H	1.277736	-0.091322	0.438556
N87	N	0.933681	0.231281	0.754493
N88	N	0.879363	0.282178	0.709996
H89	H	0.835475	0.323310	0.745933
N90	N	1.179621	0.000780	0.553067
N91	N	1.233955	-0.050103	0.597565
H92	H	1.277879	-0.091200	0.561628
N93	N	0.933661	0.231282	0.553061
N94	N	0.879369	0.282194	0.597558
H95	H	0.835482	0.323335	0.561621
N96	N	0.933630	0.231268	0.245689
N97	N	0.879335	0.282178	0.290186
H98	H	0.835444	0.323314	0.254249
H99	H	0.765774	0.258881	0.000053
H100	H	0.478022	0.253775	0.000073
