data_functionalizedCrystal
_audit_creation_method	'MofGen! by Chris Wilmer'
_symmetry_space_group_name_H-M	'P1'
_symmetry_Int_Tables_number	1
_symmetry_cell_setting	triclinic
loop_
_symmetry_equiv_pos_as_xyz
  x,y,z
_cell_length_a	25.639242
_cell_length_b	25.639240
_cell_length_c	25.639233
_cell_angle_alpha	89.974071
_cell_angle_beta	89.985652
_cell_angle_gamma	90.025061
loop_
_atom_site_label
_atom_site_type_symbol
_atom_site_fract_x
_atom_site_fract_y
_atom_site_fract_z
Zn1	Zn	0.799247	-0.208322	-0.295607
Zn2	Zn	0.799179	-0.295741	-0.208160
Zn3	Zn	0.711823	-0.208309	-0.208183
Zn4	Zn	0.711777	-0.295716	-0.295562
O5	O	0.755506	-0.252022	-0.251878
O6	O	0.872403	-0.219933	-0.284016
O7	O	0.787582	-0.284148	-0.134998
O8	O	0.723467	-0.135146	-0.219808
O9	O	0.872353	-0.284160	-0.219770
O10	O	0.787697	-0.135155	-0.284038
O11	O	0.723402	-0.219912	-0.135015
O12	O	0.638652	-0.219889	-0.219765
O13	O	0.723389	-0.284118	-0.368733
O14	O	0.638618	-0.284106	-0.283962
O15	O	0.787653	-0.219910	-0.368766
O16	O	0.787538	-0.368903	-0.219726
O17	O	0.723324	-0.368885	-0.283940
C18	C	0.619664	-0.251994	-0.251861
C19	C	0.561550	-0.251994	-0.251866
C20	C	0.310390	-0.218639	-0.285392
C21	C	0.364994	-0.218634	-0.285389
O22	O	0.393260	-0.190251	-0.313891
N23	N	0.392276	-0.252016	-0.251884
C24	C	0.364950	-0.285409	-0.218383
O25	O	0.393169	-0.313803	-0.189885
C26	C	0.310347	-0.285417	-0.218389
C27	C	0.283068	-0.252028	-0.251893
C28	C	0.283112	-0.185254	-0.318894
C29	C	0.228511	-0.185258	-0.318896
C30	C	0.201189	-0.218648	-0.285397
C31	C	0.228468	-0.252033	-0.251895
C32	C	0.283022	-0.318812	-0.184892
C33	C	0.228415	-0.318817	-0.184901
C34	C	0.201136	-0.285429	-0.218405
C35	C	0.146545	-0.285427	-0.218398
N36	N	0.119264	-0.252045	-0.251904
C37	C	0.146586	-0.218655	-0.285403
C38	C	0.479621	-0.285392	-0.218374
C39	C	0.534223	-0.285382	-0.218365
C40	C	0.534264	-0.218607	-0.285372
C41	C	0.479660	-0.218614	-0.285378
C42	C	0.452339	-0.252010	-0.251879
C43	C	0.031921	-0.218667	-0.285404
C44	C	-0.022685	-0.218673	-0.285402
C45	C	-0.022721	-0.285450	-0.218397
C46	C	0.031880	-0.285442	-0.218398
C47	C	0.059199	-0.252049	-0.251905
O48	O	0.118245	-0.313797	-0.189913
O49	O	0.118360	-0.190271	-0.313902
C50	C	0.755432	-0.387865	-0.251837
C51	C	0.755449	-0.445979	-0.251837
C52	C	0.788967	-0.806308	-0.285383
C53	C	0.788983	-0.860912	-0.285394
O54	O	0.817394	-0.889120	-0.313874
N55	N	0.755579	-0.888261	-0.251929
C56	C	0.722154	-0.861003	-0.218455
O57	O	0.693742	-0.889279	-0.189991
C58	C	0.722136	-0.806399	-0.218447
C59	C	0.755546	-0.779053	-0.251911
C60	C	0.822374	-0.778962	-0.318844
C61	C	0.822359	-0.724361	-0.318833
C62	C	0.788938	-0.697107	-0.285360
C63	C	0.755531	-0.724453	-0.251899
C64	C	0.688708	-0.779142	-0.184976
C65	C	0.688693	-0.724535	-0.184972
C66	C	0.722103	-0.697189	-0.218435
C67	C	0.722094	-0.642598	-0.218415
N68	N	0.755498	-0.615249	-0.251880
C69	C	0.788920	-0.642504	-0.285353
C70	C	0.722193	-0.975673	-0.218474
C71	C	0.722213	-1.030276	-0.218478
C72	C	0.789041	-1.030181	-0.285418
C73	C	0.789024	-0.975578	-0.285411
C74	C	0.755597	-0.948324	-0.251939
C75	C	0.788887	-0.527838	-0.285326
C76	C	0.788870	-0.473233	-0.285310
C77	C	0.722040	-0.473332	-0.218372
C78	C	0.722058	-0.527933	-0.218386
C79	C	0.755483	-0.555185	-0.251867
O80	O	0.693697	-0.614355	-0.189951
O81	O	0.817322	-0.614221	-0.313816
C82	C	0.891879	-0.252051	-0.251895
C83	C	0.949993	-0.252063	-0.251903
C84	C	0.755523	-0.252013	-0.388251
C85	C	0.755530	-0.252009	-0.446365
C86	C	0.755595	-0.115649	-0.251931
C87	C	0.755632	-0.057535	-0.251953
C88	C	0.789035	-0.218476	-0.806751
C89	C	0.789041	-0.218462	-0.861356
O90	O	0.817486	-0.190013	-0.889612
N91	N	0.755588	-0.251886	-0.888648
C92	C	0.722122	-0.285324	-0.861333
O93	O	0.693668	-0.313752	-0.889561
C94	C	0.722114	-0.285335	-0.806730
C95	C	0.755573	-0.251912	-0.779440
C96	C	0.822491	-0.185056	-0.779462
C97	C	0.822485	-0.185071	-0.724861
C98	C	0.789023	-0.218507	-0.697550
C99	C	0.755567	-0.251927	-0.724840
C100	C	0.688646	-0.318770	-0.779416
C101	C	0.688640	-0.318778	-0.724809
C102	C	0.722099	-0.285355	-0.697519
C103	C	0.722099	-0.285379	-0.642928
N104	N	0.755552	-0.251954	-0.615636
C105	C	0.789014	-0.218518	-0.642947
C106	C	0.722143	-0.285296	-0.976004
C107	C	0.722154	-0.285288	-1.030606
C108	C	0.789072	-0.218425	-1.030625
C109	C	0.789063	-0.218437	-0.976022
C110	C	0.755596	-0.251872	-0.948712
C111	C	0.789000	-0.218553	-0.528282
C112	C	0.788992	-0.218573	-0.473676
C113	C	0.722072	-0.285434	-0.473662
C114	C	0.722081	-0.285416	-0.528263
C115	C	0.755547	-0.251971	-0.555571
O116	O	0.693668	-0.313812	-0.614637
O117	O	0.817459	-0.190090	-0.614712
C118	C	0.755520	-0.251993	-0.116036
C119	C	0.755614	-0.251850	-0.057922
H120	H	0.556429	-0.312565	-0.191077
C121	C	0.825805	-1.060167	-0.322242
C122	C	0.866877	-1.097692	-0.299631
C123	C	0.903638	-1.127679	-0.336452
C124	C	0.899328	-1.120140	-0.395885
C125	C	0.858254	-1.082614	-0.418499
C126	C	0.821492	-1.052627	-0.381678
H127	H	0.870069	-1.103274	-0.255633
H128	H	0.934044	-1.155459	-0.319711
H129	H	0.926541	-1.142338	-0.423142
H130	H	0.855062	-1.077032	-0.462498
H131	H	0.791087	-1.024847	-0.398419
C132	C	-0.052783	-0.322179	-0.181552
C133	C	-0.090332	-0.299468	-0.140554
C134	C	-0.120396	-0.336201	-0.103712
C135	C	-0.112911	-0.395644	-0.107868
C136	C	-0.075360	-0.418358	-0.148868
C137	C	-0.045296	-0.381625	-0.185710
H138	H	-0.095874	-0.255462	-0.137476
H139	H	-0.148194	-0.319386	-0.073361
H140	H	-0.135166	-0.422836	-0.080596
H141	H	-0.069817	-0.462364	-0.151946
H142	H	-0.017498	-0.398440	-0.216061
H143	H	0.849563	-0.702100	-0.346083
H144	H	0.054091	-0.312625	-0.191112
H145	H	0.816078	-0.450970	-0.312560
C146	C	0.061966	-0.181931	-0.322259
C147	C	0.099508	-0.140842	-0.299681
C148	C	0.129552	-0.104103	-0.336532
C149	C	0.122055	-0.108452	-0.395961
C150	C	0.084511	-0.149542	-0.418542
C151	C	0.054467	-0.186282	-0.381691
H152	H	0.105059	-0.137621	-0.255685
H153	H	0.157345	-0.073685	-0.319815
H154	H	0.144295	-0.081255	-0.423240
H155	H	0.078959	-0.152764	-0.462538
H156	H	0.026674	-0.216700	-0.398408
C157	C	0.685294	-0.322192	-0.558293
C158	C	0.689538	-0.381631	-0.550777
C159	C	0.652753	-0.418407	-0.580807
C160	C	0.611725	-0.395743	-0.618351
C161	C	0.607480	-0.336301	-0.625868
C162	C	0.644264	-0.299525	-0.595839
H163	H	0.719911	-0.398411	-0.522983
H164	H	0.655896	-0.462411	-0.575242
H165	H	0.584495	-0.422967	-0.640581
H166	H	0.577106	-0.319521	-0.653663
H167	H	0.641121	-0.255521	-0.601404
C168	C	0.564326	-0.181882	-0.322226
C169	C	0.556847	-0.122437	-0.318082
C170	C	0.586912	-0.085715	-0.354933
C171	C	0.624456	-0.108438	-0.395929
C172	C	0.631937	-0.167886	-0.400076
C173	C	0.601872	-0.204608	-0.363224
H174	H	0.529053	-0.105614	-0.287732
H175	H	0.581374	-0.041708	-0.351864
H176	H	0.646712	-0.081254	-0.423209
H177	H	0.659731	-0.184709	-0.430425
H178	H	0.607410	-0.248615	-0.366294
C179	C	0.825771	-0.945500	-0.322224
C180	C	0.866826	-0.907944	-0.299606
C181	C	0.903574	-0.877869	-0.336422
C182	C	0.899268	-0.885350	-0.395856
C183	C	0.858211	-0.922908	-0.418477
C184	C	0.821463	-0.952983	-0.381661
H185	H	0.870015	-0.902404	-0.255607
H186	H	0.933967	-0.850066	-0.319676
H187	H	0.926471	-0.863087	-0.423109
H188	H	0.855022	-0.928447	-0.462476
H189	H	0.791071	-0.980785	-0.398407
C190	C	0.313158	-0.148519	-0.355746
C191	C	0.305661	-0.152871	-0.415175
C192	C	0.335702	-0.116129	-0.452027
C193	C	0.373240	-0.075036	-0.429450
C194	C	0.380739	-0.070683	-0.370018
C195	C	0.350698	-0.107424	-0.333166
H196	H	0.277872	-0.183292	-0.431891
H197	H	0.330151	-0.119352	-0.496023
H198	H	0.395479	-0.047838	-0.456730
H199	H	0.408529	-0.040262	-0.353302
H200	H	0.356249	-0.104201	-0.289170
C201	C	0.449570	-0.322123	-0.181516
C202	C	0.457065	-0.317762	-0.122087
C203	C	0.427018	-0.354493	-0.085231
C204	C	0.389476	-0.395586	-0.107802
C205	C	0.381980	-0.399949	-0.167234
C206	C	0.412027	-0.363218	-0.204091
H207	H	0.484857	-0.287341	-0.105376
H208	H	0.432567	-0.351263	-0.041235
H209	H	0.367234	-0.422777	-0.080519
H210	H	0.354188	-0.430370	-0.183946
H211	H	0.406478	-0.366448	-0.248086
C212	C	0.198362	-0.355551	-0.148049
C213	C	0.205855	-0.351197	-0.088620
C214	C	0.175804	-0.387929	-0.051767
C215	C	0.138259	-0.429016	-0.074345
C216	C	0.130764	-0.433372	-0.133777
C217	C	0.160816	-0.396640	-0.170629
H218	H	0.233650	-0.320780	-0.071904
H219	H	0.181352	-0.384704	-0.007772
H220	H	0.116013	-0.456207	-0.047064
H221	H	0.102970	-0.463789	-0.150493
H222	H	0.155268	-0.399865	-0.214625
H223	H	0.694857	-0.550199	-0.191133
C224	C	0.685352	-0.322056	-1.060623
C225	C	0.644321	-0.299383	-1.098159
C226	C	0.607516	-0.336149	-1.128175
C227	C	0.611741	-0.395589	-1.120654
C228	C	0.652774	-0.418266	-1.083116
C229	C	0.689579	-0.381500	-1.053101
H230	H	0.641192	-0.255379	-1.103728
H231	H	0.577141	-0.319362	-1.155963
H232	H	0.584496	-0.422806	-1.142873
H233	H	0.655903	-0.462270	-1.077548
H234	H	0.719954	-0.398287	-1.025313
C235	C	0.825865	-0.181668	-0.946006
C236	C	0.866896	-0.204336	-0.908466
C237	C	0.903699	-0.167564	-0.878454
C238	C	0.899471	-0.108125	-0.885981
C239	C	0.858439	-0.085454	-0.923523
C240	C	0.821636	-0.122226	-0.953535
H241	H	0.870027	-0.248339	-0.902892
H242	H	0.934074	-0.184347	-0.850663
H243	H	0.926715	-0.080905	-0.863764
H244	H	0.855308	-0.041451	-0.929096
H245	H	0.791261	-0.105443	-0.981326
C246	C	0.825656	-0.557811	-0.322152
C247	C	0.885094	-0.550256	-0.317933
C248	C	0.921866	-0.580228	-0.354756
C249	C	0.899201	-0.617755	-0.395797
C250	C	0.839761	-0.625311	-0.400017
C251	C	0.802989	-0.595339	-0.363194
H252	H	0.901874	-0.522475	-0.287551
H253	H	0.965867	-0.574635	-0.351631
H254	H	0.926422	-0.639942	-0.423055
H255	H	0.822981	-0.653091	-0.430399
H256	H	0.758987	-0.600932	-0.366318
H257	H	0.206306	-0.158072	-0.346181
H258	H	0.457454	-0.191426	-0.312659
C259	C	0.685464	-1.060352	-0.181664
C260	C	0.689769	-1.052874	-0.122230
C261	C	0.653016	-1.082948	-0.085417
C262	C	0.611959	-1.120499	-0.108039
C263	C	0.607653	-1.127978	-0.167476
C264	C	0.644406	-1.097905	-0.204289
H265	H	0.720163	-1.025075	-0.105481
H266	H	0.656204	-1.077411	-0.041417
H267	H	0.584753	-1.142762	-0.080788
H268	H	0.577259	-1.155778	-0.184225
H269	H	0.641218	-1.103442	-0.248289
H270	H	0.849590	-0.801147	-0.346105
H271	H	0.694830	-0.451133	-0.191117
H272	H	0.305223	-0.346001	-0.157609
H273	H	0.694974	-0.953486	-0.191213
H274	H	0.849730	-0.157853	-0.702647
H275	H	0.661503	-0.801398	-0.157726
H276	H	0.661471	-0.702348	-0.157715
C277	C	0.825878	-0.181640	-1.060673
C278	C	0.866914	-0.204295	-1.098215
C279	C	0.903718	-0.167512	-1.128264
C280	C	0.899487	-0.108076	-1.120771
C281	C	0.858449	-0.085418	-1.083227
C282	C	0.821645	-0.122201	-1.053178
H283	H	0.870048	-0.248296	-1.103764
H284	H	0.934097	-0.184285	-1.156057
H285	H	0.926732	-0.080847	-1.143015
H286	H	0.855316	-0.041417	-1.077679
H287	H	0.791267	-0.105428	-1.025386
C288	C	0.825814	-0.181768	-0.558316
C289	C	0.885247	-0.186056	-0.550808
C290	C	0.922064	-0.149274	-0.580842
C291	C	0.899449	-0.108205	-0.618384
C292	C	0.840014	-0.103915	-0.625893
C293	C	0.803196	-0.140696	-0.595859
H294	H	0.901991	-0.216460	-0.523016
H295	H	0.966062	-0.152450	-0.575283
H296	H	0.926703	-0.080977	-0.640617
H297	H	0.823270	-0.073511	-0.653685
H298	H	0.759198	-0.137521	-0.601418
H299	H	0.816241	-0.191355	-0.451460
C300	C	0.685331	-0.322085	-0.945966
C301	C	0.625898	-0.317807	-0.953477
C302	C	0.589086	-0.354594	-0.923443
C303	C	0.611707	-0.395659	-0.885900
C304	C	0.671143	-0.399939	-0.878388
C305	C	0.707955	-0.363151	-0.908421
H306	H	0.609150	-0.287407	-0.981270
H307	H	0.545087	-0.351426	-0.929004
H308	H	0.584456	-0.422892	-0.863667
H309	H	0.687891	-0.430339	-0.850594
H310	H	0.751953	-0.366319	-0.902860
H311	H	0.661380	-0.346000	-0.702576
H312	H	0.849740	-0.157825	-0.801693
C313	C	0.685268	-0.322210	-0.443608
C314	C	0.625833	-0.317929	-0.451099
C315	C	0.589027	-0.354702	-0.421041
C316	C	0.611657	-0.395758	-0.383492
C317	C	0.671095	-0.400041	-0.376000
C318	C	0.707901	-0.363267	-0.406058
H319	H	0.609079	-0.287535	-0.478896
H320	H	0.545027	-0.351531	-0.426588
H321	H	0.584411	-0.422980	-0.361242
H322	H	0.687849	-0.430434	-0.348203
H323	H	0.751901	-0.366439	-0.400511
H324	H	-0.044892	-0.191482	-0.312685
H325	H	0.661400	-0.345986	-0.801626
