data_functionalizedCrystal
_audit_creation_method	'MofGen! by Chris Wilmer'
_symmetry_space_group_name_H-M	'P1'
_symmetry_Int_Tables_number	1
_symmetry_cell_setting	triclinic
loop_
_symmetry_equiv_pos_as_xyz
  x,y,z
_cell_length_a	25.639242
_cell_length_b	25.639239
_cell_length_c	25.639234
_cell_angle_alpha	89.975416
_cell_angle_beta	89.973588
_cell_angle_gamma	90.033587
loop_
_atom_site_label
_atom_site_type_symbol
_atom_site_fract_x
_atom_site_fract_y
_atom_site_fract_z
Zn1	Zn	0.799250	-0.208255	-0.295734
Zn2	Zn	0.799166	-0.295683	-0.208298
Zn3	Zn	0.711819	-0.208256	-0.208299
Zn4	Zn	0.711771	-0.295654	-0.295689
O5	O	0.755502	-0.251962	-0.252005
O6	O	0.872404	-0.219865	-0.284154
O7	O	0.787564	-0.284098	-0.135133
O8	O	0.723472	-0.135090	-0.219917
O9	O	0.872342	-0.284098	-0.219915
O10	O	0.787707	-0.135090	-0.284155
O11	O	0.723390	-0.219865	-0.135134
O12	O	0.638647	-0.219837	-0.219873
O13	O	0.723391	-0.284048	-0.368860
O14	O	0.638613	-0.284048	-0.284078
O15	O	0.787661	-0.219837	-0.368893
O16	O	0.787518	-0.368844	-0.219872
O17	O	0.723309	-0.368823	-0.284078
C18	C	0.619659	-0.251940	-0.251971
C19	C	0.561545	-0.251943	-0.251969
C20	C	0.310361	-0.218471	-0.218631
C21	C	0.364965	-0.218467	-0.218625
O22	O	0.393210	-0.189977	-0.190250
N23	N	0.392271	-0.251950	-0.251995
C24	C	0.364970	-0.285436	-0.285378
O25	O	0.393210	-0.313915	-0.313762
C26	C	0.310367	-0.285437	-0.285387
C27	C	0.283063	-0.251956	-0.252011
C28	C	0.283058	-0.184992	-0.185258
C29	C	0.228457	-0.184998	-0.185264
C30	C	0.201160	-0.218483	-0.218644
C31	C	0.228463	-0.251962	-0.252017
C32	C	0.283066	-0.318921	-0.318773
C33	C	0.228459	-0.318919	-0.318779
C34	C	0.201156	-0.285438	-0.285403
C35	C	0.146565	-0.285452	-0.285402
N36	N	0.119259	-0.251969	-0.252032
C37	C	0.146557	-0.218485	-0.218652
C38	C	0.479640	-0.285429	-0.285358
C39	C	0.534243	-0.285430	-0.285347
C40	C	0.534234	-0.218460	-0.218594
C41	C	0.479631	-0.218462	-0.218602
C42	C	0.452335	-0.251946	-0.251987
C43	C	0.031891	-0.218499	-0.218667
C44	C	-0.022714	-0.218509	-0.218675
C45	C	-0.022701	-0.285477	-0.285430
C46	C	0.031900	-0.285469	-0.285421
C47	C	0.059195	-0.251976	-0.252038
O48	O	0.118286	-0.313926	-0.313764
O49	O	0.118310	-0.190006	-0.190278
C50	C	0.755414	-0.387805	-0.251981
C51	C	0.755424	-0.445919	-0.251989
C52	C	0.789022	-0.806280	-0.218630
C53	C	0.789042	-0.860885	-0.218637
O54	O	0.817518	-0.889120	-0.190249
N55	N	0.755593	-0.888201	-0.252040
C56	C	0.722126	-0.860910	-0.285441
O57	O	0.693677	-0.889159	-0.313854
C58	C	0.722109	-0.806307	-0.285437
C59	C	0.755556	-0.778993	-0.252028
C60	C	0.822467	-0.778967	-0.185225
C61	C	0.822446	-0.724366	-0.185217
C62	C	0.788980	-0.697079	-0.218615
C63	C	0.755535	-0.724393	-0.252021
C64	C	0.688644	-0.779017	-0.318840
C65	C	0.688630	-0.724410	-0.318833
C66	C	0.722077	-0.697097	-0.285425
C67	C	0.722048	-0.642505	-0.285411
N68	N	0.755497	-0.615189	-0.252008
C69	C	0.788963	-0.642476	-0.218610
C70	C	0.722165	-0.975581	-0.285449
C71	C	0.722179	-1.030183	-0.285452
C72	C	0.789097	-1.030154	-0.218648
C73	C	0.789080	-0.975550	-0.218644
C74	C	0.755614	-0.948264	-0.252047
C75	C	0.788916	-0.527811	-0.218597
C76	C	0.788890	-0.473205	-0.218591
C77	C	0.721975	-0.473240	-0.285396
C78	C	0.721998	-0.527840	-0.285400
C79	C	0.755473	-0.555125	-0.251999
O80	O	0.693588	-0.614235	-0.313786
O81	O	0.817412	-0.614220	-0.190208
C82	C	0.891875	-0.251985	-0.252040
C83	C	0.949989	-0.251994	-0.252054
C84	C	0.755530	-0.251939	-0.388378
C85	C	0.755542	-0.251929	-0.446492
C86	C	0.755604	-0.115589	-0.252041
C87	C	0.755648	-0.057475	-0.252056
C88	C	0.788971	-0.285332	-0.697678
C89	C	0.788965	-0.285343	-0.643074
O90	O	0.817364	-0.313801	-0.614830
N91	N	0.755553	-0.251904	-0.615766
C92	C	0.722141	-0.218455	-0.643066
O93	O	0.693720	-0.190014	-0.614825
C94	C	0.722144	-0.218447	-0.697669
C95	C	0.755562	-0.251885	-0.724974
C96	C	0.822386	-0.318767	-0.724983
C97	C	0.822392	-0.318756	-0.779583
C98	C	0.788983	-0.285309	-0.806879
C99	C	0.755568	-0.251873	-0.779575
C100	C	0.688729	-0.185002	-0.724968
C101	C	0.688735	-0.184997	-0.779575
C102	C	0.722153	-0.218435	-0.806880
C103	C	0.722165	-0.218414	-0.861471
N104	N	0.755578	-0.251854	-0.888778
C105	C	0.788986	-0.285301	-0.861483
C106	C	0.722136	-0.218475	-0.528395
C107	C	0.722135	-0.218480	-0.473793
C108	C	0.788959	-0.285368	-0.473804
C109	C	0.788962	-0.285361	-0.528408
C110	C	0.755548	-0.251914	-0.555703
C111	C	0.788997	-0.285273	-0.976148
C112	C	0.789002	-0.285257	-1.030753
C113	C	0.722176	-0.218370	-1.030737
C114	C	0.722173	-0.218385	-0.976136
C115	C	0.755585	-0.251840	-0.948843
O116	O	0.693780	-0.189972	-0.889749
O117	O	0.817397	-0.313742	-0.889730
C118	C	0.755503	-0.251947	-0.116163
C119	C	0.755593	-0.251810	-0.058049
H120	H	0.054108	-0.191224	-0.191486
H121	H	-0.044942	-0.191244	-0.191494
C122	C	0.859144	-0.355546	-0.809612
H123	H	0.879032	-0.375469	-0.785528
H124	H	0.881946	-0.335555	-0.830929
H125	H	0.839121	-0.378322	-0.830894
C126	C	0.825761	-0.322039	-1.060788
H127	H	0.820986	-0.317241	-1.097217
H128	H	0.818083	-0.357169	-1.051828
H129	H	0.860897	-0.314391	-1.051851
H130	H	0.694909	-0.953367	-0.312649
C131	C	0.825908	-1.060176	-0.181910
H132	H	0.821128	-1.096607	-0.186702
H133	H	0.818274	-1.051255	-0.146771
H134	H	0.861033	-1.051195	-0.189598
C135	C	-0.052735	-0.322305	-0.322147
H136	H	-0.089164	-0.317505	-0.317372
H137	H	-0.043813	-0.357425	-0.314437
H138	H	-0.043763	-0.314693	-0.357290
H139	H	0.849722	-0.801178	-0.158028
H140	H	0.816127	-0.450968	-0.191384
C141	C	0.685385	-0.181674	-0.558415
H142	H	0.665492	-0.161759	-0.534328
H143	H	0.662587	-0.201662	-0.579703
H144	H	0.705408	-0.158890	-0.579728
C145	C	0.198434	-0.355752	-0.355502
H146	H	0.162003	-0.350960	-0.350731
H147	H	0.207362	-0.390870	-0.347788
H148	H	0.207408	-0.348142	-0.390645
C149	C	0.685427	-0.181582	-1.060767
H150	H	0.665525	-0.161665	-1.036688
H151	H	0.662637	-0.201579	-1.082054
H152	H	0.705449	-0.158799	-1.082081
H153	H	0.816208	-0.312512	-0.953932
C154	C	0.564269	-0.181622	-0.181881
H155	H	0.600698	-0.186414	-0.186663
H156	H	0.555299	-0.189220	-0.146737
H157	H	0.555344	-0.146502	-0.189605
C158	C	0.825733	-0.557816	-0.181852
H159	H	0.845642	-0.533722	-0.161955
H160	H	0.848514	-0.579085	-0.201873
H161	H	0.805750	-0.579146	-0.159050
H162	H	0.694938	-1.052417	-0.312652
H163	H	0.816316	-0.953315	-0.191440
C164	C	0.061934	-0.322300	-0.322131
H165	H	0.037854	-0.342241	-0.342012
H166	H	0.083216	-0.345050	-0.302090
H167	H	0.083254	-0.302324	-0.344949
H168	H	0.661379	-0.702197	-0.346036
H169	H	0.661405	-0.801247	-0.346043
H170	H	0.305287	-0.346185	-0.345951
C171	C	0.685207	-0.557887	-0.322148
H172	H	0.665275	-0.533813	-0.342039
H173	H	0.662446	-0.579225	-0.302131
H174	H	0.705208	-0.579150	-0.344956
H175	H	0.661516	-0.157774	-0.702746
H176	H	0.661525	-0.157760	-0.801796
C177	C	0.859142	-0.355560	-0.694965
H178	H	0.879042	-0.375465	-0.719055
H179	H	0.839131	-0.378345	-0.673648
H180	H	0.881941	-0.335562	-0.673683
C181	C	0.685167	-0.443217	-0.322133
H182	H	0.689953	-0.406786	-0.317345
H183	H	0.650043	-0.452199	-0.314451
H184	H	0.692809	-0.452138	-0.357273
C185	C	0.825703	-0.322165	-0.443772
H186	H	0.820908	-0.317383	-0.407342
H187	H	0.860841	-0.314524	-0.452731
H188	H	0.818019	-0.357293	-0.452708
H189	H	0.694929	-0.191246	-0.451566
C190	C	0.825719	-0.322144	-0.558438
H191	H	0.845613	-0.342064	-0.534356
H192	H	0.848517	-0.302146	-0.579755
H193	H	0.805702	-0.344923	-0.579722
H194	H	0.206232	-0.157734	-0.158086
C195	C	0.313077	-0.148159	-0.148535
H196	H	0.288988	-0.128226	-0.128661
H197	H	0.334405	-0.125400	-0.168565
H198	H	0.334349	-0.168131	-0.125710
C199	C	0.449603	-0.181628	-0.181893
H200	H	0.473685	-0.161686	-0.162016
H201	H	0.428274	-0.201594	-0.159078
H202	H	0.428330	-0.158872	-0.201942
H203	H	0.694968	-0.191150	-0.953904
H204	H	0.457419	-0.312700	-0.312543
C205	C	0.564270	-0.322263	-0.322057
H206	H	0.540188	-0.342201	-0.341939
H207	H	0.585549	-0.345015	-0.302016
H208	H	0.585592	-0.302290	-0.344876
C209	C	0.859245	-0.694328	-0.148474
H210	H	0.879181	-0.718406	-0.128592
H211	H	0.839259	-0.673055	-0.125666
H212	H	0.882010	-0.672999	-0.168501
