data_functionalizedCrystal
_audit_creation_method	'MofGen! by Chris Wilmer'
_symmetry_space_group_name_H-M	'P1'
_symmetry_Int_Tables_number	1
_symmetry_cell_setting	triclinic
loop_
_symmetry_equiv_pos_as_xyz
  x,y,z
_cell_length_a	10.540514
_cell_length_b	9.616153
_cell_length_c	10.540539
_cell_angle_alpha	89.999906
_cell_angle_beta	95.479674
_cell_angle_gamma	90.007401
loop_
_atom_site_label
_atom_site_type_symbol
_atom_site_fract_x
_atom_site_fract_y
_atom_site_fract_z
O1	O	1.685911	0.115656	-0.178743
O2	O	1.316494	0.115654	-0.195632
O3	O	1.509630	0.115653	-0.002480
O4	O	1.492774	0.115657	-0.371895
O5	O	1.509604	-0.115638	-0.002484
O6	O	1.316467	-0.115637	-0.195636
O7	O	1.685884	-0.115635	-0.178747
Zn8	Zn	1.501171	-0.152359	-0.187192
Zn9	Zn	1.501206	0.152378	-0.187187
O10	O	1.492748	-0.115635	-0.371899
C11	C	1.269177	0.000008	-0.194374
C12	C	1.128227	0.000008	-0.190605
N13	N	1.501157	-0.360333	-0.187195
C14	C	1.057522	0.000012	-0.328745
C15	C	0.910908	0.000544	-0.324871
C16	C	0.935905	0.131837	-0.115476
C17	C	1.082444	0.131941	-0.120329
C18	C	1.082816	-0.131090	-0.118290
C19	C	0.935837	-0.132816	-0.116957
C20	C	1.397526	-0.580703	-0.290172
C21	C	1.397754	-0.419535	-0.290557
C22	C	1.633882	-0.418782	-0.217316
C23	C	1.633317	-0.580000	-0.218045
C24	C	1.473384	-0.580246	-0.053759
C25	C	1.470338	-0.419019	-0.054624
C26	C	1.733201	0.000013	-0.180004
C27	C	1.874151	0.000023	-0.183774
C28	C	1.508353	0.000010	0.044821
C29	C	1.504571	0.000018	0.185769
N30	N	1.501231	0.360352	-0.187174
C31	C	1.494025	0.000012	-0.419199
C32	C	1.497807	0.000013	-0.560147
C33	C	1.359652	0.000536	0.369182
C34	C	1.363486	0.000016	0.222564
C35	C	1.572452	-0.132061	0.247430
C36	C	1.567637	-0.132172	0.393974
C37	C	1.570537	0.130850	0.394497
C38	C	1.571836	0.132596	0.247515
H39	H	0.868234	-0.093924	-0.378589
H40	H	1.669103	-0.138164	0.441952
Cl41	Cl	0.872526	-0.283381	-0.194012
Cl42	Cl	1.273615	0.146771	0.413330
Cl43	Cl	1.500043	0.285409	0.443188
H44	H	1.712937	-0.380430	-0.144346
Cl45	Cl	0.898491	-0.145723	0.041829
Cl46	Cl	1.670916	-0.638038	-0.368323
H47	H	0.893309	0.230308	-0.162288
Cl48	Cl	1.499618	-0.283816	0.181658
H49	H	1.522168	0.230304	0.206654
Cl50	Cl	1.273696	-0.144449	0.416353
Cl51	Cl	1.156568	0.140622	0.036333
H52	H	1.517447	-0.230904	0.422167
H53	H	1.309676	-0.094822	0.180802
Cl54	Cl	1.579240	-0.356830	0.069398
H55	H	1.299136	-0.380021	-0.272435
H56	H	1.087760	0.094399	-0.383961
Cl57	Cl	1.672327	-0.356426	-0.365897
H58	H	1.130072	-0.132363	-0.016397
Cl59	Cl	1.244780	-0.640591	-0.262607
Cl60	Cl	0.846486	0.147293	-0.407444
Cl61	Cl	1.424816	-0.643195	-0.442135
Cl62	Cl	1.732416	-0.139651	0.212935
H63	H	1.114299	-0.231032	-0.164275
H64	H	1.110680	0.230851	-0.170209
H65	H	1.310072	0.094695	0.179958
H66	H	1.415653	-0.380955	-0.389540
H67	H	1.712960	-0.618988	-0.146049
H68	H	1.378646	-0.620984	-0.025088
H69	H	0.913591	0.136365	-0.011844
H70	H	1.372698	-0.380820	-0.031792
Cl71	Cl	1.102366	-0.145294	-0.415624
Cl72	Cl	1.590121	-0.639095	0.064602
H73	H	1.674699	0.140572	0.223303
Cl74	Cl	1.727868	0.132227	0.467426
