data_functionalizedCrystal
_audit_creation_method	'MofGen! by Chris Wilmer'
_symmetry_space_group_name_H-M	'P1'
_symmetry_Int_Tables_number	1
_symmetry_cell_setting	triclinic
loop_
_symmetry_equiv_pos_as_xyz
  x,y,z
_cell_length_a	29.839135
_cell_length_b	29.839131
_cell_length_c	13.032268
_cell_angle_alpha	82.866272
_cell_angle_beta	82.841219
_cell_angle_gamma	90.037758
loop_
_atom_site_label
_atom_site_type_symbol
_atom_site_fract_x
_atom_site_fract_y
_atom_site_fract_z
Zn1	Zn	0.654491	-0.211066	0.590842
Zn2	Zn	0.663970	-0.276659	0.416071
Zn3	Zn	0.588910	-0.201550	0.416113
Zn4	Zn	0.579335	-0.286167	0.590742
O5	O	0.621677	-0.243861	0.503442
O6	O	0.718614	-0.219770	0.567683
O7	O	0.661988	-0.258734	0.269852
O8	O	0.597650	-0.139948	0.439351
O9	O	0.725578	-0.267961	0.439279
O10	O	0.645832	-0.146940	0.567724
O11	O	0.606842	-0.203551	0.269883
O12	O	0.524774	-0.212771	0.439254
O13	O	0.581330	-0.284167	0.736980
O14	O	0.517739	-0.274939	0.567553
O15	O	0.636547	-0.228990	0.737054
O16	O	0.652703	-0.340784	0.439182
O17	O	0.590522	-0.347770	0.567512
C18	C	0.504956	-0.243855	0.503398
C19	C	0.455022	-0.243864	0.503403
C20	C	0.141742	-0.218816	0.570400
C21	C	-0.045933	-0.218821	0.570430
O22	O	-0.073287	-0.197511	0.627344
N23	N	-0.065768	-0.243863	0.503481
C24	C	-0.038680	-0.268903	0.436514
O25	O	-0.059856	-0.290200	0.379562
C26	C	0.148994	-0.268896	0.436480
C27	C	0.168825	-0.243856	0.503441
C28	C	0.161573	-0.193778	0.637356
C29	C	0.208489	-0.193779	0.637352
C30	C	0.235573	-0.218818	0.570392
C31	C	0.215741	-0.243857	0.503437
C32	C	0.176081	-0.293933	0.369509
C33	C	0.223002	-0.293928	0.369504
C34	C	0.242834	-0.268888	0.436466
C35	C	0.289741	-0.268897	0.436474
N36	N	0.309575	-0.243855	0.503423
C37	C	0.282491	-0.218816	0.570383
C38	C	-0.137212	-0.268906	0.436538
C39	C	-0.184130	-0.268909	0.436548
C40	C	-0.191380	-0.218826	0.570463
C41	C	-0.144461	-0.218826	0.570458
C42	C	-0.117377	-0.243864	0.503488
C43	C	0.381018	-0.218820	0.570370
C44	C	0.427938	-0.218825	0.570363
C45	C	0.435184	-0.268906	0.436444
C46	C	0.388268	-0.268903	0.436454
C47	C	0.361186	-0.243857	0.503421
O48	O	0.317123	-0.290192	0.379581
O49	O	0.303677	-0.197515	0.627309
C50	C	0.094826	-0.218815	0.570405
C51	C	0.074994	-0.243854	0.503449
C52	C	0.102078	-0.268893	0.436490
C53	C	0.028076	-0.243856	0.503459
C54	C	0.000992	-0.218817	0.570418
C55	C	0.020826	-0.193775	0.637368
C56	C	0.067742	-0.193776	0.637364
C57	C	0.082244	-0.293935	0.369540
C58	C	0.035328	-0.293932	0.369551
C59	C	0.008244	-0.268893	0.436510
C60	C	0.621613	-0.360578	0.503354
C61	C	0.621625	-0.410513	0.503351
C62	C	0.646753	-0.723772	0.570381
C63	C	0.646799	-0.911448	0.570444
O64	O	0.668100	-0.938784	0.627370
N65	N	0.621747	-0.931309	0.503558
C66	C	0.596679	-0.904248	0.436657
O67	O	0.575368	-0.925447	0.379776
C68	C	0.596631	-0.716572	0.436600
C69	C	0.621689	-0.696714	0.503483
C70	C	0.671808	-0.703913	0.637259
C71	C	0.671799	-0.656996	0.637239
C72	C	0.646734	-0.629939	0.570340
C73	C	0.621679	-0.649797	0.503462
C74	C	0.571562	-0.689512	0.369705
C75	C	0.571551	-0.642591	0.369699
C76	C	0.596608	-0.622732	0.436581
C77	C	0.596605	-0.575823	0.436544
N78	N	0.621657	-0.555962	0.503429
C79	C	0.646722	-0.583020	0.570328
C80	C	0.596706	-1.002780	0.436690
C81	C	0.596719	-1.049698	0.436703
C82	C	0.646838	-1.056896	0.570491
C83	C	0.646828	-1.009976	0.570473
C84	C	0.621759	-0.982919	0.503576
C85	C	0.646700	-0.484492	0.570279
C86	C	0.646689	-0.437570	0.570250
C87	C	0.596569	-0.430377	0.436466
C88	C	0.596581	-0.477294	0.436491
C89	C	0.621647	-0.504351	0.503406
O90	O	0.575310	-0.548461	0.379656
O91	O	0.668022	-0.561813	0.627217
C92	C	0.646763	-0.770688	0.570401
C93	C	0.621708	-0.790547	0.503524
C94	C	0.596643	-0.763489	0.436625
C95	C	0.621721	-0.837466	0.503536
C96	C	0.646785	-0.864523	0.570435
C97	C	0.671837	-0.844663	0.637320
C98	C	0.671828	-0.797746	0.637300
C99	C	0.571591	-0.783350	0.369740
C100	C	0.571603	-0.830267	0.369765
C101	C	0.596668	-0.857325	0.436663
C102	C	0.738852	-0.243867	0.503488
C103	C	0.788786	-0.243869	0.503507
C104	C	0.606813	-0.258701	0.775992
C105	C	0.600479	-0.265025	0.892136
C106	C	0.621752	-0.126688	0.503554
C107	C	0.621783	-0.076756	0.503601
C108	C	0.636508	-0.229046	0.231953
C109	C	0.642929	-0.222595	0.115809
C110	C	0.624975	-0.240544	0.943953
C111	C	0.618430	-0.247079	1.063995
H112	H	0.358973	-0.198424	0.624897
O113	O	0.670974	-0.418309	0.635376
C114	C	0.683036	-0.413595	0.813165
C115	C	0.655496	-0.435433	0.739531
H116	H	0.670539	-0.427439	0.897389
H117	H	0.678720	-0.375413	0.801755
H118	H	0.720266	-0.421791	0.794849
H119	H	0.618256	-0.427272	0.757801
H120	H	0.659850	-0.473610	0.750955
H121	H	0.574658	-0.290819	0.936643
O122	O	0.673720	-0.191841	1.062567
C123	C	0.708273	-0.157244	0.894378
C124	C	0.673401	-0.192099	0.954543
H125	H	0.708021	-0.157434	0.807030
H126	H	0.743353	-0.166277	0.915688
H127	H	0.699239	-0.122190	0.915885
H128	H	0.682393	-0.227165	0.933069
H129	H	0.638331	-0.183027	0.933228
H130	H	-0.128318	-0.198435	0.624982
O131	O	-0.005435	-0.169386	0.702362
C132	C	-0.022550	-0.095779	0.753382
C133	C	0.007232	-0.123346	0.679738
H134	H	-0.012326	-0.058549	0.735103
H135	H	-0.017911	-0.108271	0.837623
H136	H	-0.059487	-0.100107	0.741893
H137	H	0.044180	-0.119030	0.691134
H138	H	0.002555	-0.110847	0.595524
O139	O	0.087017	-0.169520	0.702517
C140	C	0.132325	-0.171241	0.843588
C141	C	0.110516	-0.198769	0.769881
H142	H	0.151337	-0.194876	0.898056
H143	H	0.104918	-0.153359	0.891515
H144	H	0.156892	-0.145099	0.795701
H145	H	0.085953	-0.224933	0.817687
H146	H	0.137948	-0.216619	0.721950
O147	O	0.135255	-0.169399	0.702261
C148	C	0.081525	-0.109554	0.716652
C149	C	0.111312	-0.137119	0.643014
H150	H	0.062152	-0.083455	0.668782
H151	H	0.103746	-0.091626	0.764480
H152	H	0.056599	-0.133199	0.771225
H153	H	0.136242	-0.113505	0.588378
H154	H	0.089062	-0.155051	0.595259
O155	O	0.587688	-0.277910	1.117122
C156	C	0.574927	-0.345215	1.240457
C157	C	0.609788	-0.310337	1.180338
H158	H	0.592780	-0.371436	1.291597
H159	H	0.557508	-0.362667	1.182818
H160	H	0.548676	-0.327341	1.291518
H161	H	0.636067	-0.328176	1.129274
H162	H	0.627172	-0.292887	1.238033
H163	H	-0.213440	-0.198438	0.624984
H164	H	0.224631	-0.173388	0.691877
H165	H	0.104291	-0.314325	0.315011
H166	H	-0.200273	-0.289305	0.382033
H167	H	0.444082	-0.198434	0.624894
H168	H	-0.115164	-0.289297	0.382000
H169	H	0.159943	-0.314323	0.314980
H170	H	0.692248	-0.866701	0.691788
O171	O	0.249243	-0.318294	0.304418
C172	C	0.251481	-0.367946	0.171547
C173	C	0.221711	-0.340379	0.245214
H174	H	0.229234	-0.385802	0.123646
H175	H	0.270814	-0.394104	0.219359
H176	H	0.276441	-0.344311	0.117044
H177	H	0.196726	-0.363979	0.299731
H178	H	0.202410	-0.314216	0.197337
H179	H	0.372120	-0.289299	0.381941
O180	O	0.671081	-0.510810	0.635134
C181	C	0.730995	-0.564465	0.649363
C182	C	0.703409	-0.534692	0.575804
H183	H	0.757145	-0.583774	0.601424
H184	H	0.707408	-0.589438	0.703957
H185	H	0.748876	-0.542196	0.697173
H186	H	0.685525	-0.556925	0.527927
H187	H	0.727018	-0.509715	0.521279
O188	O	0.696081	-0.637739	0.702366
C189	C	0.708142	-0.633039	0.880162
C190	C	0.680601	-0.654869	0.806517
H191	H	0.695643	-0.646888	0.964382
H192	H	0.703827	-0.594856	0.868766
H193	H	0.745371	-0.641237	0.861845
H194	H	0.643362	-0.646707	0.824788
H195	H	0.684954	-0.693047	0.817927
O196	O	0.461473	-0.293298	0.371515
C197	C	0.478554	-0.366894	0.320390
C198	C	0.448755	-0.339329	0.394007
H199	H	0.468276	-0.404114	0.338534
H200	H	0.515497	-0.362628	0.331899
H201	H	0.473927	-0.354339	0.236175
H202	H	0.453343	-0.351867	0.478250
H203	H	0.411823	-0.343596	0.382408
H204	H	0.692232	-0.781581	0.691762
H205	H	0.692219	-0.725939	0.691742
H206	H	0.576292	-0.980753	0.382212
O207	O	0.016141	-0.318268	0.304402
C208	C	0.028296	-0.367957	0.171606
C209	C	0.050081	-0.340415	0.245321
H210	H	0.055725	-0.385877	0.123836
H211	H	0.009332	-0.344341	0.116992
H212	H	0.003693	-0.394070	0.219479
H213	H	0.074703	-0.314300	0.197532
H214	H	0.069016	-0.364059	0.299938
H215	H	0.667231	-0.993811	0.624935
H216	H	0.576320	-1.065862	0.382229
O217	O	0.671114	-1.083211	0.635593
C218	C	0.669414	-1.143851	0.776651
C219	C	0.641872	-1.114072	0.703003
H220	H	0.645785	-1.168816	0.831155
H221	H	0.687306	-1.121627	0.824541
H222	H	0.695551	-1.163178	0.728719
H223	H	0.615713	-1.094740	0.750853
H224	H	0.624012	-1.136320	0.655109
O225	O	0.547177	-0.708724	0.304705
C226	C	0.497477	-0.696612	0.171982
C227	C	0.525067	-0.674798	0.245561
H228	H	0.479601	-0.669192	0.124129
H229	H	0.471333	-0.721180	0.219862
H230	H	0.521103	-0.715615	0.117431
H231	H	0.501477	-0.655771	0.300126
H232	H	0.551216	-0.650254	0.197616
H233	H	0.551135	-0.620563	0.315224
H234	H	0.576181	-0.493463	0.382021
H235	H	0.576163	-0.408339	0.381994
O236	O	0.547221	-0.849483	0.304755
C237	C	0.497523	-0.837377	0.172026
C238	C	0.525111	-0.815559	0.245600
H239	H	0.479647	-0.809960	0.124164
H240	H	0.471378	-0.861944	0.219909
H241	H	0.521149	-0.856383	0.117482
H242	H	0.501520	-0.796530	0.300159
H243	H	0.551260	-0.791017	0.197652
H244	H	0.551180	-0.761323	0.315264
H245	H	0.650792	-0.214745	0.899446
