data_functionalizedCrystal
_audit_creation_method	'MofGen! by Chris Wilmer'
_symmetry_space_group_name_H-M	'P1'
_symmetry_Int_Tables_number	1
_symmetry_cell_setting	triclinic
loop_
_symmetry_equiv_pos_as_xyz
  x,y,z
_cell_length_a	12.645331
_cell_length_b	18.050589
_cell_length_c	12.645323
_cell_angle_alpha	90.025241
_cell_angle_beta	89.977324
_cell_angle_gamma	89.966323
loop_
_atom_site_label
_atom_site_type_symbol
_atom_site_fract_x
_atom_site_fract_y
_atom_site_fract_z
Zn1	Zn	1.620606	0.295674	-0.599443
Zn2	Zn	1.620435	0.419873	-0.422182
Zn3	Zn	1.443321	0.295699	-0.422188
Zn4	Zn	1.443250	0.419824	-0.599398
O5	O	1.531903	0.357767	-0.510803
O6	O	1.768931	0.312159	-0.575946
O7	O	1.596899	0.403432	-0.273836
O8	O	1.466939	0.191771	-0.445723
O9	O	1.768805	0.403407	-0.445713
O10	O	1.597190	0.191753	-0.575952
O11	O	1.466773	0.312202	-0.273840
O12	O	1.294964	0.312155	-0.445678
O13	O	1.466818	0.403325	-0.747751
O14	O	1.294912	0.403349	-0.575874
O15	O	1.597121	0.312112	-0.747785
O16	O	1.596830	0.523791	-0.445669
O17	O	1.466653	0.523755	-0.575868
C18	C	1.256473	0.357750	-0.510772
C19	C	1.138643	0.357760	-0.510784
C20	C	1.531744	0.550720	-0.510786
C21	C	1.531773	0.633265	-0.510815
C22	C	0.971077	0.300126	-0.429330
C23	C	1.093636	0.300275	-0.428971
C24	C	1.094090	0.435993	-0.480269
C25	C	0.971491	0.435679	-0.479713
C26	C	0.971502	0.337906	-0.623068
C27	C	1.094109	0.336158	-0.622445
C28	C	1.461020	0.832724	-0.581593
C29	C	1.435165	0.882166	-0.484859
C30	C	1.531852	0.784396	-0.510829
C31	C	1.557735	0.882035	-0.607575
C32	C	1.531927	0.930381	-0.510852
C33	C	1.505947	0.832751	-0.414044
C34	C	1.628562	0.832616	-0.536825
C35	C	1.602745	0.882036	-0.440024
C36	C	1.531806	0.700297	-0.510818
C37	C	1.531974	1.014477	-0.510852
C38	C	1.808408	0.357786	-0.510834
C39	C	1.926238	0.357794	-0.510848
C40	C	1.531981	0.357710	-0.787308
C41	C	1.532014	0.357686	-0.905138
C42	C	1.532051	1.164062	-0.510844
C43	C	1.532010	1.081516	-0.510865
C44	C	1.449788	0.414797	-1.072681
C45	C	1.450003	0.415080	-0.950121
C46	C	1.643705	0.378927	-0.949658
C47	C	1.643254	0.379285	-1.072256
C48	C	1.503606	0.279014	-1.072337
C49	C	1.501114	0.279485	-0.949731
C50	C	1.531886	0.357771	-0.235373
C51	C	1.532058	0.357586	-0.117544
H52	H	1.123761	0.242262	-0.448098
O53	O	1.472393	0.484527	-0.914960
C54	C	1.498185	0.563793	-0.763787
C55	C	1.472788	0.485112	-0.803462
H56	H	1.498535	0.564289	-0.673637
H57	H	1.435660	0.604076	-0.794007
H58	H	1.579245	0.581254	-0.794359
H59	H	1.391757	0.467582	-0.772906
H60	H	1.535378	0.444876	-0.773252
H61	H	1.124738	0.453148	-0.399110
H62	H	0.942505	0.379909	-0.683806
H63	H	1.353417	0.903947	-0.462891
O64	O	1.350657	0.399225	-1.107881
C65	C	1.199030	0.442310	-1.205519
C66	C	1.311278	0.460049	-1.165688
H67	H	1.167167	0.491468	-1.252283
H68	H	1.145037	0.430976	-1.135149
H69	H	1.201817	0.391320	-1.258679
H70	H	1.308593	0.511047	-1.112547
H71	H	1.365225	0.471336	-1.236107
H72	H	1.122909	0.313420	-0.345811
O73	O	1.726114	0.806752	-0.563147
C74	C	1.904897	0.837540	-0.612272
C75	C	1.794466	0.866932	-0.582485
H76	H	1.960197	0.886181	-0.627893
H77	H	1.898839	0.801899	-0.686471
H78	H	1.937429	0.802773	-0.544423
H79	H	1.761870	0.901731	-0.650265
H80	H	1.800590	0.902533	-0.508253
H81	H	1.483990	0.811191	-0.332213
O82	O	0.937480	0.455775	-0.381772
C83	C	0.986736	0.492479	-0.205308
C84	C	1.025391	0.469715	-0.316175
H85	H	1.057791	0.503771	-0.152248
H86	H	0.937324	0.445842	-0.169951
H87	H	0.936461	0.544731	-0.211674
H88	H	1.075707	0.417481	-0.309900
H89	H	1.074745	0.516396	-0.351491
H90	H	1.668239	0.435763	-0.918969
O91	O	1.674125	0.907676	-0.368423
C92	C	1.727532	0.911483	-0.185602
C93	C	1.646612	0.882408	-0.266576
H94	H	1.705330	0.891053	-0.103244
H95	H	1.727532	0.974638	-0.186531
H96	H	1.809695	0.890240	-0.207105
H97	H	1.564411	0.903596	-0.245130
H98	H	1.646705	0.819255	-0.265633
O99	O	1.718924	0.330843	-0.915032
C100	C	1.903280	0.297011	-0.917017
C101	C	1.818200	0.351509	-0.956331
H102	H	1.983567	0.313708	-0.950373
H103	H	1.882911	0.238592	-0.944561
H104	H	1.906353	0.298415	-0.826939
H105	H	1.815082	0.350170	-1.046406
H106	H	1.838602	0.409903	-0.928707
H107	H	1.579598	0.903684	-0.689384
O108	O	1.389553	0.806761	-0.652874
C109	C	1.310012	0.699352	-0.733309
C110	C	1.391003	0.728655	-0.652574
H111	H	1.311142	0.636200	-0.733077
H112	H	1.331230	0.720416	-0.815602
H113	H	1.227642	0.719755	-0.710962
H114	H	1.473402	0.708263	-0.674822
H115	H	1.369694	0.707597	-0.570302
O116	O	1.351129	0.399239	-0.914380
C117	C	1.171029	0.370051	-0.960501
C118	C	1.282953	0.387999	-1.001114
H119	H	1.115883	0.360944	-1.030604
H120	H	1.140571	0.418175	-0.910621
H121	H	1.173795	0.317691	-0.910197
H122	H	1.280276	0.440338	-1.051461
H123	H	1.313368	0.339833	-1.050935
H124	H	1.556661	0.234606	-0.919110
H125	H	1.563528	0.236389	-1.101351
H126	H	1.468385	0.472682	-1.103500
H127	H	1.667374	0.436723	-1.100867
H128	H	1.706628	0.339424	-1.101935
O129	O	1.408226	0.255819	-1.109311
C130	C	1.313142	0.162915	-1.207667
C131	C	1.421231	0.189099	-1.165878
H132	H	1.323616	0.108961	-1.253391
H133	H	1.278553	0.206971	-1.262208
H134	H	1.257216	0.153406	-1.138261
H135	H	1.477235	0.198601	-1.235217
H136	H	1.455733	0.145030	-1.111306
H137	H	0.941828	0.480100	-0.536498
O138	O	1.403126	0.260240	-0.914972
C139	C	1.298652	0.172474	-0.816565
C140	C	1.409676	0.194172	-0.855887
H141	H	1.303914	0.119065	-0.768768
H142	H	1.244118	0.163694	-0.887231
H143	H	1.265738	0.218639	-0.764520
H144	H	1.442686	0.148034	-0.907913
H145	H	1.464139	0.202977	-0.785172
O146	O	0.935790	0.230741	-0.451850
C147	C	0.784571	0.150921	-0.472886
C148	C	0.824392	0.229528	-0.447321
H149	H	0.694501	0.149918	-0.469255
H150	H	0.818020	0.110115	-0.412770
H151	H	0.811720	0.134545	-0.555641
H152	H	0.797257	0.245974	-0.364594
H153	H	0.790951	0.270288	-0.507503
O154	O	0.934327	0.315502	-0.330641
C155	C	0.933538	0.280931	-0.146606
C156	C	0.975214	0.263422	-0.258317
H157	H	0.966595	0.238844	-0.088098
H158	H	0.843484	0.277981	-0.146387
H159	H	0.959739	0.338974	-0.122623
H160	H	0.949090	0.205379	-0.282370
H161	H	1.065264	0.266422	-0.258475
H162	H	0.940629	0.281854	-0.650821
H163	H	1.123240	0.480108	-0.537779
H164	H	1.123237	0.278587	-0.645455
H165	H	1.124750	0.375097	-0.686430
