data_functionalizedCrystal
_audit_creation_method	'MofGen! by Chris Wilmer'
_symmetry_space_group_name_H-M	'P1'
_symmetry_Int_Tables_number	1
_symmetry_cell_setting	triclinic
loop_
_symmetry_equiv_pos_as_xyz
  x,y,z
_cell_length_a	27.731993
_cell_length_b	27.732048
_cell_length_c	9.016244
_cell_angle_alpha	89.992799
_cell_angle_beta	90.004223
_cell_angle_gamma	82.631525
loop_
_atom_site_label
_atom_site_type_symbol
_atom_site_fract_x
_atom_site_fract_y
_atom_site_fract_z
O1	O	0.640947	0.057389	-0.122957
O2	O	0.500149	0.066162	-0.123050
O3	O	0.574921	-0.008622	-0.122972
O4	O	0.566175	0.132174	-0.123035
O5	O	0.574910	-0.008620	0.123708
O6	O	0.500139	0.066164	0.123631
O7	O	0.640936	0.057391	0.123724
Cu8	Cu	0.570536	0.061778	0.146201
Cu9	Cu	0.570549	0.061776	-0.145527
O10	O	0.566164	0.132175	0.123646
C11	C	0.482137	0.065983	0.000279
C12	C	0.428480	0.065441	0.000245
C13	C	0.045326	0.061509	-0.134147
C14	C	0.246983	0.063576	-0.134188
O15	O	0.273062	0.063823	-0.248549
N16	N	0.272198	0.063836	0.000274
C17	C	0.246995	0.063576	0.134757
O18	O	0.273069	0.063839	0.249124
C19	C	0.045339	0.061505	0.134796
C20	C	0.020127	0.061251	0.000325
C21	C	0.020114	0.061254	-0.268607
C22	C	-0.030298	0.060740	-0.268596
C23	C	-0.055497	0.060481	-0.134124
C24	C	-0.030285	0.060736	0.000337
C25	C	0.020138	0.061241	0.269277
C26	C	-0.030279	0.060722	0.269275
C27	C	-0.055492	0.060468	0.134804
C28	C	-0.105896	0.059964	0.134820
N29	N	-0.131110	0.059704	0.000358
C30	C	-0.105911	0.059963	-0.134114
C31	C	0.352867	0.064664	0.134726
C32	C	0.403281	0.065182	0.134717
C33	C	0.403266	0.065182	-0.134229
C34	C	0.352851	0.064667	-0.134217
C35	C	0.327653	0.064404	0.000264
C36	C	-0.211779	0.058884	-0.134080
C37	C	-0.262196	0.058371	-0.134056
C38	C	-0.262176	0.058369	0.134888
C39	C	-0.211764	0.058884	0.134866
C40	C	-0.186567	0.059139	0.000370
O41	O	-0.132004	0.059711	0.249121
O42	O	-0.131992	0.059689	-0.248465
C43	C	0.095738	0.062023	-0.134159
C44	C	0.120950	0.062279	0.000302
C45	C	0.095751	0.062020	0.134774
C46	C	0.171364	0.062797	0.000292
C47	C	0.196563	0.063056	-0.134180
C48	C	0.171349	0.062796	-0.268642
C49	C	0.120937	0.062282	-0.268631
C50	C	0.120965	0.062279	0.269236
C51	C	0.171377	0.062794	0.269214
C52	C	0.196576	0.063053	0.134742
C53	C	0.574732	-0.026628	0.000372
C54	C	0.574179	-0.080282	0.000384
C55	C	0.614884	-0.419105	0.000335
C56	C	0.612833	-0.620765	0.000313
O57	O	0.650055	-0.652028	0.000272
N58	N	0.568497	-0.639880	0.000285
C59	C	0.524670	-0.608576	0.000253
O60	O	0.486912	-0.629462	0.000213
C61	C	0.526721	-0.406918	0.000264
C62	C	0.571061	-0.387806	0.000307
C63	C	0.659220	-0.399993	0.000376
C64	C	0.659732	-0.349581	0.000389
C65	C	0.615909	-0.318282	0.000362
C66	C	0.571573	-0.337394	0.000321
C67	C	0.482895	-0.375616	0.000221
C68	C	0.483412	-0.325199	0.000220
C69	C	0.527751	-0.306087	0.000263
C70	C	0.528262	-0.255683	0.000306
N71	N	0.572598	-0.236568	0.000334
C72	C	0.616422	-0.267867	0.000362
C73	C	0.523596	-0.714450	0.000250
C74	C	0.523083	-0.764865	0.000249
C75	C	0.611246	-0.777049	0.000306
C76	C	0.611759	-0.726634	0.000317
C77	C	0.567932	-0.695335	0.000277
C78	C	0.617494	-0.161998	0.000392
C79	C	0.618003	-0.111582	0.000411
C80	C	0.529839	-0.099401	0.000347
C81	C	0.529331	-0.149814	0.000335
C82	C	0.573162	-0.181112	0.000352
O83	O	0.491060	-0.224392	0.000330
O84	O	0.654174	-0.246972	0.000368
C85	C	0.614372	-0.469517	0.000321
C86	C	0.570036	-0.488630	0.000280
C87	C	0.526213	-0.457331	0.000252
C88	C	0.569523	-0.539044	0.000280
C89	C	0.613346	-0.570343	0.000307
C90	C	0.657683	-0.551228	0.000335
C91	C	0.658195	-0.500817	0.000349
C92	C	0.481876	-0.476446	0.000224
C93	C	0.481368	-0.526858	0.000212
C94	C	0.525191	-0.558157	0.000240
C95	C	0.658949	0.057570	0.000392
C96	C	0.712605	0.058113	0.000416
C97	C	0.566353	0.150181	0.000299
C98	C	0.566906	0.203836	0.000277
N99	N	0.570531	0.061779	0.351387
N100	N	0.570558	0.061771	-0.350713
C101	C	0.530414	0.101654	0.586378
C102	C	0.530499	0.101799	0.414487
C103	C	0.620889	0.072410	0.413753
C104	C	0.620669	0.072691	0.585698
C105	C	0.560793	0.011137	0.585945
C106	C	0.559628	0.011486	0.413990
H107	H	0.332326	0.064460	-0.243716
Br108	Br	0.086773	0.061933	0.451753
Br109	Br	0.635107	0.134218	0.652509
H110	H	0.629765	0.108902	0.370666
H111	H	0.524893	0.000818	0.629374
Br112	Br	0.497889	-0.001978	0.346057
Br113	Br	0.422395	-0.433975	0.000179
Br114	Br	0.437474	0.065536	-0.316726
H115	H	0.586994	-0.019553	0.371044
H116	H	-0.050821	0.060531	-0.378096
H117	H	0.590073	-0.018538	0.626628
H118	H	-0.282722	0.058166	-0.243564
H119	H	-0.191270	0.059092	-0.243599
Br120	Br	0.205587	0.063145	0.451729
Br121	Br	-0.064473	0.060361	0.451796
H122	H	-0.191236	0.059101	0.244363
H123	H	0.040626	0.061463	-0.378117
H124	H	0.694908	-0.425472	0.000393
Br125	Br	0.467801	0.091365	0.655290
Br126	Br	0.678181	-0.085647	0.000471
H127	H	0.423804	0.065397	0.244217
H128	H	0.493226	-0.165375	0.000341
H129	H	0.653186	-0.187476	0.000400
H130	H	0.332356	0.064448	0.244244
H131	H	0.695838	-0.334025	0.000418
H132	H	0.647864	-0.711077	0.000351
Br133	Br	0.670720	-0.819536	0.000340
H134	H	0.486977	-0.780421	0.000240
H135	H	0.487905	-0.688970	0.000217
Br136	Br	0.470368	-0.056915	0.000310
Br137	Br	0.540600	0.163945	0.658316
H138	H	0.447722	-0.299717	0.000186
Br139	Br	0.718373	-0.474887	0.000398
Br140	Br	-0.296385	0.058020	0.317377
Br141	Br	0.717157	-0.593716	0.000384
H142	H	0.040657	0.061447	0.378778
Br143	Br	0.421187	-0.552789	0.000166
H144	H	0.191874	0.063010	-0.378134
Br145	Br	0.671871	0.026030	0.655067
Br146	Br	0.468080	0.091371	0.344200
Br147	Br	0.540800	0.164447	0.345874
Br148	Br	0.671839	0.025255	0.345644
H149	H	0.100414	0.062075	-0.378131
H150	H	0.446789	-0.391168	0.000177
