data_functionalizedCrystal
_audit_creation_method	'MofGen! by Chris Wilmer'
_symmetry_space_group_name_H-M	'P1'
_symmetry_Int_Tables_number	1
_symmetry_cell_setting	triclinic
loop_
_symmetry_equiv_pos_as_xyz
  x,y,z
_cell_length_a	25.639240
_cell_length_b	21.395362
_cell_length_c	21.395355
_cell_angle_alpha	89.956060
_cell_angle_beta	89.985684
_cell_angle_gamma	90.047938
loop_
_atom_site_label
_atom_site_type_symbol
_atom_site_fract_x
_atom_site_fract_y
_atom_site_fract_z
Zn1	Zn	-0.207990	0.957854	-0.354604
Zn2	Zn	0.125344	1.291187	-0.021271
Zn3	Zn	0.458677	1.624520	0.312063
Zn4	Zn	-0.295409	0.957754	-0.249834
Zn5	Zn	0.037924	1.291087	0.083499
Zn6	Zn	0.371257	1.624420	0.416833
Zn7	Zn	-0.208014	0.853069	-0.249805
Zn8	Zn	0.125319	1.186402	0.083528
Zn9	Zn	0.458653	1.519735	0.416862
Zn10	Zn	-0.295420	0.853035	-0.354539
Zn11	Zn	0.037913	1.186369	-0.021205
Zn12	Zn	0.371246	1.519702	0.312128
O13	O	-0.251708	0.905428	-0.302195
O14	O	0.081625	1.238761	0.031138
O15	O	0.414958	1.572094	0.364471
O16	O	-0.219571	1.045518	-0.340745
O17	O	0.113762	1.378852	-0.007412
O18	O	0.447095	1.712185	0.325921
O19	O	-0.283822	0.943839	-0.162152
O20	O	0.049511	1.277172	0.171181
O21	O	0.382845	1.610506	0.504514
O22	O	-0.134846	0.867024	-0.263722
O23	O	0.198488	1.200358	0.069611
O24	O	0.531821	1.533691	0.402945
O25	O	-0.283798	1.045445	-0.263771
O26	O	0.049535	1.378778	0.069562
O27	O	0.382868	1.712111	0.402895
O28	O	-0.134828	0.944009	-0.340717
O29	O	0.198506	1.277343	-0.007384
O30	O	0.531839	1.610676	0.325949
O31	O	-0.219613	0.866927	-0.162131
O32	O	0.113720	1.200261	0.171202
O33	O	0.447054	1.533594	0.504536
O34	O	-0.219623	0.765386	-0.263659
O35	O	0.113710	1.098720	0.069674
O36	O	0.447043	1.432053	0.403008
O37	O	-0.283817	0.866968	-0.442225
O38	O	0.049517	1.200301	-0.108892
O39	O	0.382850	1.533634	0.224441
O40	O	-0.283840	0.765362	-0.340606
O41	O	0.049493	1.098695	-0.007273
O42	O	0.382826	1.432028	0.326060
O43	O	-0.219582	0.943977	-0.442273
O44	O	0.113751	1.277310	-0.108940
O45	O	0.447085	1.610644	0.224394
O46	O	-0.368576	0.943807	-0.263708
O47	O	-0.035243	1.277140	0.069625
O48	O	0.298091	1.610473	0.402958
O49	O	-0.368584	0.866871	-0.340634
O50	O	-0.035251	1.200204	-0.007301
O51	O	0.298083	1.533537	0.326032
C52	C	-0.251736	0.742640	-0.302123
C53	C	0.081597	1.075973	0.031211
C54	C	0.414931	1.409307	0.364544
C55	C	-0.251760	0.672999	-0.302107
C56	C	0.081573	1.006332	0.031227
C57	C	0.414906	1.339665	0.364560
C58	C	-0.285242	0.640289	-0.342113
C59	C	0.048091	0.973623	-0.008780
C60	C	0.381424	1.306956	0.324554
C61	C	-0.285230	0.574854	-0.342141
C62	C	0.048104	0.908187	-0.008808
C63	C	0.381437	1.241521	0.324526
C64	C	-0.251740	0.542131	-0.302151
C65	C	0.081593	0.875464	0.031182
C66	C	0.414926	1.208797	0.364516
C67	C	-0.218252	0.574848	-0.262142
C68	C	0.115082	0.908181	0.071191
C69	C	0.448415	1.241515	0.404525
C70	C	-0.218262	0.640282	-0.262120
C71	C	0.115072	0.973615	0.071214
C72	C	0.448405	1.306949	0.404547
C73	C	-0.247528	0.438406	-0.245746
C74	C	0.085805	0.771739	0.087588
C75	C	0.419138	1.105073	0.420921
C76	C	-0.247522	0.372973	-0.245767
C77	C	0.085811	0.706306	0.087567
C78	C	0.419145	1.039640	0.420900
C79	C	-0.251706	0.340310	-0.302220
C80	C	0.081627	0.673643	0.031113
C81	C	0.414960	1.006977	0.364446
C82	C	-0.255908	0.373088	-0.358654
C83	C	0.077425	0.706421	-0.025321
C84	C	0.410759	1.039754	0.308012
C85	C	-0.255918	0.438522	-0.358632
C86	C	0.077415	0.771855	-0.025299
C87	C	0.410749	1.105189	0.308035
C88	C	-0.251725	0.471178	-0.302171
C89	C	0.081608	0.804512	0.031162
C90	C	0.414941	1.137845	0.364495
C91	C	-0.285176	0.236648	-0.342260
C92	C	0.048157	0.569981	-0.008927
C93	C	0.381491	0.903315	0.324406
C94	C	-0.285160	0.171211	-0.342289
C95	C	0.048174	0.504545	-0.008956
C96	C	0.381507	0.837878	0.324377
C97	C	-0.218184	0.171206	-0.262285
C98	C	0.115149	0.504540	0.071049
C99	C	0.448482	0.837873	0.404382
C100	C	-0.218198	0.236642	-0.262261
C101	C	0.115135	0.569975	0.071072
C102	C	0.448468	0.903308	0.404405
C103	C	-0.251697	0.269359	-0.302248
C104	C	0.081637	0.602692	0.031085
C105	C	0.414970	0.936025	0.364418
C106	C	-0.387551	0.905341	-0.302181
C107	C	-0.054218	1.238675	0.031152
C108	C	0.279116	1.572008	0.364486
C109	C	-0.445665	0.905362	-0.302196
C110	C	-0.112332	1.238695	0.031138
C111	C	0.221002	1.572028	0.364471
C112	C	-0.696798	0.945510	-0.342328
C113	C	-0.363464	1.278844	-0.008994
C114	C	-0.030131	1.612177	0.324339
C115	C	-0.642194	0.945492	-0.342323
C116	C	-0.308860	1.278825	-0.008990
C117	C	0.024473	1.612158	0.324344
O118	O	-0.613905	0.979555	-0.376424
O119	O	-0.280572	1.312889	-0.043090
O120	O	0.052761	1.646222	0.290243
N121	N	-0.614939	0.905430	-0.302204
N122	N	-0.281605	1.238763	0.031130
N123	N	0.051728	1.572097	0.364463
C124	C	-0.642291	0.865389	-0.262082
C125	C	-0.308958	1.198723	0.071251
C126	C	0.024375	1.532056	0.404585
O127	O	-0.614095	0.831313	-0.227956
O128	O	-0.280762	1.164646	0.105377
O129	O	0.052572	1.497979	0.438710
C130	C	-0.696895	0.865412	-0.262084
C131	C	-0.363561	1.198745	0.071249
C132	C	-0.030228	1.532079	0.404583
C133	C	-0.724146	0.905471	-0.302210
C134	C	-0.390813	1.238805	0.031123
C135	C	-0.057480	1.572138	0.364456
C136	C	-0.724050	0.985567	-0.382451
C137	C	-0.390716	1.318900	-0.049117
C138	C	-0.057383	1.652234	0.284216
C139	C	-0.778650	0.985585	-0.382456
C140	C	-0.445317	1.318918	-0.049123
C141	C	-0.111984	1.652252	0.284211
C142	C	-0.805999	0.945546	-0.342339
C143	C	-0.472666	1.278879	-0.009005
C144	C	-0.139332	1.612213	0.324328
C145	C	-0.778747	0.905489	-0.302216
C146	C	-0.445414	1.238823	0.031117
C147	C	-0.112080	1.572156	0.364451
C148	C	-0.724246	0.825375	-0.221959
C149	C	-0.390913	1.158708	0.111374
C150	C	-0.057579	1.492041	0.444707
C151	C	-0.778853	0.825401	-0.221965
C152	C	-0.445520	1.158734	0.111369
C153	C	-0.112186	1.492068	0.444702
C154	C	-0.806105	0.865461	-0.262091
C155	C	-0.472772	1.198794	0.071242
C156	C	-0.139438	1.532127	0.404576
C157	C	-0.860696	0.865468	-0.262104
C158	C	-0.527363	1.198801	0.071229
C159	C	-0.194029	1.532135	0.404563
N160	N	-0.887951	0.905530	-0.302223
N161	N	-0.554617	1.238863	0.031110
N162	N	-0.221284	1.572196	0.364443
C163	C	-0.860602	0.945568	-0.342341
C164	C	-0.527269	1.278902	-0.009007
C165	C	-0.193936	1.612235	0.324326
C166	C	-0.527621	0.865346	-0.262080
C167	C	-0.194287	1.198679	0.071253
C168	C	0.139046	1.532013	0.404587
C169	C	-0.473018	0.865320	-0.262080
C170	C	-0.139685	1.198653	0.071253
C171	C	0.193648	1.531987	0.404586
C172	C	-0.472924	0.945423	-0.342321
C173	C	-0.139591	1.278756	-0.008988
C174	C	0.193742	1.612090	0.324346
C175	C	-0.527528	0.945446	-0.342323
C176	C	-0.194194	1.278779	-0.008990
C177	C	0.139139	1.612112	0.324344
C178	C	-0.554875	0.905407	-0.302199
C179	C	-0.221542	1.238741	0.031134
C180	C	0.111791	1.572074	0.364467
C181	C	-0.975267	0.945603	-0.342349
C182	C	-0.641934	1.278936	-0.009016
C183	C	-0.308601	1.612269	0.324317
C184	C	-1.029873	0.945615	-0.342353
C185	C	-0.696539	1.278948	-0.009020
C186	C	-0.363206	1.612282	0.324314
C187	C	-1.029962	0.865514	-0.262111
C188	C	-0.696629	1.198848	0.071223
C189	C	-0.363295	1.532181	0.404556
C190	C	-0.975361	0.865499	-0.262109
C191	C	-0.642028	1.198833	0.071224
C192	C	-0.308695	1.532166	0.404558
C193	C	-0.948015	0.905549	-0.302230
C194	C	-0.614682	1.238882	0.031103
C195	C	-0.281349	1.572215	0.364436
O196	O	-0.889019	0.831423	-0.228019
O197	O	-0.555686	1.164757	0.105315
O198	O	-0.222352	1.498090	0.438648
O199	O	-0.888805	0.979645	-0.376455
O200	O	-0.555472	1.312979	-0.043121
O201	O	-0.222138	1.646312	0.290212
C202	C	-0.115335	0.905532	-0.302224
C203	C	0.217998	1.238865	0.031110
C204	C	0.551331	1.572198	0.364443
C205	C	-0.057221	0.905576	-0.302236
C206	C	0.276112	1.238909	0.031098
C207	C	0.609445	1.572243	0.364431
C208	C	-0.251698	0.905480	-0.465619
C209	C	0.081636	1.238813	-0.132285
C210	C	0.414969	1.572146	0.201048
C211	C	-0.251693	0.905502	-0.535260
C212	C	0.081640	1.238835	-0.201927
C213	C	0.414973	1.572169	0.131407
C214	C	-0.251681	1.068851	-0.302269
C215	C	0.081652	1.402184	0.031065
C216	C	0.414986	1.735518	0.364398
C217	C	-0.251669	1.138492	-0.302300
C218	C	0.081664	1.471826	0.031033
C219	C	0.414997	1.805159	0.364367
C220	C	-0.218245	0.945599	-0.567999
C221	C	0.115089	1.278932	-0.234666
C222	C	0.448422	1.612266	0.098668
C223	C	-0.218222	0.945598	-0.633435
C224	C	0.115111	1.278932	-0.300101
C225	C	0.448444	1.612265	0.033232
C226	C	-0.251658	0.905507	-0.666128
C227	C	0.081676	1.238840	-0.332795
C228	C	0.415009	1.572174	0.000538
C229	C	-0.285108	0.865402	-0.633382
C230	C	0.048225	1.198735	-0.300048
C231	C	0.381558	1.532069	0.033285
C232	C	-0.285126	0.865399	-0.567947
C233	C	0.048207	1.198733	-0.234614
C234	C	0.381540	1.532066	0.098719
C235	C	-0.298736	0.900530	-0.769796
C236	C	0.034597	1.233863	-0.436463
C237	C	0.367931	1.567196	-0.103130
C238	C	-0.298719	0.900536	-0.835229
C239	C	0.034614	1.233870	-0.501896
C240	C	0.367948	1.567203	-0.168563
C241	C	-0.251602	0.905511	-0.867949
C242	C	0.081731	1.238844	-0.534616
C243	C	0.415064	1.572177	-0.201283
C244	C	-0.204501	0.910491	-0.835228
C245	C	0.128832	1.243825	-0.501895
C246	C	0.462166	1.577158	-0.168562
C247	C	-0.204519	0.910489	-0.769794
C248	C	0.128814	1.243822	-0.436461
C249	C	0.462148	1.577156	-0.103127
C250	C	-0.251642	0.905505	-0.737081
C251	C	0.081692	1.238838	-0.403748
C252	C	0.415025	1.572171	-0.070414
C253	C	-0.218127	0.945609	-0.971641
C254	C	0.115207	1.278942	-0.638308
C255	C	0.448540	1.612276	-0.304974
C256	C	-0.218103	0.945604	-1.037078
C257	C	0.115230	1.278937	-0.703744
C258	C	0.448563	1.612271	-0.370411
C259	C	-0.284994	0.865411	-1.037023
C260	C	0.048339	1.198744	-0.703690
C261	C	0.381673	1.532077	-0.370357
C262	C	-0.285013	0.865413	-0.971588
C263	C	0.048321	1.198746	-0.638255
C264	C	0.381654	1.532079	-0.304921
C265	C	-0.251580	0.905515	-0.938901
C266	C	0.081753	1.238849	-0.605567
C267	C	0.415087	1.572182	-0.272234
C268	C	-0.251681	0.905412	-0.139408
C269	C	0.081652	1.238745	0.193925
C270	C	0.414985	1.572079	0.527259
C271	C	-0.251538	0.905511	-0.069767
C272	C	0.081795	1.238845	0.263566
C273	C	0.415128	1.572178	0.596900
H274	H	-0.259314	0.346495	-0.404624
H275	H	0.074019	0.679828	-0.071291
H276	H	0.407352	1.013162	0.262042
H277	H	-0.800834	1.018210	-0.415126
H278	H	-0.467501	1.351544	-0.081793
H279	H	-0.134167	1.684877	0.251540
H280	H	-0.190901	0.978259	-0.945026
H281	H	0.142433	1.311593	-0.611692
H282	H	0.475766	1.644926	-0.278359
H283	H	-0.259338	0.465207	-0.404583
H284	H	0.073996	0.798540	-0.071249
H285	H	0.407329	1.131874	0.262084
H286	H	-0.701787	1.018175	-0.415119
H287	H	-0.368454	1.351508	-0.081785
H288	H	-0.035121	1.684841	0.251548
H289	H	-0.702065	0.792755	-0.189285
H290	H	-0.368732	1.126088	0.144049
H291	H	-0.035398	1.459422	0.477382
H292	H	-0.190995	0.666914	-0.229541
H293	H	0.142338	1.000247	0.103792
H294	H	0.475672	1.333580	0.437125
H295	H	-0.953172	0.832873	-0.229441
H296	H	-0.619839	1.166206	0.103893
H297	H	-0.286506	1.499540	0.437226
H298	H	-0.166167	0.914543	-0.743155
H299	H	0.167166	1.247876	-0.409822
H300	H	0.500499	1.581209	-0.076488
H301	H	-0.549713	0.978063	-0.375000
H302	H	-0.216379	1.311396	-0.041667
H303	H	0.116954	1.644730	0.291666
H304	H	-0.166134	0.914543	-0.861867
H305	H	0.167199	1.247876	-0.528534
H306	H	0.500533	1.581210	-0.195201
H307	H	-0.190863	0.978255	-1.063733
H308	H	0.142471	1.311588	-0.730399
H309	H	0.475804	1.644922	-0.397066
H310	H	-0.337072	0.896485	-0.861866
H311	H	-0.003739	1.229818	-0.528533
H312	H	0.329595	1.563151	-0.195199
H313	H	-0.312213	0.832761	-1.063642
H314	H	0.021121	1.166094	-0.730309
H315	H	0.354454	1.499428	-0.396975
H316	H	-0.312253	0.832765	-0.944931
H317	H	0.021080	1.166098	-0.611598
H318	H	0.354413	1.499432	-0.278265
H319	H	-0.801117	0.792797	-0.189290
H320	H	-0.467783	1.126130	0.144044
H321	H	-0.134450	1.459464	0.477377
H322	H	-1.052239	0.832914	-0.229450
H323	H	-0.718906	1.166248	0.103884
H324	H	-0.385572	1.499581	0.437217
H325	H	-0.312424	0.144580	-0.374871
H326	H	0.020910	0.477914	-0.041538
H327	H	0.354243	0.811247	0.291795
H328	H	-0.312330	0.832757	-0.660005
H329	H	0.021003	1.166091	-0.326672
H330	H	0.354337	1.499424	0.006662
H331	H	-1.052059	0.978235	-0.375033
H332	H	-0.718725	1.311569	-0.041699
H333	H	-0.385392	1.644902	0.291634
H334	H	-0.190982	0.978249	-0.660096
H335	H	0.142352	1.311582	-0.326763
H336	H	0.475685	1.644916	0.006571
H337	H	-0.191020	0.978253	-0.541389
H338	H	0.142313	1.311586	-0.208056
H339	H	0.475646	1.644920	0.125277
H340	H	-0.337094	0.896311	-0.743161
H341	H	-0.003761	1.229645	-0.409828
H342	H	0.329572	1.562978	-0.076495
H343	H	-0.312519	0.666923	-0.374674
H344	H	0.020814	1.000257	-0.041341
H345	H	0.354148	1.333590	0.291992
H346	H	-0.312495	0.548217	-0.374721
H347	H	0.020839	0.881550	-0.041388
H348	H	0.354172	1.214883	0.291945
H349	H	-0.312450	0.263287	-0.374823
H350	H	0.020883	0.596621	-0.041490
H351	H	0.354217	0.929954	0.291843
H352	H	-0.450647	0.978026	-0.374986
H353	H	-0.117314	1.311359	-0.041653
H354	H	0.216019	1.644693	0.291681
H355	H	-0.190914	0.144564	-0.229727
H356	H	0.142419	0.477897	0.103606
H357	H	0.475752	0.811230	0.436939
H358	H	-0.244119	0.464995	-0.199771
H359	H	0.089215	0.798328	0.133562
H360	H	0.422548	1.131661	0.466895
H361	H	-0.190936	0.263274	-0.229681
H362	H	0.142397	0.596608	0.103653
H363	H	0.475731	0.929941	0.436986
H364	H	-0.549884	0.832736	-0.229408
H365	H	-0.216550	1.166070	0.103925
H366	H	0.116783	1.499403	0.437259
H367	H	-0.312363	0.832745	-0.541292
H368	H	0.020970	1.166078	-0.207958
H369	H	0.354303	1.499411	0.125375
H370	H	-0.953008	0.978215	-0.375019
H371	H	-0.619675	1.311548	-0.041686
H372	H	-0.286342	1.644882	0.291647
H373	H	-0.190984	0.548200	-0.229583
H374	H	0.142350	0.881534	0.103750
H375	H	0.475683	1.214867	0.437084
H376	H	-0.244104	0.346290	-0.199815
H377	H	0.089229	0.679624	0.133519
H378	H	0.422563	1.012957	0.466852
H379	H	-0.450834	0.832693	-0.229413
H380	H	-0.117500	1.166026	0.103921
H381	H	0.215833	1.499360	0.437254
