data_functionalizedCrystal
_audit_creation_method	'MofGen! by Chris Wilmer'
_symmetry_space_group_name_H-M	'P1'
_symmetry_Int_Tables_number	1
_symmetry_cell_setting	triclinic
loop_
_symmetry_equiv_pos_as_xyz
  x,y,z
_cell_length_a	14.519709
_cell_length_b	10.489741
_cell_length_c	13.596369
_cell_angle_alpha	89.994306
_cell_angle_beta	90.000291
_cell_angle_gamma	84.109659
loop_
_atom_site_label
_atom_site_type_symbol
_atom_site_fract_x
_atom_site_fract_y
_atom_site_fract_z
O1	O	1.224779	0.167203	-0.081663
O2	O	0.956410	0.186894	-0.081693
O3	O	1.096701	-0.008613	-0.081671
O4	O	1.084488	0.362710	-0.081684
O5	O	1.096687	-0.008623	0.081912
O6	O	0.956396	0.186883	0.081890
O7	O	1.224765	0.167193	0.081920
Zn8	Zn	1.090578	0.177037	0.107878
Zn9	Zn	1.090597	0.177050	-0.107650
O10	O	1.084474	0.362700	0.081899
C11	C	0.922038	0.185971	0.000095
C12	C	0.819642	0.183221	0.000084
C13	C	0.444691	0.173098	0.000129
C14	C	0.549014	0.175909	0.000116
C15	C	0.632163	0.178159	0.000105
C16	C	0.736493	0.180971	0.000094
C17	C	1.095772	-0.056140	0.000120
C18	C	1.093012	-0.197741	0.000118
C19	C	1.003749	-0.264951	0.000100
C20	C	1.045909	-0.357518	0.080760
C21	C	1.045944	-0.357482	-0.080520
C22	C	1.135209	-0.288443	0.080844
C23	C	1.135232	-0.288398	-0.080509
C24	C	1.177457	-0.380938	0.000171
C25	C	1.259137	0.168116	0.000130
C26	C	1.361533	0.170866	0.000135
C27	C	1.085403	0.410227	0.000106
C28	C	1.088163	0.551828	0.000101
N29	N	1.090572	0.177026	0.254969
N30	N	1.090610	0.177050	-0.254742
C31	C	1.090596	0.177052	0.656260
C32	C	1.090586	0.177049	0.544609
C33	C	1.090584	0.177040	0.455618
C34	C	1.090574	0.177035	0.343960
H35	H	1.008134	-0.388140	0.148944
O36	O	1.265141	-0.440645	0.000100
C37	C	1.312400	-0.403818	-0.084194
H38	H	1.278418	-0.307778	-0.112035
H39	H	1.309221	-0.479430	-0.143983
C40	C	1.455961	-0.509141	-0.023701
C41	C	1.414228	-0.391178	-0.057891
H42	H	1.518774	-0.501350	-0.007480
H43	H	1.424121	-0.533957	0.033087
H44	H	1.453302	-0.572139	-0.073531
H45	H	1.416877	-0.328186	-0.008058
H46	H	1.446071	-0.366351	-0.114671
O47	O	1.180125	-0.251849	-0.161953
C48	C	1.132846	-0.286653	-0.246833
H49	H	1.057588	-0.297093	-0.227517
H50	H	1.167102	-0.381695	-0.276258
C51	C	1.229019	-0.169359	-0.349619
C52	C	1.136584	-0.182172	-0.325897
H53	H	1.231328	-0.104914	-0.398391
H54	H	1.260875	-0.145915	-0.292434
H55	H	1.257556	-0.248568	-0.374134
H56	H	1.108052	-0.102969	-0.301371
H57	H	1.104723	-0.205601	-0.383079
H58	H	1.172940	-0.258009	0.149112
O59	O	1.000758	-0.393792	-0.161846
C60	C	0.909196	-0.334173	-0.161532
H61	H	0.905367	-0.243987	-0.114312
H62	H	0.860908	-0.402996	-0.130060
C63	C	0.884283	-0.408672	-0.325487
C64	C	0.879582	-0.297898	-0.267497
H65	H	0.866013	-0.386301	-0.390850
H66	H	0.945969	-0.448843	-0.325697
H67	H	0.844043	-0.466014	-0.299249
H68	H	0.919829	-0.240566	-0.293728
H69	H	0.817902	-0.257716	-0.267293
H70	H	0.930357	-0.214534	0.000173
