data_functionalizedCrystal
_audit_creation_method	'MofGen! by Chris Wilmer'
_symmetry_space_group_name_H-M	'P1'
_symmetry_Int_Tables_number	1
_symmetry_cell_setting	triclinic
loop_
_symmetry_equiv_pos_as_xyz
  x,y,z
_cell_length_a	23.096457
_cell_length_b	19.851628
_cell_length_c	23.096457
_cell_angle_alpha	120.000915
_cell_angle_beta	119.999981
_cell_angle_gamma	89.999661
loop_
_atom_site_label
_atom_site_type_symbol
_atom_site_fract_x
_atom_site_fract_y
_atom_site_fract_z
Zr1	Zr	0.557775	-0.088390	-0.633744
O2	O	0.465322	-0.195945	-0.754538
O3	O	0.586114	-0.055424	-0.512956
O4	O	0.586108	-0.195958	-0.633755
O5	O	0.465336	0.055451	-0.633728
O6	O	0.681388	-0.195962	-0.633757
O7	O	0.465329	-0.055411	-0.633739
O8	O	0.681400	0.055428	-0.417669
O9	O	0.465324	-0.195939	-0.849816
O10	O	0.669310	-0.041361	-0.562636
O11	O	0.598209	0.041377	-0.562627
O12	O	0.598201	-0.124084	-0.704852
O13	O	0.527101	-0.041346	-0.704843
Zr14	Zr	0.709748	0.088415	-0.633728
Zr15	Zr	0.709736	-0.088397	-0.633746
Zr16	Zr	0.557787	0.088422	-0.633726
Zr17	Zr	0.557779	-0.088381	-0.785700
Zr18	Zr	0.709744	0.088406	-0.481772
O19	O	0.681409	0.055449	-0.754516
O20	O	0.681391	-0.195955	-0.754542
O21	O	0.465340	0.055458	-0.754513
O22	O	0.802201	0.195970	-0.512934
O23	O	0.802184	-0.055433	-0.512959
O24	O	0.586132	0.195980	-0.512930
O25	O	0.802187	-0.055426	-0.633745
O26	O	0.681415	0.195983	-0.633717
O27	O	0.586135	0.195987	-0.633715
O28	O	0.802195	0.055436	-0.633733
O29	O	0.586113	-0.195945	-0.849818
O30	O	0.681410	0.195970	-0.417655
O31	O	0.802199	0.195965	-0.417657
O32	O	0.802189	0.055423	-0.417671
O33	O	0.465334	-0.055398	-0.849801
O34	O	0.586123	-0.055403	-0.849803
O35	O	0.669322	0.124109	-0.562620
O36	O	0.740423	0.041371	-0.562629
O37	O	0.669314	-0.041352	-0.704845
O38	O	0.598213	0.041386	-0.704836
C39	C	0.443681	0.000021	-0.633733
C40	C	0.379170	0.000023	-0.633732
C41	C	0.633757	0.000001	-0.443662
C42	C	0.633755	-0.000003	-0.379152
C43	C	0.633777	0.221177	-0.633714
C44	C	0.633782	0.296238	-0.633706
C45	C	0.385982	0.043196	-0.559499
C46	C	0.325367	0.043200	-0.559498
C47	C	0.257939	0.000014	-0.633734
C48	C	0.251129	-0.043160	-0.707977
C49	C	0.311745	-0.043156	-0.707976
N50	N	0.135140	-0.070271	-0.688996
N51	N	0.077561	-0.070274	-0.688991
C52	C	0.075306	-0.000000	-0.633741
N53	N	0.132813	0.070275	-0.578482
N54	N	0.190399	0.070277	-0.578484
C55	C	0.192208	0.000005	-0.633743
C56	C	0.016395	0.043180	-0.559502
C57	C	-0.044223	0.043186	-0.559503
C58	C	-0.118460	-0.043182	-0.707985
C59	C	-0.057842	-0.043180	-0.707981
C60	C	0.009583	-0.000000	-0.633737
C61	C	0.823842	0.000004	-0.633739
C62	C	0.888353	0.000002	-0.633740
C63	C	0.633746	-0.221152	-0.633758
C64	C	0.633741	-0.296213	-0.633766
C65	C	0.672539	0.522687	-0.556182
C66	C	0.700639	0.545044	-0.594944
C67	C	0.633769	0.433645	-0.633727
C68	C	0.605689	0.545029	-0.594961
C69	C	0.633756	0.566377	-0.633742
C70	C	0.661908	0.455013	-0.672490
C71	C	0.566920	0.455000	-0.672495
C72	C	0.595004	0.477304	-0.711313
C73	C	0.633778	0.357183	-0.633717
C74	C	0.633749	0.642834	-0.633759
C75	C	0.670864	-0.043195	-0.348856
C76	C	0.670871	-0.043189	-0.288234
C77	C	0.633755	-0.000003	-0.257922
C78	C	0.596644	0.043199	-0.288222
C79	C	0.596644	0.043198	-0.348837
N80	N	0.573350	-0.005989	-0.195527
N81	N	0.573352	-0.005993	-0.137946
C82	C	0.633754	0.000003	-0.075291
N83	N	0.694154	0.005987	-0.072400
N84	N	0.694152	0.005987	-0.129988
C85	C	0.633751	0.000003	-0.192195
C86	C	0.670874	-0.043185	0.020738
C87	C	0.670883	-0.043173	0.081365
C88	C	0.596649	0.043209	0.081371
C89	C	0.596647	0.043203	0.020751
C90	C	0.633758	0.000001	-0.009564
C91	C	0.633766	0.000021	0.176188
C92	C	0.633768	0.000015	0.111674
C93	C	0.823837	-0.000007	-0.443665
C94	C	0.888347	-0.000014	-0.379157
C95	C	0.633772	0.221165	-0.443639
C96	C	0.633776	0.296222	-0.379122
C97	C	0.823852	0.221157	-0.443643
C98	C	0.888367	0.296212	-0.379127
C99	C	0.443671	-0.221132	-0.823830
C100	C	0.379156	-0.296187	-0.888346
C101	C	0.443686	0.000032	-0.823807
C102	C	0.379176	0.000039	-0.888316
C103	C	0.633751	-0.221140	-0.823833
C104	C	0.633748	-0.296197	-0.888350
C105	C	0.881521	-0.043210	-0.348866
C106	C	0.942129	-0.043233	-0.288262
C107	C	1.009562	-0.000055	-0.257945
C108	C	1.016386	0.043142	-0.288241
C109	C	0.955779	0.043160	-0.348849
C110	C	0.670897	0.374663	-0.348821
C111	C	0.670898	0.445194	-0.288209
C112	C	0.633781	0.437283	-0.257895
C113	C	0.596654	0.358834	-0.288203
C114	C	0.596650	0.288305	-0.348818
C115	C	0.955785	0.288270	-0.348834
C116	C	1.016409	0.358784	-0.288223
C117	C	1.009615	0.437241	-0.257901
C118	C	0.942191	0.445181	-0.288200
C119	C	0.881568	0.374667	-0.348814
C120	C	0.311738	-0.288245	-0.918645
C121	C	0.251114	-0.358759	-0.979275
C122	C	0.257908	-0.437215	-1.009600
C123	C	0.325333	-0.445156	-0.979298
C124	C	0.385956	-0.374642	-0.918673
C125	C	0.386002	0.043228	-0.918612
C126	C	0.325394	0.043231	-0.979233
C127	C	0.257961	0.000050	-1.009552
C128	C	0.251137	-0.043143	-0.979253
C129	C	0.311744	-0.043151	-0.918638
C130	C	0.670872	-0.288260	-0.918644
C131	C	0.670883	-0.358777	-0.979257
C132	C	0.633764	-0.437231	-1.009578
C133	C	0.596638	-0.445167	-0.979278
C134	C	0.596632	-0.374651	-0.918662
H135	H	0.440879	0.078351	-0.499044
H136	H	0.826620	-0.078381	-0.373550
C137	C	0.694078	0.402739	-0.716729
N138	N	0.718311	0.363367	-0.750045
C139	C	0.332858	0.090691	-0.477832
N140	N	0.338502	0.126460	-0.416321
H141	H	0.306177	-0.078318	-0.893972
C142	C	0.555779	-0.383396	-0.885356
N143	N	0.525004	-0.389989	-0.860275
C144	C	0.550715	0.452182	-0.799963
N145	N	0.517361	0.433264	-0.866732
C146	C	0.176954	-0.350006	-1.012595
N147	N	0.121098	-0.343411	-1.037690
C148	C	0.555815	0.090702	-0.254879
N149	N	0.525063	0.126485	-0.229763
C150	C	1.076226	-0.000076	-0.191270
N151	N	1.126434	-0.000091	-0.141047
C152	C	0.304247	-0.201949	-0.885304
N153	N	0.298599	-0.136953	-0.860200
H154	H	1.071298	0.078296	-0.263548
C155	C	0.711749	0.531479	-0.254874
N156	N	0.742521	0.596467	-0.229765
C157	C	0.191214	-0.514776	-1.076283
N158	N	0.140977	-0.573191	-1.126505
C159	C	0.555820	0.202022	-0.382134
N160	N	0.525065	0.137034	-0.407224
H161	H	-0.063392	-0.078341	-0.768429
C162	C	0.963299	0.090691	-0.382153
N163	N	0.968968	0.126495	-0.407234
C164	C	0.332794	-0.531466	-1.012657
N165	N	0.338412	-0.596476	-1.037780
H166	H	0.566417	-0.509054	-1.003975
C167	C	0.573609	0.597446	-0.550666
N168	N	0.549451	0.636927	-0.517299
H169	H	0.701084	-0.078370	-0.373535
C170	C	0.711694	-0.090708	-0.254904
N171	N	0.742440	-0.126500	-0.229803
C172	C	0.555832	0.350146	-0.254844
N173	N	0.525089	0.343604	-0.229713
C174	C	0.460173	0.090729	-0.885276
N175	N	0.516036	0.126505	-0.860176
H176	H	0.701123	0.381120	-0.373495
H177	H	0.826676	0.381145	-0.373470
H178	H	-0.038670	0.078348	-0.499051
H179	H	0.566424	0.078370	-0.373504
C180	C	1.090569	0.350032	-0.254899
N181	N	1.146425	0.343436	-0.229798
H182	H	0.633790	0.494719	-0.208538
H183	H	0.936559	-0.078409	-0.263603
C184	C	0.711721	-0.350029	-1.012580
N185	N	0.742480	-0.343438	-1.037678
C186	C	0.711713	-0.201966	-0.885298
N187	N	0.742481	-0.136972	-0.860181
H188	H	0.961330	0.224393	-0.373513
H189	H	0.071296	0.078357	-0.499048
C190	C	0.716895	0.547582	-0.467612
N191	N	0.750308	0.566323	-0.400905
H192	H	0.196226	-0.078321	-0.768420
H193	H	0.440848	-0.381118	-0.894004
H194	H	1.058984	0.494651	-0.208545
H195	H	0.510405	0.416201	-0.705239
C196	C	0.555832	0.090728	-0.012567
N197	N	0.525095	0.126533	-0.037656
C198	C	0.711705	-0.090697	-0.012602
N199	N	0.742460	-0.126483	-0.037711
C200	C	0.777005	0.597467	-0.550669
N201	N	0.834524	0.636952	-0.517316
H202	H	0.936669	0.509069	-0.263503
C203	C	0.332916	0.090757	-1.012544
N204	N	0.338584	0.126555	-1.037630
H205	H	0.701106	-0.078341	0.106036
C206	C	0.176954	-0.090626	-1.012602
N207	N	0.121077	-0.126381	-1.037715
C208	C	0.633776	-0.514794	-1.076259
N209	N	0.633787	-0.573212	-1.126484
H210	H	0.306192	-0.078310	-0.768427
H211	H	0.208616	0.000063	-1.058909
H212	H	-0.173360	-0.078345	-0.768429
H213	H	0.566429	0.078373	0.106050
