data_functionalizedCrystal
_audit_creation_method	'MofGen! by Chris Wilmer'
_symmetry_space_group_name_H-M	'P1'
_symmetry_Int_Tables_number	1
_symmetry_cell_setting	triclinic
loop_
_symmetry_equiv_pos_as_xyz
  x,y,z
_cell_length_a	12.759394
_cell_length_b	12.759395
_cell_length_c	12.759387
_cell_angle_alpha	89.979491
_cell_angle_beta	89.970303
_cell_angle_gamma	90.016178
loop_
_atom_site_label
_atom_site_type_symbol
_atom_site_fract_x
_atom_site_fract_y
_atom_site_fract_z
Zn1	Zn	-0.418168	1.606269	-0.594013
Zn2	Zn	-0.593885	1.606160	-0.418337
Zn3	Zn	-0.418225	1.430567	-0.418350
Zn4	Zn	-0.593810	1.430560	-0.593976
O5	O	-0.506022	1.518389	-0.506169
O6	O	-0.441485	1.753276	-0.570719
O7	O	-0.570639	1.582825	-0.271318
O8	O	-0.271197	1.453923	-0.441673
O9	O	-0.570583	1.753195	-0.441651
O10	O	-0.271154	1.583011	-0.570732
O11	O	-0.441582	1.453817	-0.271327
O12	O	-0.441510	1.283545	-0.441637
O13	O	-0.570456	1.453911	-0.741002
O14	O	-0.570511	1.283540	-0.570669
O15	O	-0.441412	1.583003	-0.741029
O16	O	-0.740896	1.582817	-0.441615
O17	O	-0.740841	1.453805	-0.570656
C18	C	-0.778990	1.518327	-0.506153
C19	C	-0.895766	1.518396	-0.506181
C20	C	-0.506009	1.245422	-0.506151
C21	C	-0.506029	1.128645	-0.506168
C22	C	-1.115194	1.652960	-0.371955
C23	C	-1.060324	1.720156	-0.304813
C24	C	-0.950602	1.720101	-0.304792
C25	C	-0.895748	1.652842	-0.371918
C26	C	-0.950618	1.585646	-0.439060
C27	C	-1.060342	1.585710	-0.439076
C28	C	-0.950636	1.451201	-0.573323
C29	C	-1.060358	1.451259	-0.573351
C30	C	-0.895782	1.383942	-0.640450
C31	C	-0.950652	1.316750	-0.707599
C32	C	-1.060380	1.316808	-0.707617
C33	C	-1.115228	1.384064	-0.640493
C34	C	-0.640576	1.128678	-0.640312
C35	C	-0.707857	1.073833	-0.707386
C36	C	-0.707870	0.964112	-0.707399
C37	C	-0.640592	0.909232	-0.640332
C38	C	-0.573310	0.964076	-0.573258
C39	C	-0.573307	1.073800	-0.573250
C40	C	-0.438760	0.964043	-0.439121
C41	C	-0.438751	1.073765	-0.439101
C42	C	-0.371482	0.909164	-0.372054
C43	C	-0.304204	0.964008	-0.304973
C44	C	-0.304195	1.073736	-0.304962
C45	C	-0.371469	1.128609	-0.372027
C46	C	-0.231989	1.518480	-0.506208
C47	C	-0.115212	1.518519	-0.506225
C48	C	-0.505919	1.518468	-0.780203
C49	C	-0.505875	1.518502	-0.896979
C50	C	-0.506036	1.792422	-0.506188
C51	C	-0.506042	1.909199	-0.506196
C52	C	-0.371511	1.652936	-0.897028
C53	C	-0.304313	1.720167	-0.951912
C54	C	-0.304275	1.720193	-1.061634
C55	C	-0.371439	1.652977	-1.116473
C56	C	-0.438637	1.585746	-1.061589
C57	C	-0.438671	1.585730	-0.951864
C58	C	-0.572995	1.451309	-1.061540
C59	C	-0.573040	1.451287	-0.951819
C60	C	-0.640159	1.384093	-1.116380
C61	C	-0.707364	1.316866	-1.061495
C62	C	-0.707400	1.316844	-0.951766
C63	C	-0.640238	1.384056	-0.896934
C64	C	-0.506049	1.518370	-0.233202
C65	C	-0.505797	1.518540	-0.116425
H66	H	-1.104998	1.774915	-0.250157
O67	O	-1.233536	1.653029	-0.371978
H68	H	-1.262475	1.595010	-0.429947
O69	O	-0.371387	1.653000	-1.234816
H70	H	-0.350124	1.573770	-1.263730
O71	O	-0.231774	1.792684	-1.120833
H72	H	-0.243023	1.781391	-1.206342
H73	H	-0.762651	0.919458	-0.762022
O74	O	-0.640124	1.384114	-1.234723
H75	H	-0.582122	1.442162	-1.263677
H76	H	-0.371492	0.819823	-0.372074
O77	O	-1.119562	1.244334	-0.780037
H78	H	-1.062982	1.197566	-0.826710
O79	O	-1.233571	1.384130	-0.640507
H80	H	-1.262514	1.326110	-0.698474
O81	O	-0.891410	1.792577	-0.232382
H82	H	-0.947981	1.839361	-0.185713
H83	H	-0.762038	1.262139	-1.106154
O84	O	-0.231624	1.132891	-0.232619
H85	H	-0.278576	1.182850	-0.179081
H86	H	-0.806407	1.652794	-0.371886
H87	H	-0.806441	1.383898	-0.640424
O88	O	-0.371464	1.246952	-0.372008
H89	H	-0.350326	1.275925	-0.451285
O90	O	-0.779858	1.244309	-0.892568
H91	H	-0.826547	1.197576	-0.949139
O92	O	-0.891494	1.244213	-0.779995
H93	H	-0.805980	1.255464	-0.768700
O94	O	-0.371557	1.652938	-0.778685
H95	H	-0.450815	1.674145	-0.749757
O96	O	-0.640567	1.247020	-0.640287
H97	H	-0.698648	1.275968	-0.698191
H98	H	-0.762632	1.118529	-0.761992
H99	H	-0.249627	1.774891	-0.907250
H100	H	-0.640265	1.384049	-0.807593
H101	H	-0.640599	0.819891	-0.640358
H102	H	-0.249426	0.919316	-0.250377
