data_functionalizedCrystal
_audit_creation_method	'MofGen! by Chris Wilmer'
_symmetry_space_group_name_H-M	'P1'
_symmetry_Int_Tables_number	1
_symmetry_cell_setting	triclinic
loop_
_symmetry_equiv_pos_as_xyz
  x,y,z
_cell_length_a	13.339071
_cell_length_b	27.731996
_cell_length_c	11.804917
_cell_angle_alpha	78.265255
_cell_angle_beta	105.117150
_cell_angle_gamma	99.125332
loop_
_atom_site_label
_atom_site_type_symbol
_atom_site_fract_x
_atom_site_fract_y
_atom_site_fract_z
O1	O	1.317837	0.248813	-0.099107
O2	O	1.817837	0.748813	0.400893
O3	O	1.023821	0.217073	-0.099096
O4	O	1.523821	0.717073	0.400904
O5	O	1.179994	0.163804	-0.099076
O6	O	1.679994	0.663804	0.400924
O7	O	1.161665	0.302082	-0.099127
O8	O	1.661665	0.802082	0.400873
O9	O	1.221086	0.149805	0.098967
O10	O	1.721086	0.649805	0.598967
O11	O	1.064913	0.203074	0.098947
O12	O	1.564913	0.703074	0.598947
O13	O	1.358930	0.234814	0.098936
O14	O	1.858930	0.734814	0.598936
Cu15	Cu	1.215673	0.217666	0.117025
Cu16	Cu	1.715673	0.717666	0.617025
Cu17	Cu	1.167077	0.234221	-0.117184
Cu18	Cu	1.667077	0.734221	0.382816
O19	O	1.202757	0.288083	0.098916
O20	O	1.702757	0.788083	0.598916
C21	C	1.006764	0.204712	-0.000072
C22	C	1.506764	0.704712	0.499928
C23	C	0.894720	0.188731	-0.000067
C24	C	1.394720	0.688731	0.499933
C25	C	0.854825	0.138894	-0.000045
C26	C	1.354825	0.638894	0.499955
C27	C	0.749553	0.123878	-0.000045
C28	C	1.249553	0.623878	0.499955
C29	C	0.684167	0.158696	-0.000059
C30	C	1.184167	0.658696	0.499941
C31	C	0.724063	0.208534	-0.000073
C32	C	1.224063	0.708534	0.499927
C33	C	0.829344	0.223552	-0.000082
C34	C	1.329344	0.723552	0.499918
C35	C	0.658686	0.243354	-0.000097
C36	C	1.158686	0.743354	0.499903
C37	C	0.698582	0.293192	-0.000111
C38	C	1.198582	0.793192	0.499889
C39	C	0.803852	0.308208	-0.000119
C40	C	1.303852	0.808208	0.499881
C41	C	0.869238	0.273389	-0.000105
C42	C	1.369238	0.773389	0.499895
C43	C	0.553405	0.228336	-0.000088
C44	C	1.053405	0.728336	0.499912
C45	C	0.527924	0.312994	-0.000125
C46	C	1.027924	0.812994	0.499875
C47	C	0.633196	0.328010	-0.000125
C48	C	1.133196	0.828010	0.499875
C49	C	1.200164	0.138745	-0.000050
C50	C	1.700164	0.638745	0.499950
C51	C	1.199033	0.084932	-0.000038
C52	C	1.699033	0.584932	0.499962
C53	C	1.169491	-0.241131	-0.108049
C54	C	1.669491	0.258869	0.391951
C55	C	1.165183	-0.443381	-0.108070
C56	C	1.665183	0.056619	0.391930
O57	O	1.145533	-0.463044	-0.199881
O58	O	1.645533	0.036956	0.300119
N59	N	1.187047	-0.476302	-0.000118
N60	N	1.687047	0.023698	0.499882
C61	C	1.209984	-0.458659	0.107847
C62	C	1.709984	0.041341	0.607847
O63	O	1.228472	-0.491303	0.199667
O64	O	1.728472	0.008697	0.699667
C65	C	1.214285	-0.256411	0.107867
C66	C	1.714285	0.243589	0.607867
C67	C	1.192429	-0.223491	-0.000092
C68	C	1.692429	0.276509	0.499908
C69	C	1.147636	-0.208212	-0.216000
C70	C	1.647636	0.291788	0.284000
C71	C	1.148719	-0.157652	-0.215993
C72	C	1.648719	0.342348	0.284007
C73	C	1.171657	-0.140012	-0.108037
C74	C	1.671657	0.359988	0.391963
C75	C	1.193512	-0.172932	-0.000086
C76	C	1.693512	0.327068	0.499914
C77	C	1.237214	-0.238770	0.215831
C78	C	1.737214	0.261230	0.715831
C79	C	1.238284	-0.188204	0.215826
C80	C	1.738284	0.311796	0.715826
C81	C	1.216429	-0.155284	0.107867
C82	C	1.716429	0.344716	0.607867
C83	C	1.217532	-0.104732	0.107877
C84	C	1.717532	0.395268	0.607877
N85	N	1.195668	-0.071810	-0.000075
N86	N	1.695668	0.428190	0.499925
C87	C	1.172730	-0.089450	-0.108032
C88	C	1.672730	0.410550	0.391968
C89	C	1.207726	-0.564842	0.107830
C90	C	1.707726	-0.064842	0.607830
C91	C	1.206653	-0.615404	0.107825
C92	C	1.706653	-0.115404	0.607825
C93	C	1.161850	-0.600122	-0.108093
C94	C	1.661850	-0.100122	0.391907
C95	C	1.162931	-0.549558	-0.108087
C96	C	1.662931	-0.049558	0.391913
C97	C	1.185862	-0.531920	-0.000123
C98	C	1.685862	-0.031920	0.499877
C99	C	1.175006	0.016728	-0.108011
C100	C	1.675006	0.516728	0.391989
C101	C	1.176095	0.067292	-0.107995
C102	C	1.676095	0.567292	0.392005
C103	C	1.220893	0.052005	0.107922
C104	C	1.720893	0.552005	0.607922
C105	C	1.219809	0.001446	0.107907
C106	C	1.719809	0.501446	0.607907
C107	C	1.196861	-0.016191	-0.000069
C108	C	1.696861	0.483809	0.499931
O109	O	1.237161	-0.085035	0.199640
O110	O	1.737161	0.414965	0.699640
O111	O	1.154223	-0.056801	-0.199838
O112	O	1.654223	0.443199	0.300162
C113	C	1.168408	-0.291691	-0.108055
C114	C	1.668408	0.208309	0.391945
C115	C	1.190263	-0.324611	-0.000105
C116	C	1.690263	0.175389	0.499895
C117	C	1.213201	-0.306970	0.107852
C118	C	1.713201	0.193030	0.607852
C119	C	1.189190	-0.375172	-0.000110
C120	C	1.689190	0.124828	0.499890
C121	C	1.166252	-0.392812	-0.108066
C122	C	1.666252	0.107188	0.391934
C123	C	1.144388	-0.359891	-0.216019
C124	C	1.644388	0.140109	0.283981
C125	C	1.145471	-0.309331	-0.216012
C126	C	1.645471	0.190669	0.283988
C127	C	1.235066	-0.339892	0.215804
C128	C	1.735066	0.160108	0.715804
C129	C	1.233982	-0.390451	0.215789
C130	C	1.733982	0.109549	0.715789
C131	C	1.211044	-0.408091	0.107832
C132	C	1.711044	0.091909	0.607832
C133	C	1.375986	0.247175	-0.000090
C134	C	1.875986	0.747175	0.499910
C135	C	1.488029	0.263157	-0.000103
C136	C	1.988029	0.763157	0.499897
C137	C	1.182586	0.313143	-0.000112
C138	C	1.682586	0.813143	0.499888
C139	C	1.183715	0.366956	-0.000132
C140	C	1.683715	0.866956	0.499868
N141	N	1.249861	0.206022	0.281755
N142	N	1.749861	0.706022	0.781755
N143	N	1.132898	0.245862	-0.281914
N144	N	1.632898	0.745862	0.218086
C145	C	1.331964	0.178039	0.344075
C146	C	1.831964	0.678039	0.844075
C147	C	1.357829	0.169215	0.468728
C148	C	1.857829	0.669215	0.968728
C149	C	1.301598	0.188376	0.531074
C150	C	1.801598	0.688376	1.031074
C151	C	1.219498	0.216363	0.468754
C152	C	1.719498	0.716363	0.968754
C153	C	1.193626	0.225185	0.344088
C154	C	1.693626	0.725185	0.844088
C155	C	1.163260	0.235522	0.531087
C156	C	1.663260	0.735522	1.031087
C157	C	1.081160	0.263508	0.468767
C158	C	1.581160	0.763508	0.968767
C159	C	1.055292	0.272329	0.344113
C160	C	1.555292	0.772329	0.844113
C161	C	1.111523	0.253168	0.281768
C162	C	1.611523	0.753168	0.781768
C163	C	1.189133	0.226700	0.655753
C164	C	1.689133	0.726700	1.155753
C165	C	1.050795	0.273845	0.655766
C166	C	1.550795	0.773845	1.155766
C167	C	1.024930	0.282669	0.531112
C168	C	1.524930	0.782669	1.031112
H169	H	0.665694	0.368589	-0.000137
H170	H	1.165694	0.868589	0.499863
Cl171	Cl	1.334118	0.177284	0.687783
Cl172	Cl	1.834118	0.677284	1.187783
H173	H	0.717077	0.083301	-0.000035
H174	H	1.217077	0.583301	0.499965
Cl175	Cl	1.402637	0.153949	0.265697
Cl176	Cl	1.902637	0.653949	0.765697
H177	H	1.255979	0.203913	0.706483
H178	H	1.755979	0.703913	1.206483
Cl179	Cl	1.461033	0.134034	0.547071
Cl180	Cl	1.961033	0.634034	1.047071
Cl181	Cl	1.079009	0.264264	0.125053
Cl182	Cl	1.579009	0.764264	0.625053
Cl183	Cl	0.952070	0.307505	0.265766
Cl184	Cl	1.452070	0.807505	0.765766
Cl185	Cl	0.921720	0.317851	0.452755
Cl186	Cl	1.421720	0.817851	0.952755
Cl187	Cl	1.234150	-0.656782	0.243551
Cl188	Cl	1.734150	-0.156782	0.743551
Cl189	Cl	1.264685	-0.280144	0.351560
Cl190	Cl	1.764685	0.219856	0.851560
Cl191	Cl	1.121232	-0.116275	-0.351722
Cl192	Cl	1.621232	0.383725	0.148278
Cl193	Cl	0.937025	0.095129	-0.000034
Cl194	Cl	1.437025	0.595129	0.499966
H195	H	0.474686	0.341346	-0.000137
H196	H	0.974686	0.841346	0.499863
H197	H	1.226405	-0.550486	0.195752
H198	H	1.726405	-0.050486	0.695752
H199	H	1.005005	0.289447	0.706527
H200	H	1.505005	0.789447	1.206527
Cl201	Cl	1.148620	0.108675	-0.243725
Cl202	Cl	1.648620	0.608675	0.256275
H203	H	1.156314	0.002374	-0.195935
H204	H	1.656314	0.502374	0.304065
Cl205	Cl	1.001561	0.292274	-0.000231
Cl206	Cl	1.501561	0.792274	0.499769
Cl207	Cl	1.267115	-0.166034	0.351562
Cl208	Cl	1.767115	0.333966	0.851562
Cl209	Cl	1.118798	-0.230378	-0.351736
Cl210	Cl	1.618798	0.269622	0.148264
H211	H	0.520932	0.187758	-0.000077
H212	H	1.020932	0.687758	0.499923
H213	H	0.598450	0.146467	-0.000059
H214	H	1.098450	0.646467	0.499941
H215	H	1.145132	-0.522758	-0.195997
H216	H	1.645132	-0.022758	0.304003
Cl217	Cl	0.854000	0.370862	-0.000159
Cl218	Cl	1.354000	0.870862	0.499841
H219	H	1.237615	-0.025359	0.195816
H220	H	1.737615	0.474641	0.695816
Cl221	Cl	1.249727	0.074191	0.243632
Cl222	Cl	1.749727	0.574191	0.743632
Cl223	Cl	1.133008	-0.622307	-0.243809
Cl224	Cl	1.633008	-0.122307	0.256191
H225	H	1.127673	-0.282531	-0.303924
H226	H	1.627673	0.217469	0.196076
H227	H	1.125716	-0.374262	-0.303921
H228	H	1.625716	0.125738	0.196079
H229	H	1.251789	-0.417251	0.303709
H230	H	1.751789	0.082749	0.803709
H231	H	1.253746	-0.325535	0.303717
H232	H	1.753746	0.174465	0.803717
