data_functionalizedCrystal
_audit_creation_method	'MofGen! by Chris Wilmer'
_symmetry_space_group_name_H-M	'P1'
_symmetry_Int_Tables_number	1
_symmetry_cell_setting	triclinic
loop_
_symmetry_equiv_pos_as_xyz
  x,y,z
_cell_length_a	10.540539
_cell_length_b	16.992694
_cell_length_c	15.455313
_cell_angle_alpha	92.857794
_cell_angle_beta	92.694186
_cell_angle_gamma	92.403143
loop_
_atom_site_label
_atom_site_type_symbol
_atom_site_fract_x
_atom_site_fract_y
_atom_site_fract_z
O1	O	0.264111	-1.045302	-0.072015
O2	O	0.261155	-0.817001	-0.072041
O3	O	0.078379	-0.936360	-0.072026
O4	O	0.446887	-0.925943	-0.072030
O5	O	0.088785	-0.929534	0.072235
O6	O	0.271561	-0.810175	0.072220
O7	O	0.274517	-1.038476	0.072246
Cu8	Cu	0.273989	-0.923702	0.085405
Cu9	Cu	0.261683	-0.931774	-0.085200
O10	O	0.457293	-0.919117	0.072232
C11	C	0.262557	-0.784354	0.000086
C12	C	0.251216	-0.697247	0.000077
C13	C	0.036211	-0.932166	0.000103
C14	C	-0.104941	-0.929829	0.000098
N15	N	0.282645	-0.918030	0.205400
C16	C	-0.296163	-0.840284	-0.000236
C17	C	-0.149316	-0.842638	0.000089
C18	C	-0.157014	-0.967891	0.082483
C19	C	-0.303812	-0.964912	0.082552
C20	C	-0.316010	-0.974447	-0.081500
C21	C	-0.169037	-0.975302	-0.082589
C22	C	0.499461	-0.923311	0.000101
C23	C	0.640612	-0.925648	0.000100
C24	C	0.273115	-1.071122	0.000117
C25	C	0.284456	-1.158230	0.000121
C26	C	0.360636	-0.647619	0.000076
C27	C	0.349973	-0.565773	0.000088
C28	C	0.229889	-0.533555	0.000094
C29	C	0.120461	-0.583189	0.000097
C30	C	0.131125	-0.665034	0.000092
C31	C	0.185692	-0.289709	0.000118
C32	C	0.175036	-0.207858	0.000121
C33	C	0.404549	-0.190446	0.000114
C34	C	0.415202	-0.272294	0.000103
C35	C	0.305774	-0.321921	0.000110
N36	N	0.218988	-0.449895	0.000104
N37	N	0.316677	-0.405579	0.000107
N38	N	0.253018	-0.937452	-0.205195
C39	C	0.205027	-0.968756	0.250801
C40	C	0.211585	-0.964474	0.341608
C41	C	0.295768	-0.909469	0.387013
C42	C	0.373389	-0.858738	0.341607
C43	C	0.366823	-0.863017	0.250801
C44	C	0.324073	-0.891000	0.658593
C45	C	0.330635	-0.886727	0.749405
C46	C	0.168829	-0.992462	0.749400
C47	C	0.162277	-0.996739	0.658592
C48	C	0.239893	-0.946005	0.613193
N49	N	0.302477	-0.905093	0.479833
N50	N	0.233177	-0.950379	0.520375
H51	H	-0.113837	-0.812416	-0.058968
H52	H	0.439075	-0.525368	0.000087
N53	N	-0.359779	-1.047737	0.087535
H54	H	-0.409660	-1.051221	0.141537
H55	H	-0.418042	-1.061417	0.034697
H56	H	0.512986	-0.298519	0.000088
H57	H	0.493639	-0.150032	0.000110
H58	H	0.077244	-0.181630	0.000125
H59	H	-0.128883	-1.031777	0.085553
N60	N	0.490155	-0.682366	0.000059
H61	H	0.557853	-0.638504	0.000062
H62	H	0.503442	-0.713424	0.053535
N63	N	0.071491	-1.056072	0.609619
H64	H	0.009463	-1.027562	0.571945
H65	H	0.120976	-1.092829	0.571992
N66	N	-0.009058	-0.548443	0.000096
H67	H	-0.076757	-0.592303	0.000096
H68	H	-0.014626	-0.512339	0.053576
N69	N	-0.343658	-0.798355	-0.078487
H70	H	-0.301914	-0.743696	-0.077447
H71	H	-0.321992	-0.829072	-0.133053
H72	H	0.441928	-0.813948	0.378581
H73	H	-0.106178	-0.806591	0.059237
N74	N	-0.124182	-0.938507	-0.163326
H75	H	-0.062595	-0.892576	-0.146421
H76	H	-0.080429	-0.979102	-0.199881
N77	N	0.067661	-0.343219	0.000127
H78	H	0.011779	-0.335303	-0.053349
H79	H	0.092724	-0.399936	0.000160
H80	H	0.042024	-0.705441	0.000091
N81	N	-0.098071	-0.925455	0.163688
H82	H	-0.037639	-0.881574	0.147299
H83	H	-0.167202	-0.902569	0.198998
N84	N	0.114237	-1.028088	0.201831
H85	H	0.066061	-1.059571	0.244374
H86	H	0.052288	-0.999517	0.164163
H87	H	0.105637	-1.033766	0.786371
H88	H	0.430026	-0.821710	0.213837
N89	N	0.127916	-1.019212	0.390576
H90	H	0.073613	-1.054719	0.348033
H91	H	0.182866	-1.052375	0.428226
N92	N	0.407794	-0.836295	0.609626
H93	H	0.352981	-0.803063	0.571961
H94	H	0.462115	-0.800854	0.652219
H95	H	0.399192	-0.841933	0.786370
N96	N	-0.338846	-0.919968	0.164112
H97	H	-0.387254	-0.872302	0.148142
H98	H	-0.393730	-0.955269	0.199125
N99	N	-0.334494	-0.791158	0.077571
H100	H	-0.392636	-0.823959	0.113037
H101	H	-0.256053	-0.772748	0.114289
H102	H	-0.354516	-0.949182	-0.143942
H103	H	-0.357811	-1.037451	-0.082047
N104	N	-0.130133	-1.059820	-0.089176
H105	H	-0.070142	-1.069876	-0.038425
H106	H	-0.208145	-1.096334	-0.088465
