data_functionalizedCrystal
_audit_creation_method	'MofGen! by Chris Wilmer'
_symmetry_space_group_name_H-M	'P1'
_symmetry_Int_Tables_number	1
_symmetry_cell_setting	triclinic
loop_
_symmetry_equiv_pos_as_xyz
  x,y,z
_cell_length_a	10.685980
_cell_length_b	16.625545
_cell_length_c	10.685880
_cell_angle_alpha	94.337694
_cell_angle_beta	80.918858
_cell_angle_gamma	94.392107
loop_
_atom_site_label
_atom_site_type_symbol
_atom_site_fract_x
_atom_site_fract_y
_atom_site_fract_z
Zn1	Zn	1.995660	-0.265673	-0.866651
Zn2	Zn	1.979212	-0.390941	-0.654384
Zn3	Zn	1.767100	-0.265716	-0.638123
Zn4	Zn	1.783319	-0.410064	-0.850286
O5	O	1.881322	-0.333098	-0.752361
O6	O	2.171113	-0.274269	-0.852147
O7	O	1.937404	-0.366344	-0.474602
O8	O	1.797514	-0.152875	-0.668482
O9	O	2.159029	-0.366303	-0.696196
O10	O	1.965436	-0.152844	-0.836380
O11	O	1.781566	-0.274342	-0.462655
O12	O	1.591616	-0.292885	-0.652613
O13	O	1.825157	-0.398895	-1.030082
O14	O	1.603532	-0.398937	-0.808488
O15	O	1.981163	-0.292812	-1.042105
O16	O	1.953131	-0.506312	-0.680327
O17	O	1.809209	-0.520362	-0.824256
C18	C	1.551515	-0.347991	-0.727011
C19	C	1.410425	-0.354383	-0.716196
C20	C	1.881181	-0.542594	-0.752311
C21	C	1.881241	-0.632213	-0.752340
C22	C	1.881292	-0.704995	-0.752369
C23	C	1.881368	-0.796301	-0.752403
C24	C	1.881435	-0.869075	-0.752424
C25	C	1.881510	-0.960387	-0.752456
C26	C	2.212417	-0.318148	-0.777811
C27	C	2.353510	-0.311777	-0.788656
C28	C	1.906804	-0.347982	-1.083438
C29	C	1.917663	-0.354325	-1.224523
C30	C	1.881501	-0.122785	-0.752442
C31	C	1.881577	-0.033162	-0.752477
C32	C	1.856013	-0.318211	-0.422578
C33	C	1.845400	-0.311631	-0.281513
H34	H	1.412722	-0.270406	-0.858963
H35	H	1.351206	-0.395752	-0.645876
H36	H	1.775216	-0.270228	-1.222369
H37	H	1.987847	-0.395733	-1.283672
