data_functionalizedCrystal
_audit_creation_method	'MofGen! by Chris Wilmer'
_symmetry_space_group_name_H-M	'P1'
_symmetry_Int_Tables_number	1
_symmetry_cell_setting	triclinic
loop_
_symmetry_equiv_pos_as_xyz
  x,y,z
_cell_length_a	27.440280
_cell_length_b	23.096457
_cell_length_c	27.440280
_cell_angle_alpha	60.001522
_cell_angle_beta	90.007570
_cell_angle_gamma	59.998890
loop_
_atom_site_label
_atom_site_type_symbol
_atom_site_fract_x
_atom_site_fract_y
_atom_site_fract_z
Zr1	Zr	0.469509	0.633669	-0.063874
O2	O	0.391684	0.754472	-0.141697
O3	O	0.493364	0.512878	-0.040020
O4	O	0.493356	0.633672	-0.141688
O5	O	0.391700	0.633671	0.040172
O6	O	0.573559	0.633661	-0.141678
O7	O	0.391692	0.633678	-0.040029
O8	O	0.573573	0.417582	0.040187
O9	O	0.391686	0.849750	-0.141693
O10	O	0.563395	0.562548	-0.029836
O11	O	0.503546	0.562552	0.030010
O12	O	0.503537	0.704771	-0.089691
O13	O	0.443689	0.704775	-0.029846
Zr14	Zr	0.597436	0.633641	0.064053
Zr15	Zr	0.597423	0.633651	-0.063858
Zr16	Zr	0.469521	0.633658	0.064037
Zr17	Zr	0.469512	0.785626	-0.063869
Zr18	Zr	0.597432	0.481683	0.064048
O19	O	0.573580	0.754432	0.040199
O20	O	0.573562	0.754447	-0.141674
O21	O	0.391703	0.754457	0.040176
O22	O	0.675260	0.512838	0.141876
O23	O	0.675242	0.512853	-0.039998
O24	O	0.493382	0.512863	0.141853
O25	O	0.675244	0.633638	-0.039993
O26	O	0.573588	0.633637	0.141867
O27	O	0.493385	0.633649	0.141857
O28	O	0.675252	0.633632	0.040208
O29	O	0.493361	0.849736	-0.141681
O30	O	0.573583	0.417574	0.141859
O31	O	0.675258	0.417560	0.141872
O32	O	0.675248	0.417568	0.040200
O33	O	0.391697	0.849742	-0.040021
O34	O	0.493371	0.849728	-0.040008
O35	O	0.563407	0.562538	0.089870
O36	O	0.623255	0.562535	0.030025
O37	O	0.563398	0.704758	-0.029831
O38	O	0.503549	0.704761	0.030015
C39	C	0.533468	0.443579	0.000083
C40	C	0.533467	0.379070	0.000080
C41	C	0.373471	0.633677	0.000069
C42	C	0.319168	0.633685	0.000063
C43	C	0.564703	0.348767	-0.031161
C44	C	0.564709	0.288144	-0.031156
C45	C	0.533467	0.257839	0.000082
C46	C	0.502229	0.288146	0.031330
C47	C	0.502229	0.348761	0.031329
N48	N	0.482621	0.195451	-0.004257
N49	N	0.482622	0.137870	-0.004259
C50	C	0.533466	0.075207	0.000087
N51	N	0.584308	0.072307	0.004425
N52	N	0.584306	0.129896	0.004424
C53	C	0.533464	0.192111	0.000087
C54	C	0.564711	-0.020830	-0.031150
C55	C	0.564719	-0.081457	-0.031140
C56	C	0.502234	-0.081449	0.031341
C57	C	0.502232	-0.020829	0.031336
C58	C	0.533469	0.009479	0.000087
C59	C	0.013715	0.559402	0.031350
C60	C	-0.037303	0.559398	0.031355
O61	O	-0.037119	0.496261	0.057945
N62	N	-0.094065	0.633636	0.000110
C63	C	-0.099807	0.707884	-0.031136
O64	O	-0.152772	0.771028	-0.057711
C65	C	-0.048790	0.707887	-0.031138
C66	C	0.007971	0.633644	0.000104
C67	C	0.070474	0.485165	0.062589
C68	C	0.121489	0.485170	0.062583
C69	C	0.115745	0.559412	0.031337
C70	C	0.058986	0.633649	0.000097
C71	C	-0.054533	0.782134	-0.062381
C72	C	-0.003509	0.782131	-0.062379
C73	C	0.053252	0.707888	-0.031138
C74	C	0.104257	0.707896	-0.031155
N75	N	0.161019	0.633658	0.000090
C76	C	0.166763	0.559416	0.031336
C77	C	-0.206946	0.707870	-0.031130
C78	C	-0.257963	0.707867	-0.031133
C79	C	-0.195456	0.559381	0.031360
C80	C	-0.144438	0.559385	0.031358
C81	C	-0.150184	0.633632	0.000114
C82	C	0.273895	0.559431	0.031320
C83	C	0.324912	0.559443	0.031308
C84	C	0.262400	0.707928	-0.031181
C85	C	0.211387	0.707917	-0.031173
C86	C	0.217139	0.633662	0.000082
O87	O	0.104119	0.771001	-0.057729
O88	O	0.219729	0.496281	0.057913
C89	C	0.693473	0.633633	0.000109
C90	C	0.747776	0.633625	0.000116
C91	C	0.533456	0.633668	-0.159908
C92	C	0.533451	0.633673	-0.214210
C93	C	0.533476	0.823730	0.000096
C94	C	0.533477	0.888240	0.000098
C95	C	0.489285	0.633650	-0.448903
C96	C	0.489282	0.633651	-0.397883
O97	O	0.451716	0.633629	-0.371487
N98	N	0.533464	0.633651	-0.372364
C99	C	0.577655	0.633641	-0.397864
O100	O	0.615236	0.633640	-0.371474
C101	C	0.577660	0.633634	-0.448881
C102	C	0.533471	0.633642	-0.474400
C103	C	0.445100	0.633657	-0.474422
C104	C	0.445102	0.633657	-0.525439
C105	C	0.489289	0.633649	-0.550936
C106	C	0.533474	0.633642	-0.525417
C107	C	0.621853	0.633617	-0.474377
C108	C	0.621854	0.633609	-0.525397
C109	C	0.577666	0.633618	-0.550916
C110	C	0.577663	0.633634	-0.601931
N111	N	0.533481	0.633634	-0.627450
C112	C	0.489294	0.633641	-0.601952
C113	C	0.577643	0.633656	-0.290726
C114	C	0.577636	0.633669	-0.239713
C115	C	0.489263	0.633678	-0.239735
C116	C	0.489268	0.633670	-0.290751
C117	C	0.533460	0.633656	-0.316245
C118	C	0.489302	0.633642	-0.709091
C119	C	0.489307	0.633645	-0.760114
C120	C	0.577681	0.633632	-0.760086
C121	C	0.577675	0.633633	-0.709070
C122	C	0.533482	0.633635	-0.683573
O123	O	0.615211	0.633652	-0.628358
O124	O	0.451724	0.633631	-0.628345
C125	C	0.533488	0.633642	0.160087
C126	C	0.533494	0.633637	0.214388
C127	C	0.693469	0.443557	0.000103
C128	C	0.747771	0.379040	0.000107
C129	C	0.533484	0.443566	0.160080
C130	C	0.533488	0.379052	0.214379
C131	C	0.693485	0.443544	0.160100
C132	C	0.747792	0.379022	0.214406
C133	C	0.373459	0.823766	-0.159921
C134	C	0.319152	0.888288	-0.214227
C135	C	0.373475	0.823753	0.000076
C136	C	0.319173	0.888270	0.000072
C137	C	0.533460	0.823744	-0.159901
C138	C	0.533456	0.888258	-0.214201
C139	C	0.742025	0.348749	-0.031143
C140	C	0.793042	0.288136	-0.031150
C141	C	0.849804	0.257811	0.000096
C142	C	0.855549	0.288109	0.031346
C143	C	0.804533	0.348724	0.031350
C144	C	0.564737	0.348748	0.271131
C145	C	0.564738	0.288138	0.322156
C146	C	0.533494	0.257829	0.316428
C147	C	0.502242	0.288139	0.259670
C148	C	0.502237	0.348752	0.208647
C149	C	0.804541	0.348720	0.208670
C150	C	0.855573	0.288103	0.259692
C151	C	0.849855	0.257785	0.316449
C152	C	0.793100	0.288093	0.322183
C153	C	0.742070	0.348713	0.271163
C154	C	0.262403	0.918597	-0.208491
C155	C	0.211371	0.979233	-0.259513
C156	C	0.217089	1.009554	-0.316270
C157	C	0.273844	0.979242	-0.322005
C158	C	0.324875	0.918612	-0.270984
C159	C	0.324919	0.918568	0.031316
C160	C	0.273902	0.979197	0.031310
C161	C	0.217140	1.009524	0.000062
C162	C	0.211395	0.979224	-0.031186
C163	C	0.262411	0.918599	-0.031183
C164	C	0.564706	0.918548	-0.208454
C165	C	0.564714	0.979158	-0.259469
C166	C	0.533468	1.009481	-0.316230
C167	C	0.502217	0.979185	-0.321976
C168	C	0.502213	0.918572	-0.270962
H169	H	0.590140	0.373440	-0.056603
H170	H	0.590150	0.893868	-0.162240
H171	H	0.590161	1.003819	-0.254779
H172	H	0.278492	1.003937	-0.368222
H173	H	0.371134	0.893880	0.056766
H174	H	0.788353	0.263475	-0.056598
F175	F	0.810657	0.380952	0.064616
H176	H	0.278587	0.498966	0.056771
H177	H	0.278591	1.003857	0.056758
H178	H	0.175604	1.058888	0.000064
F179	F	0.398067	0.633664	-0.447292
H180	H	0.257725	0.893933	-0.056625
F181	F	0.533476	1.073993	-0.370520
F182	F	0.150979	1.011506	-0.064439
F183	F	0.468983	-0.113699	0.064587
F184	F	-0.114934	0.861155	-0.095629
H185	H	0.476792	0.263466	0.056764
H186	H	0.167702	0.424714	0.088021
F187	F	0.468984	0.011424	0.064586
F188	F	0.385270	0.886356	-0.277098
F189	F	0.468961	1.011471	-0.382391
F190	F	0.597995	0.380992	0.277240
F191	F	0.668885	0.633607	-0.447226
H192	H	0.476763	0.893917	-0.275649
H193	H	0.590146	0.263467	-0.056597
F194	F	0.787024	0.255818	0.382593
H195	H	0.891413	0.208425	0.357988
F196	F	0.468982	0.381012	0.064582
H197	H	0.590149	0.003845	-0.056592
H198	H	0.175532	1.058923	-0.357810
F199	F	0.597965	-0.113706	-0.064395
H200	H	0.695810	0.373438	-0.056594
H201	H	0.695864	0.373377	0.275841
F202	F	0.598004	0.255890	0.382555
H203	H	0.371129	0.498983	0.056751
F204	F	0.076599	0.406140	0.095851
H205	H	0.257736	0.893913	-0.162282
H206	H	-0.098223	0.498930	0.056804
F207	F	-0.189351	0.480366	0.064616
H208	H	0.613629	0.633650	-0.311484
F209	F	0.468993	0.255873	0.253584
F210	F	-0.318369	0.786887	-0.064392
F211	F	-0.213071	0.786899	-0.064391
F212	F	-0.009631	0.861157	-0.095633
H213	H	0.533503	0.208475	0.357979
H214	H	0.891341	0.208454	0.000088
F215	F	0.150976	0.786935	-0.064434
F216	F	0.256297	0.786938	-0.064427
F217	F	0.468980	0.380993	0.148249
F218	F	0.150974	1.011480	-0.253397
F219	F	0.442272	0.633656	-0.787272
H220	H	0.453317	0.633642	-0.688337
H221	H	0.409122	0.633660	-0.546212
H222	H	0.453286	0.633677	-0.311526
F223	F	0.915970	0.255855	0.253576
F224	F	0.442236	0.633684	-0.212588
H225	H	0.657843	0.633595	-0.546150
F226	F	0.915965	0.255825	0.064600
F227	F	0.624661	0.633676	-0.212565
H228	H	0.613652	0.633638	-0.688297
H229	H	0.613656	0.633629	-0.780856
H230	H	0.809208	0.373396	0.162460
