data_functionalizedCrystal
_audit_creation_method	'MofGen! by Chris Wilmer'
_symmetry_space_group_name_H-M	'P1'
_symmetry_Int_Tables_number	1
_symmetry_cell_setting	triclinic
loop_
_symmetry_equiv_pos_as_xyz
  x,y,z
_cell_length_a	16.625548
_cell_length_b	16.625546
_cell_length_c	16.625539
_cell_angle_alpha	89.969603
_cell_angle_beta	89.979432
_cell_angle_gamma	90.023536
loop_
_atom_site_label
_atom_site_type_symbol
_atom_site_fract_x
_atom_site_fract_y
_atom_site_fract_z
Zn1	Zn	1.232680	-0.320977	-0.455898
Zn2	Zn	1.566014	0.012356	-0.122564
Zn3	Zn	1.899347	0.345689	0.210769
Zn4	Zn	1.232584	-0.455820	-0.321060
Zn5	Zn	1.565917	-0.122487	0.012273
Zn6	Zn	1.899250	0.210846	0.345607
Zn7	Zn	1.097842	-0.321008	-0.321078
Zn8	Zn	1.431176	0.012325	0.012255
Zn9	Zn	1.764509	0.345659	0.345589
Zn10	Zn	1.097813	-0.455774	-0.455850
Zn11	Zn	1.431146	-0.122441	-0.122516
Zn12	Zn	1.764479	0.210893	0.210817
O13	O	1.165230	-0.388395	-0.388471
O14	O	1.498563	-0.055062	-0.055138
O15	O	1.831896	0.278272	0.278195
O16	O	1.345500	-0.338871	-0.438024
O17	O	1.678833	-0.005538	-0.104690
O18	O	2.012167	0.327796	0.228643
O19	O	1.214682	-0.437969	-0.208230
O20	O	1.548015	-0.104636	0.125103
O21	O	1.881348	0.228697	0.458437
O22	O	1.115782	-0.208171	-0.338990
O23	O	1.449115	0.125162	-0.005657
O24	O	1.782448	0.458495	0.327677
O25	O	1.345429	-0.437940	-0.338959
O26	O	1.678762	-0.104606	-0.005625
O27	O	2.012096	0.228727	0.327708
O28	O	1.214847	-0.208149	-0.438041
O29	O	1.548180	0.125184	-0.104708
O30	O	1.881513	0.458518	0.228625
O31	O	1.115688	-0.338923	-0.208243
O32	O	1.449021	-0.005590	0.125090
O33	O	1.782355	0.327743	0.458423
O34	O	0.985006	-0.338878	-0.338944
O35	O	1.318339	-0.005545	-0.005610
O36	O	1.651673	0.327788	0.327723
O37	O	1.115731	-0.437861	-0.568689
O38	O	1.449065	-0.104527	-0.235355
O39	O	1.782398	0.228806	0.097978
O40	O	0.984984	-0.437890	-0.437960
O41	O	1.318318	-0.104557	-0.104626
O42	O	1.651651	0.228776	0.228707
O43	O	1.214818	-0.338826	-0.568724
O44	O	1.548151	-0.005493	-0.235390
O45	O	1.881485	0.327841	0.097943
O46	O	1.214653	-0.568647	-0.338912
O47	O	1.547986	-0.235313	-0.005579
O48	O	1.881320	0.098020	0.327754
O49	O	1.115637	-0.568613	-0.437942
O50	O	1.448971	-0.235279	-0.104609
O51	O	1.782304	0.098054	0.228725
C52	C	0.955739	-0.388383	-0.388449
C53	C	1.289072	-0.055050	-0.055116
C54	C	1.622406	0.278283	0.278218
C55	C	0.866118	-0.388398	-0.388458
C56	C	1.199451	-0.055064	-0.055125
C57	C	1.532784	0.278269	0.278208
C58	C	1.165153	-0.597886	-0.388438
C59	C	1.498487	-0.264552	-0.055104
C60	C	1.831820	0.068781	0.278229
C61	C	1.165195	-0.687507	-0.388450
C62	C	1.498528	-0.354174	-0.055117
C63	C	1.831861	-0.020840	0.278217
C64	C	0.537942	-0.388403	-0.388493
C65	C	0.871276	-0.055070	-0.055159
C66	C	1.204609	0.278264	0.278174
C67	C	0.629251	-0.388399	-0.388481
C68	C	0.962584	-0.055066	-0.055147
C69	C	1.295917	0.278267	0.278186
C70	C	0.702027	-0.388401	-0.388475
C71	C	1.035360	-0.055068	-0.055142
C72	C	1.368694	0.278266	0.278192
C73	C	0.793341	-0.388396	-0.388464
C74	C	1.126675	-0.055063	-0.055131
C75	C	1.460008	0.278270	0.278203
C76	C	1.165335	-1.015682	-0.388534
C77	C	1.498669	-0.682349	-0.055201
C78	C	1.832002	-0.349016	0.278133
C79	C	1.165294	-0.924374	-0.388513
C80	C	1.498627	-0.591041	-0.055180
C81	C	1.831960	-0.257707	0.278154
C82	C	1.165264	-0.851598	-0.388492
C83	C	1.498598	-0.518264	-0.055158
C84	C	1.831931	-0.184931	0.278175
C85	C	1.165224	-0.760283	-0.388471
C86	C	1.498557	-0.426950	-0.055138
C87	C	1.831891	-0.093617	0.278195
C88	C	1.375539	-0.388407	-0.388494
C89	C	1.708872	-0.055074	-0.055161
C90	C	2.042205	0.278260	0.278172
C91	C	1.465160	-0.388412	-0.388504
C92	C	1.798493	-0.055079	-0.055171
C93	C	2.131826	0.278254	0.278162
C94	C	1.165282	-0.388335	-0.598780
C95	C	1.498616	-0.055001	-0.265447
C96	C	1.831949	0.278332	0.067886
C97	C	1.165305	-0.388309	-0.688402
C98	C	1.498638	-0.054976	-0.355068
C99	C	1.831971	0.278357	-0.021735
C100	C	1.165328	-0.178086	-0.388523
C101	C	1.498662	0.155247	-0.055190
C102	C	1.831995	0.488581	0.278144
C103	C	1.165370	-0.088465	-0.388545
C104	C	1.498704	0.244869	-0.055212
C105	C	1.832037	0.578202	0.278122
C106	C	1.165342	-0.388219	-1.016577
C107	C	1.498675	-0.054886	-0.683244
C108	C	1.832008	0.278448	-0.349911
C109	C	1.165329	-0.388247	-0.925269
C110	C	1.498662	-0.054913	-0.591936
C111	C	1.831996	0.278420	-0.258602
C112	C	1.165324	-0.388265	-0.852492
C113	C	1.498657	-0.054931	-0.519159
C114	C	1.831990	0.278402	-0.185826
C115	C	1.165310	-0.388291	-0.761178
C116	C	1.498643	-0.054958	-0.427845
C117	C	1.831977	0.278376	-0.094511
C118	C	1.165224	-0.388397	-0.178981
C119	C	1.498557	-0.055063	0.154353
C120	C	1.831891	0.278270	0.487686
C121	C	1.165358	-0.388195	-0.089360
C122	C	1.498691	-0.054862	0.243973
C123	C	1.832025	0.278472	0.577307
