data_functionalizedCrystal
_audit_creation_method	'MofGen! by Chris Wilmer'
_symmetry_space_group_name_H-M	'P1'
_symmetry_Int_Tables_number	1
_symmetry_cell_setting	triclinic
loop_
_symmetry_equiv_pos_as_xyz
  x,y,z
_cell_length_a	16.959455
_cell_length_b	16.959453
_cell_length_c	16.959447
_cell_angle_alpha	90.031096
_cell_angle_beta	90.014701
_cell_angle_gamma	90.024249
loop_
_atom_site_label
_atom_site_type_symbol
_atom_site_fract_x
_atom_site_fract_y
_atom_site_fract_z
Zn1	Zn	1.208358	-0.314678	0.446912
Zn2	Zn	1.708358	0.185322	0.946912
Zn3	Zn	1.208269	-0.446870	0.314732
Zn4	Zn	1.708269	0.053130	0.814732
Zn5	Zn	1.076186	-0.314709	0.314749
Zn6	Zn	1.576186	0.185291	0.814749
Zn7	Zn	1.076140	-0.446817	0.446870
Zn8	Zn	1.576140	0.053183	0.946870
O9	O	1.142238	-0.380769	0.380816
O10	O	1.642238	0.119231	0.880816
O11	O	1.318957	-0.332223	0.429389
O12	O	1.818957	0.167777	0.929389
O13	O	1.190731	-0.429374	0.204123
O14	O	1.690731	0.070626	0.704123
O15	O	1.093775	-0.204094	0.332306
O16	O	1.593775	0.295906	0.832306
O17	O	1.318892	-0.429344	0.332277
O18	O	1.818892	0.070656	0.832277
O19	O	1.190881	-0.204071	0.429406
O20	O	1.690881	0.295929	0.929406
O21	O	1.093690	-0.332275	0.204136
O22	O	1.593690	0.167725	0.704136
O23	O	0.965569	-0.332223	0.332264
O24	O	1.465569	0.167777	0.832264
O25	O	1.093697	-0.429254	0.557486
O26	O	1.593697	0.070746	1.057486
O27	O	0.965535	-0.429283	0.429333
O28	O	1.465535	0.070717	0.929333
O29	O	1.190836	-0.332171	0.557518
O30	O	1.690836	0.167829	1.057518
O31	O	1.190686	-0.557474	0.332235
O32	O	1.690686	-0.057474	0.832235
O33	O	1.093611	-0.557435	0.429317
O34	O	1.593611	-0.057435	0.929317
C35	C	0.936872	-0.380751	0.380796
C36	C	1.436872	0.119249	0.880796
C37	C	0.849015	-0.380763	0.380807
C38	C	1.349015	0.119237	0.880807
C39	C	0.807706	-0.431258	0.330173
C40	C	1.307706	0.068742	0.830173
C41	C	0.807772	-0.330275	0.431447
C42	C	1.307772	0.169725	0.931447
C43	C	0.725226	-0.330281	0.431456
C44	C	1.225226	0.169719	0.931456
C45	C	0.683916	-0.380775	0.380822
C46	C	1.183916	0.119225	0.880822
C47	C	0.725152	-0.431264	0.330179
C48	C	1.225152	0.068736	0.830179
C49	C	0.683983	-0.279788	0.482093
C50	C	1.183983	0.220212	0.982093
C51	C	0.601432	-0.279792	0.482104
C52	C	1.101432	0.220208	0.982104
C53	C	0.560121	-0.330291	0.431473
C54	C	1.060121	0.169709	0.931473
C55	C	0.601362	-0.380782	0.380829
C56	C	1.101362	0.119218	0.880829
C57	C	0.560053	-0.431276	0.330195
C58	C	1.060053	0.068724	0.830195
C59	C	0.601293	-0.481772	0.279553
C60	C	1.101293	0.018228	0.779553
C61	C	0.683841	-0.481763	0.279549
C62	C	1.183841	0.018237	0.779549
C63	C	0.477573	-0.330299	0.431478
C64	C	0.977573	0.169701	0.931478
C65	C	0.477499	-0.431282	0.330201
C66	C	0.977499	0.068718	0.830201
C67	C	1.142155	-0.586135	0.380787
C68	C	1.642155	-0.086135	0.880787
C69	C	1.142192	-0.673991	0.380801
C70	C	1.642192	-0.173991	0.880801
C71	C	1.091624	-0.715274	0.431311
C72	C	1.591624	-0.215274	0.931311
C73	C	1.192798	-0.715262	0.330308
C74	C	1.692798	-0.215262	0.830308
C75	C	1.192838	-0.797808	0.330323
C76	C	1.692838	-0.297808	0.830323
C77	C	1.142270	-0.839091	0.380833
C78	C	1.642270	-0.339091	0.880833
C79	C	1.091664	-0.797828	0.431328
C80	C	1.591664	-0.297828	0.931328
C81	C	1.243449	-0.839078	0.279834
C82	C	1.743449	-0.339078	0.779834
C83	C	1.243491	-0.921629	0.279847
C84	C	1.743491	-0.421629	0.779847
C85	C	1.192919	-0.962913	0.330353
C86	C	1.692919	-0.462913	0.830353
C87	C	1.142310	-0.921644	0.380850
C88	C	1.642310	-0.421644	0.880850
C89	C	1.091742	-0.962927	0.431360
C90	C	1.591742	-0.462927	0.931360
C91	C	1.041129	-0.921660	0.481854
C92	C	1.541129	-0.421660	0.981854
C93	C	1.041092	-0.839112	0.481835
C94	C	1.541092	-0.339112	0.981835
C95	C	1.192955	-1.045461	0.330372
C96	C	1.692955	-0.545461	0.830372
C97	C	1.091782	-1.045480	0.431378
C98	C	1.591782	-0.545480	0.931378
C99	C	1.348406	-0.380786	0.380836
C100	C	1.848406	0.119214	0.880836
C101	C	1.436263	-0.380794	0.380844
C102	C	1.936263	0.119206	0.880844
C103	C	1.142271	-0.380703	0.586984
C104	C	1.642271	0.119297	1.086984
C105	C	1.142285	-0.380675	0.674841
C106	C	1.642285	0.119325	1.174841
C107	C	1.142343	-0.174600	0.380862
C108	C	1.642343	0.325400	0.880862
C109	C	1.142388	-0.086744	0.380882
C110	C	1.642388	0.413256	0.880882
C111	C	1.142251	-0.380777	0.175450
C112	C	1.642251	0.119223	0.675450
C113	C	1.142390	-0.380582	0.087593
C114	C	1.642390	0.119418	0.587593
C115	C	1.091803	-0.431138	1.046303
C116	C	1.591803	0.068862	1.546303
C117	C	1.192956	-0.330046	1.046330
C118	C	1.692956	0.169954	1.546330
C119	C	1.192935	-0.330063	0.963785
C120	C	1.692935	0.169937	1.463785
C121	C	1.142348	-0.380619	0.922494
C122	C	1.642348	0.119381	1.422494
C123	C	1.091782	-0.431158	0.963749
C124	C	1.591782	0.068842	1.463749
C125	C	1.243505	-0.279530	0.922523
C126	C	1.743505	0.220470	1.422523
C127	C	1.243487	-0.279545	0.839972
C128	C	1.743487	0.220455	1.339972
C129	C	1.192896	-0.330098	0.798680
C130	C	1.692896	0.169902	1.298680
C131	C	1.142327	-0.380639	0.839940
C132	C	1.642327	0.119361	1.339940
C133	C	1.091740	-0.431195	0.798650
C134	C	1.591740	0.068805	1.298650
C135	C	1.041167	-0.481732	0.839909
C136	C	1.541167	0.018268	1.339909
C137	C	1.041191	-0.481711	0.922457
C138	C	1.541191	0.018289	1.422457
C139	C	1.192872	-0.330119	0.716131
C140	C	1.692872	0.169881	1.216131
C141	C	1.091719	-0.431215	0.716096
C142	C	1.591719	0.068785	1.216096
H143	H	0.443871	-0.472405	0.288972
H144	H	0.943871	0.027595	0.788972
H145	H	1.234169	-1.079057	0.289266
H146	H	1.734169	-0.579057	0.789266
F147	F	0.727736	-0.535497	0.225656
F148	F	1.227736	-0.035497	0.725656
H149	H	1.284695	-0.238375	0.956148
H150	H	1.784695	0.261625	1.456148
F151	F	1.297356	-0.965540	0.226107
F152	F	1.797356	-0.465540	0.726107
H153	H	1.233973	-0.681647	0.289189
H154	H	1.733973	-0.181647	0.789189
H155	H	0.717624	-0.238675	0.523313
H156	H	1.217624	0.261325	1.023313
H157	H	1.234050	-0.288975	0.682542
H158	H	1.734050	0.211025	1.182542
H159	H	0.567862	-0.238676	0.523340
H160	H	1.067862	0.261324	1.023340
F161	F	0.557318	-0.535505	0.225662
F162	F	1.057318	-0.035505	0.725662
F163	F	1.037760	-0.671356	0.485046
F164	F	1.537760	-0.171356	0.985046
F165	F	0.987236	-0.795187	0.535575
F166	F	1.487236	-0.295187	1.035575
H167	H	1.000020	-0.522858	0.956057
H168	H	1.500020	-0.022858	1.456057
F169	F	0.851738	-0.276536	0.485329
F170	F	1.351738	0.223464	0.985329
F171	F	0.851595	-0.484999	0.276282
F172	F	1.351595	0.015001	0.776282
H173	H	0.443999	-0.289181	0.472704
H174	H	0.943999	0.210819	0.972704
H175	H	1.050603	-1.079087	0.472510
H176	H	1.550603	-0.579087	0.972510
H177	H	1.050626	-0.472282	1.079899
H178	H	1.550626	0.027718	1.579899
H179	H	0.999960	-0.955283	0.522982
H180	H	1.499960	-0.455283	1.022982
F181	F	1.297268	-0.795138	0.226088
F182	F	1.797268	-0.295138	0.726088
F183	F	1.037873	-0.485021	0.672158
F184	F	1.537873	0.014979	1.172158
F185	F	0.987335	-0.535540	0.795955
F186	F	1.487335	-0.035540	1.295955
F187	F	1.246796	-0.276249	1.090277
F188	F	1.746796	0.223751	1.590277
H189	H	1.284666	-0.238394	0.806386
H190	H	1.784666	0.261606	1.306386
