data_functionalizedCrystal
_audit_creation_method	'MofGen! by Chris Wilmer'
_symmetry_space_group_name_H-M	'P1'
_symmetry_Int_Tables_number	1
_symmetry_cell_setting	triclinic
loop_
_symmetry_equiv_pos_as_xyz
  x,y,z
_cell_length_a	10.268362
_cell_length_b	17.699083
_cell_length_c	17.699092
_cell_angle_alpha	96.715309
_cell_angle_beta	90.003598
_cell_angle_gamma	90.001444
loop_
_atom_site_label
_atom_site_type_symbol
_atom_site_fract_x
_atom_site_fract_y
_atom_site_fract_z
O1	O	0.108113	-1.004079	0.095711
O2	O	0.608113	-0.504079	0.595711
O3	O	0.108155	-0.783701	0.108164
O4	O	0.608155	-0.283701	0.608164
O5	O	0.108130	-0.900113	-0.008251
O6	O	0.608130	-0.400113	0.491749
O7	O	0.108138	-0.887667	0.212126
O8	O	0.608138	-0.387667	0.712126
O9	O	-0.108471	-0.900103	-0.008256
O10	O	0.391529	-0.400103	0.491744
O11	O	-0.108446	-0.783691	0.108159
O12	O	0.391554	-0.283691	0.608159
O13	O	-0.108488	-1.004069	0.095707
O14	O	0.391512	-0.504069	0.595707
Cu15	Cu	-0.128244	-0.893879	0.101932
Cu16	Cu	0.371756	-0.393879	0.601932
Cu17	Cu	0.127911	-0.893891	0.101938
Cu18	Cu	0.627911	-0.393891	0.601938
O19	O	-0.108463	-0.887657	0.212122
O20	O	0.391537	-0.387657	0.712122
C21	C	-0.000140	-0.755499	0.107715
C22	C	0.499860	-0.255499	0.607715
C23	C	-0.000124	-0.671480	0.106377
C24	C	0.499876	-0.171480	0.606377
N25	N	-0.308410	-0.893876	0.101928
N26	N	0.191590	-0.393876	0.601928
C27	C	-0.000169	-0.899661	-0.036450
C28	C	0.499831	-0.399661	0.463550
C29	C	-0.000162	-0.898319	-0.120468
C30	C	0.499838	-0.398319	0.379532
C31	C	-0.574081	-0.893887	0.101937
C32	C	-0.074081	-0.393887	0.601937
C33	C	-0.426243	-0.893878	0.101934
C34	C	0.073757	-0.393878	0.601934
N35	N	0.308077	-0.893899	0.101936
N36	N	0.808077	-0.393899	0.601936
C37	C	-0.000190	-1.032271	0.096155
C38	C	0.499810	-0.532271	0.596155
C39	C	-0.000198	-1.116289	0.097494
C40	C	0.499802	-0.616289	0.597494
C41	C	-0.000122	-0.622862	0.174710
C42	C	0.499878	-0.122862	0.674710
C43	C	-0.000139	-0.543918	0.173448
C44	C	0.499861	-0.043918	0.673448
C45	C	-0.000148	-0.513595	0.103851
C46	C	0.499852	-0.013595	0.603851
C47	C	-0.000154	-0.562220	0.035513
C48	C	0.499846	-0.062220	0.535513
C49	C	-0.000147	-0.641162	0.036776
C50	C	0.499853	-0.141162	0.536776
C51	C	-0.000187	-0.243857	0.030418
C52	C	0.499813	0.256143	0.530418
C53	C	-0.000191	-0.164909	0.029160
C54	C	0.499809	0.335091	0.529160
C55	C	-0.000179	-0.146613	0.167089
C56	C	0.499821	0.353387	0.667089
C57	C	-0.000171	-0.225555	0.168352
C58	C	0.499829	0.274445	0.668352
C59	C	-0.000184	-0.274173	0.100014
C60	C	0.499816	0.225827	0.600014
C61	C	-0.000168	-0.359772	0.101384
C62	C	0.499832	0.140228	0.601384
C63	C	-0.000155	-0.427998	0.102481
C64	C	0.499845	0.072002	0.602481
C65	C	0.117908	-0.897697	-0.159933
C66	C	0.617908	-0.397697	0.340067
C67	C	0.117910	-0.896432	-0.238876
C68	C	0.617910	-0.396432	0.261124
C69	C	-0.000160	-0.895795	-0.278353
C70	C	0.499840	-0.395795	0.221647
C71	C	-0.118240	-0.896416	-0.238883
C72	C	0.381760	-0.396416	0.261117
C73	C	-0.118240	-0.897675	-0.159940
C74	C	0.381760	-0.397675	0.340060
C75	C	-0.118241	-0.891335	-0.557248
C76	C	0.381759	-0.391335	-0.057248
C77	C	-0.118231	-0.890078	-0.636196
C78	C	0.381769	-0.390078	-0.136196
C79	C	0.117910	-0.890092	-0.636183
C80	C	0.617910	-0.390092	-0.136183
C81	C	0.117909	-0.891351	-0.557241
C82	C	0.617909	-0.391351	-0.057241
C83	C	-0.000170	-0.891968	-0.517777
C84	C	0.499830	-0.391968	-0.017777
C85	C	-0.000170	-0.893338	-0.432178
C86	C	0.499830	-0.393338	0.067822
C87	C	-0.000161	-0.894430	-0.363952
C88	C	0.499839	-0.394430	0.136048
C89	C	-0.000162	-0.888109	0.240321
C90	C	0.499838	-0.388109	0.740321
C91	C	-0.000159	-0.889450	0.324339
C92	C	0.499841	-0.389450	0.824339
H93	H	-0.000113	-0.647544	0.231383
H94	H	0.499887	-0.147544	0.731383
F95	F	0.243577	-0.898380	-0.117926
F96	F	0.743577	-0.398380	0.382074
H97	H	0.214054	-0.891873	-0.525103
H98	H	0.714054	-0.391873	-0.025103
F99	F	0.243577	-0.895770	-0.280874
F100	F	0.743577	-0.395770	0.219126
F101	F	-0.000173	-0.529947	-0.038557
F102	F	0.499827	-0.029947	0.461443
H103	H	-0.000135	-0.504335	0.229091
H104	H	0.499865	-0.004335	0.729091
H105	H	-0.214386	-0.898172	-0.127808
H106	H	0.285614	-0.398172	0.372192
H107	H	-0.000157	-0.250239	0.225025
H108	H	0.499843	0.249761	0.725025
H109	H	0.214055	-0.889586	-0.668324
H110	H	0.714055	-0.389586	-0.168324
H111	H	-0.000148	-0.680748	-0.018868
H112	H	0.499852	-0.180748	0.481132
H113	H	-0.214384	-0.889558	-0.668336
H114	H	0.285616	-0.389558	-0.168336
F115	F	-0.000201	-0.132640	-0.044918
F116	F	0.499799	0.367360	0.455082
F117	F	-0.000200	-0.295591	-0.042314
F118	F	0.499800	0.204409	0.457686
F119	F	-0.243911	-0.891982	-0.515256
F120	F	0.256089	-0.391982	-0.015256
F121	F	-0.243900	-0.895730	-0.280898
F122	F	0.256100	-0.395730	0.219102
F123	F	-0.000170	-0.094864	0.239821
F124	F	0.499830	0.405136	0.739821
