data_functionalizedCrystal
_audit_creation_method	'MofGen! by Chris Wilmer'
_symmetry_space_group_name_H-M	'P1'
_symmetry_Int_Tables_number	1
_symmetry_cell_setting	triclinic
loop_
_symmetry_equiv_pos_as_xyz
  x,y,z
_cell_length_a	19.077105
_cell_length_b	15.297327
_cell_length_c	19.076919
_cell_angle_alpha	101.510342
_cell_angle_beta	90.076224
_cell_angle_gamma	97.818066
loop_
_atom_site_label
_atom_site_type_symbol
_atom_site_fract_x
_atom_site_fract_y
_atom_site_fract_z
Zn1	Zn	0.997096	-0.436205	-0.496821
Zn2	Zn	0.981405	-0.581179	-0.398060
Zn3	Zn	0.886008	-0.424127	-0.373052
Zn4	Zn	0.859303	-0.580636	-0.510742
O5	O	0.930953	-0.505537	-0.444669
O6	O	1.092606	-0.460719	-0.488360
O7	O	0.973359	-0.555519	-0.295787
O8	O	0.918487	-0.299557	-0.373179
O9	O	1.081077	-0.567231	-0.415800
O10	O	1.000103	-0.308431	-0.464111
O11	O	0.903272	-0.440133	-0.277414
O12	O	0.784875	-0.439605	-0.386678
O13	O	0.872972	-0.566304	-0.607851
O14	O	0.765254	-0.554592	-0.487838
O15	O	0.974208	-0.460192	-0.597623
O16	O	0.947464	-0.707279	-0.429299
O17	O	0.857757	-0.706880	-0.512086
C18	C	0.749760	-0.495730	-0.436055
C19	C	0.672241	-0.491557	-0.432390
C20	C	0.625617	-0.549547	-0.483277
C21	C	0.552781	-0.545614	-0.479834
C22	C	0.526571	-0.483695	-0.425502
C23	C	0.573201	-0.425698	-0.374613
C24	C	0.646036	-0.429627	-0.378058
C25	C	0.309833	-0.465511	-0.409558
C26	C	0.236992	-0.461589	-0.406115
C27	C	0.216578	-0.581504	-0.511338
C28	C	0.289415	-0.585431	-0.514776
C29	C	0.336039	-0.527431	-0.463889
N30	N	0.452121	-0.479676	-0.421981
N31	N	0.410488	-0.531447	-0.467414
C32	C	0.898028	-0.739796	-0.474933
C33	C	0.884005	-0.840018	-0.487907
C34	C	1.031451	-1.123247	-0.352197
C35	C	1.044626	-1.029084	-0.340004
C36	C	1.004472	-0.981812	-0.376979
C37	C	0.951141	-1.028714	-0.426149
C38	C	0.937961	-1.122886	-0.438339
C39	C	0.910982	-0.981452	-0.463121
C40	C	0.857651	-1.028353	-0.512291
C41	C	0.844474	-1.122517	-0.524480
C42	C	0.884628	-1.169788	-0.487505
C43	C	0.924162	-0.887280	-0.450930
C44	C	0.830672	-0.886919	-0.537073
C45	C	0.817497	-0.981082	-0.549266
C46	C	1.112853	-0.515383	-0.453317
C47	C	1.190368	-0.519579	-0.457002
C48	C	0.922362	-0.514535	-0.629112
C49	C	0.918700	-0.518369	-0.707711
C50	C	0.964025	-0.270365	-0.414303
C51	C	0.978118	-0.170148	-0.401362
C52	C	0.969686	-0.464926	-0.739314
C53	C	0.966238	-0.468525	-0.813165
C54	C	0.911807	-0.525572	-0.855413
C55	C	0.860816	-0.579017	-0.823806
C56	C	0.864262	-0.575413	-0.749955
C57	C	0.895847	-0.542271	-1.076853
C58	C	0.892406	-0.545873	-1.150709
C59	C	0.997828	-0.435379	-1.140063
C60	C	1.001271	-0.431784	-1.066212
C61	C	0.950279	-0.485225	-1.034610
N62	N	0.908282	-0.529254	-0.930901
N63	N	0.953801	-0.481538	-0.959123
C64	C	0.939560	-0.496511	-0.260936
C65	C	0.943392	-0.492430	-0.182311
H66	H	0.347786	-0.418290	-0.368118
O67	O	0.171193	-0.637743	-0.560732
C68	C	0.049935	-0.684873	-0.602039
C69	C	0.101255	-0.621116	-0.546060
H70	H	-0.006621	-0.671465	-0.590187
H71	H	0.063769	-0.672702	-0.657738
H72	H	0.054667	-0.757707	-0.599604
H73	H	0.096552	-0.548259	-0.548429
H74	H	0.087406	-0.633365	-0.490385
H75	H	0.822738	-0.618923	-0.724225
O76	O	1.070493	-1.169226	-0.316382
C77	C	1.150149	-1.280169	-0.325137
C78	C	1.105991	-1.228136	-0.365797
H79	H	1.178850	-1.327823	-0.365072
H80	H	1.190577	-1.230535	-0.287910
H81	H	1.113667	-1.320714	-0.292323
H82	H	1.142418	-1.187589	-0.398652
H83	H	1.065557	-1.277816	-0.402981
H84	H	1.039343	-0.391869	-1.165801
H85	H	0.215656	-0.411156	-0.361874
H86	H	0.801040	-1.160700	-0.564509
O87	O	0.765766	-1.026616	-0.597125
C88	C	0.722168	-1.059407	-0.719490
C89	C	0.780808	-1.007807	-0.665369
H90	H	0.734302	-1.044204	-0.774673
H91	H	0.719649	-1.134842	-0.721911
H92	H	0.669108	-1.037326	-0.701933
H93	H	0.833899	-1.029812	-0.682885
H94	H	0.783265	-0.932381	-0.662955
O95	O	0.846268	-0.594260	-1.046279
C96	C	0.741297	-0.704161	-1.064628
C97	C	0.797416	-0.645355	-1.099352
H98	H	0.701777	-0.745472	-1.107519
H99	H	0.768235	-0.751419	-1.037679
H100	H	0.712304	-0.659071	-1.022961
H101	H	0.826427	-0.690374	-1.141048
H102	H	0.770437	-0.598090	-1.126254
O103	O	0.507571	-0.601922	-0.529358
C104	C	0.473505	-0.650589	-0.654215
C105	C	0.524761	-0.586778	-0.598205
H106	H	0.487375	-0.638355	-0.709888
H107	H	0.478209	-0.723442	-0.651819
H108	H	0.416947	-0.637165	-0.642392
H109	H	0.581341	-0.600121	-0.609990
H110	H	0.519996	-0.513946	-0.600614
H111	H	0.551855	-0.375279	-0.330377
H112	H	0.683998	-0.382401	-0.336624
H113	H	0.797974	-0.848431	-0.567180
O114	O	0.808025	-0.634535	-0.864893
C115	C	0.777636	-0.759792	-0.963570
C116	C	0.837489	-0.696992	-0.917085
H117	H	0.801435	-0.810292	-1.005787
H118	H	0.741786	-0.797438	-0.928337
H119	H	0.745371	-0.718088	-0.991031
H120	H	0.869806	-0.738629	-0.889616
H121	H	0.873288	-0.659342	-0.952353
H122	H	0.873905	-1.246463	-0.497431
H123	H	0.848079	-0.592330	-1.185107
O124	O	0.314758	-0.645605	-0.567621
C125	C	0.286817	-0.764170	-0.671597
C126	C	0.258022	-0.696047	-0.611801
H127	H	0.240959	-0.804983	-0.707323
H128	H	0.324980	-0.726542	-0.704953
H129	H	0.315832	-0.811462	-0.646746
H130	H	0.228973	-0.648737	-0.636591
H131	H	0.219895	-0.733733	-0.578452
H132	H	1.014012	-0.418475	-0.704920
H133	H	0.967585	-0.849101	-0.410896
H134	H	1.015202	-0.905140	-0.367047
O135	O	1.015756	-0.416477	-0.843762
C136	C	1.070101	-0.266038	-0.848179
C137	C	1.014003	-0.324882	-0.813462
H138	H	1.068692	-0.191971	-0.823706
H139	H	1.124805	-0.284138	-0.838356
H140	H	1.058300	-0.278447	-0.908222
H141	H	1.025738	-0.312505	-0.753411
H142	H	0.959316	-0.306771	-0.823342
O143	O	0.651167	-0.609576	-0.536079
C144	C	0.727207	-0.630983	-0.637046
C145	C	0.698342	-0.562905	-0.577268
H146	H	0.765342	-0.593275	-0.670374
H147	H	0.756246	-0.678309	-0.612257
H148	H	0.681355	-0.671770	-0.672795
H149	H	0.744153	-0.522056	-0.541499
H150	H	0.669283	-0.515640	-0.602105
O151	O	1.096479	-0.983669	-0.292247
C152	C	1.187793	-0.993967	-0.208067
C153	C	1.129097	-1.045513	-0.262144
H154	H	1.214171	-1.043945	-0.183702
H155	H	1.228941	-0.953407	-0.236553
H156	H	1.163682	-0.946374	-0.163871
H157	H	1.153144	-1.093153	-0.306354
H158	H	1.087957	-1.086014	-0.233606
H159	H	1.045597	-0.385332	-1.031818
