data_functionalizedCrystal
_audit_creation_method	'MofGen! by Chris Wilmer'
_symmetry_space_group_name_H-M	'P1'
_symmetry_Int_Tables_number	1
_symmetry_cell_setting	triclinic
loop_
_symmetry_equiv_pos_as_xyz
  x,y,z
_cell_length_a	15.944499
_cell_length_b	11.792241
_cell_length_c	10.268362
_cell_angle_alpha	90.005428
_cell_angle_beta	90.007175
_cell_angle_gamma	83.835512
loop_
_atom_site_label
_atom_site_type_symbol
_atom_site_fract_x
_atom_site_fract_y
_atom_site_fract_z
O1	O	-1.115211	-0.146101	-0.108379
O2	O	-0.781877	0.187232	0.224954
O3	O	-0.448544	0.520566	0.558288
O4	O	-0.870737	-0.164209	-0.108364
O5	O	-0.537403	0.169124	0.224969
O6	O	-0.204070	0.502457	0.558302
O7	O	-0.998906	0.010066	-0.108363
O8	O	-0.665573	0.343399	0.224970
O9	O	-0.332240	0.676732	0.558304
O10	O	-0.987041	-0.320376	-0.108380
O11	O	-0.653708	0.012957	0.224953
O12	O	-0.320374	0.346291	0.558286
O13	O	-0.998895	0.010073	0.108238
O14	O	-0.665562	0.343406	0.441571
O15	O	-0.332228	0.676740	0.774904
O16	O	-0.870725	-0.164202	0.108236
O17	O	-0.537392	0.169131	0.441570
O18	O	-0.204059	0.502464	0.774903
O19	O	-1.115199	-0.146094	0.108222
O20	O	-0.781866	0.187239	0.441555
O21	O	-0.448533	0.520573	0.774888
Cu22	Cu	-0.992961	-0.155147	0.128006
Cu23	Cu	-0.659628	0.178186	0.461340
Cu24	Cu	-0.326295	0.511519	0.794673
Cu25	Cu	-0.992975	-0.155156	-0.128149
Cu26	Cu	-0.659641	0.178178	0.205184
Cu27	Cu	-0.326308	0.511511	0.538518
O28	O	-0.987030	-0.320369	0.108220
O29	O	-0.653696	0.012964	0.441554
O30	O	-0.320363	0.346298	0.774887
C31	C	-0.998155	0.052354	-0.000063
C32	C	-0.664822	0.385687	0.333270
C33	C	-0.331489	0.719021	0.666604
C34	C	-0.995924	0.178349	-0.000064
C35	C	-0.662591	0.511682	0.333269
C36	C	-0.329258	0.845015	0.666603
C37	C	-0.839433	-0.163464	-0.000062
C38	C	-0.506100	0.169869	0.333271
C39	C	-0.172766	0.503202	0.666604
C40	C	-0.746175	-0.161242	-0.000056
C41	C	-0.412841	0.172092	0.333277
C42	C	-0.079508	0.505425	0.666610
C43	C	-1.146503	-0.146839	-0.000083
C44	C	-0.813170	0.186495	0.333250
C45	C	-0.479836	0.519828	0.666583
C46	C	-1.239761	-0.149062	-0.000098
C47	C	-0.906428	0.184272	0.333236
C48	C	-0.573095	0.517605	0.666569
C49	C	-0.455096	-0.262491	-0.000081
C50	C	-0.121762	0.070842	0.333252
C51	C	0.211571	0.404176	0.666585
C52	C	-0.515893	-0.209863	-0.106876
C53	C	-0.182559	0.123471	0.226457
C54	C	0.150774	0.456804	0.559790
C55	C	-0.410502	-0.153167	-0.000086
C56	C	-0.077168	0.180167	0.333247
C57	C	0.256165	0.513500	0.666581
C58	C	-0.515867	-0.209826	0.106675
C59	C	-0.182534	0.123507	0.440008
C60	C	0.150799	0.456840	0.773342
C61	C	-0.575428	-0.157140	-0.000069
C62	C	-0.242095	0.176193	0.333264
C63	C	0.091238	0.509527	0.666597
C64	C	-0.470071	-0.100508	-0.106969
C65	C	-0.136737	0.232825	0.226364
C66	C	0.196596	0.566159	0.559697
C67	C	-0.470039	-0.100487	0.106678
C68	C	-0.136706	0.232847	0.440011
C69	C	0.196628	0.566180	0.773345
C70	C	-0.530818	-0.047779	-0.000143
C71	C	-0.197485	0.285555	0.333190
C72	C	0.135848	0.618888	0.666524
C73	C	-0.315491	-0.150881	-0.000097
C74	C	0.017842	0.182453	0.333236
C75	C	0.351175	0.515786	0.666570
C76	C	-0.670438	-0.159417	-0.000068
C77	C	-0.337104	0.173916	0.333265
C78	C	-0.003771	0.507249	0.666599
C79	C	-0.987781	-0.362657	-0.000083
C80	C	-0.654447	-0.029324	0.333251
C81	C	-0.321114	0.304010	0.666584
C82	C	-0.990011	-0.488652	-0.000090
C83	C	-0.656678	-0.155319	0.333243
C84	C	-0.323345	0.178015	0.666577
N85	N	-0.992958	-0.155141	0.308172
N86	N	-0.659625	0.178193	0.641506
N87	N	-0.326291	0.511526	0.974839
C88	C	-0.991822	0.409026	-0.000086
C89	C	-0.658489	0.742359	0.333248
C90	C	-0.325156	1.075693	0.666581
C91	C	-0.994102	0.280660	-0.000074
C92	C	-0.660768	0.613994	0.333259
C93	C	-0.327435	0.947327	0.666593
N94	N	-0.992984	-0.155153	-0.308315
N95	N	-0.659651	0.178180	0.025018
N96	N	-0.326318	0.511513	0.358352
C97	C	-0.992970	-0.155154	0.573843
C98	C	-0.659637	0.178180	0.907176
C99	C	-0.326304	0.511513	1.240509
C100	C	-0.992961	-0.155150	0.426005
C101	C	-0.659628	0.178184	0.759338
C102	C	-0.326294	0.511517	1.092672
H103	H	-0.422175	-0.353219	-0.000189
H104	H	-0.088842	-0.019886	0.333144
H105	H	0.244492	0.313447	0.666477
C106	C	-0.543262	-0.272312	0.228647
C107	C	-0.209928	0.061021	0.561980
C108	C	0.123405	0.394354	0.895313
N109	N	-0.563890	-0.319384	0.320512
N110	N	-0.230557	0.013950	0.653845
N111	N	0.102776	0.347283	0.987178
H112	H	-0.536204	-0.256109	-0.197162
H113	H	-0.202871	0.077224	0.136171
H114	H	0.130462	0.410557	0.469504
H115	H	-0.563586	0.043031	-0.000195
H116	H	-0.230252	0.376364	0.333138
H117	H	0.103081	0.709698	0.666472
H118	H	-0.449888	-0.054314	-0.197357
H119	H	-0.116555	0.279019	0.135976
H120	H	0.216779	0.612353	0.469309
C121	C	-0.442565	-0.038071	0.228663
C122	C	-0.109232	0.295262	0.561996
C123	C	0.224101	0.628595	0.895330
N124	N	-0.421868	0.008930	0.320553
N125	N	-0.088534	0.342264	0.653886
N126	N	0.244799	0.675597	0.987219
