data_functionalizedCrystal
_audit_creation_method	'MofGen! by Chris Wilmer'
_symmetry_space_group_name_H-M	'P1'
_symmetry_Int_Tables_number	1
_symmetry_cell_setting	triclinic
loop_
_symmetry_equiv_pos_as_xyz
  x,y,z
_cell_length_a	16.109301
_cell_length_b	14.044220
_cell_length_c	15.186229
_cell_angle_alpha	89.995248
_cell_angle_beta	89.999006
_cell_angle_gamma	88.325231
loop_
_atom_site_label
_atom_site_type_symbol
_atom_site_fract_x
_atom_site_fract_y
_atom_site_fract_z
O1	O	1.112195	0.121836	-0.073182
O2	O	1.612195	0.621836	0.426818
O3	O	0.871261	0.136998	-0.073195
O4	O	1.371261	0.636998	0.426805
O5	O	0.988112	-0.008567	-0.073180
O6	O	1.488112	0.491433	0.426820
O7	O	0.995345	0.267400	-0.073197
O8	O	1.495345	0.767400	0.426803
O9	O	0.988103	-0.008569	0.073277
O10	O	1.488103	0.491431	0.573277
O11	O	0.871253	0.136995	0.073262
O12	O	1.371253	0.636995	0.573262
O13	O	1.112186	0.121834	0.073275
O14	O	1.612186	0.621834	0.573275
Zn15	Zn	0.991718	0.129414	0.096522
Zn16	Zn	1.491718	0.629414	0.596522
Zn17	Zn	0.991730	0.129417	-0.096442
Zn18	Zn	1.491730	0.629417	0.403558
O19	O	0.995336	0.267398	0.073260
O20	O	1.495336	0.767398	0.573260
C21	C	0.984941	-0.043881	0.000049
C22	C	1.484941	0.456119	0.500049
C23	C	0.975498	-0.149104	0.000049
C24	C	1.475498	0.350896	0.500049
C25	C	0.840236	0.136382	0.000032
C26	C	1.340236	0.636382	0.500032
C27	C	0.747804	0.134541	0.000028
C28	C	1.247804	0.634541	0.500028
C29	C	0.444784	0.214896	0.000038
C30	C	0.944784	0.714896	0.500038
C31	C	0.531634	0.216635	0.000033
C32	C	1.031634	0.716635	0.500033
C33	C	0.538658	0.043928	0.000032
C34	C	1.038658	0.543928	0.500032
C35	C	0.451810	0.042190	0.000031
C36	C	0.951810	0.542190	0.500031
C37	C	0.404875	0.127677	0.000038
C38	C	0.904875	0.627677	0.500038
C39	C	0.578573	0.131154	0.000034
C40	C	1.078573	0.631154	0.500034
C41	C	0.672739	0.133039	0.000028
C42	C	1.172739	0.633039	0.500028
C43	C	0.310703	0.125792	0.000042
C44	C	0.810703	0.625792	0.500042
C45	C	0.958232	-0.341760	0.000036
C46	C	1.458232	0.158240	0.500036
C47	C	1.025212	-0.399414	0.000037
C48	C	1.525212	0.100586	0.500037
C49	C	1.015605	-0.506615	0.000029
C50	C	1.515605	-0.006615	0.500029
C51	C	0.967838	-0.234550	0.000043
C52	C	1.467838	0.265450	0.500043
C53	C	1.143211	0.122449	0.000046
C54	C	1.643211	0.622449	0.500046
C55	C	1.235644	0.124290	0.000045
C56	C	1.735644	0.624290	0.500045
C57	C	0.998506	0.302713	0.000029
C58	C	1.498506	0.802713	0.500029
C59	C	1.007950	0.407935	0.000023
C60	C	1.507950	0.907935	0.500023
N61	N	0.991716	0.129412	0.228215
N62	N	1.491716	0.629412	0.728215
N63	N	0.991737	0.129412	-0.228135
N64	N	1.491737	0.629412	0.271865
C65	C	1.043479	0.064978	0.453944
C66	C	1.543479	0.564978	0.953944
C67	C	1.043481	0.064975	0.546134
C68	C	1.543481	0.564975	1.046134
C69	C	0.939969	0.193849	0.546130
C70	C	1.439969	0.693849	1.046130
C71	C	0.939963	0.193846	0.453942
C72	C	1.439963	0.693846	0.953942
C73	C	0.991723	0.129411	0.407851
C74	C	1.491723	0.629411	0.907851
C75	C	0.991731	0.129412	0.592229
C76	C	1.491731	0.629412	1.092229
C77	C	0.991733	0.129410	0.692185
C78	C	1.491733	0.629410	1.192185
C79	C	0.991719	0.129412	0.307889
C80	C	1.491719	0.629412	0.807889
H81	H	0.564124	0.287658	0.000032
H82	H	1.064124	0.787658	0.500032
H83	H	1.089769	-0.368263	-0.000019
H84	H	1.589769	0.131737	0.499981
H85	H	0.897813	0.246316	0.416410
H86	H	1.397813	0.746316	0.916410
H87	H	0.419315	-0.028839	0.000028
H88	H	0.919315	0.471161	0.500028
H89	H	0.576882	-0.025672	0.000028
H90	H	1.076882	0.474328	0.500028
O91	O	1.093836	0.002350	0.590771
O92	O	1.593836	0.502350	1.090771
C93	C	1.196471	-0.125510	0.581040
C94	C	1.696471	0.374490	1.081040
C95	C	1.139498	-0.054620	0.530380
C96	C	1.639498	0.445380	1.030380
H97	H	1.233391	-0.171603	0.532236
H98	H	1.733391	0.328397	1.032236
H99	H	1.241093	-0.084622	0.624171
H100	H	1.741093	0.415378	1.124171
H101	H	1.157056	-0.172834	0.624230
H102	H	1.657056	0.327166	1.124230
H103	H	1.178846	-0.007279	0.487142
H104	H	1.678846	0.492721	0.987142
H105	H	1.094872	-0.095567	0.487305
H106	H	1.594872	0.404433	0.987305
H107	H	0.893680	-0.372910	0.000030
H108	H	1.393680	0.127090	0.500030
O109	O	1.093689	0.002436	0.409035
O110	O	1.593689	0.502436	0.909035
C111	C	1.139433	-0.054818	0.267018
C112	C	1.639433	0.445182	0.767018
C113	C	1.082569	0.016105	0.317764
C114	C	1.582569	0.516105	0.817764
H115	H	1.130450	-0.043805	0.193217
H116	H	1.630450	0.456195	0.693217
H117	H	1.206975	-0.042505	0.285043
H118	H	1.706975	0.457495	0.785043
H119	H	1.122930	-0.130707	0.285236
H120	H	1.622930	0.369293	0.785236
H121	H	1.098998	0.092021	0.299573
H122	H	1.598998	0.592021	0.799573
H123	H	1.015043	0.003709	0.299735
H124	H	1.515043	0.503709	0.799735
O125	O	0.399317	0.298022	-0.000003
O126	O	0.899317	0.798022	0.499997
C127	C	0.401521	0.469508	0.000040
C128	C	0.901521	0.969508	0.500040
C129	C	0.453110	0.375436	0.000070
C130	C	0.953110	0.875436	0.500070
H131	H	0.444991	0.532121	0.000118
H132	H	0.944991	1.032121	0.500118
H133	H	0.360707	0.473080	-0.061268
H134	H	0.860707	0.973080	0.438732
H135	H	0.360662	0.472959	0.061317
H136	H	0.860662	0.972959	0.561317
H137	H	0.494016	0.371922	-0.061165
H138	H	0.994016	0.871922	0.438835
H139	H	0.493869	0.371903	0.061418
H140	H	0.993869	0.871903	0.561418
O141	O	0.889776	0.256408	0.591040
O142	O	1.389776	0.756408	1.091040
C143	C	0.843878	0.313496	0.733058
C144	C	1.343878	0.813496	1.233058
C145	C	0.900775	0.242608	0.682310
C146	C	1.400775	0.742608	1.182310
H147	H	0.852738	0.302350	0.806859
H148	H	1.352738	0.802350	1.306859
H149	H	0.860343	0.389439	0.714986
H150	H	1.360343	0.889439	1.214986
H151	H	0.776380	0.301134	0.714889
H152	H	1.276380	0.801134	1.214889
H153	H	0.968291	0.254883	0.700452
H154	H	1.468291	0.754883	1.200452
H155	H	0.884240	0.166690	0.700387
H156	H	1.384240	0.666690	1.200387
