data_functionalizedCrystal
_audit_creation_method	'MofGen! by Chris Wilmer'
_symmetry_space_group_name_H-M	'P1'
_symmetry_Int_Tables_number	1
_symmetry_cell_setting	triclinic
loop_
_symmetry_equiv_pos_as_xyz
  x,y,z
_cell_length_a	19.805407
_cell_length_b	12.594516
_cell_length_c	12.594510
_cell_angle_alpha	89.967330
_cell_angle_beta	90.021753
_cell_angle_gamma	89.973268
loop_
_atom_site_label
_atom_site_type_symbol
_atom_site_fract_x
_atom_site_fract_y
_atom_site_fract_z
Zn1	Zn	1.034749	0.423646	0.601890
Zn2	Zn	1.034659	0.601675	0.423917
Zn3	Zn	0.921559	0.423711	0.423917
Zn4	Zn	0.921526	0.601583	0.601845
O5	O	0.978123	0.512654	0.512893
O6	O	1.129453	0.447273	0.578301
O7	O	1.019632	0.578134	0.274971
O8	O	0.936625	0.274756	0.447545
O9	O	1.129387	0.578070	0.447545
O10	O	1.019785	0.274709	0.578301
O11	O	0.936538	0.447384	0.274971
O12	O	0.826838	0.447295	0.447501
O13	O	0.936569	0.577913	0.750797
O14	O	0.826814	0.577976	0.578224
O15	O	1.019754	0.447184	0.750830
O16	O	1.019600	0.750609	0.447501
O17	O	0.936482	0.750541	0.578224
C18	C	0.802267	0.512633	0.512858
C19	C	0.727035	0.512650	0.512869
C20	C	0.691696	0.580799	0.580826
C21	C	0.621008	0.580800	0.580841
C22	C	0.585660	0.512658	0.512893
C23	C	0.621004	0.444503	0.444932
C24	C	0.691691	0.444496	0.444923
C25	C	0.335930	0.444526	0.444967
C26	C	0.265238	0.444540	0.444979
C27	C	0.265247	0.580830	0.580885
C28	C	0.335934	0.580824	0.580876
C29	C	0.371272	0.512665	0.512920
C30	C	0.447921	0.512662	0.512906
C31	C	0.509012	0.512666	0.512900
C32	C	0.978046	0.789195	0.512880
C33	C	0.978075	0.907500	0.512911
C34	C	0.932855	0.976755	0.583961
C35	C	0.916355	1.047631	0.486837
C36	C	0.994611	1.047423	0.610050
C37	C	0.961543	0.976818	0.415735
C38	C	1.039828	0.976604	0.539014
C39	C	1.023352	1.047448	0.441823
C40	C	1.154666	0.512675	0.512928
C41	C	1.229898	0.512684	0.512943
C42	C	0.978168	0.512531	0.790514
C43	C	0.978187	0.512478	0.908819
C44	C	0.978189	1.235033	0.512926
C45	C	0.978141	1.116727	0.512937
C46	C	0.978118	0.512699	0.236352
C47	C	0.978230	0.512452	0.118047
C48	C	1.023444	0.441369	0.978090
C49	C	0.961715	0.415317	1.048879
C50	C	1.039952	0.538457	1.048829
C51	C	0.916425	0.486376	0.978050
C52	C	0.994703	0.609561	0.977993
C53	C	0.932932	0.583545	1.048751
H54	H	0.720472	0.636291	0.636154
H55	H	0.592238	0.636295	0.636177
H56	H	1.061649	0.381200	0.947061
Br57	Br	0.938178	0.925346	0.278790
Br58	Br	1.017877	1.099126	0.746950
H59	H	0.894633	0.643668	1.079581
Br60	Br	1.017994	0.746382	0.926055
H61	H	0.947760	0.333205	1.080017
Br62	Br	1.087141	1.098858	0.341589
H63	H	0.236467	0.636325	0.636222
H64	H	0.864194	0.464297	0.947090
Br65	Br	1.126799	0.924567	0.575853
H66	H	1.092168	0.560438	1.079923
Br67	Br	0.383904	0.673312	0.673088
H68	H	0.236460	0.389044	0.389647
H69	H	0.364694	0.389035	0.389626
Br70	Br	0.573032	0.352013	0.352725
Br71	Br	0.829362	1.099625	0.450040
Br72	Br	0.739652	0.352000	0.352698
Br73	Br	0.869025	0.925015	0.683965
