data_functionalizedCrystal
_audit_creation_method	'MofGen! by Chris Wilmer'
_symmetry_space_group_name_H-M	'P1'
_symmetry_Int_Tables_number	1
_symmetry_cell_setting	triclinic
loop_
_symmetry_equiv_pos_as_xyz
  x,y,z
_cell_length_a	23.096457
_cell_length_b	21.606444
_cell_length_c	21.606444
_cell_angle_alpha	59.998659
_cell_angle_beta	89.999780
_cell_angle_gamma	60.000075
loop_
_atom_site_label
_atom_site_type_symbol
_atom_site_fract_x
_atom_site_fract_y
_atom_site_fract_z
Zr1	Zr	0.557796	0.677433	-0.081239
O2	O	0.465345	0.806558	-0.180064
O3	O	0.586134	0.548314	-0.050943
O4	O	0.586132	0.677437	-0.180066
O5	O	0.465352	0.677430	0.050913
O6	O	0.681415	0.677434	-0.180069
O7	O	0.465347	0.677434	-0.050941
O8	O	0.681417	0.446457	0.050909
O9	O	0.465349	0.908408	-0.180065
O10	O	0.669332	0.601419	-0.038025
O11	O	0.598227	0.601417	0.037990
O12	O	0.598225	0.753443	-0.114036
O13	O	0.527121	0.753442	-0.038022
Zr14	Zr	0.709768	0.677422	0.081203
Zr15	Zr	0.709760	0.677429	-0.081242
Zr16	Zr	0.557804	0.677426	0.081207
Zr17	Zr	0.557802	0.839873	-0.081240
Zr18	Zr	0.709762	0.514983	0.081204
O19	O	0.681430	0.806542	0.050907
O20	O	0.681419	0.806552	-0.180069
O21	O	0.465356	0.806548	0.050912
O22	O	0.802218	0.548298	0.180028
O23	O	0.802208	0.548308	-0.050948
O24	O	0.586145	0.548304	0.180033
O25	O	0.802212	0.677426	-0.050949
O26	O	0.681432	0.677419	0.180031
O27	O	0.586149	0.677421	0.180033
O28	O	0.802217	0.677421	0.050905
O29	O	0.586140	0.908405	-0.180068
O30	O	0.681424	0.446451	0.180032
O31	O	0.802215	0.446448	0.180029
O32	O	0.802209	0.446453	0.050906
O33	O	0.465355	0.908402	-0.050942
O34	O	0.586147	0.908399	-0.050945
O35	O	0.669339	0.601412	0.114000
O36	O	0.740443	0.601414	0.037986
O37	O	0.669337	0.753438	-0.038025
O38	O	0.598232	0.753437	0.037989
C39	C	0.633775	0.474241	-0.000017
C40	C	0.633772	0.405281	-0.000017
C41	C	0.670908	-0.018027	-0.039697
C42	C	0.670903	0.046774	-0.039700
C43	C	0.633785	0.079170	-0.000021
C44	C	0.596664	0.046769	0.039658
C45	C	0.596665	-0.018026	0.039656
C46	C	0.596656	0.308080	0.039665
C47	C	0.596659	0.372877	0.039665
C48	C	0.670894	0.372879	-0.039691
C49	C	0.670896	0.308085	-0.039692
C50	C	0.633772	0.275692	-0.000018
C51	C	0.633777	0.205429	-0.000016
C52	C	0.633784	0.149427	-0.000018
C53	C	0.443698	0.677433	-0.000014
C54	C	0.379185	0.677434	-0.000012
C55	C	0.348879	0.677443	-0.056128
C56	C	0.288267	0.677435	-0.056128
C57	C	0.257955	0.677436	-0.000018
C58	C	0.288270	0.677422	0.056108
C59	C	0.348885	0.677421	0.056111
N60	N	0.139605	0.726988	0.016969
N61	N	0.082022	0.726990	0.016962
C62	C	0.075325	0.677437	-0.000021
N63	N	0.128381	0.627891	-0.017012
N64	N	0.185967	0.627892	-0.017009
C65	C	0.192228	0.677436	-0.000014
C66	C	-0.020702	0.677435	-0.056141
C67	C	-0.081313	0.677422	-0.056135
C68	C	-0.081314	0.677418	0.056098
C69	C	-0.020700	0.677423	0.056096
C70	C	0.009600	0.677435	-0.000027
C71	C	0.823866	0.677423	-0.000022
C72	C	0.888379	0.677421	-0.000024
C73	C	0.633772	0.677437	-0.203213
C74	C	0.633769	0.677440	-0.272175
C75	C	0.633789	0.880615	-0.000019
C76	C	0.633792	0.949575	-0.000019
C77	C	0.596652	0.756794	-0.344251
C78	C	0.596658	0.756792	-0.409046
C79	C	0.633778	0.677434	-0.401763
C80	C	0.670899	0.598073	-0.329679
C81	C	0.670897	0.598076	-0.264886
C82	C	0.670911	0.598058	-0.590982
C83	C	0.670908	0.598061	-0.655783
C84	C	0.596672	0.756773	-0.735142
C85	C	0.596669	0.756777	-0.670349
C86	C	0.633794	0.677416	-0.598271
C87	C	0.633788	0.677420	-0.528014
C88	C	0.633780	0.677429	-0.472019
C89	C	0.633792	0.677419	0.203177
C90	C	0.633795	0.677416	0.272139
C91	C	0.823859	0.474236	-0.000021
C92	C	0.888369	0.405275	-0.000022
C93	C	0.633784	0.474232	0.203178
C94	C	0.633785	0.405269	0.272140
C95	C	0.823869	0.474227	0.203173
C96	C	0.888382	0.405263	0.272135
C97	C	0.443695	0.880628	-0.203209
C98	C	0.379182	0.949593	-0.272171
C99	C	0.443705	0.880620	-0.000015
C100	C	0.379195	0.949581	-0.000014
C101	C	0.633779	0.880624	-0.203214
C102	C	0.633779	0.949586	-0.272176
C103	C	0.881545	0.372892	-0.039707
C104	C	0.942153	0.308105	-0.039723
C105	C	1.009586	0.275696	-0.000050
C106	C	1.016409	0.308085	0.039636
C107	C	0.955801	0.372876	0.039647
C108	C	0.670905	0.372881	0.344210
C109	C	0.670903	0.308092	0.409014
C110	C	0.633785	0.275689	0.401747
C111	C	0.596661	0.308083	0.329670
C112	C	0.596659	0.372875	0.264868
C113	C	0.955801	0.372877	0.264841
C114	C	1.016424	0.308087	0.329631
C115	C	1.009627	0.275679	0.401714
C116	C	0.942202	0.308071	0.409007
C117	C	0.881580	0.372865	0.344217
C118	C	0.311763	0.981986	-0.264877
C119	C	0.251140	1.046797	-0.329667
C120	C	0.257937	1.079208	-0.401750
C121	C	0.325362	1.046812	-0.409043
C122	C	0.385984	0.982007	-0.344253
C123	C	0.386019	0.981970	0.039664
C124	C	0.325411	1.046776	0.039662
C125	C	0.257978	1.079187	-0.000013
C126	C	0.251155	1.046795	-0.039695
C127	C	0.311763	0.981995	-0.039698
C128	C	0.670904	0.981970	-0.264885
C129	C	0.670917	1.046759	-0.329677
C130	C	0.633800	1.079168	-0.401759
C131	C	0.596674	1.046778	-0.409049
C132	C	0.596665	0.981986	-0.344258
H133	H	0.566429	0.399255	0.071976
N134	N	1.089137	0.273153	0.321745
H135	H	1.115940	0.208109	0.346861
H136	H	1.115895	0.284491	0.346834
N137	N	0.304389	0.947067	-0.082495
H138	H	0.277606	0.920195	-0.061675
H139	H	0.353033	0.901131	-0.076471
N140	N	0.710933	0.512483	-0.321829
H141	H	0.691463	0.477790	-0.293203
H142	H	0.762850	0.477857	-0.293227
N143	N	0.381560	0.677441	-0.116654
H144	H	0.431951	0.623472	-0.092172
H145	H	0.381420	0.731441	-0.146124
N146	N	0.710925	0.407829	-0.082498
H147	H	0.762851	0.358395	-0.061685
H148	H	0.705234	0.453808	-0.076469
N149	N	0.710939	0.947023	-0.187145
H150	H	0.734459	0.977374	-0.192368
H151	H	0.748251	0.881977	-0.158533
H152	H	0.566430	0.955627	-0.350205
H153	H	0.196245	1.073163	-0.323715
N154	N	0.808863	0.407780	0.352085
H155	H	0.782046	0.472824	0.326974
H156	H	0.813820	0.377350	0.407595
H157	H	0.701138	-0.044403	-0.072004
N158	N	0.178421	1.081747	-0.082474
H159	H	0.183286	1.051398	-0.107612
H160	H	0.151653	1.146793	-0.122361
H161	H	0.330888	1.073210	-0.467740
N162	N	0.710927	0.273141	-0.082488
H163	H	0.762853	0.246258	-0.061679
H164	H	0.691397	0.322619	-0.137986
H165	H	1.058995	0.222920	0.454464
H166	H	0.701132	0.399257	0.350141
H167	H	0.263588	0.677442	-0.101826
H168	H	0.440878	0.955633	-0.350201
N169	N	0.192547	1.149093	-0.471626
H170	H	0.207077	1.164712	-0.518401
H171	H	0.163402	1.202808	-0.471579
H172	H	0.566439	-0.044403	0.071963
N173	N	0.710964	1.081683	-0.321805
H174	H	0.734468	1.051322	-0.266308
H175	H	0.676889	1.146729	-0.346961
N176	N	1.089146	0.273111	0.082429
H177	H	1.094831	0.246216	0.137938
H178	H	1.094797	0.322572	0.061567
H179	H	0.701137	0.281724	0.467696
N180	N	0.710932	0.081723	-0.082498
H181	H	0.734449	0.051365	-0.107631
H182	H	0.748246	0.070449	-0.046067
H183	H	0.701121	0.533458	-0.206199
H184	H	0.633813	1.131927	-0.454510
N185	N	0.633792	0.205804	0.471644
H186	H	0.662944	0.190206	0.518400
H187	H	0.654901	0.152080	0.471612
H188	H	0.566430	0.281711	0.071973
H189	H	0.566420	0.821417	-0.350190
H190	H	0.566454	1.073176	-0.467747
N191	N	0.556643	0.842377	-0.812882
H192	H	0.504716	0.877074	-0.818957
H193	H	0.562331	0.830273	-0.852783
H194	H	0.566438	0.073155	0.071961
N195	N	0.934883	0.273101	0.486758
H196	H	0.908113	0.246209	0.492835
H197	H	0.908130	0.322563	0.492797
H198	H	0.263587	0.677421	0.101795
N199	N	1.074949	0.205815	-0.000069
H200	H	1.074967	0.152054	0.022509
H201	H	1.118672	0.190264	0.031072
N202	N	0.458745	0.947022	0.082459
H203	H	0.453862	0.977385	0.107587
H204	H	0.485509	0.958297	0.046023
H205	H	0.936583	0.281742	-0.072039
H206	H	0.961368	0.399233	0.071967
H207	H	0.330980	1.073138	0.071979
N208	N	-0.114004	0.677437	-0.116668
H209	H	-0.156999	0.677432	-0.108153
H210	H	-0.078166	0.623475	-0.114195
H211	H	0.306215	0.955601	-0.206189
H212	H	0.566440	0.281691	0.323764
N213	N	0.192611	1.149078	-0.000007
H214	H	0.207173	1.164672	0.031153
H215	H	0.163462	1.126480	0.022560
N216	N	0.808818	0.407838	-0.082498
H217	H	0.813702	0.377487	-0.107639
H218	H	0.782052	0.472884	-0.122385
H219	H	0.961348	0.399254	0.206153
N220	N	0.381581	0.677401	0.116643
H221	H	0.353186	0.677394	0.152194
H222	H	0.381489	0.731367	0.092111
N223	N	0.011984	0.677446	-0.116668
H224	H	0.026682	0.623479	-0.114218
H225	H	0.054952	0.677485	-0.108120
N226	N	-0.113994	0.677409	0.116624
H227	H	-0.156992	0.677408	0.108110
H228	H	-0.128644	0.731375	0.114147
H229	H	0.566435	0.821410	-0.467731
N230	N	0.011996	0.677403	0.116626
H231	H	-0.016400	0.677398	0.152175
H232	H	0.011909	0.731366	0.092097
H233	H	0.566440	0.821398	-0.676286
H234	H	0.701140	0.533438	-0.532302
N235	N	0.710955	0.512464	-0.647930
H236	H	0.691495	0.477759	-0.619301
H237	H	0.762871	0.477851	-0.619332
H238	H	0.566434	0.399237	0.206188
