data_functionalizedCrystal
_audit_creation_method	'MofGen! by Chris Wilmer'
_symmetry_space_group_name_H-M	'P1'
_symmetry_Int_Tables_number	1
_symmetry_cell_setting	triclinic
loop_
_symmetry_equiv_pos_as_xyz
  x,y,z
_cell_length_a	17.077404
_cell_length_b	15.297327
_cell_length_c	17.077396
_cell_angle_alpha	99.646061
_cell_angle_beta	89.982756
_cell_angle_gamma	99.707136
loop_
_atom_site_label
_atom_site_type_symbol
_atom_site_fract_x
_atom_site_fract_y
_atom_site_fract_z
Zn1	Zn	1.145934	-0.359152	-0.497893
Zn2	Zn	1.645934	0.140848	0.002107
Zn3	Zn	1.123118	-0.510028	-0.389334
Zn4	Zn	1.623118	-0.010028	0.110666
Zn5	Zn	1.014666	-0.359186	-0.366647
Zn6	Zn	1.514666	0.140814	0.133353
Zn7	Zn	0.991914	-0.509973	-0.520549
Zn8	Zn	1.491914	-0.009973	-0.020549
O9	O	1.068908	-0.434585	-0.443606
O10	O	1.568908	0.065415	0.056394
O11	O	1.252753	-0.379176	-0.483506
O12	O	1.752753	0.120824	0.016494
O13	O	1.108705	-0.490056	-0.276483
O14	O	1.608705	0.009944	0.223517
O15	O	1.051149	-0.232935	-0.365081
O16	O	1.551149	0.267065	0.134919
O17	O	1.235991	-0.490024	-0.403748
O18	O	1.735991	0.009976	0.096252
O19	O	1.147591	-0.232910	-0.461507
O20	O	1.647591	0.267090	0.038493
O21	O	1.029026	-0.379233	-0.259815
O22	O	1.529026	0.120767	0.240185
O23	O	0.901803	-0.379179	-0.387049
O24	O	1.401803	0.120821	0.112951
O25	O	1.012372	-0.489929	-0.627385
O26	O	1.512372	0.010071	-0.127385
O27	O	0.885087	-0.489961	-0.500120
O28	O	1.385087	0.010039	-0.000120
O29	O	1.125530	-0.379121	-0.610740
O30	O	1.625530	0.120879	-0.110740
O31	O	1.086644	-0.636268	-0.425716
O32	O	1.586644	-0.136268	0.074284
O33	O	0.990249	-0.636227	-0.522119
O34	O	1.490249	-0.136227	-0.022119
C35	C	0.864963	-0.434569	-0.443581
C36	C	1.364963	0.065431	0.056419
C37	C	0.777711	-0.434583	-0.443593
C38	C	1.277711	0.065417	0.056407
C39	C	0.728024	-0.492355	-0.502402
C40	C	1.228024	0.007645	-0.002402
C41	C	0.646044	-0.492357	-0.502415
C42	C	1.146044	0.007643	-0.002415
C43	C	0.613750	-0.434591	-0.443615
C44	C	1.113750	0.065409	0.056385
C45	C	0.663444	-0.376813	-0.384803
C46	C	1.163444	0.123187	0.115197
C47	C	0.745423	-0.376808	-0.384794
C48	C	1.245423	0.123192	0.115206
C49	C	0.492571	-0.376831	-0.384824
C50	C	0.992571	0.123169	0.115176
C51	C	0.410585	-0.376838	-0.384832
C52	C	0.910585	0.123162	0.115168
C53	C	0.393191	-0.492380	-0.502445
C54	C	0.893191	0.007620	-0.002445
C55	C	0.475171	-0.492374	-0.502436
C56	C	0.975171	0.007626	-0.002436
C57	C	0.524858	-0.434598	-0.443623
C58	C	1.024858	0.065402	0.056377
C59	C	1.033523	-0.668982	-0.478855
C60	C	1.533523	-0.168982	0.021145
C61	C	1.018457	-0.769258	-0.493961
C62	C	1.518457	-0.269258	0.006039
C63	C	1.176913	-1.051879	-0.335909
C64	C	1.676913	-0.551879	0.164091
C65	C	1.191068	-0.957665	-0.321712
C66	C	1.691068	-0.457665	0.178288
C67	C	1.147916	-0.910559	-0.364773
C68	C	1.647916	-0.410559	0.135227
C69	C	1.090607	-0.957676	-0.422033
C70	C	1.590607	-0.457676	0.077967
C71	C	1.076446	-1.051899	-0.436227
C72	C	1.576446	-0.551899	0.063773
C73	C	1.047450	-0.910579	-0.465091
C74	C	1.547450	-0.410579	0.034909
C75	C	0.990141	-0.957696	-0.522351
C76	C	1.490141	-0.457696	-0.022351
C77	C	0.975983	-1.051910	-0.536543
C78	C	1.475983	-0.551910	-0.036543
C79	C	1.019134	-1.099017	-0.493482
C80	C	1.519134	-0.599017	0.006518
C81	C	1.061611	-0.816355	-0.450897
C82	C	1.561611	-0.316355	0.049103
C83	C	0.961145	-0.816375	-0.551215
C84	C	1.461145	-0.316375	-0.051215
C85	C	0.946990	-0.910589	-0.565412
C86	C	1.446990	-0.410589	-0.065412
C87	C	1.273650	-0.434602	-0.443630
C88	C	1.773650	0.065398	0.056370
C89	C	1.360899	-0.434609	-0.443641
C90	C	1.860899	0.065391	0.056359
C91	C	1.068958	-0.434515	-0.648339
C92	C	1.568958	0.065485	-0.148339
C93	C	1.068980	-0.434485	-0.735585
C94	C	1.568980	0.065515	-0.235585
C95	C	1.104453	-0.199273	-0.408236
C96	C	1.604453	0.300727	0.091764
C97	C	1.119601	-0.098997	-0.393164
C98	C	1.619601	0.401003	0.106836
C99	C	1.027507	-0.376773	-0.767894
C100	C	1.527507	0.123227	-0.267894
C101	C	1.027523	-0.376752	-0.849872
C102	C	1.527523	0.123248	-0.349872
C103	C	1.069016	-0.434440	-0.899538
C104	C	1.569016	0.065560	-0.399538
C105	C	1.110490	-0.492159	-0.867223
C106	C	1.610490	0.007841	-0.367223
C107	C	1.110469	-0.492184	-0.785248
C108	C	1.610469	0.007816	-0.285248
C109	C	1.110533	-0.492103	-1.038085
C110	C	1.610533	0.007897	-0.538085
C111	C	1.110555	-0.492078	-1.120066
C112	C	1.610555	0.007922	-0.620066
C113	C	1.027586	-0.376671	-1.102709
C114	C	1.527586	0.123329	-0.602709
C115	C	1.027565	-0.376696	-1.020733
C116	C	1.527565	0.123304	-0.520733
C117	C	1.069041	-0.434414	-0.988425
C118	C	1.569041	0.065586	-0.488425
C119	C	1.068914	-0.434589	-0.239658
C120	C	1.568914	0.065411	0.260342
C121	C	1.069083	-0.434365	-0.152375
C122	C	1.569083	0.065635	0.347625
H123	H	0.785879	-0.329759	-0.336909
H124	H	1.285879	0.170241	0.163091
H125	H	1.108272	-0.778001	-0.404276
H126	H	1.608272	-0.278001	0.095724
C127	C	0.913676	-0.764562	-0.598587
C128	C	1.413676	-0.264562	-0.098587
N129	N	0.877926	-0.725531	-0.634264
N130	N	1.377926	-0.225531	-0.134264
H131	H	1.144271	-0.539135	-0.907669
H132	H	1.644271	-0.039135	-0.407669
H133	H	0.993723	-0.329791	-0.727460
H134	H	1.493723	0.170209	-0.227460
C135	C	0.981909	-0.313254	-0.885406
C136	C	1.481909	0.186746	-0.385406
N137	N	0.947553	-0.265422	-0.912170
N138	N	1.447553	0.234578	-0.412170
H139	H	0.993817	-0.329674	-1.129018
H140	H	1.493817	0.170326	-0.629018
C141	C	1.156194	-0.555544	-1.174698
C142	C	1.656194	-0.055544	-0.674698
N143	N	1.190568	-0.603349	-1.215848
N144	N	1.690568	-0.103349	-0.715848
H145	H	1.212035	-1.090242	-0.300850
H146	H	1.712035	-0.590242	0.199150
C147	C	1.163504	-0.806920	-0.349169
C148	C	1.663504	-0.306920	0.150831
N149	N	1.175253	-0.728855	-0.337419
N150	N	1.675253	-0.228855	0.162581
C151	C	0.338534	-0.555931	-0.567144
C152	C	0.838534	-0.055931	-0.067144
N153	N	0.297363	-0.603797	-0.615871
N154	N	0.797363	-0.103797	-0.115871
H155	H	1.144248	-0.539172	-0.758943
H156	H	1.644248	-0.039172	-0.258943
H157	H	0.384297	-0.329789	-0.336960
H158	H	0.884297	0.170211	0.163040
C159	C	1.156156	-0.555598	-1.002548
C160	C	1.656156	-0.055598	-0.502548
N161	N	1.190521	-0.603420	-0.975781
N162	N	1.690521	-0.103420	-0.475781
C163	C	0.591389	-0.555927	-0.567097
C164	C	1.091389	-0.055927	-0.067097
N165	N	0.550222	-0.603817	-0.615814
N166	N	1.050222	-0.103817	-0.115814
H167	H	0.754310	-0.539397	-0.550282
H168	H	1.254310	-0.039397	-0.050282
H169	H	0.501460	-0.539417	-0.550313
H170	H	1.001460	-0.039417	-0.050313
H171	H	0.533026	-0.329775	-0.336938
H172	H	1.033026	0.170225	0.163062
H173	H	0.993781	-0.329717	-0.980296
H174	H	1.493781	0.170283	-0.480296
H175	H	0.637145	-0.329776	-0.336930
H176	H	1.137145	0.170224	0.163070
H177	H	1.237727	-0.919306	-0.275091
H178	H	1.737727	-0.419306	0.224909
H179	H	0.900327	-0.948966	-0.612033
H180	H	1.400327	-0.448966	-0.112033
H181	H	1.007614	-1.175734	-0.505040
H182	H	1.507614	-0.675734	-0.005040
H183	H	0.929309	-1.090270	-0.583158
H184	H	1.429309	-0.590270	-0.083158
