data_functionalizedCrystal
_audit_creation_method	'MofGen! by Chris Wilmer'
_symmetry_space_group_name_H-M	'P1'
_symmetry_Int_Tables_number	1
_symmetry_cell_setting	triclinic
loop_
_symmetry_equiv_pos_as_xyz
  x,y,z
_cell_length_a	11.169417
_cell_length_b	11.169416
_cell_length_c	11.169409
_cell_angle_alpha	90.028030
_cell_angle_beta	89.981053
_cell_angle_gamma	89.984328
loop_
_atom_site_label
_atom_site_type_symbol
_atom_site_fract_x
_atom_site_fract_y
_atom_site_fract_z
Zn1	Zn	1.834939	0.477627	-0.678551
Zn2	Zn	2.084939	0.727627	-0.428551
Zn3	Zn	2.334939	0.977627	-0.178551
Zn4	Zn	2.584939	1.227627	0.071449
Zn5	Zn	1.834819	0.678368	-0.477883
Zn6	Zn	2.084819	0.928368	-0.227883
Zn7	Zn	2.334819	1.178368	0.022117
Zn8	Zn	2.584819	1.428368	0.272117
Zn9	Zn	1.634225	0.477706	-0.477888
Zn10	Zn	1.884225	0.727706	-0.227888
Zn11	Zn	2.134225	0.977706	0.022112
Zn12	Zn	2.384225	1.227706	0.272112
Zn13	Zn	1.634223	0.678276	-0.678531
Zn14	Zn	1.884223	0.928276	-0.428531
Zn15	Zn	2.134223	1.178276	-0.178531
Zn16	Zn	2.384223	1.428276	0.071469
O17	O	1.734552	0.577994	-0.578213
O18	O	1.984552	0.827994	-0.328213
O19	O	2.234552	1.077994	-0.078213
O20	O	2.484552	1.327994	0.171787
O21	O	2.002873	0.504261	-0.651938
O22	O	2.252873	0.754261	-0.401938
O23	O	2.502873	1.004261	-0.151938
O24	O	2.752873	1.254261	0.098062
O25	O	1.808161	0.651821	-0.309933
O26	O	2.058161	0.901821	-0.059933
O27	O	2.308161	1.151821	0.190067
O28	O	2.558161	1.401821	0.440067
O29	O	1.660902	0.309746	-0.504517
O30	O	1.910902	0.559746	-0.254517
O31	O	2.160902	0.809746	-0.004517
O32	O	2.410902	1.059746	0.245483
O33	O	2.002785	0.651744	-0.504508
O34	O	2.252785	0.901744	-0.254508
O35	O	2.502785	1.151744	-0.004508
O36	O	2.752785	1.401744	0.245492
O37	O	1.808365	0.309688	-0.651943
O38	O	2.058365	0.559688	-0.401943
O39	O	2.308365	0.809688	-0.151943
O40	O	2.558365	1.059688	0.098057
O41	O	1.660785	0.504396	-0.309937
O42	O	1.910785	0.754396	-0.059937
O43	O	2.160785	1.004396	0.190063
O44	O	2.410785	1.254396	0.440063
O45	O	1.466275	0.504307	-0.504498
O46	O	1.716275	0.754307	-0.254498
O47	O	1.966275	1.004307	-0.004498
O48	O	2.216275	1.254307	0.245502
O49	O	1.660898	0.651588	-0.846483
O50	O	1.910898	0.901588	-0.596483
O51	O	2.160898	1.151588	-0.346483
O52	O	2.410898	1.401588	-0.096483
O53	O	1.466274	0.651665	-0.651909
O54	O	1.716274	0.901665	-0.401909
O55	O	1.966274	1.151665	-0.151909
O56	O	2.216274	1.401665	0.098091
O57	O	1.808363	0.504172	-0.846498
O58	O	2.058363	0.754172	-0.596498
O59	O	2.308363	1.004172	-0.346498
O60	O	2.558363	1.254172	-0.096498
O61	O	1.808158	0.846305	-0.504488
O62	O	2.058158	1.096305	-0.254488
O63	O	2.308158	1.346305	-0.004488
O64	O	2.558158	1.596305	0.245512
O65	O	1.660781	0.846238	-0.651903
O66	O	1.910781	1.096238	-0.401903
O67	O	2.160781	1.346238	-0.151903
O68	O	2.410781	1.596238	0.098097
C69	C	1.422727	0.577985	-0.578202
C70	C	1.672727	0.827985	-0.328202
C71	C	1.922727	1.077985	-0.078202
C72	C	2.172727	1.327985	0.171798
C73	C	1.289327	0.578010	-0.578226
C74	C	1.539327	0.828010	-0.328226
C75	C	1.789327	1.078010	-0.078226
C76	C	2.039327	1.328010	0.171774
C77	C	1.734489	0.889819	-0.578219
C78	C	1.984489	1.139819	-0.328219
C79	C	2.234489	1.389819	-0.078219
C80	C	2.484489	1.639819	0.171781
C81	C	1.734572	1.023219	-0.578262
C82	C	1.984572	1.273219	-0.328262
C83	C	2.234572	1.523219	-0.078262
C84	C	2.484572	1.773219	0.171738
C85	C	1.734644	0.577861	-0.891256
C86	C	1.984644	0.827861	-0.641256
C87	C	2.234644	1.077861	-0.391256
C88	C	2.484644	1.327861	-0.141256
C89	C	1.734683	0.577804	-1.024656
C90	C	1.984683	0.827804	-0.774656
C91	C	2.234683	1.077804	-0.524656
C92	C	2.484683	1.327804	-0.274656
C93	C	2.047594	0.578004	-0.578224
C94	C	2.297594	0.828004	-0.328224
C95	C	2.547594	1.078004	-0.078224
C96	C	2.797594	1.328004	0.171776
C97	C	2.180994	0.578008	-0.578229
C98	C	2.430994	0.828008	-0.328229
C99	C	2.680994	1.078008	-0.078229
C100	C	2.930994	1.328008	0.171771
C101	C	1.734635	1.264952	-0.578245
C102	C	1.984635	1.514952	-0.328245
C103	C	2.234635	1.764952	-0.078245
C104	C	2.484635	2.014952	0.171755
C105	C	1.734640	1.131552	-0.578291
C106	C	1.984640	1.381552	-0.328291
C107	C	2.234640	1.631552	-0.078291
C108	C	2.484640	1.881552	0.171709
C109	C	1.734529	0.578040	-0.266388
C110	C	1.984529	0.828040	-0.016388
C111	C	2.234529	1.078040	0.233612
C112	C	2.484529	1.328040	0.483612
C113	C	1.734722	0.577759	-0.132989
C114	C	1.984722	0.827759	0.117011
C115	C	2.234722	1.077759	0.367011
C116	C	2.484722	1.327759	0.617011
