data_functionalizedCrystal
_audit_creation_method	'MofGen! by Chris Wilmer'
_symmetry_space_group_name_H-M	'P1'
_symmetry_Int_Tables_number	1
_symmetry_cell_setting	triclinic
loop_
_symmetry_equiv_pos_as_xyz
  x,y,z
_cell_length_a	17.019383
_cell_length_b	17.038272
_cell_length_c	8.965430
_cell_angle_alpha	90.000179
_cell_angle_beta	86.120223
_cell_angle_gamma	87.246883
loop_
_atom_site_label
_atom_site_type_symbol
_atom_site_fract_x
_atom_site_fract_y
_atom_site_fract_z
O1	O	1.053353	0.099647	-0.259209
O2	O	0.824543	0.112336	-0.229851
O3	O	0.937588	-0.007823	-0.244343
O4	O	0.940308	0.219806	-0.244716
O5	O	0.937578	-0.007815	0.003737
O6	O	0.824533	0.112344	0.018230
O7	O	1.053343	0.099655	-0.011128
Cu8	Cu	0.938937	0.106000	0.026202
Cu9	Cu	0.938949	0.105991	-0.267181
O10	O	0.940298	0.219814	0.003364
C11	C	0.795117	0.111857	-0.102035
C12	C	0.707450	0.110409	-0.090787
C13	C	0.935109	-0.036945	-0.119986
C14	C	0.927729	-0.123732	-0.119039
C15	C	0.666262	0.109726	-0.220720
C16	C	0.583890	0.108377	-0.210128
C17	C	0.542707	0.107706	-0.069603
C18	C	0.583900	0.108391	0.060339
C19	C	0.666271	0.109746	0.049747
C20	C	0.294000	0.103622	-0.030855
C21	C	0.211624	0.102265	-0.020272
C22	C	0.211619	0.102253	-0.290742
C23	C	0.293991	0.103602	-0.301322
C24	C	0.335177	0.104292	-0.171379
C25	C	0.458509	0.106325	-0.058774
C26	C	0.419373	0.105678	-0.182210
C27	C	0.995489	-0.173901	-0.127732
C28	C	0.988549	-0.255446	-0.126856
C29	C	0.913850	-0.286820	-0.117276
C30	C	0.846085	-0.236645	-0.108588
C31	C	0.853025	-0.155101	-0.109475
C32	C	0.889332	-0.532558	-0.114151
C33	C	0.882397	-0.614108	-0.113260
C34	C	1.024862	-0.632904	-0.131531
C35	C	1.031796	-0.551358	-0.132408
C36	C	0.964031	-0.501189	-0.123727
C37	C	0.906755	-0.370172	-0.116376
C38	C	0.971126	-0.417839	-0.124639
C39	C	1.082769	0.100134	-0.138947
C40	C	1.170436	0.101582	-0.150205
C41	C	0.942777	0.248936	-0.120996
C42	C	0.950157	0.335723	-0.121953
N43	N	0.938935	0.106006	0.232552
N44	N	0.938957	0.105978	-0.473531
C45	C	0.886637	0.161558	0.336562
C46	C	0.958932	0.176652	0.426698
C47	C	0.866670	0.090919	0.438539
C48	C	1.011268	0.121136	0.320494
C49	C	0.918958	0.035372	0.332332
C50	C	0.991302	0.050436	0.422417
H51	H	0.550358	0.107821	-0.315934
O52	O	1.104318	-0.520795	-0.141917
C53	C	1.194861	-0.439685	-0.282100
C54	C	1.112697	-0.474227	-0.271501
H55	H	1.201668	-0.402041	-0.386878
H56	H	1.201686	-0.401928	-0.179225
H57	H	1.242082	-0.489567	-0.288090
H58	H	1.065427	-0.424395	-0.265558
H59	H	1.105940	-0.512005	-0.374377
O60	O	1.090661	-0.681669	-0.140239
C61	C	1.165487	-0.784674	-0.278329
C62	C	1.090944	-0.729479	-0.268659
H63	H	1.165733	-0.823353	-0.382132
H64	H	1.220096	-0.748282	-0.285431
H65	H	1.165791	-0.823286	-0.174503
H66	H	1.090564	-0.690855	-0.372457
H67	H	1.036368	-0.765918	-0.261484
H68	H	0.845934	-0.395726	-0.108573
H69	H	0.805548	0.078170	0.490088
H70	H	0.842456	0.208579	0.298638
H71	H	0.699805	0.110305	0.155552
O72	O	0.787228	-0.106332	-0.101294
C73	C	0.712417	-0.003323	-0.220180
C74	C	0.786957	-0.058521	-0.229641
H75	H	0.712182	0.035357	-0.323919
H76	H	0.657805	-0.039712	-0.213271
H77	H	0.712107	0.035289	-0.116273
H78	H	0.787344	-0.097144	-0.333540
H79	H	0.841535	-0.022085	-0.236468
O80	O	0.706140	0.110413	-0.357346
C81	C	0.697434	0.110222	-0.624494
C82	C	0.652177	0.109456	-0.469857
H83	H	0.653826	0.109432	-0.715501
H84	H	0.732429	0.165555	-0.635860
H85	H	0.739563	0.056185	-0.636593
H86	H	0.610007	0.163456	-0.457653
H87	H	0.617234	0.054087	-0.458560
H88	H	0.327517	0.104143	-0.415752
O89	O	1.084220	0.136557	0.259449
C90	C	1.187912	0.228198	0.239306
C91	C	1.105297	0.210812	0.308545
H92	H	1.204971	0.288239	0.278948
H93	H	1.232586	0.181161	0.275379
H94	H	1.187315	0.228081	0.112231
H95	H	1.105817	0.210941	0.435626
H96	H	1.060659	0.257851	0.272353
O97	O	0.171734	0.101561	-0.417109
C98	C	0.180419	0.101757	-0.686493
C99	C	0.225687	0.102517	-0.543496
H100	H	0.224020	0.102546	-0.788714
H101	H	0.145419	0.046427	-0.688864
H102	H	0.138293	0.155798	-0.687754
H103	H	0.267854	0.048514	-0.542141
H104	H	0.260636	0.157882	-0.541182
O105	O	0.333972	0.104145	0.095412
C106	C	0.363517	0.036893	0.322834
C107	C	0.318219	0.036194	0.179870
H108	H	0.350784	-0.018032	0.391173
H109	H	0.429478	0.037929	0.291232
H110	H	0.343781	0.091338	0.391987
H111	H	0.337889	-0.018244	0.110651
H112	H	0.252267	0.035199	0.211575
O113	O	0.773478	-0.267025	-0.099082
C114	C	0.649601	-0.275940	0.045369
C115	C	0.731799	-0.241471	0.034773
H116	H	0.615886	-0.255307	0.153597
H117	H	0.615794	-0.255249	-0.054046
H118	H	0.656296	-0.342838	0.044438
H119	H	0.725176	-0.174573	0.035746
H120	H	0.765577	-0.262225	0.134182
H121	H	0.821565	-0.639649	-0.105435
O122	O	0.898851	-0.035916	0.282897
C123	C	0.930442	-0.175277	0.272409
C124	C	0.953302	-0.094597	0.328520
H125	H	0.974462	-0.222740	0.309245
H126	H	0.868793	-0.188108	0.321162
H127	H	0.931173	-0.174700	0.145170
H128	H	0.952617	-0.095114	0.455749
H129	H	1.014937	-0.081798	0.279654
O130	O	1.044072	-0.005615	0.467590
C131	C	1.102954	-0.068942	0.675922
C132	C	1.043151	-0.005453	0.624968
H133	H	1.102241	-0.068821	0.803163
H134	H	1.086443	-0.129018	0.635461
H135	H	1.164498	-0.055952	0.626841
H136	H	0.981587	-0.018370	0.674028
H137	H	1.059730	0.054602	0.665408
O138	O	0.823449	-0.483914	-0.105893
C139	C	0.703829	-0.442878	-0.219099
C140	C	0.778405	-0.498028	-0.228620
H141	H	0.667399	-0.454258	-0.318327
H142	H	0.667284	-0.454290	-0.110657
H143	H	0.721629	-0.379212	-0.221311
H144	H	0.760676	-0.561714	-0.226470
H145	H	0.814932	-0.486548	-0.337051
O146	O	0.543990	0.107636	0.196929
C147	C	0.523149	0.039507	0.430745
C148	C	0.568413	0.040278	0.276116
H149	H	0.542866	-0.014955	0.494800
H150	H	0.535818	0.094424	0.495901
H151	H	0.457203	0.038457	0.415960
H152	H	0.634372	0.041300	0.290764
H153	H	0.555679	-0.014636	0.211014
H154	H	0.178093	0.101741	0.094166
O155	O	0.978979	0.247952	0.476206
C156	C	0.946553	0.387130	0.488795
C157	C	0.923756	0.306430	0.432677
H158	H	0.901927	0.434434	0.453597
H159	H	0.946895	0.386302	0.615900
H160	H	1.007756	0.400403	0.438341
H161	H	0.862548	0.293106	0.483022
H162	H	0.923469	0.307298	0.305568
O163	O	1.043644	-0.387273	-0.134137
C164	C	1.134176	-0.306146	-0.274306
C165	C	1.052020	-0.340705	-0.263721
H166	H	1.140981	-0.268501	-0.379084
H167	H	1.140989	-0.268386	-0.171429
H168	H	1.181406	-0.356019	-0.280287
H169	H	1.004741	-0.290882	-0.257787
H170	H	1.045275	-0.378485	-0.366598
O171	O	0.459331	0.106470	-0.318744
C172	C	0.480120	0.174543	-0.552634
C173	C	0.434816	0.173756	-0.398044
H174	H	0.460304	0.228929	-0.616804
H175	H	0.546072	0.175681	-0.537958
H176	H	0.467483	0.119562	-0.617625
H177	H	0.447387	0.228727	-0.332970
H178	H	0.368877	0.172577	-0.412827
O179	O	0.418531	0.105805	0.077767
C180	C	0.388980	0.173063	0.312773
C181	C	0.434284	0.173757	0.158177
H182	H	0.401713	0.227988	0.377841
H183	H	0.323020	0.172030	0.298107
H184	H	0.408711	0.118618	0.376861
H185	H	0.414619	0.228194	0.094006
H186	H	0.500235	0.174749	0.172949
O187	O	1.068036	-0.143391	-0.136773
C188	C	1.158535	-0.062204	-0.019912
C189	C	1.076356	-0.096715	-0.009459
H190	H	1.165282	-0.024446	0.082992
H191	H	1.205805	-0.112042	-0.025887
H192	H	1.165335	-0.024531	-0.124652
H193	H	1.069479	-0.134379	0.095273
H194	H	1.029127	-0.046840	-0.003567
O195	O	1.054312	-0.304262	-0.135095
C196	C	1.129170	-0.407214	-0.016148
C197	C	1.054651	-0.351986	-0.006637
H198	H	1.129477	-0.445802	0.087710
H199	H	1.129492	-0.445910	-0.119948
H200	H	1.183742	-0.370771	-0.023212
H201	H	1.000039	-0.388368	0.000485
H202	H	1.054397	-0.313288	0.097144
