data_functionalizedCrystal
_audit_creation_method	'MofGen! by Chris Wilmer'
_symmetry_space_group_name_H-M	'P1'
_symmetry_Int_Tables_number	1
_symmetry_cell_setting	triclinic
loop_
_symmetry_equiv_pos_as_xyz
  x,y,z
_cell_length_a	14.519709
_cell_length_b	8.559649
_cell_length_c	7.088929
_cell_angle_alpha	95.344185
_cell_angle_beta	83.779193
_cell_angle_gamma	76.729405
loop_
_atom_site_label
_atom_site_type_symbol
_atom_site_fract_x
_atom_site_fract_y
_atom_site_fract_z
O1	O	-1.198225	-0.225782	-0.158735
O2	O	-0.864892	0.107551	0.174599
O3	O	-0.531558	0.440884	0.507932
O4	O	-0.927974	-0.250449	-0.158792
O5	O	-0.594641	0.082884	0.174541
O6	O	-0.261307	0.416217	0.507874
O7	O	-1.086909	-0.005581	-0.158756
O8	O	-0.753576	0.327752	0.174577
O9	O	-0.420242	0.661086	0.507910
O10	O	-1.039290	-0.470650	-0.158770
O11	O	-0.705957	-0.137317	0.174563
O12	O	-0.372623	0.196016	0.507896
O13	O	-1.108154	0.027217	0.159224
O14	O	-0.774821	0.360551	0.492557
O15	O	-0.441488	0.693884	0.825890
O16	O	-0.949219	-0.217651	0.159188
O17	O	-0.615886	0.115682	0.492521
O18	O	-0.282553	0.449016	0.825854
O19	O	-1.219470	-0.192984	0.159245
O20	O	-0.886137	0.140349	0.492579
O21	O	-0.552804	0.473683	0.825912
Cu22	Cu	-1.086285	-0.202323	0.188251
Cu23	Cu	-0.752951	0.131011	0.521584
Cu24	Cu	-0.419618	0.464344	0.854917
Cu25	Cu	-1.061160	-0.241111	-0.187797
Cu26	Cu	-0.727826	0.092223	0.145536
Cu27	Cu	-0.394493	0.425556	0.478869
O28	O	-1.060535	-0.437852	0.159210
O29	O	-0.727202	-0.104519	0.492543
O30	O	-0.393869	0.228815	0.825876
C31	C	-0.904319	-0.232902	0.000190
C32	C	-0.570986	0.100432	0.333524
C33	C	-0.237652	0.433765	0.666857
C34	C	-0.802183	-0.229460	0.000168
C35	C	-0.468850	0.103873	0.333502
C36	C	-0.135517	0.437207	0.666835
C37	C	-1.101140	0.070337	0.000231
C38	C	-0.767807	0.403671	0.333564
C39	C	-0.434473	0.737004	0.666898
C40	C	-1.111881	0.247686	0.000223
C41	C	-0.778548	0.581019	0.333556
C42	C	-0.445214	0.914353	0.666889
C43	C	-1.243125	-0.210532	0.000259
C44	C	-0.909792	0.122801	0.333592
C45	C	-0.576458	0.456135	0.666925
C46	C	-1.345260	-0.213975	0.000268
C47	C	-1.011926	0.119358	0.333602
C48	C	-0.678593	0.452692	0.666935
C49	C	-0.428203	-0.216772	0.000256
C50	C	-0.094870	0.116562	0.333589
C51	C	0.238463	0.449895	0.666922
C52	C	-0.532257	-0.220295	0.000231
C53	C	-0.198924	0.113038	0.333564
C54	C	0.134410	0.446371	0.666897
C55	C	-0.615190	-0.223116	0.000210
C56	C	-0.281857	0.110218	0.333543
C57	C	0.051477	0.443551	0.666877
C58	C	-0.719250	-0.226640	0.000189
C59	C	-0.385917	0.106694	0.333522
C60	C	-0.052584	0.440027	0.666855
C61	C	-1.046304	-0.513771	0.000218
C62	C	-0.712971	-0.180438	0.333551
C63	C	-0.379637	0.152896	0.666885
C64	C	-1.035562	-0.691121	0.000214
C65	C	-0.702229	-0.357787	0.333547
C66	C	-0.368896	-0.024454	0.666881
N67	N	-1.103963	-0.175040	0.452743
N68	N	-0.770630	0.158293	0.786076
N69	N	-0.437296	0.491626	1.119409
N70	N	-1.043489	-0.268380	-0.452289
N71	N	-0.710156	0.064953	-0.118956
N72	N	-0.376823	0.398287	0.214377
H73	H	-0.962005	0.225592	0.000204
H74	H	-0.628671	0.558925	0.333538
H75	H	-0.295338	0.892258	0.666871
H76	H	-1.185445	0.330985	0.000254
H77	H	-0.852112	0.664318	0.333587
H78	H	-0.518778	0.997651	0.666920
H79	H	-1.166646	-0.078319	0.534413
H80	H	-0.833313	0.255015	0.867746
H81	H	-0.499980	0.588348	1.201079
H82	H	-0.980816	-0.365107	0.466050
H83	H	-0.647483	-0.031773	0.799383
H84	H	-0.314150	0.301560	1.132717
