data_functionalizedCrystal
_audit_creation_method	'MofGen! by Chris Wilmer'
_symmetry_space_group_name_H-M	'P1'
_symmetry_Int_Tables_number	1
_symmetry_cell_setting	triclinic
loop_
_symmetry_equiv_pos_as_xyz
  x,y,z
_cell_length_a	13.339070
_cell_length_b	14.185569
_cell_length_c	13.262508
_cell_angle_alpha	87.832325
_cell_angle_beta	99.430496
_cell_angle_gamma	73.186930
loop_
_atom_site_label
_atom_site_type_symbol
_atom_site_fract_x
_atom_site_fract_y
_atom_site_fract_z
O1	O	1.360147	-0.057090	0.515095
O2	O	1.060433	-0.039230	0.449615
O3	O	1.207039	-0.009248	0.339721
O4	O	1.213541	-0.087072	0.624990
O5	O	1.250348	-0.167228	0.307262
O6	O	1.103742	-0.197209	0.417156
O7	O	1.403457	-0.215069	0.482636
Cu8	Cu	1.257554	-0.220564	0.446933
Cu9	Cu	1.206336	-0.033735	0.485319
O10	O	1.256850	-0.245051	0.592531
C11	C	1.043522	-0.115202	0.422325
C12	C	0.928608	-0.106209	0.389355
N13	N	1.293585	-0.351969	0.419935
C14	C	0.584124	-0.176129	0.645711
C15	C	0.692090	-0.184576	0.676692
C16	C	0.751225	-0.164985	0.604860
C17	C	0.702382	-0.136945	0.502043
C18	C	0.594403	-0.128489	0.471061
C19	C	0.761504	-0.117346	0.430210
C20	C	0.712662	-0.089305	0.327393
C21	C	0.604694	-0.080852	0.296416
C22	C	0.545559	-0.100442	0.368248
C23	C	0.869484	-0.125802	0.461192
C24	C	0.879763	-0.078162	0.286542
C25	C	0.771797	-0.069715	0.255562
C26	C	1.064447	-0.766449	0.591586
C27	C	1.091748	-0.865894	0.571145
C28	C	1.221601	-0.839322	0.473891
C29	C	1.194307	-0.739872	0.494320
C30	C	1.115730	-0.703444	0.553169
C31	C	1.245590	-0.676867	0.455904
C32	C	1.218302	-0.577427	0.476336
C33	C	1.139731	-0.540992	0.535185
C34	C	1.088442	-0.604004	0.573602
C35	C	1.324171	-0.713299	0.397061
C36	C	1.375454	-0.650294	0.358644
C37	C	1.348161	-0.550850	0.379070
C38	C	1.269590	-0.514415	0.437919
C39	C	1.399450	-0.487837	0.340654
C40	C	1.372162	-0.388397	0.361086
C41	C	1.242302	-0.414974	0.458352
C42	C	1.420367	-0.139095	0.509927
C43	C	1.535279	-0.148082	0.542898
C44	C	1.225075	-0.078072	0.286235
C45	C	1.214281	-0.047780	0.175218
N46	N	1.170312	0.097672	0.512311
C47	C	1.278282	-0.306859	-0.208510
C48	C	1.288416	-0.335321	-0.104206
C49	C	1.269883	-0.263438	-0.034345
C50	C	1.241214	-0.163088	-0.068798
C51	C	1.231071	-0.134623	-0.173114
C52	C	1.222673	-0.091202	0.001051
C53	C	1.194004	0.009147	-0.033402
C54	C	1.183863	0.037607	-0.137708
C55	C	1.202395	-0.034276	-0.207569
C56	C	1.232816	-0.119667	0.105367
C57	C	1.185605	0.052568	0.140763
C58	C	1.175471	0.081030	0.036459
C59	C	1.238814	-0.176225	0.646017
C60	C	1.249606	-0.206511	0.757035
H61	H	0.839135	-0.171863	0.630091
H62	H	1.152127	0.162736	0.008391
H63	H	0.732012	-0.046876	0.171848
C64	C	1.003258	-0.564343	0.637606
C65	C	1.047471	-0.527904	0.725148
C66	C	0.969032	-0.491346	0.784122
H67	H	0.976561	-0.616018	0.657670
H68	H	0.946758	-0.512567	0.598163
H69	H	1.103952	-0.579675	0.764585
H70	H	1.074161	-0.476218	0.705115
H71	H	0.912532	-0.439570	0.744679
H72	H	0.942341	-0.543027	0.804178
H73	H	0.999017	-0.466610	0.843521
H74	H	1.278135	-0.286618	0.050583
H75	H	1.194151	-0.011107	-0.292503
H76	H	0.731848	-0.207399	0.760406
H77	H	1.049981	-0.917191	0.602435
H78	H	1.000455	-0.736787	0.639498
H79	H	1.160509	0.119318	-0.165757
C80	C	1.319703	-0.444233	-0.066626
C81	C	1.414882	-0.469088	0.005066
C82	C	1.443734	-0.569411	0.039721
H83	H	1.329380	-0.483088	-0.123057
H84	H	1.265035	-0.456568	-0.035298
H85	H	1.469538	-0.456763	-0.026262
H86	H	1.405232	-0.430260	0.061515
H87	H	1.389066	-0.581746	0.071049
H88	H	1.453405	-0.608257	-0.016716
H89	H	1.508310	-0.586287	0.088375
H90	H	1.178309	-0.385312	0.506264
H91	H	1.285582	-0.868994	0.425978
C92	C	1.353605	-0.821223	0.374728
C93	C	1.263581	-0.841458	0.321450
C94	C	1.290657	-0.940862	0.300847
H95	H	1.378925	-0.862224	0.437463
H96	H	1.407711	-0.833922	0.334136
H97	H	1.209493	-0.828769	0.362042
H98	H	1.238249	-0.800482	0.258705
H99	H	1.344764	-0.953561	0.260255
H100	H	1.315978	-0.981855	0.363587
H101	H	1.229584	-0.954602	0.264688
H102	H	0.564926	-0.058009	0.212698
C103	C	0.944042	-0.056772	0.208683
C104	C	0.984076	0.021024	0.238082
C105	C	1.043311	0.040749	0.166399
H106	H	0.899598	-0.038793	0.142978
H107	H	1.001528	-0.114146	0.205834
H108	H	0.926598	0.078386	0.240920
H109	H	1.028535	0.003066	0.303776
H110	H	1.100797	-0.016624	0.163550
H111	H	0.998860	0.058724	0.100698
H112	H	1.070489	0.093529	0.186341
H113	H	1.413923	-0.337097	0.329804
H114	H	0.535965	-0.192068	0.704187
C115	C	1.110320	-0.433042	0.557426
C116	C	1.200356	-0.412789	0.610650
C117	C	1.173306	-0.313355	0.631144
H118	H	1.056225	-0.420253	0.598014
H119	H	1.085006	-0.392116	0.494627
H120	H	1.225654	-0.453703	0.673440
H121	H	1.254461	-0.425556	0.570081
H122	H	1.147993	-0.272428	0.568345
H123	H	1.119210	-0.300574	0.671729
H124	H	1.234393	-0.299598	0.667250
C125	C	1.165387	0.130771	0.216435
C126	C	1.138073	0.224745	0.163932
C127	C	1.119426	0.296803	0.233610
H128	H	1.227954	0.121011	0.266580
H129	H	1.108679	0.125675	0.249158
H130	H	1.194776	0.229839	0.131225
H131	H	1.075502	0.234538	0.113792
H132	H	1.062718	0.291708	0.266334
H133	H	1.181996	0.287033	0.283751
H134	H	1.100882	0.360573	0.197996
C135	C	1.484918	-0.527383	0.276929
C136	C	1.581140	-0.515092	0.325549
C137	C	1.659899	-0.551517	0.266879
H138	H	1.464101	-0.492178	0.210811
H139	H	1.493903	-0.595646	0.270283
H140	H	1.572155	-0.446842	0.332182
H141	H	1.601990	-0.550298	0.391662
H142	H	1.668883	-0.619780	0.260234
H143	H	1.639071	-0.516309	0.200764
H144	H	1.725196	-0.543191	0.299864
C145	C	0.922327	-0.156110	0.572878
C146	C	0.870660	-0.087159	0.634721
C147	C	0.919299	-0.115057	0.737619
H148	H	0.995095	-0.158332	0.581201
H149	H	0.917582	-0.219586	0.592412
H150	H	0.875416	-0.023700	0.615194
H151	H	0.797895	-0.084928	0.626430
H152	H	0.914554	-0.178533	0.757152
H153	H	0.992066	-0.117278	0.745931
H154	H	0.884244	-0.068284	0.779592
H155	H	0.457643	-0.093566	0.343028
H156	H	1.439435	-0.679966	0.310731
C157	C	1.263786	-0.228640	0.142606
C158	C	1.187575	-0.270170	0.093712
C159	C	1.216078	-0.370561	0.127980
H160	H	1.267156	-0.235435	0.214713
H161	H	1.331448	-0.261779	0.126892
H162	H	1.119932	-0.237040	0.109434
H163	H	1.184195	-0.263402	0.021606
H164	H	1.283739	-0.403701	0.112266
H165	H	1.219447	-0.377346	0.200087
H166	H	1.164379	-0.398754	0.094804
C167	C	1.298389	-0.385040	-0.284205
C168	C	1.325647	-0.479013	-0.231715
C169	C	1.344163	-0.551063	-0.301415
H170	H	1.355076	-0.380020	-0.316980
H171	H	1.235758	-0.375196	-0.334310
H172	H	1.388271	-0.488854	-0.181628
H173	H	1.268974	-0.484065	-0.198943
H174	H	1.281532	-0.541219	-0.351520
H175	H	1.400848	-0.546034	-0.334187
H176	H	1.362650	-0.614832	-0.265813
