data_functionalizedCrystal
_audit_creation_method	'MofGen! by Chris Wilmer'
_symmetry_space_group_name_H-M	'P1'
_symmetry_Int_Tables_number	1
_symmetry_cell_setting	triclinic
loop_
_symmetry_equiv_pos_as_xyz
  x,y,z
_cell_length_a	15.995350
_cell_length_b	15.995350
_cell_length_c	15.072220
_cell_angle_alpha	90.001101
_cell_angle_beta	89.991149
_cell_angle_gamma	83.492375
loop_
_atom_site_label
_atom_site_type_symbol
_atom_site_fract_x
_atom_site_fract_y
_atom_site_fract_z
O1	O	1.110996	0.107921	-0.073703
O2	O	1.610996	0.607921	0.426297
O3	O	0.867221	0.121249	-0.073721
O4	O	1.367221	0.621249	0.426279
O5	O	0.995772	-0.007303	-0.073710
O6	O	1.495772	0.492697	0.426290
O7	O	0.982444	0.236472	-0.073713
O8	O	1.482444	0.736472	0.426287
O9	O	0.995740	-0.007296	0.073855
O10	O	1.495740	0.492704	0.573855
O11	O	0.867189	0.121256	0.073844
O12	O	1.367189	0.621256	0.573844
O13	O	1.110964	0.107928	0.073862
O14	O	1.610964	0.607928	0.573862
Zn15	Zn	0.989071	0.114593	0.097283
Zn16	Zn	1.489071	0.614593	0.597283
Zn17	Zn	0.989113	0.114584	-0.097141
Zn18	Zn	1.489113	0.614584	0.402859
O19	O	0.982413	0.236480	0.073852
O20	O	1.482413	0.736480	0.573852
C21	C	0.836010	0.120701	0.000060
C22	C	1.336010	0.620701	0.500060
C23	C	0.743060	0.119049	0.000053
C24	C	1.243060	0.619049	0.500053
C25	C	0.995205	-0.038494	0.000070
C26	C	1.495205	0.461506	0.500070
C27	C	0.993553	-0.131444	0.000065
C28	C	1.493553	0.368556	0.500065
C29	C	0.405312	0.113117	0.000071
C30	C	0.905312	0.613117	0.500071
C31	C	0.452746	0.021565	0.000401
C32	C	0.952746	0.521565	0.500401
C33	C	0.549436	0.023217	0.000063
C34	C	1.049436	0.523217	0.500063
C35	C	0.572873	0.116060	0.000063
C36	C	1.072873	0.616060	0.500063
C37	C	0.531804	0.161212	-0.084201
C38	C	1.031804	0.661212	0.415799
C39	C	0.435168	0.158912	-0.084266
C40	C	0.935168	0.658912	0.415734
C41	C	0.434793	0.160812	0.083543
C42	C	0.934793	0.660812	0.583543
C43	C	0.531738	0.160790	0.084651
C44	C	1.031738	0.660790	0.584651
C45	C	0.667570	0.117727	0.000055
C46	C	1.167570	0.617727	0.500055
C47	C	0.310614	0.111452	0.000073
C48	C	0.810614	0.611452	0.500073
C49	C	0.987621	-0.469192	0.000068
C50	C	1.487621	0.030808	0.500068
C51	C	0.896069	-0.421758	-0.000270
C52	C	1.396069	0.078242	0.499730
C53	C	0.897721	-0.325068	0.000063
C54	C	1.397721	0.174932	0.500063
C55	C	0.990564	-0.301631	0.000066
C56	C	1.490564	0.198369	0.500066
C57	C	1.035702	-0.342705	0.084335
C58	C	1.535702	0.157295	0.584335
C59	C	1.033402	-0.439341	0.084405
C60	C	1.533402	0.060659	0.584405
C61	C	1.035330	-0.439707	-0.083404
C62	C	1.535330	0.060293	0.416596
C63	C	1.035308	-0.342761	-0.084518
C64	C	1.535308	0.157239	0.415482
C65	C	0.992231	-0.206934	0.000068
C66	C	1.492231	0.293066	0.500068
C67	C	0.985956	-0.563890	0.000072
C68	C	1.485956	-0.063890	0.500072
C69	C	1.142175	0.108476	0.000080
C70	C	1.642175	0.608476	0.500080
C71	C	1.235125	0.110127	0.000081
C72	C	1.735125	0.610127	0.500081
C73	C	0.982980	0.267671	0.000069
C74	C	1.482980	0.767671	0.500069
C75	C	0.984631	0.360621	0.000069
C76	C	1.484631	0.860621	0.500069
N77	N	0.989049	0.114599	0.229971
N78	N	1.489049	0.614599	0.729971
N79	N	0.989142	0.114571	-0.229830
N80	N	1.489142	0.614571	0.270170
C81	C	0.989112	0.114580	0.589173
C82	C	1.489112	0.614580	1.089173
C83	C	0.920095	0.183135	0.551560
C84	C	1.420095	0.683135	1.051560
C85	C	0.920254	0.183385	0.448735
C86	C	1.420254	0.683385	0.948735
C87	C	0.989080	0.114590	0.410969
C88	C	1.489080	0.614590	0.910969
C89	C	1.076445	0.133671	0.448266
C90	C	1.576445	0.633671	0.948266
C91	C	1.076058	0.134159	0.551124
C92	C	1.576058	0.634159	1.051124
C93	C	0.971542	0.026741	0.551272
C94	C	1.471542	0.526741	1.051272
C95	C	0.969537	0.027327	0.448409
C96	C	1.469537	0.527327	0.948409
C97	C	0.989067	0.114593	0.310255
C98	C	1.489067	0.614593	0.810255
C99	C	0.989130	0.114579	0.689886
C100	C	1.489130	0.614579	1.189886
H101	H	0.577852	-0.012275	0.060467
H102	H	1.077852	0.487725	0.560467
C103	C	0.935056	0.270705	0.586428
C104	C	1.435056	0.770705	1.086428
H105	H	0.893089	0.311754	0.563381
H106	H	1.393089	0.811754	1.063381
H107	H	0.989003	0.283392	0.568022
H108	H	1.489003	0.783392	1.068022
H109	H	0.932296	0.270998	0.649391
H110	H	1.432296	0.770998	1.149391
C111	C	0.832078	0.168033	0.584992
C112	C	1.332078	0.668033	1.084992
H113	H	0.791330	0.210065	0.561536
H114	H	1.291330	0.710065	1.061536
H115	H	0.830944	0.170570	0.647954
H116	H	1.330944	0.670570	1.147954
H117	H	0.819652	0.114144	0.566093
H118	H	1.319652	0.614144	1.066093
H119	H	0.855314	0.172016	0.423519
H120	H	1.355314	0.672016	0.923519
C121	C	0.849433	-0.287411	0.081798
C122	C	1.349433	0.212589	0.581798
H123	H	0.850271	-0.228119	0.082276
H124	H	1.350271	0.271881	0.582276
H125	H	0.875385	-0.310889	0.134218
H126	H	1.375385	0.189111	0.634218
H127	H	0.792841	-0.299982	0.079316
H128	H	1.292841	0.200018	0.579316
C129	C	0.882723	0.007753	0.415480
C130	C	1.382723	0.507753	0.915480
H131	H	0.871262	-0.045109	0.438354
H132	H	1.371262	0.454891	0.938354
H133	H	0.882632	0.005874	0.352487
H134	H	1.382632	0.505874	0.852487
H135	H	0.840711	0.050419	0.435298
H136	H	1.340711	0.550419	0.935298
C137	C	1.097867	0.219224	0.413463
C138	C	1.597867	0.719224	0.913463
H139	H	1.150855	0.230207	0.436401
H140	H	1.650855	0.730207	0.936401
H141	H	1.055718	0.262311	0.432019
H142	H	1.555718	0.762311	0.932019
H143	H	1.100258	0.217926	0.350493
H144	H	1.600258	0.717926	0.850493
H145	H	0.560191	0.129845	-0.146912
H146	H	1.060191	0.629845	0.353088
H147	H	0.859490	-0.440293	-0.060701
H148	H	1.359490	0.059707	0.439299
H149	H	0.433165	-0.014865	-0.059694
H150	H	0.933165	0.485135	0.440306
H151	H	0.559041	0.127829	0.146989
H152	H	1.059041	0.627829	0.646989
H153	H	0.545929	0.229421	-0.087335
H154	H	1.045929	0.729421	0.412665
C155	C	0.587092	-0.025051	-0.081683
C156	C	1.087092	0.474949	0.418317
H157	H	0.543287	-0.045740	-0.114818
H158	H	1.043287	0.454260	0.385182
H159	H	0.626061	-0.070872	-0.062897
H160	H	1.126061	0.429128	0.437103
H161	H	0.615150	0.011690	-0.117779
H162	H	1.115150	0.511690	0.382221
C163	C	0.993310	-0.304375	0.169049
C164	C	1.493310	0.195625	0.669049
H165	H	0.948109	-0.263352	0.153244
H166	H	1.448109	0.236648	0.653244
H167	H	1.033289	-0.278635	0.203148
H168	H	1.533289	0.221365	0.703148
H169	H	0.972357	-0.347498	0.203012
H170	H	1.472357	0.152502	0.703012
H171	H	1.005411	-0.460250	-0.147274
H172	H	1.505411	0.039750	0.352726
H173	H	0.859626	-0.441349	0.059819
H174	H	1.359626	0.058651	0.559819
H175	H	0.931473	0.248570	0.424121
H176	H	1.431473	0.748570	0.924121
C177	C	1.096962	0.220700	0.583527
C178	C	1.596962	0.720700	1.083527
H179	H	1.105606	0.255230	0.533829
H180	H	1.605606	0.755230	1.033829
H181	H	1.146589	0.213644	0.618614
H182	H	1.646589	0.713644	1.118614
H183	H	1.051571	0.246625	0.618115
H184	H	1.551571	0.746625	1.118115
H185	H	0.547102	0.228494	0.089741
H186	H	1.047102	0.728494	0.589741
C187	C	1.126513	-0.482618	-0.084175
C188	C	1.626513	0.017382	0.415825
H189	H	1.135499	-0.518334	-0.033905
H190	H	1.635499	-0.018334	0.466095
H191	H	1.164340	-0.440956	-0.082326
H192	H	1.664340	0.059044	0.417674
H193	H	1.135944	-0.515057	-0.136767
H194	H	1.635944	-0.015057	0.363233
C195	C	0.391891	0.251999	0.084315
C196	C	0.891891	0.751999	0.584315
H197	H	0.356181	0.260994	0.034045
H198	H	0.856181	0.760994	0.534045
H199	H	0.433561	0.289819	0.082462
H200	H	0.933561	0.789819	0.582462
H201	H	0.359449	0.261432	0.136907
H202	H	0.859449	0.761432	0.636907
H203	H	0.414244	0.130885	0.147414
H204	H	0.914244	0.630885	0.647414
H205	H	1.000460	-0.457639	0.147395
H206	H	1.500460	0.042361	0.647395
C207	C	0.849776	-0.286670	-0.081532
C208	C	1.349776	0.213330	0.418468
H209	H	0.829108	-0.330160	-0.115180
H210	H	1.329108	0.169840	0.384820
H211	H	0.886677	-0.258380	-0.117185
H212	H	1.386677	0.241620	0.382815
H213	H	0.803945	-0.247790	-0.062562
H214	H	1.303945	0.252210	0.437438
H215	H	1.016540	-0.026078	0.422704
H216	H	1.516540	0.473922	0.922704
H217	H	1.129019	0.086195	0.576003
H218	H	1.629019	0.586195	1.076003
C219	C	1.147486	0.068021	0.415213
C220	C	1.647486	0.568021	0.915213
H221	H	1.124441	0.028299	0.378281
H222	H	1.624441	0.528299	0.878281
H223	H	1.174709	0.039832	0.464589
H224	H	1.674709	0.539832	0.964589
H225	H	1.187129	0.095435	0.382359
H226	H	1.687129	0.595435	0.882359
H227	H	1.100617	-0.471588	0.088231
H228	H	1.600617	0.028412	0.588231
H229	H	0.909219	0.008392	0.577258
H230	H	1.409219	0.508392	1.077258
C231	C	1.127843	-0.323619	0.088581
C232	C	1.627843	0.176381	0.588581
H233	H	1.139628	-0.290349	0.038883
H234	H	1.639628	0.209651	0.538883
H235	H	1.164148	-0.374906	0.087803
H236	H	1.664148	0.125094	0.587803
H237	H	1.136590	-0.293810	0.141677
H238	H	1.636590	0.206190	0.641677
C239	C	0.990792	-0.305885	-0.168738
C240	C	1.490792	0.194115	0.331262
H241	H	0.945130	-0.265587	-0.152430
H242	H	1.445130	0.234413	0.347570
H243	H	0.970233	-0.349787	-0.201827
H244	H	1.470233	0.150213	0.298173
H245	H	1.029551	-0.279511	-0.203907
H246	H	1.529551	0.220489	0.296093
C247	C	1.126774	-0.322017	-0.091390
C248	C	1.626774	0.177983	0.408610
H249	H	1.138927	-0.287853	-0.042542
H250	H	1.638927	0.212147	0.457458
H251	H	1.133878	-0.292675	-0.145172
H252	H	1.633878	0.207325	0.354828
H253	H	1.163953	-0.372733	-0.090672
H254	H	1.663953	0.127267	0.409328
C255	C	0.427701	-0.027876	0.082028
C256	C	0.927701	0.472124	0.582028
H257	H	0.457012	-0.082954	0.080986
H258	H	0.957012	0.417046	0.580986
H259	H	0.368821	-0.031379	0.080907
H260	H	0.868821	0.468621	0.580907
H261	H	0.441829	0.000197	0.134553
H262	H	0.941829	0.500197	0.634553
C263	C	1.039521	-0.042184	0.584136
C264	C	1.539521	0.457816	1.084136
H265	H	1.028571	-0.095114	0.561012
H266	H	1.528571	0.404886	1.061012
H267	H	1.038701	-0.044091	0.647119
H268	H	1.538701	0.455909	1.147119
H269	H	1.093234	-0.029868	0.564537
H270	H	1.593234	0.470132	1.064537
C271	C	0.410449	0.114417	-0.169352
C272	C	0.910449	0.614417	0.330648
H273	H	0.459445	0.097910	-0.203550
H274	H	0.959445	0.597910	0.296450
H275	H	0.372482	0.151823	-0.203041
H276	H	0.872482	0.651823	0.296959
H277	H	0.384185	0.066051	-0.153952
H278	H	0.884185	0.566051	0.346048
H279	H	0.402920	0.226128	-0.088090
H280	H	0.902920	0.726128	0.411910
