data_functionalizedCrystal
_audit_creation_method	'MofGen! by Chris Wilmer'
_symmetry_space_group_name_H-M	'P1'
_symmetry_Int_Tables_number	1
_symmetry_cell_setting	triclinic
loop_
_symmetry_equiv_pos_as_xyz
  x,y,z
_cell_length_a	12.759401
_cell_length_b	10.686285
_cell_length_c	12.759393
_cell_angle_alpha	94.397013
_cell_angle_beta	90.020938
_cell_angle_gamma	85.633237
loop_
_atom_site_label
_atom_site_type_symbol
_atom_site_fract_x
_atom_site_fract_y
_atom_site_fract_z
Zn1	Zn	1.638400	-0.502237	0.562006
Zn2	Zn	1.651794	-0.713276	0.372873
Zn3	Zn	1.462703	-0.502304	0.386337
Zn4	Zn	1.476188	-0.713187	0.548516
O5	O	1.557272	-0.607751	0.467433
O6	O	1.787199	-0.530240	0.536928
O7	O	1.626673	-0.685355	0.227634
O8	O	1.474761	-0.325719	0.420919
O9	O	1.797039	-0.685290	0.397973
O10	O	1.603845	-0.325669	0.549983
O11	O	1.487749	-0.530355	0.237525
O12	O	1.317471	-0.530269	0.407839
O13	O	1.497744	-0.685139	0.697331
O14	O	1.327378	-0.685204	0.526992
O15	O	1.616921	-0.530155	0.707241
O16	O	1.639748	-0.889840	0.384893
O17	O	1.510731	-0.889775	0.513937
C18	C	1.284303	-0.607735	0.467413
C19	C	1.167528	-0.607759	0.467427
C20	C	1.578185	-0.935592	0.446513
C21	C	1.587228	-1.075844	0.437599
C22	C	1.117860	-0.688557	0.529357
C23	C	1.008136	-0.688562	0.529377
C24	C	0.997758	-0.526968	0.405531
C25	C	1.107479	-0.526957	0.405516
C26	C	0.861137	-0.733838	0.650352
C27	C	0.811467	-0.814656	0.712270
C28	C	0.854944	-0.937798	0.720369
C29	C	0.948090	-0.980148	0.666531
C30	C	0.997756	-0.899338	0.604604
C31	C	0.954279	-0.776178	0.596527
C32	C	1.254481	-0.481694	0.284540
C33	C	1.304149	-0.400888	0.222606
C34	C	1.260674	-0.277744	0.214498
C35	C	1.167524	-0.235398	0.268316
C36	C	1.117857	-0.316204	0.330250
C37	C	1.161339	-0.439347	0.338360
C38	C	1.831306	-0.607767	0.467453
C39	C	1.948083	-0.607774	0.467462
C40	C	1.557342	-0.607630	0.741474
C41	C	1.557373	-0.607578	0.858254
C42	C	1.536305	-0.278630	0.488457
C43	C	1.527370	-0.138378	0.497417
C44	C	1.557256	-0.607780	0.194464
C45	C	1.557406	-0.607477	0.077707
C46	C	1.619432	-0.526865	0.918279
C47	C	1.619446	-0.526810	1.028007
C48	C	1.495340	-0.688194	1.017674
C49	C	1.495320	-0.688241	0.907949
C50	C	1.647533	-0.377935	1.187475
C51	C	1.709610	-0.297233	1.247503
C52	C	1.810885	-0.277884	1.213145
C53	C	1.850105	-0.339255	1.118759
C54	C	1.788034	-0.419967	1.058736
C55	C	1.686743	-0.439292	1.093094
C56	C	1.467244	-0.837117	0.748479
C57	C	1.405179	-0.917836	0.688453
C58	C	1.303903	-0.937199	0.722808
C59	C	1.264688	-0.875849	0.817196
C60	C	1.326754	-0.795130	0.877221
C61	C	1.428028	-0.775766	0.842859
H62	H	1.073593	-0.933818	0.560770
H63	H	1.379997	-0.435377	0.178783
H64	H	0.814494	-1.003600	0.770786
H65	H	0.735626	-0.780162	0.756106
C66	C	1.427093	-0.776929	1.072341
C67	C	1.427116	-0.776888	1.193033
C68	C	1.358871	-0.865629	1.247697
C69	C	1.290604	-0.954411	1.181667
C70	C	1.290579	-0.954455	1.060968
C71	C	1.358824	-0.865714	1.006304
H72	H	1.477653	-0.711163	1.241918
H73	H	1.358889	-0.865595	1.337047
H74	H	1.240085	-1.020102	1.222133
H75	H	1.240041	-1.020180	1.012083
H76	H	1.358805	-0.865747	0.916954
C77	C	1.153278	-0.897132	0.854990
C78	C	1.085003	-0.985906	0.788962
C79	C	0.973592	-1.007192	0.826753
C80	C	0.930455	-0.939706	0.930572
C81	C	0.998731	-0.850926	0.996606
C82	C	1.110143	-0.829639	0.958816
H83	H	1.116935	-1.035869	0.712103
H84	H	0.923050	-1.072913	0.777869
H85	H	0.847982	-0.955463	0.958547
H86	H	0.966800	-0.800963	1.073465
H87	H	1.160685	-0.763919	1.007699
H88	H	1.469206	-1.084620	0.555451
H89	H	0.825736	-0.633562	0.643776
C90	C	1.687678	-0.438129	0.863613
C91	C	1.669965	-0.294676	0.887862
C92	C	1.738210	-0.205934	0.833200
C93	C	1.824168	-0.260645	0.754289
C94	C	1.841885	-0.404105	0.730037
C95	C	1.773640	-0.492847	0.784699
H96	H	1.606331	-0.254169	0.946281
H97	H	1.725095	-0.099735	0.851155
H98	H	1.874687	-0.194953	0.713825
H99	H	1.905520	-0.444612	0.671618
H100	H	1.786756	-0.599046	0.766745
H101	H	1.253375	-1.002938	0.673930
C102	C	0.995907	-1.115617	0.675431
C103	C	1.010831	-1.206848	0.576235
C104	C	1.058651	-1.342318	0.585138
C105	C	1.091547	-1.386557	0.693236
C106	C	1.076624	-1.295323	0.792440
C107	C	1.028804	-1.159853	0.783537
H108	H	0.986479	-1.174102	0.496207
H109	H	1.069698	-1.409855	0.511700
H110	H	1.126947	-1.486840	0.699826
H111	H	1.100976	-1.328070	0.872468
H112	H	1.017757	-1.092317	0.856975
H113	H	1.132114	-0.135132	0.261697
C114	C	1.961517	-0.317978	1.080972
C115	C	1.989723	-0.184696	1.059476
C116	C	2.101136	-0.163416	1.021685
C117	C	2.184343	-0.275417	1.005391
C118	C	2.156139	-0.408708	1.026888
C119	C	2.044726	-0.429989	1.064679
H120	H	1.928126	-0.101778	1.071537
H121	H	2.122014	-0.064744	1.005772
H122	H	2.266817	-0.259664	0.977417
H123	H	2.217735	-0.491627	1.014827
H124	H	2.023848	-0.528661	1.080592
H125	H	1.042013	-0.281712	0.374080
C126	C	1.879168	-0.189110	1.279175
C127	C	1.985723	-0.239852	1.321846
C128	C	2.053999	-0.151075	1.387880
C129	C	2.015720	-0.011556	1.411243
C130	C	1.909159	0.039193	1.368571
C131	C	1.840883	-0.049584	1.302537
H132	H	2.014065	-0.343139	1.304552
H133	H	2.132883	-0.188644	1.419469
H134	H	2.066261	0.054162	1.460126
H135	H	1.880817	0.142480	1.385865
H136	H	1.762000	-0.012015	1.270949
H137	H	1.819969	-0.469939	0.981892
H138	H	1.166749	-0.754348	0.579772
H139	H	0.948853	-0.461184	0.355123
H140	H	1.289894	-0.581965	0.291146
H141	H	1.301119	-0.211957	0.164056
H142	H	1.645389	-1.129609	0.379554
H143	H	1.677667	-0.247264	1.324352
H144	H	1.294816	-0.745177	0.954077
H145	H	1.565064	-0.393672	1.215454
H146	H	1.437122	-0.967802	0.611604
H147	H	1.549709	-0.821350	0.720493
