data_functionalizedCrystal
_audit_creation_method	'MofGen! by Chris Wilmer'
_symmetry_space_group_name_H-M	'P1'
_symmetry_Int_Tables_number	1
_symmetry_cell_setting	triclinic
loop_
_symmetry_equiv_pos_as_xyz
  x,y,z
_cell_length_a	11.169416
_cell_length_b	11.169417
_cell_length_c	12.759393
_cell_angle_alpha	89.981972
_cell_angle_beta	89.971356
_cell_angle_gamma	90.011589
loop_
_atom_site_label
_atom_site_type_symbol
_atom_site_fract_x
_atom_site_fract_y
_atom_site_fract_z
Zn1	Zn	-0.477696	1.834945	-0.593990
Zn2	Zn	0.022304	2.334945	-0.093990
Zn3	Zn	-0.678429	1.834839	-0.418319
Zn4	Zn	-0.178429	2.334839	0.081681
Zn5	Zn	-0.477763	1.634236	-0.418330
Zn6	Zn	0.022237	2.134236	0.081670
Zn7	Zn	-0.678340	1.634238	-0.593962
Zn8	Zn	-0.178340	2.134238	-0.093962
O9	O	-0.578057	1.734564	-0.506150
O10	O	-0.078057	2.234564	-0.006150
O11	O	-0.504333	2.002880	-0.570693
O12	O	-0.004333	2.502880	-0.070693
O13	O	-0.651875	1.808184	-0.271299
O14	O	-0.151875	2.308184	0.228701
O15	O	-0.309804	1.660903	-0.441649
O16	O	0.190196	2.160903	0.058351
O17	O	-0.651811	2.002803	-0.441629
O18	O	-0.151811	2.502803	0.058371
O19	O	-0.309755	1.808363	-0.570705
O20	O	0.190245	2.308363	-0.070705
O21	O	-0.504447	1.660801	-0.271308
O22	O	-0.004447	2.160801	0.228692
O23	O	-0.504361	1.466286	-0.441621
O24	O	-0.004361	1.966286	0.058379
O25	O	-0.651660	1.660907	-0.740986
O26	O	-0.151660	2.160907	-0.240986
O27	O	-0.651724	1.466288	-0.570657
O28	O	-0.151724	1.966288	-0.070657
O29	O	-0.504247	1.808366	-0.741007
O30	O	-0.004247	2.308366	-0.241007
O31	O	-0.846367	1.808186	-0.441601
O32	O	-0.346367	2.308186	0.058399
O33	O	-0.846302	1.660805	-0.570645
O34	O	-0.346302	2.160805	-0.070645
C35	C	-0.889882	1.734517	-0.506142
C36	C	-0.389882	2.234517	-0.006142
C37	C	-1.023282	1.734606	-0.506174
C38	C	-0.523282	2.234606	-0.006174
C39	C	-0.578041	1.422740	-0.506138
C40	C	-0.078041	1.922740	-0.006138
C41	C	-0.578063	1.289340	-0.506158
C42	C	-0.078063	1.789340	-0.006158
C43	C	-0.577936	1.734649	-0.780183
C44	C	-0.077936	2.234649	-0.280183
C45	C	-0.577885	1.734684	-0.896960
C46	C	-0.077885	2.234684	-0.396960
C47	C	-0.265015	1.734645	-0.506181
C48	C	0.234985	2.234645	-0.006181
C49	C	-0.131615	1.734679	-0.506194
C50	C	0.368385	2.234679	-0.006194
C51	C	-0.578074	2.047607	-0.506163
C52	C	-0.078074	2.547607	-0.006163
C53	C	-0.578082	2.181007	-0.506168
C54	C	-0.078082	2.681007	-0.006168
C55	C	-0.501120	1.811476	-0.951835
C56	C	-0.001120	2.311476	-0.451835
C57	C	-0.501076	1.811505	-1.061559
C58	C	-0.001076	2.311505	-0.561559
C59	C	-0.654573	1.657946	-1.061524
C60	C	-0.154573	2.157946	-0.561524
C61	C	-0.654609	1.657912	-0.951802
C62	C	-0.154609	2.157912	-0.451802
C63	C	-0.412503	1.900136	-0.951855
C64	C	0.087497	2.400136	-0.451855
C65	C	-0.412460	1.900165	-1.061580
C66	C	0.087540	2.400165	-0.561580
C67	C	-0.578091	1.734550	-0.233183
C68	C	-0.078091	2.234550	0.266817
C69	C	-0.577805	1.734746	-0.116407
C70	C	-0.077805	2.234746	0.383593
H71	H	-0.717037	1.595438	-1.106190
H72	H	-0.217037	2.095438	-0.606190
H73	H	-0.445822	1.988410	-0.917820
H74	H	0.054178	2.488410	-0.417820
C75	C	-0.446115	2.025725	-1.101816
C76	C	0.053885	2.525725	-0.601816
H77	H	-0.459996	2.077340	-1.043906
H78	H	0.040004	2.577340	-0.543906
H79	H	-0.382496	2.056652	-1.143191
H80	H	0.117504	2.556652	-0.643191
H81	H	-0.516641	2.020637	-1.143163
H82	H	-0.016641	2.520637	-0.643163
C83	C	-0.293155	1.855250	-1.107579
C84	C	0.206845	2.355250	-0.607579
H85	H	-0.240052	1.835235	-1.052138
H86	H	0.259948	2.335235	-0.552138
H87	H	-0.307389	1.786423	-1.149478
H88	H	0.192611	2.286423	-0.649478
H89	H	-0.258412	1.916399	-1.149490
H90	H	0.241588	2.416399	-0.649490
H91	H	-0.319557	1.875262	-0.922096
H92	H	0.180443	2.375262	-0.422096
C93	C	-0.739028	1.573419	-0.891443
C94	C	-0.239028	2.073419	-0.391443
H95	H	-0.784717	1.527707	-0.939822
H96	H	-0.284717	2.027707	-0.439822
H97	H	-0.693110	1.521136	-0.848653
H98	H	-0.193110	2.021136	-0.348653
H99	H	-0.791354	1.619290	-0.848628
H100	H	-0.291354	2.119290	-0.348628
