data_functionalizedCrystal
_audit_creation_method	'MofGen! by Chris Wilmer'
_symmetry_space_group_name_H-M	'P1'
_symmetry_Int_Tables_number	1
_symmetry_cell_setting	triclinic
loop_
_symmetry_equiv_pos_as_xyz
  x,y,z
_cell_length_a	10.723024
_cell_length_b	13.339070
_cell_length_c	9.798715
_cell_angle_alpha	89.999403
_cell_angle_beta	89.996609
_cell_angle_gamma	100.048582
loop_
_atom_site_label
_atom_site_type_symbol
_atom_site_fract_x
_atom_site_fract_y
_atom_site_fract_z
O1	O	1.704930	0.142225	-0.113477
O2	O	1.346348	0.155839	-0.113481
O3	O	1.484486	0.001483	-0.113475
O4	O	1.566793	0.296581	-0.113483
O5	O	1.484471	0.001483	0.113507
O6	O	1.346334	0.155839	0.113501
O7	O	1.704916	0.142225	0.113505
Zn8	Zn	1.525623	0.149032	0.149541
Zn9	Zn	1.525642	0.149032	-0.149517
O10	O	1.566779	0.296581	0.113500
C11	C	1.299509	0.154848	0.000009
C12	C	1.159959	0.151884	0.000008
C13	C	1.113970	0.238253	0.000005
C14	C	0.969739	0.235192	0.000003
C15	C	1.470575	-0.036303	0.000014
C16	C	1.429133	-0.148892	0.000008
C17	C	1.751368	-0.511449	0.000012
C18	C	1.790309	-0.405666	0.000025
C19	C	1.700018	-0.341468	0.000020
C20	C	1.570779	-0.383062	0.000003
C21	C	1.531834	-0.488855	0.000001
C22	C	1.480485	-0.318874	0.000009
C23	C	1.351246	-0.360469	-0.000008
C24	C	1.312308	-0.466252	-0.000012
C25	C	1.402598	-0.530450	-0.000007
C26	C	1.519430	-0.213081	0.000012
C27	C	1.299897	-0.190487	0.000000
C28	C	1.260956	-0.296270	-0.000013
C29	C	1.751755	0.143216	0.000012
C30	C	1.891305	0.146180	0.000004
C31	C	1.580689	0.334367	0.000008
C32	C	1.622132	0.446956	0.000005
N33	N	1.525619	0.149031	0.353641
N34	N	1.525653	0.149025	-0.353617
C35	C	1.583523	0.083935	0.421420
C36	C	1.583542	0.083932	0.578583
H37	H	0.930127	0.309131	-0.000005
H38	H	1.633078	0.028203	0.363100
C39	C	1.205012	0.341214	-0.000001
H40	H	1.157455	0.395004	0.000005
H41	H	1.256874	0.346081	-0.079153
H42	H	1.256859	0.346084	0.079164
H43	H	1.731732	-0.255335	0.000032
C44	C	0.944792	0.046283	0.000001
H45	H	0.876872	-0.009958	-0.000009
H46	H	0.995246	0.043582	0.079151
H47	H	0.995246	0.043590	-0.079167
H48	H	1.633122	0.028204	0.636870
C49	C	1.661579	-0.167333	0.000026
H50	H	1.671847	-0.095136	0.000038
H51	H	1.700307	-0.189312	-0.079123
H52	H	1.700280	-0.189317	0.079194
C53	C	1.170150	-0.512004	-0.000020
H54	H	1.121952	-0.458623	-0.000034
H55	H	1.150387	-0.552805	0.079131
H56	H	1.150408	-0.552799	-0.079186
H57	H	1.092554	0.075673	-0.000025
C58	C	1.850675	-0.582061	0.000022
H59	H	1.933222	-0.542142	0.000037
H60	H	1.840053	-0.623801	-0.079129
H61	H	1.840033	-0.623795	0.079188
C62	C	1.458678	0.224322	0.567666
H63	H	1.422370	0.265165	0.630591
H64	H	1.393910	0.187551	0.511931
H65	H	1.518452	0.266720	0.511920
C66	C	1.932458	-0.359918	0.000029
H67	H	1.980654	-0.413301	0.000017
H68	H	1.952210	-0.319121	0.079182
H69	H	1.952213	-0.319120	-0.079135
C70	C	1.118800	-0.342027	-0.000030
H71	H	1.070597	-0.288649	-0.000045
H72	H	1.099033	-0.382832	0.079117
H73	H	1.099066	-0.382819	-0.079200
C74	C	1.200571	-0.119880	-0.000017
H75	H	1.242273	-0.050920	-0.000029
H76	H	1.149076	-0.132571	0.079132
H77	H	1.149102	-0.132575	-0.079185
H78	H	1.370899	-0.616589	-0.000023
H79	H	1.476052	0.204755	0.411964
