data_functionalizedCrystal
_audit_creation_method	'MofGen! by Chris Wilmer'
_symmetry_space_group_name_H-M	'P1'
_symmetry_Int_Tables_number	1
_symmetry_cell_setting	triclinic
loop_
_symmetry_equiv_pos_as_xyz
  x,y,z
_cell_length_a	18.050591
_cell_length_b	18.050590
_cell_length_c	13.897441
_cell_angle_alpha	89.966994
_cell_angle_beta	89.982478
_cell_angle_gamma	90.017393
loop_
_atom_site_label
_atom_site_type_symbol
_atom_site_fract_x
_atom_site_fract_y
_atom_site_fract_z
Zn1	Zn	1.135394	-0.295659	-0.545282
Zn2	Zn	1.135310	-0.419863	-0.383977
Zn3	Zn	1.011198	-0.295689	-0.384010
Zn4	Zn	1.011182	-0.419809	-0.545239
O5	O	1.073271	-0.357755	-0.464627
O6	O	1.239307	-0.312145	-0.523889
O7	O	1.118818	-0.403426	-0.249000
O8	O	1.027714	-0.191760	-0.405435
O9	O	1.239246	-0.403397	-0.405379
O10	O	1.118960	-0.191738	-0.523921
O11	O	1.027633	-0.312196	-0.249024
O12	O	0.907271	-0.312144	-0.405393
O13	O	1.027687	-0.403305	-0.680226
O14	O	0.907259	-0.403334	-0.523847
O15	O	1.118945	-0.312092	-0.680258
O16	O	1.118803	-0.523780	-0.405337
O17	O	1.027606	-0.523741	-0.523815
C18	C	0.880319	-0.357737	-0.464619
C19	C	0.797773	-0.357747	-0.464638
C20	C	1.073214	-0.550707	-0.464588
C21	C	1.073257	-0.633253	-0.464604
C22	C	0.548962	-0.407439	-0.528966
C23	C	0.598327	-0.425521	-0.440922
C24	C	0.500652	-0.357770	-0.464637
C25	C	0.598369	-0.339711	-0.552676
C26	C	0.646638	-0.357761	-0.464642
C27	C	0.548930	-0.375888	-0.376547
C28	C	0.548968	-0.290046	-0.488359
C29	C	0.598310	-0.308103	-0.400255
C30	C	0.416554	-0.357778	-0.464635
C31	C	0.730734	-0.357753	-0.464634
C32	C	1.122953	-0.832698	-0.400266
C33	C	1.141097	-0.882026	-0.488300
C34	C	1.073299	-0.784383	-0.464643
C35	C	1.055231	-0.882137	-0.376648
C36	C	1.073341	-0.930368	-0.464672
C37	C	1.091478	-0.832623	-0.552723
C38	C	1.005581	-0.832731	-0.441012
C39	C	1.023699	-0.882036	-0.529107
C40	C	1.073277	-0.700285	-0.464625
C41	C	1.073364	-1.014465	-0.464700
C42	C	1.266976	-0.357774	-0.464635
C43	C	1.349522	-0.357782	-0.464639
C44	C	1.073323	-0.357689	-0.716220
C45	C	1.073346	-0.357661	-0.823434
C46	C	1.073348	-0.164049	-0.464687
C47	C	1.073381	-0.081503	-0.464712
C48	C	1.073366	-0.357611	-1.019729
C49	C	1.073353	-0.357641	-0.910497
C50	C	1.073261	-0.357767	-0.214013
C51	C	1.073382	-0.357585	-0.106799
H52	H	0.527295	-0.449478	-0.583297
H53	H	0.619841	-0.266095	-0.345793
N54	N	1.036045	-0.909417	-0.283277
N55	N	1.075481	-0.893613	-0.212274
H56	H	1.061936	-0.912877	-0.146328
N57	N	0.625599	-0.320540	-0.646075
N58	N	0.608900	-0.259558	-0.682783
H59	H	0.628128	-0.246023	-0.748748
N60	N	0.933735	-0.805533	-0.415906
N61	N	0.878808	-0.822236	-0.466175
H62	H	0.828067	-0.803025	-0.448437
N63	N	0.521821	-0.395142	-0.283118
N64	N	0.566322	-0.408829	-0.216550
H65	H	0.547177	-0.422430	-0.150567
N66	N	0.625523	-0.497360	-0.415723
N67	N	0.608776	-0.525428	-0.336398
H68	H	0.627977	-0.576167	-0.318603
N69	N	0.521752	-0.218224	-0.513576
N70	N	0.537572	-0.190642	-0.593507
H71	H	0.518350	-0.139917	-0.611327
H72	H	1.164958	-0.811034	-0.345880
N73	N	1.212956	-0.909225	-0.513357
N74	N	1.267676	-0.893433	-0.462218
H75	H	1.318426	-0.912655	-0.479895
N76	N	1.110755	-0.805450	-0.646115
N77	N	1.113874	-0.737242	-0.661165
H78	H	1.127492	-0.718048	-0.727120
N79	N	0.971046	-0.909036	-0.597502
N80	N	0.977804	-0.892998	-0.684574
H81	H	0.940621	-0.912067	-0.732882
