data_functionalizedCrystal
_audit_creation_method	'MofGen! by Chris Wilmer'
_symmetry_space_group_name_H-M	'P1'
_symmetry_Int_Tables_number	1
_symmetry_cell_setting	triclinic
loop_
_symmetry_equiv_pos_as_xyz
  x,y,z
_cell_length_a	14.044191
_cell_length_b	14.044220
_cell_length_c	12.503552
_cell_angle_alpha	93.839943
_cell_angle_beta	86.157523
_cell_angle_gamma	93.190327
loop_
_atom_site_label
_atom_site_type_symbol
_atom_site_fract_x
_atom_site_fract_y
_atom_site_fract_z
O1	O	1.282215	0.225150	-0.089273
O2	O	1.782215	0.725150	0.410727
O3	O	1.005543	0.216836	-0.089287
O4	O	1.505543	0.716836	0.410713
O5	O	1.139726	0.082658	-0.089270
O6	O	1.639726	0.582658	0.410730
O7	O	1.148032	0.359328	-0.089291
O8	O	1.648032	0.859328	0.410709
O9	O	1.129622	0.092758	0.089372
O10	O	1.629622	0.592758	0.589372
O11	O	0.995440	0.226936	0.089354
O12	O	1.495440	0.726936	0.589354
O13	O	1.272112	0.235250	0.089368
O14	O	1.772112	0.735250	0.589368
Cu15	Cu	1.132853	0.232015	0.105672
Cu16	Cu	1.632853	0.732015	0.605672
Cu17	Cu	1.144802	0.220071	-0.105591
Cu18	Cu	1.644802	0.720071	0.394409
O19	O	1.137929	0.369428	0.089351
O20	O	1.637929	0.869428	0.589351
C21	C	0.964870	0.218250	0.000032
C22	C	1.464870	0.718250	0.500032
C23	C	0.858727	0.207402	0.000027
C24	C	1.358727	0.707402	0.500027
C25	C	0.613268	0.264503	0.000034
C26	C	1.113268	0.764503	0.500034
C27	C	0.664393	0.187587	0.000038
C28	C	1.164393	0.687587	0.500038
C29	C	0.772531	0.198615	0.000032
C30	C	1.272531	0.698615	0.500032
C31	C	0.505121	0.253477	0.000040
C32	C	1.005121	0.753477	0.500040
C33	C	1.131038	0.052086	0.000051
C34	C	1.631038	0.552086	0.500051
C35	C	1.120194	-0.054057	0.000052
C36	C	1.620194	0.445943	0.500052
C37	C	1.100368	-0.248396	0.000036
C38	C	1.600368	0.251604	0.500036
C39	C	1.177283	-0.299524	0.000036
C40	C	1.677283	0.200476	0.500036
C41	C	1.166252	-0.407661	0.000027
C42	C	1.666252	0.092339	0.500027
C43	C	1.111398	-0.140249	0.000045
C44	C	1.611398	0.359751	0.500045
C45	C	1.312785	0.233836	0.000046
C46	C	1.812785	0.733836	0.500046
C47	C	1.418929	0.244683	0.000044
C48	C	1.918929	0.744683	0.500044
C49	C	1.146617	0.400000	0.000027
C50	C	1.646617	0.900000	0.500027
C51	C	1.157462	0.506143	0.000020
C52	C	1.657462	1.006143	0.500020
N53	N	1.124457	0.240416	0.254264
N54	N	1.624457	0.740416	0.754264
N55	N	1.153205	0.211663	-0.254183
N56	N	1.653205	0.711663	0.245817
C57	C	1.165552	0.199302	0.526702
C58	C	1.665552	0.699302	1.026702
C59	C	1.112113	0.252774	0.473372
C60	C	1.612113	0.752774	0.973372
C61	C	1.118983	0.245896	0.351449
C62	C	1.618983	0.745896	0.851449
C63	C	1.158683	0.206179	0.648636
C64	C	1.658683	0.706179	1.148636
H65	H	0.650710	0.338629	0.000025
H66	H	1.150710	0.838629	0.500025
H67	H	1.216460	0.148362	0.480799
H68	H	1.716460	0.648362	0.980799
H69	H	1.251420	-0.262087	-0.000032
H70	H	1.751420	0.237913	0.499968
O71	O	1.011999	-0.293203	0.000083
O72	O	1.511999	0.206797	0.500083
C73	C	1.020522	-0.392762	0.000052
C74	C	1.520522	0.107238	0.500052
H75	H	1.091175	-0.407811	0.033865
H76	H	1.591175	0.092189	0.533865
H77	H	0.958843	-0.425262	0.051919
H78	H	1.458843	0.074738	0.551919
H79	H	1.018437	-0.425719	-0.085652
H80	H	1.518437	0.074281	0.414348
H81	H	0.626954	0.113450	-0.000032
H82	H	1.126954	0.613450	0.499968
H83	H	1.061203	0.303719	0.519281
H84	H	1.561203	0.803719	1.019281
