data_functionalizedCrystal
_audit_creation_method	'MofGen! by Chris Wilmer'
_symmetry_space_group_name_H-M	'P1'
_symmetry_Int_Tables_number	1
_symmetry_cell_setting	triclinic
loop_
_symmetry_equiv_pos_as_xyz
  x,y,z
_cell_length_a	18.050590
_cell_length_b	18.050591
_cell_length_c	18.050582
_cell_angle_alpha	90.011103
_cell_angle_beta	89.976663
_cell_angle_gamma	89.981552
loop_
_atom_site_label
_atom_site_type_symbol
_atom_site_fract_x
_atom_site_fract_y
_atom_site_fract_z
Zn1	Zn	-0.295709	-1.135342	-0.419833
Zn2	Zn	-0.045709	-0.885342	-0.169833
Zn3	Zn	0.204291	-0.635342	0.080167
Zn4	Zn	0.454291	-0.385342	0.330167
Zn5	Zn	-0.419892	-1.135274	-0.295641
Zn6	Zn	-0.169892	-0.885274	-0.045641
Zn7	Zn	0.080108	-0.635274	0.204359
Zn8	Zn	0.330108	-0.385274	0.454359
Zn9	Zn	-0.295720	-1.011162	-0.295665
Zn10	Zn	-0.045720	-0.761162	-0.045665
Zn11	Zn	0.204280	-0.511162	0.204335
Zn12	Zn	0.454280	-0.261162	0.454335
Zn13	Zn	-0.419861	-1.011131	-0.419798
Zn14	Zn	-0.169861	-0.761131	-0.169798
Zn15	Zn	0.080139	-0.511131	0.080202
Zn16	Zn	0.330139	-0.261131	0.330202
O17	O	-0.357795	-1.073227	-0.357734
O18	O	-0.107795	-0.823227	-0.107734
O19	O	0.142205	-0.573227	0.142266
O20	O	0.392205	-0.323227	0.392266
O21	O	-0.312190	-1.239258	-0.403363
O22	O	-0.062190	-0.989258	-0.153363
O23	O	0.187810	-0.739258	0.096637
O24	O	0.437810	-0.489258	0.346637
O25	O	-0.403438	-1.118795	-0.191720
O26	O	-0.153438	-0.868795	0.058280
O27	O	0.096562	-0.618795	0.308280
O28	O	0.346562	-0.368795	0.558280
O29	O	-0.191794	-1.027676	-0.312161
O30	O	0.058206	-0.777676	-0.062161
O31	O	0.308206	-0.527676	0.187839
O32	O	0.558206	-0.277676	0.437839
O33	O	-0.403427	-1.239208	-0.312120
O34	O	-0.153427	-0.989208	-0.062120
O35	O	0.096573	-0.739208	0.187880
O36	O	0.346573	-0.489208	0.437880
O37	O	-0.191786	-1.118911	-0.403387
O38	O	0.058214	-0.868911	-0.153387
O39	O	0.308214	-0.618911	0.096613
O40	O	0.558214	-0.368911	0.346613
O41	O	-0.312209	-1.027610	-0.191737
O42	O	-0.062209	-0.777610	0.058263
O43	O	0.187791	-0.527610	0.308263
O44	O	0.437791	-0.277610	0.558263
O45	O	-0.312180	-0.907233	-0.312127
O46	O	-0.062180	-0.657233	-0.062127
O47	O	0.187820	-0.407233	0.187873
O48	O	0.437820	-0.157233	0.437873
O49	O	-0.403374	-1.027623	-0.523727
O50	O	-0.153374	-0.777623	-0.273727
O51	O	0.096626	-0.527623	-0.023727
O52	O	0.346626	-0.277623	0.226273
O53	O	-0.403385	-0.907210	-0.403327
O54	O	-0.153385	-0.657210	-0.153327
O55	O	0.096615	-0.407210	0.096673
O56	O	0.346615	-0.157210	0.346673
O57	O	-0.312160	-1.118881	-0.523753
O58	O	-0.062160	-0.868881	-0.273753
O59	O	0.187840	-0.618881	-0.023753
O60	O	0.437840	-0.368881	0.226247
O61	O	-0.523813	-1.118765	-0.312086
O62	O	-0.273813	-0.868765	-0.062086
O63	O	-0.023813	-0.618765	0.187914
O64	O	0.226187	-0.368765	0.437914
O65	O	-0.523790	-1.027557	-0.403304
O66	O	-0.273790	-0.777557	-0.153304
O67	O	-0.023790	-0.527557	0.096696
O68	O	0.226210	-0.277557	0.346696
C69	C	-0.357781	-0.880275	-0.357726
C70	C	-0.107781	-0.630275	-0.107726
C71	C	0.142219	-0.380275	0.142274
C72	C	0.392219	-0.130275	0.392274
C73	C	-0.357793	-0.797729	-0.357741
C74	C	-0.107793	-0.547729	-0.107741
C75	C	0.142207	-0.297729	0.142259
C76	C	0.392207	-0.047729	0.392259
C77	C	-0.407498	-0.548913	-0.407265
C78	C	-0.157498	-0.298913	-0.157265
C79	C	0.092502	-0.048913	0.092735
C80	C	0.342502	0.201087	0.342735
C81	C	-0.425568	-0.598286	-0.339479
C82	C	-0.175568	-0.348286	-0.089479
C83	C	0.074432	-0.098286	0.160521
C84	C	0.324432	0.151714	0.410521
C85	C	-0.357821	-0.500609	-0.357736
C86	C	-0.107821	-0.250609	-0.107736
C87	C	0.142179	-0.000609	0.142264
C88	C	0.392179	0.249391	0.392264
C89	C	-0.339772	-0.598317	-0.425520
C90	C	-0.089772	-0.348317	-0.175520
C91	C	0.160228	-0.098317	0.074480
C92	C	0.410228	0.151683	0.324480
C93	C	-0.357809	-0.646594	-0.357742
C94	C	-0.107809	-0.396594	-0.107742
C95	C	0.142191	-0.146594	0.142258
C96	C	0.392191	0.103406	0.392258
C97	C	-0.375927	-0.548895	-0.289915
C98	C	-0.125927	-0.298895	-0.039915
C99	C	0.124073	-0.048895	0.210085
C100	C	0.374073	0.201105	0.460085
C101	C	-0.290100	-0.548922	-0.376001
C102	C	-0.040100	-0.298922	-0.126001
C103	C	0.209900	-0.048922	0.123999
C104	C	0.459900	0.201078	0.373999
C105	C	-0.308144	-0.598273	-0.308169
C106	C	-0.058144	-0.348273	-0.058169
C107	C	0.191856	-0.098273	0.191831
C108	C	0.441856	0.151727	0.441831
C109	C	-0.357830	-0.416511	-0.357734
C110	C	-0.107830	-0.166511	-0.107734
C111	C	0.142170	0.083489	0.142266
C112	C	0.392170	0.333489	0.392266
C113	C	-0.357800	-0.730690	-0.357737
C114	C	-0.107800	-0.480690	-0.107737
C115	C	0.142200	-0.230690	0.142263
C116	C	0.392200	0.019310	0.392263
C117	C	-0.550748	-1.073170	-0.357705
C118	C	-0.300748	-0.823170	-0.107705
C119	C	-0.050748	-0.573170	0.142295
C120	C	0.199252	-0.323170	0.392295
C121	C	-0.633293	-1.073214	-0.357717
C122	C	-0.383293	-0.823214	-0.107717
C123	C	-0.133293	-0.573214	0.142283
C124	C	0.116707	-0.323214	0.392283
C125	C	-0.832729	-1.122915	-0.308182
C126	C	-0.582729	-0.872915	-0.058182
C127	C	-0.332729	-0.622915	0.191818
C128	C	-0.082729	-0.372915	0.441818
C129	C	-0.882068	-1.141051	-0.375961
C130	C	-0.632068	-0.891051	-0.125961
C131	C	-0.382068	-0.641051	0.124039
C132	C	-0.132068	-0.391051	0.374039
C133	C	-0.784424	-1.073256	-0.357747
C134	C	-0.534424	-0.823256	-0.107747
C135	C	-0.284424	-0.573256	0.142253
C136	C	-0.034424	-0.323256	0.392253
C137	C	-0.882167	-1.055196	-0.289998
C138	C	-0.632167	-0.805196	-0.039998
C139	C	-0.382167	-0.555196	0.210002
C140	C	-0.132167	-0.305196	0.460002
C141	C	-0.930409	-1.073298	-0.357769
C142	C	-0.680409	-0.823298	-0.107769
C143	C	-0.430409	-0.573298	0.142231
C144	C	-0.180409	-0.323298	0.392231
C145	C	-0.832675	-1.091426	-0.425561
C146	C	-0.582675	-0.841426	-0.175561
C147	C	-0.332675	-0.591426	0.074439
C148	C	-0.082675	-0.341426	0.324439
C149	C	-0.832770	-1.005539	-0.339552
C150	C	-0.582770	-0.755539	-0.089552
C151	C	-0.332770	-0.505539	0.160448
C152	C	-0.082770	-0.255539	0.410448
C153	C	-0.882086	-1.023649	-0.407378
C154	C	-0.632086	-0.773649	-0.157378
C155	C	-0.382086	-0.523649	0.092622
C156	C	-0.132086	-0.273649	0.342622
C157	C	-0.700325	-1.073233	-0.357733
C158	C	-0.450325	-0.823233	-0.107733
C159	C	-0.200325	-0.573233	0.142267
C160	C	0.049675	-0.323233	0.392267
C161	C	-1.014505	-1.073320	-0.357791
C162	C	-0.764505	-0.823320	-0.107791
C163	C	-0.514505	-0.573320	0.142209
C164	C	-0.264505	-0.323320	0.392209
C165	C	-0.164090	-1.073305	-0.357780
C166	C	0.085910	-0.823305	-0.107780
C167	C	0.335910	-0.573305	0.142220
C168	C	0.585910	-0.323305	0.392220
C169	C	-0.081544	-1.073338	-0.357800
C170	C	0.168456	-0.823338	-0.107800
C171	C	0.418456	-0.573338	0.142200
C172	C	0.668456	-0.323338	0.392200
C173	C	-0.357763	-1.073256	-0.551440
C174	C	-0.107763	-0.823256	-0.301440
C175	C	0.142237	-0.573256	-0.051440
C176	C	0.392237	-0.323256	0.198560
C177	C	-0.357749	-1.073269	-0.633986
C178	C	-0.107749	-0.823269	-0.383986
C179	C	0.142251	-0.573269	-0.133986
C180	C	0.392251	-0.323269	0.116014
C181	C	-0.357815	-0.266933	-0.357740
C182	C	-0.107815	-0.016933	-0.107740
C183	C	0.142185	0.233067	0.142260
C184	C	0.392185	0.483067	0.392260
C185	C	-0.357836	-0.349478	-0.357737
C186	C	-0.107836	-0.099478	-0.107737
C187	C	0.142164	0.150522	0.142263
C188	C	0.392164	0.400522	0.392263
C189	C	-0.407283	-1.023681	-0.833423
C190	C	-0.157283	-0.773681	-0.583423
C191	C	0.092717	-0.523681	-0.333423
C192	C	0.342717	-0.273681	-0.083423
C193	C	-0.425437	-1.091439	-0.882809
C194	C	-0.175437	-0.841439	-0.632809
C195	C	0.074563	-0.591439	-0.382809
C196	C	0.324563	-0.341439	-0.132809
C197	C	-0.357692	-1.073305	-0.785116
C198	C	-0.107692	-0.823305	-0.535116
C199	C	0.142308	-0.573305	-0.285116
C200	C	0.392308	-0.323305	-0.035116
C201	C	-0.339518	-1.005584	-0.882812
C202	C	-0.089518	-0.755584	-0.632812
C203	C	0.160482	-0.505584	-0.382812
C204	C	0.410482	-0.255584	-0.132812
C205	C	-0.357638	-1.073335	-0.931102
C206	C	-0.107638	-0.823335	-0.681102
C207	C	0.142362	-0.573335	-0.431102
C208	C	0.392362	-0.323335	-0.181102
C209	C	-0.375881	-1.141099	-0.833416
C210	C	-0.125881	-0.891099	-0.583416
C211	C	0.124119	-0.641099	-0.333416
C212	C	0.374119	-0.391099	-0.083416
C213	C	-0.289930	-1.055199	-0.833414
C214	C	-0.039930	-0.805199	-0.583414
C215	C	0.210070	-0.555199	-0.333414
C216	C	0.460070	-0.305199	-0.083414
C217	C	-0.308058	-1.123004	-0.882778
C218	C	-0.058058	-0.873004	-0.632778
C219	C	0.191942	-0.623004	-0.382778
C220	C	0.441942	-0.373004	-0.132778
C221	C	-0.357724	-1.073287	-0.701018
C222	C	-0.107724	-0.823287	-0.451018
C223	C	0.142276	-0.573287	-0.201018
C224	C	0.392276	-0.323287	0.048982
C225	C	-0.357606	-1.073360	-1.015198
C226	C	-0.107606	-0.823360	-0.765198
C227	C	0.142394	-0.573360	-0.515198
C228	C	0.392394	-0.323360	-0.265198
C229	C	-0.357775	-1.073241	-0.164782
C230	C	-0.107775	-0.823241	0.085218
C231	C	0.142225	-0.573241	0.335218
C232	C	0.392225	-0.323241	0.585218
C233	C	-0.357580	-1.073372	-0.082237
C234	C	-0.107580	-0.823372	0.167763
C235	C	0.142420	-0.573372	0.417763
C236	C	0.392420	-0.323372	0.667763
H237	H	-0.324511	-0.620027	-0.482842
H238	H	-0.074511	-0.370027	-0.232842
H239	H	0.175489	-0.120027	0.017158
H240	H	0.425489	0.129973	0.267158
H241	H	-0.391257	-0.527277	-0.232578
H242	H	-0.141257	-0.277277	0.017422
H243	H	0.108743	-0.027277	0.267422
H244	H	0.358743	0.222723	0.517422
H245	H	-0.811057	-1.164925	-0.266310
H246	H	-0.561057	-0.914925	-0.016310
H247	H	-0.311057	-0.664925	0.233690
H248	H	-0.061057	-0.414925	0.483690
H249	H	-0.482833	-0.619969	-0.324027
H250	H	-0.232833	-0.369969	-0.074027
H251	H	0.017167	-0.119969	0.175973
H252	H	0.267167	0.130031	0.425973
H253	H	-0.903725	-1.198335	-0.391364
H254	H	-0.653725	-0.948335	-0.141364
H255	H	-0.403725	-0.698335	0.108636
H256	H	-0.153725	-0.448335	0.358636
H257	H	-0.449276	-0.981754	-0.811752
H258	H	-0.199276	-0.731754	-0.561752
H259	H	0.050724	-0.481754	-0.311752
H260	H	0.300724	-0.231754	-0.061752
H261	H	-0.811028	-1.106662	-0.482914
H262	H	-0.561028	-0.856662	-0.232914
H263	H	-0.311028	-0.606662	0.017086
H264	H	-0.061028	-0.356662	0.267086
H265	H	-0.232665	-1.039846	-0.811700
H266	H	0.017335	-0.789846	-0.561700
H267	H	0.267335	-0.539846	-0.311700
H268	H	0.517335	-0.289846	-0.061700
H269	H	-0.266129	-0.619809	-0.266238
H270	H	-0.016129	-0.369809	-0.016238
H271	H	0.233871	-0.119809	0.233762
H272	H	0.483871	0.130191	0.483762
H273	H	-0.449544	-0.527240	-0.449095
H274	H	-0.199544	-0.277240	-0.199095
H275	H	0.050456	-0.027240	0.050905
H276	H	0.300456	0.222760	0.300905
H277	H	-0.232850	-0.527222	-0.391472
H278	H	0.017150	-0.277222	-0.141472
H279	H	0.267150	-0.027222	0.108528
H280	H	0.517150	0.222778	0.358528
H281	H	-0.482718	-1.106771	-0.904507
H282	H	-0.232718	-0.856771	-0.654507
H283	H	0.017282	-0.606771	-0.404507
H284	H	0.267282	-0.356771	-0.154507
H285	H	-0.903906	-1.039903	-0.232695
H286	H	-0.653906	-0.789903	0.017305
H287	H	-0.403906	-0.539903	0.267305
H288	H	-0.153906	-0.289903	0.517305
H289	H	-0.324168	-0.948301	-0.904510
H290	H	-0.074168	-0.698301	-0.654510
H291	H	0.175832	-0.448301	-0.404510
H292	H	0.425832	-0.198301	-0.154510
H293	H	-0.903621	-0.981672	-0.449351
H294	H	-0.653621	-0.731672	-0.199351
H295	H	-0.403621	-0.481672	0.050649
H296	H	-0.153621	-0.231672	0.300649
H297	H	-0.811097	-0.948271	-0.324129
H298	H	-0.561097	-0.698271	-0.074129
H299	H	-0.311097	-0.448271	0.175871
H300	H	-0.061097	-0.198271	0.425871
H301	H	-0.391295	-1.198399	-0.811809
H302	H	-0.141295	-0.948399	-0.561809
H303	H	0.108705	-0.698399	-0.311809
H304	H	0.358705	-0.448399	-0.061809
H305	H	-0.266098	-1.165031	-0.904312
H306	H	-0.016098	-0.915031	-0.654312
H307	H	0.233902	-0.665031	-0.404312
H308	H	0.483902	-0.415031	-0.154312
