data_functionalizedCrystal
_audit_creation_method	'MofGen! by Chris Wilmer'
_symmetry_space_group_name_H-M	'P1'
_symmetry_Int_Tables_number	1
_symmetry_cell_setting	triclinic
loop_
_symmetry_equiv_pos_as_xyz
  x,y,z
_cell_length_a	13.339070
_cell_length_b	10.654554
_cell_length_c	9.730223
_cell_angle_alpha	89.999614
_cell_angle_beta	90.000235
_cell_angle_gamma	100.058069
loop_
_atom_site_label
_atom_site_type_symbol
_atom_site_fract_x
_atom_site_fract_y
_atom_site_fract_z
O1	O	0.142454	1.715930	-0.114291
O2	O	0.156019	1.355033	-0.114292
O3	O	0.001681	1.494062	-0.114287
O4	O	0.296791	1.576901	-0.114295
O5	O	0.001685	1.494062	0.114292
O6	O	0.156023	1.355032	0.114288
O7	O	0.142457	1.715930	0.114289
Zn8	Zn	0.149241	1.535481	0.150581
Zn9	Zn	0.149236	1.535482	-0.150583
O10	O	0.296795	1.576900	0.114285
C11	C	0.155024	1.307898	-0.000002
C12	C	0.152041	1.167448	-0.000003
C13	C	0.055560	0.952309	-0.000012
C14	C	0.058362	1.084277	-0.000002
C15	C	0.242923	1.118646	0.000001
C16	C	0.240120	0.986680	0.000001
C17	C	-0.038124	0.869144	-0.000025
C18	C	-0.129007	0.917937	-0.000025
C19	C	-0.126205	1.049904	-0.000016
C20	C	-0.032520	1.133079	-0.000005
C21	C	-0.036104	1.480069	0.000001
C22	C	-0.148699	1.438359	-0.000005
C23	C	-0.511212	1.762674	-0.000003
C24	C	-0.405424	1.801867	0.000010
C25	C	-0.341238	1.710993	0.000005
C26	C	-0.382850	1.580920	-0.000011
C27	C	-0.488648	1.541724	-0.000013
C28	C	-0.318674	1.490043	-0.000004
C29	C	-0.360286	1.359970	-0.000020
C30	C	-0.466074	1.320780	-0.000024
C31	C	-0.530261	1.411653	-0.000019
C32	C	-0.212875	1.529239	-0.000002
C33	C	-0.190311	1.308289	-0.000012
C34	C	-0.296100	1.269096	-0.000025
C35	C	0.334580	1.590894	-0.000007
C36	C	0.447175	1.632604	-0.000010
C37	C	0.143452	1.763065	-0.000004
C38	C	0.146435	1.903515	-0.000012
N39	N	0.149244	1.535489	0.356117
N40	N	0.149225	1.535481	-0.356120
C41	C	0.080926	1.597081	0.428045
C42	C	0.080914	1.597073	0.571928
C43	C	0.217545	1.473881	0.571942
C44	C	0.217552	1.473881	0.428062
C45	C	0.012618	1.658688	0.356100
C46	C	-0.055704	1.720287	0.428028
C47	C	-0.055716	1.720279	0.571911
C48	C	0.012594	1.658673	0.643866
H49	H	-0.030246	1.240535	0.000016
Br50	Br	-0.249543	1.116122	0.000007
Br51	Br	-0.041932	0.690044	-0.000054
H52	H	-0.616403	1.379749	-0.000035
H53	H	-0.329996	1.163188	-0.000037
Br54	Br	0.012639	1.658711	0.160831
H55	H	-0.179005	1.635145	0.000012
H56	H	0.319197	1.186376	0.000008
H57	H	-0.371551	1.907772	0.000025
H58	H	-0.499951	1.214866	-0.000026
H59	H	-0.138051	1.234291	-0.000008
Br60	Br	-0.148417	1.803871	0.330382
H61	H	-0.205282	0.850208	-0.000046
H62	H	0.314119	0.946952	0.000006
Br63	Br	-0.598324	1.885987	0.000035
Br64	Br	-0.148446	1.803857	0.669528
H65	H	0.012571	1.658662	0.761025
Br66	Br	0.310247	1.390281	0.669593
H67	H	-0.255101	1.742912	0.000016
Br68	Br	0.310265	1.390280	0.330441
