data_functionalizedCrystal
_audit_creation_method	'MofGen! by Chris Wilmer'
_symmetry_space_group_name_H-M	'P1'
_symmetry_Int_Tables_number	1
_symmetry_cell_setting	triclinic
loop_
_symmetry_equiv_pos_as_xyz
  x,y,z
_cell_length_a	12.759395
_cell_length_b	12.759394
_cell_length_c	12.827885
_cell_angle_alpha	90.031224
_cell_angle_beta	90.019785
_cell_angle_gamma	90.015525
loop_
_atom_site_label
_atom_site_type_symbol
_atom_site_fract_x
_atom_site_fract_y
_atom_site_fract_z
Zn1	Zn	1.606251	-0.418196	0.590853
Zn2	Zn	1.606146	-0.593912	0.416108
Zn3	Zn	1.430554	-0.418250	0.416125
Zn4	Zn	1.430541	-0.593836	0.590807
O5	O	1.518373	-0.506048	0.503473
O6	O	1.753258	-0.441515	0.567685
O7	O	1.582815	-0.570664	0.269874
O8	O	1.453910	-0.271221	0.439329
O9	O	1.753181	-0.570612	0.439301
O10	O	1.582993	-0.271182	0.567700
O11	O	1.453808	-0.441606	0.269886
O12	O	1.283531	-0.441532	0.439284
O13	O	1.453887	-0.570483	0.737049
O14	O	1.283521	-0.570535	0.567623
O15	O	1.582981	-0.441441	0.737083
O16	O	1.582802	-0.740923	0.439257
O17	O	1.453786	-0.740867	0.567607
C18	C	1.245405	-0.506032	0.503451
C19	C	1.128629	-0.506050	0.503466
C20	C	0.909234	-0.640621	0.636928
C21	C	0.964120	-0.707885	0.703635
C22	C	1.073841	-0.707873	0.703621
C23	C	1.128679	-0.640591	0.636892
C24	C	1.073793	-0.573327	0.570186
C25	C	0.964069	-0.573345	0.570209
C26	C	1.073742	-0.438786	0.436760
C27	C	0.964021	-0.438792	0.436777
C28	C	1.128580	-0.371504	0.370031
C29	C	1.073694	-0.304233	0.303328
C30	C	0.963966	-0.304248	0.303345
C31	C	0.909135	-0.371528	0.370070
C32	C	1.518310	-0.779016	0.503448
C33	C	1.518379	-0.895793	0.503472
C34	C	1.652824	-0.895797	0.369921
C35	C	1.720075	-0.950661	0.303158
C36	C	1.720136	-1.060382	0.303186
C37	C	1.652943	-1.115243	0.369987
C38	C	1.585692	-1.060380	0.436750
C39	C	1.585636	-0.950656	0.436713
C40	C	1.451254	-1.060375	0.570305
C41	C	1.451185	-0.950654	0.570273
C42	C	1.384060	-1.115236	0.637106
C43	C	1.316803	-1.060373	0.703865
C44	C	1.316744	-0.950645	0.703833
C45	C	1.383935	-0.895790	0.637036
C46	C	1.792406	-0.506066	0.503496
C47	C	1.909183	-0.506074	0.503506
C48	C	1.518444	-0.505948	0.776043
C49	C	1.518475	-0.505905	0.892197
C50	C	1.518465	-0.232015	0.503521
C51	C	1.518504	-0.115238	0.503542
C52	C	1.518362	-0.506073	0.231963
C53	C	1.518535	-0.505820	0.115811
C54	C	1.582361	-0.442038	0.943998
C55	C	1.582394	-0.441992	1.064048
H56	H	1.118530	-0.762647	0.757937
H57	H	1.774785	-0.905983	0.248771
C58	C	0.788537	-0.640636	0.636955
N59	N	0.697627	-0.640651	0.636975
C60	C	0.903790	-0.781891	0.777035
N61	N	0.858353	-0.837632	0.832319
C62	C	1.242897	-1.120726	0.777336
N63	N	1.187226	-1.166189	0.832673
C64	C	1.249376	-0.640624	0.636838
N65	N	1.340286	-0.640661	0.636783
H66	H	1.774902	-1.105052	0.248827
C67	C	1.384128	-1.235933	0.637133
N68	N	1.384173	-1.326843	0.637151
C69	C	1.444637	-0.579693	1.055638
N70	N	1.388976	-0.635333	1.010309
H71	H	1.217922	-0.371503	0.370020
C72	C	1.242770	-0.890304	0.777288
N73	N	1.187052	-0.844859	0.832617
C74	C	1.656286	-0.368118	1.124227
N75	N	1.711941	-0.312472	1.169557
H76	H	1.118352	-0.249462	0.248998
C77	C	0.903600	-0.230250	0.229962
N78	N	0.858136	-0.174511	0.174689
H79	H	1.653008	-1.204584	0.370013
C80	C	0.788438	-0.371550	0.370096
N81	N	0.697528	-0.371572	0.370116
H82	H	1.383886	-0.806449	0.636997
C83	C	1.652753	-0.775101	0.369874
N84	N	1.652701	-0.684190	0.369837
C85	C	1.656219	-0.368210	0.883848
N86	N	1.711851	-0.312601	0.838544
H87	H	1.463797	-0.560542	0.936724
