data_functionalizedCrystal
_audit_creation_method	'MofGen! by Chris Wilmer'
_symmetry_space_group_name_H-M	'P1'
_symmetry_Int_Tables_number	1
_symmetry_cell_setting	triclinic
loop_
_symmetry_equiv_pos_as_xyz
  x,y,z
_cell_length_a	16.120530
_cell_length_b	29.839131
_cell_length_c	16.120256
_cell_angle_alpha	92.869474
_cell_angle_beta	90.128265
_cell_angle_gamma	87.136742
loop_
_atom_site_label
_atom_site_type_symbol
_atom_site_fract_x
_atom_site_fract_y
_atom_site_fract_z
Zn1	Zn	1.247310	-0.227608	-0.534531
Zn2	Zn	1.254220	-0.299123	-0.395461
Zn3	Zn	1.115304	-0.220015	-0.388450
Zn4	Zn	1.108176	-0.298711	-0.527431
O5	O	1.181252	-0.261364	-0.461468
O6	O	1.364591	-0.240445	-0.521989
O7	O	1.241667	-0.285623	-0.278166
O8	O	1.132907	-0.158158	-0.407864
O9	O	1.369667	-0.292986	-0.419815
O10	O	1.229890	-0.163737	-0.515190
O11	O	1.139607	-0.227503	-0.273014
O12	O	0.997995	-0.227104	-0.400980
O13	O	1.120757	-0.292285	-0.644739
O14	O	0.992757	-0.284921	-0.503089
O15	O	1.222978	-0.240046	-0.649955
O16	O	1.234755	-0.361932	-0.412931
O17	O	1.127458	-0.361629	-0.509889
C18	C	0.965204	-0.255144	-0.450504
C19	C	0.872776	-0.252495	-0.445833
C20	C	1.181104	-0.378081	-0.461419
C21	C	1.181116	-0.428016	-0.461430
C22	C	0.703550	-0.247647	-0.437312
C23	C	0.659793	-0.275116	-0.485685
C24	C	0.565629	-0.272419	-0.480944
C25	C	0.797722	-0.250343	-0.442052
C26	C	1.237215	-0.737814	-0.411065
C27	C	1.237316	-0.925491	-0.411102
O28	O	1.284896	-0.949883	-0.368242
N29	N	1.181422	-0.948813	-0.461540
C30	C	1.125502	-0.925213	-0.511975
O31	O	1.077968	-0.949356	-0.554882
C32	C	1.125405	-0.737537	-0.511942
C33	C	1.181298	-0.714217	-0.461495
C34	C	1.293103	-0.714494	-0.360623
C35	C	1.293075	-0.667578	-0.360611
C36	C	1.237157	-0.643981	-0.411041
C37	C	1.181269	-0.667301	-0.461483
C38	C	1.069490	-0.713938	-0.562381
C39	C	1.069472	-0.667016	-0.562370
C40	C	1.125365	-0.643696	-0.511923
C41	C	1.125323	-0.596787	-0.511900
N42	N	1.181217	-0.573465	-0.461463
C43	C	1.237134	-0.597062	-0.411033
C44	C	1.125555	-1.023745	-0.511988
C45	C	1.125578	-1.070664	-0.511996
C46	C	1.237394	-1.070939	-0.411124
C47	C	1.237366	-1.024019	-0.411112
C48	C	1.181450	-1.000423	-0.461551
C49	C	1.237069	-0.498534	-0.411011
C50	C	1.237033	-0.451613	-0.411000
C51	C	1.125221	-0.451342	-0.511875
C52	C	1.125254	-0.498259	-0.511883
C53	C	1.181185	-0.521854	-0.461448
O54	O	1.077774	-0.572367	-0.554745
O55	O	1.284673	-0.572912	-0.368146
C56	C	1.237244	-0.784731	-0.411077
C57	C	1.181355	-0.808050	-0.461519
C58	C	1.125438	-0.784454	-0.511949
C59	C	1.181378	-0.854969	-0.461527
C60	C	1.237296	-0.878566	-0.411097
C61	C	1.293190	-0.855244	-0.360660
C62	C	1.293161	-0.808327	-0.360647
C63	C	1.069544	-0.807775	-0.562386
C64	C	1.069577	-0.854692	-0.562394
C65	C	1.125494	-0.878289	-0.511964
C66	C	1.398145	-0.267609	-0.472476
C67	C	1.490571	-0.270270	-0.477167
C68	C	1.170302	-0.266967	-0.678362
C69	C	1.165635	-0.269354	-0.770790
C70	C	1.181423	-0.144192	-0.461537
C71	C	1.181495	-0.094261	-0.461566
C72	C	1.205586	-0.248902	-0.983777
C73	C	1.157088	-0.273694	-0.940009
C74	C	1.161845	-0.271278	-0.845847
C75	C	1.200830	-0.251317	-1.077948
C76	C	1.192208	-0.255752	-0.245420
C77	C	1.197036	-0.253243	-0.153002
H78	H	0.693050	-0.300658	-0.530660
H79	H	1.111990	-0.296729	-0.973256
H80	H	1.023939	-0.647807	-0.603445
C81	C	0.659060	-0.213637	-0.377368
C82	C	0.573157	-0.217704	-0.384507
C83	C	0.532137	-0.186387	-0.329291
H84	H	0.672564	-0.184154	-0.390278
H85	H	0.675994	-0.219123	-0.322152
H86	H	0.556229	-0.212214	-0.439710
H87	H	0.559628	-0.247179	-0.371589
H88	H	0.549070	-0.191873	-0.274075
H89	H	0.545647	-0.156907	-0.342206
H90	H	0.473848	-0.189145	-0.334122
C91	C	1.297814	-0.426378	-0.356202
C92	C	1.346804	-0.457090	-0.312060
C93	C	1.402810	-0.433863	-0.261583
H94	H	1.267952	-0.406250	-0.318255
H95	H	1.332448	-0.409921	-0.389856
H96	H	1.312174	-0.473540	-0.278408
H97	H	1.376683	-0.477220	-0.349985
H98	H	1.437444	-0.417406	-0.295238
H99	H	1.372941	-0.413735	-0.223642
H100	H	1.436061	-0.454698	-0.231632
H101	H	1.250676	-0.225866	-0.950532
C102	C	1.064534	-0.523501	-0.566740
C103	C	1.015570	-0.492791	-0.610914
C104	C	0.959640	-0.516025	-0.661473
H105	H	1.029868	-0.539974	-0.533164
H106	H	1.094479	-0.543616	-0.604661
H107	H	0.985627	-0.472684	-0.572998
H108	H	1.050213	-0.476317	-0.644506
H109	H	0.989585	-0.536140	-0.699394
H110	H	0.924980	-0.532497	-0.627891
H111	H	0.926417	-0.495192	-0.691457
H112	H	1.282615	-0.517739	-0.369944
C113	C	1.353728	-0.642317	-0.305711
C114	C	1.339870	-0.651125	-0.222510
C115	C	1.395742	-0.627872	-0.171914
H116	H	1.345775	-0.610985	-0.312809
H117	H	1.408989	-0.651910	-0.320722
H118	H	1.284623	-0.641530	-0.207503
H119	H	1.347829	-0.682452	-0.215385
H120	H	1.451002	-0.637464	-0.186925
H121	H	1.387784	-0.596541	-0.179019
H122	H	1.386352	-0.633848	-0.115457
C123	C	1.353969	-0.740124	-0.306041
C124	C	1.404884	-0.769744	-0.355905
C125	C	1.460995	-0.793346	-0.305661
H126	H	1.324187	-0.756650	-0.268131
H127	H	1.387290	-0.719512	-0.276050
H128	H	1.371567	-0.790354	-0.385882
H129	H	1.434684	-0.753229	-0.393814
H130	H	1.494316	-0.772734	-0.275671
H131	H	1.431206	-0.809870	-0.267754
H132	H	1.495552	-0.813443	-0.339487
C133	C	1.298145	-0.998786	-0.356318
C134	C	1.347127	-1.029500	-0.312172
C135	C	1.403136	-1.006274	-0.261694
H136	H	1.268286	-0.978655	-0.318375
H137	H	1.332785	-0.982332	-0.389973
H138	H	1.312492	-1.045946	-0.278520
H139	H	1.377004	-1.049631	-0.350094
H140	H	1.437775	-0.989821	-0.295349
H141	H	1.373270	-0.986144	-0.223756
H142	H	1.436382	-1.027110	-0.231741
C143	C	1.298126	-1.096649	-0.356523
C144	C	1.286215	-1.142731	-0.367376
C145	C	1.342178	-1.166433	-0.317135
H146	H	1.288940	-1.087261	-0.299973
H147	H	1.353361	-1.090862	-0.371642
H148	H	1.230993	-1.148515	-0.352252
H149	H	1.295407	-1.152132	-0.423915
H150	H	1.397413	-1.160646	-0.332254
H151	H	1.332988	-1.157041	-0.260589
H152	H	1.334109	-1.197702	-0.324498
H153	H	1.080019	-1.004536	-0.553062
H154	H	1.023973	-0.732917	-0.603456
C155	C	1.064852	-1.095899	-0.566849
C156	C	1.015897	-1.065187	-0.611026
C157	C	0.959956	-1.088416	-0.661579
H158	H	1.030181	-1.112367	-0.533269
H159	H	1.094789	-1.116019	-0.604769
H160	H	0.985962	-1.045075	-0.573111
H161	H	1.050545	-1.048718	-0.644622
H162	H	0.989893	-1.108535	-0.699499
H163	H	0.925291	-1.104883	-0.627993
H164	H	0.926739	-1.067582	-0.691564
C165	C	1.064652	-0.425698	-0.566739
C166	C	1.109003	-0.401466	-0.622459
C167	C	1.053241	-0.377841	-0.673025
H168	H	1.030024	-0.405522	-0.533156
H169	H	1.031377	-0.446290	-0.596839
H170	H	1.142263	-0.380877	-0.592362
H171	H	1.143628	-0.421632	-0.656060
H172	H	1.019966	-0.398432	-0.703125
H173	H	1.018616	-0.357667	-0.639435
H174	H	1.083325	-0.361400	-0.710842
C175	C	1.354021	-0.880893	-0.306066
C176	C	1.404920	-0.910522	-0.355931
C177	C	1.460984	-0.934153	-0.305682
H178	H	1.324202	-0.897417	-0.268180
H179	H	1.387356	-0.860299	-0.276049
H180	H	1.371588	-0.931113	-0.385934
H181	H	1.434757	-0.894010	-0.393815
H182	H	1.494319	-0.913559	-0.275665
H183	H	1.431158	-0.950674	-0.267799
H184	H	1.495530	-0.954255	-0.339509
C185	C	1.008852	-0.879928	-0.617259
C186	C	0.959896	-0.849215	-0.661434
C187	C	0.903963	-0.872445	-0.711996
H188	H	0.974181	-0.896399	-0.583685
H189	H	1.038795	-0.900044	-0.655179
H190	H	0.929956	-0.829107	-0.623518
H191	H	0.994545	-0.832743	-0.695024
H192	H	0.933906	-0.892561	-0.749916
H193	H	0.869298	-0.888915	-0.678415
H194	H	0.870746	-0.851610	-0.741980
C195	C	1.008785	-0.782097	-0.617001
C196	C	0.957901	-0.752446	-0.567164
C197	C	0.901920	-0.728781	-0.617446
H198	H	0.975424	-0.802656	-0.647053
H199	H	1.038694	-0.765590	-0.654857
H200	H	0.927994	-0.768952	-0.529322
H201	H	0.991239	-0.731878	-0.537112
H202	H	0.931829	-0.712275	-0.655302
H203	H	0.868565	-0.749344	-0.647495
H204	H	0.867394	-0.708658	-0.583640
H205	H	1.338674	-0.789344	-0.319569
