data_functionalizedCrystal
_audit_creation_method	'MofGen! by Chris Wilmer'
_symmetry_space_group_name_H-M	'P1'
_symmetry_Int_Tables_number	1
_symmetry_cell_setting	triclinic
loop_
_symmetry_equiv_pos_as_xyz
  x,y,z
_cell_length_a	18.050590
_cell_length_b	15.297327
_cell_length_c	15.299447
_cell_angle_alpha	91.592977
_cell_angle_beta	80.316663
_cell_angle_gamma	99.693582
loop_
_atom_site_label
_atom_site_type_symbol
_atom_site_fract_x
_atom_site_fract_y
_atom_site_fract_z
Zn1	Zn	1.176978	-0.263310	-0.555276
Zn2	Zn	1.676978	0.236690	-0.055276
Zn3	Zn	1.135136	-0.435144	-0.434144
Zn4	Zn	1.635136	0.064856	0.065856
Zn5	Zn	1.028305	-0.288654	-0.408858
Zn6	Zn	1.528305	0.211346	0.091142
Zn7	Zn	1.035502	-0.409714	-0.580598
Zn8	Zn	1.535502	0.090286	-0.080598
O9	O	1.093980	-0.349206	-0.494719
O10	O	1.593980	0.150794	0.005281
O11	O	1.275345	-0.286140	-0.539194
O12	O	1.775345	0.213860	-0.039194
O13	O	1.100441	-0.436961	-0.308222
O14	O	1.600441	0.063039	0.191778
O15	O	1.062526	-0.162715	-0.407101
O16	O	1.562526	0.337285	0.092899
O17	O	1.244603	-0.412386	-0.450198
O18	O	1.744603	0.087614	0.049802
O19	O	1.171756	-0.144095	-0.514674
O20	O	1.671756	0.355905	-0.014674
O21	O	1.021953	-0.329336	-0.289644
O22	O	1.521953	0.170664	0.210356
O23	O	0.925342	-0.304677	-0.431654
O24	O	1.425342	0.195323	0.068346
O25	O	1.074792	-0.369044	-0.699807
O26	O	1.574792	0.130956	-0.199807
O27	O	0.930630	-0.393619	-0.557830
O28	O	1.430630	0.106381	-0.057830
O29	O	1.178734	-0.261482	-0.681203
O30	O	1.678734	0.238518	-0.181203
O31	O	1.107420	-0.554348	-0.474751
O32	O	1.607420	-0.054348	0.025249
O33	O	1.034219	-0.535665	-0.582350
O34	O	1.534219	-0.035665	-0.082350
C35	C	0.901041	-0.349139	-0.494746
C36	C	1.401041	0.150861	0.005254
C37	C	0.818502	-0.349128	-0.494783
C38	C	1.318502	0.150872	0.005217
C39	C	1.067083	-0.576786	-0.534062
C40	C	1.567083	-0.076786	-0.034062
C41	C	1.055649	-0.674141	-0.550922
C42	C	1.555649	-0.174141	-0.050922
C43	C	1.176056	-0.987327	-0.374516
C44	C	1.676056	-0.487327	0.125484
C45	C	1.186797	-0.895858	-0.358670
C46	C	1.686797	-0.395858	0.141330
C47	C	1.154011	-0.840424	-0.406732
C48	C	1.654011	-0.340424	0.093268
C49	C	1.110482	-0.876468	-0.470641
C50	C	1.610482	-0.376468	0.029359
C51	C	1.099734	-0.967947	-0.486483
C52	C	1.599734	-0.467947	0.013517
C53	C	1.077690	-0.821045	-0.518700
C54	C	1.577690	-0.321045	-0.018700
C55	C	1.034160	-0.857089	-0.582609
C56	C	1.534160	-0.357089	-0.082609
C57	C	1.023415	-0.948559	-0.598449
C58	C	1.523415	-0.448559	-0.098449
C59	C	1.056201	-1.003992	-0.550387
C60	C	1.556201	-0.503992	-0.050387
C61	C	1.088438	-0.729566	-0.502858
C62	C	1.588438	-0.229566	-0.002858
C63	C	1.012116	-0.710186	-0.614825
C64	C	1.512116	-0.210186	-0.114825
C65	C	1.001375	-0.801655	-0.630671
C66	C	1.501375	-0.301655	-0.130671
C67	C	0.621906	-0.397687	-0.563287
C68	C	1.121906	0.102313	-0.063287
C69	C	0.585524	-0.314088	-0.571024
C70	C	1.085524	0.185912	-0.071024
C71	C	0.667359	-0.349185	-0.494748
C72	C	1.167359	0.150815	0.005252
C73	C	0.556653	-0.432829	-0.487019
C74	C	1.056653	0.067171	0.012981
C75	C	0.521361	-0.349246	-0.494718
C76	C	1.021361	0.150754	0.005282
C77	C	0.632077	-0.265536	-0.502519
C78	C	1.132077	0.234464	-0.002519
C79	C	0.603198	-0.384338	-0.418486
C80	C	1.103198	0.115662	0.081514
C81	C	0.566840	-0.300689	-0.426183
C82	C	1.066840	0.199311	0.073817
C83	C	0.751465	-0.349150	-0.494768
C84	C	1.251465	0.150850	0.005232
C85	C	0.437258	-0.349271	-0.494696
C86	C	0.937258	0.150729	0.005304
C87	C	1.287672	-0.349273	-0.494692
C88	C	1.787672	0.150727	0.005308
C89	C	1.370212	-0.349301	-0.494681
C90	C	1.870212	0.150699	0.005319
C91	C	1.132234	-0.309599	-0.723174
C92	C	1.632234	0.190401	-0.223174
C93	C	1.148535	-0.292721	-0.820528
C94	C	1.648535	0.207279	-0.320528
C95	C	1.121006	-0.120733	-0.455242
C96	C	1.621006	0.379267	0.044758
C97	C	1.132522	-0.023372	-0.438419
C98	C	1.632522	0.476628	0.061581
C99	C	0.978018	-0.469156	-1.133697
C100	C	1.478018	0.030844	-0.633697
C101	C	0.962696	-0.485009	-1.042227
C102	C	1.462696	0.014991	-0.542227
C103	C	1.009154	-0.436939	-0.986798
C104	C	1.509154	0.063061	-0.486798
C105	C	1.070938	-0.373012	-1.022847
C106	C	1.570938	0.126988	-0.522847
C107	C	1.086259	-0.357152	-1.114325
C108	C	1.586259	0.142848	-0.614325
C109	C	1.117394	-0.324935	-0.967426
C110	C	1.617394	0.175065	-0.467426
C111	C	1.179178	-0.261009	-1.003476
C112	C	1.679178	0.238991	-0.503476
C113	C	1.194496	-0.245152	-1.094945
C114	C	1.694496	0.254848	-0.594945
C115	C	1.148038	-0.293223	-1.150374
C116	C	1.648038	0.206777	-0.650374
C117	C	1.102074	-0.340795	-0.875949
C118	C	1.602074	0.159205	-0.375949
C119	C	1.210314	-0.228791	-0.856577
C120	C	1.710314	0.271209	-0.356577
C121	C	1.225637	-0.212938	-0.948047
C122	C	1.725637	0.287062	-0.448047
C123	C	1.055926	-0.388595	-0.267142
C124	C	1.555926	0.111405	0.232858
C125	C	1.039798	-0.405226	-0.169746
C126	C	1.539798	0.094774	0.330254
H127	H	1.123879	-0.700227	-0.450822
H128	H	1.623879	-0.200227	0.049178
H129	H	1.222238	-0.866514	-0.306635
H130	H	1.722238	-0.366514	0.193365
H131	H	0.985417	-0.665052	-0.653960
H132	H	1.485417	-0.165052	-0.153960
H133	H	1.275941	-0.160888	-0.977411
H134	H	1.775941	0.339112	-0.477411
H135	H	0.987960	-0.977904	-0.650478
H136	H	1.487960	-0.477904	-0.150478
H137	H	1.202740	-1.032469	-0.335385
H138	H	1.702740	-0.532469	0.164615
H139	H	1.244800	-0.193093	-1.124292
H140	H	1.744800	0.306907	-0.624292
H141	H	0.542894	-0.259642	-0.368199
H142	H	1.042894	0.240358	0.131801
H143	H	0.611500	-0.414069	-0.354031
H144	H	1.111500	0.085931	0.145969
F145	F	0.955048	-0.840027	-0.698686
F146	F	1.455048	-0.340027	-0.198686
F147	F	0.513916	-0.525254	-0.478487
F148	F	1.013916	-0.025254	0.021513
F149	F	1.259764	-0.177631	-0.797590
F150	F	1.759764	0.322369	-0.297590
H151	H	0.664697	-0.194792	-0.509118
H152	H	1.164697	0.305208	-0.009118
F153	F	1.036321	-0.408829	-0.837593
F154	F	1.536321	0.091171	-0.337593
H155	H	0.996676	-0.449851	-0.912320
H156	H	1.496676	0.050149	-0.412320
F157	F	1.165635	-0.743042	-0.390054
F158	F	1.665635	-0.243042	0.109946
H159	H	1.047460	-1.078474	-0.563287
H160	H	1.547460	-0.578474	-0.063287
H161	H	0.646011	-0.438607	-0.621289
H162	H	1.146011	0.061393	-0.121289
H163	H	1.160512	-0.280322	-1.224857
H164	H	1.660512	0.219678	-0.724857
F165	F	0.574693	-0.275253	-0.655301
F166	F	1.074693	0.224747	-0.155301
F167	F	0.896942	-0.553039	-1.003867
F168	F	1.396942	-0.053039	-0.503867
H169	H	0.940196	-0.508285	-1.178834
H170	H	1.440196	-0.008285	-0.678834
