data_functionalizedCrystal
_audit_creation_method	'MofGen! by Chris Wilmer'
_symmetry_space_group_name_H-M	'P1'
_symmetry_Int_Tables_number	1
_symmetry_cell_setting	triclinic
loop_
_symmetry_equiv_pos_as_xyz
  x,y,z
_cell_length_a	11.026607
_cell_length_b	11.792241
_cell_length_c	9.482900
_cell_angle_alpha	99.382638
_cell_angle_beta	78.618164
_cell_angle_gamma	96.389716
loop_
_atom_site_label
_atom_site_type_symbol
_atom_site_fract_x
_atom_site_fract_y
_atom_site_fract_z
O1	O	1.594419	0.489789	0.120909
O2	O	2.094419	0.989789	0.620909
O3	O	1.240756	0.435597	0.120909
O4	O	1.740756	0.935597	0.620909
O5	O	1.426172	0.299225	0.120899
O6	O	1.926172	0.799225	0.620899
O7	O	1.409004	0.626160	0.120919
O8	O	1.909004	1.126160	0.620919
O9	O	1.463903	0.271462	-0.120896
O10	O	1.963903	0.771462	0.379104
O11	O	1.278487	0.407833	-0.120885
O12	O	1.778487	0.907833	0.379115
O13	O	1.632150	0.462025	-0.120886
O14	O	2.132150	0.962025	0.379114
Cu15	Cu	1.458764	0.432394	-0.142964
Cu16	Cu	1.958764	0.932394	0.357036
Cu17	Cu	1.414143	0.465228	0.142987
Cu18	Cu	1.914143	0.965228	0.642987
O19	O	1.446735	0.598397	-0.120876
O20	O	1.946735	1.098397	0.379124
C21	C	1.214345	0.411718	0.000012
C22	C	1.714345	0.911718	0.500012
C23	C	1.079435	0.381915	0.000012
C24	C	1.579435	0.881915	0.500012
C25	C	1.443959	0.242838	0.000002
C26	C	1.943959	0.742838	0.500002
C27	C	1.440731	0.116184	0.000003
C28	C	1.940731	0.616184	0.500003
C29	C	1.006170	0.464206	0.000018
C30	C	1.506170	0.964206	0.500018
C31	C	0.866733	0.433405	0.000018
C32	C	1.366733	0.933405	0.500018
C33	C	1.434793	-0.115704	0.000028
C34	C	1.934793	0.384296	0.500028
C35	C	1.438093	0.013335	0.000014
C36	C	1.938093	0.513335	0.500014
C37	C	1.658561	0.485905	0.000014
C38	C	2.158561	0.985905	0.500014
C39	C	1.793469	0.515708	0.000024
C40	C	2.293469	1.015708	0.500024
C41	C	1.428947	0.654784	0.000025
C42	C	1.928947	1.154784	0.500025
C43	C	1.432173	0.781439	0.000033
C44	C	1.932173	1.281439	0.500033
N45	N	1.382760	0.488314	0.344109
N46	N	1.882760	0.988314	0.844109
N47	N	1.490157	0.409301	-0.344085
N48	N	1.990157	0.909301	0.155915
C49	C	1.449513	0.439212	0.416304
C50	C	1.949513	0.939212	0.916304
C51	C	1.423393	0.458410	0.583723
C52	C	1.923393	0.958410	1.083723
H53	H	1.046675	0.557460	0.000015
H54	H	1.546675	1.057460	0.500015
O55	O	1.322053	0.532906	0.666018
O56	O	1.822053	1.032906	1.166018
H57	H	1.362802	0.606517	0.735403
H58	H	1.862802	1.106517	1.235403
O59	O	0.847089	0.639249	0.000024
O60	O	1.347089	1.139249	0.500024
H61	H	0.888810	0.668078	0.098580
H62	H	1.388810	1.168078	0.598580
O63	O	0.813106	0.309867	0.000010
O64	O	1.313106	0.809867	0.500010
H65	H	0.712002	0.305061	0.000020
H66	H	1.212002	0.805061	0.500020
H67	H	1.038925	0.288665	0.000043
H68	H	1.538925	0.788665	0.500043
O69	O	1.550835	0.364699	0.334020
O70	O	2.050835	0.864699	0.834020
H71	H	1.555446	0.361308	0.215435
H72	H	2.055446	0.861308	0.715435
H73	H	1.306275	0.544568	0.406243
H74	H	1.806275	1.044568	0.906243
H75	H	1.566655	0.353053	0.593786
H76	H	2.066655	0.853053	1.093786
