data_functionalizedCrystal
_audit_creation_method	'MofGen! by Chris Wilmer'
_symmetry_space_group_name_H-M	'P1'
_symmetry_Int_Tables_number	1
_symmetry_cell_setting	triclinic
loop_
_symmetry_equiv_pos_as_xyz
  x,y,z
_cell_length_a	10.540539
_cell_length_b	15.995292
_cell_length_c	9.016244
_cell_angle_alpha	89.999046
_cell_angle_beta	90.005301
_cell_angle_gamma	83.997054
loop_
_atom_site_label
_atom_site_type_symbol
_atom_site_fract_x
_atom_site_fract_y
_atom_site_fract_z
O1	O	1.684234	0.117997	0.123259
O2	O	1.314665	0.129115	0.123276
O3	O	1.509590	0.001726	0.123269
O4	O	1.489308	0.245387	0.123266
O5	O	1.509562	0.001729	-0.123412
O6	O	1.314636	0.129118	-0.123405
O7	O	1.684206	0.118000	-0.123422
Cu8	Cu	1.499418	0.123559	-0.145937
Cu9	Cu	1.499452	0.123556	0.145791
O10	O	1.489280	0.245389	-0.123415
C11	C	1.267359	0.128283	-0.000062
C12	C	1.126446	0.125788	-0.000055
C13	C	1.508751	-0.029473	-0.000067
C14	C	1.506276	-0.122441	-0.000056
C15	C	0.944363	0.030203	-0.000629
C16	C	1.090946	0.032731	-0.000058
C17	C	1.064160	0.170570	0.140806
C18	C	0.917660	0.167394	0.140908
C19	C	0.917113	0.169290	-0.139614
C20	C	1.064083	0.170147	-0.141460
C21	C	1.497178	-0.460234	-0.000069
C22	C	1.637870	-0.436080	-0.000627
C23	C	1.640544	-0.339389	-0.000066
C24	C	1.501692	-0.292651	-0.000064
C25	C	1.431369	-0.322174	0.140802
C26	C	1.429676	-0.418975	0.140915
C27	C	1.426770	-0.418846	-0.139608
C28	C	1.431984	-0.322322	-0.141464
C29	C	1.504236	-0.197940	-0.000055
C30	C	1.494630	-0.554945	-0.000067
C31	C	1.731511	0.118832	-0.000081
C32	C	1.872424	0.121327	-0.000078
C33	C	1.490120	0.276588	-0.000075
C34	C	1.492594	0.369556	-0.000077
N35	N	1.499404	0.123561	-0.351123
C36	C	1.394818	0.191477	-0.586152
C37	C	1.395043	0.191732	-0.414261
C38	C	1.631847	0.143437	-0.413468
C39	C	1.631275	0.143918	-0.585413
C40	C	1.472868	0.035547	-0.585664
C41	C	1.469814	0.036117	-0.413710
N42	N	1.499476	0.123548	0.350977
H43	H	0.916283	-0.006559	-0.101649
H44	H	1.654726	0.208121	-0.625505
C45	C	1.095500	0.261803	-0.152957
H46	H	1.056632	0.287026	-0.239340
H47	H	1.063939	0.292147	-0.067777
H48	H	1.185318	0.262782	-0.158868
H49	H	0.868941	0.236505	-0.140566
H50	H	1.296595	0.179773	-0.372112
H51	H	1.695620	-0.320033	-0.101041
H52	H	1.711579	0.095311	-0.372567
H53	H	1.692087	-0.463752	-0.101648
H54	H	1.085553	0.238908	0.146046
C55	C	1.495505	-0.454819	0.283150
H56	H	1.495048	-0.514177	0.284477
H57	H	1.581061	-0.441181	0.285342
H58	H	1.451001	-0.431217	0.367391
H59	H	1.691810	-0.464777	0.099822
H60	H	1.541086	-0.016862	-0.370736
H61	H	1.378396	0.016630	-0.629107
H62	H	0.868751	0.234319	0.147301
C63	C	1.122284	0.128541	0.282429
H64	H	1.184493	0.083710	0.256017
H65	H	1.161292	0.168764	0.339425
H66	H	1.056919	0.107202	0.339205
H67	H	0.885978	0.139176	-0.246385
C68	C	1.295074	-0.278599	-0.152971
H69	H	1.278556	-0.241517	-0.071317
H70	H	1.285950	-0.247591	-0.242879
H71	H	1.236244	-0.319717	-0.151782
C72	C	1.149174	-0.014868	-0.136462
H73	H	1.083251	-0.035933	-0.192720
H74	H	1.192044	0.022293	-0.196050
H75	H	1.208135	-0.060347	-0.104763
H76	H	1.695968	-0.320654	0.101084
C77	C	1.338200	0.015762	-0.358675
H78	H	1.301430	0.060360	-0.297800
H79	H	1.284215	0.009268	-0.441339
H80	H	1.347764	-0.034896	-0.302899
H81	H	1.105493	0.137433	-0.245669
H82	H	1.329193	-0.290917	0.146041
C83	C	1.290332	-0.439474	0.149570
H84	H	1.288354	-0.498719	0.149688
H85	H	1.252295	-0.416449	0.238077
H86	H	1.244386	-0.415910	0.066265
C87	C	1.497256	-0.294582	0.282421
H88	H	1.567624	-0.265092	0.256004
H89	H	1.438190	-0.258870	0.339274
H90	H	1.526598	-0.342739	0.339342
H91	H	1.323210	-0.433456	-0.140555
C92	C	1.261400	0.175583	-0.642078
H93	H	1.268324	0.127380	-0.704280
H94	H	1.208205	0.166514	-0.559836
H95	H	1.225368	0.223049	-0.696660
C96	C	1.148043	-0.015192	0.136597
H97	H	1.237929	-0.013814	0.137408
H98	H	1.112433	0.010564	0.224211
H99	H	1.129008	-0.071901	0.132467
C100	C	1.486290	-0.456657	-0.283846
H101	H	1.554646	-0.498042	-0.260310
H102	H	1.423424	-0.481794	-0.338848
H103	H	1.517554	-0.413458	-0.341350
H104	H	0.889928	0.134294	0.246204
C105	C	1.664279	0.229190	-0.355293
H106	H	1.597287	0.252990	-0.293029
H107	H	1.741532	0.221763	-0.300339
H108	H	1.673999	0.265730	-0.436636
H109	H	1.549190	-0.015014	-0.626319
H110	H	0.914682	-0.006406	0.099828
H111	H	1.411572	0.256397	-0.629347
C112	C	1.501143	-0.296820	-0.282249
H113	H	1.572200	-0.268205	-0.254984
H114	H	1.529826	-0.345714	-0.337565
H115	H	1.444067	-0.260788	-0.341040
H116	H	1.412025	0.257021	-0.373117
H117	H	1.711585	0.096434	-0.626999
