data_functionalizedCrystal
_audit_creation_method	'MofGen! by Chris Wilmer'
_symmetry_space_group_name_H-M	'P1'
_symmetry_Int_Tables_number	1
_symmetry_cell_setting	triclinic
loop_
_symmetry_equiv_pos_as_xyz
  x,y,z
_cell_length_a	18.215407
_cell_length_b	14.908178
_cell_length_c	18.215399
_cell_angle_alpha	86.674032
_cell_angle_beta	89.983115
_cell_angle_gamma	93.311467
loop_
_atom_site_label
_atom_site_type_symbol
_atom_site_fract_x
_atom_site_fract_y
_atom_site_fract_z
Zn1	Zn	1.108194	-0.359253	-0.399149
Zn2	Zn	1.441527	-0.025920	-0.065816
Zn3	Zn	1.774860	0.307414	0.267517
Zn4	Zn	1.101016	-0.510134	-0.268977
Zn5	Zn	1.434349	-0.176801	0.064356
Zn6	Zn	1.767682	0.156533	0.397689
Zn7	Zn	0.985126	-0.359276	-0.276101
Zn8	Zn	1.318459	-0.025942	0.057233
Zn9	Zn	1.651793	0.307391	0.390566
Zn10	Zn	0.978008	-0.510075	-0.392010
Zn11	Zn	1.311341	-0.176741	-0.058677
Zn12	Zn	1.644674	0.156592	0.274656
O13	O	1.043086	-0.434684	-0.334059
O14	O	1.376419	-0.101351	-0.000726
O15	O	1.709752	0.231982	0.332607
O16	O	1.210225	-0.379283	-0.381888
O17	O	1.543558	-0.045950	-0.048555
O18	O	1.876892	0.287384	0.284779
O19	O	1.085618	-0.490157	-0.166936
O20	O	1.418951	-0.156823	0.166397
O21	O	1.752285	0.176510	0.499730
O22	O	1.007434	-0.233018	-0.298392
O23	O	1.340768	0.100315	0.034941
O24	O	1.674101	0.433648	0.368275
O25	O	1.204951	-0.490135	-0.286251
O26	O	1.538285	-0.156801	0.047082
O27	O	1.871618	0.176532	0.380415
O28	O	1.097851	-0.233002	-0.388795
O29	O	1.431185	0.100332	-0.055462
O30	O	1.764518	0.433665	0.277871
O31	O	1.000474	-0.379322	-0.172170
O32	O	1.333808	-0.045988	0.161163
O33	O	1.667141	0.287345	0.494497
O34	O	0.881198	-0.379264	-0.291470
O35	O	1.214532	-0.045931	0.041863
O36	O	1.547865	0.287402	0.375197
O37	O	0.995302	-0.490034	-0.495943
O38	O	1.328635	-0.156700	-0.162610
O39	O	1.661968	0.176633	0.170723
O40	O	0.875968	-0.490056	-0.376628
O41	O	1.209302	-0.156722	-0.043295
O42	O	1.542635	0.176611	0.290038
O43	O	1.090949	-0.379226	-0.501188
O44	O	1.424282	-0.045892	-0.167855
O45	O	1.757616	0.287441	0.165479
O46	O	1.078715	-0.636380	-0.279329
O47	O	1.412049	-0.303047	0.054004
O48	O	1.745382	0.030286	0.387337
O49	O	0.988342	-0.636337	-0.369721
O50	O	1.321675	-0.303004	-0.036388
O51	O	1.655009	0.030330	0.296946
C52	C	0.851881	-0.434657	-0.334048
C53	C	1.185214	-0.101323	-0.000715
C54	C	1.518547	0.232010	0.332619
C55	C	0.770081	-0.434667	-0.334059
C56	C	1.103415	-0.101333	-0.000726
C57	C	1.436748	0.232000	0.332607
C58	C	0.584627	-0.377065	-0.383926
C59	C	0.917960	-0.043732	-0.050593
C60	C	1.251293	0.289602	0.282741
C61	C	0.507768	-0.377073	-0.383928
C62	C	0.841101	-0.043739	-0.050595
C63	C	1.174434	0.289594	0.282738
C64	C	0.502296	-0.492329	-0.284205
C65	C	0.835629	-0.158996	0.049129
C66	C	1.168962	0.174337	0.382462
C67	C	0.579153	-0.492316	-0.284200
C68	C	0.912487	-0.158983	0.049134
C69	C	1.245820	0.174350	0.382467
C70	C	0.620317	-0.434685	-0.334064
C71	C	0.953650	-0.101352	-0.000731
C72	C	1.286984	0.231981	0.332602
C73	C	0.466600	-0.434706	-0.334072
C74	C	0.799933	-0.101373	-0.000738
C75	C	1.133267	0.231961	0.332595
C76	C	0.383266	-0.434715	-0.334073
C77	C	0.716599	-0.101382	-0.000740
C78	C	1.049933	0.231952	0.332593
C79	C	0.703657	-0.434675	-0.334062
C80	C	1.036990	-0.101342	-0.000728
C81	C	1.370323	0.231991	0.332605
C82	C	1.031997	-0.669095	-0.322994
C83	C	1.365331	-0.335762	0.010340
C84	C	1.698664	-0.002428	0.343673
C85	C	1.027321	-0.769377	-0.318284
C86	C	1.360654	-0.436043	0.015049
C87	C	1.693988	-0.102710	0.348382
C88	C	1.112614	-0.957650	-0.403673
C89	C	1.445947	-0.624316	-0.070339
C90	C	1.779280	-0.290983	0.262994
C91	C	1.108222	-1.051873	-0.399250
C92	C	1.441556	-0.718540	-0.065917
C93	C	1.774889	-0.385207	0.267416
C94	C	1.014144	-1.052050	-0.305021
C95	C	1.347477	-0.718716	0.028312
C96	C	1.680810	-0.385383	0.361645
C97	C	1.018535	-0.957826	-0.309444
C98	C	1.351868	-0.624493	0.023890
C99	C	1.685202	-0.291159	0.357223
C100	C	1.067772	-0.910629	-0.358770
C101	C	1.401106	-0.577296	-0.025437
C102	C	1.734439	-0.243963	0.307896
C103	C	1.072167	-0.816404	-0.363188
C104	C	1.405500	-0.483070	-0.029855
C105	C	1.738834	-0.149737	0.303478
C106	C	0.978085	-0.816582	-0.268964
C107	C	1.311419	-0.483248	0.064370
C108	C	1.644752	-0.149915	0.397703
C109	C	0.973694	-0.910805	-0.264541
C110	C	1.307027	-0.577472	0.068792
C111	C	1.640361	-0.244139	0.402125
C112	C	1.235037	-0.434713	-0.334071
C113	C	1.568371	-0.101380	-0.000738
C114	C	1.901704	0.231954	0.332595
C115	C	1.316836	-0.434725	-0.334077
C116	C	1.650169	-0.101392	-0.000743
C117	C	1.983502	0.231942	0.332590
C118	C	1.043132	-0.434620	-0.526015
C119	C	1.376465	-0.101287	-0.192682
C120	C	1.709799	0.232046	0.140651
C121	C	1.043152	-0.434593	-0.607816
C122	C	1.376485	-0.101260	-0.274482
C123	C	1.709818	0.232073	0.058851
C124	C	1.054238	-0.199358	-0.345185
C125	C	1.387571	0.133975	-0.011851
C126	C	1.720904	0.467308	0.321482
C127	C	1.058990	-0.099077	-0.349925
C128	C	1.392323	0.234257	-0.016592
C129	C	1.725656	0.567590	0.316741
C130	C	1.092986	-0.376818	-0.875609
C131	C	1.426319	-0.043484	-0.542276
C132	C	1.759653	0.289849	-0.208943
C133	C	1.092976	-0.376842	-0.798749
C134	C	1.426309	-0.043509	-0.465416
C135	C	1.759643	0.289825	-0.132083
C136	C	0.993383	-0.492238	-0.793277
C137	C	1.326717	-0.158905	-0.459944
C138	C	1.660050	0.174429	-0.126610
C139	C	0.993397	-0.492218	-0.870135
C140	C	1.326731	-0.158884	-0.536802
C141	C	1.660064	0.174449	-0.203469
C142	C	1.043198	-0.434502	-0.911300
C143	C	1.376531	-0.101169	-0.577966
C144	C	1.709864	0.232164	-0.244633
C145	C	1.043174	-0.434547	-0.757581
C146	C	1.376507	-0.101214	-0.424248
C147	C	1.709841	0.232120	-0.090915
C148	C	1.043163	-0.434574	-0.674246
C149	C	1.376496	-0.101241	-0.340913
C150	C	1.709830	0.232093	-0.007580
C151	C	1.043210	-0.434476	-0.994640
C152	C	1.376543	-0.101143	-0.661307
C153	C	1.709877	0.232190	-0.327973
C154	C	1.043085	-0.434683	-0.142853
C155	C	1.376418	-0.101350	0.190480
C156	C	1.709752	0.231984	0.523813
C157	C	1.043220	-0.434456	-0.061065
C158	C	1.376553	-0.101123	0.272268
C159	C	1.709887	0.232211	0.605601
H160	H	0.478712	-0.330151	-0.424530
H161	H	0.812046	0.003183	-0.091196
H162	H	1.145379	0.336516	0.242137
H163	H	0.608213	-0.539239	-0.243592
H164	H	0.941546	-0.205905	0.089741
H165	H	1.274880	0.127428	0.423074
N166	N	1.165712	-0.906741	-0.456876
N167	N	1.499046	-0.573407	-0.123542
N168	N	1.832379	-0.240074	0.209791
H169	H	1.161688	-0.839915	-0.452865
H170	H	1.495022	-0.506582	-0.119531
H171	H	1.828355	-0.173249	0.213802
H172	H	1.217515	-0.923163	-0.444700
H173	H	1.550848	-0.589829	-0.111367
H174	H	1.884181	-0.256496	0.221967
N175	N	0.457898	-0.554483	-0.230422
N176	N	0.791231	-0.221150	0.102911
N177	N	1.124565	0.112183	0.436244
H178	H	0.403792	-0.545750	-0.237991
H179	H	0.737126	-0.212417	0.095343
H180	H	1.070459	0.120917	0.428676
H181	H	0.468295	-0.618935	-0.238746
H182	H	0.801628	-0.285602	0.094588
H183	H	1.134962	0.047732	0.427921
H184	H	0.974054	-1.090493	-0.264865
H185	H	1.307387	-0.757160	0.068468
H186	H	1.640721	-0.423827	0.401801
N187	N	0.629023	-0.314909	-0.437708
N188	N	0.962357	0.018424	-0.104375
N189	N	1.295690	0.351758	0.228959
H190	H	0.683129	-0.323647	-0.430145
H191	H	1.016462	0.009686	-0.096812
H192	H	1.349796	0.343019	0.236522
H193	H	0.614935	-0.329044	-0.489579
H194	H	0.948268	0.004289	-0.156246
H195	H	1.281601	0.337623	0.177087
H196	H	0.952837	-0.539227	-0.759752
H197	H	1.286170	-0.205893	-0.426418
H198	H	1.619503	0.127440	-0.093085
H199	H	0.933605	-0.949246	-0.224383
H200	H	1.266938	-0.615913	0.108950
H201	H	1.600271	-0.282579	0.442284
N202	N	0.939686	-0.554429	-0.908634
N203	N	1.273019	-0.221095	-0.575301
N204	N	1.606352	0.112238	-0.241968
H205	H	0.947253	-0.545657	-0.963570
H206	H	1.280586	-0.212324	-0.630236
H207	H	1.613920	0.121009	-0.296903
H208	H	0.948083	-0.618871	-0.892155
H209	H	1.281416	-0.285537	-0.558822
H210	H	1.614750	0.047796	-0.225489
N211	N	1.125267	-0.765489	-0.416387
N212	N	1.458600	-0.432155	-0.083054
N213	N	1.791933	-0.098822	0.250280
H214	H	1.177095	-0.781842	-0.404244
H215	H	1.510428	-0.448509	-0.070910
H216	H	1.843762	-0.115175	0.262423
H217	H	1.112973	-0.781873	-0.468169
H218	H	1.446306	-0.448539	-0.134835
H219	H	1.779640	-0.115206	0.198498
H220	H	1.133536	-0.329821	-0.909123
H221	H	1.466870	0.003512	-0.575790
H222	H	1.800203	0.336845	-0.242457
H223	H	1.144733	-1.090154	-0.435818
H224	H	1.478066	-0.756820	-0.102485
H225	H	1.811400	-0.423487	0.230849
H226	H	0.941575	-0.778287	-0.232399
H227	H	1.274908	-0.444954	0.100934
H228	H	1.608241	-0.111620	0.434268
N229	N	1.146679	-0.314629	-0.760253
N230	N	1.480012	0.018705	-0.426920
N231	N	1.813345	0.352038	-0.093587
H232	H	1.178227	-0.278067	-0.797996
H233	H	1.511561	0.055266	-0.464662
H234	H	1.844894	0.388600	-0.131329
H235	H	1.118694	-0.272884	-0.730333
H236	H	1.452028	0.060449	-0.397000
H237	H	1.785361	0.393783	-0.063667
