data_functionalizedCrystal
_audit_creation_method	'MofGen! by Chris Wilmer'
_symmetry_space_group_name_H-M	'P1'
_symmetry_Int_Tables_number	1
_symmetry_cell_setting	triclinic
loop_
_symmetry_equiv_pos_as_xyz
  x,y,z
_cell_length_a	15.021413
_cell_length_b	15.995350
_cell_length_c	15.995350
_cell_angle_alpha	83.492375
_cell_angle_beta	90.006248
_cell_angle_gamma	89.996331
loop_
_atom_site_label
_atom_site_type_symbol
_atom_site_fract_x
_atom_site_fract_y
_atom_site_fract_z
O1	O	0.073952	-1.110990	-0.107915
O2	O	0.073970	-0.867215	-0.121243
O3	O	0.073960	-0.995766	0.007308
O4	O	0.073962	-0.982439	-0.236467
O5	O	-0.074104	-0.995746	0.007290
O6	O	-0.074094	-0.867194	-0.121261
O7	O	-0.074112	-1.110970	-0.107934
Zn8	Zn	-0.097612	-0.989079	-0.114600
Zn9	Zn	0.097469	-0.989106	-0.114576
O10	O	-0.074102	-0.982418	-0.236485
C11	C	-0.000060	-0.836010	-0.120701
C12	C	-0.000053	-0.743060	-0.119049
C13	C	-0.000071	-0.995205	0.038494
C14	C	-0.000065	-0.993553	0.131444
N15	N	-0.230749	-0.989067	-0.114616
C16	C	-0.470428	-0.929615	-0.174031
C17	C	-0.529768	-1.005274	-0.190282
C18	C	-0.412356	-0.989088	-0.114596
C19	C	-0.529758	-0.913450	-0.098363
C20	C	-0.587780	-0.989102	-0.114577
C21	C	-0.470390	-1.064785	-0.130884
C22	C	-0.470375	-0.972911	-0.038933
C23	C	-0.529688	-1.048624	-0.055152
C24	C	-0.311299	-0.989079	-0.114608
C25	C	-0.688835	-0.989120	-0.114564
N26	N	0.230607	-0.989125	-0.114554
C27	C	-0.000080	-1.142175	-0.108476
C28	C	-0.000081	-1.235125	-0.110127
C29	C	-0.000072	-0.405312	-0.113117
C30	C	-0.000403	-0.452746	-0.021565
C31	C	-0.000063	-0.549436	-0.023217
C32	C	-0.000063	-0.572873	-0.116060
C33	C	0.084486	-0.531797	-0.161206
C34	C	0.084551	-0.435161	-0.158906
C35	C	-0.083826	-0.434799	-0.160818
C36	C	-0.084937	-0.531745	-0.160797
C37	C	-0.000055	-0.667570	-0.117727
C38	C	-0.000073	-0.310614	-0.111452
C39	C	-0.000070	-0.982980	-0.267671
C40	C	-0.000069	-0.984631	-0.360621
C41	C	-0.000068	-0.987621	0.469192
C42	C	0.000271	-0.896069	0.421758
C43	C	-0.000063	-0.897721	0.325068
C44	C	-0.000066	-0.990564	0.301631
C45	C	-0.084620	-1.035709	0.342698
C46	C	-0.084691	-1.033409	0.439334
C47	C	0.083686	-1.035323	0.439713
C48	C	0.084803	-1.035302	0.342768
C49	C	-0.000068	-0.992231	0.206934
C50	C	-0.000072	-0.985956	0.563890
H51	H	-0.444408	-0.879372	-0.224334
H52	H	-0.088529	-1.100624	0.471582
C53	C	-0.435094	-0.954377	0.047465
H54	H	-0.455384	-0.900579	0.058907
H55	H	-0.456265	-0.996079	0.089803
H56	H	-0.371857	-0.955018	0.046977
C57	C	-0.564978	-0.827031	-0.079815
H58	H	-0.544674	-0.784840	-0.122102
H59	H	-0.628210	-0.827801	-0.079428
H60	H	-0.543756	-0.815131	-0.026477
C61	C	-0.565024	-1.023771	-0.276705
H62	H	-0.544742	-0.981459	-0.318881
H63	H	-0.543828	-1.077100	-0.288644
H64	H	-0.628261	-1.024145	-0.275911
C65	C	-0.170063	-0.988904	0.464051
H66	H	-0.204373	-0.972394	0.415054
H67	H	-0.203871	-1.026306	0.502017
H68	H	-0.154609	-0.940540	0.490315
H69	H	-0.060671	-0.577857	0.012271
H70	H	-0.147540	-1.004336	0.314309
C71	C	-0.435320	-1.151225	-0.149527
H72	H	-0.484140	-1.187313	-0.157272
H73	H	-0.400129	-1.144514	-0.199173
H74	H	-0.400066	-1.175183	-0.103624
C75	C	0.091699	-1.126767	0.322024
H76	H	0.042686	-1.138924	0.287856
H77	H	0.145663	-1.133867	0.292686
H78	H	0.090979	-1.163946	0.372740
C79	C	-0.088881	-1.127849	0.323613
H80	H	-0.039014	-1.139631	0.290346
H81	H	-0.088100	-1.164155	0.374900
H82	H	-0.142157	-1.136600	0.293799
C83	C	0.169308	-0.990779	0.305898
H84	H	0.152946	-0.945119	0.265598
H85	H	0.202509	-0.970217	0.349802
H86	H	0.204597	-1.029535	0.279526
H87	H	0.059895	-0.433161	0.014869
H88	H	-0.061036	-0.434216	0.015023
C89	C	0.170262	-0.994898	0.467463
H90	H	0.156136	-0.948544	0.497289
H91	H	0.203276	-1.035299	0.502942
H92	H	0.204777	-0.975888	0.419269
C93	C	0.081807	-0.849770	0.286676
H94	H	0.115569	-0.829099	0.330168
H95	H	0.117582	-0.886668	0.258389
H96	H	0.062774	-0.803940	0.247795
C97	C	0.084460	-1.126509	0.482617
H98	H	0.135216	-1.155015	0.464552
H99	H	0.086632	-1.126193	0.541934
H100	H	0.032007	-1.154578	0.467822
C101	C	-0.564628	-1.116644	0.012759
H102	H	-0.544190	-1.170323	0.001094
H103	H	-0.543393	-1.105605	0.066364
H104	H	-0.627867	-1.115980	0.012702
H105	H	-0.084398	-0.403038	-0.228319
H106	H	0.060650	-0.577303	0.012526
H107	H	0.147753	-0.416862	-0.125968
C108	C	0.089758	-0.391593	-0.249702
H109	H	0.091830	-0.432977	-0.287828
H110	H	0.038777	-0.357070	-0.261266
H111	H	0.141901	-0.357865	-0.256027
C112	C	-0.082075	-0.849440	0.287405
H113	H	-0.082554	-0.850277	0.228113
H114	H	-0.134672	-0.875395	0.310879
H115	H	-0.079584	-0.792847	0.299976
H116	H	0.087630	-0.545923	-0.229414
H117	H	0.147409	-0.560180	-0.129834
H118	H	-0.147912	-0.414255	-0.130896
H119	H	-0.060022	-0.859631	0.441344
C120	C	-0.169438	-0.568627	-0.116276
H121	H	-0.153071	-0.608926	-0.070617
H122	H	-0.202644	-0.524729	-0.095713
H123	H	-0.204723	-0.595002	-0.155035
C124	C	-0.091840	-0.552496	-0.252260
H125	H	-0.042827	-0.586660	-0.264416
H126	H	-0.145804	-0.581840	-0.259352
H127	H	-0.091127	-0.501782	-0.289443
H128	H	0.060906	-0.859485	0.440297
