data_functionalizedCrystal
_audit_creation_method	'MofGen! by Chris Wilmer'
_symmetry_space_group_name_H-M	'P1'
_symmetry_Int_Tables_number	1
_symmetry_cell_setting	triclinic
loop_
_symmetry_equiv_pos_as_xyz
  x,y,z
_cell_length_a	14.853567
_cell_length_b	15.944551
_cell_length_c	13.930277
_cell_angle_alpha	89.994493
_cell_angle_beta	89.995755
_cell_angle_gamma	83.566834
loop_
_atom_site_label
_atom_site_type_symbol
_atom_site_fract_x
_atom_site_fract_y
_atom_site_fract_z
O1	O	1.196228	0.109664	-0.079767
O2	O	0.933751	0.122728	-0.079783
O3	O	1.072157	-0.006071	-0.079766
O4	O	1.057822	0.238463	-0.079784
O5	O	1.072138	-0.006073	0.079896
O6	O	0.933732	0.122725	0.079878
O7	O	1.196208	0.109662	0.079895
Zn8	Zn	1.064967	0.116193	0.105236
Zn9	Zn	1.064993	0.116197	-0.105125
O10	O	1.057803	0.238460	0.079878
C11	C	0.900154	0.122135	0.000045
C12	C	0.800072	0.120361	0.000039
C13	C	0.387646	0.036354	0.000067
C14	C	0.366169	0.189369	0.000055
C15	C	0.460201	0.191037	0.000051
C16	C	0.517960	0.115362	0.000055
C17	C	0.481687	0.038019	0.000061
C18	C	0.496480	0.268379	0.000035
C19	C	0.590517	0.270050	0.000031
C20	C	0.648278	0.194374	0.000041
C21	C	0.612000	0.117028	0.000049
C22	C	0.669759	0.041353	0.000052
C23	C	0.633483	-0.035994	0.000066
C24	C	0.539448	-0.037657	0.000071
C25	C	0.742313	0.196036	0.000036
C26	C	0.763800	0.043018	0.000046
C27	C	1.071552	-0.037367	0.000065
C28	C	1.069768	-0.130615	0.000065
C29	C	0.979713	-0.345572	0.000047
C30	C	1.021522	-0.406544	0.078772
C31	C	1.066541	-0.301344	0.000058
C32	C	1.021562	-0.406524	-0.078642
C33	C	1.063416	-0.466260	0.000046
C34	C	1.108373	-0.361088	0.078848
C35	C	1.108401	-0.361062	-0.078636
C36	C	1.150273	-0.422017	0.000109
C37	C	1.068338	-0.206340	0.000065
C38	C	1.061626	-0.561263	0.000046
C39	C	1.229806	0.110255	0.000064
C40	C	1.329887	0.112029	0.000064
C41	C	1.058407	0.269756	0.000044
C42	C	1.060191	0.363004	0.000038
N43	N	1.064957	0.116190	0.248803
N44	N	1.065010	0.116193	-0.248691
C45	C	1.003704	0.173206	0.701064
C46	C	1.126306	0.059181	0.701049
C47	C	1.126295	0.059178	0.600553
C48	C	1.064989	0.116191	0.550308
C49	C	1.003693	0.173207	0.600559
C50	C	1.187596	0.002169	0.550295
C51	C	1.187588	0.002164	0.449793
C52	C	1.126277	0.059174	0.399546
C53	C	1.064978	0.116192	0.449803
C54	C	1.003672	0.173205	0.399558
C55	C	0.942368	0.230220	0.449814
C56	C	0.942382	0.230217	0.550312
C57	C	1.126263	0.059177	0.299047
C58	C	1.003661	0.173206	0.299053
H59	H	0.771845	0.259011	0.000026
C60	C	0.630031	0.353958	0.000160
C61	C	0.683408	0.359380	0.082283
C62	C	0.719837	0.436657	0.082425
H63	H	0.582262	0.398866	0.000203
H64	H	0.666320	0.357787	-0.055494
H65	H	0.647122	0.355559	0.137922
H66	H	0.731192	0.314490	0.082258
H67	H	0.756126	0.440485	0.026771
H68	H	0.672062	0.481558	0.082465
H69	H	0.756064	0.440342	0.138140
H70	H	0.810822	-0.018607	0.000052
H71	H	1.145102	-0.340890	-0.145191
H72	H	0.892471	0.276637	0.591236
C73	C	0.696048	-0.118245	0.000016
C74	C	0.644161	-0.186340	0.000006
C75	C	0.701767	-0.262119	-0.000055
H76	H	0.733203	-0.120893	0.055672
H77	H	0.733159	-0.120816	-0.055691
H78	H	0.607065	-0.183771	0.055707
H79	H	0.607008	-0.183720	-0.055645
H80	H	0.738879	-0.264690	-0.055761
H81	H	0.738920	-0.264759	0.055602
H82	H	0.666570	-0.308331	-0.000070
H83	H	0.953789	0.219625	0.741984
H84	H	0.358106	-0.026620	0.000082
H85	H	0.984834	-0.426641	-0.145203
C86	C	0.937058	0.235203	0.244679
C87	C	0.883393	0.285142	0.310203
C88	C	0.822037	0.342270	0.260149
H89	H	0.899443	0.205022	0.205477
H90	H	0.969460	0.270274	0.205488
H91	H	0.850993	0.250075	0.349377
H92	H	0.920983	0.315342	0.349406
H93	H	0.854440	0.377341	0.220958
H94	H	0.784429	0.312082	0.220949
H95	H	0.785625	0.376165	0.304599
C96	C	1.254291	-0.059645	0.604784
C97	C	1.342881	-0.045868	0.580348
C98	C	1.404342	-0.102797	0.630535
H99	H	1.244610	-0.115753	0.588350
H100	H	1.245578	-0.051488	0.671846
H101	H	1.351590	-0.054032	0.513302
H102	H	1.352590	0.010228	0.596785
H103	H	1.395629	-0.094640	0.697597
H104	H	1.394653	-0.158901	0.614096
H105	H	1.464457	-0.093452	0.613969
C106	C	1.193004	-0.002629	0.755540
C107	C	1.281592	0.011146	0.731092
C108	C	1.343058	-0.045777	0.781280
H109	H	1.183323	-0.058739	0.739114
H110	H	1.184297	0.005535	0.822601
H111	H	1.290296	0.002975	0.664046
H112	H	1.291302	0.067245	0.747520
H113	H	1.334350	-0.037613	0.848342
H114	H	1.333368	-0.101883	0.764851
H115	H	1.403171	-0.036433	0.764707
H116	H	0.984790	-0.426694	0.145324
H117	H	0.892456	0.276644	0.408893
C118	C	1.253892	-0.059964	0.395231
C119	C	1.205706	-0.111436	0.337680
C120	C	1.266707	-0.168756	0.287447
H121	H	1.290326	-0.093989	0.439536
H122	H	1.291516	-0.029903	0.355872
H123	H	1.168098	-0.141495	0.377036
H124	H	1.169276	-0.077435	0.293357
H125	H	1.304331	-0.138694	0.248088
H126	H	1.303137	-0.202774	0.331759
H127	H	1.234022	-0.203680	0.248387
H128	H	0.319136	0.250981	0.000044
C129	C	1.192681	-0.002737	0.244349
C130	C	1.144675	-0.054231	0.186635
C131	C	1.205838	-0.111262	0.136219
H132	H	1.229235	-0.036771	0.288545
H133	H	1.230174	0.027547	0.205084
H134	H	1.107199	-0.084512	0.225896
H135	H	1.108125	-0.020220	0.142422
H136	H	1.243330	-0.080979	0.096954
H137	H	1.242388	-0.145291	0.180422
H138	H	1.173275	-0.146203	0.097048
C139	C	1.157458	-0.334456	0.167614
C140	C	1.246452	-0.374144	0.167705
C141	C	1.291695	-0.349620	0.249453
H142	H	1.126927	-0.350381	0.223517
H143	H	1.158325	-0.274969	0.167092
H144	H	1.245580	-0.433618	0.168236
H145	H	1.277008	-0.358224	0.111821
H146	H	1.292562	-0.290133	0.248931
H147	H	1.261156	-0.365546	0.305350
H148	H	1.352084	-0.376538	0.249521
C149	C	0.499886	-0.121542	0.000030
C150	C	0.405173	-0.106801	0.000004
C151	C	0.368694	-0.184054	-0.000049
H152	H	0.519605	-0.152773	0.055694
H153	H	0.519662	-0.152711	-0.055668
H154	H	0.385406	-0.075645	0.055697
H155	H	0.385429	-0.075583	-0.055655
H156	H	0.388469	-0.215223	-0.055748
H157	H	0.388420	-0.215279	0.055616
H158	H	0.304428	-0.174063	-0.000075
H159	H	0.449447	0.329989	0.000023
H160	H	1.222407	-0.455095	0.000158
C161	C	0.883686	-0.301106	0.000084
C162	C	0.886590	-0.213642	-0.000786
C163	C	0.798150	-0.172653	-0.000763
H164	H	0.852883	-0.316463	0.056058
H165	H	0.852530	-0.317267	-0.055300
H166	H	0.917733	-0.197487	0.054592
H167	H	0.917376	-0.198260	-0.056756
H168	H	0.766994	-0.188814	-0.056147
H169	H	0.767355	-0.188017	0.055212
H170	H	0.800109	-0.113305	-0.001362
