data_functionalizedCrystal
_audit_creation_method	'MofGen! by Chris Wilmer'
_symmetry_space_group_name_H-M	'P1'
_symmetry_Int_Tables_number	1
_symmetry_cell_setting	triclinic
loop_
_symmetry_equiv_pos_as_xyz
  x,y,z
_cell_length_a	10.686220
_cell_length_b	12.759387
_cell_length_c	10.685194
_cell_angle_alpha	85.597303
_cell_angle_beta	99.069756
_cell_angle_gamma	94.348402
loop_
_atom_site_label
_atom_site_type_symbol
_atom_site_fract_x
_atom_site_fract_y
_atom_site_fract_z
Zn1	Zn	1.901867	-0.449981	-0.356249
Zn2	Zn	1.885486	-0.261787	-0.568575
Zn3	Zn	1.689596	-0.286808	-0.372618
Zn4	Zn	1.673350	-0.449918	-0.584776
O5	O	1.787574	-0.362124	-0.470554
O6	O	2.077310	-0.414572	-0.370784
O7	O	1.859444	-0.118084	-0.542652
O8	O	1.731409	-0.318952	-0.192799
O9	O	2.065274	-0.276306	-0.526779
O10	O	1.887363	-0.438834	-0.180773
O11	O	1.715524	-0.136467	-0.398683
O12	O	1.509825	-0.318890	-0.414392
O13	O	1.703719	-0.596949	-0.554390
O14	O	1.497889	-0.438726	-0.570263
O15	O	1.871610	-0.596995	-0.386493
O16	O	1.843691	-0.276245	-0.748372
O17	O	1.687835	-0.414464	-0.760274
C18	C	1.457803	-0.381517	-0.495863
C19	C	1.316723	-0.389837	-0.506720
C20	C	1.787680	-0.636159	-0.470423
C21	C	1.787725	-0.752936	-0.470367
C22	C	1.962559	-0.753003	-0.295545
C23	C	2.049996	-0.807898	-0.208113
C24	C	2.050030	-0.917620	-0.208065
C25	C	1.962616	-0.972451	-0.295454
C26	C	1.875180	-0.917557	-0.382886
C27	C	1.875157	-0.807832	-0.382927
C28	C	1.700341	-0.917491	-0.557699
C29	C	1.700311	-0.807768	-0.557756
C30	C	1.612927	-0.972322	-0.645089
C31	C	1.525495	-0.917427	-0.732528
C32	C	1.525465	-0.807698	-0.732574
C33	C	1.612874	-0.752873	-0.645187
C34	C	2.118633	-0.342655	-0.445148
C35	C	2.259711	-0.334358	-0.434322
C36	C	1.762257	-0.342653	-0.800382
C37	C	1.751542	-0.334352	-0.941475
C38	C	1.787550	-0.089156	-0.470589
C39	C	1.787778	0.027615	-0.470268
C40	C	1.813025	-0.381691	-0.139436
C41	C	1.823871	-0.390029	0.001667
H42	H	1.318831	-0.280495	-0.364033
O43	O	1.667796	-0.270044	-1.012315
C44	C	1.579996	-0.330172	-1.095286
H45	H	1.623237	-0.406050	-1.111480
H46	H	1.489759	-0.350148	-1.051554
C47	C	1.494463	-0.173173	-1.203231
C48	C	1.547577	-0.266364	-1.223129
H49	H	1.474460	-0.133813	-1.282089
H50	H	1.553612	-0.132663	-1.147329
H51	H	1.419272	-0.189834	-1.166784
H52	H	1.622775	-0.249703	-1.259560
H53	H	1.488440	-0.306870	-1.279041
O54	O	1.246010	-0.454083	-0.590483
C55	C	1.116163	-0.448352	-0.583066
H56	H	1.105670	-0.420911	-0.486421
H57	H	1.072749	-0.390056	-0.661153
C58	C	1.060032	-0.591616	-0.718737
C59	C	1.047145	-0.557920	-0.600030
H60	H	1.017456	-0.659201	-0.729206
H61	H	1.147512	-0.595475	-0.723738
H62	H	1.023855	-0.543026	-0.783795
H63	H	1.083336	-0.606503	-0.534974
H64	H	0.959669	-0.554073	-0.595018
H65	H	1.454323	-0.962080	-0.803667
H66	H	2.121164	-0.763242	-0.136961
H67	H	1.962551	-0.663660	-0.295587
H68	H	2.121221	-0.962316	-0.136863
O69	O	1.962850	-1.079032	-0.295264
C70	C	2.058737	-1.115729	-0.199328
H71	H	2.134249	-1.049196	-0.175894
H72	H	2.015534	-1.143618	-0.110611
C73	C	2.027091	-1.289732	-0.274812
C74	C	2.119842	-1.208017	-0.246038
H75	H	2.064781	-1.346663	-0.303621
H76	H	1.962487	-1.265010	-0.339444
H77	H	1.991096	-1.312960	-0.200875
H78	H	2.155824	-1.184781	-0.319979
H79	H	2.184455	-1.232737	-0.181420
O80	O	1.612947	-1.078892	-0.645277
C81	C	1.636217	-1.106434	-0.764425
H82	H	1.608882	-1.040152	-0.839233
H83	H	1.741329	-1.119554	-0.759041
C84	C	1.590144	-1.289744	-0.708916
C85	C	1.556560	-1.208338	-0.800798
H86	H	1.541014	-1.352605	-0.731352
H87	H	1.574471	-1.271189	-0.628642
H88	H	1.677739	-1.300663	-0.704438
H89	H	1.468972	-1.197411	-0.805264
H90	H	1.572217	-1.226894	-0.881075
H91	H	1.893994	-0.444053	-0.939072
H92	H	1.454251	-0.763011	-0.803759
H93	H	1.612863	-0.663531	-0.645221
