data_functionalizedCrystal
_audit_creation_method	'MofGen! by Chris Wilmer'
_symmetry_space_group_name_H-M	'P1'
_symmetry_Int_Tables_number	1
_symmetry_cell_setting	triclinic
loop_
_symmetry_equiv_pos_as_xyz
  x,y,z
_cell_length_a	25.639239
_cell_length_b	16.625548
_cell_length_c	16.625539
_cell_angle_alpha	89.979432
_cell_angle_beta	90.031255
_cell_angle_gamma	89.960246
loop_
_atom_site_label
_atom_site_type_symbol
_atom_site_fract_x
_atom_site_fract_y
_atom_site_fract_z
Zn1	Zn	-0.208135	-1.232590	0.455893
Zn2	Zn	0.291865	-0.732590	0.955893
Zn3	Zn	-0.295573	-1.232455	0.321053
Zn4	Zn	0.204427	-0.732455	0.821053
Zn5	Zn	-0.208155	-1.097751	0.321073
Zn6	Zn	0.291845	-0.597751	0.821073
Zn7	Zn	-0.295543	-1.097684	0.455843
Zn8	Zn	0.204457	-0.597684	0.955843
O9	O	-0.251851	-1.165120	0.388466
O10	O	0.248149	-0.665120	0.888466
O11	O	-0.219738	-1.345404	0.438018
O12	O	0.280262	-0.845404	0.938018
O13	O	-0.283998	-1.214558	0.208223
O14	O	0.216002	-0.714558	0.708223
O15	O	-0.134987	-1.115723	0.338987
O16	O	0.365013	-0.615723	0.838987
O17	O	-0.283978	-1.345305	0.338952
O18	O	0.216022	-0.845305	0.838952
O19	O	-0.134972	-1.214788	0.438038
O20	O	0.365028	-0.714788	0.938038
O21	O	-0.219772	-1.115592	0.208238
O22	O	0.280228	-0.615592	0.708238
O23	O	-0.219743	-0.984910	0.338938
O24	O	0.280257	-0.484910	0.838938
O25	O	-0.283927	-1.115607	0.568682
O26	O	0.216073	-0.615607	1.068682
O27	O	-0.283946	-0.984860	0.437953
O28	O	0.216054	-0.484860	0.937953
O29	O	-0.219709	-1.214722	0.568719
O30	O	0.280291	-0.714722	1.068719
O31	O	-0.368734	-1.214492	0.338904
O32	O	0.131266	-0.714492	0.838904
O33	O	-0.368712	-1.115477	0.437933
O34	O	0.131288	-0.615477	0.937933
C35	C	-0.251844	-0.955629	0.388443
C36	C	0.248156	-0.455629	0.888443
C37	C	-0.251853	-0.866008	0.388452
C38	C	0.248147	-0.366008	0.888452
C39	C	-0.387694	-1.164984	0.388429
C40	C	0.112306	-0.664984	0.888429
C41	C	-0.445808	-1.165000	0.388440
C42	C	0.054192	-0.665000	0.888440
C43	C	-0.251812	-1.165172	0.598775
C44	C	0.248188	-0.665172	1.098775
C45	C	-0.251796	-1.165195	0.688396
C46	C	0.248204	-0.665195	1.188396
C47	C	-0.806170	-1.216812	0.336989
C48	C	-0.306170	-0.716812	0.836989
C49	C	-0.860774	-1.216843	0.337000
C50	C	-0.360774	-0.716843	0.837000
O51	O	-0.889010	-1.260755	0.293213
O52	O	-0.389010	-0.760755	0.793213
N53	N	-0.888090	-1.165262	0.388519
N54	N	-0.388090	-0.665262	0.888519
C55	C	-0.860799	-1.113651	0.440037
C56	C	-0.360799	-0.613651	0.940037
O57	O	-0.889048	-1.069780	0.483860
O58	O	-0.389048	-0.569780	0.983860
C59	C	-0.806196	-1.113625	0.440029
C60	C	-0.306196	-0.613625	0.940029
C61	C	-0.778883	-1.165204	0.388501
C62	C	-0.278883	-0.665204	0.888501
C63	C	-0.778857	-1.268387	0.285465
C64	C	-0.278857	-0.768387	0.785465
C65	C	-0.724256	-1.268355	0.285453
C66	C	-0.224256	-0.768355	0.785453
C67	C	-0.696969	-1.216747	0.336965
C68	C	-0.196969	-0.716747	0.836965
C69	C	-0.724282	-1.165171	0.388489
C70	C	-0.224282	-0.665171	0.888489
C71	C	-0.778906	-1.062019	0.491551
C72	C	-0.278906	-0.562019	0.991551
C73	C	-0.724299	-1.061997	0.491539
C74	C	-0.224299	-0.561997	0.991539
C75	C	-0.696986	-1.113576	0.440011
C76	C	-0.196986	-0.613576	0.940011
C77	C	-0.642395	-1.113531	0.439990
C78	C	-0.142395	-0.613531	0.939990
N79	N	-0.615078	-1.165112	0.388470
N80	N	-0.115078	-0.665112	0.888470
C81	C	-0.642366	-1.216720	0.336958
C82	C	-0.142366	-0.716720	0.836958
C83	C	-0.975470	-1.113712	0.440049
C84	C	-0.475470	-0.613712	0.940049
C85	C	-1.030072	-1.113734	0.440053
C86	C	-0.530072	-0.613734	0.940053
C87	C	-1.030043	-1.216927	0.337017
C88	C	-0.530043	-0.716927	0.837017
C89	C	-0.975440	-1.216900	0.337009
C90	C	-0.475440	-0.716900	0.837009
C91	C	-0.948154	-1.165293	0.388530
C92	C	-0.448154	-0.665293	0.888530
C93	C	-0.527700	-1.216648	0.336937
C94	C	-0.027700	-0.716648	0.836937
C95	C	-0.473095	-1.216608	0.336928
C96	C	0.026905	-0.716608	0.836928
C97	C	-0.473129	-1.113418	0.439967
C98	C	0.026871	-0.613418	0.939967
C99	C	-0.527729	-1.113454	0.439973
C100	C	-0.027729	-0.613454	0.939973
C101	C	-0.555014	-1.165076	0.388456
C102	C	-0.055014	-0.665076	0.888456
O103	O	-0.614124	-1.069644	0.483756
O104	O	-0.114124	-0.569644	0.983756
O105	O	-0.614110	-1.260591	0.293150
O106	O	-0.114110	-0.760591	0.793150
C107	C	-0.115478	-1.165278	0.388520
C108	C	0.384522	-0.665278	0.888520
C109	C	-0.057364	-1.165345	0.388544
C110	C	0.442636	-0.665345	0.888544
C111	C	-0.251859	-1.375429	0.388489
C112	C	0.248141	-0.875429	0.888489
C113	C	-0.251863	-1.465050	0.388498
C114	C	0.248137	-0.965050	0.888498
C115	C	-0.251857	-0.537832	0.388487
C116	C	0.248143	-0.037832	0.888487
C117	C	-0.251854	-0.629141	0.388475
C118	C	0.248146	-0.129141	0.888475
C119	C	-0.251855	-0.701917	0.388469
C120	C	0.248145	-0.201917	0.888469
C121	C	-0.251852	-0.793231	0.388458
C122	C	0.248148	-0.293231	0.888458
C123	C	-0.251852	-1.165114	0.178975
C124	C	0.248148	-0.665114	0.678975
C125	C	-0.251722	-1.165248	0.089354
C126	C	0.248278	-0.665248	0.589354
C127	C	-0.251737	-1.165232	1.016572
C128	C	0.248263	-0.665232	1.516572
C129	C	-0.251755	-1.165219	0.925263
C130	C	0.248245	-0.665219	1.425263
C131	C	-0.251767	-1.165214	0.852487
C132	C	0.248233	-0.665214	1.352487
C133	C	-0.251784	-1.165200	0.761172
C134	C	0.248216	-0.665200	1.261172
H135	H	-0.450858	-1.258610	0.294964
H136	H	0.049142	-0.758610	0.794964
H137	H	-0.702021	-1.310357	0.243497
H138	H	-0.202021	-0.810357	0.743497
C139	C	-1.091333	-1.325488	0.326021
C140	C	-0.591333	-0.825488	0.826021
C141	C	-1.060021	-1.273727	0.280433
C142	C	-0.560021	-0.773727	0.780433
H143	H	-1.109832	-1.360572	0.291099
H144	H	-0.609832	-0.860572	0.791099
H145	H	-1.115428	-1.294770	0.356668
H146	H	-0.615428	-0.794770	0.856668
H147	H	-1.069974	-1.356234	0.361203
H148	H	-0.569974	-0.856234	0.861203
H149	H	-1.081381	-1.242977	0.245254
H150	H	-0.581381	-0.742977	0.745254
H151	H	-1.035924	-1.304448	0.249771
H152	H	-0.535924	-0.804448	0.749771
H153	H	-0.549969	-1.071457	0.481935
H154	H	-0.049969	-0.571457	0.981935
H155	H	-1.052306	-1.071725	0.482005
H156	H	-0.552306	-0.571725	0.982005
H157	H	-0.801135	-1.020014	0.533507
H158	H	-0.301135	-0.520014	1.033507
C159	C	-0.589013	-1.325182	0.325846
C160	C	-0.089013	-0.825182	0.825846
C161	C	-0.557680	-1.273402	0.280314
C162	C	-0.057680	-0.773402	0.780314
H163	H	-0.607516	-1.360223	0.290888
H164	H	-0.107516	-0.860223	0.790888
H165	H	-0.613103	-1.294475	0.356514
H166	H	-0.113103	-0.794475	0.856514
H167	H	-0.567666	-1.355973	0.361008
H168	H	-0.067666	-0.855973	0.861008
H169	H	-0.579027	-1.242606	0.245156
H170	H	-0.079027	-0.742606	0.745156
H171	H	-0.533588	-1.304112	0.249633
H172	H	-0.033588	-0.804112	0.749633
H173	H	-0.801068	-1.310417	0.243517
H174	H	-0.301068	-0.810417	0.743517
C175	C	-0.913971	-1.325340	0.325891
C176	C	-0.413971	-0.825340	0.825891
C177	C	-0.945419	-1.273601	0.280373
C178	C	-0.445419	-0.773601	0.780373
H179	H	-0.895437	-1.360343	0.290923
H180	H	-0.395437	-0.860343	0.790923
H181	H	-0.935239	-1.356169	0.361046
H182	H	-0.435239	-0.856169	0.861046
H183	H	-0.889903	-1.294597	0.356564
H184	H	-0.389903	-0.794597	0.856564
H185	H	-0.969490	-1.304344	0.249704
H186	H	-0.469490	-0.804344	0.749704
H187	H	-0.924149	-1.242770	0.245204
H188	H	-0.424149	-0.742770	0.745204
H189	H	-0.450903	-1.071397	0.481905
H190	H	0.049097	-0.571397	0.981905
C191	C	-0.980992	-1.011704	0.541890
C192	C	-0.480992	-0.511704	1.041890
C193	C	-0.945480	-1.056970	0.496676
C194	C	-0.445480	-0.556970	0.996676
H195	H	-0.962478	-0.976672	0.576845
H196	H	-0.462478	-0.476672	1.076845
H197	H	-1.002251	-1.046830	0.572765
H198	H	-0.502251	-0.546830	1.072765
H199	H	-1.002326	-0.980900	0.506720
H200	H	-0.502326	-0.480900	1.006720
H201	H	-0.924148	-1.087779	0.531845
H202	H	-0.424148	-0.587779	1.031845
H203	H	-0.924212	-1.021840	0.465798
H204	H	-0.424212	-0.521840	0.965798
C205	C	-0.729817	-0.960007	0.593399
C206	C	-0.229817	-0.460007	1.093399
C207	C	-0.694307	-1.005268	0.548175
C208	C	-0.194307	-0.505268	1.048175
H209	H	-0.711301	-0.924983	0.628358
H210	H	-0.211301	-0.424983	1.128358
H211	H	-0.751076	-0.995137	0.624270
H212	H	-0.251076	-0.495137	1.124270
H213	H	-0.751151	-0.929196	0.558237
H214	H	-0.251151	-0.429196	1.058237
H215	H	-0.672976	-1.036084	0.583337
H216	H	-0.172976	-0.536084	1.083337
H217	H	-0.673039	-0.970134	0.517301
H218	H	-0.173039	-0.470134	1.017301
