data_functionalizedCrystal
_audit_creation_method	'MofGen! by Chris Wilmer'
_symmetry_space_group_name_H-M	'P1'
_symmetry_Int_Tables_number	1
_symmetry_cell_setting	triclinic
loop_
_symmetry_equiv_pos_as_xyz
  x,y,z
_cell_length_a	10.686220
_cell_length_b	21.295417
_cell_length_c	10.685986
_cell_angle_alpha	85.582048
_cell_angle_beta	99.031303
_cell_angle_gamma	94.412682
loop_
_atom_site_label
_atom_site_type_symbol
_atom_site_fract_x
_atom_site_fract_y
_atom_site_fract_z
Zn1	Zn	1.885440	-0.156539	-0.568992
Zn2	Zn	1.901513	-0.269335	-0.356730
Zn3	Zn	1.689432	-0.171586	-0.373018
Zn4	Zn	1.673110	-0.269290	-0.585174
O5	O	1.787374	-0.216688	-0.470979
O6	O	2.065190	-0.165223	-0.527246
O7	O	1.886937	-0.262685	-0.181270
O8	O	1.715537	-0.081495	-0.399059
O9	O	2.076998	-0.248094	-0.371298
O10	O	1.859543	-0.070440	-0.543040
O11	O	1.731122	-0.190869	-0.193238
O12	O	1.509650	-0.190826	-0.414750
O13	O	1.687719	-0.248018	-0.760648
O14	O	1.497658	-0.262608	-0.570620
O15	O	1.843717	-0.165179	-0.748759
O16	O	1.871111	-0.357424	-0.386989
O17	O	1.703304	-0.357391	-0.554826
C18	C	1.457599	-0.228346	-0.496210
C19	C	1.316518	-0.233347	-0.507034
C20	C	1.787213	-0.380248	-0.470921
C21	C	1.787257	-0.450214	-0.470930
C22	C	1.874700	-0.483071	-0.383615
C23	C	1.874757	-0.548811	-0.383639
C24	C	1.787350	-0.581691	-0.470966
C25	C	1.699900	-0.548826	-0.558298
C26	C	1.699854	-0.483087	-0.558279
N27	N	1.675575	-0.688544	-0.489138
N28	N	1.675623	-0.750993	-0.489148
C29	C	1.787486	-0.779758	-0.471028
N30	N	1.899304	-0.743716	-0.452874
N31	N	1.899255	-0.681262	-0.452858
C32	C	1.787391	-0.652974	-0.470996
C33	C	1.874998	-0.883898	-0.383734
C34	C	1.875057	-0.949638	-0.383767
C35	C	1.700190	-0.949653	-0.558420
C36	C	1.700142	-0.883913	-0.558393
C37	C	1.787545	-0.851040	-0.471044
C38	C	2.118436	-0.204985	-0.445650
C39	C	2.259515	-0.199998	-0.434856
C40	C	1.762104	-0.204915	-0.802046
C41	C	1.751336	-0.199898	-0.943127
C42	C	1.787568	-0.052487	-0.471062
C43	C	1.787651	0.017486	-0.471097
C44	C	1.812618	-0.228367	-0.141194
C45	C	1.823633	-0.233197	-0.000094
H46	H	1.257383	-0.265731	-0.577106
H47	H	1.945968	-0.575568	-0.312537
Br48	Br	1.358062	-0.146033	-0.318049
Br49	Br	1.581460	-0.839318	-0.676896
Br50	Br	1.634443	-0.145979	-1.041729
H51	H	1.945871	-0.456308	-0.312493
Br52	Br	1.581285	-0.593447	-0.676824
Br53	Br	1.581174	-0.438491	-0.676790
H54	H	1.946271	-0.976389	-0.312667
Br55	Br	1.993610	-0.839281	-0.265188
Br56	Br	1.581576	-0.994268	-0.676951
Br57	Br	1.940542	-0.287103	-0.901496
