data_functionalizedCrystal
_audit_creation_method	'MofGen! by Chris Wilmer'
_symmetry_space_group_name_H-M	'P1'
_symmetry_Int_Tables_number	1
_symmetry_cell_setting	triclinic
loop_
_symmetry_equiv_pos_as_xyz
  x,y,z
_cell_length_a	30.570230
_cell_length_b	30.570279
_cell_length_c	30.569373
_cell_angle_alpha	90.000756
_cell_angle_beta	60.001232
_cell_angle_gamma	119.999915
loop_
_atom_site_label
_atom_site_type_symbol
_atom_site_fract_x
_atom_site_fract_y
_atom_site_fract_z
O1	O	0.385856	-0.300079	-0.013024
O2	O	0.296282	-0.236467	0.012942
O3	O	0.385847	-0.236468	-0.076633
O4	O	0.296292	-0.300078	0.076551
O5	O	0.313091	-0.309224	-0.076631
O6	O	0.223526	-0.309223	0.012944
O7	O	0.313101	-0.372834	-0.013023
Zn8	Zn	0.256762	-0.352580	-0.000039
Zn9	Zn	0.352621	-0.256722	-0.000041
O10	O	0.223536	-0.372833	0.076552
C11	C	0.128240	-0.080457	0.031434
C12	C	0.075225	-0.107024	0.031804
C13	C	0.128237	-0.159671	0.031439
C14	C	0.075222	-0.186118	0.031808
C15	C	0.049026	-0.159670	0.031435
C16	C	0.154315	-0.107026	0.031807
C17	C	0.214059	0.005156	0.025005
C18	C	0.243223	0.059254	0.020946
C19	C	0.218193	0.086387	0.018908
C20	C	0.249814	0.145044	0.014504
C21	C	0.163994	0.059426	0.020934
C22	C	0.134830	0.005330	0.024995
C23	C	0.159865	-0.021802	0.027028
C24	C	-0.030157	-0.159463	0.025004
C25	C	-0.080197	-0.184398	0.020946
C26	C	-0.105295	-0.236563	0.018913
C27	C	-0.159550	-0.263600	0.014510
C28	C	-0.080362	-0.263802	0.020941
C29	C	-0.030327	-0.238870	0.025001
C30	C	-0.005224	-0.186700	0.027030
C31	C	0.214053	-0.159467	0.025014
C32	C	0.243219	-0.184401	0.020952
C33	C	0.218186	-0.236565	0.018919
C34	C	0.249803	-0.263604	0.014520
C35	C	0.163992	-0.263801	0.020942
C36	C	0.134826	-0.238870	0.025001
C37	C	0.159859	-0.186703	0.027037
O38	O	-0.177310	-0.309216	0.012926
O39	O	-0.304523	-0.372823	-0.013049
O40	O	-0.304534	-0.372826	0.076529
O41	O	-0.177299	-0.309213	-0.076652
O42	O	-0.304533	-0.300071	0.076527
O43	O	-0.304522	-0.300068	-0.013051
O44	O	-0.177309	-0.236461	0.012924
Zn45	Zn	-0.240916	-0.256713	-0.000064
Zn46	Zn	-0.240917	-0.352571	-0.000061
O47	O	-0.177298	-0.236458	-0.076654
C48	C	0.128263	-0.080455	-0.400700
C49	C	0.154342	-0.107023	-0.427146
C50	C	0.049048	-0.159667	-0.321490
C51	C	0.075246	-0.186115	-0.348056
C52	C	0.128263	-0.159668	-0.400699
C53	C	0.075246	-0.107022	-0.348057
C54	C	0.134485	0.005158	-0.400494
C55	C	0.163477	0.059255	-0.425428
C56	C	0.217678	0.086387	-0.477589
C57	C	0.249118	0.145044	-0.504626
C58	C	0.242892	0.059426	-0.504827
C59	C	0.213899	0.005331	-0.479895
C60	C	0.159698	-0.021801	-0.427729
C61	C	0.214084	-0.159462	-0.480086
C62	C	0.243248	-0.184397	-0.505190
C63	C	0.218215	-0.236561	-0.478123
C64	C	0.249835	-0.263599	-0.505339
C65	C	0.164014	-0.263799	-0.425952
C66	C	0.134850	-0.238867	-0.400850
C67	C	0.159888	-0.186698	-0.427917
C68	C	-0.030141	-0.159462	-0.235880
C69	C	-0.080179	-0.184394	-0.181781
C70	C	-0.105277	-0.236558	-0.154650
C71	C	-0.159534	-0.263595	-0.095995
C72	C	-0.080341	-0.263794	-0.181607
C73	C	-0.030303	-0.238864	-0.235703
C74	C	-0.005205	-0.186698	-0.262837
C75	C	0.527093	-0.420638	-0.027244
C76	C	0.581082	-0.393643	-0.023532
C77	C	0.500897	-0.473283	-0.027615
C78	C	0.447876	-0.420640	-0.027238
C79	C	0.417166	-0.393648	-0.023519
C80	C	0.421800	-0.473285	-0.027609
C81	C	0.447880	-0.499851	-0.027242
C82	C	0.417173	-0.557552	-0.023528
C83	C	0.500893	-0.394192	-0.027610
C84	C	0.392364	-0.604169	-0.020527
C85	C	0.624699	-0.371835	-0.020532
C86	C	0.392354	-0.371842	-0.020514
C87	C	0.361241	-0.662652	-0.016762
C88	C	0.679419	-0.344475	-0.016769
C89	C	0.361227	-0.344484	-0.016744
O90	O	0.313117	0.317572	-0.013044
O91	O	0.223543	0.164389	0.012918
O92	O	0.313112	0.253954	-0.076655
O93	O	0.223548	0.228007	0.076529
O94	O	0.385865	0.253952	-0.076652
O95	O	0.296296	0.164387	0.012921
O96	O	0.385870	0.317571	-0.013041
Zn97	Zn	0.352634	0.240979	-0.000060
Zn98	Zn	0.256779	0.240981	-0.000064
O99	O	0.296301	0.228006	0.076532
O100	O	0.313125	-0.372835	-0.541083
O101	O	0.223561	-0.309213	-0.477482
O102	O	0.313121	-0.309220	-0.477467
O103	O	0.223565	-0.372828	-0.541097
O104	O	0.385881	-0.236467	-0.550222
O105	O	0.296321	-0.236461	-0.550236
O106	O	0.385885	-0.300082	-0.613837
Zn107	Zn	0.352655	-0.256720	-0.593588
Zn108	Zn	0.256791	-0.352575	-0.497731
O109	O	0.296325	-0.300075	-0.613852
O110	O	0.385902	0.317575	-0.613838
O111	O	0.296323	0.164389	-0.550237
O112	O	0.385877	0.253949	-0.550210
O113	O	0.296348	0.228015	-0.613865
O114	O	0.313112	0.253947	-0.477463
O115	O	0.223558	0.164386	-0.477490
O116	O	0.313138	0.317572	-0.541091
Zn117	Zn	0.256795	0.240979	-0.497740
Zn118	Zn	0.352666	0.240983	-0.593588
O119	O	0.223584	0.228012	-0.541118
C120	C	0.082334	-0.499853	0.338339
C121	C	0.028349	-0.557554	0.365331
C122	C	0.108534	-0.473285	0.364786
C123	C	0.161539	-0.420641	0.259127
C124	C	0.192242	-0.393649	0.201427
C125	C	0.187619	-0.394194	0.285695
C126	C	0.161546	-0.420640	0.338339
C127	C	0.192257	-0.393647	0.365332
C128	C	0.108526	-0.473286	0.285695
C129	C	0.217069	-0.371839	0.387139
C130	C	-0.015263	-0.604170	0.387138
C131	C	0.217048	-0.371842	0.154810
C132	C	0.248196	-0.344480	0.414497
C133	C	-0.069978	-0.662653	0.414496
C134	C	0.248167	-0.344484	0.096328
C135	C	-0.552133	-0.420638	0.338312
C136	C	-0.582842	-0.393645	0.365303
C137	C	-0.578211	-0.473283	0.364758
C138	C	-0.472917	-0.420638	0.259102
C139	C	-0.418928	-0.393644	0.201402
C140	C	-0.499116	-0.473283	0.285668
C141	C	-0.552133	-0.499851	0.338311
C142	C	-0.582841	-0.557552	0.365303
C143	C	-0.499116	-0.394191	0.285669
C144	C	-0.607651	-0.604169	0.387109
C145	C	-0.607653	-0.371838	0.387110
C146	C	-0.375312	-0.371836	0.154786
C147	C	-0.638775	-0.662652	0.414467
C148	C	-0.638778	-0.344479	0.414467
C149	C	-0.320592	-0.344477	0.096305
C150	C	0.161564	0.213852	0.338314
C151	C	0.192274	0.217571	0.365307
C152	C	0.108553	0.213488	0.364758
C153	C	0.161555	0.213838	0.259103
C154	C	0.192257	0.217542	0.201403
C155	C	0.108545	0.213474	0.285667
C156	C	0.082354	0.213854	0.338310
C157	C	0.028372	0.217575	0.365300
C158	C	0.187635	0.213472	0.285671
C159	C	-0.015239	0.220583	0.387104
C160	C	0.217086	0.220576	0.387114
C161	C	0.217061	0.220536	0.154788
C162	C	-0.069951	0.224355	0.414460
C163	C	0.248213	0.224346	0.414473
C164	C	0.248179	0.224291	0.096306
C165	C	0.481113	-0.159684	-0.400683
C166	C	0.534125	-0.107039	-0.427131
C167	C	0.481121	-0.159682	-0.321472
C168	C	0.534133	-0.107038	-0.348040
C169	C	0.560326	-0.080471	-0.400684
C170	C	0.455040	-0.186130	-0.348039
C171	C	0.395293	-0.239075	-0.400477
C172	C	0.366127	-0.264181	-0.425410
C173	C	0.391154	-0.237115	-0.477573
C174	C	0.359531	-0.264333	-0.504610
C175	C	0.445351	-0.184942	-0.504812
C176	C	0.474517	-0.159838	-0.479880
C177	C	0.449485	-0.186904	-0.427713
C178	C	0.639503	0.005140	-0.480073
C179	C	0.689541	0.059237	-0.505179
C180	C	0.714641	0.086370	-0.478112
C181	C	0.768893	0.145026	-0.505329
C182	C	0.689711	0.059410	-0.425940
C183	C	0.639678	0.005315	-0.400837
C184	C	0.614574	-0.021818	-0.427903
C185	C	0.395310	-0.239072	-0.235860
C186	C	0.366147	-0.264174	-0.181761
C187	C	0.391182	-0.237106	-0.154629
C188	C	0.359568	-0.264323	-0.095973
C189	C	0.445374	-0.184936	-0.181588
C190	C	0.474537	-0.159831	-0.235685
C191	C	0.449502	-0.186901	-0.262819
O192	O	-0.213251	-0.835611	0.522512
O193	O	-0.086031	-0.682428	0.458900
O194	O	-0.086027	-0.771997	0.458895
O195	O	-0.213255	-0.746042	0.522518
O196	O	-0.086035	-0.771999	0.386142
O197	O	-0.086039	-0.682430	0.386147
O198	O	-0.213259	-0.835612	0.449759
Zn199	Zn	-0.149650	-0.759022	0.406402
Zn200	Zn	-0.149640	-0.759019	0.502257
O201	O	-0.213263	-0.746044	0.449765
C202	C	0.560338	0.272399	-0.400697
C203	C	0.534138	0.272765	-0.427145
C204	C	0.481135	0.272414	-0.321489
C205	C	0.455056	0.272780	-0.348057
C206	C	0.481127	0.272400	-0.400700
C207	C	0.534146	0.272779	-0.348054
C208	C	0.639520	0.265970	-0.400487
C209	C	0.689556	0.261907	-0.425418
C210	C	0.714646	0.259862	-0.477579
C211	C	0.768896	0.255454	-0.504613
C212	C	0.689709	0.261883	-0.504819
C213	C	0.639678	0.265948	-0.479889
C214	C	0.614583	0.267989	-0.427723
C215	C	0.474895	0.265958	-0.480088
C216	C	0.445901	0.261896	-0.505194
C217	C	0.391706	0.259866	-0.478129
C218	C	0.360264	0.255460	-0.505346
C219	C	0.366500	0.261902	-0.425958
C220	C	0.395494	0.265966	-0.400855
C221	C	0.449690	0.267991	-0.427920
C222	C	0.474922	0.266002	-0.235877
C223	C	0.445932	0.261948	-0.181779
C224	C	0.391737	0.259918	-0.154650
C225	C	0.360305	0.255527	-0.095995
C226	C	0.366522	0.261937	-0.181609
C227	C	0.395508	0.265989	-0.235705
C228	C	0.449708	0.268021	-0.262837
H229	H	0.196974	-0.085695	0.032405
H230	H	0.230278	-0.350939	0.264363
H231	H	0.287345	-0.162220	0.019306
C232	C	0.717309	0.259630	-0.562200
C233	C	0.744422	0.306327	-0.608492
C234	C	0.772019	0.304074	-0.665872
C235	C	0.772502	0.255125	-0.676960
C236	C	0.745388	0.208425	-0.630666
C237	C	0.717792	0.210677	-0.573286
H238	H	0.744065	0.342565	-0.600285
H239	H	0.792090	0.338645	-0.700142
H240	H	0.792931	0.253457	-0.719436
H241	H	0.745745	0.172186	-0.638873
H242	H	0.697720	0.176106	-0.539016
H243	H	-0.100779	-0.306272	-0.159512
H244	H	0.086621	0.212877	0.264334
C245	C	0.473669	0.259732	-0.152125
C246	C	0.493840	0.303094	-0.127184
C247	C	0.521573	0.300875	-0.097525
C248	C	0.529136	0.255295	-0.092806
C249	C	0.508965	0.211929	-0.117747
C250	C	0.481231	0.214147	-0.147406
H251	H	0.488242	0.336839	-0.130677
H252	H	0.536505	0.332978	-0.079062
H253	H	0.549666	0.253652	-0.070850
H254	H	0.514563	0.178184	-0.114255
H255	H	0.466299	0.182045	-0.165869
H256	H	0.519056	0.267659	-0.257967
C257	C	0.078924	-0.502098	0.423218
C258	C	0.020500	-0.560131	0.452435
C259	C	-0.009106	-0.588942	0.510864
C260	C	0.019714	-0.559720	0.540077
C261	C	0.078142	-0.501683	0.510860
C262	C	0.107747	-0.472872	0.452431
H263	H	-0.000837	-0.581766	0.430810
H264	H	-0.052358	-0.631905	0.532492
H265	H	-0.002202	-0.581047	0.583330
H266	H	0.099478	-0.480048	0.532485
H267	H	0.150999	-0.429909	0.430803
H268	H	0.086632	0.212896	0.408013
C269	C	0.245258	0.212659	0.256857
C270	C	0.274082	0.212266	0.286069
C271	C	0.331702	0.211452	0.257255
C272	C	0.360500	0.211032	0.199230
C273	C	0.331676	0.211425	0.170014
C274	C	0.274056	0.212238	0.198828
H275	H	0.252764	0.212577	0.329026
H276	H	0.353039	0.211161	0.278883
H277	H	0.403154	0.210429	0.177900
H278	H	0.352994	0.211113	0.127057
H279	H	0.252719	0.212529	0.177201
H280	H	0.619377	0.267596	-0.502069
H281	H	0.086596	-0.494617	0.264368
C282	C	0.045630	-0.244550	-0.319248
C283	C	-0.021548	-0.288619	-0.298739
C284	C	-0.051161	-0.347052	-0.269935
C285	C	-0.013596	-0.361415	-0.261638
C286	C	0.053586	-0.317345	-0.282147
C287	C	0.083199	-0.258912	-0.310952
H288	H	-0.049360	-0.277987	-0.304881
H289	H	-0.100894	-0.379675	-0.254753
H290	H	-0.035517	-0.404670	-0.240315
H291	H	0.081398	-0.327977	-0.276006
H292	H	0.132932	-0.226289	-0.326134
H293	H	0.322025	-0.306653	-0.159817
C294	C	0.241594	-0.024692	0.027249
C295	C	0.261631	-0.049676	-0.016112
C296	C	0.289170	-0.079522	-0.013873
C297	C	0.296671	-0.084384	0.031725
C298	C	0.276633	-0.059399	0.075089
C299	C	0.249094	-0.029553	0.072850
H300	H	0.256079	-0.046077	-0.049869
H301	H	0.304003	-0.098017	-0.045974
H302	H	0.317056	-0.106478	0.033382
H303	H	0.282185	-0.062998	0.108846
H304	H	0.234261	-0.011058	0.104951
C305	C	-0.002535	-0.102079	-0.265725
C306	C	-0.043268	-0.089712	-0.270587
C307	C	-0.015659	-0.032327	-0.300430
C308	C	0.052682	0.012692	-0.325411
C309	C	0.093419	0.000326	-0.320550
C310	C	0.065810	-0.057059	-0.290706
H311	H	-0.093861	-0.123039	-0.252094
H312	H	-0.045816	-0.023173	-0.304029
H313	H	0.073119	0.055172	-0.347503
H314	H	0.144012	0.033653	-0.339042
H315	H	0.095967	-0.066212	-0.287108
C316	C	0.075211	-0.268828	0.027229
C317	C	0.015085	-0.279560	0.076166
C318	C	-0.044530	-0.309518	0.078393
C319	C	-0.044020	-0.328744	0.031683
C320	C	0.016108	-0.318011	-0.017257
C321	C	0.075723	-0.288053	-0.019484
H322	H	0.014705	-0.265328	0.110746
H323	H	-0.089041	-0.317463	0.114622
H324	H	-0.088151	-0.350920	0.033332
H325	H	0.016488	-0.332243	-0.051838
H326	H	0.120234	-0.280108	-0.055713
C327	C	-0.469499	-0.502101	0.256857
C328	C	-0.411068	-0.472890	0.198825
C329	C	-0.381454	-0.501708	0.170016
C330	C	-0.410271	-0.559738	0.199238
C331	C	-0.468704	-0.588952	0.257272
C332	C	-0.498318	-0.560133	0.286082
H333	H	-0.389734	-0.429930	0.177191
H334	H	-0.338198	-0.480082	0.127055
H335	H	-0.388349	-0.581071	0.177911
H336	H	-0.490039	-0.631912	0.278907
H337	H	-0.541575	-0.581760	0.329043
H338	H	0.090717	-0.261047	-0.358375
H339	H	0.556054	-0.085707	-0.326706
C340	C	0.364167	-0.502104	-0.028409
C341	C	0.335342	-0.472895	-0.028801
C342	C	0.277711	-0.501714	-0.029601
C343	C	0.248906	-0.559743	-0.030010
C344	C	0.277731	-0.588956	-0.029618
C345	C	0.335362	-0.560136	-0.028818
H346	H	0.356665	-0.429936	-0.028498
H347	H	0.256373	-0.480089	-0.029891
H348	H	0.206244	-0.581077	-0.030602
H349	H	0.256408	-0.631915	-0.029921
H350	H	0.356700	-0.581762	-0.028528
H351	H	0.522817	-0.350938	-0.028201
C352	C	-0.635842	-0.502101	0.423191
C353	C	-0.664665	-0.472890	0.452409
C354	C	-0.722292	-0.501707	0.510839
C355	C	-0.751098	-0.559735	0.540053
C356	C	-0.722275	-0.588950	0.510835
C357	C	-0.664647	-0.560133	0.452404
H358	H	-0.643341	-0.429931	0.430783
H359	H	-0.743629	-0.480080	0.532468
H360	H	-0.793757	-0.581068	0.583307
H361	H	-0.743599	-0.631909	0.532461
H362	H	-0.643311	-0.581759	0.430776
C363	C	-0.469494	-0.335756	0.256852
C364	C	-0.498310	-0.306539	0.286062
C365	C	-0.468688	-0.248107	0.257245
C366	C	-0.410249	-0.218893	0.199218
C367	C	-0.381429	-0.248110	0.170005
C368	C	-0.411051	-0.306542	0.198822
H369	H	-0.541573	-0.328165	0.329020
H370	H	-0.490022	-0.226478	0.278871
H371	H	-0.388320	-0.175638	0.177887
H372	H	-0.338166	-0.226484	0.127048
H373	H	-0.389717	-0.328171	0.177196
C374	C	0.530517	-0.502098	-0.028424
C375	C	0.588949	-0.472886	-0.028824
C376	C	0.618567	-0.501702	-0.029634
C377	C	0.589753	-0.559730	-0.030044
C378	C	0.531318	-0.588946	-0.029644
C379	C	0.501700	-0.560130	-0.028835
H380	H	0.610281	-0.429927	-0.028520
H381	H	0.661824	-0.480074	-0.029930
H382	H	0.611678	-0.581061	-0.030644
H383	H	0.509986	-0.631905	-0.029948
H384	H	0.458443	-0.581758	-0.028539
H385	H	0.556046	-0.085713	-0.470386
H386	H	0.412371	-0.229380	-0.326706
H387	H	0.197008	-0.085688	-0.470398
H388	H	0.374924	-0.261118	-0.257951
H389	H	0.518661	-0.117350	-0.257633
C390	C	0.563747	0.273562	-0.485578
C391	C	0.526174	0.227699	-0.499936
C392	C	0.555781	0.228498	-0.558367
C393	C	0.622961	0.275160	-0.602440
C394	C	0.660538	0.321027	-0.588084
C395	C	0.630931	0.320228	-0.529652
H396	H	0.476440	0.193154	-0.467309
H397	H	0.527964	0.194545	-0.568995
H398	H	0.644878	0.275752	-0.645695
H399	H	0.710272	0.355572	-0.620710
H400	H	0.658748	0.354181	-0.519025
C401	C	0.367763	-0.268851	-0.343095
C402	C	0.360267	-0.321946	-0.330734
C403	C	0.332733	-0.351721	-0.273350
C404	C	0.312696	-0.328400	-0.228327
C405	C	0.320192	-0.275301	-0.240687
C406	C	0.347725	-0.245527	-0.298071
H407	H	0.375100	-0.339212	-0.364064
H408	H	0.327185	-0.391028	-0.264201
H409	H	0.292314	-0.350441	-0.185848
H410	H	0.305358	-0.258035	-0.207357
H411	H	0.353274	-0.206220	-0.307220
C412	C	0.306514	-0.321566	-0.395451
C413	C	0.248656	-0.333836	-0.342312
C414	C	0.189043	-0.391224	-0.312354
C415	C	0.187288	-0.436341	-0.335536
C416	C	0.245149	-0.424072	-0.388678
C417	C	0.304762	-0.366684	-0.418635
H418	H	0.249953	-0.300436	-0.325149
H419	H	0.146211	-0.400306	-0.273015
H420	H	0.143159	-0.478823	-0.313359
H421	H	0.243852	-0.457472	-0.405840
H422	H	0.347594	-0.357602	-0.457974
H423	H	0.619068	-0.016950	-0.502117
H424	H	0.619093	0.267635	-0.358012
C425	C	0.472879	-0.155167	-0.562194
C426	C	0.492907	-0.178489	-0.607219
C427	C	0.520439	-0.148711	-0.664601
C428	C	0.527943	-0.095611	-0.676958
C429	C	0.507914	-0.072286	-0.631933
C430	C	0.480383	-0.102064	-0.574551
H431	H	0.487353	-0.217799	-0.598072
H432	H	0.535265	-0.165978	-0.697931
H433	H	0.548323	-0.073567	-0.719436
H434	H	0.513469	-0.032975	-0.641080
H435	H	0.465556	-0.084797	-0.541220
H436	H	0.287350	0.081199	0.019298
C437	C	0.534133	-0.102453	-0.509836
C438	C	0.591987	-0.090184	-0.562978
C439	C	0.651605	-0.032799	-0.592933
C440	C	0.653367	0.012317	-0.569746
C441	C	0.595511	0.000049	-0.516602
C442	C	0.535893	-0.057336	-0.486646
H443	H	0.590684	-0.123583	-0.580145
H444	H	0.694434	-0.023718	-0.632275
H445	H	0.697500	0.054797	-0.591921
H446	H	0.596813	0.033448	-0.499435
H447	H	0.493064	-0.066417	-0.447305
H448	H	0.709834	0.081181	-0.547658
C449	C	0.472918	-0.155156	-0.151744
C450	C	0.492956	-0.178478	-0.126761
C451	C	0.520499	-0.148701	-0.096916
C452	C	0.528003	-0.095602	-0.092054
C453	C	0.507964	-0.072277	-0.117038
C454	C	0.480422	-0.102054	-0.146882
H455	H	0.487401	-0.217788	-0.130360
H456	H	0.535333	-0.165968	-0.078422
H457	H	0.548392	-0.073559	-0.069961
H458	H	0.513519	-0.032967	-0.113439
H459	H	0.465588	-0.084787	-0.165377
H460	H	0.710156	0.081510	-0.403904
H461	H	0.619382	-0.016635	-0.358359
C462	C	0.136449	-0.321187	0.018704
C463	C	0.116414	-0.366206	0.062062
C464	C	0.088872	-0.423591	0.059826
C465	C	0.081365	-0.435957	0.014230
C466	C	0.101401	-0.390936	-0.029132
C467	C	0.128943	-0.333551	-0.026895
H468	H	0.121970	-0.357054	0.095818
H469	H	0.074040	-0.456919	0.091926
H470	H	0.060977	-0.478437	0.012575
H471	H	0.095844	-0.400089	-0.062887
H472	H	0.143774	-0.300224	-0.058995
C473	C	0.397430	0.273590	-0.319251
C474	C	0.400029	0.320262	-0.298743
C475	C	0.342406	0.321071	-0.269941
C476	C	0.282183	0.275210	-0.261647
C477	C	0.279582	0.228535	-0.282156
C478	C	0.337205	0.227725	-0.310958
H479	H	0.444612	0.354214	-0.304883
H480	H	0.344332	0.355624	-0.254760
H481	H	0.239527	0.275809	-0.240326
H482	H	0.234999	0.194582	-0.276016
H483	H	0.335279	0.193173	-0.326139
H484	H	0.143616	0.081526	0.019274
H485	H	0.556074	0.273375	-0.326725
H486	H	0.709848	0.260252	-0.403233
H487	H	0.519026	0.267611	-0.502130
H488	H	0.466431	0.260241	-0.547672
C489	C	0.306879	0.259667	-0.396185
C490	C	0.305214	0.303019	-0.419515
C491	C	0.245595	0.300786	-0.389739
C492	C	0.187641	0.255200	-0.336634
C493	C	0.189304	0.211845	-0.313301
C494	C	0.248923	0.214078	-0.343076
H495	H	0.348117	0.336768	-0.458829
H496	H	0.244364	0.332881	-0.407012
H497	H	0.143507	0.253546	-0.314592
H498	H	0.146401	0.178096	-0.273986
H499	H	0.250153	0.181983	-0.325803
C500	C	0.306902	0.259704	-0.151767
C501	C	0.305247	0.303068	-0.126789
C502	C	0.245630	0.300837	-0.096946
C503	C	0.187667	0.255242	-0.092082
C504	C	0.189321	0.211874	-0.117061
C505	C	0.248938	0.214105	-0.146903
H506	H	0.348156	0.336824	-0.130389
H507	H	0.244406	0.332941	-0.078455
H508	H	0.143535	0.253590	-0.069991
H509	H	0.146412	0.178119	-0.113461
H510	H	0.250162	0.182001	-0.165394
C511	C	-0.107971	-0.321187	0.018702
C512	C	-0.067235	-0.333554	-0.026890
C513	C	-0.094842	-0.390938	-0.029128
C514	C	-0.163185	-0.435957	0.014227
C515	C	-0.203925	-0.423592	0.059822
C516	C	-0.176318	-0.366207	0.062060
H517	H	-0.016640	-0.300227	-0.058986
H518	H	-0.064683	-0.400092	-0.062880
H519	H	-0.183621	-0.478436	0.012570
H520	H	-0.254520	-0.456918	0.091918
H521	H	-0.206477	-0.357054	0.095812
H522	H	0.053298	-0.229374	0.032404
H523	H	0.234438	-0.116991	0.026675
C524	C	0.045602	-0.078213	0.032605
C525	C	0.083157	-0.026296	-0.013265
C526	C	0.053534	0.002512	-0.012464
C527	C	-0.013644	-0.020598	0.034207
C528	C	-0.051203	-0.072518	0.080080
C529	C	-0.021580	-0.101326	0.079279
H530	H	0.132890	-0.009186	-0.047816
H531	H	0.081337	0.040946	-0.046422
H532	H	-0.035573	0.000727	0.034799
H533	H	-0.100936	-0.089628	0.114631
H534	H	-0.049383	-0.139761	0.113237
H535	H	0.374968	0.267619	-0.358376
H536	H	-0.009724	-0.116986	0.026661
C537	C	-0.107619	-0.154434	0.018714
C538	C	-0.066751	-0.101299	-0.026879
C539	C	-0.094178	-0.071340	-0.029112
C540	C	-0.162473	-0.094515	0.014248
C541	C	-0.203345	-0.147653	0.059845
C542	C	-0.175919	-0.177612	0.062077
H543	H	-0.016191	-0.084141	-0.058980
H544	H	-0.063921	-0.032004	-0.062866
H545	H	-0.182776	-0.072337	0.012596
H546	H	-0.253905	-0.164811	0.091946
H547	H	-0.206175	-0.216949	0.095831
C548	C	-0.107612	-0.154435	-0.152137
C549	C	-0.066748	-0.101286	-0.147425
C550	C	-0.094183	-0.071326	-0.117780
C551	C	-0.162481	-0.094515	-0.092846
C552	C	-0.203349	-0.147667	-0.097556
C553	C	-0.175914	-0.177627	-0.127202
H554	H	-0.016186	-0.084118	-0.165883
H555	H	-0.063929	-0.031980	-0.114292
H556	H	-0.182790	-0.072337	-0.070900
H557	H	-0.253912	-0.164835	-0.079098
H558	H	-0.206168	-0.216973	-0.130689
H559	H	-0.010030	-0.261051	0.026657
C560	C	0.135747	0.088912	-0.395471
C561	C	0.128195	0.093638	-0.342331
C562	C	0.100465	0.123298	-0.312378
C563	C	0.080287	0.148232	-0.335565
C564	C	0.087839	0.143507	-0.388708
C565	C	0.115569	0.113848	-0.418661
H566	H	0.143133	0.075179	-0.325164
H567	H	0.094875	0.126795	-0.273037
H568	H	0.059759	0.170188	-0.313392
H569	H	0.072901	0.161966	-0.405875
H570	H	0.121159	0.110350	-0.458002
C571	C	0.302520	0.089276	-0.562208
C572	C	0.302110	0.069688	-0.608499
C573	C	0.361736	0.099534	-0.665880
C574	C	0.421773	0.148967	-0.676970
C575	C	0.422186	0.168557	-0.630677
C576	C	0.362559	0.138711	-0.573297
H577	H	0.257665	0.033093	-0.600291
H578	H	0.361431	0.085032	-0.700148
H579	H	0.465913	0.171060	-0.719446
H580	H	0.466631	0.205152	-0.638886
H581	H	0.362865	0.153213	-0.539028
C582	C	0.241627	-0.024330	-0.509849
C583	C	0.249188	-0.029047	-0.562994
C584	C	0.276914	-0.058710	-0.592946
C585	C	0.297080	-0.083655	-0.569754
C586	C	0.289520	-0.078938	-0.516606
C587	C	0.261793	-0.049276	-0.486654
H588	H	0.234259	-0.010581	-0.580165
H589	H	0.282511	-0.062201	-0.632290
H590	H	0.317605	-0.105613	-0.591926
H591	H	0.304448	-0.097405	-0.499435
H592	H	0.256196	-0.045784	-0.447310
C593	C	0.302866	-0.154434	-0.562574
C594	C	0.302363	-0.135206	-0.608777
C595	C	0.361982	-0.105248	-0.666161
C596	C	0.422104	-0.094517	-0.677344
C597	C	0.422610	-0.113746	-0.631140
C598	C	0.362991	-0.143704	-0.573755
H599	H	0.257854	-0.143149	-0.600500
H600	H	0.361607	-0.091013	-0.700364
H601	H	0.466238	-0.072340	-0.719824
H602	H	0.467118	-0.105803	-0.639417
H603	H	0.363366	-0.157938	-0.539552
H604	H	0.090700	-0.016620	0.026647
H605	H	0.053323	-0.085690	-0.326730
H606	H	0.374971	0.267627	-0.257653
H607	H	0.234473	-0.116985	-0.502130
H608	H	0.090349	-0.016932	-0.358019
H609	H	-0.009999	-0.261042	-0.257650
C610	C	0.136478	-0.321184	-0.396176
C611	C	0.116451	-0.366203	-0.419504
C612	C	0.088912	-0.423587	-0.389726
C613	C	0.081398	-0.435952	-0.336621
C614	C	0.101424	-0.390931	-0.313290
C615	C	0.128964	-0.333547	-0.343068
H616	H	0.122013	-0.357052	-0.458818
H617	H	0.074087	-0.456915	-0.406997
H618	H	0.061011	-0.478431	-0.314577
H619	H	0.095863	-0.400083	-0.273976
H620	H	0.143789	-0.300220	-0.325797
