data_functionalizedCrystal
_audit_creation_method	'MofGen! by Chris Wilmer'
_symmetry_space_group_name_H-M	'P1'
_symmetry_Int_Tables_number	1
_symmetry_cell_setting	triclinic
loop_
_symmetry_equiv_pos_as_xyz
  x,y,z
_cell_length_a	14.519709
_cell_length_b	14.044209
_cell_length_c	12.996460
_cell_angle_alpha	90.008693
_cell_angle_beta	90.000034
_cell_angle_gamma	91.565951
loop_
_atom_site_label
_atom_site_type_symbol
_atom_site_fract_x
_atom_site_fract_y
_atom_site_fract_z
O1	O	1.233892	-0.124273	-0.085439
O2	O	1.483892	0.125727	0.164561
O3	O	1.733892	0.375727	0.414561
O4	O	1.983892	0.625727	0.664561
O5	O	0.966595	-0.138907	-0.085471
O6	O	1.216595	0.111093	0.164529
O7	O	1.466595	0.361093	0.414529
O8	O	1.716595	0.611093	0.664529
O9	O	1.096232	0.006401	-0.085441
O10	O	1.346232	0.256401	0.164559
O11	O	1.596232	0.506401	0.414559
O12	O	1.846232	0.756401	0.664559
O13	O	1.104254	-0.269582	-0.085469
O14	O	1.354254	-0.019582	0.164531
O15	O	1.604254	0.230418	0.414531
O16	O	1.854254	0.480418	0.664531
O17	O	1.096217	0.006409	0.085693
O18	O	1.346217	0.256409	0.335693
O19	O	1.596217	0.506409	0.585693
O20	O	1.846217	0.756409	0.835693
O21	O	0.966580	-0.138899	0.085663
O22	O	1.216580	0.111101	0.335663
O23	O	1.466580	0.361101	0.585663
O24	O	1.716580	0.611101	0.835663
O25	O	1.233876	-0.124265	0.085695
O26	O	1.483876	0.125735	0.335695
O27	O	1.733876	0.375735	0.585695
O28	O	1.983876	0.625735	0.835695
Cu29	Cu	1.100227	-0.131581	0.101305
Cu30	Cu	1.350227	0.118419	0.351305
Cu31	Cu	1.600227	0.368419	0.601305
Cu32	Cu	1.850227	0.618419	0.851305
Cu33	Cu	1.100245	-0.131591	-0.101081
Cu34	Cu	1.350245	0.118409	0.148919
Cu35	Cu	1.600245	0.368409	0.398919
Cu36	Cu	1.850245	0.618409	0.648919
O37	O	1.104239	-0.269574	0.085665
O38	O	1.354239	-0.019574	0.335665
O39	O	1.604239	0.230426	0.585665
O40	O	1.854239	0.480426	0.835665
C41	C	0.932173	-0.138221	0.000092
C42	C	1.182173	0.111779	0.250092
C43	C	1.432173	0.361779	0.500092
C44	C	1.682173	0.611779	0.750092
C45	C	0.829626	-0.136178	0.000080
C46	C	1.079626	0.113822	0.250080
C47	C	1.329626	0.363822	0.500080
C48	C	1.579626	0.613822	0.750080
C49	C	1.092712	0.041726	0.000127
C50	C	1.342712	0.291726	0.250127
C51	C	1.592712	0.541726	0.500127
C52	C	1.842712	0.791726	0.750127
C53	C	1.082236	0.146969	0.000131
C54	C	1.332236	0.396969	0.250131
C55	C	1.582236	0.646969	0.500131
C56	C	1.832236	0.896969	0.750131
C57	C	0.454124	-0.128654	0.000128
C58	C	0.704124	0.121346	0.250128
C59	C	0.954124	0.371346	0.500128
C60	C	1.204124	0.621346	0.750128
C61	C	0.558600	-0.130743	0.000114
C62	C	0.808600	0.119257	0.250114
C63	C	1.058600	0.369257	0.500114
C64	C	1.308600	0.619257	0.750114
C65	C	0.641872	-0.132415	0.000103
C66	C	0.891872	0.117585	0.250103
C67	C	1.141872	0.367585	0.500103
C68	C	1.391872	0.617585	0.750103
C69	C	0.746355	-0.134505	0.000091
C70	C	0.996355	0.115495	0.250091
C71	C	1.246355	0.365495	0.500091
C72	C	1.496355	0.615495	0.750091
C73	C	1.063083	0.339664	0.000120
C74	C	1.313083	0.589664	0.250120
C75	C	1.563083	0.839664	0.500120
C76	C	1.813083	1.089664	0.750120
C77	C	1.137392	0.397171	0.000127
C78	C	1.387392	0.647171	0.250127
C79	C	1.637392	0.897171	0.500127
C80	C	1.887392	1.147171	0.750127
C81	C	1.126735	0.504392	0.000121
C82	C	1.376735	0.754392	0.250121
C83	C	1.626735	1.004392	0.500121
C84	C	1.876735	1.254392	0.750121
C85	C	1.073739	0.232432	0.000126
C86	C	1.323739	0.482432	0.250126
C87	C	1.573739	0.732432	0.500126
C88	C	1.823739	0.982432	0.750126
C89	C	1.268299	-0.124951	0.000130
C90	C	1.518299	0.125049	0.250130
C91	C	1.768299	0.375049	0.500130
C92	C	2.018299	0.625049	0.750130
C93	C	1.370845	-0.126995	0.000135
C94	C	1.620845	0.123005	0.250135
C95	C	1.870845	0.373005	0.500135
C96	C	2.120845	0.623005	0.750135
N97	N	1.100220	-0.131574	0.243652
N98	N	1.350220	0.118426	0.493652
N99	N	1.600220	0.368426	0.743652
N100	N	1.850220	0.618426	0.993652
C101	C	1.107761	0.695102	0.000103
C102	C	1.357761	0.945102	0.250103
C103	C	1.607761	1.195102	0.500103
C104	C	1.857761	1.445102	0.750103
C105	C	1.118243	0.589859	0.000117
C106	C	1.368243	0.839859	0.250117
C107	C	1.618243	1.089859	0.500117
C108	C	1.868243	1.339859	0.750117
N109	N	1.100258	-0.131591	-0.243428
N110	N	1.350258	0.118409	0.006572
N111	N	1.600258	0.368409	0.256572
N112	N	1.850258	0.618409	0.506572
C113	C	1.100244	-0.131592	0.663466
C114	C	1.350244	0.118408	0.913466
C115	C	1.600244	0.368408	1.163466
C116	C	1.850244	0.618408	1.413466
C117	C	1.100235	-0.131590	0.546661
C118	C	1.350235	0.118410	0.796661
C119	C	1.600235	0.368410	1.046661
C120	C	1.850235	0.618410	1.296661
C121	C	1.100232	-0.131584	0.453563
C122	C	1.350232	0.118416	0.703563
C123	C	1.600232	0.368416	0.953563
C124	C	1.850232	0.618416	1.203563
C125	C	1.100223	-0.131581	0.336750
C126	C	1.350223	0.118419	0.586750
C127	C	1.600223	0.368419	0.836750
C128	C	1.850223	0.618419	1.086750
H129	H	1.209013	0.365878	0.000066
H130	H	1.459013	0.615878	0.250066
H131	H	1.709013	0.865878	0.500066
H132	H	1.959013	1.115878	0.750066
Br133	Br	0.943716	0.391817	0.000099
Br134	Br	1.193716	0.641817	0.250099
Br135	Br	1.443716	0.891817	0.500099
Br136	Br	1.693716	1.141817	0.750099
