data_functionalizedCrystal
_audit_creation_method	'MofGen! by Chris Wilmer'
_symmetry_space_group_name_H-M	'P1'
_symmetry_Int_Tables_number	1
_symmetry_cell_setting	triclinic
loop_
_symmetry_equiv_pos_as_xyz
  x,y,z
_cell_length_a	8.597340
_cell_length_b	10.268362
_cell_length_c	8.559649
_cell_angle_alpha	90.003601
_cell_angle_beta	102.374957
_cell_angle_gamma	97.701403
loop_
_atom_site_label
_atom_site_type_symbol
_atom_site_fract_x
_atom_site_fract_y
_atom_site_fract_z
O1	O	2.053720	0.122159	-0.238033
O2	O	2.553720	0.622159	0.261967
O3	O	1.594589	0.070637	-0.256296
O4	O	2.094589	0.570637	0.243704
O5	O	1.864605	0.100938	-0.015194
O6	O	2.364605	0.600938	0.484806
O7	O	1.783705	0.091857	-0.479135
O8	O	2.283705	0.591857	0.020865
O9	O	1.864603	0.317539	-0.015180
O10	O	2.364603	0.817539	0.484820
O11	O	1.594588	0.287237	-0.256282
O12	O	2.094588	0.787237	0.243718
O13	O	2.053719	0.338759	-0.238018
O14	O	2.553719	0.838759	0.261982
Cu15	Cu	1.824154	0.332775	-0.247149
Cu16	Cu	2.324154	0.832775	0.252851
Cu17	Cu	1.824155	0.076620	-0.247166
Cu18	Cu	2.324155	0.576620	0.252834
O19	O	1.783704	0.308458	-0.479121
O20	O	2.283704	0.808458	0.020879
C21	C	1.536354	0.172402	-0.254329
C22	C	2.036354	0.672402	0.245671
C23	C	1.362835	0.152930	-0.248467
C24	C	1.862835	0.652930	0.251533
N25	N	1.824158	-0.103545	-0.247166
N26	N	2.324158	0.396455	0.252834
C27	C	1.824155	-0.369216	-0.247157
C28	C	2.324155	0.130784	0.252843
C29	C	1.824152	-0.221379	-0.247167
C30	C	2.324152	0.278621	0.252833
C31	C	2.111955	0.236991	-0.239986
C32	C	2.611955	0.736991	0.260014
C33	C	2.285473	0.256454	-0.245848
C34	C	2.785473	0.756454	0.254152
C35	C	1.870735	0.209924	0.044247
C36	C	2.370735	0.709924	0.544247
C37	C	1.888984	0.211964	0.221342
C38	C	2.388984	0.711964	0.721342
N39	N	1.824164	0.512942	-0.247136
N40	N	2.324164	1.012942	0.252864
C41	C	1.777574	0.199469	-0.538562
C42	C	2.277574	0.699469	-0.038562
C43	C	1.759325	0.197420	-0.715657
C44	C	2.259325	0.697420	-0.215657
H45	H	1.296313	0.049390	-0.246223
H46	H	1.796313	0.549390	0.253777
C47	C	2.055593	0.230396	0.330148
C48	C	2.555593	0.730396	0.830148
C49	C	2.073804	0.120994	0.426628
C50	C	2.573804	0.620994	0.926628
C51	C	2.227266	0.137917	0.526863
C52	C	2.727266	0.637917	1.026863
H53	H	2.068401	0.307283	0.395902
H54	H	2.568401	0.807283	0.895902
H55	H	2.134538	0.239178	0.266932
H56	H	2.634538	0.739178	0.766932
H57	H	1.994882	0.112226	0.489839
H58	H	2.494882	0.612226	0.989839
H59	H	2.061028	0.044093	0.360917
H60	H	2.561028	0.544093	0.860917
H61	H	2.306212	0.146699	0.463647
H62	H	2.806212	0.646699	0.963647
H63	H	2.240061	0.214807	0.592606
H64	H	2.740061	0.714807	1.092606
H65	H	2.239649	0.063686	0.592326
H66	H	2.739649	0.563686	1.092326
H67	H	1.351990	0.359987	-0.248080
H68	H	1.851990	0.859987	0.251920
C69	C	1.592725	0.178448	0.175544
C70	C	2.092725	0.678448	0.675544
C71	C	1.574520	0.064947	0.079070
C72	C	2.074520	0.564947	0.579070
C73	C	1.421060	0.047418	-0.021171
C74	C	1.921060	0.547418	0.478829
H75	H	1.579918	0.252452	0.109787
H76	H	2.079918	0.752452	0.609787
H77	H	1.513776	0.169522	0.238757
H78	H	2.013776	0.669522	0.738757
H79	H	1.653445	0.073882	0.015863
H80	H	2.153445	0.573882	0.515863
H81	H	1.587295	-0.009079	0.144784
H82	H	2.087295	0.490921	0.644784
H83	H	1.342112	0.038491	0.042042
H84	H	1.842112	0.538491	0.542042
H85	H	1.408267	0.121427	-0.086917
H86	H	1.908267	0.621427	0.413083
H87	H	1.408683	-0.029600	-0.086630
H88	H	1.908683	0.470400	0.413370
