data_functionalizedCrystal
_audit_creation_method	'MofGen! by Chris Wilmer'
_symmetry_space_group_name_H-M	'P1'
_symmetry_Int_Tables_number	1
_symmetry_cell_setting	triclinic
loop_
_symmetry_equiv_pos_as_xyz
  x,y,z
_cell_length_a	8.559649
_cell_length_b	15.995292
_cell_length_c	7.088929
_cell_angle_alpha	83.780829
_cell_angle_beta	95.325015
_cell_angle_gamma	76.623640
loop_
_atom_site_label
_atom_site_type_symbol
_atom_site_fract_x
_atom_site_fract_y
_atom_site_fract_z
O1	O	2.103736	-0.018746	-0.158959
O2	O	1.638514	0.024499	-0.158964
O3	O	1.883890	-0.119835	-0.158964
O4	O	1.858360	0.125588	-0.158959
O5	O	1.916682	-0.139163	0.159011
O6	O	1.671306	0.005171	0.159011
O7	O	2.136528	-0.038073	0.159016
Cu8	Cu	1.906911	-0.018216	0.188047
Cu9	Cu	1.868131	0.004641	-0.187995
O10	O	1.891152	0.106260	0.159016
C11	C	1.595379	0.018112	0.000023
C12	C	1.417994	0.027867	0.000020
C13	C	1.899247	-0.160628	0.000019
C14	C	1.896130	-0.253379	0.000004
C15	C	1.884679	-0.590382	0.000021
C16	C	2.061858	-0.578502	0.000734
C17	C	2.065150	-0.481999	0.000010
C18	C	1.890361	-0.423191	0.000014
C19	C	1.783091	-0.435562	-0.181560
C20	C	1.780944	-0.532206	-0.181706
C21	C	1.814618	-0.553810	0.179892
C22	C	1.821428	-0.457885	0.182284
C23	C	1.893562	-0.328701	0.000003
C24	C	1.881471	-0.684872	0.000019
C25	C	2.179663	-0.031687	0.000026
C26	C	2.357045	-0.041441	0.000016
C27	C	1.875795	0.147053	0.000029
C28	C	1.878910	0.239805	0.000031
N29	N	1.934199	-0.034294	0.452535
N30	N	1.840856	0.020711	-0.452483
H31	H	2.147918	-0.475345	0.130167
H32	H	2.030956	-0.091294	0.534191
N33	N	1.467659	-0.129933	0.000016
H34	H	1.525503	-0.129982	-0.117854
H35	H	1.549714	-0.144259	0.117971
N36	N	1.607819	-0.539765	-0.192645
H37	H	1.533234	-0.480358	-0.197359
H38	H	1.580416	-0.565528	-0.311664
H39	H	1.899755	-0.451631	0.316612
N40	N	2.170084	-0.631878	0.173222
H41	H	2.105319	-0.664282	0.252577
H42	H	2.261647	-0.674670	0.129757
H43	H	1.744116	0.077713	0.465871
H44	H	1.334461	0.094672	0.000011
N45	N	2.134111	-0.612297	-0.170768
H46	H	2.052571	-0.635269	-0.248923
H47	H	2.163891	-0.563727	-0.251716
H48	H	1.694981	-0.417378	0.193253
N49	N	1.611790	-0.381857	-0.190516
H50	H	1.602051	-0.348911	-0.076685
H51	H	1.583711	-0.339530	-0.312209
H52	H	1.828268	-0.554716	-0.317439
N53	N	2.139695	-0.453064	-0.172736
H54	H	2.059005	-0.403507	-0.255466
H55	H	2.239496	-0.433323	-0.129652
N56	N	1.846069	-0.403354	-0.360565
H57	H	1.944024	-0.380731	-0.324456
H58	H	1.877175	-0.452605	-0.438367
H59	H	1.884586	-0.593851	0.317524
H60	H	1.684381	-0.559492	0.181117
