data_functionalizedCrystal
_audit_creation_method	'MofGen! by Chris Wilmer'
_symmetry_space_group_name_H-M	'P1'
_symmetry_Int_Tables_number	1
_symmetry_cell_setting	triclinic
loop_
_symmetry_equiv_pos_as_xyz
  x,y,z
_cell_length_a	12.759399
_cell_length_b	21.395362
_cell_length_c	21.395355
_cell_angle_alpha	90.043940
_cell_angle_beta	89.985737
_cell_angle_gamma	89.969005
loop_
_atom_site_label
_atom_site_type_symbol
_atom_site_fract_x
_atom_site_fract_y
_atom_site_fract_z
Zn1	Zn	-0.417943	-0.957927	-0.354604
Zn2	Zn	-0.593607	-0.957858	-0.249834
Zn3	Zn	-0.417992	-0.853142	-0.249805
Zn4	Zn	-0.593629	-0.853140	-0.354539
O5	O	-0.505793	-0.905517	-0.302196
O6	O	-0.441215	-1.045596	-0.340746
O7	O	-0.570323	-0.943940	-0.162153
O8	O	-0.270964	-0.867072	-0.263722
O9	O	-0.570275	-1.045545	-0.263772
O10	O	-0.270928	-0.944057	-0.340717
O11	O	-0.441299	-0.867005	-0.162131
O12	O	-0.441320	-0.765464	-0.263659
O13	O	-0.570312	-0.867068	-0.442226
O14	O	-0.570360	-0.765462	-0.340607
O15	O	-0.441236	-0.944055	-0.442273
O16	O	-0.740631	-0.943937	-0.263709
O17	O	-0.740647	-0.867001	-0.340635
C18	C	-0.505848	-0.742729	-0.302123
C19	C	-0.505897	-0.673088	-0.302107
C20	C	-0.778760	-0.905479	-0.302182
C21	C	-0.895537	-0.905519	-0.302196
C22	C	-0.505771	-0.905569	-0.465619
C23	C	-0.505762	-0.905591	-0.535260
C24	C	-0.950355	-0.945626	-0.262187
C25	C	-1.060079	-0.945666	-0.262208
C26	C	-1.060156	-0.865488	-0.342250
C27	C	-0.950434	-0.865452	-0.342232
C28	C	-1.209913	-1.019619	-0.239938
C29	C	-1.264735	-1.059720	-0.199919
C30	C	-1.229161	-1.069357	-0.138789
C31	C	-1.138766	-1.038884	-0.117667
C32	C	-1.083949	-0.998779	-0.157683
C33	C	-1.119522	-0.989154	-0.218821
C34	C	-0.800599	-0.791497	-0.364494
C35	C	-0.745780	-0.751388	-0.404508
C36	C	-0.781352	-0.741745	-0.465639
C37	C	-0.871751	-0.772207	-0.486759
C38	C	-0.926570	-0.812316	-0.446745
C39	C	-0.890990	-0.821960	-0.385615
C40	C	-0.231759	-0.905573	-0.302224
C41	C	-0.114983	-0.905596	-0.302236
C42	C	-0.505738	-1.068940	-0.302269
C43	C	-0.505714	-1.138582	-0.302300
C44	C	-0.573177	-0.640390	-0.342113
C45	C	-0.573152	-0.574955	-0.342141
C46	C	-0.505857	-0.542220	-0.302152
C47	C	-0.438564	-0.574925	-0.262142
C48	C	-0.438584	-0.640359	-0.262120
C49	C	-0.497393	-0.438494	-0.245746
C50	C	-0.497380	-0.373061	-0.245767
C51	C	-0.505788	-0.340399	-0.302221
C52	C	-0.514231	-0.373178	-0.358655
C53	C	-0.514251	-0.438613	-0.358632
C54	C	-0.505827	-0.471267	-0.302172
C55	C	-0.573044	-0.236749	-0.342261
C56	C	-0.573011	-0.171312	-0.342290
C57	C	-0.438428	-0.171284	-0.262285
C58	C	-0.438456	-0.236719	-0.262262
C59	C	-0.505769	-0.269448	-0.302249
C60	C	-0.438550	-0.945676	-0.567999
C61	C	-0.438504	-0.945676	-0.633435
C62	C	-0.505691	-0.905596	-0.666129
C63	C	-0.572908	-0.865503	-0.633382
C64	C	-0.572944	-0.865500	-0.567948
C65	C	-0.600292	-0.900635	-0.769797
C66	C	-0.600258	-0.900642	-0.835230
C67	C	-0.505580	-0.905600	-0.867950
C68	C	-0.410932	-0.910564	-0.835228
C69	C	-0.410968	-0.910561	-0.769794
C70	C	-0.505659	-0.905594	-0.737081
C71	C	-0.438312	-0.945686	-0.971641
C72	C	-0.438265	-0.945681	-1.037078
C73	C	-0.572678	-0.865512	-1.037024
C74	C	-0.572716	-0.865514	-0.971588
C75	C	-0.505534	-0.905604	-0.938901
C76	C	-0.505738	-0.905501	-0.139408
C77	C	-0.505451	-0.905600	-0.069767
H78	H	-0.905660	-0.978252	-0.229588
H79	H	-0.627675	-0.832855	-0.541292
F80	F	-0.523232	-0.473496	-0.418692
F81	F	-0.644409	-0.822845	-0.668178
F82	F	-0.644679	-0.271583	-0.384821
H83	H	-0.383766	-0.978317	-0.660096
F84	F	-0.644618	-0.136513	-0.384876
H85	H	-0.490512	-0.346377	-0.199815
F86	F	-0.366802	-0.136449	-0.219728
F87	F	-0.644176	-0.822851	-1.071815
H88	H	-0.490542	-0.465081	-0.199772
H89	H	-0.627988	-0.667034	-0.374675
F90	F	-0.310161	-0.915843	-0.870046
H91	H	-0.383844	-0.978321	-0.541389
H92	H	-0.736709	-0.709083	-0.498217
H93	H	-0.627939	-0.548327	-0.374722
F94	F	-0.366971	-0.675160	-0.219538
H95	H	-0.521076	-0.346587	-0.404625
F96	F	-0.366849	-0.271520	-0.219679
H97	H	-0.677325	-0.896604	-0.861866
H98	H	-1.010350	-0.973969	-0.140486
F99	F	-1.118591	-0.822846	-0.384855
H100	H	-0.383770	-0.548268	-0.229583
H101	H	-0.333903	-0.914602	-0.743155
H102	H	-0.383603	-0.978327	-0.945026
F103	F	-0.701071	-0.895373	-0.734980
H104	H	-0.771621	-0.799351	-0.314718
F105	F	-0.366736	-0.988355	-1.071921
F106	F	-1.287511	-1.112036	-0.096198
F107	F	-0.644258	-0.822851	-0.936744
F108	F	-1.247772	-1.009374	-0.305003
F109	F	-1.100919	-1.049137	-0.052600
H110	H	-1.000174	-0.837122	-0.463948
F111	F	-0.649589	-0.718950	-0.382021
H112	H	-1.338335	-1.084532	-0.217123
F113	F	-0.909613	-0.761944	-0.551822
