data_functionalizedCrystal
_audit_creation_method	'MofGen! by Chris Wilmer'
_symmetry_space_group_name_H-M	'P1'
_symmetry_Int_Tables_number	1
_symmetry_cell_setting	triclinic
loop_
_symmetry_equiv_pos_as_xyz
  x,y,z
_cell_length_a	19.121102
_cell_length_b	19.121725
_cell_length_c	19.076919
_cell_angle_alpha	94.805082
_cell_angle_beta	89.940198
_cell_angle_gamma	85.251956
loop_
_atom_site_label
_atom_site_type_symbol
_atom_site_fract_x
_atom_site_fract_y
_atom_site_fract_z
Zn1	Zn	1.069969	-0.343698	-0.458327
Zn2	Zn	1.079223	-0.457030	-0.345873
Zn3	Zn	0.957038	-0.333965	-0.335408
Zn4	Zn	0.957283	-0.456288	-0.458291
O5	O	1.015878	-0.397745	-0.399475
O6	O	1.169492	-0.363115	-0.447805
O7	O	1.066785	-0.436942	-0.245996
O8	O	0.968043	-0.236634	-0.347350
O9	O	1.176290	-0.446379	-0.365186
O10	O	1.051014	-0.243785	-0.437658
O11	O	0.977016	-0.346527	-0.238308
O12	O	0.858776	-0.345808	-0.347314
O13	O	0.968461	-0.445116	-0.556784
O14	O	0.858956	-0.435678	-0.437595
O15	O	1.051251	-0.362397	-0.556811
O16	O	1.067023	-0.555553	-0.365150
O17	O	0.977434	-0.555009	-0.447742
C18	C	0.833379	-0.389607	-0.391315
C19	C	0.755305	-0.386143	-0.387842
C20	C	0.718743	-0.431372	-0.433147
C21	C	0.645384	-0.428108	-0.429886
C22	C	0.608588	-0.379618	-0.381317
C23	C	0.645155	-0.334385	-0.336010
C24	C	0.718512	-0.337646	-0.339274
C25	C	0.387089	-0.367425	-0.369115
C26	C	0.313726	-0.364169	-0.365853
C27	C	0.313960	-0.457891	-0.459731
C28	C	0.387320	-0.461151	-0.462988
C29	C	0.423880	-0.415915	-0.417683
C30	C	0.533603	-0.376283	-0.377982
C31	C	0.498863	-0.419248	-0.421023
C32	C	1.023277	-0.580854	-0.407594
C33	C	1.026506	-0.659193	-0.411094
C34	C	0.984867	-0.692336	-0.365692
C35	C	0.987907	-0.765944	-0.368984
C36	C	1.032584	-0.806407	-0.417681
C37	C	1.074228	-0.773258	-0.463085
C38	C	1.071191	-0.699652	-0.459789
C39	C	1.043918	-1.028834	-0.429982
C40	C	1.046951	-1.102445	-0.433276
C41	C	0.960630	-1.095126	-0.339174
C42	C	0.957594	-1.021519	-0.335885
C43	C	0.999241	-0.988376	-0.381286
C44	C	1.035692	-0.881646	-0.421048
C45	C	0.996136	-0.913139	-0.377915
C46	C	1.199090	-0.405916	-0.407667
C47	C	1.277164	-0.409398	-0.411158
C48	C	1.008851	-0.404760	-0.583049
C49	C	1.005857	-0.407749	-0.661277
C50	C	1.008469	-0.213923	-0.391341
C51	C	1.005311	-0.135589	-0.387874
C52	C	1.047552	-0.366087	-0.698044
C53	C	1.044730	-0.368893	-0.771548
C54	C	1.000215	-0.413364	-0.808283
C55	C	0.958515	-0.455027	-0.771511
C56	C	0.961334	-0.452217	-0.698008
C57	C	0.987158	-0.426381	-1.028109
C58	C	0.984344	-0.429189	-1.101617
C59	C	1.070558	-0.343054	-1.101649
C60	C	1.073376	-0.340251	-1.028145
C61	C	1.031673	-0.381912	-0.991379
N62	N	0.997331	-0.416234	-0.883415
N63	N	1.034554	-0.379037	-0.916248
C64	C	1.022916	-0.390709	-0.216615
C65	C	1.026039	-0.387528	-0.138384
H66	H	0.528825	-0.458725	-0.460571
H67	H	1.077827	-1.001855	-0.466951
F68	F	0.425989	-0.319279	-0.320900
H69	H	0.927374	-0.486135	-0.668073
F70	F	0.916310	-1.130404	-0.290858
H71	H	1.110608	-0.806209	-0.502732
F72	F	0.943588	-0.801215	-0.320661
H73	H	1.078684	-0.334969	-0.801480
H74	H	1.105099	-0.672667	-0.496759
F75	F	1.094935	-0.318758	-0.658955
F76	F	1.120755	-0.292920	-0.989054
F77	F	1.114936	-0.298718	-1.140783
H78	H	0.959763	-0.880192	-0.338263
H79	H	0.284185	-0.494719	-0.496616
F80	F	0.426476	-0.512762	-0.514681
H81	H	0.948092	-0.465405	-1.131525
H82	H	0.953211	-0.460315	-0.998184
F83	F	0.605991	-0.282774	-0.284323
F84	F	0.274567	-0.312562	-0.314152
H85	H	0.921214	-0.988575	-0.296232
H86	H	0.922267	-0.491233	-0.801426
F87	F	0.757424	-0.289506	-0.291056
H88	H	0.748697	-0.470860	-0.472695
H89	H	1.083322	-1.135388	-0.472944
F90	F	1.083237	-0.924715	-0.472876
F91	F	0.937312	-0.649279	-0.313864
F92	F	0.606475	-0.476247	-0.478107
H93	H	0.503636	-0.336804	-0.338435
