data_functionalizedCrystal
_audit_creation_method	'MofGen! by Chris Wilmer'
_symmetry_space_group_name_H-M	'P1'
_symmetry_Int_Tables_number	1
_symmetry_cell_setting	triclinic
loop_
_symmetry_equiv_pos_as_xyz
  x,y,z
_cell_length_a	17.699083
_cell_length_b	17.699077
_cell_length_c	14.586319
_cell_angle_alpha	89.997054
_cell_angle_beta	89.997335
_cell_angle_gamma	96.718205
loop_
_atom_site_label
_atom_site_type_symbol
_atom_site_fract_x
_atom_site_fract_y
_atom_site_fract_z
O1	O	-0.095689	1.004078	-0.076215
O2	O	0.404311	1.504078	0.423785
O3	O	-0.108146	0.783699	-0.076218
O4	O	0.391854	1.283699	0.423782
O5	O	0.008272	0.900114	-0.076225
O6	O	0.508272	1.400114	0.423775
O7	O	-0.212107	0.887662	-0.076208
O8	O	0.287893	1.387662	0.423792
O9	O	0.008274	0.900106	0.076255
O10	O	0.508274	1.400106	0.576255
O11	O	-0.108144	0.783691	0.076263
O12	O	0.391856	1.283691	0.576263
O13	O	-0.095687	1.004070	0.076266
O14	O	0.404313	1.504070	0.576266
Cu15	Cu	-0.101915	0.893879	0.090187
Cu16	Cu	0.398085	1.393879	0.590187
Cu17	Cu	-0.101918	0.893889	-0.090139
Cu18	Cu	0.398082	1.393889	0.409861
O19	O	-0.212105	0.887654	0.076273
O20	O	0.287895	1.387654	0.576273
C21	C	-0.107700	0.755498	0.000022
C22	C	0.392300	1.255498	0.500022
C23	C	-0.106363	0.671479	0.000020
C24	C	0.393637	1.171479	0.500020
C25	C	-0.105732	0.632007	0.083138
C26	C	0.394268	1.132007	0.583138
C27	C	-0.104464	0.553065	0.083139
C28	C	0.395536	1.053065	0.583139
C29	C	-0.103832	0.513595	0.000021
C30	C	0.396168	1.013595	0.500021
C31	C	-0.104460	0.553072	-0.083104
C32	C	0.395540	1.053072	0.416896
C33	C	-0.105723	0.632014	-0.083104
C34	C	0.394277	1.132014	0.416896
C35	C	-0.099367	0.234709	-0.083106
C36	C	0.400633	0.734709	0.416894
C37	C	-0.098107	0.155762	-0.083100
C38	C	0.401893	0.655762	0.416900
C39	C	-0.098108	0.155760	0.083137
C40	C	0.401892	0.655760	0.583137
C41	C	-0.099370	0.234702	0.083137
C42	C	0.400630	0.734702	0.583137
C43	C	-0.099995	0.274173	0.000013
C44	C	0.400005	0.774173	0.500013
C45	C	-0.101369	0.359772	0.000013
C46	C	0.398631	0.859772	0.500013
C47	C	-0.102464	0.427997	0.000020
C48	C	0.397536	0.927997	0.500020
C49	C	-0.240303	0.888104	0.000035
C50	C	0.259697	1.388104	0.500035
C51	C	-0.324321	0.889443	0.000042
C52	C	0.175679	1.389443	0.500042
C53	C	-0.372943	0.821109	0.000041
C54	C	0.127057	1.321109	0.500041
C55	C	-0.451887	0.822371	0.000030
C56	C	0.048113	1.322371	0.500030
C57	C	-0.482206	0.891968	0.000027
C58	C	0.017794	1.391968	0.500027
C59	C	-0.433577	0.960307	0.000025
C60	C	0.066423	1.460307	0.500025
C61	C	-0.354636	0.959044	0.000029
C62	C	0.145364	1.459044	0.500029
C63	C	-0.751940	0.965402	0.000007
C64	C	-0.251940	1.465402	0.500007
C65	C	-0.830888	0.966660	0.000005
C66	C	-0.330888	1.466660	0.500005
C67	C	-0.849191	0.828730	0.000008
C68	C	-0.349191	1.328730	0.500008
C69	C	-0.770250	0.827467	0.000012
C70	C	-0.270250	1.327467	0.500012
C71	C	-0.721628	0.895805	0.000005
C72	C	-0.221628	1.395805	0.500005
C73	C	-0.636029	0.894436	0.000015
C74	C	-0.136029	1.394436	0.500015
C75	C	-0.567804	0.893338	0.000023
C76	C	-0.067804	1.393338	0.500023
C77	C	0.036470	0.899664	0.000011
C78	C	0.536470	1.399664	0.500011
C79	C	0.120488	0.898326	-0.000002
C80	C	0.620488	1.398326	0.499998
C81	C	-0.096133	1.032271	0.000024
C82	C	0.403867	1.532271	0.500024
C83	C	-0.097470	1.116289	0.000020
C84	C	0.402530	1.616289	0.500020
N85	N	-0.101914	0.893878	0.217019
N86	N	0.398086	1.393878	0.717019
N87	N	-0.101913	0.893896	-0.216971
N88	N	0.398087	1.393896	0.283029
C89	C	-0.050381	0.945444	0.452022
C90	C	0.449619	1.445444	0.952022
C91	C	-0.050379	0.945446	0.548003
C92	C	0.449621	1.445446	1.048003
C93	C	-0.153448	0.842325	0.548019
C94	C	0.346552	1.342325	1.048019
C95	C	-0.153446	0.842320	0.452040
C96	C	0.346554	1.342320	0.952040
C97	C	-0.101913	0.893883	0.404044
C98	C	0.398087	1.393883	0.904044
C99	C	-0.101914	0.893891	0.596004
C100	C	0.398086	1.393891	1.096004
C101	C	-0.101912	0.893893	0.700071
C102	C	0.398088	1.393893	1.200071
C103	C	-0.101914	0.893881	0.299970
C104	C	0.398086	1.393881	0.799970
H105	H	-0.106238	0.664151	-0.150787
H106	H	0.393762	1.164151	0.349213
O107	O	-0.000426	0.995565	0.594710
O108	O	0.499574	1.495565	1.094710
C109	C	0.015820	1.098991	0.703017
C110	C	0.515820	1.598991	1.203017
C111	C	-0.040839	1.042262	0.650196
C112	C	0.459161	1.542262	1.150196
H113	H	-0.016832	1.136771	0.747875
H114	H	0.483168	1.636771	1.247875
H115	H	0.053580	1.066430	0.748015
H116	H	0.553580	1.566430	1.248015
H117	H	0.052665	1.135807	0.652205
H118	H	0.552665	1.635807	1.152205
H119	H	-0.077734	1.005431	0.700942
H120	H	0.422266	1.505431	1.200942
H121	H	-0.078546	1.074869	0.605184
H122	H	0.421454	1.574869	1.105184
O123	O	-0.097392	0.117514	0.163945
O124	O	0.402608	0.617514	0.663945
C125	C	-0.031439	0.102033	0.306007
C126	C	0.468561	0.602033	0.806007
C127	C	-0.032162	0.145414	0.214539
C128	C	0.467838	0.645414	0.714539
H129	H	0.021302	0.124562	0.346930
H130	H	0.521302	0.624562	0.846930
H131	H	-0.084600	0.110544	0.347061
H132	H	0.415400	0.610544	0.847061
H133	H	-0.030461	0.038830	0.291714
H134	H	0.469539	0.538830	0.791714
H135	H	-0.033113	0.208630	0.228749
H136	H	0.466887	0.708630	0.728749
H137	H	0.020995	0.136840	0.173514
H138	H	0.520995	0.636840	0.673514
H139	H	-0.888789	0.773085	0.000010
H140	H	-0.388789	1.273085	0.500010
H141	H	-0.195410	0.800329	0.412973
H142	H	0.304590	1.300329	0.912973
H143	H	-0.106253	0.664137	0.150823
H144	H	0.393747	1.164137	0.650823
H145	H	-0.712361	1.021048	0.000007
H146	H	-0.212361	1.521048	0.500007
O147	O	-0.103891	0.514834	0.163962
O148	O	0.396109	1.014834	0.663962
C149	C	-0.103990	0.523168	0.328852
C150	C	0.396010	1.023168	0.828852
C151	C	-0.104658	0.566555	0.237383
C152	C	0.395342	1.066555	0.737383
H153	H	-0.104594	0.564967	0.388236
H154	H	0.395406	1.064967	0.888236
H155	H	-0.156358	0.479199	0.333071
H156	H	0.343642	0.979199	0.833071
H157	H	-0.050463	0.493216	0.332961
H158	H	0.449537	0.993216	0.832961
H159	H	-0.158150	0.596552	0.233212
H160	H	0.341850	1.096552	0.733212
H161	H	-0.052255	0.610480	0.233203
H162	H	0.447745	1.110480	0.733203
O163	O	-0.099881	0.273138	0.163820
O164	O	0.400119	0.773138	0.663820
C165	C	-0.035729	0.370929	0.260314
C166	C	0.464271	0.870929	0.760314
C167	C	-0.035071	0.327474	0.168897
C168	C	0.464929	0.827474	0.668897
H169	H	0.016672	0.414858	0.264457
H170	H	0.516672	0.914858	0.764457
H171	H	-0.089231	0.400918	0.264492
H172	H	0.410769	0.900918	0.764492
H173	H	-0.035095	0.329137	0.319707
H174	H	0.464905	0.829137	0.819707
H175	H	-0.035678	0.369215	0.109452
H176	H	0.464322	0.869215	0.609452
H177	H	0.018426	0.297473	0.164799
H178	H	0.518426	0.797473	0.664799
O179	O	-0.097591	0.117489	-0.163904
O180	O	0.402409	0.617489	0.336096
C181	C	-0.162763	0.084596	-0.305966
C182	C	0.337237	0.584596	0.194034
C183	C	-0.163432	0.127989	-0.214506
C184	C	0.336568	0.627989	0.285494
H185	H	-0.215997	0.093057	-0.346895
H186	H	0.284003	0.593057	0.153105
H187	H	-0.110097	0.107152	-0.347018
H188	H	0.389903	0.607152	0.152982
H189	H	-0.161720	0.021403	-0.291660
H190	H	0.338280	0.521403	0.208340
H191	H	-0.164502	0.191188	-0.228728
H192	H	0.335498	0.691188	0.271272
H193	H	-0.216093	0.105371	-0.173481
H194	H	0.283907	0.605371	0.326519
H195	H	-0.745568	0.770794	0.000020
H196	H	-0.245568	1.270794	0.500020
O197	O	-0.100084	0.273110	-0.163793
O198	O	0.399916	0.773110	0.336207
C199	C	-0.167080	0.353492	-0.260306
C200	C	0.332920	0.853492	0.239694
C201	C	-0.166352	0.310050	-0.168880
C202	C	0.333648	0.810050	0.331120
H203	H	-0.220660	0.383356	-0.264457
H204	H	0.279340	0.883356	0.235543
H205	H	-0.114760	0.397524	-0.264490
H206	H	0.385240	0.897524	0.235510
H207	H	-0.166379	0.311706	-0.319690
H208	H	0.333621	0.811706	0.180310
H209	H	-0.167080	0.351779	-0.109444
H210	H	0.332920	0.851779	0.390556
H211	H	-0.218667	0.266008	-0.164777
H212	H	0.281333	0.766008	0.335223
O213	O	-0.860215	1.034337	-0.000047
O214	O	-0.360215	1.534337	0.499953
C215	C	-0.833734	1.171017	-0.000013
C216	C	-0.333734	1.671017	0.499987
C217	C	-0.800420	1.094434	0.000025
C218	C	-0.300420	1.594434	0.500025
H219	H	-0.785406	1.219626	0.000065
H220	H	-0.285406	1.719626	0.500065
H221	H	-0.870205	1.175102	-0.063842
H222	H	-0.370205	1.675102	0.436158
H223	H	-0.870265	1.175016	0.063784
H224	H	-0.370265	1.675016	0.563784
H225	H	-0.763855	1.090383	-0.063729
H226	H	-0.263855	1.590383	0.436271
H227	H	-0.763992	1.090382	0.063896
H228	H	-0.263992	1.590382	0.563896
H229	H	-0.195407	0.800344	0.587107
H230	H	0.304593	1.300344	1.087107
H231	H	-0.008419	0.987429	0.412946
H232	H	0.491581	1.487429	0.912946
H233	H	-0.315047	1.014688	0.000026
H234	H	0.184953	1.514688	0.500026
O235	O	-0.103952	0.514801	-0.163903
O236	O	0.396048	1.014801	0.336097
C237	C	-0.169143	0.481914	-0.305954
C238	C	0.330857	0.981914	0.194046
C239	C	-0.169800	0.525304	-0.214491
C240	C	0.330200	1.025304	0.285509
H241	H	-0.222383	0.490377	-0.346873
H242	H	0.277617	0.990377	0.153127
H243	H	-0.116482	0.504470	-0.347016
H244	H	0.383518	1.004470	0.152984
H245	H	-0.168100	0.418720	-0.291653
H246	H	0.331900	0.918720	0.208347
H247	H	-0.170870	0.588504	-0.228710
H248	H	0.329130	1.088504	0.271290
H249	H	-0.222456	0.502686	-0.173458
H250	H	0.277544	1.002686	0.326542
H251	H	-0.348264	0.764435	0.000054
H252	H	0.151736	1.264435	0.500054
H253	H	-0.491472	0.766727	0.000027
H254	H	0.008528	1.266727	0.500027
O255	O	-0.463153	1.027848	0.000062
O256	O	0.036847	1.527848	0.500062
C257	C	-0.576652	1.090926	0.000005
C258	C	-0.076652	1.590926	0.500005
C259	C	-0.543262	1.014382	-0.000019
C260	C	-0.043262	1.514382	0.499981
H261	H	-0.641424	1.080066	-0.000079
H262	H	-0.141424	1.580066	0.499921
H263	H	-0.556674	1.124696	0.063834
H264	H	-0.056674	1.624696	0.563834
H265	H	-0.556567	1.124689	-0.063792
H266	H	-0.056567	1.624689	0.436208
H267	H	-0.563331	0.980557	0.063736
H268	H	-0.063331	1.480557	0.563736
H269	H	-0.563235	0.980670	-0.063889
H270	H	-0.063235	1.480670	0.436111
