data_functionalizedCrystal
_audit_creation_method	'MofGen! by Chris Wilmer'
_symmetry_space_group_name_H-M	'P1'
_symmetry_Int_Tables_number	1
_symmetry_cell_setting	triclinic
loop_
_symmetry_equiv_pos_as_xyz
  x,y,z
_cell_length_a	6.817900
_cell_length_b	16.856659
_cell_length_c	11.168121
_cell_angle_alpha	82.080389
_cell_angle_beta	71.491504
_cell_angle_gamma	90.698821
loop_
_atom_site_label
_atom_site_type_symbol
_atom_site_fract_x
_atom_site_fract_y
_atom_site_fract_z
V1	V	-3.912218	-0.247302	0.173969
O2	O	-3.875570	-0.242587	-0.009117
O3	O	-3.889852	-0.245617	0.345679
O4	O	-3.802302	-0.355155	0.170960
O5	O	-3.963726	-0.132290	0.166811
V6	V	-4.400443	-0.233545	0.152109
O7	O	-4.163161	-0.277479	0.221920
O8	O	-4.599697	-0.203367	0.104157
O9	O	-4.199602	-0.235229	-0.019602
O10	O	-4.554487	-0.238259	0.335195
O11	O	-4.466332	-0.348556	0.159266
O12	O	-4.287152	-0.125691	0.155117
C13	C	-3.743176	-0.241717	0.387549
C14	C	-3.805767	-0.241058	0.527922
C15	C	-3.631498	-0.381444	0.164676
C16	C	-3.623086	-0.469615	0.163353
C17	C	-3.571129	-0.498154	0.052902
C18	C	-3.562434	-0.589283	0.051532
C19	C	-4.121286	-0.099398	0.161403
C20	C	-4.108708	-0.009570	0.162750
V21	V	-3.829558	0.124572	0.172052
O22	O	-3.763665	0.239584	0.164892
O23	O	-3.942853	0.016719	0.169046
O24	O	-4.030392	0.126258	0.343764
O25	O	-3.675520	0.129286	-0.011035
V26	V	-3.317765	0.138328	0.150183
O27	O	-3.630300	0.094394	0.220000
O28	O	-3.066821	0.168504	0.102228
O29	O	-3.427677	0.246182	0.153193
O30	O	-3.266259	0.023316	0.157341
O31	O	-3.354404	0.133614	0.333268
O32	O	-3.340139	0.136643	-0.021525
C33	C	-4.009622	-0.239127	-0.061465
C34	C	-3.926267	-0.239791	-0.201837
C35	C	-3.598482	0.272471	0.159479
C36	C	-3.606890	0.360642	0.160802
C37	C	-4.220372	0.130156	0.385629
C38	C	-4.303722	0.130820	0.526001
C39	C	-4.005504	-0.244527	0.596604
C40	C	-4.070198	-0.243846	0.741687
C41	C	-3.486815	0.132743	-0.063392
C42	C	-3.424224	0.132081	-0.203764
C43	C	-4.175618	0.127353	0.594680
C44	C	-4.261760	0.128039	0.739763
H45	H	-3.533075	-0.455122	-0.040644
Br46	Br	-3.686477	-0.541329	0.319278
H47	H	-4.128611	-0.248004	0.547997
H48	H	-3.651396	-0.614779	0.255370
Br49	Br	-4.355403	-0.248784	0.840083
Br50	Br	-3.641057	-0.234834	0.699771
H51	H	-3.682660	-0.237590	0.576531
H52	H	-3.517948	-0.613868	-0.043031
H53	H	-4.573724	0.135061	0.737211
H54	H	-4.477167	0.134303	0.574610
H55	H	-4.002168	0.123882	0.546069
H56	H	-4.152229	0.125068	0.798803
