data_functionalizedCrystal
_audit_creation_method	'MofGen! by Chris Wilmer'
_symmetry_space_group_name_H-M	'P1'
_symmetry_Int_Tables_number	1
_symmetry_cell_setting	triclinic
loop_
_symmetry_equiv_pos_as_xyz
  x,y,z
_cell_length_a	16.625547
_cell_length_b	12.594516
_cell_length_c	16.625539
_cell_angle_alpha	89.976673
_cell_angle_beta	89.975178
_cell_angle_gamma	90.015990
loop_
_atom_site_label
_atom_site_type_symbol
_atom_site_fract_x
_atom_site_fract_y
_atom_site_fract_z
Zn1	Zn	1.232716	-0.423742	-0.456029
Zn2	Zn	1.566050	-0.090409	-0.122695
Zn3	Zn	1.899383	0.242925	0.210638
Zn4	Zn	1.232635	-0.601743	-0.321208
Zn5	Zn	1.565968	-0.268410	0.012126
Zn6	Zn	1.899301	0.064923	0.345459
Zn7	Zn	1.097878	-0.423779	-0.321199
Zn8	Zn	1.431212	-0.090446	0.012134
Zn9	Zn	1.764545	0.242888	0.345467
Zn10	Zn	1.097864	-0.601679	-0.455988
Zn11	Zn	1.431197	-0.268345	-0.122654
Zn12	Zn	1.764530	0.064988	0.210679
O13	O	1.165273	-0.512736	-0.388606
O14	O	1.498607	-0.179402	-0.055272
O15	O	1.831940	0.153931	0.278061
O16	O	1.345538	-0.447366	-0.438165
O17	O	1.678871	-0.114032	-0.104832
O18	O	2.012205	0.219301	0.228501
O19	O	1.214731	-0.578178	-0.208374
O20	O	1.548064	-0.244845	0.124959
O21	O	1.881398	0.088488	0.458293
O22	O	1.115805	-0.274828	-0.339098
O23	O	1.449138	0.058505	-0.005765
O24	O	1.782472	0.391838	0.327568
O25	O	1.345478	-0.578143	-0.339113
O26	O	1.678811	-0.244809	-0.005779
O27	O	2.012145	0.088524	0.327554
O28	O	1.214870	-0.274801	-0.438157
O29	O	1.548203	0.058532	-0.104824
O30	O	1.881537	0.391866	0.228510
O31	O	1.115726	-0.447429	-0.208368
O32	O	1.449059	-0.114096	0.124965
O33	O	1.782393	0.219238	0.458299
O34	O	0.985044	-0.447366	-0.339058
O35	O	1.318377	-0.114033	-0.005725
O36	O	1.651711	0.219300	0.327608
O37	O	1.115780	-0.578032	-0.568825
O38	O	1.449114	-0.244699	-0.235492
O39	O	1.782447	0.088634	0.097841
O40	O	0.985033	-0.578068	-0.438087
O41	O	1.318367	-0.244735	-0.104753
O42	O	1.651700	0.088598	0.228580
O43	O	1.214856	-0.447303	-0.568856
O44	O	1.548189	-0.113970	-0.235522
O45	O	1.881523	0.219364	0.097811
O46	O	1.214717	-0.750680	-0.339073
O47	O	1.548050	-0.417347	-0.005739
O48	O	1.881384	-0.084014	0.327594
O49	O	1.115701	-0.750633	-0.438095
O50	O	1.449035	-0.417300	-0.104762
O51	O	1.782368	-0.083966	0.228572
C52	C	0.955782	-0.512715	-0.388568
C53	C	1.289116	-0.179382	-0.055234
C54	C	1.622449	0.153952	0.278099
C55	C	0.866161	-0.512732	-0.388571
C56	C	1.199495	-0.179398	-0.055237
C57	C	1.532828	0.153935	0.278096
C58	C	0.793379	-0.512734	-0.388581
C59	C	1.126712	-0.179401	-0.055247
C60	C	1.460046	0.153933	0.278086
C61	C	0.702070	-0.512739	-0.388601
C62	C	1.035404	-0.179406	-0.055267
C63	C	1.368737	0.153927	0.278066
C64	C	0.629294	-0.512749	-0.388621
C65	C	0.962627	-0.179416	-0.055288
C66	C	1.295961	0.153917	0.278045
C67	C	0.537980	-0.512757	-0.388641
C68	C	0.871313	-0.179423	-0.055307
C69	C	1.204646	0.153910	0.278026
C70	C	1.165220	-0.789277	-0.388598
C71	C	1.498554	-0.455943	-0.055265
C72	C	1.831887	-0.122610	0.278069
C73	C	1.165272	-0.907582	-0.388622
C74	C	1.498605	-0.574249	-0.055288
C75	C	1.831938	-0.240915	0.278045
C76	C	1.111412	-0.976848	-0.442442
C77	C	1.444745	-0.643515	-0.109108
C78	C	1.778078	-0.310181	0.224225
C79	C	1.091767	-1.047709	-0.368866
C80	C	1.425100	-0.714375	-0.035532
C81	C	1.758433	-0.381042	0.297801
C82	C	1.184990	-1.047521	-0.462210
C83	C	1.518323	-0.714187	-0.128877
C84	C	1.851657	-0.380854	0.204457
C85	C	1.145588	-0.976884	-0.315007
C86	C	1.478921	-0.643551	0.018327
C87	C	1.812254	-0.310218	0.351660
C88	C	1.238845	-0.976690	-0.408400
C89	C	1.572179	-0.643357	-0.075067
C90	C	1.905512	-0.310023	0.258266
C91	C	1.219228	-1.047519	-0.334774
C92	C	1.552562	-0.714185	-0.001440
C93	C	1.885895	-0.380852	0.331893
C94	C	1.375582	-0.512757	-0.388645
C95	C	1.708916	-0.179424	-0.055311
C96	C	2.042249	0.153909	0.278022
C97	C	1.465203	-0.512766	-0.388661
C98	C	1.798537	-0.179433	-0.055328
C99	C	2.131870	0.153900	0.278006
C100	C	1.165326	-0.512656	-0.598915
C101	C	1.498659	-0.179323	-0.265581
C102	C	1.831992	0.154010	0.067752
C103	C	1.165348	-0.512623	-0.688536
C104	C	1.498681	-0.179289	-0.355203
C105	C	1.832015	0.154044	-0.021869
C106	C	1.165348	-0.235115	-0.388631
C107	C	1.498682	0.098219	-0.055298
C108	C	1.832015	0.431552	0.278035
C109	C	1.165380	-0.116809	-0.388642
C110	C	1.498714	0.216524	-0.055309
C111	C	1.832047	0.549857	0.278024
C112	C	1.165385	-0.512503	-1.016712
C113	C	1.498719	-0.179170	-0.683379
C114	C	1.832052	0.154163	-0.350045
C115	C	1.165373	-0.512540	-0.925403
C116	C	1.498706	-0.179207	-0.592070
C117	C	1.832039	0.154127	-0.258737
C118	C	1.165367	-0.512564	-0.852627
C119	C	1.498700	-0.179231	-0.519293
C120	C	1.832034	0.154103	-0.185960
C121	C	1.165354	-0.512599	-0.761312
C122	C	1.498687	-0.179265	-0.427979
C123	C	1.832020	0.154068	-0.094646
C124	C	1.165268	-0.512738	-0.179115
C125	C	1.498601	-0.179405	0.154218
C126	C	1.831934	0.153929	0.487552
C127	C	1.165401	-0.512472	-0.089494
C128	C	1.498735	-0.179138	0.243839
C129	C	1.832068	0.154195	0.577172
H130	H	1.029597	-1.078926	-0.352154
H131	H	1.362931	-0.745593	-0.018820
H132	H	1.696264	-0.412260	0.314513
H133	H	1.201624	-1.078549	-0.524435
H134	H	1.534958	-0.745215	-0.191101
H135	H	1.868291	-0.411882	0.142232
N136	N	1.124620	-0.938114	-0.236931
N137	N	1.457953	-0.604780	0.096403
N138	N	1.791286	-0.271447	0.429736
N139	N	1.121154	-0.840384	-0.224331
N140	N	1.454488	-0.507051	0.109003
N141	N	1.787821	-0.173718	0.442336
H142	H	1.106338	-0.812999	-0.169193
H143	H	1.439672	-0.479666	0.164140
H144	H	1.773005	-0.146332	0.497474
H145	H	1.264822	-1.078354	-0.289216
H146	H	1.598156	-0.745020	0.044117
H147	H	1.931489	-0.411687	0.377451
N148	N	1.054164	-0.937909	-0.499443
N149	N	1.387497	-0.604575	-0.166110
N150	N	1.720830	-0.271242	0.167224
N151	N	0.997564	-0.879980	-0.476591
N152	N	1.330897	-0.546646	-0.143257
N153	N	1.664230	-0.213313	0.190076
H154	H	0.957130	-0.852477	-0.516843
H155	H	1.290463	-0.519143	-0.183510
H156	H	1.623796	-0.185810	0.149824
H157	H	1.301000	-0.945475	-0.425148
H158	H	1.634334	-0.612142	-0.091815
H159	H	1.967667	-0.278808	0.241519
