data_functionalizedCrystal
_audit_creation_method	'MofGen! by Chris Wilmer'
_symmetry_space_group_name_H-M	'P1'
_symmetry_Int_Tables_number	1
_symmetry_cell_setting	triclinic
loop_
_symmetry_equiv_pos_as_xyz
  x,y,z
_cell_length_a	19.188930
_cell_length_b	19.188930
_cell_length_c	18.266242
_cell_angle_alpha	89.988525
_cell_angle_beta	89.977082
_cell_angle_gamma	83.144779
loop_
_atom_site_label
_atom_site_type_symbol
_atom_site_fract_x
_atom_site_fract_y
_atom_site_fract_z
O1	O	0.926149	0.087169	-0.061124
O2	O	1.426149	0.587169	0.438876
O3	O	0.722838	0.098903	-0.061075
O4	O	1.222838	0.598903	0.438925
O5	O	0.830361	-0.008620	-0.061087
O6	O	1.330361	0.491380	0.438913
O7	O	0.818627	0.194691	-0.061113
O8	O	1.318627	0.694691	0.438887
O9	O	0.830343	-0.008625	0.060675
O10	O	1.330343	0.491375	0.560675
O11	O	0.722820	0.098897	0.060687
O12	O	1.222820	0.598897	0.560687
O13	O	0.926131	0.087163	0.060638
O14	O	1.426131	0.587163	0.560638
Zn15	Zn	0.824473	0.093029	0.079994
Zn16	Zn	1.324473	0.593029	0.579994
Zn17	Zn	0.824497	0.093037	-0.080432
Zn18	Zn	1.324497	0.593037	0.419568
O19	O	0.818608	0.194686	0.060649
O20	O	1.318608	0.694686	0.560649
C21	C	0.696818	0.098520	-0.000188
C22	C	1.196818	0.598520	0.499812
C23	C	0.619313	0.097380	-0.000169
C24	C	1.119313	0.597380	0.499831
C25	C	0.829972	-0.034634	-0.000204
C26	C	1.329972	0.465366	0.499796
C27	C	0.828831	-0.112138	-0.000197
C28	C	1.328831	0.387862	0.499803
C29	C	0.574389	0.160470	-0.000188
C30	C	1.074389	0.660470	0.499812
C31	C	0.501566	0.159399	-0.000196
C32	C	1.001566	0.659399	0.499804
C33	C	0.473669	0.095233	-0.000199
C34	C	0.973669	0.595233	0.499801
C35	C	0.518603	0.032133	-0.000175
C36	C	1.018603	0.532133	0.499825
C37	C	0.591425	0.033207	-0.000160
C38	C	1.091425	0.533207	0.499840
N39	N	0.365695	0.046188	-0.041663
N40	N	0.865695	0.546188	0.458337
N41	N	0.296516	0.045172	-0.041679
N42	N	0.796516	0.545172	0.458321
C43	C	0.254260	0.091994	-0.000243
C44	C	0.754260	0.591994	0.499757
N45	N	0.283795	0.139881	0.041200
N46	N	0.783795	0.639881	0.541200
N47	N	0.352980	0.140899	0.041213
N48	N	0.852980	0.640899	0.541213
C49	C	0.394707	0.094062	-0.000215
C50	C	0.894707	0.594062	0.499785
C51	C	0.130372	0.153928	-0.000270
C52	C	0.630372	0.653928	0.499730
C53	C	0.057547	0.152853	-0.000274
C54	C	0.557547	0.652853	0.499726
C55	C	0.074586	0.025586	-0.000261
C56	C	0.574586	0.525586	0.499739
C57	C	0.147409	0.026662	-0.000250
C58	C	0.647409	0.526662	0.499750
C59	C	0.175298	0.090835	-0.000258
C60	C	0.675298	0.590835	0.499742
C61	C	0.891922	-0.157062	-0.000209
C62	C	1.391922	0.342938	0.499791
C63	C	0.890850	-0.229886	-0.000220
C64	C	1.390850	0.270114	0.499780
C65	C	0.826684	-0.257782	-0.000206
C66	C	1.326684	0.242218	0.499794
C67	C	0.763585	-0.212849	-0.000198
C68	C	1.263585	0.287151	0.499802
C69	C	0.764658	-0.140026	-0.000194
C70	C	1.264658	0.359974	0.499806
N71	N	0.777631	-0.365789	0.041244
N72	N	1.277631	0.134211	0.541244
N73	N	0.776615	-0.434968	0.041242
N74	N	1.276615	0.065032	0.541242
C75	C	0.823446	-0.477191	-0.000220
C76	C	1.323446	0.022809	0.499780
N77	N	0.871341	-0.447624	-0.041669
N78	N	1.371341	0.052376	0.458331
N79	N	0.872359	-0.378439	-0.041664
N80	N	1.372359	0.121561	0.458336
C81	C	0.825513	-0.336745	-0.000210
C82	C	1.325513	0.163255	0.499790
C83	C	0.885379	-0.601079	-0.000245
C84	C	1.385379	-0.101079	0.499755
C85	C	0.884305	-0.673904	-0.000261
C86	C	1.384305	-0.173904	0.499739
C87	C	0.757038	-0.656865	-0.000231
C88	C	1.257038	-0.156865	0.499769
C89	C	0.758114	-0.584042	-0.000222
C90	C	1.258114	-0.084042	0.499778
C91	C	0.822287	-0.556154	-0.000226
C92	C	1.322287	-0.056154	0.499774
C93	C	0.952151	0.087546	-0.000252
C94	C	1.452151	0.587546	0.499748
C95	C	1.029656	0.088687	-0.000276
C96	C	1.529656	0.588687	0.499724
C97	C	0.818997	0.220700	-0.000236
C98	C	1.318997	0.720700	0.499764
C99	C	0.820138	0.298204	-0.000247
C100	C	1.320138	0.798204	0.499753
N101	N	0.824461	0.093024	0.189481
N102	N	1.324461	0.593024	0.689481
N103	N	0.824513	0.093037	-0.189919
N104	N	1.324513	0.593037	0.310081
C105	C	0.872088	0.045436	0.227785
C106	C	1.372088	0.545436	0.727785
C107	C	0.872092	0.045433	0.304430
C108	C	1.372092	0.545433	0.804430
C109	C	0.824477	0.093030	0.342768
C110	C	1.324477	0.593030	0.842768
C111	C	0.776841	0.140621	0.304455
C112	C	1.276841	0.640621	0.804455
C113	C	0.776834	0.140618	0.227812
C114	C	1.276834	0.640618	0.727812
N115	N	0.815401	0.154837	0.463094
N116	N	1.315401	0.654837	0.963094
N117	N	0.815413	0.154838	0.535902
N118	N	1.315413	0.654838	1.035902
C119	C	0.824496	0.093040	0.573691
C120	C	1.324496	0.593040	1.073691
N121	N	0.833582	0.031239	0.535920
N122	N	1.333582	0.531239	1.035920
N123	N	0.833574	0.031240	0.463106
N124	N	1.333574	0.531240	0.963106
C125	C	0.824480	0.093038	0.425875
C126	C	1.324480	0.593038	0.925875
C127	C	0.872131	0.045444	0.695101
C128	C	1.372131	0.545444	1.195101
C129	C	0.872130	0.045440	0.771748
C130	C	1.372130	0.545440	1.271748
C131	C	0.776882	0.140634	0.771772
C132	C	1.276882	0.640634	1.271772
C133	C	0.776879	0.140632	0.695127
C134	C	1.276879	0.640632	1.195127
C135	C	0.824507	0.093038	0.656796
C136	C	1.324507	0.593038	1.156796
H137	H	0.597091	0.212725	-0.000196
H138	H	1.097091	0.712725	0.499804
N139	N	0.725519	0.191966	0.813112
N140	N	1.225519	0.691966	1.313112
H141	H	0.752099	0.222819	0.844892
H142	H	1.252099	0.722819	1.344892
H143	H	0.695359	0.222065	0.777165
H144	H	1.195359	0.722065	1.277165
N145	N	0.725459	0.191949	0.186499
N146	N	1.225459	0.691949	0.686499
H147	H	0.733345	0.241485	0.199822
H148	H	1.233345	0.741485	0.699822
H149	H	0.732705	0.184667	0.132142
H150	H	1.232705	0.684667	0.632142
H151	H	0.910868	0.006681	0.196579
H152	H	1.410868	0.506681	0.696579
N153	N	0.453100	0.227449	-0.000219
N154	N	0.953100	0.727449	0.499781
H155	H	0.481817	0.268264	-0.000221
H156	H	0.981817	0.768264	0.499779
H157	H	0.422543	0.229769	-0.045366
H158	H	0.922543	0.729769	0.454634
N159	N	0.488520	-0.037075	-0.000170
N160	N	0.988520	0.462925	0.499830
H161	H	0.435570	-0.028182	-0.000183
H162	H	0.935570	0.471818	0.499817
H163	H	0.504994	-0.064677	-0.045300
H164	H	1.004994	0.435323	0.454700
N165	N	0.639887	-0.034842	-0.000148
N166	N	1.139887	0.465158	0.499852
H167	H	0.670458	-0.037233	0.044994
H168	H	1.170458	0.462767	0.544994
H169	H	0.611122	-0.075618	-0.000177
H170	H	1.111122	0.424382	0.499823
N171	N	0.725509	0.191964	0.653815
N172	N	1.225509	0.691964	1.153815
H173	H	0.733396	0.241500	0.667136
H174	H	1.233396	0.741500	1.167136
H175	H	0.732751	0.184682	0.599457
H176	H	1.232751	0.684682	1.099457
H177	H	0.153080	0.206181	-0.000267
H178	H	0.653080	0.706181	0.499733
H179	H	0.910877	0.006680	0.335623
H180	H	1.410877	0.506680	0.835623
N181	N	0.009089	0.220905	-0.000236
N182	N	0.509089	0.720905	0.499764
H183	H	0.037810	0.261717	-0.000223
H184	H	0.537810	0.761717	0.499777
H185	H	-0.021498	0.223264	-0.045363
H186	H	0.478502	0.723264	0.454637
H187	H	0.051874	-0.026659	-0.000309
H188	H	0.551874	0.473341	0.499691
H189	H	0.738071	0.179374	0.335674
H190	H	1.238071	0.679374	0.835674
N191	N	0.923495	-0.005888	0.653752
N192	N	1.423495	0.494112	1.153752
H193	H	0.953664	-0.036040	0.689651
H194	H	1.453664	0.463960	1.189651
H195	H	0.896860	-0.036688	0.621971
H196	H	1.396860	0.463312	1.121971
H197	H	0.183988	-0.024713	-0.000238
H198	H	0.683988	0.475287	0.499762
H199	H	0.944176	-0.134360	-0.000214
H200	H	1.444176	0.365640	0.499786
N201	N	0.958900	-0.278352	-0.000235
N202	N	1.458900	0.221648	0.499765
H203	H	0.999715	-0.249634	-0.000238
H204	H	1.499715	0.250366	0.499762
H205	H	0.961213	-0.308946	0.044903
H206	H	1.461213	0.191054	0.544903
H207	H	0.910911	0.006685	0.802935
H208	H	1.410911	0.506685	1.302935
N209	N	0.694376	-0.242932	-0.000186
N210	N	1.194376	0.257068	0.499814
H211	H	0.703269	-0.295882	-0.000188
H212	H	1.203269	0.204118	0.499812
H213	H	0.666769	-0.226492	0.044959
H214	H	1.166769	0.273508	0.544959
H215	H	0.713281	-0.103448	-0.000184
H216	H	1.213281	0.396552	0.499816
N217	N	0.952358	-0.722360	-0.000268
N218	N	1.452358	-0.222360	0.499732
H219	H	0.941942	-0.772725	-0.000273
H220	H	1.441942	-0.272725	0.499727
H221	H	0.980345	-0.713339	-0.045408
H222	H	1.480345	-0.213339	0.454592
N223	N	0.687824	-0.686936	-0.000217
N224	N	1.187824	-0.186936	0.499783
H225	H	0.684547	-0.716758	-0.045355
H226	H	1.184547	-0.216758	0.454645
H227	H	0.684574	-0.716746	0.044949
H228	H	1.184574	-0.216746	0.544949
N229	N	0.954589	-0.570993	-0.000252
N230	N	1.454589	-0.070993	0.499748
H231	H	0.994396	-0.610505	-0.000267
H232	H	1.494396	-0.110505	0.499733
H233	H	0.957813	-0.541136	-0.045387
H234	H	1.457813	-0.041136	0.454613
H235	H	0.706738	-0.547464	-0.000208
H236	H	1.206738	-0.047464	0.499792
