data_functionalizedCrystal
_audit_creation_method	'MofGen! by Chris Wilmer'
_symmetry_space_group_name_H-M	'P1'
_symmetry_Int_Tables_number	1
_symmetry_cell_setting	triclinic
loop_
_symmetry_equiv_pos_as_xyz
  x,y,z
_cell_length_a	23.532407
_cell_length_b	23.532407
_cell_length_c	14.750779
_cell_angle_alpha	77.433997
_cell_angle_beta	102.563622
_cell_angle_gamma	82.848712
loop_
_atom_site_label
_atom_site_type_symbol
_atom_site_fract_x
_atom_site_fract_y
_atom_site_fract_z
O1	O	0.742834	0.081554	-0.079778
O2	O	1.076168	0.414887	0.253555
O3	O	1.409501	0.748221	0.586889
O4	O	0.576968	0.091560	-0.079794
O5	O	0.910302	0.424893	0.253539
O6	O	1.243635	0.758226	0.586872
O7	O	0.664906	0.003622	-0.079768
O8	O	0.998239	0.336956	0.253565
O9	O	1.331572	0.670289	0.586899
O10	O	0.654897	0.169491	-0.079804
O11	O	0.988230	0.502825	0.253529
O12	O	1.321563	0.836158	0.586862
O13	O	0.689764	-0.021234	0.079890
O14	O	1.023098	0.312100	0.413223
O15	O	1.356431	0.645433	0.746556
O16	O	0.601827	0.066704	0.079863
O17	O	0.935160	0.400037	0.413197
O18	O	1.268494	0.733370	0.746530
O19	O	0.767693	0.056698	0.079880
O20	O	1.101026	0.390031	0.413213
O21	O	1.434360	0.723365	0.746547
Zn22	Zn	0.688707	0.057754	0.105221
Zn23	Zn	1.022040	0.391088	0.438554
Zn24	Zn	1.355374	0.724421	0.771887
Zn25	Zn	0.655954	0.090503	-0.105135
Zn26	Zn	0.989288	0.423837	0.228198
Zn27	Zn	1.322621	0.757170	0.561531
O28	O	0.679756	0.144635	0.079853
O29	O	1.013089	0.477969	0.413187
O30	O	1.346422	0.811302	0.746520
C31	C	0.568181	0.078877	0.000033
C32	C	0.901515	0.412211	0.333366
C33	C	1.234848	0.745544	0.666699
C34	C	0.504963	0.078112	0.000027
C35	C	0.838297	0.411446	0.333360
C36	C	1.171630	0.744779	0.666694
C37	C	0.238802	0.022911	0.000065
C38	C	0.572135	0.356244	0.333398
C39	C	0.905469	0.689578	0.666732
C40	C	0.298202	0.023622	0.000065
C41	C	0.631535	0.356956	0.333398
C42	C	0.964869	0.690289	0.666731
O43	O	0.334953	-0.020170	0.000108
O44	O	0.668287	0.313163	0.333441
O45	O	1.001620	0.646496	0.666774
N46	N	0.320826	0.075901	0.000047
N47	N	0.654159	0.409235	0.333380
N48	N	0.987492	0.742568	0.666713
C49	C	0.284047	0.127471	0.000039
C50	C	0.617380	0.460804	0.333372
C51	C	0.950713	0.794138	0.666706
O52	O	0.308744	0.172004	0.000025
O53	O	0.642078	0.505337	0.333358
O54	O	0.975411	0.838670	0.666691
C55	C	0.224649	0.126758	0.000046
C56	C	0.557982	0.460091	0.333380
C57	C	0.891315	0.793424	0.666713
C58	C	0.202027	0.074477	0.000055
C59	C	0.535361	0.407810	0.333388
C60	C	0.868694	0.741143	0.666721
C61	C	0.216180	-0.029366	0.000074
C62	C	0.549513	0.303967	0.333408
C63	C	0.882847	0.637301	0.666741
C64	C	0.156784	-0.030077	0.000073
C65	C	0.490117	0.303256	0.333406
C66	C	0.823450	0.636590	0.666740
C67	C	0.120009	0.021489	0.000062
C68	C	0.453343	0.354822	0.333396
C69	C	0.786676	0.688156	0.666729
C70	C	0.142631	0.073766	0.000053
C71	C	0.475964	0.407099	0.333386
C72	C	0.809298	0.740432	0.666720
C73	C	0.187872	0.178325	0.000045
C74	C	0.521206	0.511659	0.333379
C75	C	0.854539	0.844992	0.666712
C76	C	0.128471	0.177608	0.000053
C77	C	0.461804	0.510941	0.333387
C78	C	0.795138	0.844274	0.666720
C79	C	0.105850	0.125327	0.000062
C80	C	0.439183	0.458660	0.333395
C81	C	0.772516	0.791993	0.666728
C82	C	0.046460	0.124621	0.000041
C83	C	0.379793	0.457954	0.333374
C84	C	0.713127	0.791287	0.666708
N85	N	0.023837	0.072342	0.000059
N86	N	0.357170	0.405675	0.333392
N87	N	0.690503	0.739008	0.666726
C88	C	0.060611	0.020776	0.000070
C89	C	0.393945	0.354109	0.333403
C90	C	0.727278	0.687442	0.666736
C91	C	0.408787	0.128964	0.000025
C92	C	0.742121	0.462298	0.333359
C93	C	1.075454	0.795631	0.666692
C94	C	0.468183	0.129679	0.000011
C95	C	0.801516	0.463013	0.333345
C96	C	1.134850	0.796346	0.666678
C97	C	0.482334	0.025830	0.000039
C98	C	0.815668	0.359163	0.333372
C99	C	1.149001	0.692497	0.666705
C100	C	0.422937	0.025117	0.000046
C101	C	0.756270	0.358450	0.333379
C102	C	1.089603	0.691784	0.666713
C103	C	0.386164	0.076685	0.000043
C104	C	0.719497	0.410019	0.333377
C105	C	1.052830	0.743352	0.666710
C106	C	-0.064126	0.019287	0.000066
C107	C	0.269207	0.352620	0.333399
C108	C	0.602541	0.685953	0.666733
C109	C	-0.123529	0.018581	0.000061
C110	C	0.209804	0.351914	0.333394
C111	C	0.543138	0.685248	0.666727
C112	C	-0.137675	0.122429	0.000038
C113	C	0.195659	0.455762	0.333372
C114	C	0.528992	0.789095	0.666705
C115	C	-0.078278	0.123136	0.000038
C116	C	0.255056	0.456469	0.333372
C117	C	0.588389	0.789802	0.666705
C118	C	-0.041504	0.071559	0.000056
C119	C	0.291830	0.404893	0.333389
C120	C	0.625163	0.738226	0.666722
O121	O	0.009675	0.168390	0.000002
O122	O	0.343008	0.501723	0.333336
O123	O	0.676342	0.835056	0.666669
O124	O	0.035908	-0.023752	0.000097
O125	O	0.369241	0.309582	0.333430
O126	O	0.702574	0.642915	0.666763
C127	C	0.677081	-0.030022	0.000063
C128	C	1.010414	0.303311	0.333397
C129	C	1.343747	0.636645	0.666730
C130	C	0.676316	-0.093240	0.000071
C131	C	1.009649	0.240093	0.333404
C132	C	1.342983	0.573426	0.666737
C133	C	0.723542	-0.492336	0.000023
C134	C	1.056875	-0.159003	0.333356
C135	C	1.390209	0.174331	0.666689
C136	C	0.722829	-0.551735	0.000015
C137	C	1.056163	-0.218402	0.333349
C138	C	1.389496	0.114932	0.666682
O139	O	0.766610	-0.588475	-0.000016
O140	O	1.099944	-0.255141	0.333318
O141	O	1.433277	0.078192	0.666651
N142	N	0.670552	-0.574360	0.000011
N143	N	1.003886	-0.241027	0.333344
N144	N	1.337219	0.092306	0.666677
C145	C	0.618983	-0.537582	0.000004
C146	C	0.952316	-0.204248	0.333337
C147	C	1.285650	0.129085	0.666670
O148	O	0.574452	-0.562281	-0.000002
O149	O	0.907785	-0.228947	0.333332
O150	O	1.241118	0.104386	0.666665
C151	C	0.619695	-0.478183	0.000004
C152	C	0.953029	-0.144849	0.333338
C153	C	1.286362	0.188484	0.666671
C154	C	0.671977	-0.455562	0.000019
C155	C	1.005310	-0.122229	0.333352
C156	C	1.338644	0.211104	0.666685
C157	C	0.775819	-0.469715	0.000036
C158	C	1.109153	-0.136381	0.333369
C159	C	1.442486	0.196952	0.666702
C160	C	0.776532	-0.410320	0.000045
C161	C	1.109865	-0.076987	0.333378
C162	C	1.443199	0.256347	0.666712
C163	C	0.724967	-0.373546	0.000041
C164	C	1.058301	-0.040213	0.333374
C165	C	1.391634	0.293120	0.666708
C166	C	0.672690	-0.396168	0.000028
C167	C	1.006023	-0.062834	0.333361
C168	C	1.339356	0.270499	0.666694
C169	C	0.568125	-0.441404	-0.000010
C170	C	0.901459	-0.108071	0.333324
C171	C	1.234792	0.225262	0.666657
C172	C	0.568842	-0.382002	-0.000010
C173	C	0.902175	-0.048668	0.333324
C174	C	1.235509	0.284665	0.666657
C175	C	0.621124	-0.359381	0.000005
C176	C	0.954457	-0.026048	0.333338
C177	C	1.287791	0.307285	0.666671
C178	C	0.621837	-0.299999	0.000033
C179	C	0.955171	0.033334	0.333366
C180	C	1.288504	0.366667	0.666699
N181	N	0.674115	-0.277374	0.000037
N182	N	1.007448	0.055959	0.333371
N183	N	1.340781	0.389293	0.666704
C184	C	0.725679	-0.314147	0.000041
C185	C	1.059013	0.019186	0.333375
C186	C	1.392346	0.352519	0.666708
C187	C	0.617491	-0.662324	0.000001
C188	C	0.950825	-0.328991	0.333334
C189	C	1.284158	0.004343	0.666668
C190	C	0.616780	-0.721723	0.000007
C191	C	0.950113	-0.388389	0.333341
C192	C	1.283446	-0.055056	0.666674
C193	C	0.720626	-0.735872	0.000017
C194	C	1.053959	-0.402538	0.333350
C195	C	1.387293	-0.069205	0.666684
C196	C	0.721338	-0.676473	0.000018
C197	C	1.054671	-0.343139	0.333351
C198	C	1.388005	-0.009806	0.666684
C199	C	0.669768	-0.639698	0.000006
C200	C	1.003102	-0.306365	0.333339
C201	C	1.336435	0.026968	0.666672
C202	C	0.727172	-0.189414	0.000061
C203	C	1.060506	0.143920	0.333395
C204	C	1.393839	0.477253	0.666728
C205	C	0.727881	-0.130014	0.000075
C206	C	1.061214	0.203320	0.333408
C207	C	1.394548	0.536653	0.666741
C208	C	0.624034	-0.115869	0.000060
C209	C	0.957367	0.217464	0.333393
C210	C	1.290701	0.550797	0.666727
C211	C	0.623326	-0.175265	0.000052
C212	C	0.956659	0.158068	0.333385
C213	C	1.289993	0.491402	0.666718
C214	C	0.674899	-0.212036	0.000049
C215	C	1.008232	0.121298	0.333383
C216	C	1.341566	0.454631	0.666716
O217	O	0.578079	-0.263224	0.000060
O218	O	0.911412	0.070109	0.333393
O219	O	1.244745	0.403442	0.666727
O220	O	0.770201	-0.289438	0.000034
O221	O	1.103535	0.043895	0.333368
O222	O	1.436868	0.377228	0.666701
C223	C	0.776480	0.069381	0.000051
C224	C	1.109813	0.402714	0.333384
C225	C	1.443146	0.736047	0.666717
C226	C	0.839697	0.070147	0.000050
C227	C	1.173030	0.403480	0.333383
C228	C	1.506363	0.736813	0.666717
C229	C	0.667580	0.178280	0.000020
C230	C	1.000914	0.511613	0.333353
C231	C	1.334247	0.844947	0.666687
C232	C	0.668344	0.241499	0.000006
C233	C	1.001677	0.574833	0.333340
C234	C	1.335011	0.908166	0.666673
N235	N	0.711064	0.035404	0.248783
N236	N	1.044397	0.368737	0.582116
N237	N	1.377730	0.702070	0.915450
N238	N	0.633602	0.112850	-0.248698
N239	N	0.966935	0.446183	0.084636
N240	N	1.300269	0.779516	0.417969
C241	C	0.571162	0.175247	0.600559
C242	C	0.904496	0.508580	0.933893
C243	C	1.237829	0.841913	1.267226
C244	C	0.586833	0.159588	0.701063
C245	C	0.920166	0.492922	1.034396
C246	C	1.253500	0.826255	1.367730
C247	C	0.664717	0.081748	0.701049
C248	C	0.998051	0.415082	1.034383
C249	C	1.331384	0.748415	1.367716
C250	C	0.649051	0.097398	0.600543
C251	C	0.982385	0.430732	0.933877
C252	C	1.315718	0.764065	1.267210
C253	C	0.602274	0.144148	0.550306
C254	C	0.935607	0.477482	0.883640
C255	C	1.268941	0.810815	1.216973
C256	C	0.680163	0.066300	0.550290
C257	C	1.013496	0.399633	0.883624
C258	C	1.346830	0.732966	1.216957
C259	C	0.664500	0.081950	0.449793
C260	C	0.997834	0.415284	0.783127
C261	C	1.331167	0.748617	1.116460
C262	C	0.617726	0.128700	0.399549
C263	C	0.951059	0.462033	0.732883
C264	C	1.284393	0.795366	1.066216
C265	C	0.586611	0.159799	0.449809
C266	C	0.919945	0.493132	0.783143
C267	C	1.253278	0.826466	1.116476
C268	C	0.726943	0.019553	0.600529
C269	C	1.060276	0.352886	0.933862
C270	C	1.393610	0.686219	1.267196
C271	C	0.758055	-0.011546	0.550276
C272	C	1.091388	0.321788	0.883609
C273	C	1.424721	0.655121	1.216943
C274	C	0.742389	0.004102	0.449777
C275	C	1.075723	0.337435	0.783111
C276	C	1.409056	0.670769	1.116444
C277	C	0.695615	0.050851	0.399533
C278	C	1.028948	0.384185	0.732867
C279	C	1.362282	0.717518	1.066200
C280	C	0.773504	-0.026997	0.399517
C281	C	1.106837	0.306336	0.732850
C282	C	1.440171	0.639669	1.066184
C283	C	0.757841	-0.011346	0.299020
C284	C	1.091175	0.321987	0.632353
C285	C	1.424508	0.655320	0.965687
C286	C	0.679952	0.066502	0.299036
C287	C	1.013286	0.399835	0.632369
C288	C	1.346619	0.733169	0.965703
H289	H	0.404523	-0.017455	0.000053
H290	H	0.737856	0.315878	0.333387
H291	H	1.071190	0.649212	0.666720
Br292	Br	0.596472	0.149945	0.263158
Br293	Br	0.929805	0.483278	0.596492
Br294	Br	1.263139	0.816612	0.929825
H295	H	0.811594	-0.065058	0.440433
H296	H	1.144928	0.268276	0.773767
H297	H	1.478261	0.601609	1.107100
Br298	Br	0.498872	0.200638	-0.000024
Br299	Br	0.832205	0.533972	0.333309
Br300	Br	1.165538	0.867305	0.666643
Br301	Br	0.547498	-0.612422	-0.000007
Br302	Br	0.880831	-0.279089	0.333326
Br303	Br	1.214165	0.054244	0.666660
Br304	Br	0.797165	-0.239308	0.000057
Br305	Br	1.130498	0.094026	0.333390
Br306	Br	1.463831	0.427359	0.666724
H307	H	0.246117	-0.071360	0.000086
H308	H	0.579451	0.261973	0.333420
H309	H	0.912784	0.595307	0.666753
Br310	Br	0.845810	-0.519612	0.000040
Br311	Br	1.179144	-0.186278	0.333374
Br312	Br	1.512477	0.147055	0.666707
H313	H	0.098533	0.219601	0.000056
H314	H	0.431867	0.552935	0.333389
H315	H	0.765200	0.886268	0.666722
Br316	Br	0.497166	-0.472087	-0.000033
Br317	Br	0.830500	-0.138754	0.333301
Br318	Br	1.163833	0.194580	0.666634
H319	H	0.512287	-0.016158	0.000048
H320	H	0.845621	0.317176	0.333381
H321	H	1.178954	0.650509	0.666714
Br322	Br	-0.187595	0.192409	0.000016
Br323	Br	0.145738	0.525742	0.333350
Br324	Br	0.479072	0.859075	0.666683
Br325	Br	-0.047578	0.194091	0.000012
Br326	Br	0.285755	0.527425	0.333345
Br327	Br	0.619088	0.860758	0.666678
H328	H	0.378848	0.170961	0.000016
H329	H	0.712182	0.504295	0.333350
H330	H	1.045515	0.837628	0.666683
H331	H	0.548516	0.197864	0.408904
H332	H	0.881850	0.531197	0.742238
H333	H	1.215183	0.864530	1.075571
Br334	Br	0.800069	-0.053549	0.230817
Br335	Br	1.133402	0.279784	0.564150
Br336	Br	1.466735	0.613117	0.897483
H337	H	0.533068	0.213311	0.559654
H338	H	0.866401	0.546645	0.892988
H339	H	1.199734	0.879978	1.226321
H340	H	0.819105	-0.391908	0.000053
H341	H	1.152438	-0.058574	0.333386
H342	H	1.485771	0.274759	0.666719
Br343	Br	0.792294	-0.645780	0.000039
Br344	Br	1.125628	-0.312447	0.333372
Br345	Br	1.458961	0.020886	0.666706
H346	H	0.561494	0.184917	0.741974
H347	H	0.894828	0.518251	1.075308
H348	H	1.228161	0.851584	1.408641
H349	H	-0.141944	-0.023994	0.000065
H350	H	0.191389	0.309339	0.333398
H351	H	0.524723	0.642673	0.666731
Br352	Br	0.728202	0.018306	0.769234
Br353	Br	1.061535	0.351639	1.102567
Br354	Br	1.394868	0.684973	1.435900
H355	H	0.739695	0.006814	0.682360
H356	H	1.073029	0.340147	1.015694
H357	H	1.406362	0.673480	1.349027
H358	H	-0.034191	-0.022712	0.000080
H359	H	0.299142	0.310622	0.333413
H360	H	0.632476	0.643955	0.666746
H361	H	0.762612	-0.765823	0.000017
H362	H	1.095946	-0.432490	0.333350
H363	H	1.429279	-0.099157	0.666683
Br364	Br	0.126091	-0.101032	0.000071
Br365	Br	0.459424	0.232302	0.333405
Br366	Br	0.792758	0.565635	0.666738
Br367	Br	0.218557	0.249283	0.000032
Br368	Br	0.551890	0.582616	0.333365
Br369	Br	0.885223	0.915950	0.666698
H370	H	0.770457	-0.111600	0.000089
H371	H	1.103791	0.221733	0.333422
H372	H	1.437124	0.555066	0.666755
Br373	Br	0.545826	-0.752418	0.000011
Br374	Br	0.879160	-0.419084	0.333344
Br375	Br	1.212493	-0.085751	0.666678
H376	H	0.526846	-0.352062	-0.000021
H377	H	0.860180	-0.018729	0.333312
H378	H	1.193513	0.314605	0.666646
H379	H	0.580758	-0.193687	0.000067
H380	H	0.914091	0.139646	0.333400
H381	H	1.247425	0.472979	0.666734
H382	H	0.582052	-0.085918	0.000060
H383	H	0.915385	0.247415	0.333393
H384	H	1.248719	0.580748	0.666727
Br385	Br	0.821539	-0.074988	0.618461
Br386	Br	1.154872	0.258345	0.951794
Br387	Br	1.488206	0.591679	1.285127
H388	H	0.641857	0.104567	0.258131
H389	H	0.975191	0.437900	0.591465
H390	H	1.308524	0.771233	0.924798
