data_functionalizedCrystal
_audit_creation_method	'MofGen! by Chris Wilmer'
_symmetry_space_group_name_H-M	'P1'
_symmetry_Int_Tables_number	1
_symmetry_cell_setting	triclinic
loop_
_symmetry_equiv_pos_as_xyz
  x,y,z
_cell_length_a	19.805407
_cell_length_b	19.077068
_cell_length_c	19.805398
_cell_angle_alpha	92.270943
_cell_angle_beta	89.984135
_cell_angle_gamma	92.327086
loop_
_atom_site_label
_atom_site_type_symbol
_atom_site_fract_x
_atom_site_fract_y
_atom_site_fract_z
Zn1	Zn	1.023878	-0.280230	-0.393534
Zn2	Zn	1.019250	-0.397926	-0.284888
Zn3	Zn	0.910699	-0.280246	-0.280360
Zn4	Zn	0.906108	-0.397892	-0.398034
O5	O	0.964984	-0.339073	-0.339204
O6	O	1.117980	-0.295850	-0.379134
O7	O	1.004836	-0.382336	-0.189572
O8	O	0.929571	-0.181752	-0.291594
O9	O	1.114581	-0.382321	-0.299313
O10	O	1.012723	-0.181741	-0.374743
O11	O	0.925084	-0.295877	-0.186244
O12	O	0.815374	-0.295844	-0.295957
O13	O	0.921745	-0.382263	-0.492153
O14	O	0.812001	-0.382278	-0.382412
O15	O	1.008271	-0.295817	-0.488847
O16	O	1.000384	-0.496413	-0.303675
O17	O	0.917258	-0.496388	-0.386803
C18	C	0.789128	-0.339060	-0.339182
C19	C	0.713896	-0.339071	-0.339189
C20	C	0.676810	-0.384145	-0.384138
C21	C	0.606122	-0.384146	-0.384148
C22	C	0.572520	-0.339077	-0.339204
C23	C	0.609611	-0.293998	-0.294252
C24	C	0.680298	-0.293993	-0.294247
C25	C	0.324537	-0.294013	-0.294275
C26	C	0.253845	-0.294022	-0.294283
C27	C	0.250361	-0.384166	-0.384176
C28	C	0.321048	-0.384162	-0.384171
C29	C	0.358133	-0.339081	-0.339222
C30	C	0.434781	-0.339079	-0.339213
C31	C	0.495873	-0.339081	-0.339209
C32	C	0.957839	-0.521938	-0.346234
C33	C	0.954844	-0.600168	-0.349264
C34	C	0.996750	-0.636910	-0.307443
C35	C	0.993937	-0.710416	-0.310297
C36	C	0.949215	-0.747178	-0.354968
C37	C	0.907307	-0.710430	-0.396793
C38	C	0.910124	-0.636926	-0.393943
C39	C	0.936149	-0.967013	-0.368135
C40	C	0.933334	-1.040522	-0.370981
C41	C	1.019965	-1.040503	-0.284485
C42	C	1.022775	-0.966997	-0.281635
C43	C	0.980870	-0.930256	-0.323463
N44	N	0.946337	-0.822312	-0.357885
N45	N	0.983752	-0.855123	-0.320549
C46	C	1.141526	-0.339087	-0.339227
C47	C	1.216758	-0.339093	-0.339237
C48	C	0.965012	-0.339034	-0.515745
C49	C	0.965024	-0.339018	-0.590977
C50	C	0.972175	-0.155495	-0.332162
C51	C	0.975240	-0.077265	-0.329161
C52	C	1.010164	-0.293881	-1.051043
C53	C	1.010153	-0.293902	-0.980355
C54	C	0.965097	-0.338920	-0.946735
C55	C	0.920055	-0.383924	-0.983806
C56	C	0.920070	-0.383905	-1.054492
C57	C	0.919993	-0.384000	-0.698735
C58	C	0.919980	-0.384014	-0.628044
C59	C	1.010076	-0.293997	-0.624598
C60	C	1.010091	-0.293979	-0.695285
C61	C	0.965051	-0.338985	-0.732350
C62	C	0.965065	-0.338962	-0.808997
C63	C	0.965080	-0.338940	-0.870088
C64	C	0.964997	-0.339061	-0.163347
C65	C	0.965124	-0.338880	-0.088109
H66	H	0.575930	-0.420851	-0.420750
H67	H	0.710493	-0.257286	-0.257648
H68	H	0.883286	-0.420672	-0.600672
H69	H	1.054083	-1.070425	-0.250432
H70	H	0.348403	-0.420864	-0.420766
C71	C	1.045946	-0.596479	-0.258305
H72	H	1.070504	-0.628891	-0.233812
H73	H	1.021174	-0.567845	-0.227678
H74	H	1.076522	-0.567764	-0.283116
H75	H	0.902027	-0.937104	-0.402191
H76	H	0.896924	-1.070452	-0.407370
C77	C	0.209566	-0.433748	-0.433627
H78	H	0.162655	-0.427292	-0.427201
H79	H	0.219301	-0.481023	-0.425463
H80	H	0.221570	-0.423506	-0.478727
C81	C	0.858115	-0.750863	-0.445934
H82	H	0.833566	-0.718451	-0.470438
H83	H	0.827539	-0.779580	-0.421131
H84	H	0.882896	-0.779494	-0.476562
C85	C	0.365324	-0.244431	-0.244833
H86	H	0.412236	-0.250874	-0.251268
H87	H	0.353324	-0.254667	-0.199734
H88	H	0.355585	-0.197154	-0.253002
H89	H	1.028060	-0.740328	-0.276241
C90	C	1.059692	-0.244401	-0.939582
H91	H	1.053236	-0.250863	-0.892669
H92	H	1.051637	-0.197109	-0.949350
H93	H	1.104771	-0.254702	-0.951567
H94	H	0.226488	-0.257317	-0.257684
H95	H	0.876001	-0.607011	-0.427998
C96	C	1.059727	-0.244363	-1.088019
H97	H	1.086554	-0.217571	-1.055818
H98	H	1.035046	-0.213686	-1.114416
H99	H	1.088172	-0.271287	-1.116628
C100	C	0.870528	-0.433403	-1.095268
H101	H	0.876994	-0.426950	-1.142181
H102	H	0.825450	-0.423106	-1.083287
H103	H	0.878586	-0.480698	-1.085498
H104	H	1.046777	-0.257318	-0.722655
H105	H	0.704164	-0.420848	-0.420734
H106	H	1.046751	-0.257353	-0.594411
C107	C	0.870444	-0.433497	-0.739498
H108	H	0.843604	-0.460302	-0.709349
H109	H	0.895135	-0.464161	-0.768253
H110	H	0.842012	-0.406558	-0.766034
H111	H	0.582247	-0.257298	-0.257661
C112	C	1.071974	-0.926564	-0.232501
H113	H	1.096533	-0.958975	-0.208006
H114	H	1.047201	-0.897930	-0.201875
H115	H	1.102550	-0.897850	-0.257313
C116	C	0.870494	-0.433441	-0.946825
H117	H	0.876929	-0.427002	-0.899418
H118	H	0.878547	-0.480729	-0.960224
H119	H	0.825421	-0.423128	-0.958013
