data_functionalizedCrystal
_audit_creation_method	'MofGen! by Chris Wilmer'
_symmetry_space_group_name_H-M	'P1'
_symmetry_Int_Tables_number	1
_symmetry_cell_setting	triclinic
loop_
_symmetry_equiv_pos_as_xyz
  x,y,z
_cell_length_a	9.065218
_cell_length_b	10.654550
_cell_length_c	8.140239
_cell_angle_alpha	89.996625
_cell_angle_beta	89.997198
_cell_angle_gamma	84.750408
loop_
_atom_site_label
_atom_site_type_symbol
_atom_site_fract_x
_atom_site_fract_y
_atom_site_fract_z
O1	O	1.959391	0.184157	-0.136617
O2	O	1.530024	0.199263	-0.136620
O3	O	1.754580	0.009010	-0.136608
O4	O	1.734836	0.374410	-0.136629
O5	O	1.754567	0.009008	0.136619
O6	O	1.530011	0.199261	0.136607
O7	O	1.959379	0.184155	0.136610
Zn8	Zn	1.744693	0.191708	0.179989
Zn9	Zn	1.744710	0.191711	-0.179999
O10	O	1.734823	0.374408	0.136598
C11	C	1.475039	0.197810	-0.000006
C12	C	1.311220	0.193469	-0.000007
C13	C	1.753124	-0.037795	0.000005
C14	C	1.748786	-0.177255	0.000002
C15	C	1.881001	-0.256217	0.000002
C16	C	1.876917	-0.387254	-0.000018
C17	C	1.608391	-0.360354	-0.000031
C18	C	1.612477	-0.229320	-0.000023
C19	C	2.032639	-0.582482	-0.095750
C20	C	2.164861	-0.661449	-0.095722
C21	C	2.284719	-0.630803	0.000029
C22	C	2.272361	-0.521192	0.095790
C23	C	2.140137	-0.442232	0.095777
C24	C	2.020284	-0.472876	-0.000012
C25	C	1.456765	-0.034091	0.095723
C26	C	1.324539	0.044872	0.095721
C27	C	1.204668	0.014230	-0.000020
C28	C	1.217011	-0.095383	-0.095757
C29	C	1.349237	-0.174347	-0.095755
C30	C	1.469109	-0.143695	-0.000018
C31	C	2.014364	0.185608	-0.000007
C32	C	2.178183	0.189949	-0.000017
C33	C	1.736279	0.421213	-0.000018
C34	C	1.740616	0.560673	-0.000026
N35	N	1.744693	0.191705	0.425672
N36	N	1.744722	0.191704	-0.425682
H37	H	1.991993	-0.213831	0.000019
H38	H	2.130073	-0.352992	0.173750
H39	H	2.174913	-0.750692	-0.173704
H40	H	2.369961	-0.496258	0.173771
O41	O	1.361483	-0.280770	-0.188862
C42	C	1.477599	-0.274702	-0.303009
H43	H	1.558370	-0.206994	-0.256017
H44	H	1.430133	-0.239725	-0.426163
C45	C	1.460246	-0.489943	-0.382531
C46	C	1.559457	-0.406791	-0.324808
H47	H	1.510737	-0.571422	-0.395985
H48	H	1.382013	-0.494031	-0.305633
H49	H	1.420699	-0.460779	-0.485153
H50	H	1.598988	-0.435947	-0.222179
H51	H	1.637699	-0.402711	-0.401690
O52	O	1.312812	0.151329	0.188768
C53	C	1.446955	0.161436	0.273301
H54	H	1.541122	0.105037	0.205607
H55	H	1.437840	0.122800	0.403150
C56	C	1.362940	0.370123	0.364822
C57	C	1.478599	0.300862	0.281671
H58	H	1.382458	0.456127	0.369993
H59	H	1.272562	0.363313	0.307876
H60	H	1.355356	0.337912	0.473021
H61	H	1.486169	0.333063	0.173469
H62	H	1.568979	0.307681	0.338599
O63	O	1.100526	-0.125324	-0.188572
C64	C	1.057274	-0.243213	-0.138446
H65	H	1.095113	-0.262971	-0.006662
H66	H	1.110190	-0.320134	-0.222649
C67	C	0.840960	-0.217121	-0.309822
C68	C	0.887423	-0.241384	-0.147958
H69	H	0.736189	-0.215997	-0.315696
H70	H	0.870102	-0.137699	-0.343599
H71	H	0.885070	-0.281226	-0.379973
H72	H	0.843329	-0.177271	-0.077814
H73	H	0.858270	-0.320795	-0.114169
O74	O	1.916261	-0.612079	-0.188979
C75	C	1.879432	-0.514668	-0.303087
H76	H	1.979757	-0.459586	-0.324495
H77	H	1.783965	-0.448625	-0.252881
C78	C	1.709421	-0.639538	-0.440341
C79	C	1.832646	-0.571891	-0.466644
H80	H	1.680554	-0.674834	-0.541229
H81	H	1.734228	-0.705164	-0.363461
H82	H	1.629880	-0.584491	-0.398498
H83	H	1.912189	-0.626941	-0.508466
H84	H	1.807851	-0.506276	-0.543536
O85	O	1.573272	-0.004541	0.188790
C86	C	1.610115	-0.101923	0.302935
H87	H	1.568930	-0.193281	0.255973
H88	H	1.555714	-0.076037	0.426108
C89	C	1.830065	-0.007646	0.382349
C90	C	1.779491	-0.119857	0.324663
H91	H	1.934543	-0.018707	0.395759
H92	H	1.805241	0.057964	0.305452
H93	H	1.784717	0.013913	0.484988
H94	H	1.824824	-0.141407	0.222017
H95	H	1.804326	-0.185472	0.401543
H96	H	1.497413	-0.402762	-0.000049
H97	H	2.392377	-0.695107	0.000049
H98	H	1.096996	0.078524	0.000009
