data_functionalizedCrystal
_audit_creation_method	'MofGen! by Chris Wilmer'
_symmetry_space_group_name_H-M	'P1'
_symmetry_Int_Tables_number	1
_symmetry_cell_setting	triclinic
loop_
_symmetry_equiv_pos_as_xyz
  x,y,z
_cell_length_a	19.288840
_cell_length_b	10.654536
_cell_length_c	9.130307
_cell_angle_alpha	90.010302
_cell_angle_beta	89.989614
_cell_angle_gamma	96.196003
loop_
_atom_site_label
_atom_site_type_symbol
_atom_site_fract_x
_atom_site_fract_y
_atom_site_fract_z
O1	O	0.922381	-0.156496	-0.122079
O2	O	0.720256	-0.177662	-0.122032
O3	O	0.825969	0.015761	-0.122007
O4	O	0.816669	-0.349919	-0.122104
O5	O	0.825961	0.015749	0.121592
O6	O	0.720249	-0.177674	0.121567
O7	O	0.922373	-0.156509	0.121520
Cu8	Cu	0.821310	-0.167093	0.143786
Cu9	Cu	0.821319	-0.167078	-0.144298
O10	O	0.816661	-0.349932	0.121495
C11	C	0.694371	-0.176992	-0.000226
C12	C	0.617254	-0.174964	-0.000206
C13	C	0.581048	-0.173982	-0.132995
C14	C	0.508588	-0.172062	-0.133013
C15	C	0.472339	-0.171098	-0.000234
C16	C	0.508553	-0.172087	0.132573
C17	C	0.581010	-0.174020	0.132587
C18	C	0.362508	-0.094486	0.101494
C19	C	0.290052	-0.092546	0.101475
C20	C	0.248857	-0.165143	-0.000270
C21	C	0.280126	-0.239664	-0.102020
C22	C	0.352583	-0.241597	-0.102007
C23	C	0.393771	-0.169003	-0.000234
C24	C	0.134082	-0.162081	-0.133087
C25	C	0.061621	-0.160169	-0.133099
C26	C	0.061588	-0.160181	0.132491
C27	C	0.134047	-0.162106	0.132499
C28	C	0.170290	-0.163050	-0.000294
C29	C	0.825283	0.062538	-0.000198
C30	C	0.823243	0.201938	-0.000169
C31	C	0.949649	0.232635	-0.000175
C32	C	1.011891	0.313472	-0.000161
C33	C	1.009970	0.444449	-0.000135
C34	C	0.945800	0.494591	-0.000129
C35	C	0.883559	0.413754	-0.000144
C36	C	0.885486	0.282775	-0.000165
C37	C	0.757154	0.383057	-0.000148
C38	C	0.759074	0.252079	-0.000163
C39	C	0.692985	0.433198	-0.000142
C40	C	0.630742	0.352361	-0.000146
C41	C	0.632665	0.221377	-0.000169
C42	C	0.696832	0.171243	-0.000177
C43	C	0.948258	-0.157178	-0.000289
C44	C	1.025376	-0.159207	-0.000319
N45	N	0.821309	-0.167102	0.346409
C46	C	0.817349	0.603292	-0.000262
C47	C	0.819396	0.463894	-0.000133
N48	N	0.821326	-0.167058	-0.346921
C49	C	0.736357	-0.015114	0.653132
C50	C	0.693864	0.060842	0.576491
C51	C	0.693851	0.060818	0.423158
C52	C	0.736337	-0.015167	0.346461
C53	C	0.778830	-0.091123	0.423102
C54	C	0.778836	-0.091094	0.576439
C55	C	0.863802	-0.243058	0.423049
C56	C	0.863812	-0.243043	0.576383
C57	C	0.906287	-0.319043	0.346353
C58	C	0.948777	-0.395008	0.422993
C59	C	0.948788	-0.394982	0.576336
C60	C	0.906304	-0.318999	0.653023
H61	H	0.163526	-0.162897	0.240630
H62	H	0.944242	0.601240	-0.000127
C63	C	0.736408	-0.015044	0.177799
H64	H	0.767821	-0.071125	0.143099
H65	H	0.690786	-0.041712	0.142967
H66	H	0.750699	0.067829	0.143279
C67	C	0.560164	0.407512	-0.000151
H68	H	0.523369	0.340613	-0.000168
H69	H	0.556778	0.457980	0.084797
H70	H	0.556797	0.457956	-0.085111
H71	H	0.691425	0.539847	-0.000131
H72	H	0.610553	-0.174751	-0.241126
C73	C	0.386970	-0.323733	-0.213750
H74	H	0.436019	-0.314526	-0.199122
H75	H	0.369215	-0.409691	-0.200800
H76	H	0.376895	-0.297683	-0.310227
H77	H	0.906307	-0.318974	0.777875
H78	H	0.479104	-0.171265	-0.241149
C79	C	0.736365	-0.015101	0.821794
H80	H	0.767753	-0.071227	0.856453
H81	H	0.750625	0.067731	0.856484
H82	H	0.690719	-0.041824	0.856499
C83	C	0.021694	-0.159536	0.278545
H84	H	-0.026653	-0.158364	0.259521
H85	H	0.028687	-0.233197	0.332781
H86	H	0.038421	-0.086753	0.333433
C87	C	0.468685	-0.171027	0.278630
H88	H	0.500628	-0.171898	0.357721
H89	H	0.445372	-0.097058	0.284169
H90	H	0.435466	-0.243498	0.284121
H91	H	0.659275	0.122710	0.638955
H92	H	0.264599	-0.031860	0.184319
C93	C	0.647110	0.144364	0.338850
H94	H	0.621806	0.189616	0.406482
H95	H	0.675291	0.202279	0.279010
H96	H	0.615384	0.092727	0.279062
H97	H	0.581980	0.155565	-0.000188
H98	H	0.698404	0.064596	-0.000187
H99	H	0.906277	-0.319051	0.221500
C100	C	0.995529	-0.478533	0.660636
H101	H	0.989457	-0.467635	0.762941
H102	H	0.983035	-0.564521	0.635509
H103	H	1.042940	-0.454966	0.635476
C104	C	0.995510	-0.478573	0.338635
H105	H	1.020822	-0.523804	0.406235
H106	H	0.967324	-0.536507	0.278823
H107	H	1.027230	-0.426951	0.278814
C108	C	0.234821	-0.319530	-0.213941
H109	H	0.187188	-0.307721	-0.199370
H110	H	0.248454	-0.293983	-0.310334
H111	H	0.240858	-0.406165	-0.201144
H112	H	1.064136	0.272633	-0.000153
H113	H	0.163592	-0.162863	-0.241216
H114	H	0.032143	-0.159377	-0.241237
C115	C	1.078433	0.533372	-0.000119
H116	H	1.116925	0.484757	-0.000119
H117	H	1.080315	0.585107	-0.085055
H118	H	1.080300	0.585099	0.084853
H119	H	0.951219	0.125989	-0.000176
C120	C	0.407819	-0.014628	0.213419
H121	H	0.455450	-0.026460	0.198865
H122	H	0.401786	0.072004	0.200634
H123	H	0.394182	-0.040185	0.309814
C124	C	0.620840	-0.175079	0.278661
H125	H	0.588877	-0.174221	0.357741
H126	H	0.644158	-0.249041	0.284175
H127	H	0.654052	-0.102600	0.284195
