data_functionalizedCrystal
_audit_creation_method	'MofGen! by Chris Wilmer'
_symmetry_space_group_name_H-M	'P1'
_symmetry_Int_Tables_number	1
_symmetry_cell_setting	triclinic
loop_
_symmetry_equiv_pos_as_xyz
  x,y,z
_cell_length_a	15.995343
_cell_length_b	12.837942
_cell_length_c	11.892095
_cell_angle_alpha	85.697431
_cell_angle_beta	86.105349
_cell_angle_gamma	90.840938
loop_
_atom_site_label
_atom_site_type_symbol
_atom_site_fract_x
_atom_site_fract_y
_atom_site_fract_z
O1	O	1.126466	-0.126960	-0.093888
O2	O	0.884009	-0.143467	-0.093915
O3	O	0.999861	0.015689	-0.093895
O4	O	1.010614	-0.286116	-0.093908
O5	O	0.990200	0.002439	0.094111
O6	O	0.874348	-0.156717	0.094091
O7	O	1.116805	-0.140210	0.094118
Zn8	Zn	0.994043	-0.150567	0.123954
Zn9	Zn	1.006772	-0.133110	-0.123751
O10	O	1.000953	-0.299365	0.094098
C11	C	0.847929	-0.149410	0.000085
C12	C	0.754816	-0.147368	0.000074
C13	C	0.584333	-0.143663	0.000090
C14	C	0.551821	-0.028776	0.000094
C15	C	0.454948	-0.026645	0.000528
C16	C	0.416481	-0.140013	0.000104
C17	C	0.444676	-0.205331	0.107248
C18	C	0.541573	-0.206700	0.107331
C19	C	0.552605	-0.193314	-0.106474
C20	C	0.455843	-0.188974	-0.107875
C21	C	0.321618	-0.137957	0.000115
C22	C	0.679196	-0.145723	0.000086
C23	C	0.991398	0.047684	0.000107
C24	C	0.980565	0.162761	0.000104
C25	C	1.152885	-0.134266	0.000116
C26	C	1.245998	-0.136308	0.000119
C27	C	1.009416	-0.331361	0.000094
C28	C	1.020250	-0.446437	0.000089
N29	N	0.985361	-0.162480	0.293007
C30	C	1.110803	0.403725	0.000095
C31	C	1.100628	0.511850	0.000092
C32	C	0.950041	0.487141	0.000087
C33	C	0.960216	0.379015	0.000090
C34	C	1.040600	0.337311	0.000095
C35	C	1.050773	0.229183	0.000107
C36	C	0.900187	0.204476	0.000093
C37	C	0.890013	0.312602	0.000090
N38	N	1.015459	-0.121188	-0.292804
C39	C	1.075861	-0.038231	0.529670
C40	C	1.069800	-0.046566	0.648011
C41	C	0.967173	-0.187479	0.648032
C42	C	0.973235	-0.179144	0.529691
C43	C	1.027581	-0.104519	0.470514
C44	C	1.033647	-0.096190	0.352171
C45	C	0.931016	-0.237097	0.352194
C46	C	0.924955	-0.245432	0.470535
H47	H	0.429838	-0.271236	-0.114681
Cl48	Cl	0.811926	0.120977	0.000109
Cl49	Cl	0.870325	-0.320440	0.277816
Cl50	Cl	0.414802	0.034413	0.119825
H51	H	0.884597	0.521117	0.000070
H52	H	0.824567	0.346573	0.000081
H53	H	0.562633	-0.291272	0.111910
Cl54	Cl	1.101969	-0.002378	0.277780
H55	H	1.120119	0.022525	0.481488
Cl56	Cl	0.402428	-0.152848	0.230833
Cl57	Cl	1.130496	0.036774	0.722376
H58	H	0.436267	0.023986	-0.076262
Cl59	Cl	0.428326	-0.115379	-0.230261
Cl60	Cl	0.595671	0.048342	-0.118514
Cl61	Cl	0.898846	-0.281278	0.722437
H62	H	0.880704	-0.306188	0.518730
Cl63	Cl	0.598228	-0.128510	-0.231900
Cl64	Cl	0.405499	-0.334585	0.112937
Cl65	Cl	1.188888	0.595339	0.000087
H66	H	0.573368	0.009623	0.076818
H67	H	0.561072	-0.172827	0.187732
H68	H	1.116225	0.195230	0.000115
Cl69	Cl	0.584701	-0.323777	-0.108045
H70	H	1.176254	0.369768	0.000110
