data_functionalizedCrystal
_audit_creation_method	'MofGen! by Chris Wilmer'
_symmetry_space_group_name_H-M	'P1'
_symmetry_Int_Tables_number	1
_symmetry_cell_setting	triclinic
loop_
_symmetry_equiv_pos_as_xyz
  x,y,z
_cell_length_a	14.044220
_cell_length_b	12.503572
_cell_length_c	14.044220
_cell_angle_alpha	86.156832
_cell_angle_beta	93.188878
_cell_angle_gamma	93.835250
loop_
_atom_site_label
_atom_site_type_symbol
_atom_site_fract_x
_atom_site_fract_y
_atom_site_fract_z
O1	O	1.282200	0.089210	0.225116
O2	O	1.782200	0.589210	0.725116
O3	O	1.005530	0.089237	0.216809
O4	O	1.505530	0.589237	0.716809
O5	O	1.139712	0.089213	0.082627
O6	O	1.639712	0.589213	0.582627
O7	O	1.148019	0.089234	0.359298
O8	O	1.648019	0.589234	0.859298
O9	O	1.129622	-0.089427	0.092737
O10	O	1.629622	0.410573	0.592737
O11	O	0.995440	-0.089403	0.226918
O12	O	1.495440	0.410597	0.726918
O13	O	1.272110	-0.089430	0.235226
O14	O	1.772110	0.410570	0.735226
Cu15	Cu	1.132854	-0.105728	0.231995
Cu16	Cu	1.632854	0.394272	0.731995
Cu17	Cu	1.144786	0.105535	0.220040
Cu18	Cu	1.644786	0.605535	0.720040
O19	O	1.137929	-0.089406	0.369407
O20	O	1.637929	0.410594	0.869407
C21	C	0.964864	-0.000080	0.218228
C22	C	1.464864	0.499920	0.718228
C23	C	0.858721	-0.000070	0.207383
C24	C	1.358721	0.499930	0.707383
N25	N	1.124469	-0.254319	0.240404
N26	N	1.624469	0.245681	0.740404
C27	C	0.664382	-0.000092	0.187558
C28	C	1.164382	0.499908	0.687558
C29	C	0.613253	-0.000091	0.264472
C30	C	1.113253	0.499909	0.764472
C31	C	0.505116	-0.000104	0.253441
C32	C	1.005116	0.499896	0.753441
C33	C	0.772529	-0.000080	0.198587
C34	C	1.272529	0.499920	0.698587
C35	C	1.112134	-0.473432	0.252782
C36	C	1.612134	0.026568	0.752782
C37	C	1.165511	-0.526768	0.199249
C38	C	1.665511	-0.026768	0.699249
C39	C	1.158648	-0.648690	0.206136
C40	C	1.658648	-0.148690	0.706136
C41	C	1.118996	-0.351499	0.245896
C42	C	1.618996	0.148501	0.745896
C43	C	1.312777	-0.000111	0.233807
C44	C	1.812777	0.499889	0.733807
C45	C	1.418920	-0.000114	0.244651
C46	C	1.918920	0.499886	0.744651
C47	C	1.131031	-0.000107	0.052060
C48	C	1.631031	0.499893	0.552060
C49	C	1.120187	-0.000107	-0.054082
C50	C	1.620187	0.499893	0.445918
N51	N	1.153179	0.254126	0.211624
N52	N	1.653179	0.754126	0.711624
C53	C	1.100361	-0.000090	-0.248421
C54	C	1.600361	0.499910	0.251579
C55	C	1.177275	-0.000094	-0.299551
C56	C	1.677275	0.499906	0.200449
C57	C	1.166244	-0.000084	-0.407687
C58	C	1.666244	0.499916	0.092313
C59	C	1.111391	-0.000099	-0.140274
C60	C	1.611391	0.499901	0.359726
C61	C	1.146609	-0.000084	0.399974
C62	C	1.646609	0.499916	0.899974
C63	C	1.157454	-0.000077	0.506117
C64	C	1.657454	0.499923	1.006117
H65	H	0.650692	-0.000081	0.338605
H66	H	1.150692	0.499919	0.838605
C67	C	0.613812	-0.000093	0.087417
C68	C	1.113812	0.499907	0.587417
H69	H	0.546714	-0.000089	0.093047
H70	H	1.046714	0.499911	0.593047
H71	H	0.628242	-0.062384	0.057229
H72	H	1.128242	0.437616	0.557229
H73	H	0.635265	0.062216	0.050197
H74	H	1.135265	0.562216	0.550197
H75	H	1.216364	-0.480864	0.148245
H76	H	1.716364	0.019136	0.648245
H77	H	1.061285	-0.519330	0.303783
H78	H	1.561285	-0.019330	0.803783
C79	C	1.277422	-0.000128	-0.248978
C80	C	1.777422	0.499872	0.251022
H81	H	1.271796	-0.000145	-0.181878
H82	H	1.771796	0.499855	0.318122
H83	H	1.314656	0.062158	-0.270435
H84	H	1.814656	0.562158	0.229565
H85	H	1.307589	-0.062441	-0.263408
H86	H	1.807589	0.437559	0.236592
C87	C	1.000220	-0.000089	-0.298992
C88	C	1.500220	0.499911	0.201008
H89	H	1.005851	-0.000095	-0.366090
H90	H	1.505851	0.499905	0.133910
H91	H	0.970026	0.062203	-0.284571
H92	H	1.470026	0.562203	0.215429
H93	H	0.963008	-0.062396	-0.277529
H94	H	1.463008	0.437604	0.222471
