data_functionalizedCrystal
_audit_creation_method	'MofGen! by Chris Wilmer'
_symmetry_space_group_name_H-M	'P1'
_symmetry_Int_Tables_number	1
_symmetry_cell_setting	triclinic
loop_
_symmetry_equiv_pos_as_xyz
  x,y,z
_cell_length_a	10.908891
_cell_length_b	9.482900
_cell_length_c	10.967870
_cell_angle_alpha	92.506468
_cell_angle_beta	72.684743
_cell_angle_gamma	96.961853
loop_
_atom_site_label
_atom_site_type_symbol
_atom_site_fract_x
_atom_site_fract_y
_atom_site_fract_z
O1	O	-1.713507	-0.069285	0.205943
O2	O	-1.213507	0.430715	0.705943
O3	O	-1.344308	-0.092521	0.113219
O4	O	-0.844308	0.407479	0.613219
O5	O	-1.530329	-0.037086	0.334445
O6	O	-1.030329	0.462914	0.834445
O7	O	-1.527486	-0.124720	-0.015283
O8	O	-1.027486	0.375280	0.484717
O9	O	-1.492552	0.193409	0.289361
O10	O	-0.992552	0.693409	0.789361
O11	O	-1.306531	0.137974	0.068135
O12	O	-0.806531	0.637974	0.568135
O13	O	-1.675730	0.161210	0.160858
O14	O	-1.175730	0.661210	0.660858
Cu15	Cu	-1.487681	0.170638	0.110380
Cu16	Cu	-0.987681	0.670638	0.610380
Cu17	Cu	-1.532357	-0.101949	0.163698
Cu18	Cu	-1.032357	0.398051	0.663698
O19	O	-1.489709	0.105775	-0.060368
O20	O	-0.989709	0.605775	0.439632
C21	C	-1.278014	0.020555	0.082011
C22	C	-0.778014	0.520555	0.582011
C23	C	-1.136760	0.014087	0.056205
C24	C	-0.636760	0.514087	0.556205
C25	C	-1.083014	0.037681	0.150364
C26	C	-0.583014	0.537681	0.650364
C27	C	-0.937020	0.030998	0.123695
C28	C	-0.437020	0.530998	0.623695
N29	N	-1.456267	0.362362	0.072882
N30	N	-0.956267	0.862362	0.572882
C31	C	-1.508379	0.089202	0.355973
C32	C	-1.008379	0.589202	0.855973
C33	C	-1.499240	0.122096	0.487285
C34	C	-0.999240	0.622096	0.987285
C35	C	-0.742024	0.048132	0.192065
C36	C	-0.242024	0.548132	0.692065
C37	C	-0.883278	0.054595	0.217867
C38	C	-0.383278	0.554595	0.717867
N39	N	-1.563780	-0.293670	0.201207
N40	N	-1.063780	0.206330	0.701207
C41	C	-1.523082	0.454547	0.152642
C42	C	-1.023082	0.954547	0.652642
C43	C	-1.496955	0.614145	0.121435
C44	C	-0.996955	1.114145	0.621435
C45	C	-1.514736	0.017357	0.569178
C46	C	-1.014736	0.517357	1.069178
C47	C	-1.505291	0.051353	0.704896
C48	C	-1.005291	0.551353	1.204896
C49	C	-1.511657	-0.020511	0.918104
C50	C	-1.011657	0.479489	1.418104
C51	C	-1.520790	-0.053401	0.786789
C52	C	-1.020790	0.446599	1.286789
H53	H	-1.074692	-0.011066	-0.044151
H54	H	-0.574692	0.488934	0.455849
F55	F	-1.664061	0.655032	0.320513
F56	F	-1.164061	1.155032	0.820513
H57	H	-1.541035	-0.168250	0.756427
H58	H	-1.041035	0.331750	1.256427
F59	F	-0.855904	-0.001885	-0.007488
F60	F	-0.355904	0.498115	0.492512
F61	F	-1.396891	0.665409	0.001980
F62	F	-0.896891	1.165409	0.501980
H63	H	-0.945343	0.079734	0.318234
H64	H	-0.445343	0.579734	0.818234
H65	H	-1.599624	0.415321	0.244035
H66	H	-1.099624	0.915321	0.744035
F67	F	-1.356208	0.413633	-0.046568
F68	F	-0.856208	0.913633	0.453432
H69	H	-1.485023	0.166199	0.735253
H70	H	-0.985023	0.666199	1.235253
H71	H	-1.534989	-0.097482	0.538811
H72	H	-1.034989	0.402518	1.038811
H73	H	-1.145084	0.062822	0.250723
H74	H	-0.645084	0.562822	0.750723
F75	F	-1.472750	0.272202	0.526965
F76	F	-0.972750	0.772202	1.026965
