data_functionalizedCrystal
_audit_creation_method	'MofGen! by Chris Wilmer'
_symmetry_space_group_name_H-M	'P1'
_symmetry_Int_Tables_number	1
_symmetry_cell_setting	triclinic
loop_
_symmetry_equiv_pos_as_xyz
  x,y,z
_cell_length_a	16.625548
_cell_length_b	16.625545
_cell_length_c	12.827885
_cell_angle_alpha	90.030495
_cell_angle_beta	89.978764
_cell_angle_gamma	89.971982
loop_
_atom_site_label
_atom_site_type_symbol
_atom_site_fract_x
_atom_site_fract_y
_atom_site_fract_z
Zn1	Zn	1.232661	0.320940	-0.590898
Zn2	Zn	1.232552	0.455794	-0.416156
Zn3	Zn	1.097821	0.320981	-0.416166
Zn4	Zn	1.097782	0.455736	-0.590850
O5	O	1.165204	0.388363	-0.503518
O6	O	1.345479	0.338835	-0.567734
O7	O	1.214650	0.437952	-0.269922
O8	O	1.115769	0.208143	-0.439369
O9	O	1.345399	0.437912	-0.439352
O10	O	1.214836	0.208113	-0.567744
O11	O	1.115664	0.338906	-0.269929
O12	O	0.984983	0.338850	-0.439322
O13	O	1.115704	0.437814	-0.737093
O14	O	0.984955	0.437854	-0.567662
O15	O	1.214798	0.338779	-0.737128
O16	O	1.214613	0.568619	-0.439306
O17	O	1.115598	0.568576	-0.567653
C18	C	0.955713	0.388351	-0.503489
C19	C	0.866092	0.388366	-0.503501
C20	C	1.165111	0.597854	-0.503496
C21	C	1.165145	0.687475	-0.503522
C22	C	1.165259	0.388285	-0.776088
C23	C	1.165282	0.388252	-0.892241
C24	C	0.537916	0.388371	-0.503546
C25	C	0.629225	0.388367	-0.503530
C26	C	0.702001	0.388369	-0.503522
C27	C	0.793316	0.388364	-0.503508
C28	C	1.375513	0.388375	-0.503548
C29	C	1.465134	0.388380	-0.503560
C30	C	1.165175	0.760257	-0.503546
C31	C	1.165220	0.851566	-0.503574
C32	C	1.165260	0.924342	-0.503591
C33	C	1.165304	1.015656	-0.503617
C34	C	1.165313	1.178054	-0.503576
C35	C	1.165344	1.088433	-0.503635
C36	C	1.214323	0.339237	-0.944043
C37	C	1.214348	0.339202	-1.064094
C38	C	1.165196	0.388382	-0.232008
C39	C	1.165329	0.388188	-0.115855
H40	H	1.256286	0.297297	-0.899516
Cl41	Cl	1.279178	0.274414	-1.132867
Cl42	Cl	1.100505	0.452987	-1.047088
H43	H	1.123310	0.430185	-0.936768
