data_functionalizedCrystal
_audit_creation_method	'MofGen! by Chris Wilmer'
_symmetry_space_group_name_H-M	'P1'
_symmetry_Int_Tables_number	1
_symmetry_cell_setting	triclinic
loop_
_symmetry_equiv_pos_as_xyz
  x,y,z
_cell_length_a	16.959455
_cell_length_b	13.897447
_cell_length_c	16.959447
_cell_angle_alpha	90.028096
_cell_angle_beta	90.014322
_cell_angle_gamma	90.016477
loop_
_atom_site_label
_atom_site_type_symbol
_atom_site_fract_x
_atom_site_fract_y
_atom_site_fract_z
Zn1	Zn	1.208387	-0.384074	0.446921
Zn2	Zn	1.208311	-0.545393	0.314747
Zn3	Zn	1.076215	-0.384105	0.314758
Zn4	Zn	1.076181	-0.545321	0.446886
O5	O	1.142273	-0.464723	0.380828
O6	O	1.318988	-0.405491	0.429398
O7	O	1.190770	-0.524040	0.204138
O8	O	1.093794	-0.249119	0.332309
O9	O	1.318931	-0.524011	0.332291
O10	O	1.190900	-0.249097	0.429408
O11	O	1.093720	-0.405543	0.204146
O12	O	0.965600	-0.405473	0.332275
O13	O	1.093736	-0.523888	0.557502
O14	O	0.965575	-0.523917	0.429349
O15	O	1.190867	-0.405421	0.557527
O16	O	1.190737	-0.680365	0.332257
O17	O	1.093662	-0.680312	0.429338
C18	C	0.936907	-0.464691	0.380810
C19	C	0.849051	-0.464701	0.380821
C20	C	0.477564	-0.402998	0.330388
C21	C	0.477586	-0.526527	0.431314
C22	C	0.560132	-0.526513	0.431309
C23	C	0.601398	-0.464742	0.380842
C24	C	0.560117	-0.402985	0.330379
C25	C	0.601419	-0.588276	0.481765
C26	C	0.683970	-0.588266	0.481762
C27	C	0.725237	-0.526489	0.431298
C28	C	0.683951	-0.464728	0.380834
C29	C	0.725217	-0.402957	0.330367
C30	C	0.683932	-0.341191	0.279906
C31	C	0.601384	-0.341208	0.279916
C32	C	0.807785	-0.526472	0.431288
C33	C	0.807770	-0.402944	0.330359
C34	C	1.142209	-0.715337	0.380810
C35	C	1.142254	-0.822551	0.380828
C36	C	1.142292	-0.909621	0.380846
C37	C	1.142348	-1.018854	0.380867
C38	C	1.348442	-0.464756	0.380847
C39	C	1.436298	-0.464770	0.380855
C40	C	1.142306	-0.464643	0.586997
C41	C	1.142320	-0.464609	0.674853
C42	C	1.142359	-0.213130	0.380864
C43	C	1.142396	-0.105916	0.380879
C44	C	1.142286	-0.464733	0.175462
C45	C	1.142425	-0.464495	0.087606
C46	C	1.091843	-0.526188	1.046318
C47	C	1.192986	-0.402827	1.046340
C48	C	1.192965	-0.402848	0.963794
C49	C	1.142383	-0.464540	0.922506
C50	C	1.091822	-0.526212	0.963765
C51	C	1.243531	-0.341184	0.922529
C52	C	1.243513	-0.341203	0.839978
C53	C	1.192926	-0.402891	0.798689
C54	C	1.142362	-0.464564	0.839953
C55	C	1.091780	-0.526257	0.798665
C56	C	1.041212	-0.587926	0.839927
C57	C	1.041235	-0.587900	0.922475
C58	C	1.192902	-0.402917	0.716141
C59	C	1.091759	-0.526281	0.716111
H60	H	0.717541	-0.290901	0.238812
H61	H	0.443983	-0.576824	0.472398
F62	F	0.987425	-0.653531	0.966394
F63	F	1.246821	-0.337180	1.090283
H64	H	0.567815	-0.638574	0.522847
H65	H	0.841363	-0.352635	0.289266
H66	H	0.567763	-0.290922	0.238832
H67	H	1.284717	-0.290963	0.956152
H68	H	0.443946	-0.352707	0.289306
F69	F	0.727900	-0.654000	0.535467
H70	H	1.050669	-0.576395	1.079917
F71	F	0.987384	-0.653586	0.795976
H72	H	0.841395	-0.576764	0.472370
F73	F	1.246722	-0.337295	0.672231
F74	F	1.037917	-0.591939	0.672176
F75	F	1.297329	-0.275567	0.796072
