data_functionalizedCrystal
_audit_creation_method	'MofGen! by Chris Wilmer'
_symmetry_space_group_name_H-M	'P1'
_symmetry_Int_Tables_number	1
_symmetry_cell_setting	triclinic
loop_
_symmetry_equiv_pos_as_xyz
  x,y,z
_cell_length_a	29.839135
_cell_length_b	14.908520
_cell_length_c	14.908308
_cell_angle_alpha	83.639235
_cell_angle_beta	86.725367
_cell_angle_gamma	93.323431
loop_
_atom_site_label
_atom_site_type_symbol
_atom_site_fract_x
_atom_site_fract_y
_atom_site_fract_z
Zn1	Zn	0.660296	-0.389822	0.532645
Zn2	Zn	0.660245	-0.532467	0.390016
Zn3	Zn	0.589770	-0.381130	0.381295
Zn4	Zn	0.580553	-0.541146	0.541315
O5	O	0.622716	-0.461141	0.461318
O6	O	0.723155	-0.408749	0.513747
O7	O	0.654732	-0.505122	0.262199
O8	O	0.603004	-0.255618	0.394094
O9	O	0.723118	-0.513550	0.408957
O10	O	0.654819	-0.262004	0.505290
O11	O	0.602954	-0.393935	0.255792
O12	O	0.525681	-0.402351	0.402501
O13	O	0.587295	-0.528343	0.666825
O14	O	0.518910	-0.519914	0.520067
O15	O	0.645882	-0.417165	0.660456
O16	O	0.645795	-0.660283	0.417364
O17	O	0.587246	-0.666660	0.528523
C18	C	0.615526	-0.696316	0.474851
C19	C	0.612491	-0.796926	0.480670
C20	C	0.505995	-0.461132	0.461279
C21	C	0.456060	-0.461151	0.461285
C22	C	0.667810	-0.979288	0.375949
C23	C	0.664959	-1.073820	0.381414
C24	C	0.603942	-1.080524	0.497069
C25	C	0.606792	-0.985992	0.491604
C26	C	0.638727	-0.935377	0.431041
C27	C	0.641575	-0.840843	0.425572
C28	C	0.580560	-0.847549	0.541231
C29	C	0.577709	-0.942082	0.546696
C30	C	0.146427	-0.406664	0.515972
C31	C	-0.041247	-0.406672	0.515998
O32	O	-0.065501	-0.360322	0.562451
N33	N	-0.064727	-0.461144	0.461351
C34	C	-0.041286	-0.515614	0.406689
O35	O	-0.065563	-0.561939	0.360202
C36	C	0.146388	-0.515601	0.406659
C37	C	0.169865	-0.461132	0.461316
C38	C	0.169904	-0.352199	0.570624
C39	C	0.216820	-0.352201	0.570621
C40	C	0.240258	-0.406669	0.515965
C41	C	0.216781	-0.461134	0.461313
C42	C	0.169829	-0.570065	0.351993
C43	C	0.216750	-0.570055	0.351988
C44	C	0.240228	-0.515586	0.406646
C45	C	0.287134	-0.515604	0.406654
N46	N	0.310614	-0.461132	0.461301
C47	C	0.287176	-0.406664	0.515957
C48	C	-0.139817	-0.515618	0.406710
C49	C	-0.186735	-0.515623	0.406719
C50	C	-0.186693	-0.406679	0.516027
C51	C	-0.139775	-0.406680	0.516022
C52	C	-0.116337	-0.461146	0.461357
C53	C	0.385702	-0.406673	0.515946
C54	C	0.432621	-0.406683	0.515941
C55	C	0.432576	-0.515623	0.406629
C56	C	0.385660	-0.515617	0.406638
C57	C	0.362225	-0.461135	0.461299
O58	O	0.311417	-0.561922	0.360218
O59	O	0.311462	-0.360331	0.562422
C60	C	0.099511	-0.406662	0.515975
C61	C	0.076034	-0.461127	0.461323
C62	C	0.099472	-0.515595	0.406668
C63	C	0.029116	-0.461132	0.461332
C64	C	0.005678	-0.406664	0.515988
C65	C	0.029158	-0.352192	0.570635
C66	C	0.076073	-0.352194	0.570631
C67	C	0.075992	-0.570067	0.352021
C68	C	0.029077	-0.570061	0.352029
C69	C	0.005639	-0.515593	0.406685
C70	C	0.739893	-0.461151	0.461358
C71	C	0.789827	-0.461155	0.461375
C72	C	0.615566	-0.474692	0.697400
C73	C	0.612519	-0.480466	0.798005
C74	C	0.629945	-0.225050	0.447752
C75	C	0.633026	-0.124441	0.441971
C76	C	0.629866	-0.447578	0.226150
C77	C	0.633007	-0.441549	0.125532
C78	C	0.667800	-0.375527	0.980418
C79	C	0.664938	-0.380949	1.074945
C80	C	0.603934	-0.496728	1.081586
C81	C	0.606795	-0.491306	0.987059
C82	C	0.638730	-0.430704	0.936479
C83	C	0.641593	-0.425287	0.841951
C84	C	0.580586	-0.541061	0.848593
C85	C	0.577725	-0.546483	0.943119
H86	H	0.667577	-0.799632	0.376256
Cl87	Cl	0.681739	-0.349105	0.778365
H88	H	0.577935	-0.546067	1.122784
H89	H	0.366626	-0.362306	0.560453
Cl90	Cl	0.563804	-1.144171	0.573211
H91	H	0.693810	-0.938076	0.326630
Cl92	Cl	0.537566	-1.005721	0.622831
Cl93	Cl	0.105580	-0.283714	0.639347
H94	H	-0.205785	-0.362330	0.560530
Cl95	Cl	0.701485	-0.311579	1.130181
Cl96	Cl	0.543991	-0.792341	0.610482
Cl97	Cl	0.462133	-0.338205	0.584660
Cl98	Cl	0.246327	-0.283718	0.639333
Cl99	Cl	0.140447	-0.283717	0.639345
H100	H	-0.120662	-0.362325	0.560527
Cl101	Cl	-0.000317	-0.283722	0.639347
Cl102	Cl	0.701523	-1.129019	0.312155
Cl103	Cl	-0.216244	-0.584111	0.338013
Cl104	Cl	0.707949	-0.299354	0.916829
H105	H	-0.120738	-0.559974	0.362193
Cl106	Cl	0.140327	-0.638526	0.283257
H107	H	0.551725	-0.595821	0.984314
Cl108	Cl	0.246212	-0.638533	0.283264
Cl109	Cl	0.356144	-0.584121	0.337953
Cl110	Cl	0.462050	-0.584093	0.337923
H111	H	0.009965	-0.614425	0.307523
Cl112	Cl	0.105451	-0.638539	0.283294
Cl113	Cl	0.544044	-0.610440	0.793350
