data_functionalizedCrystal
_audit_creation_method	'MofGen! by Chris Wilmer'
_symmetry_space_group_name_H-M	'P1'
_symmetry_Int_Tables_number	1
_symmetry_cell_setting	triclinic
loop_
_symmetry_equiv_pos_as_xyz
  x,y,z
_cell_length_a	16.625547
_cell_length_b	25.639239
_cell_length_c	16.625539
_cell_angle_alpha	90.031255
_cell_angle_beta	90.024822
_cell_angle_gamma	90.038623
loop_
_atom_site_label
_atom_site_type_symbol
_atom_site_fract_x
_atom_site_fract_y
_atom_site_fract_z
Zn1	Zn	1.232590	-0.208151	0.455984
Zn2	Zn	1.732590	0.291849	0.955984
Zn3	Zn	1.232455	-0.295589	0.321145
Zn4	Zn	1.732455	0.204411	0.821145
Zn5	Zn	1.097751	-0.208169	0.321155
Zn6	Zn	1.597751	0.291831	0.821155
Zn7	Zn	1.097684	-0.295557	0.455924
Zn8	Zn	1.597684	0.204443	0.955924
O9	O	1.165120	-0.251866	0.388552
O10	O	1.665120	0.248134	0.888552
O11	O	1.345404	-0.219755	0.438118
O12	O	1.845404	0.280245	0.938118
O13	O	1.214558	-0.284013	0.208313
O14	O	1.714558	0.215987	0.708313
O15	O	1.115723	-0.135001	0.339070
O16	O	1.615723	0.364999	0.839070
O17	O	1.345305	-0.283995	0.339052
O18	O	1.845305	0.216005	0.839052
O19	O	1.214788	-0.134988	0.438128
O20	O	1.714788	0.365012	0.938128
O21	O	1.115592	-0.219786	0.208321
O22	O	1.615592	0.280214	0.708321
O23	O	0.984910	-0.219755	0.339012
O24	O	1.484910	0.280245	0.839012
O25	O	1.115607	-0.283941	0.568765
O26	O	1.615607	0.216059	1.068765
O27	O	0.984860	-0.283959	0.438026
O28	O	1.484860	0.216041	0.938026
O29	O	1.214722	-0.219724	0.568809
O30	O	1.714722	0.280276	1.068809
O31	O	1.214492	-0.368750	0.338994
O32	O	1.714492	0.131250	0.838994
O33	O	1.115477	-0.368726	0.438016
O34	O	1.615477	0.131274	0.938016
C35	C	0.955629	-0.251856	0.388514
C36	C	1.455629	0.248144	0.888514
C37	C	0.866008	-0.251864	0.388517
C38	C	1.366008	0.248136	0.888517
C39	C	0.793225	-0.251865	0.388527
C40	C	1.293225	0.248135	0.888527
C41	C	0.701917	-0.251868	0.388547
C42	C	1.201917	0.248132	0.888547
C43	C	0.629141	-0.251873	0.388567
C44	C	1.129141	0.248127	0.888567
C45	C	0.537826	-0.251877	0.388587
C46	C	1.037826	0.248123	0.888587
C47	C	1.164984	-0.387709	0.388515
C48	C	1.664984	0.112291	0.888515
C49	C	1.165000	-0.445823	0.388526
C50	C	1.665000	0.054177	0.888526
C51	C	1.216812	-0.806185	0.337079
C52	C	1.716812	-0.306185	0.837079
C53	C	1.216843	-0.860790	0.337090
C54	C	1.716843	-0.360790	0.837090
O55	O	1.260755	-0.889026	0.293307
O56	O	1.760755	-0.389026	0.793307
N57	N	1.165262	-0.888105	0.388605
N58	N	1.665262	-0.388105	0.888605
C59	C	1.113651	-0.860814	0.440119
C60	C	1.613651	-0.360814	0.940119
O61	O	1.069781	-0.889062	0.483939
O62	O	1.569781	-0.389062	0.983939
C63	C	1.113625	-0.806210	0.440112
C64	C	1.613625	-0.306210	0.940112
C65	C	1.165204	-0.778898	0.388587
C66	C	1.665204	-0.278898	0.888587
C67	C	1.268387	-0.778873	0.285559
C68	C	1.768387	-0.278873	0.785559
C69	C	1.268355	-0.724272	0.285547
C70	C	1.768355	-0.224272	0.785547
C71	C	1.216747	-0.696984	0.337056
C72	C	1.716747	-0.196984	0.837056
C73	C	1.165171	-0.724297	0.388576
C74	C	1.665171	-0.224297	0.888576
C75	C	1.062019	-0.778920	0.491630
C76	C	1.562019	-0.278920	0.991630
C77	C	1.061997	-0.724313	0.491618
C78	C	1.561997	-0.224313	0.991618
C79	C	1.113576	-0.697000	0.440093
C80	C	1.613576	-0.197000	0.940093
C81	C	1.113531	-0.642409	0.440072
C82	C	1.613531	-0.142409	0.940072
N83	N	1.165112	-0.615093	0.388557
N84	N	1.665112	-0.115093	0.888557
C85	C	1.216720	-0.642381	0.337048
C86	C	1.716720	-0.142381	0.837048
C87	C	1.113712	-0.975484	0.440132
C88	C	1.613712	-0.475484	0.940132
C89	C	1.113734	-1.030087	0.440136
C90	C	1.613734	-0.530087	0.940136
C91	C	1.216927	-1.030059	0.337107
C92	C	1.716927	-0.530059	0.837107
C93	C	1.216900	-0.975456	0.337100
C94	C	1.716900	-0.475456	0.837100
C95	C	1.165293	-0.948169	0.388616
C96	C	1.665293	-0.448169	0.888616
C97	C	1.216648	-0.527716	0.337027
C98	C	1.716648	-0.027716	0.837027
C99	C	1.216608	-0.473111	0.337018
C100	C	1.716608	0.026889	0.837018
C101	C	1.113418	-0.473143	0.440049
C102	C	1.613418	0.026857	0.940049
C103	C	1.113454	-0.527744	0.440056
C104	C	1.613454	-0.027744	0.940056
C105	C	1.165076	-0.555029	0.388542
C106	C	1.665076	-0.055029	0.888542
O107	O	1.069644	-0.614138	0.483835
O108	O	1.569644	-0.114138	0.983835
O109	O	1.260591	-0.614126	0.293244
O110	O	1.760591	-0.114126	0.793244
C111	C	1.375429	-0.251877	0.388591
C112	C	1.875429	0.248123	0.888591
C113	C	1.465050	-0.251881	0.388607
C114	C	1.965050	0.248119	0.888607
C115	C	1.165172	-0.251827	0.598861
C116	C	1.665172	0.248173	1.098861
C117	C	1.165195	-0.251811	0.688482
C118	C	1.665195	0.248189	1.188482
C119	C	1.165278	-0.115493	0.388607
C120	C	1.665278	0.384507	0.888607
C121	C	1.165345	-0.057379	0.388630
C122	C	1.665345	0.442621	0.888630
C123	C	1.165114	-0.251867	0.179061
C124	C	1.665114	0.248133	0.679061
C125	C	1.165248	-0.251737	0.089441
C126	C	1.665248	0.248263	0.589441
C127	C	1.165232	-0.251752	1.016658
C128	C	1.665232	0.248248	1.516658
C129	C	1.165219	-0.251770	0.925350
C130	C	1.665219	0.248230	1.425350
C131	C	1.165214	-0.251782	0.852573
C132	C	1.665214	0.248218	1.352573
C133	C	1.165200	-0.251799	0.761259
C134	C	1.665200	0.248201	1.261259
H135	H	1.258684	-0.549925	0.295082
H136	H	1.758684	-0.049925	0.795082
H137	H	1.071397	-0.450917	0.481984
H138	H	1.571397	0.049083	0.981984
H139	H	1.310357	-0.702037	0.243594
H140	H	1.810357	-0.202037	0.743594
H141	H	1.258610	-0.450874	0.295057
H142	H	1.758610	0.049126	0.795057
O143	O	1.267047	-0.948869	0.287165
O144	O	1.767047	-0.448869	0.787165
C145	C	1.319104	-0.917244	0.333115
C146	C	1.819104	-0.417244	0.833115
H147	H	1.290630	-0.909052	0.394190
H148	H	1.790630	-0.409052	0.894190
H149	H	1.378858	-0.938250	0.342038
H150	H	1.878858	-0.438250	0.842038
C151	C	1.368683	-0.875449	0.213740
C152	C	1.868683	-0.375449	0.713740
C153	C	1.333708	-0.865384	0.288751
C154	C	1.833708	-0.365384	0.788751
H155	H	1.377696	-0.843461	0.186374
H156	H	1.877696	-0.343461	0.686374
H157	H	1.333614	-0.896757	0.182782
H158	H	1.833614	-0.396757	0.682782
H159	H	1.418475	-0.892956	0.221187
H160	H	1.918475	-0.392956	0.721187
H161	H	1.283913	-0.847885	0.281303
H162	H	1.783913	-0.347885	0.781303
H163	H	1.368769	-0.844072	0.319707
H164	H	1.868769	-0.344072	0.819707
H165	H	1.258952	-1.052287	0.295169
H166	H	1.758952	-0.552287	0.795169
O167	O	1.318656	-0.805300	0.235559
O168	O	1.818656	-0.305300	0.735559
C169	C	1.398986	-0.791880	0.253297
C170	C	1.898986	-0.291880	0.753297
H171	H	1.400575	-0.752230	0.284319
H172	H	1.900575	-0.252230	0.784319
H173	H	1.426159	-0.822579	0.294764
H174	H	1.926159	-0.322579	0.794764
C175	C	1.445931	-0.838011	0.136648
C176	C	1.945931	-0.338011	0.636648
C177	C	1.447883	-0.789310	0.174745
C178	C	1.947883	-0.289310	0.674745
H179	H	1.476094	-0.836428	0.088195
H180	H	1.976094	-0.336428	0.588195
H181	H	1.391812	-0.847054	0.124699
H182	H	1.891812	-0.347054	0.624699
H183	H	1.468573	-0.863588	0.171212
H184	H	1.968573	-0.363588	0.671212
H185	H	1.425232	-0.763735	0.140185
H186	H	1.925232	-0.263735	0.640185
H187	H	1.501999	-0.780262	0.186687
H188	H	2.001999	-0.280262	0.686687
H189	H	1.071725	-1.052320	0.482085
H190	H	1.571725	-0.552320	0.982085
O191	O	1.063494	-0.949061	0.490197
O192	O	1.563494	-0.449061	0.990197
C193	C	1.017992	-0.984884	0.535676
C194	C	1.517992	-0.484884	1.035676
H195	H	1.015247	-1.023821	0.502647
H196	H	1.515247	-0.523821	1.002647
H197	H	1.047487	-0.990649	0.596944
H198	H	1.547487	-0.490649	1.096944
C199	C	0.935528	-0.915809	0.587777
C200	C	1.435528	-0.415809	1.087777
C201	C	0.932150	-0.963630	0.547206
C202	C	1.432150	-0.463630	1.047206
H203	H	0.882578	-0.902698	0.594893
H204	H	1.382578	-0.402698	1.094893
H205	H	0.966185	-0.891673	0.557139
H206	H	1.466185	-0.391673	1.057139
H207	H	0.960110	-0.920619	0.638829
H208	H	1.460110	-0.420619	1.138829
H209	H	0.907578	-0.958818	0.496151
H210	H	1.407578	-0.458818	0.996151
H211	H	0.901487	-0.987765	0.577836
H212	H	1.401487	-0.487765	1.077836
H213	H	1.020014	-0.801148	0.533583
H214	H	1.520014	-0.301148	1.033583
H215	H	1.019973	-0.702098	0.533572
H216	H	1.519973	-0.202098	1.033572
H217	H	1.071457	-0.549983	0.482014
H218	H	1.571457	-0.049983	0.982014
