data_functionalizedCrystal
_audit_creation_method	'MofGen! by Chris Wilmer'
_symmetry_space_group_name_H-M	'P1'
_symmetry_Int_Tables_number	1
_symmetry_cell_setting	triclinic
loop_
_symmetry_equiv_pos_as_xyz
  x,y,z
_cell_length_a	15.298114
_cell_length_b	18.215405
_cell_length_c	18.215399
_cell_angle_alpha	90.030551
_cell_angle_beta	99.672562
_cell_angle_gamma	99.636644
loop_
_atom_site_label
_atom_site_type_symbol
_atom_site_fract_x
_atom_site_fract_y
_atom_site_fract_z
Zn1	Zn	1.378987	0.487456	-0.221023
Zn2	Zn	1.378875	0.610511	-0.097967
Zn3	Zn	1.228145	0.466207	-0.119309
Zn4	Zn	1.228103	0.589207	-0.242321
O5	O	1.303527	0.538345	-0.170155
O6	O	1.505199	0.521587	-0.186854
O7	O	1.358851	0.591392	0.002182
O8	O	1.248219	0.366050	-0.132820
O9	O	1.505116	0.611996	-0.096445
O10	O	1.359042	0.381662	-0.207549
O11	O	1.248110	0.485372	-0.013498
O12	O	1.101913	0.464715	-0.153472
O13	O	1.248147	0.575687	-0.342476
O14	O	1.101882	0.555083	-0.243848
O15	O	1.359001	0.500930	-0.326828
O16	O	1.358810	0.710660	-0.117097
O17	O	1.248039	0.695008	-0.223153
C18	C	1.069168	0.505282	-0.203287
C19	C	0.968908	0.491155	-0.217479
C20	C	0.686117	0.639318	-0.068905
C21	C	0.780316	0.652590	-0.055565
C22	C	0.827469	0.612232	-0.096043
C23	C	0.780413	0.558600	-0.149862
C24	C	0.686205	0.545323	-0.163198
C25	C	0.827557	0.518238	-0.190336
C26	C	0.780501	0.464606	-0.244155
C27	C	0.686302	0.451331	-0.257490
C28	C	0.639149	0.491688	-0.217012
C29	C	0.921765	0.531515	-0.177000
C30	C	0.921852	0.437520	-0.271293
C31	C	0.827653	0.424248	-0.284633
C32	C	1.303432	0.729538	-0.170133
C33	C	1.303474	0.811343	-0.170136
C34	C	1.303582	0.538302	-0.362100
C35	C	1.303606	0.538284	-0.443896
C36	C	1.538802	0.571538	-0.136893
C37	C	1.639062	0.585683	-0.122719
C38	C	1.303648	0.346409	-0.170189
C39	C	1.303699	0.264618	-0.170204
C40	C	1.361288	1.007681	-0.114980
C41	C	1.361328	1.084546	-0.114992
C42	C	1.245882	1.068273	-0.225366
C43	C	1.245847	0.991411	-0.225356
C44	C	1.303549	0.961117	-0.170159
C45	C	1.303624	1.114844	-0.170181
C46	C	1.303667	1.198183	-0.170195
C47	C	1.303507	0.877772	-0.170146
C48	C	1.361348	0.499317	-0.623940
C49	C	1.361359	0.499297	-0.700797
C50	C	1.245927	0.577146	-0.717080
C51	C	1.245912	0.577161	-0.640225
C52	C	1.303628	0.538248	-0.593656
C53	C	1.303653	0.538213	-0.747369
C54	C	1.303665	0.538192	-0.830701
C55	C	1.303616	0.538268	-0.510319
C56	C	1.303524	0.538342	0.021051
C57	C	1.303676	0.538178	0.102871
H58	H	0.647717	0.672166	-0.035949
C59	C	1.182410	0.619988	-0.606911
N60	N	1.134579	0.652242	-0.581819
H61	H	0.960069	0.575183	-0.133180
C62	C	1.182344	0.940189	-0.286073
N63	N	1.134524	0.901610	-0.331808
C64	C	1.424858	0.456471	-0.734106
N65	N	1.472688	0.424213	-0.759192
H66	H	0.904170	0.623042	-0.085179
C67	C	0.832071	0.711584	0.003633
N68	N	0.871053	0.756023	0.048223
H69	H	0.647991	0.407655	-0.301308
H70	H	0.562444	0.480887	-0.227873
H71	H	0.789327	0.380580	-0.328452
H72	H	0.960244	0.404656	-0.304251
H73	H	1.408341	0.467630	-0.586026
C74	C	1.182404	1.101603	-0.286072
N75	N	1.134586	1.126706	-0.331795
H76	H	1.408273	0.983018	-0.070037
H77	H	1.408347	1.122456	-0.070061
H78	H	1.198939	0.608829	-0.755005
