data_functionalizedCrystal
_audit_creation_method	'MofGen! by Chris Wilmer'
_symmetry_space_group_name_H-M	'P1'
_symmetry_Int_Tables_number	1
_symmetry_cell_setting	triclinic
loop_
_symmetry_equiv_pos_as_xyz
  x,y,z
_cell_length_a	11.792254
_cell_length_b	11.792241
_cell_length_c	14.750779
_cell_angle_alpha	102.734008
_cell_angle_beta	102.726858
_cell_angle_gamma	95.803994
loop_
_atom_site_label
_atom_site_type_symbol
_atom_site_fract_x
_atom_site_fract_y
_atom_site_fract_z
O1	O	-0.180009	1.482462	-0.079723
O2	O	-0.196048	1.152115	-0.079744
O3	O	-0.022860	1.325296	-0.079737
O4	O	-0.353197	1.309281	-0.079729
O5	O	0.026093	1.374252	0.079915
O6	O	-0.147095	1.201071	0.079908
O7	O	-0.131056	1.531418	0.079930
Zn8	Zn	-0.131303	1.374018	0.105267
Zn9	Zn	-0.195801	1.309516	-0.105082
O10	O	-0.304244	1.358237	0.079923
C11	C	-0.170566	1.134301	0.000079
C12	C	-0.167554	1.008285	0.000071
C13	C	-0.162003	0.777581	0.000098
C14	C	-0.165087	0.905961	0.000083
C15	C	-0.371011	1.334768	0.000098
C16	C	-0.497023	1.337789	0.000101
C17	C	-0.599361	1.340242	0.000096
C18	C	-0.727751	1.343307	0.000085
C19	C	0.043906	1.348764	0.000086
C20	C	0.169916	1.345741	0.000076
C21	C	-0.156539	1.549231	0.000104
C22	C	-0.159553	1.675246	0.000106
N23	N	-0.087285	1.418047	0.248825
N24	N	-0.239810	1.265495	-0.248639
C25	C	-0.362697	1.142528	0.600632
C26	C	-0.331860	1.173389	0.701132
C27	C	-0.178559	1.326773	0.701101
C28	C	-0.209380	1.295921	0.600599
C29	C	-0.301451	1.203798	0.550372
C30	C	-0.148133	1.357191	0.550339
C31	C	-0.178956	1.326345	0.449845
C32	C	-0.271026	1.234229	0.399611
C33	C	-0.332274	1.172952	0.449878
C34	C	-0.056068	1.449319	0.600567
C35	C	0.005178	1.510590	0.550307
C36	C	-0.025639	1.479739	0.449812
C37	C	-0.117708	1.387622	0.399578
C38	C	0.035609	1.541015	0.399545
C39	C	0.004786	1.510169	0.299051
C40	C	-0.148531	1.356776	0.299084
H41	H	-0.223497	1.281753	0.258188
H42	H	-0.296124	1.209119	0.317783
C43	C	-0.463935	1.041141	0.545377
N44	N	-0.540170	0.964767	0.503759
C45	C	0.136881	1.642352	0.454808
N46	N	0.213161	1.718679	0.496431
H47	H	0.054659	1.560064	0.258129
H48	H	0.080141	1.585600	0.591213
H49	H	-0.103596	1.401783	0.742007
C50	C	-0.433511	1.071566	0.394623
N51	N	-0.509746	0.995192	0.353005
C52	C	-0.399241	1.105976	0.756415
N53	N	-0.449992	1.055201	0.798053
H54	H	-0.030979	1.474434	0.682395
