data_functionalizedCrystal
_audit_creation_method	'MofGen! by Chris Wilmer'
_symmetry_space_group_name_H-M	'P1'
_symmetry_Int_Tables_number	1
_symmetry_cell_setting	triclinic
loop_
_symmetry_equiv_pos_as_xyz
  x,y,z
_cell_length_a	25.639243
_cell_length_b	25.639240
_cell_length_c	25.639233
_cell_angle_alpha	90.025929
_cell_angle_beta	90.015962
_cell_angle_gamma	90.035481
loop_
_atom_site_label
_atom_site_type_symbol
_atom_site_fract_x
_atom_site_fract_y
_atom_site_fract_z
Zn1	Zn	0.799247	-0.208176	0.295630
Zn2	Zn	1.299247	0.291824	0.795630
Zn3	Zn	0.799179	-0.295595	0.208183
Zn4	Zn	1.299179	0.204405	0.708183
Zn5	Zn	0.711823	-0.208180	0.208203
Zn6	Zn	1.211823	0.291820	0.708203
Zn7	Zn	0.711777	-0.295587	0.295582
Zn8	Zn	1.211777	0.204413	0.795582
O9	O	0.755506	-0.251885	0.251900
O10	O	1.255506	0.248115	0.751900
O11	O	0.872403	-0.219775	0.284041
O12	O	1.372403	0.280225	0.784041
O13	O	0.787582	-0.284004	0.135020
O14	O	1.287582	0.215996	0.635020
O15	O	0.723467	-0.135014	0.219829
O16	O	1.223467	0.364986	0.719829
O17	O	0.872353	-0.284001	0.219794
O18	O	1.372353	0.215999	0.719794
O19	O	0.787697	-0.135012	0.284061
O20	O	1.287697	0.364988	0.784061
O21	O	0.723402	-0.219781	0.135035
O22	O	1.223402	0.280219	0.635035
O23	O	0.638652	-0.219772	0.219783
O24	O	1.138652	0.280228	0.719783
O25	O	0.723389	-0.283987	0.368754
O26	O	1.223389	0.216013	0.868754
O27	O	0.638618	-0.283990	0.283980
O28	O	1.138618	0.216010	0.783980
O29	O	0.787653	-0.219767	0.368789
O30	O	1.287653	0.280233	0.868789
O31	O	0.787538	-0.368759	0.219749
O32	O	1.287538	0.131241	0.719749
O33	O	0.723324	-0.368753	0.283960
O34	O	1.223324	0.131247	0.783960
C35	C	0.619664	-0.251881	0.251879
C36	C	1.119664	0.248119	0.751879
C37	C	0.561550	-0.251892	0.251882
C38	C	1.061550	0.248108	0.751882
C39	C	0.201207	-0.218495	0.285409
C40	C	0.701207	0.281505	0.785409
C41	C	0.146603	-0.218494	0.285412
C42	C	0.646603	0.281506	0.785412
O43	O	0.118383	-0.190088	0.313891
O44	O	0.618383	0.309912	0.813891
N45	N	0.119267	-0.251883	0.251914
N46	N	0.619267	0.248117	0.751914
C47	C	0.146539	-0.285271	0.218407
C48	C	0.646539	0.214729	0.718407
O49	O	0.118274	-0.313670	0.189914
O50	O	0.618274	0.186330	0.689914
C51	C	0.201142	-0.285268	0.218401
C52	C	0.701142	0.214732	0.718401
C53	C	0.228475	-0.251881	0.251905
C54	C	0.728475	0.248119	0.751905
C55	C	0.228540	-0.185109	0.318909
C56	C	0.728540	0.314891	0.818909
C57	C	0.283140	-0.185111	0.318907
C58	C	0.783140	0.314889	0.818907
C59	C	0.310408	-0.218497	0.285403
C60	C	0.810408	0.281503	0.785403
C61	C	0.283076	-0.251882	0.251903
C62	C	0.783076	0.248118	0.751903
C63	C	0.228413	-0.318653	0.184892
C64	C	0.728413	0.181347	0.684892
C65	C	0.283020	-0.318647	0.184889
C66	C	0.783020	0.181353	0.684889
C67	C	0.310353	-0.285260	0.218393
C68	C	0.810353	0.214740	0.718393
C69	C	0.364944	-0.285270	0.218396
C70	C	0.864944	0.214730	0.718396
N71	N	0.392279	-0.251881	0.251894
N72	N	0.892279	0.248119	0.751894
C73	C	0.365011	-0.218494	0.285398
C74	C	0.865011	0.281506	0.785398
C75	C	0.031869	-0.285273	0.218420
C76	C	0.531869	0.214727	0.718420
C77	C	-0.022734	-0.285279	0.218428
C78	C	0.477266	0.214721	0.718428
C79	C	-0.022667	-0.218501	0.285432
C80	C	0.477333	0.281499	0.785432
C81	C	0.031937	-0.218498	0.285427
C82	C	0.531937	0.281502	0.785427
C83	C	0.059204	-0.251884	0.251918
C84	C	0.559204	0.248116	0.751918
C85	C	0.479676	-0.218500	0.285390
C86	C	0.979676	0.281500	0.785390
C87	C	0.534282	-0.218506	0.285386
C88	C	1.034282	0.281494	0.785386
C89	C	0.534210	-0.285281	0.218380
C90	C	1.034210	0.214719	0.718380
C91	C	0.479609	-0.285278	0.218385
C92	C	0.979609	0.214722	0.718385
C93	C	0.452344	-0.251883	0.251892
C94	C	0.952344	0.248117	0.751892
O95	O	0.393198	-0.313659	0.189930
O96	O	0.893198	0.186341	0.689930
O97	O	0.393283	-0.190095	0.313881
O98	O	0.893283	0.309905	0.813881
C99	C	0.755433	-0.387727	0.251859
C100	C	1.255433	0.112273	0.751859
C101	C	0.755449	-0.445841	0.251859
C102	C	1.255449	0.054159	0.751859
C103	C	0.788967	-0.806164	0.285405
C104	C	1.288967	-0.306164	0.785405
C105	C	0.788983	-0.860769	0.285416
C106	C	1.288983	-0.360769	0.785416
O107	O	0.817394	-0.888972	0.313897
O108	O	1.317394	-0.388972	0.813897
N109	N	0.755579	-0.888124	0.251950
N110	N	1.255579	-0.388124	0.751950
C111	C	0.722154	-0.860871	0.218475
C112	C	1.222154	-0.360871	0.718475
O113	O	0.693742	-0.889153	0.190011
O114	O	1.193742	-0.389153	0.690011
C115	C	0.722136	-0.806268	0.218467
C116	C	1.222136	-0.306268	0.718467
C117	C	0.755546	-0.778916	0.251932
C118	C	1.255546	-0.278916	0.751932
C119	C	0.822374	-0.778812	0.318867
C120	C	1.322374	-0.278812	0.818867
C121	C	0.822359	-0.724212	0.318856
C122	C	1.322359	-0.224212	0.818856
C123	C	0.788938	-0.696963	0.285383
C124	C	1.288938	-0.196963	0.785383
C125	C	0.755531	-0.724315	0.251920
C126	C	1.255531	-0.224315	0.751920
C127	C	0.688708	-0.779017	0.184996
C128	C	1.188708	-0.279017	0.684996
C129	C	0.688693	-0.724410	0.184991
C130	C	1.188693	-0.224410	0.684991
C131	C	0.722103	-0.697058	0.218455
C132	C	1.222103	-0.197058	0.718455
C133	C	0.722095	-0.642466	0.218435
C134	C	1.222095	-0.142466	0.718435
N135	N	0.755499	-0.615112	0.251901
N136	N	1.255499	-0.115112	0.751901
C137	C	0.788920	-0.642360	0.285375
C138	C	1.288920	-0.142360	0.785375
C139	C	0.722193	-0.975542	0.218494
C140	C	1.222193	-0.475542	0.718494
C141	C	0.722213	-1.030144	0.218499
C142	C	1.222213	-0.530144	0.718499
C143	C	0.789041	-1.030038	0.285441
C144	C	1.289041	-0.530038	0.785441
C145	C	0.789024	-0.975435	0.285433
C146	C	1.289024	-0.475435	0.785433
C147	C	0.755597	-0.948187	0.251960
C148	C	1.255597	-0.448187	0.751960
C149	C	0.788887	-0.527695	0.285348
C150	C	1.288887	-0.027695	0.785348
C151	C	0.788870	-0.473090	0.285332
C152	C	1.288870	0.026910	0.785332
C153	C	0.722040	-0.473201	0.218392
C154	C	1.222040	0.026799	0.718392
C155	C	0.722058	-0.527801	0.218406
C156	C	1.222058	-0.027801	0.718406
C157	C	0.755483	-0.555047	0.251888
C158	C	1.255483	-0.055047	0.751888
O159	O	0.693697	-0.614229	0.189971
O160	O	1.193697	-0.114229	0.689971
O161	O	0.817322	-0.614072	0.313839
O162	O	1.317322	-0.114072	0.813839
C163	C	0.891879	-0.251888	0.251921
C164	C	1.391879	0.248112	0.751921
C165	C	0.949993	-0.251890	0.251930
C166	C	1.449993	0.248110	0.751930
C167	C	0.755523	-0.251875	0.388273
C168	C	1.255523	0.248125	0.888273
C169	C	0.755530	-0.251871	0.446387
C170	C	1.255530	0.248129	0.946387
C171	C	0.755595	-0.115511	0.251952
C172	C	1.255595	0.384489	0.751952
C173	C	0.755633	-0.057397	0.251975
C174	C	1.255633	0.442603	0.751975
C175	C	0.755520	-0.251856	0.116057
C176	C	1.255520	0.248144	0.616057
C177	C	0.755614	-0.251713	0.057943
C178	C	1.255614	0.248287	0.557943
C179	C	0.789035	-0.218333	0.806774
C180	C	1.289035	0.281667	1.306774
C181	C	0.789041	-0.218318	0.861378
C182	C	1.289041	0.281682	1.361378
O183	O	0.817486	-0.189864	0.889635
O184	O	1.317486	0.310136	1.389635
N185	N	0.755588	-0.251749	0.888669
N186	N	1.255588	0.248251	1.388669
C187	C	0.722122	-0.285192	0.861354
C188	C	1.222122	0.214808	1.361354
O189	O	0.693668	-0.313626	0.889581
O190	O	1.193668	0.186374	1.389581
C191	C	0.722114	-0.285204	0.806750
C192	C	1.222114	0.214796	1.306750
C193	C	0.755573	-0.251775	0.779462
C194	C	1.255573	0.248225	1.279462
C195	C	0.822491	-0.184906	0.779485
C196	C	1.322491	0.315094	1.279485
C197	C	0.822485	-0.184921	0.724884
C198	C	1.322485	0.315079	1.224884
C199	C	0.789023	-0.218363	0.697572
C200	C	1.289023	0.281637	1.197572
C201	C	0.755567	-0.251790	0.724861
C202	C	1.255567	0.248210	1.224861
C203	C	0.688646	-0.318644	0.779436
C204	C	1.188646	0.181356	1.279436
C205	C	0.688640	-0.318653	0.724828
C206	C	1.188640	0.181347	1.224828
C207	C	0.722099	-0.285223	0.697540
C208	C	1.222099	0.214777	1.197540
C209	C	0.722099	-0.285247	0.642949
C210	C	1.222099	0.214753	1.142949
N211	N	0.755552	-0.251817	0.615657
N212	N	1.255552	0.248183	1.115657
C213	C	0.789014	-0.218375	0.642969
C214	C	1.289014	0.281625	1.142969
C215	C	0.722143	-0.285165	0.976024
C216	C	1.222143	0.214835	1.476024
C217	C	0.722154	-0.285157	1.030627
C218	C	1.222154	0.214843	1.530627
C219	C	0.789072	-0.218282	1.030647
C220	C	1.289072	0.281718	1.530647
C221	C	0.789063	-0.218293	0.976044
C222	C	1.289063	0.281707	1.476044
C223	C	0.755596	-0.251735	0.948733
C224	C	1.255596	0.248265	1.448733
C225	C	0.789000	-0.218410	0.528304
C226	C	1.289000	0.281590	1.028304
C227	C	0.788992	-0.218429	0.473699
C228	C	1.288992	0.281571	0.973699
C229	C	0.722072	-0.285302	0.473683
C230	C	1.222072	0.214698	0.973683
C231	C	0.722081	-0.285285	0.528283
C232	C	1.222081	0.214715	1.028283
C233	C	0.755547	-0.251834	0.555593
C234	C	1.255547	0.248166	1.055593
O235	O	0.693668	-0.313686	0.614657
O236	O	1.193668	0.186314	1.114657
O237	O	0.817459	-0.189941	0.614735
O238	O	1.317459	0.310059	1.114735
H239	H	0.206344	-0.157919	0.346192
H240	H	0.706344	0.342081	0.846192
O241	O	0.821484	-0.185846	0.554769
O242	O	1.321484	0.314154	1.054769
C243	C	0.810083	-0.133739	0.541440
C244	C	1.310083	0.366261	1.041440
H245	H	0.789974	-0.132668	0.501794
H246	H	1.289974	0.367332	1.001794
H247	H	0.783223	-0.116114	0.572173
H248	H	1.283223	0.383886	1.072173
C249	C	0.885774	-0.103390	0.587614
C250	C	1.385774	0.396610	1.087614
C251	C	0.861080	-0.102074	0.538918
C252	C	1.361080	0.397926	1.038918
H253	H	0.917231	-0.083857	0.586060
H254	H	1.417231	0.416143	1.086060
H255	H	0.893454	-0.138495	0.596596
H256	H	1.393454	0.361505	1.096596
H257	H	0.863386	-0.088703	0.613219
H258	H	1.363386	0.411297	1.113219
H259	H	0.883466	-0.116766	0.513315
H260	H	1.383466	0.383234	1.013315
H261	H	0.853405	-0.066971	0.529931
H262	H	1.353405	0.433029	1.029931
H263	H	0.849563	-0.701945	0.346107
H264	H	1.349563	-0.201945	0.846107
O265	O	0.689732	-0.317693	1.057153
O266	O	1.189732	0.182307	1.557153
C267	C	0.719480	-0.351448	1.088744
C268	C	1.219480	0.148552	1.588744
H269	H	0.760657	-0.354677	1.072299
H270	H	1.260657	0.145323	1.572299
H271	H	0.721290	-0.335278	1.130133
H272	H	1.221290	0.164722	1.630133
C273	C	0.643331	-0.401836	1.109756
C274	C	1.143331	0.098164	1.609756
C275	C	0.693905	-0.405806	1.089555
C276	C	1.193905	0.094194	1.589555
H277	H	0.627555	-0.435366	1.110258
H278	H	1.127555	0.064634	1.610258
H279	H	0.623289	-0.379094	1.088474
H280	H	1.123289	0.120906	1.588474
H281	H	0.644847	-0.388359	1.144245
H282	H	1.144847	0.111641	1.644245
H283	H	0.692388	-0.419277	1.055065
H284	H	1.192388	0.080723	1.555065
H285	H	0.713946	-0.428552	1.110831
H286	H	1.213946	0.071448	1.610831
O287	O	0.821523	-0.185806	1.057264
O288	O	1.321523	0.314194	1.557264
C289	C	0.814358	-0.192974	1.111309
C290	C	1.314358	0.307026	1.611309
H291	H	0.774000	-0.210102	1.118750
H292	H	1.274000	0.289898	1.618750
H293	H	0.845357	-0.220808	1.126807
H294	H	1.345357	0.279192	1.626807
C295	C	0.868741	-0.119028	1.130218
C296	C	1.368741	0.380972	1.630218
C297	C	0.819171	-0.140062	1.139358
C298	C	1.319171	0.359938	1.639358
H299	H	0.871712	-0.086391	1.147521
H300	H	1.371712	0.413609	1.647521
H301	H	0.873570	-0.114200	1.093807
H302	H	1.373570	0.385800	1.593807
H303	H	0.894568	-0.142229	1.143133
H304	H	1.394568	0.357771	1.643133
H305	H	0.793345	-0.116864	1.126437
H306	H	1.293345	0.383136	1.626437
H307	H	0.814338	-0.144885	1.175767
H308	H	1.314338	0.355115	1.675767
O309	O	0.821430	-1.056536	0.318017
O310	O	1.321430	-0.556536	0.818017
C311	C	0.791644	-1.088136	0.351750
C312	C	1.291644	-0.588136	0.851750
H313	H	0.750460	-1.071712	0.354935
H314	H	1.250460	-0.571712	0.854935
H315	H	0.789863	-1.129529	0.335587
H316	H	1.289863	-0.629529	0.835587
C317	C	0.867730	-1.109095	0.402217
C318	C	1.367730	-0.609095	0.902217
C319	C	0.817148	-1.088921	0.406133
C320	C	1.317148	-0.588921	0.906133
H321	H	0.883462	-1.109582	0.435763
H322	H	1.383462	-0.609582	0.935763
H323	H	0.887798	-1.087808	0.379490
H324	H	1.387798	-0.587808	0.879490
H325	H	0.866239	-1.143588	0.388746
H326	H	1.366239	-0.643588	0.888746
H327	H	0.818640	-1.054427	0.419598
H328	H	1.318640	-0.554427	0.919598
H329	H	0.797080	-1.110203	0.428864
H330	H	1.297080	-0.610203	0.928864
O331	O	0.821341	-0.446601	0.317892
O332	O	1.321341	0.053399	0.817892
C333	C	0.850850	-0.482365	0.347430
C334	C	1.350850	0.017635	0.847430
H335	H	0.829442	-0.521305	0.349225
H336	H	1.329442	-0.021305	0.849225
H337	H	0.890574	-0.488150	0.328324
H338	H	1.390574	0.011850	0.828324
C339	C	0.884634	-0.413188	0.400876
C340	C	1.384634	0.086812	0.900876
C341	C	0.858338	-0.461014	0.403084
C342	C	1.358338	0.038986	0.903084
H343	H	0.889256	-0.400017	0.435206
H344	H	1.389256	0.099983	0.935206
H345	H	0.864755	-0.389092	0.380975
H346	H	1.364755	0.110908	0.880975
H347	H	0.917735	-0.418015	0.384952
H348	H	1.417735	0.081985	0.884952
H349	H	0.825236	-0.456185	0.419002
H350	H	1.325236	0.043815	0.919002
H351	H	0.878212	-0.485108	0.422990
H352	H	1.378212	0.014892	0.922990
H353	H	0.661471	-0.702227	0.157734
H354	H	1.161471	-0.202227	0.657734
H355	H	-0.044983	-0.312472	0.191152
H356	H	0.455017	0.187528	0.691152
H357	H	0.849590	-0.800992	0.346129
H358	H	1.349590	-0.300992	0.846129
H359	H	0.054187	-0.191310	0.312708
H360	H	0.554187	0.308690	0.812708
H361	H	-0.044878	-0.191315	0.312711
H362	H	0.455122	0.308685	0.812711
H363	H	0.305389	-0.157922	0.346188
H364	H	0.805389	0.342078	0.846188
H365	H	0.695013	-1.052410	0.191243
H366	H	1.195013	-0.552410	0.691243
H367	H	0.816228	-0.953168	0.312683
H368	H	1.316228	-0.453168	0.812683
O369	O	0.689797	-0.949018	0.185945
O370	O	1.189797	-0.449018	0.685945
C371	C	0.719577	-0.917437	0.152189
C372	C	1.219577	-0.417437	0.652189
H373	H	0.759183	-0.909202	0.170668
H374	H	1.259183	-0.409202	0.670668
H375	H	0.725359	-0.938503	0.113455
H376	H	1.225359	-0.438503	0.613455
C377	C	0.642151	-0.875720	0.119983
C378	C	1.142151	-0.375720	0.619983
C379	C	0.690794	-0.865602	0.142681
C380	C	1.190794	-0.365602	0.642681
H381	H	0.624396	-0.843747	0.114116
H382	H	1.124396	-0.343747	0.614116
H383	H	0.622087	-0.896998	0.142724
H384	H	1.122087	-0.396998	0.642724
H385	H	0.646976	-0.893276	0.087707
H386	H	1.146976	-0.393276	0.587707
H387	H	0.685968	-0.848053	0.174959
H388	H	1.185968	-0.348053	0.674959
H389	H	0.710856	-0.844320	0.119945
H390	H	1.210856	-0.344320	0.619945
O391	O	0.689558	-0.554293	0.185880
O392	O	1.189558	-0.054293	0.685880
C393	C	0.660068	-0.518531	0.156322
C394	C	1.160068	-0.018531	0.656322
H395	H	0.658237	-0.479594	0.177726
H396	H	1.158237	0.020406	0.677726
H397	H	0.679239	-0.512737	0.116630
H398	H	1.179239	-0.012737	0.616630
C399	C	0.606679	-0.587714	0.122452
C400	C	1.106679	-0.087714	0.622452
C401	C	0.604427	-0.539892	0.148742
C402	C	1.104427	-0.039892	0.648742
H403	H	0.572358	-0.600891	0.117773
H404	H	1.072358	-0.100891	0.617773
H405	H	0.626548	-0.611808	0.142364
H406	H	1.126548	-0.111808	0.642364
H407	H	0.622658	-0.582879	0.089377
H408	H	1.122658	-0.082879	0.589377
H409	H	0.588455	-0.544729	0.181818
H410	H	1.088455	-0.044729	0.681818
H411	H	0.584554	-0.515799	0.128835
H412	H	1.084554	-0.015799	0.628835
H413	H	0.661503	-0.801277	0.157745
H414	H	1.161503	-0.301277	0.657745
H415	H	0.457483	-0.191305	0.312673
H416	H	0.957483	0.308695	0.812673
H417	H	0.816241	-0.191207	0.451483
H418	H	1.316241	0.308793	0.951483
O419	O	0.058273	-0.317762	0.185857
O420	O	0.558273	0.182238	0.685857
C421	C	0.022432	-0.347220	0.156287
C422	C	0.522432	0.152780	0.656287
H423	H	-0.016483	-0.349057	0.177706
H424	H	0.483517	0.150943	0.677706
H425	H	0.016620	-0.328017	0.116615
H426	H	0.516620	0.171983	0.616615
C427	C	0.091495	-0.400601	0.122337
C428	C	0.591495	0.099399	0.622337
C429	C	0.043700	-0.402861	0.148646
C430	C	0.543700	0.097139	0.648646
H431	H	0.104615	-0.434923	0.117621
H432	H	0.604615	0.065077	0.617621
H433	H	0.115642	-0.380754	0.142257
H434	H	0.615642	0.119246	0.642257
H435	H	0.086646	-0.384597	0.089279
H436	H	0.586646	0.115403	0.589279
H437	H	0.048552	-0.418859	0.181705
H438	H	0.548552	0.081141	0.681705
H439	H	0.019554	-0.422713	0.128731
H440	H	0.519554	0.077287	0.628731
O441	O	0.855000	-0.152394	0.698461
O442	O	1.355000	0.347606	1.198461
C443	C	0.884540	-0.122887	0.734285
C444	C	1.384540	0.377113	1.234285
H445	H	0.863127	-0.121075	0.773204
H446	H	1.363127	0.378925	1.273204
H447	H	0.924238	-0.142030	0.740095
H448	H	1.424238	0.357970	1.240095
C449	C	0.918405	-0.069467	0.665197
C450	C	1.418405	0.430533	1.165197
C451	C	0.892103	-0.067238	0.712996
C452	C	1.392103	0.432762	1.212996
H453	H	0.923073	-0.035141	0.652064
H454	H	1.423073	0.464859	1.152064
H455	H	0.898505	-0.089348	0.641061
H456	H	1.398505	0.410652	1.141061
H457	H	0.951484	-0.085423	0.670044
H458	H	1.451484	0.414577	1.170044
H459	H	0.859022	-0.051289	0.708147
H460	H	1.359022	0.448711	1.208147
H461	H	0.911998	-0.047353	0.737131
H462	H	1.411998	0.452647	1.237131
H463	H	0.694889	-0.312400	0.953791
H464	H	1.194889	0.187600	1.453791
H465	H	0.206169	-0.345840	0.157609
H466	H	0.706169	0.154160	0.657609
O467	O	0.854924	-0.152361	0.806033
O468	O	1.354924	0.347639	1.306033
C469	C	0.825192	-0.118586	0.837632
C470	C	1.325192	0.381414	1.337632
H471	H	0.784009	-0.115360	0.821180
H472	H	1.284009	0.384640	1.321180
H473	H	0.823395	-0.134735	0.879014
H474	H	1.323395	0.365265	1.379014
C475	C	0.901354	-0.068196	0.858677
C476	C	1.401354	0.431804	1.358677
C477	C	0.850774	-0.064230	0.838468
C478	C	1.350774	0.435770	1.338468
H479	H	0.917135	-0.034667	0.859196
H480	H	1.417135	0.465333	1.359196
H481	H	0.921386	-0.090952	0.837390
H482	H	1.421386	0.409048	1.337390
H483	H	0.899850	-0.081655	0.893160
H484	H	1.399850	0.418345	1.393160
H485	H	0.852279	-0.050777	0.803984
H486	H	1.352279	0.449223	1.303984
H487	H	0.830743	-0.041471	0.859750
H488	H	1.330743	0.458529	1.359750
H489	H	0.305218	-0.345834	0.157601
H490	H	0.805218	0.154166	0.657601
O491	O	0.560890	-0.186045	0.317859
O492	O	1.060890	0.313955	0.817859
C493	C	0.592476	-0.152222	0.288157
C494	C	1.092476	0.347778	0.788157
H495	H	0.600635	-0.170603	0.248499
H496	H	1.100635	0.329397	0.748499
H497	H	0.571454	-0.113468	0.282488
H498	H	1.071454	0.386532	0.782488
C499	C	0.634337	-0.120221	0.365652
C500	C	1.134337	0.379779	0.865652
C501	C	0.644361	-0.142799	0.316945
C502	C	1.144361	0.357201	0.816945
H503	H	0.666341	-0.114405	0.383410
H504	H	1.166341	0.385595	0.883410
H505	H	0.613055	-0.143006	0.385664
H506	H	1.113055	0.356994	0.885664
H507	H	0.616817	-0.087928	0.360920
H508	H	1.116817	0.412072	0.860920
H509	H	0.661875	-0.175093	0.321677
H510	H	1.161875	0.324907	0.821677
H511	H	0.665647	-0.120018	0.296935
H512	H	1.165647	0.379982	0.796935
H513	H	0.816308	-0.191071	0.953829
H514	H	1.316308	0.308929	1.453829
O515	O	0.453136	-0.317731	0.185796
O516	O	0.953136	0.182269	0.685796
C517	C	0.488915	-0.347211	0.156238
C518	C	0.988915	0.152789	0.656238
H519	H	0.527852	-0.325794	0.154469
H520	H	1.027852	0.174206	0.654469
H521	H	0.494702	-0.386947	0.175309
H522	H	0.994702	0.113053	0.675309
C523	C	0.419763	-0.380970	0.102750
C524	C	0.919763	0.119030	0.602750
C525	C	0.467584	-0.354664	0.100574
C526	C	0.967584	0.145336	0.600574
H527	H	0.406605	-0.385570	0.068414
H528	H	0.906605	0.114430	0.568414
H529	H	0.395657	-0.361110	0.122665
H530	H	0.895657	0.138890	0.622665
H531	H	0.424591	-0.414081	0.118645
H532	H	0.924591	0.085919	0.618645
H533	H	0.462754	-0.321551	0.084685
H534	H	0.962754	0.178449	0.584685
H535	H	0.491689	-0.374518	0.080655
H536	H	0.991689	0.125482	0.580655
H537	H	0.661400	-0.345866	0.801645
H538	H	1.161400	0.154134	1.301645
O539	O	0.656118	-0.351194	0.698380
O540	O	1.156118	0.148806	1.198380
C541	C	0.626585	-0.380687	0.734180
C542	C	1.126585	0.119313	1.234180
H543	H	0.648003	-0.382479	0.773107
H544	H	1.148003	0.117521	1.273107
H545	H	0.586886	-0.361543	0.739980
H546	H	1.086886	0.138457	1.239980
C547	C	0.592714	-0.434142	0.665054
C548	C	1.092714	0.065858	1.165054
C549	C	0.619022	-0.436346	0.712864
C550	C	1.119022	0.063654	1.212864
H551	H	0.588047	-0.468474	0.651905
H552	H	1.088047	0.031526	1.151905
H553	H	0.612610	-0.414271	0.640935
H554	H	1.112610	0.085729	1.140935
H555	H	0.559635	-0.418186	0.669894
H556	H	1.059635	0.081814	1.169894
H557	H	0.652103	-0.452295	0.708022
H558	H	1.152103	0.047705	1.208022
H559	H	0.599132	-0.456221	0.736982
H560	H	1.099132	0.043779	1.236982
H561	H	0.694841	-0.312510	0.550503
H562	H	1.194841	0.187490	1.050503
O563	O	0.821383	-0.554212	0.317799
O564	O	1.321383	-0.054212	0.817799
C565	C	0.855195	-0.585775	0.288074
C566	C	1.355195	-0.085775	0.788074
H567	H	0.836784	-0.594007	0.248437
H568	H	1.336784	-0.094007	0.748437
H569	H	0.893935	-0.564694	0.282358
H570	H	1.393935	-0.064694	0.782358
C571	C	0.887279	-0.627497	0.365552
C572	C	1.387279	-0.127497	0.865552
C573	C	0.864665	-0.637612	0.316871
C574	C	1.364665	-0.137612	0.816871
H575	H	0.893123	-0.659472	0.383315
H576	H	1.393123	-0.159472	0.883315
H577	H	0.864501	-0.606231	0.385578
H578	H	1.364501	-0.106231	0.885578
H579	H	0.919560	-0.609928	0.360781
H580	H	1.419560	-0.109928	0.860781
H581	H	0.832382	-0.655175	0.321642
H582	H	1.332382	-0.155175	0.821642
H583	H	0.887438	-0.658882	0.296845
H584	H	1.387438	-0.158882	0.796845
H585	H	0.694830	-0.451006	0.191137
H586	H	1.194830	0.048994	0.691137
O587	O	0.689633	-0.317865	0.447165
O588	O	1.189633	0.182135	0.947165
C589	C	0.701021	-0.369972	0.460504
C590	C	1.201021	0.130028	0.960504
H591	H	0.742786	-0.372606	0.475533
H592	H	1.242786	0.127394	0.975533
H593	H	0.672977	-0.383638	0.492182
H594	H	1.172977	0.116362	0.992182
C595	C	0.643630	-0.401636	0.393526
C596	C	1.143630	0.098364	0.893526
C597	C	0.694928	-0.404872	0.411980
C598	C	1.194928	0.095128	0.911980
H599	H	0.639869	-0.423165	0.363595
H600	H	1.139869	0.076835	0.863595
H601	H	0.635956	-0.366531	0.384540
H602	H	1.135956	0.133469	0.884540
H603	H	0.620266	-0.413024	0.419929
H604	H	1.120266	0.086976	0.919929
H605	H	0.718290	-0.393478	0.385580
H606	H	1.218290	0.106522	0.885580
H607	H	0.702606	-0.439976	0.420960
H608	H	1.202606	0.060024	0.920960
H609	H	0.556421	-0.312465	0.191103
H610	H	1.056421	0.187535	0.691103
