data_functionalizedCrystal
_audit_creation_method	'MofGen! by Chris Wilmer'
_symmetry_space_group_name_H-M	'P1'
_symmetry_Int_Tables_number	1
_symmetry_cell_setting	triclinic
loop_
_symmetry_equiv_pos_as_xyz
  x,y,z
_cell_length_a	12.759401
_cell_length_b	21.295417
_cell_length_c	12.759393
_cell_angle_alpha	89.961905
_cell_angle_beta	89.980324
_cell_angle_gamma	90.030933
loop_
_atom_site_label
_atom_site_type_symbol
_atom_site_fract_x
_atom_site_fract_y
_atom_site_fract_z
Zn1	Zn	1.606151	-0.250572	-0.593929
Zn2	Zn	2.106151	0.249428	-0.093929
Zn3	Zn	1.605994	-0.355854	-0.418226
Zn4	Zn	2.105994	0.144146	0.081774
Zn5	Zn	1.430450	-0.250603	-0.418268
Zn6	Zn	1.930450	0.249397	0.081732
Zn7	Zn	1.430393	-0.355808	-0.593867
Zn8	Zn	1.930393	0.144192	-0.093867
O9	O	1.518247	-0.303209	-0.506073
O10	O	2.018247	0.196791	-0.006073
O11	O	1.753151	-0.264544	-0.570630
O12	O	2.253151	0.235456	-0.070630
O13	O	1.582665	-0.341924	-0.271210
O14	O	2.082665	0.158076	0.228790
O15	O	1.453846	-0.162509	-0.441614
O16	O	1.953846	0.337491	0.058386
O17	O	1.753035	-0.341894	-0.441542
O18	O	2.253035	0.158106	0.058458
O19	O	1.582933	-0.162486	-0.570671
O20	O	2.082933	0.337514	-0.070671
O21	O	1.453694	-0.264597	-0.271242
O22	O	1.953694	0.235403	0.228758
O23	O	1.283421	-0.264553	-0.441553
O24	O	1.783421	0.235447	0.058447
O25	O	1.453750	-0.341815	-0.740896
O26	O	1.953750	0.158185	-0.240896
O27	O	1.283380	-0.341846	-0.570565
O28	O	1.783380	0.158154	-0.070565
O29	O	1.582878	-0.264499	-0.740942
O30	O	2.082878	0.235501	-0.240942
O31	O	1.582610	-0.443937	-0.441482
O32	O	2.082610	0.056063	0.058518
O33	O	1.453597	-0.443903	-0.570524
O34	O	1.953597	0.056097	-0.070524
C35	C	1.245279	-0.303198	-0.506058
C36	C	1.745279	0.196802	-0.006058
C37	C	1.128503	-0.303209	-0.506076
C38	C	1.628503	0.196791	-0.006076
C39	C	1.073702	-0.263005	-0.573396
C40	C	1.573702	0.236995	-0.073396
C41	C	0.963978	-0.263012	-0.573403
C42	C	1.463978	0.236988	-0.073403
C43	C	0.963866	-0.343430	-0.438767
C44	C	1.463866	0.156570	0.061233
C45	C	1.073588	-0.343420	-0.438756
C46	C	1.573588	0.156580	0.061244
C47	C	1.518109	-0.466761	-0.506014
C48	C	2.018109	0.033239	-0.006014
C49	C	1.518146	-0.536729	-0.506025
C50	C	2.018146	-0.036729	-0.006025
C51	C	1.585383	-0.569592	-0.438901
C52	C	2.085383	-0.069592	0.061099
C53	C	1.585432	-0.635335	-0.438925
C54	C	2.085432	-0.135335	0.061075
C55	C	1.518226	-0.668211	-0.506061
C56	C	2.018226	-0.168211	-0.006061
C57	C	1.450985	-0.635340	-0.573198
C58	C	1.950985	-0.135340	-0.073198
C59	C	1.450945	-0.569599	-0.573180
C60	C	1.950945	-0.069599	-0.073180
N61	N	1.426319	-0.771477	-0.514065
N62	N	1.926319	-0.271477	-0.014065
N63	N	1.426360	-0.833928	-0.514076
N64	N	1.926360	-0.333928	-0.014076
C65	C	1.518344	-0.866286	-0.506121
C66	C	2.018344	-0.366286	-0.006121
N67	N	1.610287	-0.833833	-0.498134
N68	N	2.110287	-0.333833	0.001866
N69	N	1.610245	-0.771376	-0.498117
N70	N	2.110245	-0.271376	0.001883
C71	C	1.518262	-0.739497	-0.506089
C72	C	2.018262	-0.239497	-0.006089
C73	C	1.585639	-0.970435	-0.439019
C74	C	2.085639	-0.470435	0.060981
C75	C	1.585690	-1.036178	-0.439050
C76	C	2.085690	-0.536178	0.060950
C77	C	1.451233	-1.036183	-0.573318
C78	C	1.951233	-0.536183	-0.073318
C79	C	1.451192	-0.970440	-0.573293
C80	C	1.951192	-0.470440	-0.073293
C81	C	1.518393	-0.937570	-0.506138
C82	C	2.018393	-0.437570	-0.006138
C83	C	1.792280	-0.303220	-0.506088
C84	C	2.292280	0.196780	-0.006088
C85	C	1.909057	-0.303225	-0.506095
C86	C	2.409057	0.196775	-0.006095
C87	C	1.518325	-0.303149	-0.780106
C88	C	2.018325	0.196851	-0.280106
C89	C	1.518359	-0.303123	-0.896883
C90	C	2.018359	0.196877	-0.396883
C91	C	1.518414	-0.139019	-0.506154
C92	C	2.018414	0.360981	-0.006154
C93	C	1.518485	-0.069051	-0.506189
C94	C	2.018485	0.430949	-0.006189
C95	C	1.585601	-0.262858	-0.951770
C96	C	2.085601	0.237142	-0.451770
C97	C	1.585619	-0.262831	-1.061494
C98	C	2.085619	0.237169	-0.561494
C99	C	1.451149	-0.343339	-1.061434
C100	C	1.951149	0.156661	-0.561434
C101	C	1.451127	-0.343363	-0.951712
C102	C	1.951127	0.156637	-0.451712
C103	C	1.518229	-0.303224	-0.233105
C104	C	2.018229	0.196776	0.266895
C105	C	1.518399	-0.303072	-0.116329
C106	C	2.018399	0.196928	0.383671
H107	H	1.118208	-0.376160	-0.383930
H108	H	1.618208	0.123840	0.116070
C109	C	1.659313	-0.533439	-0.365046
C110	C	2.159313	-0.033439	0.134954
H111	H	1.699372	-0.562430	-0.325079
H112	H	2.199372	-0.062430	0.174921
H113	H	1.619138	-0.507835	-0.319227
H114	H	2.119138	-0.007835	0.180773
H115	H	1.705059	-0.507752	-0.405277
H116	H	2.205059	-0.007752	0.094723
H117	H	1.396414	-0.376102	-1.106089
H118	H	1.896414	0.123898	-0.606089
C119	C	1.659387	-0.671492	-0.365078
C120	C	2.159387	-0.171492	0.134922
H121	H	1.699398	-0.642500	-0.325076
H122	H	2.199398	-0.142500	0.174924
H123	H	1.705161	-0.697096	-0.405304
H124	H	2.205161	-0.197096	0.094696
H125	H	1.619218	-0.697178	-0.319276
H126	H	2.119218	-0.197178	0.180724
C127	C	1.659568	-0.934275	-0.365165
C128	C	2.159568	-0.434275	0.134835
H129	H	1.699632	-0.963266	-0.325202
H130	H	2.199632	-0.463266	0.174798
H131	H	1.619389	-0.908675	-0.319343
H132	H	2.119389	-0.408675	0.180657
H133	H	1.705308	-0.908584	-0.405396
H134	H	2.205308	-0.408584	0.094604
C135	C	0.903696	-0.218791	-0.647457
C136	C	1.403696	0.281209	-0.147457
H137	H	0.830484	-0.224550	-0.637817
H138	H	1.330484	0.275450	-0.137817
H139	H	0.921702	-0.228054	-0.718016
H140	H	1.421702	0.271946	-0.218016
H141	H	0.921702	-0.176481	-0.632207
H142	H	1.421702	0.323519	-0.132207
C143	C	1.376980	-0.533445	-0.647013
C144	C	1.876980	-0.033445	-0.147013
H145	H	1.386585	-0.489584	-0.637390
H146	H	1.886585	0.010416	-0.137390
H147	H	1.306403	-0.544265	-0.631585
H148	H	1.806403	-0.044265	-0.131585
H149	H	1.392336	-0.544173	-0.717624
H150	H	1.892336	-0.044173	-0.217624
C151	C	1.659543	-0.218593	-0.891457
C152	C	2.159543	0.281407	-0.391457
H153	H	1.649909	-0.224376	-0.818248
H154	H	2.149909	0.275624	-0.318248
H155	H	1.644215	-0.176293	-0.909458
H156	H	2.144215	0.323707	-0.409458
H157	H	1.730131	-0.227809	-0.909445
H158	H	2.230131	0.272191	-0.409445
C159	C	1.377158	-0.387655	-0.891327
C160	C	1.877158	0.112345	-0.391327
H161	H	1.386767	-0.381900	-0.818128
H162	H	1.886767	0.118100	-0.318128
H163	H	1.392488	-0.429948	-0.909284
H164	H	1.892488	0.070052	-0.409284
H165	H	1.306578	-0.378429	-0.909303
H166	H	1.806578	0.121571	-0.409303
H167	H	1.118410	-0.230260	-0.628210
H168	H	1.618410	0.269740	-0.128210
H169	H	0.919140	-0.376170	-0.383959
H170	H	1.419140	0.123830	0.116041
H171	H	1.640373	-0.230042	-1.106179
H172	H	2.140373	0.269958	-0.606179
C173	C	1.377058	-0.671501	-0.647043
C174	C	1.877058	-0.171501	-0.147043
H175	H	1.386703	-0.715362	-0.637434
H176	H	1.886703	-0.215362	-0.137434
H177	H	1.392389	-0.660686	-0.717645
H178	H	1.892389	-0.160686	-0.217645
H179	H	1.306465	-0.660772	-0.631597
H180	H	1.806465	-0.160772	-0.131597
C181	C	1.659640	-1.072331	-0.365200
C182	C	2.159640	-0.572331	0.134800
H183	H	1.650046	-1.116193	-0.374832
H184	H	2.150046	-0.616193	0.125168
H185	H	1.644277	-1.061599	-0.294598
H186	H	2.144277	-0.561599	0.205402
H187	H	1.730225	-1.061513	-0.380621
H188	H	2.230225	-0.561513	0.119379
C189	C	1.377313	-1.072339	-0.647172
C190	C	1.877313	-0.572339	-0.147172
H191	H	1.386963	-1.116199	-0.637568
H192	H	1.886963	-0.616199	-0.137568
H193	H	1.392646	-1.061519	-0.717771
H194	H	1.892646	-0.561519	-0.217771
H195	H	1.306718	-1.061613	-0.631727
H196	H	1.806718	-0.561613	-0.131727
C197	C	1.377217	-0.934289	-0.647116
C198	C	1.877217	-0.434289	-0.147116
H199	H	1.337191	-0.963283	-0.687098
H200	H	1.837191	-0.463283	-0.187098
H201	H	1.417362	-0.908596	-0.692921
H202	H	1.917362	-0.408596	-0.192921
H203	H	1.331443	-0.908691	-0.606868
H204	H	1.831443	-0.408691	-0.106868
