data_functionalizedCrystal
_audit_creation_method	'MofGen! by Chris Wilmer'
_symmetry_space_group_name_H-M	'P1'
_symmetry_Int_Tables_number	1
_symmetry_cell_setting	triclinic
loop_
_symmetry_equiv_pos_as_xyz
  x,y,z
_cell_length_a	18.426585
_cell_length_b	20.875641
_cell_length_c	20.875641
_cell_angle_alpha	60.089808
_cell_angle_beta	90.003552
_cell_angle_gamma	62.439788
loop_
_atom_site_label
_atom_site_type_symbol
_atom_site_fract_x
_atom_site_fract_y
_atom_site_fract_z
Zr1	Zr	0.732359	0.694322	-0.105734
O2	O	0.626005	0.820566	-0.209003
O3	O	0.760983	0.563066	-0.070801
O4	O	0.771671	0.687089	-0.204273
O5	O	0.611413	0.703997	0.026027
O6	O	0.891101	0.687085	-0.204267
O7	O	0.615317	0.696543	-0.075532
O8	O	0.871983	0.465231	0.034490
O9	O	0.630531	0.925851	-0.212729
O10	O	0.867128	0.618907	-0.059855
O11	O	0.775085	0.624473	0.015933
O12	O	0.787669	0.770494	-0.141213
O13	O	0.695625	0.776059	-0.065425
Zr14	Zr	0.916610	0.706203	0.056250
Zr15	Zr	0.922837	0.694316	-0.105724
Zr16	Zr	0.726133	0.706210	0.056241
Zr17	Zr	0.739579	0.862240	-0.111676
Zr18	Zr	0.909391	0.538286	0.062192
O19	O	0.887986	0.837460	0.021317
O20	O	0.896840	0.820557	-0.208990
O21	O	0.617151	0.837469	0.021304
O22	O	1.022965	0.579960	0.159520
O23	O	1.031818	0.563057	-0.070788
O24	O	0.752130	0.579969	0.159506
O25	O	1.037557	0.696529	-0.075511
O26	O	0.877299	0.713437	0.154789
O27	O	0.757868	0.713441	0.154783
O28	O	1.033653	0.703982	0.026048
O29	O	0.781936	0.925846	-0.212722
O30	O	0.867034	0.474680	0.163238
O31	O	1.018438	0.474675	0.163246
O32	O	1.023388	0.465226	0.034497
O33	O	0.625582	0.935300	-0.083981
O34	O	0.776987	0.935295	-0.083973
O35	O	0.861301	0.630032	0.091729
O36	O	0.953344	0.624467	0.015941
O37	O	0.873885	0.776053	-0.065416
O38	O	0.781841	0.781619	0.010372
C39	C	0.815454	0.490224	-0.017309
C40	C	0.812390	0.418938	-0.014786
C41	C	0.586226	0.700271	-0.024754
C42	C	0.505363	0.700274	-0.024758
C43	C	0.858993	0.382543	-0.053162
C44	C	0.856115	0.315559	-0.050784
C45	C	0.806629	0.284975	-0.010035
C46	C	0.760024	0.321373	0.028345
C47	C	0.762907	0.388352	0.025971
C48	C	0.792858	0.084964	0.001310
C49	C	0.789977	0.017982	0.003678
C50	C	0.886070	0.012171	-0.075450
C51	C	0.888944	0.079155	-0.077824
C52	C	0.842343	0.115545	-0.039440
N53	N	0.803684	0.216508	-0.007606
N54	N	0.845293	0.184006	-0.041865
C55	C	0.439693	0.700277	-0.024758
C56	C	0.357311	0.700274	-0.024751
C57	C	0.291652	0.700265	-0.024741
C58	C	0.209265	0.700261	-0.024735
C59	C	1.062744	0.700255	-0.024730
C60	C	1.143606	0.700252	-0.024726
C61	C	0.832273	0.685393	-0.227348
C62	C	0.834917	0.680347	-0.296110
C63	C	0.833515	0.910302	-0.032175
C64	C	0.836580	0.981587	-0.034697
C65	C	0.794683	0.757100	-0.370883
C66	C	0.797178	0.752353	-0.435490
C67	C	0.839902	0.670852	-0.425322
C68	C	0.880141	0.594092	-0.350542
C69	C	0.877651	0.598840	-0.285937
C70	C	0.851802	0.648167	-0.613988
C71	C	0.854287	0.643425	-0.678601
C72	C	0.771325	0.801687	-0.763544
C73	C	0.768834	0.806427	-0.698934
C74	C	0.809077	0.729668	-0.624159
N75	N	0.842451	0.665998	-0.491360
N76	N	0.806533	0.734523	-0.558123
C77	C	0.816696	0.715132	0.177864
C78	C	0.814053	0.720179	0.246627
C79	C	1.053713	0.490216	-0.017297
C80	C	1.131511	0.418928	-0.014771
C81	C	0.807666	0.505093	0.185297
C82	C	0.801958	0.438855	0.256582
C83	C	1.045925	0.505085	0.185309
C84	C	1.121079	0.438844	0.256598
C85	C	0.603045	0.895440	-0.234792
C86	C	0.527890	0.961682	-0.306081
C87	C	0.595256	0.910310	-0.032186
C88	C	0.517458	0.981598	-0.034713
C89	C	0.841304	0.895432	-0.234780
C90	C	0.847012	0.961671	-0.306066
C91	C	1.123042	0.382547	-0.053156
C92	C	1.196136	0.315573	-0.050797
C93	C	1.277697	0.284976	-0.010048
C94	C	1.286164	0.321362	0.028338
C95	C	1.213072	0.388340	0.025974
C96	C	0.844281	0.410651	0.329630
C97	C	0.838914	0.348422	0.396616
C98	C	0.791229	0.314394	0.390552
C99	C	0.748901	0.342604	0.317496
C100	C	0.754263	0.404836	0.250512
C101	C	1.204426	0.404831	0.250515
C102	C	1.275050	0.342599	0.317493
C103	C	1.262325	0.314376	0.390552
C104	C	1.178969	0.348396	0.396632
C105	C	1.108347	0.410631	0.329656
C106	C	0.444543	0.995703	-0.299999
C107	C	0.373921	1.057956	-0.366977
C108	C	0.386646	1.086182	-0.440037
C109	C	0.470002	1.052158	-0.446117
C110	C	0.540623	0.989911	-0.379140
C111	C	0.525928	1.017985	0.003665
C112	C	0.452836	1.084976	0.001288
C113	C	0.371275	1.115576	-0.039463
C114	C	0.362808	1.079186	-0.077846
C115	C	0.435899	1.012200	-0.075473
C116	C	0.894704	0.995680	-0.299977
C117	C	0.900084	1.057910	-0.366950
C118	C	0.857767	1.086134	-0.440012
C119	C	0.810073	1.052119	-0.446099
C120	C	0.804698	0.989886	-0.379126
H121	H	0.899286	0.407444	-0.086348
Cl122	Cl	0.645399	0.947143	-0.386799
Cl123	Cl	0.744727	0.947148	-0.386795
H124	H	0.894064	0.285926	-0.082032
Cl125	Cl	0.463500	1.130706	0.049550
H126	H	0.764417	0.814854	-0.496371
H127	H	0.311767	1.170121	-0.041389
H128	H	0.719801	0.427791	0.191035
H129	H	0.775620	1.075110	-0.505595
H130	H	0.749674	-0.006915	0.036861
Cl131	Cl	0.951153	0.117603	-0.129058
H132	H	0.924011	-0.017464	-0.106699
H133	H	0.434165	0.972725	-0.240517
H134	H	0.889077	0.577054	-0.670314
H135	H	1.319837	0.263700	0.445082
Cl136	Cl	0.734277	0.130699	0.049567
Cl137	Cl	0.628453	0.979535	0.054897
H138	H	0.883111	0.438350	0.334582
H139	H	0.719735	0.296463	0.061528
H140	H	0.734046	0.872795	-0.707221
H141	H	1.040485	0.438316	0.334619
H142	H	0.428991	0.982576	-0.106724
H143	H	1.168620	0.325407	0.456126
Cl144	Cl	1.220447	0.440303	0.158678
Cl145	Cl	0.947913	0.960210	-0.208136
Cl146	Cl	0.892136	0.312968	0.488448
H147	H	1.189225	0.285955	-0.082056
Cl148	Cl	0.902355	0.551669	-0.519994
Cl149	Cl	0.704319	0.434104	0.074219
Cl150	Cl	1.223733	0.434061	0.074242
Cl151	Cl	0.260267	1.117661	-0.129070
Cl152	Cl	0.960040	1.100664	-0.359280
Cl153	Cl	0.864529	1.164375	-0.524200
H154	H	0.786870	0.263721	0.445101
H155	H	0.710076	0.314889	0.312570
H156	H	1.337206	0.230437	-0.008129
H157	H	0.759886	0.823468	-0.379171
H158	H	0.738562	0.864180	-0.824431
H159	H	0.914933	0.527732	-0.342268
Cl160	Cl	1.379830	0.299840	0.309831
Cl161	Cl	0.269141	1.100712	-0.359315
H162	H	0.329134	1.136868	-0.494567
H163	H	0.480353	1.075148	-0.505610
H164	H	0.910413	0.536339	-0.225053
H165	H	1.056639	0.407458	-0.086348
Cl166	Cl	1.388704	0.282883	0.079566
