data_functionalizedCrystal
_audit_creation_method	'MofGen! by Chris Wilmer'
_symmetry_space_group_name_H-M	'P1'
_symmetry_Int_Tables_number	1
_symmetry_cell_setting	triclinic
loop_
_symmetry_equiv_pos_as_xyz
  x,y,z
_cell_length_a	17.077404
_cell_length_b	17.637651
_cell_length_c	17.077396
_cell_angle_alpha	101.244719
_cell_angle_beta	90.019501
_cell_angle_gamma	101.218991
loop_
_atom_site_label
_atom_site_type_symbol
_atom_site_fract_x
_atom_site_fract_y
_atom_site_fract_z
Zn1	Zn	1.136911	-0.314758	0.380585
Zn2	Zn	1.470244	0.018575	0.713918
Zn3	Zn	1.803578	0.351908	1.047252
Zn4	Zn	1.110293	-0.446980	0.222746
Zn5	Zn	1.443626	-0.113647	0.556079
Zn6	Zn	1.776960	0.219686	0.889413
Zn7	Zn	1.005637	-0.314786	0.249327
Zn8	Zn	1.338970	0.018547	0.582661
Zn9	Zn	1.672304	0.351881	0.915994
Zn10	Zn	0.979095	-0.446933	0.353979
Zn11	Zn	1.312428	-0.113600	0.687313
Zn12	Zn	1.645762	0.219733	1.020646
O13	O	1.057984	-0.380865	0.301659
O14	O	1.391317	-0.047531	0.634993
O15	O	1.724651	0.285802	0.968326
O16	O	1.243225	-0.332306	0.359658
O17	O	1.576559	0.001027	0.692991
O18	O	1.909892	0.334361	1.026324
O19	O	1.096378	-0.429476	0.116419
O20	O	1.429712	-0.096142	0.449752
O21	O	1.763045	0.237191	0.783086
O22	O	1.045299	-0.204143	0.288998
O23	O	1.378632	0.129190	0.622331
O24	O	1.711965	0.462524	0.955665
O25	O	1.223669	-0.429449	0.243694
O26	O	1.557002	-0.096116	0.577027
O27	O	1.890336	0.237218	0.910361
O28	O	1.141745	-0.204122	0.385433
O29	O	1.475078	0.129211	0.718766
O30	O	1.808412	0.462544	1.052099
O31	O	1.019488	-0.332353	0.135948
O32	O	1.352822	0.000980	0.469281
O33	O	1.686155	0.334313	0.802615
O34	O	0.892271	-0.332308	0.263199
O35	O	1.225604	0.001026	0.596533
O36	O	1.558938	0.334359	0.929866
O37	O	1.000061	-0.429369	0.467362
O38	O	1.333395	-0.096036	0.800695
O39	O	1.666728	0.237298	1.134028
O40	O	0.872771	-0.429396	0.340087
O41	O	1.206104	-0.096062	0.673420
O42	O	1.539437	0.237271	1.006753
O43	O	1.116008	-0.332260	0.486909
O44	O	1.449341	0.001073	0.820242
O45	O	1.782675	0.334406	1.153576
O46	O	1.070641	-0.557614	0.217895
O47	O	1.403975	-0.224280	0.551229
O48	O	1.737308	0.109053	0.884562
O49	O	0.974251	-0.557579	0.314312
O50	O	1.307584	-0.224246	0.647645
O51	O	1.640918	0.109087	0.980978
C52	C	0.854039	-0.380850	0.301641
C53	C	1.187372	-0.047517	0.634974
C54	C	1.520706	0.285816	0.968307
C55	C	0.766787	-0.380863	0.301647
C56	C	1.100120	-0.047530	0.634981
C57	C	1.433453	0.285803	0.968314
C58	C	1.016699	-0.586284	0.260349
C59	C	1.350032	-0.252951	0.593683
C60	C	1.683366	0.080383	0.927016
C61	C	0.999109	-0.674163	0.242703
C62	C	1.332442	-0.340830	0.576036
C63	C	1.665776	-0.007497	0.909369
C64	C	0.715648	-0.431493	0.341587
C65	C	1.048981	-0.098160	0.674920
C66	C	1.382315	0.235173	1.008253
C67	C	0.633667	-0.431495	0.341599
C68	C	0.967000	-0.098162	0.674932
C69	C	1.300334	0.235172	1.008266
C70	C	0.602826	-0.380870	0.301667
C71	C	0.936159	-0.047537	0.635000
C72	C	1.269493	0.285797	0.968333
C73	C	0.653971	-0.330234	0.261726
C74	C	0.987305	0.003099	0.595060
C75	C	1.320638	0.336432	0.928393
C76	C	0.735951	-0.330229	0.261719
C77	C	1.069285	0.003104	0.595053
C78	C	1.402618	0.336437	0.928386
C79	C	0.483098	-0.330250	0.261742
C80	C	0.816432	0.003083	0.595075
C81	C	1.149765	0.336417	0.928409
C82	C	0.401113	-0.330256	0.261748
C83	C	0.734446	0.003077	0.595081
C84	C	1.067779	0.336411	0.928414
C85	C	0.380814	-0.431516	0.341622
C86	C	0.714147	-0.098182	0.674955
C87	C	1.047481	0.235151	1.008288
C88	C	0.462794	-0.431511	0.341615
C89	C	0.796127	-0.098177	0.674948
C90	C	1.129461	0.235156	1.008281
C91	C	0.513934	-0.380876	0.301673
C92	C	0.847267	-0.047542	0.635006
C93	C	1.180600	0.285791	0.968340
C94	C	1.192124	-0.962840	0.435965
C95	C	1.525457	-0.629507	0.769298
C96	C	1.858791	-0.296173	1.102632
C97	C	1.175571	-1.045416	0.419370
C98	C	1.508904	-0.712083	0.752703
C99	C	1.842237	-0.378749	1.086036
C100	C	1.075208	-1.045545	0.318856
C101	C	1.408541	-0.712211	0.652189
C102	C	1.741875	-0.378878	0.985522
C103	C	1.091756	-0.962967	0.335440
C104	C	1.425089	-0.629634	0.668773
C105	C	1.758422	-0.296300	1.002106
C106	C	1.150214	-0.921621	0.393996
C107	C	1.483547	-0.588288	0.727329
C108	C	1.816881	-0.254954	1.060662
C109	C	1.049846	-0.921748	0.293470
C110	C	1.383179	-0.588415	0.626804
C111	C	1.716512	-0.255081	0.960137
C112	C	1.066390	-0.839177	0.310056
C113	C	1.399723	-0.505844	0.643390
C114	C	1.733056	-0.172511	0.976723
C115	C	1.124843	-0.797826	0.368611
C116	C	1.458177	-0.464493	0.701945
C117	C	1.791510	-0.131159	1.035278
C118	C	1.166758	-0.839051	0.410582
C119	C	1.500091	-0.505717	0.743915
C120	C	1.833425	-0.172384	1.077248
C121	C	0.991384	-0.963095	0.234919
C122	C	1.324717	-0.629762	0.568252
C123	C	1.658050	-0.296429	0.901585
C124	C	0.949474	-0.921876	0.192949
C125	C	1.282807	-0.588543	0.526283
C126	C	1.616140	-0.255210	0.859616
C127	C	0.966021	-0.839304	0.209531
C128	C	1.299354	-0.505971	0.542864
C129	C	1.632688	-0.172638	0.876198
C130	C	1.024475	-0.797953	0.268086
C131	C	1.357808	-0.464619	0.601419
C132	C	1.691142	-0.131286	0.934753
C133	C	0.924107	-0.798080	0.167561
C134	C	1.257440	-0.464746	0.500894
C135	C	1.590773	-0.131413	0.834227
C136	C	0.940651	-0.715509	0.184147
C137	C	1.273984	-0.382176	0.517480
C138	C	1.607317	-0.048843	0.850813
C139	C	1.041019	-0.715382	0.284672
C140	C	1.374352	-0.382049	0.618005
C141	C	1.707686	-0.048716	0.951339
C142	C	1.262725	-0.380880	0.301679
C143	C	1.596059	-0.047546	0.635012
C144	C	1.929392	0.285787	0.968345
C145	C	1.349974	-0.380886	0.301687
C146	C	1.683307	-0.047553	0.635020
C147	C	2.016640	0.285781	0.968354
C148	C	1.058043	-0.380806	0.506416
C149	C	1.391376	-0.047473	0.839749
C150	C	1.724710	0.285860	1.173082
C151	C	1.058068	-0.380782	0.593670
C152	C	1.391402	-0.047448	0.927004
C153	C	1.724735	0.285885	1.260337
C154	C	1.099452	-0.174643	0.343148
C155	C	1.432785	0.158690	0.676482
C156	C	1.766118	0.492024	1.009815
C157	C	1.117123	-0.086764	0.360828
C158	C	1.450456	0.246570	0.694162
C159	C	1.783789	0.579903	1.027495
C160	C	1.057982	-0.380866	0.097711
C161	C	1.391315	-0.047532	0.431045
C162	C	1.724648	0.285801	0.764378
C163	C	1.058153	-0.380668	0.010502
C164	C	1.391487	-0.047334	0.343835
C165	C	1.724820	0.285999	0.677169
C166	C	1.118444	-0.330213	0.644841
C167	C	1.451778	0.003120	0.978174
C168	C	1.785111	0.336454	1.311508
C169	C	1.118459	-0.330187	0.726827
C170	C	1.451793	0.003147	1.060160
C171	C	1.785126	0.336480	1.393493
C172	C	1.058100	-0.380733	0.757640
C173	C	1.391434	-0.047400	1.090973
C174	C	1.724767	0.285933	1.424306
C175	C	0.997718	-0.431304	0.706463
C176	C	1.331052	-0.097971	1.039796
C177	C	1.664385	0.235362	1.373129
C178	C	0.997701	-0.431326	0.624479
C179	C	1.331034	-0.097993	0.957813
C180	C	1.664368	0.235341	1.291146
C181	C	0.997759	-0.431257	0.877343
C182	C	1.331093	-0.097923	1.210676
C183	C	1.664426	0.235410	1.544009
C184	C	0.997777	-0.431236	0.959331
C185	C	1.331110	-0.097903	1.292665
C186	C	1.664444	0.235430	1.625998
C187	C	1.118518	-0.330117	0.979690
C188	C	1.451851	0.003216	1.313023
C189	C	1.785184	0.336549	1.646356
C190	C	1.118500	-0.330139	0.897706
C191	C	1.451834	0.003194	1.231040
C192	C	1.785167	0.336528	1.564373
C193	C	1.058119	-0.380711	0.846535
C194	C	1.391452	-0.047378	1.179868
C195	C	1.724786	0.285956	1.513202
H196	H	0.740751	-0.472721	0.374101
H197	H	1.074084	-0.139387	0.707435
H198	H	1.407418	0.193946	1.040768
F199	F	0.861884	-0.842093	0.105254
F200	F	1.195217	-0.508760	0.438587
F201	F	1.528550	-0.175426	0.771920
F202	F	0.933439	-0.485146	0.570020
F203	F	1.266772	-0.151813	0.903353
F204	F	1.600106	0.181521	1.236687
F205	F	1.182741	-0.276392	0.781278
F206	F	1.516075	0.056942	1.114611
F207	F	1.849408	0.390275	1.447944
F208	F	0.790378	-0.276340	0.219212
F209	F	1.123711	0.056993	0.552546
F210	F	1.457044	0.390326	0.885879
H211	H	0.948626	-0.472394	0.984416
H212	H	1.281960	-0.139061	1.317750
H213	H	1.615293	0.194272	1.651083
H214	H	0.376007	-0.289023	0.229242
H215	H	0.709340	0.044310	0.562576
H216	H	1.042673	0.377644	0.895909
H217	H	0.487901	-0.472738	0.374126
H218	H	0.821234	-0.139405	0.707459
H219	H	1.154567	0.193928	1.040793
F220	F	0.579244	-0.485382	0.384108
F221	F	0.912578	-0.152049	0.717442
F222	F	1.245911	0.181284	1.050775
H223	H	0.339172	-0.472742	0.374147
H224	H	0.672505	-0.139409	0.707480
H225	H	1.005839	0.193925	1.040813
F226	F	0.537524	-0.276357	0.219232
F227	F	0.870857	0.056976	0.552566
F228	F	1.204191	0.390309	0.885899
H229	H	0.628855	-0.289011	0.229217
H230	H	0.962188	0.044322	0.562550
H231	H	1.295522	0.377655	0.895883
H232	H	1.088628	-0.681717	0.332349
H233	H	1.421961	-0.348384	0.665682
H234	H	1.755294	-0.015050	0.999015
H235	H	0.906522	-0.681948	0.149971
H236	H	1.239855	-0.348615	0.483305
H237	H	1.573189	-0.015282	0.816638
H238	H	1.027609	-1.079220	0.271181
H239	H	1.360943	-0.745886	0.604514
H240	H	1.694276	-0.412553	0.937848
F241	F	1.254351	-0.918832	0.498279
F242	F	1.587684	-0.585499	0.831612
F243	F	1.921018	-0.252165	1.164946
F244	F	1.142256	-0.709947	0.386458
F245	F	1.475589	-0.376613	0.719792
F246	F	1.808923	-0.043280	1.053125
F247	F	1.228985	-0.795043	0.472896
F248	F	1.562318	-0.461709	0.806229
F249	F	1.895651	-0.128376	1.139562
H250	H	0.948571	-0.472458	0.731558
H251	H	1.281904	-0.139124	1.064891
H252	H	1.615237	0.194209	1.398224
F253	F	1.182781	-0.276295	1.034151
F254	F	1.516114	0.057038	1.367484
F255	F	1.849448	0.390372	1.700817
F256	F	1.220186	-1.089282	0.464040
F257	F	1.553519	-0.755948	0.797374
F258	F	1.886852	-0.422615	1.130707
F259	F	1.182745	-0.276346	0.864914
F260	F	1.516078	0.056987	1.198247
F261	F	1.849411	0.390321	1.531581
H262	H	0.977908	-1.030329	0.221424
H263	H	1.311242	-0.696996	0.554757
H264	H	1.644575	-0.363663	0.888090
F265	F	0.887255	-0.965888	0.130637
F266	F	1.220588	-0.632555	0.463970
F267	F	1.553922	-0.299221	0.797304
F268	F	1.182691	-0.276417	0.612055
F269	F	1.516024	0.056916	0.945388
F270	F	1.849358	0.390250	1.278722
H271	H	0.948581	-0.472426	0.835683
H272	H	1.281914	-0.139092	1.169016
H273	H	1.615247	0.194241	1.502349
