data_functionalizedCrystal
_audit_creation_method	'MofGen! by Chris Wilmer'
_symmetry_space_group_name_H-M	'P1'
_symmetry_Int_Tables_number	1
_symmetry_cell_setting	triclinic
loop_
_symmetry_equiv_pos_as_xyz
  x,y,z
_cell_length_a	12.759401
_cell_length_b	18.050590
_cell_length_c	12.759393
_cell_angle_alpha	89.964750
_cell_angle_beta	89.980662
_cell_angle_gamma	90.017843
loop_
_atom_site_label
_atom_site_type_symbol
_atom_site_fract_x
_atom_site_fract_y
_atom_site_fract_z
Zn1	Zn	1.606221	-0.295633	-0.593991
Zn2	Zn	1.606105	-0.419842	-0.418298
Zn3	Zn	1.430525	-0.295669	-0.418326
Zn4	Zn	1.430500	-0.419785	-0.593935
O5	O	1.518338	-0.357732	-0.506138
O6	O	1.753227	-0.312119	-0.570697
O7	O	1.582776	-0.403410	-0.271281
O8	O	1.453890	-0.191740	-0.441663
O9	O	1.753142	-0.403375	-0.441616
O10	O	1.582973	-0.191714	-0.570724
O11	O	1.453778	-0.312180	-0.271301
O12	O	1.283501	-0.312124	-0.441609
O13	O	1.453848	-0.403276	-0.740964
O14	O	1.283482	-0.403311	-0.570629
O15	O	1.582949	-0.312063	-0.741005
O16	O	1.582752	-0.523759	-0.441562
O17	O	1.453735	-0.523717	-0.570602
C18	C	1.245370	-0.357716	-0.506117
C19	C	1.128594	-0.357727	-0.506133
C20	C	0.963979	-0.310200	-0.439091
C21	C	1.073704	-0.310183	-0.439075
C22	C	1.073754	-0.405285	-0.573218
C23	C	0.964032	-0.405298	-0.573238
C24	C	1.223652	-0.222549	-0.401732
C25	C	1.278487	-0.174999	-0.334638
C26	C	1.242825	-0.163515	-0.232159
C27	C	1.152329	-0.199592	-0.196754
C28	C	1.097499	-0.247148	-0.263843
C29	C	1.133160	-0.258617	-0.366336
C30	C	0.814082	-0.492933	-0.610570
C31	C	0.759250	-0.540493	-0.677654
C32	C	0.794910	-0.551985	-0.780135
C33	C	0.885410	-0.515921	-0.815536
C34	C	0.940241	-0.468361	-0.748452
C35	C	0.904574	-0.456868	-0.645972
C36	C	1.518257	-0.550685	-0.506096
C37	C	1.518319	-0.633230	-0.506113
C38	C	1.588624	-0.832677	-0.436039
C39	C	1.614290	-0.882002	-0.531926
C40	C	1.518378	-0.784361	-0.506155
C41	C	1.492819	-0.882118	-0.410311
C42	C	1.518438	-0.930346	-0.506187
C43	C	1.544094	-0.832598	-0.602093
C44	C	1.422578	-0.832710	-0.480413
C45	C	1.448208	-0.882012	-0.576366
C46	C	1.518347	-0.700262	-0.506135
C47	C	1.518469	-1.014442	-0.506218
C48	C	1.792371	-0.357750	-0.506160
C49	C	1.909148	-0.357757	-0.506169
C50	C	1.518409	-0.357659	-0.780171
C51	C	1.518439	-0.357628	-0.896948
C52	C	1.518448	-0.164027	-0.506203
C53	C	1.518494	-0.081481	-0.506231
C54	C	1.451323	-0.310090	-1.061551
C55	C	1.451294	-0.310115	-0.951827
C56	C	1.585624	-0.405114	-0.951799
C57	C	1.585657	-0.405085	-1.061521
C58	C	1.413762	-0.222567	-0.801905
C59	C	1.346568	-0.175090	-0.747058
C60	C	1.244071	-0.163671	-0.782669
C61	C	1.208748	-0.199740	-0.873126
C62	C	1.275936	-0.247223	-0.927967
C63	C	1.378448	-0.258628	-0.892357
C64	C	1.623179	-0.492633	-1.211445
C65	C	1.690363	-0.540121	-1.266289
C66	C	1.792862	-0.551547	-1.230679
C67	C	1.828181	-0.515491	-1.140219
C68	C	1.760997	-0.468004	-1.085376
C69	C	1.658500	-0.456576	-1.120992
C70	C	1.518328	-0.357752	-0.233170
C71	C	1.518501	-0.357574	-0.116394
H72	H	1.013931	-0.438996	-0.777284
H73	H	1.396644	-0.271401	-1.106225
H74	H	1.287480	-0.124798	-0.177531
H75	H	1.911643	-0.524796	-1.111223
H76	H	1.341559	-0.811040	-0.458590
H77	H	1.847560	-0.590220	-1.275340
H78	H	1.352169	-0.145625	-0.363474
H79	H	1.125280	-0.190445	-0.902107
H80	H	1.539719	-0.483327	-1.240454
H81	H	0.919296	-0.271486	-0.384484
H82	H	1.023821	-0.276522	-0.235016
H83	H	1.661597	-0.569479	-1.339947
H84	H	1.789763	-0.438645	-1.011718
H85	H	1.189361	-0.125013	-0.738005
H86	H	0.914447	-0.525280	-0.898983
H87	H	1.123307	-0.190245	-0.113301
H88	H	1.375338	-0.145722	-0.673407
H89	H	1.252690	-0.231888	-0.485182
H90	H	1.247177	-0.276590	-1.001615
H91	H	1.118455	-0.443993	-0.627822
H92	H	1.388829	-0.903538	-0.635743
H93	H	1.471176	-0.903868	-0.329244
H94	H	0.785025	-0.483567	-0.527129
H95	H	1.497226	-0.231853	-0.772908
H96	H	0.750260	-0.590717	-0.834751
H97	H	1.640298	-0.443797	-0.907108
H98	H	1.565656	-0.810939	-0.683230
H99	H	0.685563	-0.569860	-0.648820
H100	H	1.648048	-0.811014	-0.376806
H101	H	1.695332	-0.903656	-0.553720
