data_functionalizedCrystal
_audit_creation_method	'MofGen! by Chris Wilmer'
_symmetry_space_group_name_H-M	'P1'
_symmetry_Int_Tables_number	1
_symmetry_cell_setting	triclinic
loop_
_symmetry_equiv_pos_as_xyz
  x,y,z
_cell_length_a	12.594517
_cell_length_b	16.994748
_cell_length_c	12.594509
_cell_angle_alpha	90.014454
_cell_angle_beta	90.021327
_cell_angle_gamma	90.005704
loop_
_atom_site_label
_atom_site_type_symbol
_atom_site_fract_x
_atom_site_fract_y
_atom_site_fract_z
Zn1	Zn	1.627342	-0.314008	0.601962
Zn2	Zn	1.627264	-0.445929	0.424026
Zn3	Zn	1.449346	-0.314042	0.423991
Zn4	Zn	1.449360	-0.445874	0.601956
O5	O	1.538328	-0.379963	0.512984
O6	O	1.776278	-0.331517	0.578376
O7	O	1.603625	-0.428471	0.275076
O8	O	1.472984	-0.203657	0.447587
O9	O	1.776221	-0.428438	0.447647
O10	O	1.603757	-0.203632	0.578341
O11	O	1.472909	-0.331574	0.275050
O12	O	1.300402	-0.331521	0.447581
O13	O	1.473008	-0.428345	0.750903
O14	O	1.300412	-0.428377	0.578332
O15	O	1.603771	-0.331464	0.750907
O16	O	1.603638	-0.556303	0.447641
O17	O	1.472932	-0.556262	0.578366
C18	C	1.261787	-0.379947	0.512952
C19	C	1.143482	-0.379960	0.512964
C20	C	1.538291	-0.584903	0.513004
C21	C	1.538310	-0.674225	0.512988
Zn22	Zn	1.627330	-0.814013	0.424024
Zn23	Zn	1.627344	-0.945874	0.601951
Zn24	Zn	1.449415	-0.945929	0.423912
Zn25	Zn	1.449358	-0.814037	0.601886
O26	O	1.538362	-0.879963	0.512943
O27	O	1.776278	-0.831472	0.447700
O28	O	1.603771	-1.056262	0.578314
O29	O	1.473034	-0.928443	0.274981
O30	O	1.776288	-0.928349	0.578422
O31	O	1.603748	-0.831525	0.275063
O32	O	1.473048	-1.056303	0.447510
O33	O	1.300462	-0.928466	0.447447
O34	O	1.472936	-0.703653	0.578312
O35	O	1.300420	-0.831566	0.578204
O36	O	1.603692	-0.703635	0.447638
O37	O	1.603715	-0.928372	0.750888
O38	O	1.472950	-0.831512	0.750841
C39	C	1.074192	-0.327208	0.441985
C40	C	1.003398	-0.399158	0.415828
C41	C	1.003476	-0.308044	0.539139
C42	C	1.074246	-0.451948	0.486757
C43	C	1.074330	-0.360785	0.610113
C44	C	1.003569	-0.432786	0.583993
C45	C	1.815949	-0.379980	0.513016
C46	C	1.934254	-0.379987	0.513030
C47	C	1.538399	-0.379894	0.790605
C48	C	1.538430	-0.379865	0.908910
C49	C	1.538370	-0.174223	0.512958
C50	C	1.538392	-0.084901	0.512947
C51	C	1.538318	-0.379975	0.236443
C52	C	1.538494	-0.379782	0.118138
C53	C	1.467330	-0.432528	0.978161
C54	C	1.564455	-0.451801	1.048958
C55	C	1.441380	-0.360544	1.048913
C56	C	1.635606	-0.399176	0.978149
C57	C	1.512465	-0.307885	0.978097
C58	C	1.609657	-0.327130	1.048862
C59	C	1.261821	-0.880024	0.512807
C60	C	1.143515	-0.880031	0.512774
C61	C	1.538331	-0.879941	0.789485
C62	C	1.538348	-0.879954	0.907790
C63	C	1.815982	-0.879902	0.513081
C64	C	1.934288	-0.879875	0.513139
C65	C	1.538396	-0.879988	0.235322
C66	C	1.538410	-0.879998	0.117017
C67	C	1.074254	-0.932642	0.441526
C68	C	1.003472	-0.952031	0.538570
C69	C	1.003498	-0.860650	0.415681
C70	C	1.074291	-0.899457	0.609870
C71	C	1.074324	-0.808044	0.486914
C72	C	1.003574	-0.827405	0.584025
C73	C	1.467187	-0.827332	0.977056
C74	C	1.441266	-0.899335	1.047781
C75	C	1.564271	-0.808008	1.047864
C76	C	1.512376	-0.951995	0.976956
C77	C	1.635427	-0.860620	0.977034
C78	C	1.609543	-0.932672	1.047727
H79	H	1.105202	-0.282641	0.381886
C80	C	0.961914	-1.033130	0.567924
C81	C	0.900841	-1.027734	0.660508
C82	C	0.862560	-1.102430	0.687583
H83	H	0.919272	-1.052905	0.511704
H84	H	1.020025	-1.067682	0.579726
H85	H	0.842738	-0.993194	0.648700
H86	H	0.943461	-1.007972	0.716748
H87	H	0.920671	-1.136982	0.699385
H88	H	0.819923	-1.122199	0.631357
H89	H	0.821126	-1.098780	0.750408
H90	H	0.972243	-0.415393	0.333699
H91	H	0.972735	-0.782902	0.644321
C92	C	1.483240	-1.033232	0.935673
C93	C	1.557469	-1.088228	0.972294
C94	C	1.530669	-1.163067	0.934272
H95	H	1.414548	-1.047177	0.960461
H96	H	1.483418	-1.032751	0.860242
H97	H	1.557280	-1.088712	1.047709
H98	H	1.626167	-1.074309	0.947509
H99	H	1.530847	-1.162585	0.858841
H100	H	1.461976	-1.177004	0.959062
H101	H	1.581034	-1.200389	0.959106
H102	H	1.105511	-0.344529	0.692217
C103	C	1.115804	-0.726936	0.457523
C104	C	1.080019	-0.706961	0.355774
C105	C	1.118223	-0.632255	0.328645
H106	H	1.090576	-0.689340	0.507306
H107	H	1.191232	-0.727410	0.458338
H108	H	1.004608	-0.706480	0.354967
H109	H	1.105245	-0.744536	0.305969
H110	H	1.193651	-0.632729	0.329461
H111	H	1.092992	-0.594666	0.378435
H112	H	1.093957	-0.618695	0.259604
C113	C	1.331826	-0.921305	1.089094
C114	C	1.304235	-0.996135	1.051613
C115	C	1.203423	-1.016389	1.089640
H116	H	1.332697	-0.921698	1.164508
H117	H	1.281277	-0.883892	1.064879
H118	H	1.354770	-1.033538	1.075834
H119	H	1.303340	-0.995761	0.976203
H120	H	1.152874	-0.978976	1.065425
H121	H	1.204304	-1.016778	1.165053
H122	H	1.184685	-1.067159	1.064207
H123	H	0.972335	-0.247223	0.561214
H124	H	0.972400	-0.844270	0.333595
H125	H	0.972754	-0.477460	0.644046
H126	H	1.406941	-0.782866	0.946025
H127	H	1.669743	-0.977245	1.078561
C128	C	1.689878	-0.267583	1.089843
C129	C	1.663294	-0.192582	1.052320
C130	C	1.737180	-0.137713	1.090034
H131	H	1.689129	-0.267460	1.165260
H132	H	1.758785	-0.281356	1.065442
H133	H	1.594405	-0.178812	1.076727
H134	H	1.664051	-0.192680	0.976908
H135	H	1.806088	-0.151486	1.065633
H136	H	1.736426	-0.137596	1.165450
H137	H	1.719159	-0.086820	1.064573
H138	H	1.717480	-0.844220	0.945933
H139	H	1.490441	-0.247066	0.946949
H140	H	1.407250	-0.477134	0.947118
C141	C	1.593986	-0.532857	1.090539
C142	C	1.686590	-0.527352	1.151633
C143	C	1.713823	-0.602006	1.189943
H144	H	1.537825	-0.552666	1.133172
H145	H	1.605824	-0.567424	1.032441
H146	H	1.674747	-0.492798	1.209723
H147	H	1.742772	-0.507557	1.109022
H148	H	1.725661	-0.636573	1.131845
H149	H	1.657655	-0.621809	1.232572
H150	H	1.776662	-0.598282	1.231391
H151	H	1.359280	-0.344237	1.079998
H152	H	1.105258	-0.915907	0.691979
C153	C	1.745022	-0.421045	0.936678
C154	C	1.743691	-0.420886	0.825516
C155	C	1.844458	-0.441041	0.787275
H156	H	1.795682	-0.383873	0.961337
H157	H	1.763611	-0.472009	0.961472
H158	H	1.725115	-0.369929	0.800733
H159	H	1.693053	-0.458058	0.800829
H160	H	1.863047	-0.492005	0.812068
H161	H	1.895110	-0.403867	0.811941
H162	H	1.843566	-0.440943	0.711849
C163	C	1.115603	-0.992149	0.361471
C164	C	1.079727	-1.067401	0.389023
C165	C	1.117816	-1.122241	0.315319
H166	H	1.090357	-0.979005	0.292645
H167	H	1.191031	-0.991456	0.361626
H168	H	1.004315	-1.068092	0.388857
H169	H	1.104971	-1.080569	0.457836
H170	H	1.193244	-1.121548	0.315474
H171	H	1.092567	-1.109090	0.246498
H172	H	1.093488	-1.173307	0.334009
H173	H	1.105202	-0.512796	0.464554
H174	H	1.586179	-0.747144	1.079006
