data_functionalizedCrystal
_audit_creation_method	'MofGen! by Chris Wilmer'
_symmetry_space_group_name_H-M	'P1'
_symmetry_Int_Tables_number	1
_symmetry_cell_setting	triclinic
loop_
_symmetry_equiv_pos_as_xyz
  x,y,z
_cell_length_a	10.654550
_cell_length_b	17.699083
_cell_length_c	9.730223
_cell_angle_alpha	89.994713
_cell_angle_beta	89.999957
_cell_angle_gamma	83.883973
loop_
_atom_site_label
_atom_site_type_symbol
_atom_site_fract_x
_atom_site_fract_y
_atom_site_fract_z
O1	O	1.665978	0.106302	-0.114190
O2	O	1.300323	0.116430	-0.114216
O3	O	1.493481	0.001243	-0.114190
O4	O	1.472820	0.221490	-0.114216
O5	O	1.493469	0.001240	0.114390
O6	O	1.300310	0.116427	0.114364
O7	O	1.665966	0.106299	0.114390
Zn8	Zn	1.483136	0.111363	0.150669
Zn9	Zn	1.483152	0.111367	-0.150495
O10	O	1.472807	0.221487	0.114364
C11	C	1.253531	0.115685	0.000071
C12	C	1.114127	0.113460	0.000061
C13	C	1.492735	-0.026960	0.000100
C14	C	1.490514	-0.110993	0.000100
C15	C	1.033454	0.181281	0.000058
C16	C	0.902470	0.179186	0.000082
C17	C	0.932844	0.041444	0.000108
C18	C	1.063826	0.043539	0.000094
C19	C	1.603894	-0.158893	0.000110
C20	C	1.601799	-0.237849	0.000098
C21	C	1.486323	-0.268904	0.000085
C22	C	1.372935	-0.220998	0.000071
C23	C	1.375030	-0.142043	0.000074
C24	C	1.364481	-0.539415	0.000060
C25	C	1.362394	-0.618376	0.000061
C26	C	1.591249	-0.635221	0.000083
C27	C	1.593345	-0.556266	0.000086
C28	C	1.479957	-0.508367	0.000065
C29	C	1.482229	-0.422753	0.000075
C30	C	1.484050	-0.354516	0.000085
C31	C	1.712757	0.107045	0.000100
C32	C	1.852161	0.109269	0.000100
C33	C	1.473554	0.249690	0.000071
C34	C	1.475775	0.333722	0.000061
N35	N	1.483134	0.111359	0.356205
N36	N	1.483164	0.111364	-0.356032
C37	C	1.568694	0.060376	0.428142
C38	C	1.568706	0.060376	0.572025
C39	C	1.397596	0.162350	0.572021
C40	C	1.397578	0.162345	0.428141
H41	H	1.074405	0.238215	0.000042
O42	O	1.305297	0.217339	0.350535
H43	H	1.245821	0.252802	0.424725
H44	H	1.687377	-0.530986	0.000103
H45	H	1.129514	-0.011692	0.000101
O46	O	1.728449	-0.125405	0.000124
H47	H	1.710863	-0.062455	0.000137
H48	H	0.891873	-0.015484	0.000143
H49	H	1.272153	-0.500424	0.000043
H50	H	1.694125	-0.276847	0.000109
O51	O	1.305334	0.217350	0.649606
H52	H	1.319729	0.208795	0.761742
O53	O	0.815454	0.252334	0.000073
H54	H	0.872442	0.301303	0.000040
O55	O	1.713555	-0.686883	0.000095
H56	H	1.692705	-0.747004	0.000077
H57	H	1.268354	-0.643657	0.000054
O58	O	1.248380	-0.254487	0.000073
H59	H	1.265968	-0.317437	0.000092
H60	H	1.282705	-0.103043	0.000066
O61	O	1.660952	0.005379	0.350548
H62	H	1.720439	-0.030078	0.424749
O63	O	1.661003	0.005397	0.649620
H64	H	1.720497	-0.030048	0.575422
