data_functionalizedCrystal
_audit_creation_method	'MofGen! by Chris Wilmer'
_symmetry_space_group_name_H-M	'P1'
_symmetry_Int_Tables_number	1
_symmetry_cell_setting	triclinic
loop_
_symmetry_equiv_pos_as_xyz
  x,y,z
_cell_length_a	18.215407
_cell_length_b	19.077068
_cell_length_c	18.215399
_cell_angle_alpha	87.731836
_cell_angle_beta	90.019833
_cell_angle_gamma	92.327501
loop_
_atom_site_label
_atom_site_type_symbol
_atom_site_fract_x
_atom_site_fract_y
_atom_site_fract_z
Zn1	Zn	1.113288	-0.280200	0.427869
Zn2	Zn	1.446621	0.053133	0.761202
Zn3	Zn	1.779955	0.386466	1.094535
Zn4	Zn	1.108246	-0.397902	0.309739
Zn5	Zn	1.441580	-0.064569	0.643073
Zn6	Zn	1.774913	0.268765	0.976406
Zn7	Zn	0.990220	-0.280223	0.304817
Zn8	Zn	1.323553	0.053110	0.638150
Zn9	Zn	1.656886	0.386443	0.971484
Zn10	Zn	0.985238	-0.397863	0.432763
Zn11	Zn	1.318571	-0.064530	0.766096
Zn12	Zn	1.651905	0.268804	1.099429
O13	O	1.049248	-0.339047	0.368797
O14	O	1.382581	-0.005714	0.702130
O15	O	1.715915	0.327619	1.035464
O16	O	1.215603	-0.295821	0.412210
O17	O	1.548936	0.037513	0.745544
O18	O	1.882270	0.370846	1.078877
O19	O	1.092565	-0.382318	0.206103
O20	O	1.425898	-0.048984	0.539436
O21	O	1.759231	0.284349	0.872770
O22	O	1.010740	-0.181729	0.317032
O23	O	1.344073	0.151604	0.650365
O24	O	1.677406	0.484937	0.983699
O25	O	1.211899	-0.382295	0.325421
O26	O	1.545232	-0.048962	0.658755
O27	O	1.878566	0.284371	0.992088
O28	O	1.101157	-0.181712	0.407437
O29	O	1.434491	0.151621	0.740771
O30	O	1.767824	0.484954	1.074104
O31	O	1.005851	-0.295860	0.202487
O32	O	1.339184	0.037474	0.535820
O33	O	1.672518	0.370807	0.869153
O34	O	0.886575	-0.295822	0.321777
O35	O	1.219908	0.037512	0.655111
O36	O	1.553241	0.370845	0.988444
O37	O	1.002249	-0.382229	0.535097
O38	O	1.335583	-0.048895	0.868430
O39	O	1.668916	0.284438	1.201763
O40	O	0.882915	-0.382251	0.415778
O41	O	1.216248	-0.048918	0.749112
O42	O	1.549582	0.284416	1.082445
O43	O	1.096327	-0.295783	0.531501
O44	O	1.429660	0.037551	0.864834
O45	O	1.762994	0.370884	1.198168
O46	O	1.087734	-0.496388	0.330167
O47	O	1.421068	-0.163055	0.663500
O48	O	1.754401	0.170279	0.996833
O49	O	0.997361	-0.496359	0.420551
O50	O	1.330694	-0.163026	0.753885
O51	O	1.664027	0.170307	1.087218
C52	C	0.858042	-0.339035	0.368775
C53	C	1.191376	-0.005702	0.702109
C54	C	1.524709	0.327632	1.035442
C55	C	0.776243	-0.339047	0.368784
C56	C	1.109576	-0.005714	0.702117
C57	C	1.442909	0.327620	1.035451
C58	C	1.041480	-0.521911	0.376440
C59	C	1.374813	-0.188578	0.709774
C60	C	1.708146	0.144755	1.043107
C61	C	1.038224	-0.600141	0.379735
C62	C	1.371557	-0.266808	0.713068
C63	C	1.704891	0.066525	1.046401
C64	C	0.586159	-0.384121	0.417674
C65	C	0.919493	-0.050788	0.751008
C66	C	1.252826	0.282545	1.084341
C67	C	0.509301	-0.384124	0.417684
C68	C	0.842634	-0.050790	0.751017
C69	C	1.175967	0.282543	1.084350
C70	C	0.513088	-0.293986	0.319936
C71	C	0.846421	0.039348	0.653269
C72	C	1.179755	0.372681	0.986603
C73	C	0.589945	-0.293980	0.319931
C74	C	0.923279	0.039353	0.653264
C75	C	1.256612	0.372686	0.986597
C76	C	0.626479	-0.339052	0.368799
C77	C	0.959812	-0.005719	0.702132
C78	C	1.293146	0.327614	1.035466
C79	C	0.472763	-0.339060	0.368814
C80	C	0.806096	-0.005726	0.702147
C81	C	1.139429	0.327607	1.035480
C82	C	0.389429	-0.339062	0.368823
C83	C	0.722762	-0.005728	0.702157
C84	C	1.056096	0.327605	1.035490
C85	C	0.709818	-0.339050	0.368791
C86	C	1.043152	-0.005716	0.702124
C87	C	1.376485	0.327617	1.035457
C88	C	1.083783	-0.636886	0.334263
C89	C	1.417117	-0.303552	0.667596
C90	C	1.750450	0.029781	1.000930
C91	C	1.080725	-0.710391	0.337366
C92	C	1.414059	-0.377058	0.670699
C93	C	1.747392	-0.043724	1.004033
C94	C	1.032104	-0.747151	0.385937
C95	C	1.365437	-0.413818	0.719271
C96	C	1.698770	-0.080484	1.052604
C97	C	0.986542	-0.710401	0.431414
C98	C	1.319875	-0.377068	0.764747
C99	C	1.653209	-0.043735	1.098081
C100	C	0.989604	-0.636897	0.428314
C101	C	1.322938	-0.303564	0.761648
C102	C	1.656271	0.029769	1.094981
C103	C	1.017899	-0.966985	0.400254
C104	C	1.351232	-0.633652	0.733587
C105	C	1.684566	-0.300319	1.066920
C106	C	1.014839	-1.040495	0.403348
C107	C	1.348172	-0.707161	0.736682
C108	C	1.681505	-0.373828	1.070015
C109	C	1.109023	-1.040479	0.309301
C110	C	1.442357	-0.707146	0.642634
C111	C	1.775690	-0.373813	0.975968
C112	C	1.112078	-0.966974	0.306202
C113	C	1.445412	-0.633640	0.639536
C114	C	1.778745	-0.300307	0.972869
C115	C	1.066520	-0.930231	0.351682
C116	C	1.399853	-0.596897	0.685015
C117	C	1.733186	-0.263564	1.018348
N118	N	1.028975	-0.822285	0.389109
N119	N	1.362308	-0.488952	0.722442
N120	N	1.695642	-0.155619	1.055775
N121	N	1.069652	-0.855098	0.348514
N122	N	1.402986	-0.521764	0.681847
N123	N	1.736319	-0.188431	1.015180
C124	C	1.241200	-0.339060	0.368819
C125	C	1.574534	-0.005726	0.702152
C126	C	1.907867	0.327607	1.035486
C127	C	1.322999	-0.339065	0.368828
C128	C	1.656332	-0.005732	0.702162
C129	C	1.989666	0.327602	1.035495
C130	C	1.049295	-0.338999	0.560748
C131	C	1.382628	-0.005665	0.894081
C132	C	1.715962	0.327668	1.227415
C133	C	1.049315	-0.338978	0.642546
C134	C	1.382648	-0.005645	0.975879
C135	C	1.715981	0.327689	1.309213
C136	C	1.057067	-0.155469	0.361140
C137	C	1.390400	0.177864	0.694473
C138	C	1.723733	0.511198	1.027806
C139	C	1.060398	-0.077239	0.357877
C140	C	1.393732	0.256094	0.691210
C141	C	1.727065	0.589428	1.024543
C142	C	1.049246	-0.339045	0.177591
C143	C	1.382579	-0.005711	0.510924
C144	C	1.715912	0.327622	0.844257
C145	C	1.049377	-0.338867	0.095785
C146	C	1.382710	-0.005534	0.429118
C147	C	1.716043	0.327800	0.762451
C148	C	1.098320	-0.293923	0.828867
C149	C	1.431653	0.039410	1.162201
C150	C	1.764986	0.372743	1.495534
C151	C	1.098329	-0.293903	0.905725
C152	C	1.431663	0.039430	1.239058
C153	C	1.764996	0.372764	1.572392
C154	C	1.000366	-0.383924	0.909458
C155	C	1.333700	-0.050590	1.242791
C156	C	1.667033	0.282743	1.576125
C157	C	1.000354	-0.383940	0.832601
C158	C	1.333687	-0.050607	1.165935
C159	C	1.667021	0.282726	1.499268
C160	C	1.049335	-0.338941	0.792308
C161	C	1.382668	-0.005608	1.125641
C162	C	1.716001	0.327726	1.458975
C163	C	1.049357	-0.338904	0.946023
C164	C	1.382690	-0.005571	1.279356
C165	C	1.716024	0.327763	1.612689
C166	C	1.049367	-0.338882	1.029355
C167	C	1.382700	-0.005549	1.362689
C168	C	1.716034	0.327784	1.696022
C169	C	1.049324	-0.338962	0.708970
C170	C	1.382657	-0.005628	1.042303
C171	C	1.715990	0.327705	1.375636
H172	H	0.615903	-0.420820	0.457468
H173	H	0.949236	-0.087487	0.790801
H174	H	1.282569	0.245847	1.124135
Cl175	Cl	1.159920	-0.237313	0.951682
Cl176	Cl	1.493253	0.096021	1.285016
Cl177	Cl	1.826587	0.429354	1.618349
H178	H	0.476476	-0.420822	0.457484
H179	H	0.809809	-0.087489	0.790817
H180	H	1.143142	0.245844	1.124151
H181	H	0.483333	-0.257291	0.280148
H182	H	0.816666	0.076042	0.613481
H183	H	1.149999	0.409376	0.946815
H184	H	0.975254	-1.070422	0.442914
H185	H	1.308587	-0.737089	0.776247
H186	H	1.641920	-0.403756	1.109581
Cl187	Cl	0.640637	-0.237313	0.258487
Cl188	Cl	0.973971	0.096020	0.591820
Cl189	Cl	1.307304	0.429354	0.925154
Cl190	Cl	0.938798	-0.440495	0.960118
Cl191	Cl	1.272131	-0.107161	1.293451
Cl192	Cl	1.605465	0.226172	1.626784
Cl193	Cl	1.144907	-0.590681	0.273194
Cl194	Cl	1.478240	-0.257347	0.606527
Cl195	Cl	1.811573	0.075986	0.939861
H196	H	1.117824	-0.740305	0.300338
H197	H	1.451158	-0.406972	0.633671
H198	H	1.784491	-0.073638	0.967004
H199	H	1.151670	-0.937045	0.266652
H200	H	1.485003	-0.603712	0.599985
H201	H	1.818337	-0.270379	0.933318
Cl202	Cl	1.166298	-1.086674	0.252136
Cl203	Cl	1.499632	-0.753341	0.585469
Cl204	Cl	1.832965	-0.420008	0.918802
H205	H	0.980802	-0.937075	0.437283
H206	H	1.314135	-0.603742	0.770617
H207	H	1.647469	-0.270408	1.103950
H208	H	0.946956	-0.740337	0.470965
H209	H	1.280290	-0.407004	0.804298
H210	H	1.613623	-0.073670	1.137632
Cl211	Cl	0.932329	-0.590704	0.485484
Cl212	Cl	1.265663	-0.257371	0.818817
Cl213	Cl	1.598996	0.075962	1.152150
Cl214	Cl	1.159893	-0.237350	0.778215
Cl215	Cl	1.493226	0.095983	1.111548
Cl216	Cl	1.826559	0.429316	1.444882
Cl217	Cl	0.938763	-0.440535	0.786637
Cl218	Cl	1.272097	-0.107201	1.119971
Cl219	Cl	1.605430	0.226132	1.453304
