data_functionalizedCrystal
_audit_creation_method	'MofGen! by Chris Wilmer'
_symmetry_space_group_name_H-M	'P1'
_symmetry_Int_Tables_number	1
_symmetry_cell_setting	triclinic
loop_
_symmetry_equiv_pos_as_xyz
  x,y,z
_cell_length_a	13.262402
_cell_length_b	19.188930
_cell_length_c	12.376457
_cell_angle_alpha	78.767700
_cell_angle_beta	85.819042
_cell_angle_gamma	83.818792
loop_
_atom_site_label
_atom_site_type_symbol
_atom_site_fract_x
_atom_site_fract_y
_atom_site_fract_z
O1	O	1.324909	0.138474	-0.313357
O2	O	1.038218	0.136201	-0.225203
O3	O	1.189833	0.036089	-0.271845
O4	O	1.173295	0.238586	-0.266715
O5	O	1.151942	0.061080	-0.448200
O6	O	1.000328	0.161192	-0.401559
O7	O	1.287019	0.163465	-0.489713
Zn8	Zn	1.137657	0.166297	-0.473636
Zn9	Zn	1.187580	0.133369	-0.241280
O10	O	1.135404	0.263577	-0.443071
C11	C	0.982595	0.146524	-0.302104
C12	C	0.873305	0.140044	-0.268499
C13	C	1.170351	0.022548	-0.359861
C14	C	1.168740	-0.055034	-0.359375
C15	C	0.842614	0.123375	-0.156578
C16	C	0.739929	0.117294	-0.125006
C17	C	0.667926	0.127875	-0.205354
C18	C	0.698617	0.144539	-0.317278
C19	C	0.801311	0.150627	-0.348852
C20	C	0.626622	0.155126	-0.397629
C21	C	0.657313	0.171790	-0.509553
C22	C	0.759998	0.177876	-0.541122
C23	C	0.832001	0.167295	-0.460774
C24	C	0.523928	0.149038	-0.366054
C25	C	0.482625	0.176289	-0.558329
C26	C	0.585310	0.182371	-0.589900
C27	C	1.257704	-0.095610	-0.386736
C28	C	1.256197	-0.168511	-0.386254
C29	C	1.165716	-0.200828	-0.358432
C30	C	1.076742	-0.160243	-0.331062
C31	C	1.078254	-0.087346	-0.331534
N32	N	1.083659	-0.303707	-0.397183
N33	N	1.082228	-0.372956	-0.396739
C34	C	1.161154	-0.420463	-0.357006
N35	N	1.241578	-0.396103	-0.317753
N36	N	1.243011	-0.326847	-0.318203
C37	C	1.164066	-0.279872	-0.357917
C38	C	1.248490	-0.540086	-0.383845
C39	C	1.246980	-0.612988	-0.383356
C40	C	1.067520	-0.604718	-0.328173
C41	C	1.069035	-0.531819	-0.328653
C42	C	1.159521	-0.499507	-0.356494
C43	C	1.342643	0.153141	-0.412810
C44	C	1.451934	0.159621	-0.446407
C45	C	1.154887	0.277118	-0.355053
C46	C	1.156499	0.354699	-0.355531
N47	N	1.103594	0.188769	-0.632215
C48	C	1.024522	0.240948	-0.667075
C49	C	1.000695	0.256683	-0.778085
C50	C	1.055932	0.220237	-0.854244
C51	C	1.135000	0.168053	-0.819384
C52	C	1.158835	0.152320	-0.708365
C53	C	1.190245	0.131608	-0.895534
C54	C	1.269313	0.079424	-0.860674
C55	C	1.293143	0.063694	-0.749665
C56	C	1.237907	0.100140	-0.673505
C57	C	1.166410	0.147341	-1.006554
C58	C	1.300723	0.058713	-1.047844
C59	C	1.324550	0.042978	-0.936834
N60	N	1.221651	0.110892	-0.082703
H61	H	0.498950	0.135471	-0.274925
Cl62	Cl	0.957187	-0.480805	-0.294259
H63	H	1.345704	0.029036	-1.109854
H64	H	0.423998	0.184908	-0.623755
H65	H	1.036528	0.233051	-0.944633
Cl66	Cl	1.371465	-0.054998	-0.421707
Cl67	Cl	0.538835	0.120226	-0.165662
H68	H	0.915619	0.172241	-0.486474
H69	H	1.328645	-0.201555	-0.408531
H70	H	1.102033	0.189830	-1.034926
Cl71	Cl	0.966404	-0.036333	-0.297135
Cl72	Cl	0.901301	0.322282	-0.821908
Cl73	Cl	1.267858	0.080355	-0.533943
Cl74	Cl	0.623906	0.203323	-0.730601
Cl75	Cl	0.955098	0.286768	-0.571335
H76	H	0.784981	0.191452	-0.632257
Cl77	Cl	1.392554	-0.001900	-0.705842
H78	H	1.003072	-0.186561	-0.308406
H79	H	1.322171	-0.513777	-0.406511
Cl80	Cl	1.358833	-0.664001	-0.417748
H81	H	0.714948	0.103726	-0.033877
Cl82	Cl	0.953772	-0.645340	-0.293190
H83	H	0.901246	0.114767	-0.091171
Cl84	Cl	1.423949	-0.022623	-0.892997
