data_functionalizedCrystal
_audit_creation_method	'MofGen! by Chris Wilmer'
_symmetry_space_group_name_H-M	'P1'
_symmetry_Int_Tables_number	1
_symmetry_cell_setting	triclinic
loop_
_symmetry_equiv_pos_as_xyz
  x,y,z
_cell_length_a	19.288864
_cell_length_b	10.540539
_cell_length_c	18.366186
_cell_angle_alpha	89.995944
_cell_angle_beta	89.977106
_cell_angle_gamma	83.830869
loop_
_atom_site_label
_atom_site_type_symbol
_atom_site_fract_x
_atom_site_fract_y
_atom_site_fract_z
O1	O	0.922409	0.158345	-0.060780
O2	O	0.720291	0.179705	-0.060730
O3	O	0.825961	-0.015784	-0.060755
O4	O	0.816739	0.353834	-0.060755
O5	O	0.825943	-0.015794	0.060344
O6	O	0.720273	0.179696	0.060370
O7	O	0.922391	0.158335	0.060319
Zn8	Zn	0.821329	0.169014	0.079572
Zn9	Zn	0.821353	0.169027	-0.079982
O10	O	0.816721	0.353825	0.060345
C11	C	0.694401	0.179013	-0.000174
C12	C	0.617284	0.176950	-0.000155
C13	C	0.573353	0.291654	-0.000166
C14	C	0.500893	0.289716	-0.000174
C15	C	0.472367	0.173067	-0.000185
C16	C	0.516308	0.058347	-0.000170
C17	C	0.588766	0.060289	-0.000155
C18	C	0.363499	0.081371	-0.042637
C19	C	0.291042	0.079434	-0.042656
C20	C	0.248881	0.167074	-0.000230
C21	C	0.279186	0.256671	0.042208
C22	C	0.351644	0.258613	0.042223
C23	C	0.393799	0.170949	-0.000202
C24	C	0.126381	0.279684	-0.000249
C25	C	0.053919	0.277741	-0.000252
C26	C	0.069336	0.046369	-0.000255
C27	C	0.141795	0.048315	-0.000244
C28	C	0.170313	0.164976	-0.000245
C29	C	0.825261	-0.063076	-0.000207
C30	C	0.823192	-0.203978	-0.000210
C31	C	0.743903	-0.385638	-0.000462
C32	C	0.746000	-0.239067	-0.000190
C33	C	0.860329	-0.266469	0.068934
C34	C	0.857695	-0.412955	0.068993
C35	C	0.859285	-0.413498	-0.068720
C36	C	0.859996	-0.266531	-0.069634
C37	C	0.948281	0.159027	-0.000238
C38	C	1.025399	0.161091	-0.000262
C39	C	0.817422	0.401117	-0.000206
C40	C	0.819491	0.542019	-0.000207
N41	N	0.821318	0.169005	0.188463
N42	N	0.821370	0.169026	-0.188873
C43	C	0.868124	0.082484	0.226552
C44	C	0.868129	0.082479	0.302780
C45	C	0.821333	0.169015	0.340915
C46	C	0.774518	0.255542	0.302817
C47	C	0.774510	0.255537	0.226591
C48	C	0.812807	0.284670	0.461677
C49	C	0.812820	0.284677	0.537902
C50	C	0.821353	0.169031	0.576023
C51	C	0.829889	0.053374	0.537909
C52	C	0.829881	0.053368	0.461683
C53	C	0.821336	0.169030	0.423570
C54	C	0.868167	0.082497	0.696767
C55	C	0.868167	0.082490	0.772996
C56	C	0.774559	0.255565	0.773032
C57	C	0.774556	0.255561	0.696804
C58	C	0.821364	0.169029	0.658676
H59	H	0.624535	-0.033120	-0.000146
C60	C	0.825461	-0.208167	0.138468
H61	H	0.848306	-0.246600	0.180021
H62	H	0.777754	-0.223011	0.139100
H63	H	0.828824	-0.118917	0.139183
H64	H	0.493077	-0.036629	-0.000189
C65	C	0.839271	-0.073844	0.579831
H66	H	0.838044	-0.057282	0.630687
H67	H	0.882849	-0.119318	0.567323
H68	H	0.802695	-0.123406	0.567357
C69	C	0.037969	-0.081946	-0.000264
H70	H	0.074515	-0.149985	-0.000253
H71	H	0.010045	-0.087514	-0.042498
H72	H	0.010003	-0.087512	0.041967
H73	H	0.376315	0.331563	0.076779
C74	C	0.803424	0.411888	0.419752
H75	H	0.798354	0.480767	0.453366
H76	H	0.762994	0.414653	0.390034
H77	H	0.843149	0.418735	0.389998
H78	H	0.736415	0.326000	0.333871
H79	H	0.834310	-0.444490	-0.121128
H80	H	0.913209	-0.462161	0.072117
C81	C	0.190121	-0.077861	-0.000243
H82	H	0.162757	-0.147613	-0.000257
H83	H	0.218686	-0.081920	0.041991
H84	H	0.218729	-0.081904	-0.042474
C85	C	0.934602	-0.478982	-0.069375
H86	H	0.941789	-0.533176	-0.028122
H87	H	0.966294	-0.416003	-0.067866
H88	H	0.942180	-0.528196	-0.112536
H89	H	0.832823	-0.225063	-0.120785
C90	C	0.232822	0.353081	0.088883
H91	H	0.261247	0.406721	0.114153
H92	H	0.207462	0.308438	0.122993
H93	H	0.201157	0.403581	0.058287
C94	C	0.820590	-0.450241	0.138828
H95	H	0.818658	-0.539917	0.139482
H96	H	0.774586	-0.407833	0.139913
H97	H	0.845644	-0.425989	0.180178
C98	C	0.157757	0.408000	-0.000240
H99	H	0.207203	0.392729	-0.000239
H100	H	0.142694	0.455209	0.041989
H101	H	0.142737	0.455215	-0.042476
C102	C	0.919642	-0.012696	0.654820
H103	H	0.912939	-0.000298	0.603966
H104	H	0.911679	-0.097374	0.667321
H105	H	0.966067	0.000875	0.667287
C106	C	0.257710	-0.019108	-0.089338
H107	H	0.208518	-0.007702	-0.083280
H108	H	0.275168	-0.102771	-0.074419
H109	H	0.268873	-0.007624	-0.139123
H110	H	0.805874	0.378852	0.568928
C111	C	0.604719	0.419976	-0.000153
H112	H	0.568173	0.488013	-0.000153
H113	H	0.632692	0.425554	-0.042374
H114	H	0.632636	0.425534	0.042092
H115	H	0.716778	-0.195808	-0.049755
C116	C	0.452560	0.415895	-0.000198
H117	H	0.479922	0.485651	-0.000202
H118	H	0.423944	0.419958	0.042022
H119	H	0.424004	0.419929	-0.042443
C120	C	0.005592	0.403919	-0.000265
H121	H	-0.041647	0.386058	-0.000266
H122	H	0.014322	0.451765	-0.042495
H123	H	0.014278	0.451771	0.041970
H124	H	0.736455	0.326019	0.804082
C125	C	0.936906	-0.237974	0.072397
H126	H	0.946931	-0.187587	0.031609
H127	H	0.966637	-0.315895	0.071750
H128	H	0.944388	-0.192832	0.115968
C129	C	0.936026	-0.235516	-0.075296
H130	H	0.946366	-0.183789	-0.035212
H131	H	0.942137	-0.191061	-0.119434
H132	H	0.966485	-0.312577	-0.074716
H133	H	0.736445	0.326019	0.665790
H134	H	0.397822	0.010002	-0.077190
C135	C	0.702713	-0.423341	-0.067442
H136	H	0.657246	-0.378642	-0.066580
H137	H	0.699362	-0.512584	-0.066526
H138	H	0.726117	-0.402038	-0.110550
C139	C	0.702867	-0.425518	0.066169
H140	H	0.731601	-0.486060	0.094144
H141	H	0.662703	-0.462497	0.050280
H142	H	0.688993	-0.352591	0.095199
C143	C	0.706237	-0.181770	0.066904
H144	H	0.688743	-0.248087	0.094104
H145	H	0.668523	-0.122472	0.051497
H146	H	0.736924	-0.139420	0.096516
C147	C	0.919603	-0.012710	0.184615
H148	H	0.947476	-0.064248	0.218222
H149	H	0.948737	0.032809	0.154857
H150	H	0.894350	-0.065443	0.154901
H151	H	0.906245	0.012021	0.333798
C152	C	0.839259	-0.073841	0.419758
H153	H	0.844438	-0.142717	0.453372
H154	H	0.879627	-0.076524	0.389918
H155	H	0.799485	-0.080770	0.390127
C156	C	0.919658	-0.012685	0.814895
H157	H	0.947536	-0.064208	0.781267
H158	H	0.894421	-0.065415	0.844647
H159	H	0.948795	0.032860	0.844612
H160	H	0.736394	0.325993	0.195578
