data_functionalizedCrystal
_audit_creation_method	'MofGen! by Chris Wilmer'
_symmetry_space_group_name_H-M	'P1'
_symmetry_Int_Tables_number	1
_symmetry_cell_setting	triclinic
loop_
_symmetry_equiv_pos_as_xyz
  x,y,z
_cell_length_a	18.050591
_cell_length_b	18.050582
_cell_length_c	18.050589
_cell_angle_alpha	90.018205
_cell_angle_beta	89.975773
_cell_angle_gamma	89.979078
loop_
_atom_site_label
_atom_site_type_symbol
_atom_site_fract_x
_atom_site_fract_y
_atom_site_fract_z
Zn1	Zn	1.135293	-0.420054	0.295786
Zn2	Zn	1.385293	-0.170054	0.545786
Zn3	Zn	1.635293	0.079946	0.795786
Zn4	Zn	1.885293	0.329946	1.045786
Zn5	Zn	1.135203	-0.295873	0.419969
Zn6	Zn	1.385203	-0.045873	0.669969
Zn7	Zn	1.635203	0.204127	0.919969
Zn8	Zn	1.885203	0.454127	1.169969
Zn9	Zn	1.011112	-0.295865	0.295789
Zn10	Zn	1.261112	-0.045865	0.545789
Zn11	Zn	1.511112	0.204135	0.795789
Zn12	Zn	1.761112	0.454135	1.045789
Zn13	Zn	1.011060	-0.420009	0.419930
Zn14	Zn	1.261060	-0.170009	0.669930
Zn15	Zn	1.511060	0.079991	0.919930
Zn16	Zn	1.761060	0.329991	1.169930
O17	O	1.073167	-0.357950	0.357868
O18	O	1.323167	-0.107950	0.607868
O19	O	1.573167	0.142050	0.857868
O20	O	1.823167	0.392050	1.107868
O21	O	1.239205	-0.403603	0.312274
O22	O	1.489205	-0.153603	0.562274
O23	O	1.739205	0.096397	0.812274
O24	O	1.989205	0.346397	1.062274
O25	O	1.118727	-0.191948	0.403514
O26	O	1.368727	0.058052	0.653514
O27	O	1.618727	0.308052	0.903514
O28	O	1.868727	0.558052	1.153514
O29	O	1.027644	-0.312354	0.191864
O30	O	1.277644	-0.062354	0.441864
O31	O	1.527644	0.187646	0.691864
O32	O	1.777644	0.437646	0.941864
O33	O	1.239140	-0.312369	0.403511
O34	O	1.489140	-0.062369	0.653511
O35	O	1.739140	0.187631	0.903511
O36	O	1.989140	0.437631	1.153511
O37	O	1.118879	-0.403595	0.191862
O38	O	1.368879	-0.153595	0.441862
O39	O	1.618879	0.096405	0.691862
O40	O	1.868879	0.346405	0.941862
O41	O	1.027557	-0.191942	0.312279
O42	O	1.277557	0.058058	0.562279
O43	O	1.527557	0.308058	0.812279
O44	O	1.777557	0.558058	1.062279
O45	O	0.907180	-0.312311	0.312241
O46	O	1.157180	-0.062311	0.562241
O47	O	1.407180	0.187689	0.812241
O48	O	1.657180	0.437689	1.062241
O49	O	1.027555	-0.523940	0.403444
O50	O	1.277555	-0.273940	0.653444
O51	O	1.527555	-0.023940	0.903444
O52	O	1.777555	0.226060	1.153444
O53	O	0.907142	-0.403519	0.403447
O54	O	1.157142	-0.153519	0.653447
O55	O	1.407142	0.096481	0.903447
O56	O	1.657142	0.346481	1.153447
O57	O	1.118828	-0.523973	0.312236
O58	O	1.368828	-0.273973	0.562236
O59	O	1.618828	-0.023973	0.812236
O60	O	1.868828	0.226027	1.062236
O61	O	1.118676	-0.312325	0.523888
O62	O	1.368676	-0.062325	0.773888
O63	O	1.618676	0.187675	1.023888
O64	O	1.868676	0.437675	1.273888
O65	O	1.027468	-0.403527	0.523860
O66	O	1.277468	-0.153527	0.773860
O67	O	1.527468	0.096473	1.023860
O68	O	1.777468	0.346473	1.273860
C69	C	0.880215	-0.357909	0.357841
C70	C	1.130215	-0.107909	0.607841
C71	C	1.380215	0.142091	0.857841
C72	C	1.630215	0.392091	1.107841
C73	C	0.797669	-0.357909	0.357847
C74	C	1.047669	-0.107909	0.607847
C75	C	1.297669	0.142091	0.857847
C76	C	1.547669	0.392091	1.107847
C77	C	1.073196	-0.551656	0.357835
C78	C	1.323196	-0.301656	0.607835
C79	C	1.573196	-0.051656	0.857835
C80	C	1.823196	0.198344	1.107835
C81	C	1.073208	-0.634202	0.357821
C82	C	1.323208	-0.384202	0.607821
C83	C	1.573208	-0.134202	0.857821
C84	C	1.823208	0.115798	1.107821
C85	C	0.598217	-0.308425	0.308191
C86	C	0.848217	-0.058425	0.558191
C87	C	1.098217	0.191575	0.808191
C88	C	1.348217	0.441575	1.058191
C89	C	0.548798	-0.290154	0.375927
C90	C	0.798798	-0.040154	0.625927
C91	C	1.048798	0.209846	0.875927
C92	C	1.298798	0.459846	1.125927
C93	C	0.646539	-0.357943	0.357869
C94	C	0.896539	-0.107943	0.607869
C95	C	1.146539	0.142057	0.857869
C96	C	1.396539	0.392057	1.107869
C97	C	0.548877	-0.376212	0.290157
C98	C	0.798877	-0.126212	0.540157
C99	C	1.048877	0.123788	0.790157
C100	C	1.298877	0.373788	1.040157
C101	C	0.500553	-0.357974	0.357885
C102	C	0.750553	-0.107974	0.607885
C103	C	1.000553	0.142026	0.857885
C104	C	1.250553	0.392026	1.107885
C105	C	0.598206	-0.339637	0.425641
C106	C	0.848206	-0.089637	0.675641
C107	C	1.098206	0.160363	0.925641
C108	C	1.348206	0.410363	1.175641
C109	C	0.598289	-0.425726	0.339825
C110	C	0.848289	-0.175726	0.589825
C111	C	1.098289	0.074274	0.839825
C112	C	1.348289	0.324274	1.089825
C113	C	0.548892	-0.407481	0.407607
C114	C	0.798892	-0.157481	0.657607
C115	C	1.048892	0.092519	0.907607
C116	C	1.298892	0.342519	1.157607
C117	C	0.730637	-0.357923	0.357859
C118	C	0.980637	-0.107923	0.607859
C119	C	1.230637	0.142077	0.857859
C120	C	1.480637	0.392077	1.107859
C121	C	0.416457	-0.357994	0.357903
C122	C	0.666457	-0.107994	0.607903
C123	C	0.916457	0.142006	0.857903
C124	C	1.166457	0.392006	1.107903
C125	C	1.023612	-0.833635	0.407353
C126	C	1.273612	-0.583635	0.657353
C127	C	1.523612	-0.333635	0.907353
C128	C	1.773612	-0.083635	1.157353
C129	C	1.091367	-0.883034	0.425511
C130	C	1.341367	-0.633034	0.675511
C131	C	1.591367	-0.383034	0.925511
C132	C	1.841367	-0.133034	1.175511
C133	C	1.073245	-0.785332	0.357765
C134	C	1.323245	-0.535332	0.607765
C135	C	1.573245	-0.285332	0.857765
C136	C	1.823245	-0.035332	1.107765
C137	C	1.005527	-0.883014	0.339586
C138	C	1.255527	-0.633014	0.589586
C139	C	1.505527	-0.383014	0.839586
C140	C	1.755527	-0.133014	1.089586
C141	C	1.073274	-0.931317	0.357711
C142	C	1.323274	-0.681317	0.607711
C143	C	1.573274	-0.431317	0.857711
C144	C	1.823274	-0.181317	1.107711
C145	C	1.141036	-0.833645	0.375958
C146	C	1.391036	-0.583645	0.625958
C147	C	1.641036	-0.333645	0.875958
C148	C	1.891036	-0.083645	1.125958
C149	C	1.055150	-0.833620	0.290002
C150	C	1.305150	-0.583620	0.540002
C151	C	1.555150	-0.333620	0.790002
C152	C	1.805150	-0.083620	1.040002
C153	C	1.122952	-0.882998	0.308134
C154	C	1.372952	-0.632998	0.558134
C155	C	1.622952	-0.382998	0.808134
C156	C	1.872952	-0.132998	1.058134
C157	C	1.073227	-0.701234	0.357797
C158	C	1.323227	-0.451234	0.607797
C159	C	1.573227	-0.201234	0.857797
C160	C	1.823227	0.048766	1.107797
C161	C	1.073300	-1.015414	0.357679
C162	C	1.323300	-0.765414	0.607679
C163	C	1.573300	-0.515414	0.857679
C164	C	1.823300	-0.265414	1.107679
C165	C	1.266872	-0.357992	0.357897
C166	C	1.516872	-0.107992	0.607897
C167	C	1.766872	0.142008	0.857897
C168	C	2.016872	0.392008	1.107897
C169	C	1.349418	-0.358010	0.357909
C170	C	1.599418	-0.108010	0.607909
C171	C	1.849418	0.141990	0.857909
C172	C	2.099418	0.391990	1.107909
C173	C	1.073077	-0.357938	0.550820
C174	C	1.323077	-0.107938	0.800820
C175	C	1.573077	0.142062	1.050820
C176	C	1.823077	0.392062	1.300820
C177	C	1.073107	-0.357958	0.633366
C178	C	1.323107	-0.107958	0.883366
C179	C	1.573107	0.142042	1.133366
C180	C	1.823107	0.392042	1.383366
C181	C	1.073181	-0.164998	0.357848
C182	C	1.323181	0.085002	0.607848
C183	C	1.573181	0.335002	0.857848
C184	C	1.823181	0.585002	1.107848
C185	C	1.073312	-0.082453	0.357652
C186	C	1.323312	0.167547	0.607652
C187	C	1.573312	0.417547	0.857652
C188	C	1.823312	0.667547	1.107652
C189	C	1.073277	-0.357979	0.164163
C190	C	1.323277	-0.107979	0.414163
C191	C	1.573277	0.142021	0.664163
C192	C	1.823277	0.392021	0.914163
C193	C	1.073324	-0.357991	0.081617
C194	C	1.323324	-0.107991	0.331617
C195	C	1.573324	0.142009	0.581617
C196	C	1.823324	0.392009	0.831617
C197	C	1.023557	-0.407536	0.832828
C198	C	1.273557	-0.157536	1.082828
C199	C	1.523557	0.092464	1.332828
C200	C	1.773557	0.342464	1.582828
C201	C	1.005459	-0.339767	0.882261
C202	C	1.255459	-0.089767	1.132261
C203	C	1.505459	0.160233	1.382261
C204	C	1.755459	0.410233	1.632261
C205	C	1.073180	-0.357967	0.784497
C206	C	1.323180	-0.107967	1.034497
C207	C	1.573180	0.142033	1.284497
C208	C	1.823180	0.392033	1.534497
C209	C	1.091314	-0.425744	0.882146
C210	C	1.341314	-0.175744	1.132146
C211	C	1.591314	0.074256	1.382146
C212	C	1.841314	0.324256	1.632146
C213	C	1.073249	-0.357983	0.930482
C214	C	1.323249	-0.107983	1.180482
C215	C	1.573249	0.142017	1.430482
C216	C	1.823249	0.392017	1.680482
C217	C	1.055046	-0.290162	0.832842
C218	C	1.305046	-0.040162	1.082842
C219	C	1.555046	0.209838	1.332842
C220	C	1.805046	0.459838	1.582842
C221	C	1.140933	-0.376186	0.832722
C222	C	1.390933	-0.126186	1.082722
C223	C	1.640933	0.123814	1.332722
C224	C	1.890933	0.373814	1.582722
C225	C	1.122861	-0.308370	0.882133
C226	C	1.372861	-0.058370	1.132133
C227	C	1.622861	0.191630	1.382133
C228	C	1.872861	0.441630	1.632133
C229	C	1.073138	-0.357959	0.700398
C230	C	1.323138	-0.107959	0.950398
C231	C	1.573138	0.142041	1.200398
C232	C	1.823138	0.392041	1.450398
C233	C	1.073291	-0.357983	1.014578
C234	C	1.323291	-0.107983	1.264578
C235	C	1.573291	0.142017	1.514578
C236	C	1.823291	0.392017	1.764578
H237	H	0.619875	-0.266503	0.266226
H238	H	0.869875	-0.016503	0.516226
H239	H	1.119875	0.233497	0.766226
H240	H	1.369875	0.483497	1.016226
H241	H	1.039807	-0.811899	0.232736
H242	H	1.289807	-0.561899	0.482736
H243	H	1.539807	-0.311899	0.732736
H244	H	1.789807	-0.061899	0.982736
H245	H	0.620045	-0.483019	0.324530
H246	H	0.870045	-0.233019	0.574530
H247	H	1.120045	0.016981	0.824530
H248	H	1.370045	0.266981	1.074530
H249	H	0.527370	-0.449370	0.449673
H250	H	0.777370	-0.199370	0.699673
H251	H	1.027370	0.050630	0.949673
H252	H	1.277370	0.300630	1.199673
N253	N	0.520001	-0.214244	0.396167
N254	N	0.770001	0.035756	0.646167
N255	N	1.020001	0.285756	0.896167
N256	N	1.270001	0.535756	1.146167
H257	H	0.537587	-0.176931	0.358371
H258	H	0.787587	0.073069	0.608371
H259	H	1.037587	0.323069	0.858371
H260	H	1.287587	0.573069	1.108371
H261	H	0.464062	-0.215117	0.396923
H262	H	0.714062	0.034883	0.646923
H263	H	0.964062	0.284883	0.896923
H264	H	1.214062	0.534883	1.146923
N265	N	0.967887	-0.462975	0.804142
N266	N	1.217887	-0.212975	1.054142
N267	N	1.467887	0.037025	1.304142
N268	N	1.717887	0.287025	1.554142
H269	H	0.968588	-0.462909	0.748192
H270	H	1.218588	-0.212909	0.998192
H271	H	1.468588	0.037091	1.248192
H272	H	1.718588	0.287091	1.498192
H273	H	0.981061	-0.514013	0.822897
H274	H	1.231061	-0.264013	1.072897
H275	H	1.481061	-0.014013	1.322897
H276	H	1.731061	0.235987	1.572897
H277	H	0.619785	-0.324134	0.482928
H278	H	0.869785	-0.074134	0.732928
H279	H	1.119785	0.175866	0.982928
H280	H	1.369785	0.425866	1.232928
N281	N	0.929657	-0.911745	0.319244
N282	N	1.179657	-0.661745	0.569244
N283	N	1.429657	-0.411745	0.819244
N284	N	1.679657	-0.161745	1.069244
H285	H	0.892198	-0.893788	0.356758
H286	H	1.142198	-0.643788	0.606758
H287	H	1.392198	-0.393788	0.856758
H288	H	1.642198	-0.143788	1.106758
H289	H	0.915657	-0.892993	0.268431
H290	H	1.165657	-0.642993	0.518431
H291	H	1.415657	-0.392993	0.768431
H292	H	1.665657	-0.142993	1.018431
N293	N	0.520167	-0.396667	0.214301
N294	N	0.770167	-0.146667	0.464301
N295	N	1.020167	0.103333	0.714301
N296	N	1.270167	0.353333	0.964301
H297	H	0.538109	-0.359213	0.176814
H298	H	0.788109	-0.109213	0.426814
H299	H	1.038109	0.140787	0.676814
H300	H	1.288109	0.390787	0.926814
H301	H	0.538948	-0.447504	0.200343
H302	H	0.788948	-0.197504	0.450343
H303	H	1.038948	0.052496	0.700343
H304	H	1.288948	0.302496	0.950343
H305	H	0.948195	-0.324371	0.904037
H306	H	1.198195	-0.074371	1.154037
H307	H	1.448195	0.175629	1.404037
H308	H	1.698195	0.425629	1.654037
N309	N	1.034681	-0.214222	0.804283
N310	N	1.284681	0.035778	1.054283
N311	N	1.534681	0.285778	1.304283
N312	N	1.784681	0.535778	1.554283
H313	H	1.034759	-0.214690	0.748331
H314	H	1.284759	0.035310	0.998331
H315	H	1.534759	0.285310	1.248331
H316	H	1.784759	0.535310	1.498331
H317	H	0.983708	-0.200399	0.822795
H318	H	1.233708	0.049601	1.072795
H319	H	1.483708	0.299601	1.322795
H320	H	1.733708	0.549601	1.572795
H321	H	1.106690	-0.904739	0.482794
H322	H	1.356690	-0.654739	0.732794
H323	H	1.606690	-0.404739	0.982794
H324	H	1.856690	-0.154739	1.232794
H325	H	1.164855	-0.266409	0.903645
H326	H	1.414855	-0.016409	1.153645
H327	H	1.664855	0.233591	1.403645
H328	H	1.914855	0.483591	1.653645
N329	N	0.968066	-0.804916	0.462966
N330	N	1.218066	-0.554916	0.712966
N331	N	1.468066	-0.304916	0.962966
N332	N	1.718066	-0.054916	1.212966
H333	H	0.981847	-0.822891	0.514120
H334	H	1.231847	-0.572891	0.764120
H335	H	1.481847	-0.322891	1.014120
H336	H	1.731847	-0.072891	1.264120
H337	H	0.968139	-0.748970	0.462194
H338	H	1.218139	-0.498970	0.712194
H339	H	1.468139	-0.248970	0.962194
H340	H	1.718139	0.001030	1.212194
N341	N	1.216934	-0.805049	0.396383
N342	N	1.466934	-0.555049	0.646383
N343	N	1.716934	-0.305049	0.896383
N344	N	1.966934	-0.055049	1.146383
H345	H	1.216450	-0.749097	0.396298
H346	H	1.466450	-0.499097	0.646298
H347	H	1.716450	-0.249097	0.896298
H348	H	1.966450	0.000903	1.146298
H349	H	1.230681	-0.823514	0.447369
H350	H	1.480681	-0.573514	0.697369
H351	H	1.730681	-0.323514	0.947369
H352	H	1.980681	-0.073514	1.197369
H353	H	1.164986	-0.904535	0.266177
H354	H	1.414986	-0.654535	0.516177
H355	H	1.664986	-0.404535	0.766177
H356	H	1.914986	-0.154535	1.016177
H357	H	1.198184	-0.391613	0.810948
H358	H	1.448184	-0.141613	1.060948
H359	H	1.698184	0.108387	1.310948
H360	H	1.948184	0.358387	1.560948
N361	N	1.111597	-0.501655	0.910841
N362	N	1.361597	-0.251655	1.160841
N363	N	1.611597	-0.001655	1.410841
N364	N	1.861597	0.248345	1.660841
H365	H	1.074050	-0.539048	0.892906
H366	H	1.324050	-0.289048	1.142906
H367	H	1.574050	-0.039048	1.392906
H368	H	1.824050	0.210952	1.642906
H369	H	1.162396	-0.515732	0.892042
H370	H	1.412396	-0.265732	1.142042
H371	H	1.662396	-0.015732	1.392042
H372	H	1.912396	0.234268	1.642042
