data_functionalizedCrystal
_audit_creation_method	'MofGen! by Chris Wilmer'
_symmetry_space_group_name_H-M	'P1'
_symmetry_Int_Tables_number	1
_symmetry_cell_setting	triclinic
loop_
_symmetry_equiv_pos_as_xyz
  x,y,z
_cell_length_a	19.288866
_cell_length_b	14.750779
_cell_length_c	19.288865
_cell_angle_alpha	102.602845
_cell_angle_beta	96.863554
_cell_angle_gamma	102.598815
loop_
_atom_site_label
_atom_site_type_symbol
_atom_site_fract_x
_atom_site_fract_y
_atom_site_fract_z
O1	O	-0.906227	0.079805	0.101764
O2	O	-0.572893	0.413138	0.435097
O3	O	-0.239560	0.746472	0.768431
O4	O	-0.703964	0.079816	0.113454
O5	O	-0.370631	0.413149	0.446787
O6	O	-0.037298	0.746483	0.780121
O7	O	-0.810944	0.079791	0.006475
O8	O	-0.477610	0.413124	0.339808
O9	O	-0.144277	0.746458	0.673142
O10	O	-0.799247	0.079830	0.208743
O11	O	-0.465914	0.413163	0.542076
O12	O	-0.132581	0.746496	0.875410
O13	O	-0.841185	-0.079866	-0.023763
O14	O	-0.507852	0.253467	0.309570
O15	O	-0.174519	0.586800	0.642903
O16	O	-0.734206	-0.079841	0.083216
O17	O	-0.400873	0.253492	0.416549
O18	O	-0.067539	0.586825	0.749882
O19	O	-0.936469	-0.079852	0.071526
O20	O	-0.603135	0.253481	0.404859
O21	O	-0.269802	0.586814	0.738192
Zn22	Zn	-0.840139	-0.105196	0.072570
Zn23	Zn	-0.506805	0.228137	0.405903
Zn24	Zn	-0.173472	0.561471	0.739236
Zn25	Zn	-0.800294	0.105160	0.112410
Zn26	Zn	-0.466961	0.438493	0.445743
Zn27	Zn	-0.133627	0.771826	0.779077
O28	O	-0.829489	-0.079828	0.178505
O29	O	-0.496156	0.253506	0.511838
O30	O	-0.162823	0.586839	0.845171
C31	C	-0.693208	-0.000012	0.097959
C32	C	-0.359875	0.333322	0.431292
C33	C	-0.026542	0.666655	0.764626
C34	C	-0.616104	-0.000008	0.096830
C35	C	-0.282771	0.333325	0.430164
C36	C	0.050562	0.666658	0.763497
N37	N	-0.867337	-0.248758	0.045379
N38	N	-0.534004	0.084575	0.378712
N39	N	-0.200670	0.417909	0.712046
C40	C	-0.044056	0.087009	0.105177
C41	C	0.289277	0.420342	0.438510
C42	C	0.622611	0.753676	0.771843
C43	C	-0.116503	0.087013	0.106234
C44	C	0.216830	0.420346	0.439568
C45	C	0.550164	0.753679	0.772901
C46	C	-0.169216	-0.000016	0.090283
C47	C	0.164117	0.333317	0.423616
C48	C	0.497450	0.666650	0.756950
C49	C	-0.149480	-0.087055	0.073255
C50	C	0.183853	0.246278	0.406588
C51	C	0.517186	0.579611	0.739922
C52	C	-0.077035	-0.087057	0.072191
C53	C	0.256298	0.246277	0.405524
C54	C	0.589631	0.579610	0.738858
C55	C	-0.291172	-0.066684	0.120024
C56	C	0.042162	0.266650	0.453357
C57	C	0.375495	0.599983	0.786690
C58	C	-0.363614	-0.066679	0.121093
C59	C	-0.030281	0.266654	0.454426
C60	C	0.303053	0.599988	0.787760
C61	C	-0.392662	-0.000016	0.093561
C62	C	-0.059329	0.333317	0.426895
C63	C	0.274005	0.666651	0.760228
C64	C	-0.349254	0.066658	0.064973
C65	C	-0.015921	0.399991	0.398306
C66	C	0.317412	0.733325	0.731640
C67	C	-0.276809	0.066657	0.063909
C68	C	0.056524	0.399990	0.397242
C69	C	0.389857	0.733323	0.730575
C70	C	-0.247773	-0.000025	0.091435
C71	C	0.085561	0.333309	0.424768
C72	C	0.418894	0.666642	0.758101
C73	C	-0.490946	0.087021	0.111730
C74	C	-0.157613	0.420355	0.445064
C75	C	0.175721	0.753688	0.778397
C76	C	-0.563396	0.087022	0.112783
C77	C	-0.230062	0.420355	0.446116
C78	C	0.103271	0.753688	0.779449
C79	C	-0.596371	-0.087049	0.079810
C80	C	-0.263038	0.246284	0.413143
C81	C	0.070296	0.579618	0.746477
C82	C	-0.523924	-0.087047	0.078751
C83	C	-0.190590	0.246287	0.412084
C84	C	0.142743	0.579620	0.745418
C85	C	-0.471214	-0.000009	0.094715
C86	C	-0.137881	0.333325	0.428048
C87	C	0.195452	0.666658	0.761382
C88	C	-0.697141	-0.600537	0.215503
C89	C	-0.363808	-0.267203	0.548837
C90	C	-0.030474	0.066130	0.882170
C91	C	-0.716205	-0.701040	0.196454
C92	C	-0.382871	-0.367707	0.529788
C93	C	-0.049538	-0.034373	0.863121
C94	C	-0.810954	-0.701025	0.101759
C95	C	-0.477621	-0.367691	0.435093
C96	C	-0.144288	-0.034358	0.768426
C97	C	-0.791896	-0.600519	0.120798
C98	C	-0.458563	-0.267186	0.454131
C99	C	-0.125230	0.066147	0.787464
C100	C	-0.734990	-0.550283	0.177671
C101	C	-0.401656	-0.216950	0.511004
C102	C	-0.068323	0.116384	0.844337
C103	C	-0.829745	-0.550266	0.082965
C104	C	-0.496411	-0.216932	0.416299
C105	C	-0.163078	0.116401	0.749632
C106	C	-0.810690	-0.449769	0.102005
C107	C	-0.477357	-0.116436	0.435338
C108	C	-0.144024	0.216898	0.768672
C109	C	-0.753787	-0.399526	0.158877
C110	C	-0.420454	-0.066192	0.492211
C111	C	-0.087121	0.267141	0.825544
C112	C	-0.715935	-0.449786	0.196711
C113	C	-0.382602	-0.116453	0.530044
C114	C	-0.049269	0.216880	0.863377
C115	C	-0.886655	-0.600504	0.026096
C116	C	-0.553321	-0.267170	0.359429
C117	C	-0.219988	0.066163	0.692763
C118	C	-0.924503	-0.550250	-0.011736
C119	C	-0.591170	-0.216917	0.321597
C120	C	-0.257836	0.116417	0.654930
C121	C	-0.905446	-0.449752	0.007300
C122	C	-0.572112	-0.116418	0.340633
C123	C	-0.238779	0.216915	0.673966
C124	C	-0.848543	-0.399508	0.064172
C125	C	-0.515209	-0.066175	0.397505
C126	C	-0.181876	0.267158	0.730838
C127	C	-0.943298	-0.399491	-0.030534
C128	C	-0.609965	-0.066158	0.302800
C129	C	-0.276631	0.267176	0.636133
C130	C	-0.924243	-0.298994	-0.011494
C131	C	-0.590910	0.034339	0.321839
C132	C	-0.257577	0.367673	0.655173
C133	C	-0.829488	-0.299011	0.083212
C134	C	-0.496155	0.034322	0.416545
C135	C	-0.162822	0.367655	0.749878
C136	C	0.052776	-0.000022	0.087022
C137	C	0.386110	0.333311	0.420355
C138	C	0.719443	0.666644	0.753689
C139	C	-0.024326	-0.000019	0.088155
C140	C	0.309007	0.333315	0.421488
C141	C	0.642340	0.666648	0.754822
C142	C	-0.825689	-0.000040	-0.034521
C143	C	-0.492356	0.333293	0.298812
C144	C	-0.159022	0.666626	0.632146
C145	C	-0.824561	-0.000049	-0.111626
C146	C	-0.491228	0.333285	0.221707
C147	C	-0.157895	0.666618	0.555040
N148	N	-0.773101	0.248722	0.139595
N149	N	-0.439768	0.582055	0.472928
N150	N	-0.106435	0.915388	0.806262
C151	C	-0.887331	-0.000057	-0.156324
C152	C	-0.553997	0.333276	0.177009
C153	C	-0.220664	0.666610	0.510343
C154	C	-0.886267	-0.000042	-0.228768
C155	C	-0.552934	0.333292	0.104565
C156	C	-0.219601	0.666625	0.437899
C157	C	-0.822434	-0.000038	-0.256515
C158	C	-0.489101	0.333296	0.076818
C159	C	-0.155768	0.666629	0.410152
C160	C	-0.759656	-0.000024	-0.211807
C161	C	-0.426322	0.333309	0.121527
C162	C	-0.092989	0.666643	0.454860
C163	C	-0.760719	-0.000030	-0.139362
C164	C	-0.427386	0.333304	0.193971
C165	C	-0.094053	0.666637	0.527304
C166	C	-0.782847	-0.055959	-0.375394
C167	C	-0.449514	0.277374	-0.042061
C168	C	-0.116181	0.610707	0.291273
C169	C	-0.781788	-0.055960	-0.447839
C170	C	-0.448454	0.277374	-0.114505
C171	C	-0.115121	0.610707	0.218828
C172	C	-0.819151	-0.000016	-0.479957
C173	C	-0.485817	0.333317	-0.146623
C174	C	-0.152484	0.666651	0.186710
C175	C	-0.857588	0.055916	-0.439625
C176	C	-0.524254	0.389249	-0.106292
C177	C	-0.190921	0.722582	0.227042
C178	C	-0.858651	0.055910	-0.367181
C179	C	-0.525318	0.389244	-0.033847
C180	C	-0.191984	0.722577	0.299486
C181	C	-0.821274	-0.000031	-0.335068
C182	C	-0.487941	0.333303	-0.001735
C183	C	-0.154607	0.666636	0.331599
C184	C	-0.880771	-0.000006	-0.603207
C185	C	-0.547438	0.333327	-0.269873
C186	C	-0.214104	0.666661	0.063460
C187	C	-0.879704	0.000015	-0.675651
C188	C	-0.546370	0.333348	-0.342318
C189	C	-0.213037	0.666682	-0.008984
C190	C	-0.753092	0.000023	-0.658690
C191	C	-0.419759	0.333356	-0.325356
C192	C	-0.086425	0.666690	0.007977
C193	C	-0.754159	0.000012	-0.586245
C194	C	-0.420826	0.333345	-0.252912
C195	C	-0.087493	0.666678	0.080421
C196	C	-0.818001	-0.000008	-0.558509
C197	C	-0.484668	0.333326	-0.225176
C198	C	-0.151335	0.666659	0.108157
C199	C	-0.814744	0.000006	0.219501
C200	C	-0.481410	0.333339	0.552834
C201	C	-0.148077	0.666673	0.886168
C202	C	-0.815870	0.000021	0.296608
C203	C	-0.482536	0.333354	0.629941
C204	C	-0.149203	0.666687	0.963274
H205	H	-0.001144	0.157882	0.118173
H206	H	0.332189	0.491215	0.451506
H207	H	0.665523	0.824549	0.784840
H208	H	-0.372902	0.120944	0.042557
H209	H	-0.039569	0.454277	0.375890
H210	H	0.293765	0.787611	0.709223
F211	F	-0.137507	0.179643	0.124353
F212	F	0.195826	0.512976	0.457686
F213	F	0.529160	0.846310	0.791020
H214	H	-0.937383	-0.000044	-0.265167
H215	H	-0.604049	0.333289	0.068166
H216	H	-0.270716	0.666622	0.401500
H217	H	-0.448028	0.157893	0.124727
H218	H	-0.114695	0.491226	0.458060
H219	H	0.218639	0.824560	0.791393
F220	F	-0.687351	0.000016	-0.538673
F221	F	-0.354018	0.333350	-0.205340
F222	F	-0.020685	0.666683	0.127993
H223	H	-0.241470	0.120943	0.040629
H224	H	0.091863	0.454277	0.373963
H225	H	0.425197	0.787610	0.707296
F226	F	-1.003867	-0.452967	-0.091054
F227	F	-0.670533	-0.119633	0.242279
F228	F	-0.337200	0.213700	0.575613
F229	F	-0.964529	-0.245510	-0.051759
F230	F	-0.631196	0.087823	0.281575
F231	F	-0.297862	0.421157	0.614908
H232	H	-0.889946	0.101453	-0.334345
H233	H	-0.556613	0.434787	-0.001012
H234	H	-0.223279	0.768120	0.332322
F235	F	-0.502924	-0.179675	0.060643
F236	F	-0.169591	0.153659	0.393976
F237	F	0.163743	0.486992	0.727310
F238	F	-0.740883	-0.115490	-0.490757
F239	F	-0.407550	0.217843	-0.157423
F240	F	-0.074217	0.551177	0.175910
H241	H	-0.857290	-0.741939	0.055454
H242	H	-0.523957	-0.408605	0.388788
H243	H	-0.190624	-0.075272	0.722121
H244	H	-0.939315	-0.000069	-0.133746
H245	H	-0.605982	0.333264	0.199588
H246	H	-0.272649	0.666598	0.532921
H247	H	-0.579457	0.157893	0.126639
H248	H	-0.246123	0.491226	0.459973
H249	H	0.087210	0.824559	0.793306
H250	H	-0.783144	-0.258107	0.129518
H251	H	-0.449811	0.075226	0.462852
H252	H	-0.116478	0.408559	0.796185
H253	H	-0.709603	-0.000023	-0.102969
H254	H	-0.376270	0.333310	0.230365
H255	H	-0.042937	0.666643	0.563698
H256	H	-0.888012	0.101471	-0.465773
H257	H	-0.554679	0.434804	-0.132440
H258	H	-0.221345	0.768138	0.200893
H259	H	-0.639290	-0.157910	0.066820
H260	H	-0.305957	0.175424	0.400153
H261	H	0.027376	0.508757	0.733486
H262	H	-0.192404	-0.157915	0.060266
H263	H	0.140929	0.175418	0.393600
H264	H	0.474262	0.508752	0.726933
H265	H	-0.060974	-0.157927	0.058332
H266	H	0.272360	0.175406	0.391665
H267	H	0.605693	0.508739	0.724999
H268	H	-0.932754	-0.000017	-0.580622
H269	H	-0.599421	0.333316	-0.247289
H270	H	-0.266087	0.666649	0.086044
H271	H	-0.669591	-0.408882	0.243017
H272	H	-0.336258	-0.075549	0.576351
H273	H	-0.002925	0.257785	0.909684
F274	F	-0.675916	-0.754517	0.236729
F275	F	-0.342583	-0.421184	0.570062
F276	F	-0.009249	-0.087850	0.903396
F277	F	-0.733511	-0.292567	0.179143
F278	F	-0.400178	0.040767	0.512477
F279	F	-0.066845	0.374100	0.845810
H280	H	-0.930819	0.000014	-0.712043
H281	H	-0.597486	0.333347	-0.378709
H282	H	-0.264152	0.666680	-0.045376
F283	F	-0.409803	-0.137632	0.151526
F284	F	-0.076470	0.195701	0.484859
F285	F	0.256864	0.529035	0.818192
H286	H	-0.267530	-0.120979	0.142438
H287	H	0.065803	0.212354	0.475771
H288	H	0.399137	0.545687	0.809105
F289	F	-0.685155	0.000032	-0.688214
F290	F	-0.351821	0.333366	-0.354881
F291	F	-0.018488	0.666699	-0.021547
H292	H	-0.752421	-0.101521	-0.349251
H293	H	-0.419088	0.231813	-0.015917
H294	H	-0.085754	0.565146	0.317416
H295	H	-0.650797	-0.559632	0.261810
H296	H	-0.317464	-0.226299	0.595143
H297	H	0.015870	0.107034	0.928477
H298	H	-0.902169	-0.682335	0.010598
H299	H	-0.568835	-0.349001	0.343932
H300	H	-0.235502	-0.015668	0.677265
F301	F	-0.691719	-0.000013	-0.241337
F302	F	-0.358386	0.333320	0.091997
F303	F	-0.025052	0.666653	0.425330
H304	H	-0.970839	-0.591164	-0.058041
H305	H	-0.637506	-0.257831	0.275292
H306	H	-0.304172	0.075503	0.608625
