data_functionalizedCrystal
_audit_creation_method	'MofGen! by Chris Wilmer'
_symmetry_space_group_name_H-M	'P1'
_symmetry_Int_Tables_number	1
_symmetry_cell_setting	triclinic
loop_
_symmetry_equiv_pos_as_xyz
  x,y,z
_cell_length_a	14.044191
_cell_length_b	16.974813
_cell_length_c	15.455320
_cell_angle_alpha	90.974815
_cell_angle_beta	92.909799
_cell_angle_gamma	88.283629
loop_
_atom_site_label
_atom_site_type_symbol
_atom_site_fract_x
_atom_site_fract_y
_atom_site_fract_z
O1	O	1.262353	0.186881	0.085204
O2	O	1.762353	0.686881	0.585204
O3	O	0.986365	0.180017	0.084733
O4	O	1.486365	0.680017	0.584733
O5	O	1.131591	0.069242	0.076947
O6	O	1.631591	0.569242	0.576947
O7	O	1.117127	0.297656	0.092989
O8	O	1.617127	0.797656	0.592989
O9	O	1.123321	0.075577	-0.066869
O10	O	1.623321	0.575577	0.433131
O11	O	0.978094	0.186352	-0.059084
O12	O	1.478094	0.686352	0.440916
O13	O	1.254082	0.193216	-0.058613
O14	O	1.754082	0.693216	0.441387
Cu15	Cu	1.115333	0.190362	-0.071980
Cu16	Cu	1.615333	0.690362	0.428020
Cu17	Cu	1.125114	0.182871	0.098100
Cu18	Cu	1.625114	0.682871	0.598100
O19	O	1.108856	0.303991	-0.050827
O20	O	1.608856	0.803991	0.449173
C21	C	0.946907	0.180183	0.012615
C22	C	1.446907	0.680183	0.512615
C23	C	0.841657	0.171227	0.011991
C24	C	1.341657	0.671227	0.511991
C25	C	1.126752	0.043001	0.002976
C26	C	1.626752	0.543001	0.502976
C27	C	1.124644	-0.044629	-0.003173
C28	C	1.624644	0.455371	0.496827
C29	C	1.128163	-0.089246	0.072332
C30	C	1.628163	0.410754	0.572332
C31	C	1.126176	-0.171583	0.066552
C32	C	1.626176	0.328417	0.566552
C33	C	1.120675	-0.209302	-0.014734
C34	C	1.620675	0.290698	0.485266
C35	C	1.117152	-0.164679	-0.090245
C36	C	1.617152	0.335321	0.409755
C37	C	1.119133	-0.082343	-0.084464
C38	C	1.619133	0.417657	0.415536
C39	C	1.114262	-0.455179	-0.040429
C40	C	1.614262	0.044821	0.459571
C41	C	1.112284	-0.537521	-0.046204
C42	C	1.612284	-0.037521	0.453796
C43	C	1.121306	-0.544420	0.110593
C44	C	1.621306	-0.044420	0.610593
C45	C	1.123292	-0.462082	0.116367
C46	C	1.623292	0.037918	0.616367
C47	C	1.119764	-0.417466	0.040856
C48	C	1.619764	0.082534	0.540856
N49	N	1.118647	-0.293464	-0.020644
N50	N	1.618647	0.206536	0.479356
N51	N	1.121786	-0.333306	0.046767
N52	N	1.621786	0.166694	0.546767
C53	C	0.591499	0.218368	0.015293
C54	C	1.091499	0.718368	0.515293
C55	C	0.648955	0.154868	0.010835
C56	C	1.148955	0.654868	0.510835
C57	C	0.756184	0.163972	0.011478
C58	C	1.256184	0.663972	0.511478
C59	C	0.484259	0.209265	0.014650
C60	C	0.984259	0.709265	0.514650
C61	C	1.293540	0.193050	0.013507
C62	C	1.793540	0.693050	0.513507
C63	C	1.398791	0.202006	0.014137
C64	C	1.898791	0.702006	0.514137
C65	C	1.113695	0.330232	0.023147
C66	C	1.613695	0.830232	0.523147
C67	C	1.115804	0.417862	0.029301
C68	C	1.615804	0.917862	0.529301
N69	N	1.108461	0.195632	-0.191605
N70	N	1.608461	0.695632	0.308395
C71	C	1.070283	0.224643	-0.733573
C72	C	1.570283	0.724643	-0.233573
C73	C	1.075501	0.220674	-0.643044
C74	C	1.575501	0.720674	-0.143044
C75	C	1.142436	0.169663	-0.601219
C76	C	1.642436	0.669663	-0.101219
C77	C	1.204150	0.122611	-0.649928
C78	C	1.704150	0.622611	-0.149928
C79	C	1.198927	0.126575	-0.740455
C80	C	1.698927	0.626575	-0.240455
C81	C	1.164951	0.152544	-0.330841
C82	C	1.664951	0.652544	0.169159
C83	C	1.170172	0.148585	-0.240307
C84	C	1.670172	0.648585	0.259693
C85	C	1.041521	0.246648	-0.233430
C86	C	1.541521	0.746648	0.266570
C87	C	1.036307	0.250612	-0.323959
C88	C	1.536307	0.750612	0.176041
C89	C	1.098018	0.203556	-0.372660
C90	C	1.598018	0.703556	0.127340
N91	N	1.147773	0.165607	-0.508684
N92	N	1.647773	0.665607	-0.008684
N93	N	1.092675	0.207608	-0.465194
N94	N	1.592675	0.707608	0.034806
N95	N	1.131994	0.177596	0.217725
N96	N	1.631994	0.677596	0.717725
H97	H	1.132648	-0.058542	0.138524
H98	H	1.632648	0.441458	0.638524
N99	N	1.008933	0.271410	-0.590515
N100	N	1.508933	0.771410	-0.090515
H101	H	0.965740	0.304329	-0.630748
H102	H	1.465740	0.804329	-0.130748
H103	H	1.047477	0.307182	-0.550340
H104	H	1.547477	0.807182	-0.050340
H105	H	0.622839	0.279566	0.019594
H106	H	1.122839	0.779566	0.519594
H107	H	1.112668	-0.195396	-0.156430
H108	H	1.612668	0.304604	0.343570
H109	H	0.981804	0.292149	-0.358011
H110	H	1.481804	0.792149	0.141989
N111	N	0.974962	0.297395	-0.180904
N112	N	1.474962	0.797395	0.319096
H113	H	0.988423	0.287144	-0.117208
H114	H	1.488423	0.787144	0.382792
H115	H	0.906776	0.284214	-0.197686
H116	H	1.406776	0.784214	0.302314
N117	N	0.998090	0.279665	-0.778682
N118	N	1.498090	0.779665	-0.278682
H119	H	0.959786	0.308864	-0.734089
H120	H	1.459786	0.808864	-0.234089
H121	H	0.953937	0.248162	-0.818550
H122	H	1.453937	0.748162	-0.318550
N123	N	1.242372	0.093565	-0.195192
N124	N	1.742372	0.593565	0.304808
H125	H	1.280673	0.064356	-0.239780
H126	H	1.780673	0.564356	0.260220
H127	H	1.208155	0.054508	-0.160235
H128	H	1.708155	0.554508	0.339765
H129	H	1.215200	0.114231	-0.370486
H130	H	1.715200	0.614231	0.129514
H131	H	1.129046	-0.207907	0.128037
H132	H	1.629046	0.292093	0.628037
N133	N	1.276322	0.067569	-0.604823
N134	N	1.776322	0.567569	-0.104823
H135	H	1.270264	0.072191	-0.540084
H136	H	1.770264	0.572191	-0.040084
H137	H	1.342692	0.082115	-0.619683
H138	H	1.842692	0.582115	-0.119683
N139	N	1.265489	0.075837	-0.792991
N140	N	1.765489	0.575837	-0.292991
H141	H	1.255339	0.018431	-0.781199
H142	H	1.755339	0.518431	-0.281199
H143	H	1.333673	0.089061	-0.776258
H144	H	1.833673	0.589061	-0.276258
N145	N	1.129228	-0.421402	0.204040
N146	N	1.629228	0.078598	0.704040
H147	H	1.131156	-0.462161	0.250997
H148	H	1.631156	0.037839	0.750997
H149	H	1.071529	-0.385130	0.210015
H150	H	1.571529	0.114870	0.710015
H151	H	1.124177	-0.580755	0.172070
H152	H	1.624177	-0.080755	0.672070
H153	H	1.107800	-0.568229	-0.112401
H154	H	1.607800	-0.068229	0.387599
H155	H	1.111408	-0.418863	-0.101916
H156	H	1.611408	0.081137	0.398084
H157	H	1.116253	-0.046016	-0.145949
H158	H	1.616253	0.453984	0.354051
H159	H	0.617616	0.093663	0.006597
H160	H	1.117616	0.593663	0.506597
