data_functionalizedCrystal
_audit_creation_method	'MofGen! by Chris Wilmer'
_symmetry_space_group_name_H-M	'P1'
_symmetry_Int_Tables_number	1
_symmetry_cell_setting	triclinic
loop_
_symmetry_equiv_pos_as_xyz
  x,y,z
_cell_length_a	23.532361
_cell_length_b	23.532407
_cell_length_c	22.010155
_cell_angle_alpha	89.995744
_cell_angle_beta	89.995873
_cell_angle_gamma	82.839208
loop_
_atom_site_label
_atom_site_type_symbol
_atom_site_fract_x
_atom_site_fract_y
_atom_site_fract_z
O1	O	0.755281	0.069001	-0.050475
O2	O	0.589414	0.079032	-0.050491
O3	O	0.677349	-0.008916	-0.050466
O4	O	0.667346	0.156949	-0.050501
O5	O	0.677333	-0.008903	0.050585
O6	O	0.589398	0.079045	0.050559
O7	O	0.755265	0.069014	0.050575
Cu8	Cu	0.672330	0.074030	0.059794
Cu9	Cu	0.672349	0.074015	-0.059710
O10	O	0.667330	0.156962	0.050549
C11	C	0.568189	0.078787	0.000032
C12	C	0.504971	0.078032	0.000027
C13	C	0.231736	0.074721	-0.055052
C14	C	0.291136	0.075436	-0.055053
O15	O	0.321869	0.075780	-0.101898
N16	N	0.320833	0.075804	0.000029
C17	C	0.291127	0.075452	0.055117
O18	O	0.321841	0.075830	0.101969
C19	C	0.231729	0.074733	0.055118
C20	C	0.202035	0.074370	0.000032
C21	C	0.202041	0.074358	-0.110133
C22	C	0.142645	0.073644	-0.110132
C23	C	0.112944	0.073293	-0.055048
C24	C	0.142639	0.073657	0.000034
C25	C	0.202026	0.074376	0.110206
C26	C	0.142624	0.073657	0.110202
C27	C	0.112929	0.073294	0.055116
C28	C	0.053542	0.072592	0.055120
N29	N	0.023845	0.072224	0.000037
C30	C	0.053546	0.072574	-0.055047
C31	C	0.415868	0.076961	0.055111
C32	C	0.475264	0.077684	0.055111
C33	C	0.475268	0.077667	-0.055060
C34	C	0.415870	0.076948	-0.055059
C35	C	0.386171	0.076593	0.000028
C36	C	-0.071189	0.071076	-0.055039
C37	C	-0.130591	0.070364	-0.055032
C38	C	-0.130589	0.070378	0.055138
C39	C	-0.071194	0.071093	0.055132
C40	C	-0.041495	0.071440	0.000039
O41	O	0.022771	0.072245	0.101940
O42	O	0.022826	0.072188	-0.101891
C43	C	0.677086	-0.030126	0.000062
C44	C	0.676320	-0.093343	0.000072
C45	C	0.621124	-0.359501	0.000028
C46	C	0.621835	-0.300101	0.000033
O47	O	0.578048	-0.263349	0.000010
N48	N	0.674113	-0.277483	0.000045
C49	C	0.725682	-0.314270	0.000046
O50	O	0.770214	-0.289577	0.000056
C51	C	0.724970	-0.373669	0.000037
C52	C	0.672689	-0.396282	0.000031
C53	C	0.568847	-0.382116	0.000022
C54	C	0.568136	-0.441512	0.000018
C55	C	0.619701	-0.478293	0.000021
C56	C	0.671978	-0.455678	0.000028
C57	C	0.776539	-0.410454	0.000034
C58	C	0.775822	-0.469856	0.000024
C59	C	0.723541	-0.492470	0.000019
C60	C	0.722832	-0.551856	0.000027
N61	N	0.670555	-0.574473	0.000015
C62	C	0.618989	-0.537692	0.000012
C63	C	0.727174	-0.189527	0.000064
C64	C	0.727886	-0.130129	0.000078
C65	C	0.624039	-0.115965	0.000063
C66	C	0.623327	-0.175364	0.000054
C67	C	0.674896	-0.212145	0.000052
C68	C	0.617500	-0.662429	0.000005
C69	C	0.616793	-0.721830	0.000004
C70	C	0.720640	-0.735990	0.000015
C71	C	0.721347	-0.676593	0.000019
C72	C	0.669772	-0.639813	0.000012
O73	O	0.766596	-0.588643	0.000048
O74	O	0.574465	-0.562393	-0.000006
C75	C	0.776490	0.069258	0.000050
C76	C	0.839708	0.070014	0.000052
C77	C	0.667592	0.178171	0.000020
C78	C	0.668358	0.241388	0.000007
N79	N	0.672321	0.074041	0.143846
N80	N	0.672363	0.074000	-0.143763
C81	C	0.711289	0.035077	0.563637
C82	C	0.711291	0.035073	0.627245
O83	O	0.744400	0.001952	0.660146
N84	N	0.672349	0.074003	0.659053
C85	C	0.633397	0.112935	0.627251
O86	O	0.600273	0.146048	0.660148
C87	C	0.633392	0.112936	0.563645
C88	C	0.672341	0.074008	0.531839
C89	C	0.750235	-0.003849	0.531831
C90	C	0.750232	-0.003844	0.468228
C91	C	0.711285	0.035087	0.436430
C92	C	0.672339	0.074012	0.468236
C93	C	0.594438	0.151866	0.531844
C94	C	0.594436	0.151863	0.468233
C95	C	0.633385	0.112934	0.436428
C96	C	0.633389	0.112948	0.372835
N97	N	0.672332	0.074018	0.341026
C98	C	0.711280	0.035087	0.372824
C99	C	0.633409	0.112930	0.760829
C100	C	0.633416	0.112933	0.824434
C101	C	0.711311	0.035069	0.824423
C102	C	0.711306	0.035070	0.760817
C103	C	0.672352	0.074000	0.729020
C104	C	0.711273	0.035101	0.239253
C105	C	0.711269	0.035110	0.175644
C106	C	0.633373	0.112971	0.175660
C107	C	0.633378	0.112964	0.239264
C108	C	0.672331	0.074024	0.271058
O109	O	0.600295	0.146051	0.339894
O110	O	0.744393	0.001976	0.339920
H111	H	-0.047017	0.071399	0.099988
O112	O	-0.159459	0.069935	0.108628
C113	C	-0.187095	0.020197	0.111919
H114	H	-0.164481	-0.014068	0.080667
H115	H	-0.233632	0.030806	0.097111
C116	C	-0.212743	0.039906	0.216116
C117	C	-0.184965	-0.002181	0.177736
H118	H	-0.211432	0.026103	0.256715
H119	H	-0.194126	0.073417	0.213898
H120	H	-0.251521	0.048743	0.203769
H121	H	-0.146186	-0.011011	0.190078
H122	H	-0.203575	-0.035694	0.179957
H123	H	0.574218	-0.740239	0.000002
H124	H	0.769170	-0.219472	0.000067
H125	H	0.118445	0.073372	0.155062
H126	H	0.742990	0.003391	0.265133
H127	H	0.525564	-0.459918	0.000008
O128	O	0.567348	-0.626787	0.000027
C129	C	0.521061	-0.659495	0.000005
H130	H	0.535781	-0.703915	0.019133
H131	H	0.505027	-0.663631	-0.048475
C132	C	0.454195	-0.575077	0.016139
C133	C	0.472273	-0.629632	0.039637
H134	H	0.424099	-0.556656	0.040583
H135	H	0.485379	-0.553041	0.016151
H136	H	0.440838	-0.578531	-0.024261
H137	H	0.485637	-0.626177	0.080033
H138	H	0.441090	-0.651668	0.039632
H139	H	0.819111	-0.392052	0.000038
H140	H	0.781947	-0.035545	0.442336
O141	O	0.518700	-0.346472	0.000048
C142	C	0.472414	-0.379182	0.000024
H143	H	0.487136	-0.423603	0.019146
H144	H	0.456378	-0.383313	-0.048457
C145	C	0.405545	-0.294768	0.016169
C146	C	0.423627	-0.349325	0.039661
H147	H	0.375450	-0.276351	0.040617
H148	H	0.436729	-0.272730	0.016183
H149	H	0.392186	-0.298218	-0.024231
H150	H	0.436992	-0.345874	0.080057
H151	H	0.392445	-0.371362	0.039655
H152	H	0.763918	-0.658180	0.000033
O153	O	0.386976	0.076515	-0.108531
C154	C	0.359368	0.026760	-0.111828
H155	H	0.352707	0.010211	-0.064000
H156	H	0.386983	-0.007509	-0.139002
C157	C	0.309087	0.061381	-0.202075
C158	C	0.300901	0.041059	-0.143331
H159	H	0.273023	0.070200	-0.221510
H160	H	0.327689	0.094902	-0.199856
H161	H	0.332102	0.032821	-0.224712
H162	H	0.277894	0.069622	-0.120694
H163	H	0.282295	0.007544	-0.145548
O164	O	0.595530	0.150774	0.855232
C165	C	0.561167	0.185143	0.813519
H166	H	0.560659	0.161795	0.768180
H167	H	0.579417	0.227354	0.806750
C168	C	0.500285	0.225880	0.894029
C169	C	0.499658	0.197201	0.838344
H170	H	0.462344	0.233321	0.909343
H171	H	0.523437	0.202726	0.922132
H172	H	0.515496	0.261053	0.888381
H173	H	0.484454	0.162026	0.843995
H174	H	0.476502	0.220349	0.810242
H175	H	0.580755	-0.193771	0.000052
H176	H	0.499462	0.077952	-0.099912
H177	H	0.601690	0.144637	0.734943
H178	H	0.562721	0.183564	0.557731
O179	O	0.573999	-0.080148	0.000027
C180	C	0.585844	-0.022874	0.000048
H181	H	0.630570	-0.020854	-0.019072
H182	H	0.583574	-0.005686	0.048527
C183	C	0.486497	0.011261	-0.016105
C184	C	0.541429	0.013743	-0.039594
H185	H	0.459099	0.033850	-0.040556
H186	H	0.478516	-0.027325	-0.016117
H187	H	0.484614	0.025584	0.024294
H188	H	0.543314	-0.000586	-0.079989
H189	H	0.549410	0.052328	-0.039590
H190	H	0.742988	0.003410	0.149750
O191	O	0.788128	-0.041690	0.562619
C192	C	0.822486	-0.076051	0.520895
H193	H	0.822981	-0.052697	0.475555
H194	H	0.804238	-0.118264	0.514135
C195	C	0.883388	-0.116792	0.601384
C196	C	0.884000	-0.088107	0.545698
H197	H	0.921332	-0.124231	0.616683
H198	H	0.860240	-0.093644	0.629495
H199	H	0.868179	-0.151966	0.595743
H200	H	0.899202	-0.052930	0.551340
H201	H	0.907152	-0.111249	0.517588
H202	H	0.743023	0.003369	0.850324
H203	H	0.817817	-0.499801	0.000019
H204	H	0.743021	0.003371	0.734924
O205	O	0.504021	0.078016	0.108676
C206	C	0.465059	0.077569	0.157290
H207	H	0.425181	0.059025	0.141141
H208	H	0.452502	0.123192	0.174216
C209	C	0.542307	0.063278	0.229178
C210	C	0.493331	0.040497	0.209345
H211	H	0.559747	0.040413	0.261290
H212	H	0.568557	0.063581	0.196427
H213	H	0.531837	0.101296	0.243279
H214	H	0.503803	0.002482	0.195238
H215	H	0.467083	0.040186	0.242096
H216	H	0.770458	-0.111723	0.000092
H217	H	0.762623	-0.765948	0.000020
O218	O	0.556575	0.189737	0.437441
C219	C	0.522192	0.224082	0.479158
H220	H	0.545541	0.224599	0.524496
H221	H	0.479993	0.205809	0.485929
C222	C	0.481421	0.284952	0.398655
C223	C	0.510101	0.285590	0.454338
H224	H	0.473960	0.322893	0.383344
H225	H	0.504583	0.261812	0.370549
H226	H	0.446259	0.269721	0.404305
H227	H	0.545266	0.300814	0.448686
H228	H	0.486944	0.308734	0.482443
O229	O	0.230849	0.074622	0.163734
C230	C	0.223045	0.025124	0.197251
H231	H	0.211431	-0.009551	0.165019
H232	H	0.187034	0.035863	0.231588
C233	C	0.293118	0.045979	0.270608
C234	C	0.278858	0.003388	0.231019
H235	H	0.327544	0.032572	0.291441
H236	H	0.298374	0.079328	0.248029
H237	H	0.263104	0.054924	0.299217
H238	H	0.308868	-0.005551	0.202407
H239	H	0.273607	-0.029963	0.253595
H240	H	0.601668	0.144669	0.265160
O241	O	-0.042438	0.071442	-0.108610
C242	C	-0.081392	0.070956	-0.157220
H243	H	-0.126194	0.088477	-0.141064
H244	H	-0.081472	0.025183	-0.174152
C245	C	-0.008291	0.087069	-0.229114
C246	C	-0.063316	0.108594	-0.209272
H247	H	0.002860	0.110284	-0.261224
H248	H	0.017954	0.087395	-0.196365
H249	H	-0.008365	0.048926	-0.243220
H250	H	-0.063240	0.146734	-0.195160
H251	H	-0.089561	0.108276	-0.242020
O252	O	0.595518	0.150841	0.144860
C253	C	0.561129	0.185192	0.186567
H254	H	0.584472	0.185719	0.231906
H255	H	0.518931	0.166917	0.193336
C256	C	0.520363	0.246044	0.106047
C257	C	0.549036	0.246695	0.161732
H258	H	0.512901	0.283981	0.090727
H259	H	0.543530	0.222900	0.077947
H260	H	0.485201	0.230812	0.111696
H261	H	0.584200	0.261920	0.156081
H262	H	0.525875	0.269843	0.189830
O263	O	0.113897	0.073259	-0.163697
C264	C	0.152858	0.073733	-0.212309
H265	H	0.197658	0.056219	-0.196146
H266	H	0.152937	0.119501	-0.229262
C267	C	0.079767	0.057595	-0.284193
C268	C	0.134791	0.036079	-0.264343
H269	H	0.068622	0.034370	-0.316291
H270	H	0.053518	0.057277	-0.251443
H271	H	0.079841	0.095735	-0.298316
H272	H	0.134715	-0.002057	-0.250212
H273	H	0.161040	0.036389	-0.297092
O274	O	-0.159475	0.070112	-0.108530
C275	C	-0.200575	0.119022	-0.111833
H276	H	-0.187384	0.153721	-0.080582
H277	H	-0.244072	0.107330	-0.097034
C278	C	-0.220732	0.098750	-0.216033
C279	C	-0.204528	0.141371	-0.177653
H280	H	-0.223174	0.112535	-0.256633
H281	H	-0.193044	0.065798	-0.213807
H282	H	-0.256978	0.089011	-0.203692
H283	H	-0.168280	0.151104	-0.189989
H284	H	-0.232211	0.174326	-0.179882
H285	H	0.391689	0.076679	0.099973
H286	H	0.226218	0.074642	-0.154992
