data_functionalizedCrystal
_audit_creation_method	'MofGen! by Chris Wilmer'
_symmetry_space_group_name_H-M	'P1'
_symmetry_Int_Tables_number	1
_symmetry_cell_setting	triclinic
loop_
_symmetry_equiv_pos_as_xyz
  x,y,z
_cell_length_a	8.497374
_cell_length_b	12.827893
_cell_length_c	12.827892
_cell_angle_alpha	89.984638
_cell_angle_beta	89.992687
_cell_angle_gamma	90.001575
loop_
_atom_site_label
_atom_site_type_symbol
_atom_site_fract_x
_atom_site_fract_y
_atom_site_fract_z
Zn1	Zn	0.891962	1.597487	0.416215
Zn2	Zn	0.628170	1.597435	0.590924
Zn3	Zn	0.628190	1.422782	0.416197
Zn4	Zn	0.891902	1.422714	0.590915
O5	O	0.760056	1.510105	0.503563
O6	O	0.856986	1.743716	0.439402
O7	O	0.407411	1.574274	0.567742
O8	O	0.663214	1.446008	0.269964
O9	O	0.663179	1.743678	0.567760
O10	O	0.857006	1.574363	0.269977
O11	O	0.407425	1.445958	0.439372
O12	O	0.663156	1.276537	0.439363
O13	O	1.112673	1.445891	0.567744
O14	O	0.856904	1.276487	0.567727
O15	O	1.112717	1.574296	0.439393
O16	O	0.663121	1.574207	0.737159
O17	O	0.856884	1.445840	0.737152
C18	C	0.760026	1.238595	0.503543
C19	C	0.760051	1.122442	0.503559
C20	C	0.760028	1.510039	0.775073
C21	C	0.760069	1.510107	0.891226
C22	C	0.664376	0.950610	0.439975
C23	C	0.664348	1.070660	0.439956
C24	C	1.171537	1.510097	0.503564
C25	C	1.350181	1.510099	0.503575
C26	C	0.760087	1.782675	0.503584
C27	C	0.760101	1.898828	0.503593
C28	C	0.760119	1.510199	0.230993
C29	C	0.760145	1.510239	0.114839
C30	C	0.664296	1.573702	0.942979
C31	C	0.664336	1.573774	1.063030
H32	H	0.582449	0.906066	0.385519
H33	H	0.842139	1.455785	1.070340
C34	C	0.870813	1.062303	0.577120
H35	H	0.930856	1.110364	0.617018
H36	H	0.939589	1.019748	0.537162
H37	H	0.810326	1.019702	0.622571
H38	H	0.582336	1.628217	1.107536
C39	C	0.870889	1.436624	0.951419
H40	H	0.930980	1.396721	0.903382
H41	H	0.810442	1.391191	0.994055
H42	H	0.939643	1.476633	0.993943
H43	H	0.842041	0.943372	0.558039
C44	C	0.553485	1.647187	0.882781
H45	H	0.567988	1.637495	0.809991
H46	H	0.576645	1.717414	0.900553
H47	H	0.447443	1.631973	0.900653
C48	C	0.553631	1.130805	0.366371
H49	H	0.493586	1.082744	0.326475
H50	H	0.614144	1.173398	0.320936
H51	H	0.484830	1.173369	0.406312
