data_functionalizedCrystal
_audit_creation_method	'MofGen! by Chris Wilmer'
_symmetry_space_group_name_H-M	'P1'
_symmetry_Int_Tables_number	1
_symmetry_cell_setting	triclinic
loop_
_symmetry_equiv_pos_as_xyz
  x,y,z
_cell_length_a	16.109301
_cell_length_b	14.519709
_cell_length_c	14.586319
_cell_angle_alpha	89.995260
_cell_angle_beta	89.999213
_cell_angle_gamma	83.570813
loop_
_atom_site_label
_atom_site_type_symbol
_atom_site_fract_x
_atom_site_fract_y
_atom_site_fract_z
O1	O	1.103336	0.118540	-0.076184
O2	O	0.861300	0.133292	-0.076199
O3	O	0.988735	-0.008336	-0.076183
O4	O	0.975901	0.260168	-0.076200
O5	O	0.988726	-0.008338	0.076298
O6	O	0.861291	0.133290	0.076282
O7	O	1.103327	0.118538	0.076296
Cu8	Cu	0.982308	0.125914	0.090212
Cu9	Cu	0.982319	0.125916	-0.090114
O10	O	0.975892	0.260166	0.076280
C11	C	0.830319	0.132693	0.000039
C12	C	0.738021	0.130902	0.000034
C13	C	0.515887	0.210775	0.000040
C14	C	0.429163	0.209085	0.000046
C15	C	0.448747	0.041048	0.000053
C16	C	0.535468	0.042739	0.000053
C17	C	0.569036	0.127606	0.000042
C18	C	0.395591	0.124224	0.000047
C19	C	0.301562	0.122390	0.000054
C20	C	0.663071	0.129440	0.000037
C21	C	0.988132	-0.042696	0.000057
C22	C	0.986340	-0.145073	0.000058
C23	C	0.979741	-0.519955	0.000034
C24	C	0.981574	-0.415651	0.000041
C25	C	0.983041	-0.332517	0.000047
C26	C	0.984873	-0.228207	0.000052
C27	C	1.134307	0.119136	0.000056
C28	C	1.226606	0.120928	0.000055
C29	C	0.976494	0.294526	0.000038
C30	C	0.978287	0.396903	0.000031
N31	N	0.982307	0.125911	0.217044
N32	N	0.982326	0.125911	-0.216946
C33	C	1.038754	0.063219	0.452057
C34	C	1.038756	0.063217	0.548038
C35	C	0.925873	0.188606	0.548034
C36	C	0.925868	0.188603	0.452054
C37	C	0.982313	0.125911	0.404068
C38	C	0.982321	0.125912	0.596029
C39	C	0.982323	0.125910	0.700096
C40	C	0.982310	0.125911	0.299995
H41	H	0.421405	-0.028048	0.000067
H42	H	0.578745	-0.024991	0.000058
C43	C	1.100835	-0.005747	0.399272
C44	C	1.162916	-0.074710	0.452064
C45	C	1.224997	-0.143681	0.399283
C46	C	1.224998	-0.143690	0.293709
C47	C	1.162915	-0.074724	0.240911
C48	C	1.100834	-0.005753	0.293693
H49	H	1.162917	-0.074707	0.530222
H50	H	1.270955	-0.194734	0.438368
H51	H	1.270954	-0.194746	0.254637
H52	H	1.162914	-0.074728	0.162754
H53	H	1.054876	0.045300	0.254607
H54	H	1.084715	0.012167	0.587108
C55	C	0.552813	0.304125	0.000037
C56	C	0.532812	0.373198	0.079218
C57	C	0.569736	0.466550	0.079219
C58	C	0.626661	0.490830	0.000039
C59	C	0.646664	0.421755	-0.079148
C60	C	0.609740	0.328403	-0.079149
H61	H	0.490671	0.355226	0.137837
H62	H	0.554928	0.517683	0.137839
H63	H	0.653994	0.559935	0.000040
H64	H	0.688806	0.439727	-0.137767
H65	H	0.624549	0.277270	-0.137768
C66	C	0.370698	0.300573	0.000039
C67	C	0.308389	0.322519	0.079220
C68	C	0.249923	0.414011	0.079214
C69	C	0.253767	0.483556	0.000028
C70	C	0.316078	0.461611	-0.079158
C71	C	0.374544	0.370120	-0.079153
H72	H	0.305542	0.271036	0.137843
H73	H	0.203796	0.430255	0.137834
H74	H	0.210487	0.551283	0.000024
H75	H	0.318925	0.513094	-0.137782
H76	H	0.420671	0.353875	-0.137773
C77	C	0.863792	0.257573	0.600818
C78	C	0.863839	0.257634	0.706392
C79	C	0.801758	0.326606	0.759173
C80	C	0.739629	0.395515	0.706381
C81	C	0.739579	0.395456	0.600802
C82	C	0.801661	0.326485	0.548020
H83	H	0.909833	0.206621	0.745477
H84	H	0.801795	0.326649	0.837331
H85	H	0.693673	0.446572	0.745453
H86	H	0.693586	0.446469	0.561717
H87	H	0.801624	0.326441	0.469863
H88	H	0.879902	0.239655	0.412979
