data_functionalizedCrystal
_audit_creation_method	'MofGen! by Chris Wilmer'
_symmetry_space_group_name_H-M	'P1'
_symmetry_Int_Tables_number	1
_symmetry_cell_setting	triclinic
loop_
_symmetry_equiv_pos_as_xyz
  x,y,z
_cell_length_a	11.804365
_cell_length_b	17.699083
_cell_length_c	17.699083
_cell_angle_alpha	96.716985
_cell_angle_beta	78.194645
_cell_angle_gamma	78.182163
loop_
_atom_site_label
_atom_site_type_symbol
_atom_site_fract_x
_atom_site_fract_y
_atom_site_fract_z
O1	O	0.098859	-1.019369	0.080427
O2	O	0.098899	-0.798996	0.092873
O3	O	0.098867	-0.915407	-0.023537
O4	O	0.098890	-0.902958	0.196838
O5	O	-0.099180	-0.884760	0.007078
O6	O	-0.099149	-0.768350	0.123489
O7	O	-0.099189	-0.988722	0.111043
Cu8	Cu	-0.117252	-0.875738	0.120061
Cu9	Cu	0.116962	-0.911981	0.083855
O10	O	-0.099157	-0.872312	0.227453
C11	C	-0.000120	-0.755477	0.107734
C12	C	-0.000106	-0.671461	0.106393
N13	N	-0.281986	-0.850252	0.145527
C14	C	-0.000157	-0.899637	-0.036426
C15	C	-0.000157	-0.898299	-0.120444
C16	C	-0.655974	-0.998673	-0.002782
C17	C	-0.531318	-1.017952	-0.022050
C18	C	-0.468979	-0.976029	0.019842
C19	C	-0.531308	-0.914823	0.081006
C20	C	-0.655977	-0.895546	0.100279
C21	C	-0.468982	-0.872901	0.122904
C22	C	-0.531311	-0.811696	0.184068
C23	C	-0.655968	-0.792422	0.203338
C24	C	-0.718307	-0.834345	0.161445
C25	C	-0.344313	-0.892178	0.103631
C26	C	-0.344315	-0.789051	0.206693
C27	C	-0.468972	-0.769772	0.225960
N28	N	0.281696	-0.937472	0.058384
C29	C	-0.000167	-1.032242	0.096181
C30	C	-0.000174	-1.116259	0.097521
C31	C	-0.000099	-0.622841	0.174726
C32	C	-0.000114	-0.543895	0.173466
C33	C	-0.000128	-0.513572	0.103872
C34	C	-0.000139	-0.562198	0.035535
C35	C	-0.000132	-0.641141	0.036797
C36	C	-0.000169	-0.243830	0.030444
C37	C	-0.000172	-0.164882	0.029187
C38	C	-0.000151	-0.146585	0.167113
C39	C	-0.000144	-0.225528	0.168375
C40	C	-0.000161	-0.274145	0.100040
C41	C	-0.000146	-0.359747	0.101407
C42	C	-0.000134	-0.427974	0.102502
C43	C	-0.000171	-0.966630	-0.169063
C44	C	-0.000160	-0.965369	-0.248008
C45	C	-0.000144	-0.895775	-0.278331
C46	C	-0.000126	-0.827439	-0.229707
C47	C	-0.000129	-0.828702	-0.150765
C48	C	-0.000116	-0.822346	-0.548072
C49	C	-0.000117	-0.821088	-0.627019
C50	C	-0.000147	-0.959013	-0.645315
C51	C	-0.000149	-0.960276	-0.566373
C52	C	-0.000126	-0.891941	-0.517756
C53	C	-0.000135	-0.893309	-0.432156
C54	C	-0.000143	-0.894405	-0.363929
C55	C	-0.000131	-0.888081	0.240342
C56	C	-0.000123	-0.889421	0.324359
H57	H	-0.367478	-0.991728	0.004152
O58	O	-0.283828	-0.748386	0.247505
C59	C	-0.245724	-0.709650	0.373275
C60	C	-0.314286	-0.755741	0.327150
H61	H	-0.270343	-0.715567	0.437680
H62	H	-0.145904	-0.733938	0.349058
H63	H	-0.270230	-0.645269	0.367237
H64	H	-0.289880	-0.820129	0.333169
H65	H	-0.414089	-0.731389	0.351379
H66	H	-0.706739	-1.032806	-0.036882
H67	H	-0.000137	-0.680727	-0.018847
O68	O	0.000052	-0.755939	-0.500954
C69	C	0.102702	-0.654331	-0.477002
C70	C	0.102650	-0.729526	-0.530442
H71	H	0.185655	-0.632962	-0.500814
H72	H	0.019879	-0.607209	-0.475224
H73	H	0.102642	-0.667187	-0.415367
H74	H	0.102751	-0.716745	-0.592103
H75	H	0.185465	-0.776624	-0.532153
H76	H	-0.000087	-0.647523	0.231397
O77	O	-0.839402	-0.815492	0.180241
C78	C	-1.018299	-0.731273	0.264470
C79	C	-0.881160	-0.752529	0.243257
H80	H	-1.052103	-0.680377	0.315430
H81	H	-1.052209	-0.713663	0.211699
H82	H	-1.052113	-0.784089	0.282017
H83	H	-0.847245	-0.699745	0.225725
H84	H	-0.847331	-0.770169	0.296045
H85	H	-0.480574	-1.067786	-0.071848
O86	O	-0.716332	-0.732928	0.262756
C87	C	-0.703175	-0.632709	0.362980
C88	C	-0.634667	-0.700053	0.295695
H89	H	-0.637179	-0.606121	0.389640
H90	H	-0.761518	-0.585890	0.339409
H91	H	-0.761559	-0.656302	0.409741
H92	H	-0.576219	-0.676533	0.248909
H93	H	-0.576400	-0.746860	0.319324
O94	O	0.000049	-0.759908	-0.259276
C95	C	0.102701	-0.694297	-0.353610
C96	C	0.102642	-0.770833	-0.320211
H97	H	0.185651	-0.703100	-0.402871
H98	H	0.019874	-0.677429	-0.377359
H99	H	0.102655	-0.645679	-0.305278
H100	H	0.102730	-0.819502	-0.368501
H101	H	0.185461	-0.787634	-0.296441
H102	H	-0.000117	-0.773060	-0.111180
O103	O	0.000048	-1.027932	-0.536987
C104	C	0.102599	-1.162096	-0.544364
C105	C	0.102532	-1.085518	-0.577701
H106	H	0.185436	-1.208680	-0.577277
H107	H	0.102676	-1.151318	-0.479599
H108	H	0.019674	-1.182996	-0.551570
H109	H	0.185442	-1.064577	-0.570551
H110	H	0.102392	-1.096341	-0.642453
H111	H	-0.293575	-0.942012	0.053831
O112	O	-0.529474	-0.710225	0.285291
C113	C	-0.567588	-0.572650	0.335718
C114	C	-0.499016	-0.640011	0.268466
H115	H	-0.542969	-0.515870	0.322146
H116	H	-0.667406	-0.566010	0.342293
H117	H	-0.543091	-0.586220	0.392536
H118	H	-0.523414	-0.626492	0.211609
H119	H	-0.399215	-0.646635	0.261959
O120	O	-0.000305	-0.099407	0.233573
C121	C	-0.102920	-0.043714	0.366928
C122	C	-0.102887	-0.097173	0.291724
H123	H	-0.185861	-0.041878	0.413957
H124	H	-0.020084	-0.067541	0.388428
H125	H	-0.102874	0.017904	0.354050
H126	H	-0.102975	-0.158803	0.304539
H127	H	-0.185715	-0.073282	0.270244
H128	H	-0.000174	-1.021011	-0.287591
H129	H	-0.000107	-0.504312	0.229109
H130	H	-0.000128	-0.250213	0.225045
O131	O	0.000058	-0.532740	-0.032083
C132	C	0.102611	-0.470059	-0.129393
C133	C	0.102545	-0.503406	-0.052821
H134	H	0.185450	-0.446318	-0.146175
H135	H	0.102682	-0.518352	-0.178059
H136	H	0.019689	-0.420765	-0.120602
H137	H	0.185453	-0.552688	-0.061536
H138	H	0.102413	-0.455067	-0.004182
O139	O	0.000034	-0.291051	-0.035990
C140	C	0.102586	-0.346663	-0.169374
C141	C	0.102518	-0.293178	-0.094178
H142	H	0.185423	-0.348387	-0.216444
H143	H	0.102665	-0.408323	-0.156584
H144	H	0.019661	-0.322829	-0.190778
H145	H	0.185429	-0.316941	-0.072735
H146	H	0.102378	-0.231526	-0.107012
O147	O	-0.000131	-1.034310	-0.139745
C148	C	-0.000215	-1.170976	-0.166225
C149	C	-0.000240	-1.094384	-0.199529
H150	H	-0.000329	-1.219561	-0.214540
H151	H	0.082686	-1.187894	-0.142564
H152	H	-0.083079	-1.162155	-0.116892
H153	H	0.082567	-1.103144	-0.248887
H154	H	-0.083197	-1.077490	-0.223138
H155	H	-0.000185	-0.140196	-0.027488
H156	H	-0.000160	-1.014655	-0.684909
H157	H	-0.000106	-0.764412	-0.651705
