data_functionalizedCrystal
_audit_creation_method	'MofGen! by Chris Wilmer'
_symmetry_space_group_name_H-M	'P1'
_symmetry_Int_Tables_number	1
_symmetry_cell_setting	triclinic
loop_
_symmetry_equiv_pos_as_xyz
  x,y,z
_cell_length_a	19.121102
_cell_length_b	21.295417
_cell_length_c	19.120904
_cell_angle_alpha	92.408338
_cell_angle_beta	90.088173
_cell_angle_gamma	87.584620
loop_
_atom_site_label
_atom_site_type_symbol
_atom_site_fract_x
_atom_site_fract_y
_atom_site_fract_z
Zn1	Zn	1.054814	-0.307921	-0.442032
Zn2	Zn	1.059724	-0.408895	-0.324785
Zn3	Zn	0.942584	-0.298967	-0.319816
Zn4	Zn	0.937535	-0.408472	-0.436987
O5	O	0.998664	-0.356064	-0.380905
O6	O	1.153571	-0.325239	-0.430669
O7	O	1.048352	-0.390743	-0.226021
O8	O	0.957530	-0.212069	-0.336060
O9	O	1.157177	-0.399425	-0.344528
O10	O	1.039985	-0.218647	-0.425851
O11	O	0.962291	-0.309980	-0.222371
O12	O	0.843809	-0.309569	-0.331169
O13	O	0.948925	-0.398703	-0.535761
O14	O	0.840100	-0.390022	-0.417254
O15	O	1.035089	-0.324829	-0.539467
O16	O	1.043456	-0.496925	-0.339637
O17	O	0.953685	-0.496614	-0.422072
C18	C	0.816517	-0.348778	-0.373125
C19	C	0.738593	-0.345677	-0.369814
C20	C	0.700074	-0.386166	-0.413007
C21	C	0.626856	-0.383244	-0.409899
C22	C	0.592158	-0.339836	-0.363593
C23	C	0.630682	-0.299344	-0.320398
C24	C	0.703899	-0.302263	-0.323510
C25	C	0.371187	-0.328921	-0.351961
C26	C	0.297965	-0.326006	-0.348850
C27	C	0.294144	-0.409906	-0.438353
C28	C	0.367362	-0.412824	-0.441458
C29	C	0.405880	-0.372329	-0.398265
C30	C	0.517318	-0.336850	-0.360413
C31	C	0.480719	-0.375313	-0.401449
C32	C	0.998574	-0.519610	-0.380862
C33	C	0.998599	-0.589580	-0.380870
C34	C	1.045380	-0.622590	-0.337994
C35	C	1.045413	-0.688335	-0.338011
C36	C	0.998651	-0.721065	-0.380897
C37	C	0.951865	-0.688046	-0.423781
C38	C	0.951839	-0.622304	-0.423768
N39	N	0.937094	-0.822078	-0.383622
N40	N	0.937121	-0.884530	-0.383630
C41	C	0.998728	-0.919144	-0.380940
N42	N	1.060308	-0.888946	-0.378228
N43	N	1.060281	-0.826487	-0.378215
C44	C	0.998674	-0.792352	-0.380916
C45	C	1.045548	-1.023443	-0.338080
C46	C	1.045581	-1.089189	-0.338103
C47	C	0.952028	-1.088899	-0.423869
C48	C	0.952001	-1.023154	-0.423850
C49	C	0.998760	-0.990430	-0.380953
C50	C	1.181523	-0.363378	-0.388716
C51	C	1.259446	-0.366495	-0.392044
C52	C	0.990896	-0.362718	-0.563763
C53	C	0.987586	-0.365553	-0.641686
C54	C	0.998773	-0.191880	-0.380964
C55	C	0.998820	-0.121914	-0.380989
C56	C	1.030890	-0.328425	-0.680225
C57	C	1.027771	-0.331086	-0.753441
C58	C	0.981351	-0.370880	-0.788118
C59	C	0.938043	-0.408010	-0.749573
C60	C	0.941159	-0.405345	-0.676358
C61	C	0.969696	-0.380849	-1.009084
C62	C	0.966585	-0.383513	-1.082305
C63	C	1.056312	-0.306588	-1.086168
C64	C	1.059427	-0.303929	-1.012951
C65	C	1.016116	-0.341056	-0.974413
C66	C	0.978164	-0.373603	-0.862957
C67	C	1.019300	-0.338330	-0.899575
C68	C	1.006442	-0.349392	-0.198761
C69	C	1.009889	-0.346384	-0.120844
H70	H	0.595497	-0.416215	-0.445071
H71	H	0.913793	-0.714700	-0.458700
H72	H	1.083625	-0.996798	-0.303153
C73	C	1.081311	-0.285156	-0.642707
C74	C	1.118552	-0.253197	-0.692132
C75	C	1.164999	-0.213324	-0.657599
H76	H	1.113120	-0.309348	-0.615443
H77	H	1.055741	-0.255584	-0.613024
H78	H	1.144121	-0.282765	-0.721802
H79	H	1.086762	-0.228993	-0.719398
H80	H	1.139429	-0.183752	-0.627916
H81	H	1.196803	-0.237521	-0.630336
H82	H	1.190268	-0.191631	-0.691128
H83	H	1.091573	-0.276360	-1.117553
H84	H	1.063035	-0.300854	-0.784817
C85	C	0.518476	-0.422344	-0.451767
C86	C	0.558639	-0.390079	-0.498551
C87	C	0.593445	-0.433385	-0.544906
H88	H	0.485130	-0.446064	-0.477118
H89	H	0.548200	-0.449882	-0.426122
H90	H	0.528918	-0.362552	-0.524194
H91	H	0.591997	-0.366361	-0.473220
H92	H	0.623169	-0.460923	-0.519260
H93	H	0.560094	-0.457103	-0.570251
H94	H	0.620705	-0.411500	-0.576650
H95	H	0.928782	-0.415919	-1.110536
H96	H	1.083510	-0.715218	-0.303097
C97	C	0.894059	-0.445552	-0.634477
C98	C	0.850920	-0.406586	-0.590548
C99	C	0.807513	-0.443603	-0.551967
H100	H	0.921993	-0.473020	-0.606992
H101	H	0.865930	-0.469620	-0.665594
H102	H	0.879046	-0.382529	-0.559435
H103	H	0.822971	-0.379118	-0.618015
H104	H	0.779384	-0.467670	-0.583084
H105	H	0.835453	-0.471069	-0.524487
H106	H	0.778234	-0.417170	-0.522162
C107	C	0.922632	-0.421221	-0.967374
C108	C	0.881323	-0.456647	-1.013416
C109	C	0.837958	-0.493847	-0.975015
H110	H	0.893257	-0.394937	-0.937518
H111	H	0.950615	-0.448718	-0.939955
H112	H	0.853342	-0.429153	-1.040823
H113	H	0.910679	-0.482943	-1.043272
H114	H	0.865942	-0.521345	-0.947596
H115	H	0.808588	-0.467558	-0.945161
H116	H	0.809930	-0.517893	-1.006248
C117	C	1.069720	-0.295063	-0.862057
C118	C	1.106972	-0.263105	-0.911474
C119	C	1.153420	-0.223239	-0.876931
H120	H	1.101523	-0.319261	-0.834792
H121	H	1.044150	-0.265491	-0.832374
H122	H	1.132540	-0.292673	-0.941144
H123	H	1.075187	-0.238895	-0.938741
H124	H	1.127850	-0.193667	-0.847249
H125	H	1.185218	-0.247441	-0.849667
H126	H	1.178696	-0.201546	-0.910455
H127	H	0.489059	-0.301509	-0.322710
H128	H	0.913743	-0.595426	-0.458684
C129	C	0.593105	-0.252250	-0.270014
C130	C	0.613855	-0.264032	-0.201379
C131	C	0.579261	-0.220657	-0.154945
H132	H	0.543977	-0.256268	-0.274250
H133	H	0.604704	-0.210813	-0.280832
H134	H	0.602251	-0.305458	-0.190564
H135	H	0.662978	-0.260009	-0.197120
H136	H	0.590860	-0.179220	-0.165763
H137	H	0.530134	-0.224678	-0.159188
H138	H	0.593339	-0.228641	-0.108372
H139	H	1.083681	-1.116065	-0.303189
H140	H	0.900244	-0.440409	-0.777813
H141	H	1.097229	-0.271526	-0.984722
H142	H	0.940372	-0.406006	-0.891199
C143	C	0.404902	-0.459975	-0.491806
C144	C	0.355496	-0.494799	-0.528981
C145	C	0.390052	-0.538237	-0.575371
H146	H	0.434584	-0.487583	-0.466220
H147	H	0.432168	-0.438206	-0.523653
H148	H	0.328242	-0.516566	-0.497137
H149	H	0.325812	-0.467208	-0.554581
H150	H	0.417317	-0.516468	-0.607219
H151	H	0.419733	-0.565840	-0.549780
H152	H	0.356535	-0.561866	-0.600604
C153	C	0.901290	-1.124538	-0.470359
C154	C	0.911315	-1.189179	-0.461185
C155	C	0.864583	-1.222032	-0.503998
H156	H	0.909462	-1.115931	-0.517931
H157	H	0.854611	-1.111588	-0.458041
H158	H	0.957983	-1.202124	-0.473508
H159	H	0.903137	-1.197804	-0.413622
H160	H	0.817904	-1.209082	-0.491680
H161	H	0.872759	-1.213420	-0.551568
H162	H	0.871374	-1.265893	-0.497775
C163	C	1.096232	-0.587178	-0.291406
C164	C	1.137223	-0.630166	-0.253875
C165	C	1.184083	-0.597567	-0.210961
H166	H	1.070812	-0.559380	-0.259629
H167	H	1.125645	-0.563710	-0.319536
H168	H	1.107814	-0.653625	-0.225747
H169	H	1.162658	-0.657966	-0.285634
H170	H	1.213496	-0.574098	-0.239091
H171	H	1.158657	-0.569770	-0.179189
H172	H	1.211905	-0.626730	-0.185496
H173	H	0.728320	-0.421515	-0.450712
H174	H	0.269716	-0.290651	-0.311147
C175	C	0.901122	-0.987421	-0.470418
C176	C	0.860163	-1.030152	-0.507966
C177	C	0.813279	-0.997257	-0.550867
H178	H	0.926524	-0.963918	-0.502184
H179	H	0.871691	-0.959628	-0.442277
H180	H	0.889591	-1.057933	-0.536105
H181	H	0.834747	-1.053656	-0.476218
H182	H	0.783847	-0.969465	-0.522726
H183	H	0.838686	-0.973755	-0.582629
H184	H	0.785478	-1.026245	-0.576343
H185	H	0.262775	-0.442874	-0.473519
H186	H	0.735260	-0.269289	-0.288341
C187	C	0.412877	-0.284924	-0.304985
C188	C	0.366817	-0.246298	-0.263756
C189	C	0.405199	-0.205762	-0.220467
H190	H	0.440319	-0.259592	-0.333000
H191	H	0.442709	-0.308965	-0.275563
H192	H	0.336996	-0.222259	-0.293175
H193	H	0.339374	-0.271613	-0.235727
H194	H	0.435032	-0.229803	-0.191044
H195	H	0.432640	-0.180434	-0.248486
H196	H	0.373953	-0.179554	-0.192483
