data_functionalizedCrystal
_audit_creation_method	'MofGen! by Chris Wilmer'
_symmetry_space_group_name_H-M	'P1'
_symmetry_Int_Tables_number	1
_symmetry_cell_setting	triclinic
loop_
_symmetry_equiv_pos_as_xyz
  x,y,z
_cell_length_a	12.759401
_cell_length_b	15.299447
_cell_length_c	12.759399
_cell_angle_alpha	99.702154
_cell_angle_beta	89.985798
_cell_angle_gamma	80.305808
loop_
_atom_site_label
_atom_site_type_symbol
_atom_site_fract_x
_atom_site_fract_y
_atom_site_fract_z
Zn1	Zn	1.709070	-0.510060	0.315465
Zn2	Zn	2.209070	-0.010060	0.815465
Zn3	Zn	1.678553	-0.359201	0.521579
Zn4	Zn	2.178553	0.140799	1.021579
Zn5	Zn	1.502966	-0.359218	0.345908
Zn6	Zn	2.002966	0.140782	0.845908
Zn7	Zn	1.533353	-0.510025	0.491107
Zn8	Zn	2.033353	-0.010025	0.991107
O9	O	1.605985	-0.434626	0.418515
O10	O	2.105985	0.065374	0.918515
O11	O	1.852045	-0.490055	0.342819
O12	O	2.352045	0.009945	0.842819
O13	O	1.629773	-0.232955	0.523768
O14	O	2.129773	0.267045	1.023768
O15	O	1.530360	-0.379249	0.194844
O16	O	2.030360	0.120751	0.694844
O17	O	1.829624	-0.379220	0.494249
O18	O	2.329624	0.120780	0.994249
O19	O	1.681784	-0.490072	0.172478
O20	O	2.181784	0.009928	0.672478
O21	O	1.500769	-0.232968	0.394704
O22	O	2.000769	0.267032	0.894704
O23	O	1.359974	-0.379215	0.365157
O24	O	1.859974	0.120785	0.865157
O25	O	1.582151	-0.636278	0.442315
O26	O	2.082151	-0.136278	0.942315
O27	O	1.382299	-0.490013	0.471834
O28	O	1.882299	0.009987	0.971834
O29	O	1.711250	-0.636303	0.313272
O30	O	2.211250	-0.136303	0.813272
O31	O	1.659238	-0.379187	0.664562
O32	O	2.159238	0.120813	1.164562
O33	O	1.552559	-0.489996	0.642175
O34	O	2.052559	0.010004	1.142175
C35	C	1.333015	-0.434613	0.418493
C36	C	1.833015	0.065387	0.918493
C37	C	1.216242	-0.434628	0.418505
C38	C	1.716242	0.065372	0.918505
C39	C	1.063337	-0.492436	0.339781
C40	C	1.563337	0.007564	0.839781
C41	C	1.173060	-0.492430	0.339762
C42	C	1.673060	0.007570	0.839762
C43	C	1.149696	-0.376836	0.497278
C44	C	1.649696	0.123164	0.997278
C45	C	1.039976	-0.376847	0.497301
C46	C	1.539976	0.123153	0.997301
C47	C	1.653494	-0.669941	0.370999
C48	C	2.153494	-0.169941	0.870999
C49	C	1.673739	-0.770218	0.350750
C50	C	2.173739	-0.270218	0.850750
C51	C	1.461949	-1.052829	0.562420
C52	C	1.961949	-0.552829	1.062420
C53	C	1.442918	-0.958614	0.581439
C54	C	1.942918	-0.458614	1.081439
C55	C	1.500621	-0.911510	0.523769
C56	C	2.000621	-0.411510	1.023769
C57	C	1.577360	-0.958631	0.447075
C58	C	2.077360	-0.458631	0.947075
C59	C	1.596388	-1.052856	0.428049
C60	C	2.096388	-0.552856	0.928049
C61	C	1.635060	-0.911537	0.389398
C62	C	2.135060	-0.411537	0.889398
C63	C	1.711798	-0.958658	0.312704
C64	C	2.211798	-0.458658	0.812704
C65	C	1.730823	-1.052873	0.293682
C66	C	2.230823	-0.552873	0.793682
C67	C	1.673119	-1.099977	0.351352
C68	C	2.173119	-0.599977	0.851352
C69	C	1.616032	-0.817312	0.408424
C70	C	2.116032	-0.317312	0.908424
C71	C	1.750471	-0.817339	0.274053
C72	C	2.250471	-0.317339	0.774053
C73	C	1.769502	-0.911554	0.255034
C74	C	2.269502	-0.411554	0.755034
C75	C	1.880021	-0.434640	0.418537
C76	C	2.380021	0.065360	0.918537
C77	C	1.996799	-0.434646	0.418547
C78	C	2.496799	0.065354	0.918547
C79	C	1.605917	-0.434605	0.691486
C80	C	2.105917	0.065395	1.191486
C81	C	1.605990	-0.434627	0.808259
C82	C	2.105990	0.065373	1.308259
C83	C	1.558722	-0.200227	0.465770
C84	C	2.058722	0.299773	0.965770
C85	C	1.538681	-0.099950	0.485723
C86	C	2.038681	0.400050	0.985723
C87	C	1.606087	-0.434666	0.144473
C88	C	2.106087	0.065334	0.644473
C89	C	1.606130	-0.434684	0.027693
C90	C	2.106130	0.065316	0.527693
C91	C	1.661627	-0.376994	0.874730
C92	C	2.161627	0.123006	1.374730
C93	C	1.661701	-0.377024	0.984447
C94	C	2.161701	0.122976	1.484447
C95	C	1.550491	-0.492323	0.961213
C96	C	2.050491	0.007677	1.461213
C97	C	1.550424	-0.492297	0.851497
C98	C	2.050424	0.007703	1.351497
H99	H	1.227232	-0.539489	0.275624
H100	H	1.727232	-0.039489	0.775624
H101	H	1.184864	-0.329777	0.561395
H102	H	1.684864	0.170223	1.061395
H103	H	1.414971	-1.091190	0.609363
H104	H	1.914971	-0.591190	1.109363
H105	H	0.985798	-0.329787	0.561447
H106	H	1.485798	0.170213	1.061447
H107	H	1.793302	-1.091236	0.231226
H108	H	2.293302	-0.591236	0.731226
F109	F	1.851171	-0.961714	0.173414
F110	F	2.351171	-0.461714	0.673414
H111	H	1.797455	-0.778987	0.227090
H112	H	2.297455	-0.278987	0.727090
F113	F	1.720766	-0.315618	0.828716
F114	F	2.220766	0.184382	1.328716
H115	H	1.485122	-0.834796	0.539260
H116	H	1.985122	-0.334796	1.039260
H117	H	1.553544	-0.778956	0.470862
H118	H	2.053544	-0.278956	0.970862
F119	F	1.720920	-0.315685	1.055186
F120	F	2.220920	0.184315	1.555186
F121	F	1.693376	-1.200253	0.331119
F122	F	2.193376	-0.700253	0.831119
H123	H	1.505250	-0.539274	0.996432
H124	H	2.005250	-0.039274	1.496432
H125	H	1.505119	-0.539233	0.797371
H126	H	2.005119	-0.039233	1.297371
F127	F	1.017389	-0.553952	0.255966
F128	F	1.517389	-0.053952	0.755966
F129	F	1.361247	-0.908471	0.663054
F130	F	1.861247	-0.408471	1.163054
