data_functionalizedCrystal
_audit_creation_method	'MofGen! by Chris Wilmer'
_symmetry_space_group_name_H-M	'P1'
_symmetry_Int_Tables_number	1
_symmetry_cell_setting	triclinic
loop_
_symmetry_equiv_pos_as_xyz
  x,y,z
_cell_length_a	14.853567
_cell_length_b	15.538191
_cell_length_c	13.330367
_cell_angle_alpha	89.997411
_cell_angle_beta	89.995418
_cell_angle_gamma	65.453512
loop_
_atom_site_label
_atom_site_type_symbol
_atom_site_fract_x
_atom_site_fract_y
_atom_site_fract_z
O1	O	1.155993	0.122934	-0.083347
O2	O	0.888724	0.137579	-0.083363
O3	O	1.074385	-0.006805	-0.083356
O4	O	0.970332	0.267318	-0.083353
O5	O	1.074366	-0.006808	0.083491
O6	O	0.888705	0.137575	0.083484
O7	O	1.155974	0.122931	0.083501
Cu8	Cu	1.022338	0.130253	0.098727
Cu9	Cu	1.022360	0.130257	-0.098589
O10	O	0.970313	0.267314	0.083494
C11	C	0.855344	0.136913	0.000058
C12	C	0.755913	0.134925	0.000052
C13	C	0.374309	0.040753	0.000073
C14	C	0.296691	0.212284	0.000074
C15	C	0.390111	0.214153	0.000071
C16	C	0.475634	0.129321	0.000068
C17	C	0.467738	0.042620	0.000067
C18	C	0.398015	0.300853	0.000061
C19	C	0.491439	0.302726	0.000057
C20	C	0.576964	0.217893	0.000061
C21	C	0.569064	0.131188	0.000061
C22	C	0.654587	0.046356	0.000058
C23	C	0.646689	-0.040350	0.000066
C24	C	0.553264	-0.042213	0.000071
C25	C	0.670390	0.219757	0.000056
C26	C	0.748017	0.048223	0.000052
C27	C	1.085262	-0.041888	0.000065
C28	C	1.117689	-0.146419	0.000057
C29	C	0.795529	-0.434631	0.000058
C30	C	0.826023	-0.532857	0.000063
C31	C	0.997541	-0.555076	0.000073
C32	C	0.967062	-0.456850	0.000064
C33	C	0.866055	-0.396635	0.000058
C34	C	1.037588	-0.418853	0.000063
C35	C	1.007111	-0.320636	0.000059
C36	C	0.906108	-0.260415	0.000056
C37	C	0.835578	-0.298417	0.000054
C38	C	1.138594	-0.479070	0.000076
C39	C	1.209120	-0.441073	0.000075
C40	C	1.178644	-0.342854	0.000064
C41	C	1.077641	-0.282633	0.000061
C42	C	1.249174	-0.304852	0.000066
C43	C	1.218697	-0.206634	0.000062
C44	C	1.047164	-0.184416	0.000057
C45	C	1.189354	0.123596	0.000077
C46	C	1.288785	0.125584	0.000077
C47	C	0.959436	0.302397	0.000071
C48	C	0.927009	0.406929	0.000072
N49	N	1.022329	0.130250	0.237508
N50	N	1.022379	0.130252	-0.237371
C51	C	0.940155	0.194165	0.710128
C52	C	1.104592	0.066341	0.710102
C53	C	1.104583	0.066338	0.605084
C54	C	1.022359	0.130251	0.552583
C55	C	0.940145	0.194166	0.605100
C56	C	1.186800	0.002431	0.552559
C57	C	1.186794	0.002426	0.447534
C58	C	1.104567	0.066335	0.395031
C59	C	1.022349	0.130251	0.447555
C60	C	0.940125	0.194164	0.395054
C61	C	0.857903	0.258077	0.447576
C62	C	0.857917	0.258074	0.552597
C63	C	1.104552	0.066337	0.290009
C64	C	0.940114	0.194165	0.290026
H65	H	0.546823	-0.112805	0.000101
H66	H	0.768584	-0.563788	0.000078
H67	H	1.163405	-0.559044	0.000070
H68	H	0.328377	0.369919	0.000054
H69	H	1.291360	-0.490113	0.000084
H70	H	0.367873	-0.029842	0.000084
C71	C	1.193968	-0.003098	0.766918
C72	C	1.265970	-0.059061	0.698445
C73	C	1.348321	-0.123039	0.750750
H74	H	1.174512	-0.042439	0.807896
H75	H	1.220456	0.030813	0.807861
H76	H	1.239486	-0.092970	0.657519
H77	H	1.285454	-0.019746	0.657465
H78	H	1.374809	-0.089129	0.791693
H79	H	1.328856	-0.162374	0.791726
H80	H	1.397188	-0.161012	0.704299
C81	C	0.768709	0.327362	0.390387
C82	C	0.786299	0.313666	0.287174
C83	C	0.704155	0.377464	0.234457
H84	H	0.757849	0.390267	0.407474
H85	H	0.711912	0.317011	0.407544
H86	H	0.843080	0.324025	0.270025
H87	H	0.797148	0.250774	0.270057
H88	H	0.647358	0.367112	0.251614
H89	H	0.693301	0.440365	0.251552
H90	H	0.716075	0.368174	0.164422
H91	H	0.790976	0.310110	0.595367
C92	C	0.850780	0.263442	0.767095
C93	C	0.767254	0.247980	0.741579
C94	C	0.684906	0.311771	0.794047
H95	H	0.839855	0.326348	0.749927
H96	H	0.862498	0.254283	0.837171
H97	H	0.755537	0.257148	0.671518
H98	H	0.778146	0.185088	0.758749
H99	H	0.696625	0.302612	0.864124
H100	H	0.673991	0.374672	0.776876
H101	H	0.628226	0.301283	0.776749
C102	C	1.275850	-0.067071	0.390334
C103	C	1.258194	-0.053476	0.287123
C104	C	1.340154	-0.117567	0.234398
H105	H	1.286469	-0.129885	0.407559
H106	H	1.332806	-0.056939	0.407345
H107	H	1.201255	-0.063615	0.270118
H108	H	1.247586	0.009325	0.269868
H109	H	1.397110	-0.107435	0.251409
H110	H	1.350767	-0.180377	0.251631
H111	H	1.328190	-0.108346	0.164364
C112	C	0.500062	0.396836	-0.000164
C113	C	0.551407	0.402929	-0.086021
C114	C	0.559355	0.489616	-0.086269
H115	H	0.534919	0.401236	0.057947
H116	H	0.435759	0.447113	-0.000220
H117	H	0.615699	0.352666	-0.085956
H118	H	0.516564	0.398546	-0.144146
H119	H	0.495052	0.539892	-0.086325
H120	H	0.594211	0.494008	-0.028154
H121	H	0.594185	0.493765	-0.144526
H122	H	0.817649	-0.020858	0.000053
H123	H	0.676817	0.290352	0.000051
H124	H	0.964914	-0.135385	0.000045
H125	H	0.881296	-0.180440	0.000059
H126	H	0.753328	-0.249386	0.000042
H127	H	1.253747	-0.049600	0.595308
C128	C	0.685816	-0.369402	0.000090
C129	C	0.630569	-0.423696	0.000107
C130	C	0.529505	-0.363640	0.000147
H131	H	0.670244	-0.330608	-0.058080
H132	H	0.670306	-0.330636	0.058294
H133	H	0.646073	-0.462446	-0.058091
H134	H	0.646111	-0.462488	0.058273
H135	H	0.513994	-0.324874	0.058351
H136	H	0.513942	-0.324849	-0.058024
H137	H	0.492007	-0.400470	0.000168
C138	C	1.295416	-0.165556	-0.000001
C139	C	1.390395	-0.239310	-0.000028
C140	C	1.461094	-0.201505	-0.000098
H141	H	1.287222	-0.127713	0.058163
H142	H	1.287148	-0.127732	-0.058211
H143	H	1.398660	-0.277118	0.058177
H144	H	1.398621	-0.277159	-0.058187
H145	H	1.452827	-0.163681	-0.058308
H146	H	1.452891	-0.163663	0.058067
H147	H	1.525546	-0.251541	-0.000126
H148	H	0.873155	0.246206	0.247286
H149	H	1.171499	0.014305	0.247251
H150	H	0.227054	0.281350	0.000069
H151	H	1.079781	-0.604116	0.000081
H152	H	0.716334	-0.109420	0.000056
H153	H	1.331414	-0.353893	0.000081
