data_functionalizedCrystal
_audit_creation_method	'MofGen! by Chris Wilmer'
_symmetry_space_group_name_H-M	'P1'
_symmetry_Int_Tables_number	1
_symmetry_cell_setting	triclinic
loop_
_symmetry_equiv_pos_as_xyz
  x,y,z
_cell_length_a	19.188930
_cell_length_b	10.489741
_cell_length_c	8.965430
_cell_angle_alpha	90.001157
_cell_angle_beta	89.995304
_cell_angle_gamma	96.158022
loop_
_atom_site_label
_atom_site_type_symbol
_atom_site_fract_x
_atom_site_fract_y
_atom_site_fract_z
O1	O	0.098497	-1.691851	-0.123966
O2	O	0.107743	-1.320449	-0.123991
O3	O	0.001536	-1.516868	-0.123949
O4	O	0.204704	-1.495432	-0.124008
O5	O	0.001543	-1.516851	0.124130
O6	O	0.107750	-1.320432	0.124088
O7	O	0.098504	-1.691834	0.124113
Cu8	Cu	0.103128	-1.506132	0.146752
Cu9	Cu	0.103120	-1.506151	-0.146630
O10	O	0.204711	-1.495415	0.124070
C11	C	0.107048	-1.272924	0.000046
C12	C	0.104959	-1.131341	0.000037
C13	C	-0.024476	-1.516165	0.000095
C14	C	-0.101994	-1.514081	0.000108
N15	N	0.103133	-1.506127	0.353101
C16	C	-0.146146	-1.629334	0.000123
C17	C	-0.218983	-1.627376	0.000099
C18	C	-0.247665	-1.510159	0.000090
C19	C	-0.203503	-1.394892	0.000066
C20	C	-0.130668	-1.396853	0.000075
N21	N	-0.356268	-1.420556	0.084510
N22	N	-0.425459	-1.418701	0.084504
C23	C	-0.467113	-1.504244	0.000059
N24	N	-0.436964	-1.591732	-0.084362
N25	N	-0.367767	-1.593591	-0.084350
C26	C	-0.326642	-1.508020	0.000079
C27	C	-0.590244	-1.617382	0.000046
C28	C	-0.663081	-1.615419	0.000012
C29	C	-0.647600	-1.382932	-0.000005
C30	C	-0.574764	-1.384898	0.000013
C31	C	-0.546090	-1.502126	0.000046
C32	C	0.230723	-1.496118	0.000023
C33	C	0.308242	-1.498202	0.000001
C34	C	0.099199	-1.739359	0.000073
C35	C	0.101288	-1.880941	0.000071
C36	C	0.037383	-1.064712	0.000071
C37	C	0.069302	-0.971880	-0.122251
C38	C	0.069325	-0.971897	0.122336
C39	C	0.136906	-1.040374	-0.122386
C40	C	0.136919	-1.040401	0.122310
C41	C	0.168887	-0.947595	-0.000041
N42	N	0.103109	-1.506166	-0.352979
C43	C	0.152234	-1.415262	0.450387
C44	C	0.166361	-1.530443	0.549804
C45	C	0.089012	-1.390995	0.549812
C46	C	0.117292	-1.621366	0.450329
C47	C	0.039916	-1.481842	0.450328
C48	C	0.054016	-1.597106	0.549700
H49	H	-0.254938	-1.721231	0.000105
N50	N	-0.232809	-1.275169	0.000044
N51	N	-0.297841	-1.273433	0.000037
H52	H	-0.318539	-1.188875	0.000014
H53	H	-0.018169	-1.115644	-0.000065
N54	N	0.172772	-1.078529	0.252024
N55	N	0.196308	-0.996339	0.345257
H56	H	0.221626	-1.023268	0.436878
N57	N	0.001912	-1.693607	0.604110
N58	N	-0.047044	-1.662850	0.683839
H59	H	-0.083840	-1.731005	0.722275
N60	N	-0.708174	-1.733165	0.000007
N61	N	-0.682560	-1.837817	0.000030
H62	H	-0.714407	-1.920978	0.000025
N63	N	0.233410	-1.556228	0.604659
N64	N	0.243962	-1.561303	0.742005
H65	H	0.291317	-1.579504	0.780745
N66	N	0.033437	-0.933831	0.252058
N67	N	-0.029103	-0.976360	0.273834
H68	H	-0.054455	-0.949480	0.365444
H69	H	-0.094719	-1.302998	0.000064
H70	H	-0.013519	-1.461239	0.406599
H71	H	-0.566896	-1.712836	0.000065
H72	H	-0.670952	-1.287492	-0.000019
H73	H	0.129289	-1.718768	0.406814
N74	N	0.033426	-0.933803	-0.251969
N75	N	-0.029113	-0.976327	-0.273753
H76	H	-0.054454	-0.949444	-0.365365
N77	N	-0.529650	-1.267180	0.000033
N78	N	-0.464620	-1.268946	0.000046
H79	H	-0.432756	-1.185804	0.000057
H80	H	0.165474	-1.070570	-0.225917
H81	H	0.224498	-0.896927	-0.000124
H82	H	-0.122805	-1.724790	0.000144
H83	H	0.193796	-1.338490	0.406782
H84	H	0.077080	-1.293614	0.593514
