data_functionalizedCrystal
_audit_creation_method	'MofGen! by Chris Wilmer'
_symmetry_space_group_name_H-M	'P1'
_symmetry_Int_Tables_number	1
_symmetry_cell_setting	triclinic
loop_
_symmetry_equiv_pos_as_xyz
  x,y,z
_cell_length_a	19.077236
_cell_length_b	25.639240
_cell_length_c	19.076929
_cell_angle_alpha	92.258608
_cell_angle_beta	89.889628
_cell_angle_gamma	92.325142
loop_
_atom_site_label
_atom_site_type_symbol
_atom_site_fract_x
_atom_site_fract_y
_atom_site_fract_z
Zn1	Zn	1.058239	-0.189777	-0.440496
Zn2	Zn	1.062868	-0.273570	-0.322969
Zn3	Zn	0.945460	-0.189507	-0.318276
Zn4	Zn	0.940682	-0.280541	-0.435706
O5	O	1.001812	-0.233349	-0.379362
O6	O	1.157187	-0.198088	-0.428874
O7	O	1.051230	-0.259389	-0.224017
O8	O	0.960482	-0.116377	-0.334529
O9	O	1.160588	-0.259650	-0.342528
O10	O	1.043341	-0.116575	-0.424323
O11	O	0.964971	-0.197628	-0.220569
O12	O	0.846492	-0.204388	-0.329885
O13	O	0.952339	-0.271532	-0.534671
O14	O	0.842982	-0.271270	-0.416159
O15	O	1.038708	-0.204847	-0.538190
O16	O	1.046598	-0.347661	-0.337884
O17	O	0.956828	-0.352782	-0.420710
C18	C	0.819240	-0.238556	-0.371993
C19	C	0.741134	-0.240797	-0.368858
C20	C	0.702667	-0.209853	-0.412409
C21	C	0.629278	-0.211956	-0.409457
C22	C	0.594358	-0.245006	-0.362956
C23	C	0.632830	-0.275952	-0.319400
C24	C	0.706218	-0.273846	-0.322350
C25	C	0.375063	-0.254733	-0.349305
C26	C	0.301670	-0.256838	-0.346360
C27	C	0.298123	-0.192841	-0.436416
C28	C	0.371512	-0.190741	-0.439364
C29	C	0.409978	-0.221684	-0.395806
N30	N	0.519343	-0.247158	-0.359939
N31	N	0.484992	-0.219529	-0.398820
C32	C	1.001715	-0.369193	-0.379303
C33	C	1.001737	-0.427306	-0.379303
C34	C	1.044976	-0.787735	-0.426199
C35	C	1.044996	-0.842339	-0.426215
O36	O	1.081643	-0.870634	-0.466026
N37	N	1.001907	-0.869587	-0.379433
C38	C	0.958790	-0.842228	-0.332639
O39	O	0.922141	-0.870419	-0.292850
C40	C	0.958767	-0.787626	-0.332628
C41	C	1.001864	-0.760380	-0.379407
C42	C	1.088069	-0.760490	-0.472976
C43	C	1.088049	-0.705889	-0.472959
C44	C	1.044937	-0.678534	-0.426167
C45	C	1.001844	-0.705780	-0.379391
C46	C	0.915646	-0.760268	-0.285837
C47	C	0.915626	-0.705661	-0.285831
C48	C	0.958723	-0.678416	-0.332610
C49	C	0.958713	-0.623824	-0.332583
N50	N	1.001802	-0.596576	-0.379364
C51	C	1.044914	-0.623931	-0.426156
C52	C	0.958841	-0.956898	-0.332667
C53	C	0.958868	-1.011500	-0.332674
C54	C	1.045073	-1.011607	-0.426251
C55	C	1.045050	-0.957004	-0.426240
C56	C	1.001930	-0.929650	-0.379448
C57	C	1.044870	-0.509266	-0.426118
C58	C	1.044849	-0.454661	-0.426096
C59	C	0.958642	-0.454559	-0.332522
C60	C	0.958665	-0.509159	-0.332541
C61	C	1.001782	-0.536512	-0.379345
O62	O	0.922082	-0.595495	-0.292794
O63	O	1.081550	-0.595734	-0.465945
C64	C	1.185098	-0.228121	-0.386759
C65	C	1.263203	-0.225894	-0.389912
C66	C	0.994475	-0.238997	-0.562639
C67	C	0.991348	-0.241404	-0.640741
C68	C	1.001928	-0.096975	-0.379437
C69	C	1.001978	-0.038860	-0.379469
C70	C	0.968925	-0.258709	-1.080176
C71	C	0.971861	-0.256440	-1.006791
C72	C	1.018300	-0.220589	-0.971934
C73	C	1.061801	-0.187002	-1.010466
C74	C	1.058861	-0.189269	-1.083850
C75	C	1.031910	-0.210084	-0.752657
C76	C	1.034847	-0.207821	-0.679268
C77	C	0.944906	-0.277258	-0.675598
C78	C	0.941974	-0.279524	-0.748983
C79	C	0.985472	-0.245935	-0.787509
N80	N	1.021303	-0.218270	-0.896923
N81	N	0.982465	-0.248252	-0.862518
C82	C	1.009162	-0.227684	-0.196799
C83	C	1.012425	-0.225125	-0.118703
H84	H	0.597961	-0.186759	-0.444922
H85	H	0.399939	-0.163829	-0.477232
C86	C	0.417373	-0.288773	-0.301398
C87	C	0.466595	-0.329342	-0.333765
C88	C	0.508910	-0.363384	-0.285857
C89	C	0.502003	-0.356856	-0.205582
C90	C	0.452778	-0.316285	-0.173210
C91	C	0.410463	-0.282243	-0.221118
H92	H	0.471710	-0.334176	-0.393193
H93	H	0.545350	-0.393417	-0.309821
H94	H	0.533327	-0.382055	-0.170117
H95	H	0.447663	-0.311450	-0.113782
H96	H	0.374024	-0.252210	-0.197154
C97	C	0.911263	-0.539130	-0.281079
C98	C	0.854859	-0.579200	-0.309264
C99	C	0.807450	-0.609165	-0.257805
C100	C	0.816445	-0.599060	-0.178161
C101	C	0.872851	-0.558988	-0.149972
C102	C	0.920260	-0.529023	-0.201431
H103	H	0.848199	-0.586682	-0.368224
H104	H	0.765695	-0.638829	-0.278672
H105	H	0.781350	-0.621242	-0.140068
H106	H	0.879511	-0.551507	-0.091011
H107	H	0.962015	-0.499359	-0.180563
C108	C	0.911465	-1.041466	-0.281211
C109	C	0.920458	-1.031356	-0.201568
C110	C	0.873049	-1.061319	-0.150107
C111	C	0.816647	-1.101392	-0.178288
C112	C	0.807652	-1.111503	-0.257936
C113	C	0.855061	-1.081540	-0.309397
H114	H	0.962212	-1.001690	-0.180702
H115	H	0.879708	-1.053834	-0.091146
H116	H	0.781553	-1.123572	-0.140194
H117	H	0.765898	-1.141169	-0.278801
H118	H	0.848401	-1.089025	-0.368357
C119	C	0.741075	-0.173495	-0.463559
C120	C	0.821799	-0.171176	-0.466808
C121	C	0.860205	-0.134815	-0.517957
C122	C	0.817889	-0.100773	-0.565857
C123	C	0.737161	-0.103092	-0.562611
C124	C	0.698754	-0.139453	-0.511462
H125	H	0.853128	-0.196376	-0.431347
H126	H	0.919966	-0.133099	-0.520360
H127	H	0.846320	-0.073857	-0.603721
H128	H	0.705832	-0.077891	-0.598072
H129	H	0.638994	-0.141168	-0.509059
H130	H	1.067333	-0.182736	-0.784016
H131	H	0.266796	-0.167648	-0.471878
H132	H	0.880552	-0.782442	-0.247744
C133	C	0.911218	-0.424462	-0.281054
C134	C	0.863810	-0.454425	-0.229597
C135	C	0.816382	-0.424326	-0.178132
C136	C	0.816361	-0.364265	-0.178125
C137	C	0.863770	-0.334299	-0.229584
C138	C	0.911199	-0.364397	-0.281049
H139	H	0.863824	-0.498888	-0.229600
H140	H	0.781286	-0.446509	-0.140039
H141	H	0.781251	-0.341985	-0.140028
H142	H	0.863756	-0.289835	-0.229581
H143	H	0.946294	-0.342214	-0.319142
C144	C	0.263259	-0.293195	-0.295204
C145	C	0.211579	-0.336665	-0.323517
C146	C	0.173169	-0.373022	-0.272365
C147	C	0.186439	-0.365908	-0.192900
C148	C	0.238121	-0.322436	-0.164583
C149	C	0.276531	-0.286080	-0.215735
H150	H	0.201754	-0.341933	-0.382345
H151	H	0.134910	-0.405202	-0.293327
H152	H	0.158005	-0.392821	-0.155034
H153	H	0.247946	-0.317169	-0.105754
H154	H	0.314790	-0.253899	-0.194772
H155	H	0.931113	-0.287905	-1.108551
H156	H	1.094281	-0.161920	-1.115218
C157	C	0.924001	-0.293385	-0.964425
C158	C	0.843719	-0.291702	-0.971317
C159	C	0.795850	-0.328648	-0.928958
C160	C	0.828262	-0.367278	-0.879706
C161	C	0.908548	-0.368963	-0.872812
C162	C	0.956417	-0.332016	-0.915171
H163	H	0.819722	-0.263104	-1.007778
H164	H	0.736417	-0.327401	-0.934062
H165	H	0.792827	-0.394628	-0.848349
H166	H	0.932546	-0.397560	-0.836351
H167	H	1.015850	-0.333264	-0.910067
H168	H	0.909491	-0.304604	-0.644222
H169	H	1.123141	-0.683709	-0.511053
H170	H	1.079975	-0.531531	-0.464235
C171	C	1.085929	-0.168381	-0.640921
C172	C	1.079840	-0.109417	-0.650807
C173	C	1.130919	-0.069982	-0.612457
C174	C	1.188088	-0.089510	-0.564222
C175	C	1.194180	-0.148477	-0.554333
C176	C	1.143100	-0.187913	-0.592683
H177	H	1.037518	-0.094958	-0.686516
H178	H	1.126410	-0.026330	-0.619778
H179	H	1.225900	-0.060318	-0.535833
H180	H	1.236502	-0.162936	-0.518625
H181	H	1.147610	-0.231564	-0.585362
H182	H	0.604392	-0.302859	-0.281535
H183	H	1.123176	-0.782756	-0.511084
C184	C	0.911415	-0.926811	-0.281183
C185	C	0.920423	-0.931726	-0.201545
C186	C	0.872996	-0.901643	-0.150062
C187	C	0.816562	-0.866645	-0.178218
C188	C	0.807551	-0.861729	-0.257860
C189	C	0.854978	-0.891812	-0.309343
H190	H	0.962201	-0.957635	-0.180699
H191	H	0.879667	-0.905282	-0.091106
H192	H	0.781454	-0.844375	-0.140107
H193	H	0.765773	-0.835820	-0.278706
H194	H	0.848307	-0.888173	-0.368299
C195	C	1.092255	-0.424692	-0.477559
C196	C	1.139672	-0.454787	-0.529033
C197	C	1.187075	-0.424820	-0.580496
C198	C	1.187060	-0.364759	-0.580485
C199	C	1.139641	-0.334660	-0.529010
C200	C	1.092239	-0.364627	-0.477547
H201	H	1.139685	-0.499251	-0.529042
H202	H	1.222178	-0.447101	-0.618601
H203	H	1.222151	-0.342575	-0.618581
H204	H	1.139629	-0.290196	-0.529000
H205	H	1.057136	-0.342346	-0.439441
H206	H	0.737537	-0.299044	-0.286885
H207	H	1.080143	-0.934824	-0.464332
H208	H	1.080176	-1.033890	-0.464353
C209	C	1.112887	-0.147567	-0.972126
C210	C	1.116127	-0.145074	-0.891407
C211	C	1.167217	-0.105640	-0.853070
C212	C	1.215066	-0.068698	-0.895451
C213	C	1.211827	-0.071190	-0.976174
C214	C	1.160737	-0.110624	-1.014512
H215	H	1.080705	-0.172422	-0.860030
H216	H	1.169615	-0.103796	-0.793312
H217	H	1.252886	-0.039507	-0.867071
H218	H	1.247250	-0.043842	-1.007551
H219	H	1.158340	-0.112468	-1.074269
H220	H	0.880511	-0.683393	-0.247728
H221	H	0.904159	-0.308718	-0.777358
