data_functionalizedCrystal
_audit_creation_method	'MofGen! by Chris Wilmer'
_symmetry_space_group_name_H-M	'P1'
_symmetry_Int_Tables_number	1
_symmetry_cell_setting	triclinic
loop_
_symmetry_equiv_pos_as_xyz
  x,y,z
_cell_length_a	16.959455
_cell_length_b	16.625545
_cell_length_c	16.959447
_cell_angle_alpha	89.969991
_cell_angle_beta	89.977004
_cell_angle_gamma	90.022578
loop_
_atom_site_label
_atom_site_type_symbol
_atom_site_fract_x
_atom_site_fract_y
_atom_site_fract_z
Zn1	Zn	1.208374	-0.321049	-0.447038
Zn2	Zn	1.708374	0.178951	0.052962
Zn3	Zn	1.208278	-0.455897	-0.314861
Zn4	Zn	1.708278	0.044103	0.185139
Zn5	Zn	1.076197	-0.321075	-0.314862
Zn6	Zn	1.576197	0.178925	0.185138
Zn7	Zn	1.076155	-0.455836	-0.446985
Zn8	Zn	1.576155	0.044164	0.053015
O9	O	1.142251	-0.388464	-0.380937
O10	O	1.642251	0.111536	0.119063
O11	O	1.318972	-0.338951	-0.429527
O12	O	1.818972	0.161049	0.070473
O13	O	1.190734	-0.438048	-0.204250
O14	O	1.690734	0.061952	0.295750
O15	O	1.093788	-0.208239	-0.332418
O16	O	1.593788	0.291761	0.167582
O17	O	1.318902	-0.438023	-0.332416
O18	O	1.818902	0.061977	0.167584
O19	O	1.190898	-0.208220	-0.429528
O20	O	1.690898	0.291780	0.070472
O21	O	1.093695	-0.338995	-0.204251
O22	O	1.593695	0.161005	0.295749
O23	O	0.965580	-0.338937	-0.332367
O24	O	1.465580	0.161063	0.167633
O25	O	1.093717	-0.437921	-0.557603
O26	O	1.593717	0.062079	-0.057603
O27	O	0.965549	-0.437946	-0.429437
O28	O	1.465549	0.062054	0.070563
O29	O	1.190858	-0.338893	-0.557642
O30	O	1.690858	0.161107	-0.057642
O31	O	1.190694	-0.568721	-0.332365
O32	O	1.690694	-0.068721	0.167635
O33	O	1.093623	-0.568677	-0.429436
O34	O	1.593623	-0.068677	0.070564
C35	C	0.936885	-0.388438	-0.380897
C36	C	1.436885	0.111562	0.119103
C37	C	0.849028	-0.388446	-0.380899
C38	C	1.349028	0.111554	0.119101
C39	C	0.477505	-0.440000	-0.330346
C40	C	0.977505	0.060000	0.169654
C41	C	0.477600	-0.336996	-0.431624
C42	C	0.977600	0.163004	0.068376
C43	C	0.560146	-0.336982	-0.431605
C44	C	1.060146	0.163018	0.068395
C45	C	0.601375	-0.388479	-0.380956
C46	C	1.101375	0.111521	0.119044
C47	C	0.560058	-0.439990	-0.330326
C48	C	1.060058	0.060010	0.169674
C49	C	0.601468	-0.285479	-0.482239
C50	C	1.101468	0.214521	0.017761
C51	C	0.684019	-0.285464	-0.482223
C52	C	1.184019	0.214536	0.017777
C53	C	0.725250	-0.336958	-0.431569
C54	C	1.225250	0.163042	0.068431
C55	C	0.683929	-0.388469	-0.380937
C56	C	1.183929	0.111531	0.119063
C57	C	0.725158	-0.439967	-0.330288
C58	C	1.225158	0.060033	0.169712
C59	C	0.683838	-0.491475	-0.279651
C60	C	1.183838	0.008525	0.220349
C61	C	0.601289	-0.491484	-0.279673
C62	C	1.101289	0.008516	0.220327
C63	C	0.807799	-0.336949	-0.431547
C64	C	1.307799	0.163051	0.068453
C65	C	0.807711	-0.439957	-0.330269
C66	C	1.307711	0.060043	0.169731
C67	C	1.142165	-0.597955	-0.380912
C68	C	1.642165	-0.097955	0.119088
C69	C	1.142201	-0.687576	-0.380928
C70	C	1.642201	-0.187576	0.119072
C71	C	1.142231	-0.760359	-0.380943
C72	C	1.642231	-0.260359	0.119057
C73	C	1.142277	-0.851667	-0.380961
C74	C	1.642277	-0.351667	0.119039
C75	C	1.142318	-0.924444	-0.380971
C76	C	1.642318	-0.424444	0.119029
C77	C	1.142363	-1.015758	-0.380987
C78	C	1.642363	-0.515758	0.119013
C79	C	1.348419	-0.388491	-0.380977
C80	C	1.848419	0.111509	0.119023
C81	C	1.436276	-0.388503	-0.380994
C82	C	1.936276	0.111497	0.119006
C83	C	1.142293	-0.388397	-0.587105
C84	C	1.642293	0.111603	-0.087105
C85	C	1.142311	-0.388369	-0.674962
C86	C	1.642311	0.111631	-0.174962
C87	C	1.142359	-0.178155	-0.380979
C88	C	1.642359	0.321845	0.119021
C89	C	1.142404	-0.088534	-0.380997
C90	C	1.642404	0.411466	0.119003
C91	C	1.091857	-0.336711	-1.046444
C92	C	1.591857	0.163289	-0.546444
C93	C	1.192905	-0.439856	-1.046431
C94	C	1.692905	0.060144	-0.546431
C95	C	1.192891	-0.439875	-0.963885
C96	C	1.692891	0.060125	-0.463885
C97	C	1.142359	-0.388312	-0.922615
C98	C	1.642359	0.111688	-0.422615
C99	C	1.091840	-0.336730	-0.963891
C100	C	1.591840	0.163270	-0.463891
C101	C	1.243403	-0.491462	-0.922603
C102	C	1.743403	0.008538	-0.422603
C103	C	1.243391	-0.491483	-0.840052
C104	C	1.743391	0.008517	-0.340052
C105	C	1.192862	-0.439915	-0.798780
C106	C	1.692862	0.060085	-0.298780
C107	C	1.142342	-0.388331	-0.840061
C108	C	1.642342	0.111669	-0.340061
C109	C	1.091809	-0.336768	-0.798791
C110	C	1.591809	0.163232	-0.298791
C111	C	1.041292	-0.285179	-0.840071
C112	C	1.541292	0.214821	-0.340071
C113	C	1.041311	-0.285163	-0.922619
C114	C	1.541311	0.214837	-0.422619
C115	C	1.192844	-0.439932	-0.716232
C116	C	1.692844	0.060068	-0.216232
C117	C	1.091792	-0.336787	-0.716238
C118	C	1.591792	0.163213	-0.216238
C119	C	1.142254	-0.388473	-0.175570
C120	C	1.642254	0.111527	0.324430
C121	C	1.142389	-0.388274	-0.087714
C122	C	1.642389	0.111726	0.412286
H123	H	0.567639	-0.533419	-0.238447
H124	H	1.067639	-0.033419	0.261553
H125	H	1.284524	-0.533491	-0.806449
H126	H	1.784524	-0.033491	-0.306449
H127	H	1.000182	-0.243162	-0.956236
H128	H	1.500182	0.256838	-0.456236
H129	H	1.000146	-0.243200	-0.806458
H130	H	1.500146	0.256800	-0.306458
H131	H	1.050646	-0.294794	-0.682641
H132	H	1.550646	0.205206	-0.182641
Br133	Br	1.023306	-0.266695	-1.102462
Br134	Br	1.523306	0.233305	-0.602462
H135	H	0.567894	-0.243557	-0.523480
H136	H	1.067894	0.256443	-0.023480
Br137	Br	1.261388	-0.509948	-0.660213
Br138	Br	1.761388	-0.009948	-0.160213
H139	H	0.841274	-0.481890	-0.289021
H140	H	1.341274	0.018110	0.210979
H141	H	0.717417	-0.533408	-0.238417
H142	H	1.217417	-0.033408	0.261583
H143	H	0.443858	-0.481935	-0.289116
H144	H	0.943858	0.018065	0.210884
H145	H	0.444026	-0.295073	-0.472864
H146	H	0.944026	0.204927	0.027136
H147	H	1.234040	-0.481843	-1.080038
H148	H	1.734040	0.018157	-0.580038
H149	H	0.717655	-0.243522	-0.523454
H150	H	1.217655	0.256478	-0.023454
Br151	Br	0.863873	-0.267057	-0.500269
Br152	Br	1.363873	0.232943	-0.000269
Br153	Br	1.311968	-0.561447	-0.978615
Br154	Br	1.811968	-0.061447	-0.478615
