data_functionalizedCrystal
_audit_creation_method	'MofGen! by Chris Wilmer'
_symmetry_space_group_name_H-M	'P1'
_symmetry_Int_Tables_number	1
_symmetry_cell_setting	triclinic
loop_
_symmetry_equiv_pos_as_xyz
  x,y,z
_cell_length_a	12.759401
_cell_length_b	18.050589
_cell_length_c	12.759393
_cell_angle_alpha	89.969329
_cell_angle_beta	89.980163
_cell_angle_gamma	90.029746
loop_
_atom_site_label
_atom_site_type_symbol
_atom_site_fract_x
_atom_site_fract_y
_atom_site_fract_z
Zn1	Zn	1.606156	-0.295585	-0.594027
Zn2	Zn	1.606009	-0.419795	-0.418350
Zn3	Zn	1.430458	-0.295627	-0.418362
Zn4	Zn	1.430405	-0.419741	-0.593987
O5	O	1.518257	-0.357687	-0.506182
O6	O	1.753158	-0.312067	-0.570735
O7	O	1.582683	-0.403364	-0.271331
O8	O	1.453849	-0.191697	-0.441686
O9	O	1.753050	-0.403324	-0.441666
O10	O	1.582933	-0.191666	-0.570746
O11	O	1.453706	-0.312139	-0.271339
O12	O	1.283430	-0.312086	-0.441648
O13	O	1.453759	-0.403231	-0.741014
O14	O	1.283391	-0.403272	-0.570679
O15	O	1.582882	-0.312014	-0.741043
O16	O	1.582631	-0.523713	-0.441627
O17	O	1.453616	-0.523673	-0.570667
C18	C	1.245290	-0.357678	-0.506161
C19	C	1.128513	-0.357692	-0.506177
C20	C	1.073659	-0.405245	-0.573257
C21	C	0.963935	-0.405248	-0.573278
C22	C	0.963930	-0.310143	-0.439129
C23	C	1.073652	-0.310137	-0.439114
C24	C	1.518131	-0.550639	-0.506164
C25	C	1.518172	-0.633185	-0.506192
C26	C	1.448083	-0.832641	-0.576339
C27	C	1.422469	-0.882090	-0.480470
C28	C	1.518276	-0.784315	-0.506206
C29	C	1.543941	-0.881948	-0.602085
C30	C	1.518373	-0.930300	-0.506227
C31	C	1.492611	-0.832677	-0.410286
C32	C	1.614128	-0.832531	-0.531966
C33	C	1.588551	-0.881958	-0.436031
C34	C	1.518217	-0.700217	-0.506194
C35	C	1.518432	-1.014397	-0.506228
C36	C	1.792291	-0.357697	-0.506203
C37	C	1.909067	-0.357701	-0.506212
C38	C	1.518331	-0.357612	-0.780215
C39	C	1.518362	-0.357580	-0.896992
C40	C	1.518413	-0.163981	-0.506222
C41	C	1.518480	-0.081436	-0.506239
C42	C	1.451228	-0.310070	-0.951858
C43	C	1.451253	-0.310047	-1.061582
C44	C	1.585554	-0.405046	-1.061564
C45	C	1.585523	-0.405072	-0.951842
C46	C	1.518245	-0.357708	-0.233214
C47	C	1.518417	-0.357531	-0.116438
H48	H	1.118316	-0.271409	-0.384489
N49	N	1.571151	-0.909103	-0.703784
N50	N	1.650711	-0.948645	-0.715334
H51	H	1.669923	-0.967822	-0.787160
H52	H	1.341455	-0.903875	-0.458702
N53	N	1.129716	-0.453815	-0.641750
N54	N	1.190894	-0.501105	-0.604662
H55	H	1.230485	-0.535408	-0.653037
H56	H	0.919277	-0.443969	-0.627904
N57	N	1.382626	-0.261552	-0.895845
N58	N	1.322693	-0.219134	-0.944851
H59	H	1.274240	-0.184865	-0.905296
H60	H	1.470848	-0.811124	-0.329188
N61	N	1.663084	-0.908960	-0.361575
N62	N	1.757712	-0.892111	-0.370385
H63	H	1.810350	-0.911182	-0.317799
H64	H	0.919248	-0.271426	-0.384527
H65	H	1.640235	-0.443713	-1.106237
H66	H	1.640194	-0.443764	-0.907169
H67	H	1.695124	-0.810748	-0.553780
N68	N	1.373502	-0.805480	-0.650634
N69	N	1.278644	-0.821400	-0.640895
H70	H	1.225968	-0.802217	-0.693362
H71	H	1.396584	-0.271360	-1.106249
