data_functionalizedCrystal
_audit_creation_method	'MofGen! by Chris Wilmer'
_symmetry_space_group_name_H-M	'P1'
_symmetry_Int_Tables_number	1
_symmetry_cell_setting	triclinic
loop_
_symmetry_equiv_pos_as_xyz
  x,y,z
_cell_length_a	14.908571
_cell_length_b	15.297327
_cell_length_c	14.908294
_cell_angle_alpha	102.308241
_cell_angle_beta	90.175425
_cell_angle_gamma	96.991395
loop_
_atom_site_label
_atom_site_type_symbol
_atom_site_fract_x
_atom_site_fract_y
_atom_site_fract_z
Zn1	Zn	1.259451	-0.470252	-0.663961
Zn2	Zn	1.242014	-0.612781	-0.536751
Zn3	Zn	1.120926	-0.452944	-0.502148
Zn4	Zn	1.083237	-0.611711	-0.678229
O5	O	1.176407	-0.536922	-0.595272
O6	O	1.381560	-0.496850	-0.655597
O7	O	1.234428	-0.584783	-0.405232
O8	O	1.162373	-0.329146	-0.503160
O9	O	1.368749	-0.601566	-0.562136
O10	O	1.264146	-0.341862	-0.622043
O11	O	1.145465	-0.467351	-0.379809
O12	O	0.991505	-0.466313	-0.516995
O13	O	1.098136	-0.599741	-0.803265
O14	O	0.963814	-0.582958	-0.646361
O15	O	1.227599	-0.495812	-0.792782
O16	O	1.197882	-0.738733	-0.575971
O17	O	1.081228	-0.737946	-0.679914
C18	C	0.945398	-0.522642	-0.579472
C19	C	0.846566	-0.516556	-0.572737
C20	C	0.632042	-0.626753	-0.694665
C21	C	0.539180	-0.621038	-0.688341
C22	C	0.567978	-0.499406	-0.553770
C23	C	0.660840	-0.505122	-0.560094
C24	C	0.692869	-0.568798	-0.630543
C25	C	0.785732	-0.574517	-0.636862
C26	C	0.814529	-0.452882	-0.502296
C27	C	0.721667	-0.447167	-0.495972
C28	C	1.133596	-0.771037	-0.633267
C29	C	1.115360	-0.871198	-0.649558
C30	C	1.307085	-1.155071	-0.479177
C31	C	1.324218	-1.060964	-0.463867
C32	C	1.272005	-1.013518	-0.510288
C33	C	1.202656	-1.060188	-0.572022
C34	C	1.185517	-1.154304	-0.587329
C35	C	1.150437	-1.012751	-0.618440
C36	C	1.081088	-1.059422	-0.680174
C37	C	1.063952	-1.153529	-0.695478
C38	C	1.116165	-1.200975	-0.649057
C39	C	1.167576	-0.918635	-0.603134
C40	C	1.046008	-0.917868	-0.711286
C41	C	1.028875	-1.011976	-0.726596
C42	C	1.408318	-0.551258	-0.611135
C43	C	1.507144	-0.557367	-0.617895
C44	C	1.160608	-0.549588	-0.831855
C45	C	1.153876	-0.554986	-0.932672
C46	C	1.219408	-0.301895	-0.557150
C47	C	1.237733	-0.201741	-0.540905
C48	C	1.076986	-0.616693	-1.080227
C49	C	1.083309	-0.611628	-0.985501
C50	C	1.218123	-0.503403	-0.974575
C51	C	1.211800	-0.508468	-1.069302
C52	C	1.141230	-0.565116	-1.122125
C53	C	1.134911	-0.570185	-1.216853
C54	C	1.269721	-0.461956	-1.205925
C55	C	1.276044	-0.456891	-1.111199
C56	C	1.192207	-0.524243	-0.359603
C57	C	1.199158	-0.518602	-0.258756
H58	H	0.489658	-0.668229	-0.740557
H59	H	1.275574	-0.457278	-0.931550
O60	O	0.996687	-1.198972	-0.755513
C61	C	1.033453	-1.259590	-0.826450
H62	H	1.100431	-1.276099	-0.801407
H63	H	0.984361	-1.324206	-0.846870
H64	H	1.045296	-1.227484	-0.888435
H65	H	0.658119	-0.678605	-0.752023
O66	O	1.344485	-0.401814	-1.059767
C67	C	1.308177	-0.337538	-0.992082
H68	H	1.235926	-0.364386	-0.978440
H69	H	1.351049	-0.324145	-0.925987
H70	H	1.308198	-0.272109	-1.017083
H71	H	0.541885	-0.447559	-0.496419
H72	H	1.285958	-0.936891	-0.497818
O73	O	1.066469	-0.625316	-1.268232
C74	C	1.102782	-0.689563	-1.335944
H75	H	1.173697	-0.697932	-1.313091
H76	H	1.057863	-0.756976	-1.346069
H77	H	1.106149	-0.665734	-1.403425
O78	O	1.332028	-0.411873	-1.246761
C79	C	1.311331	-0.428504	-1.341700
H80	H	1.236453	-0.454474	-1.354736
H81	H	1.327300	-0.363305	-1.367158
H82	H	1.353503	-0.481179	-1.379975
O83	O	0.961500	-1.057179	-0.786620
C84	C	0.919070	-0.995130	-0.824297
H85	H	0.967492	-0.930428	-0.819043
H86	H	0.899814	-1.025542	-0.899521
H87	H	0.855597	-0.979244	-0.784797
O88	O	1.391632	-1.015539	-0.404019
C89	C	1.455504	-0.967360	-0.450770
H90	H	1.422071	-0.955004	-0.515044
H91	H	1.481961	-0.899944	-0.403889
H92	H	1.514127	-1.008172	-0.471181
O93	O	0.816817	-0.636275	-0.705406
C94	C	0.791663	-0.620170	-0.791118
H95	H	0.778976	-0.546870	-0.782385
H96	H	0.848321	-0.634154	-0.841349
H97	H	0.727353	-0.666461	-0.818929
O98	O	0.690491	-0.385435	-0.427465
C99	C	0.631299	-0.430201	-0.373471
H100	H	0.646696	-0.502578	-0.381176
H101	H	0.640855	-0.393706	-0.298339
H102	H	0.558482	-0.430515	-0.397234
O103	O	0.873567	-0.396664	-0.439886
C104	C	0.853299	-0.409967	-0.351080
H105	H	0.814931	-0.480124	-0.356332
H106	H	0.918777	-0.403497	-0.309164
H107	H	0.809801	-0.357038	-0.315933
O108	O	1.234886	-0.873395	-0.543060
C109	C	1.217351	-0.890390	-0.455063
H110	H	1.170849	-0.956536	-0.461938
H111	H	1.283684	-0.895365	-0.419351
H112	H	1.183343	-0.833013	-0.412744
O113	O	1.008363	-0.671737	-1.131404
C114	C	0.953030	-0.716199	-1.074116
H115	H	0.961206	-0.675492	-1.000391
H116	H	0.879391	-0.722952	-1.098258
H117	H	0.973749	-0.786105	-1.077373
O118	O	1.357712	-1.201298	-0.434165
C119	C	1.327680	-1.294365	-0.460878
H120	H	1.291528	-1.309169	-0.530967
H121	H	1.388173	-1.333882	-0.465097
H122	H	1.279057	-1.315300	-0.408173
H123	H	1.102221	-1.277605	-0.661521
H124	H	1.003491	-0.879238	-0.749084
H125	H	1.030990	-0.653621	-0.951391
