data_functionalizedCrystal
_audit_creation_method	'MofGen! by Chris Wilmer'
_symmetry_space_group_name_H-M	'P1'
_symmetry_Int_Tables_number	1
_symmetry_cell_setting	triclinic
loop_
_symmetry_equiv_pos_as_xyz
  x,y,z
_cell_length_a	17.077404
_cell_length_b	16.120484
_cell_length_c	17.077396
_cell_angle_alpha	87.131254
_cell_angle_beta	90.018362
_cell_angle_gamma	92.923471
loop_
_atom_site_label
_atom_site_type_symbol
_atom_site_fract_x
_atom_site_fract_y
_atom_site_fract_z
Zn1	Zn	1.184192	-0.331952	0.459652
Zn2	Zn	1.684192	0.168048	0.959652
Zn3	Zn	1.177436	-0.471376	0.335036
Zn4	Zn	1.677436	0.028624	0.835036
Zn5	Zn	1.052923	-0.331976	0.328403
Zn6	Zn	1.552923	0.168024	0.828403
Zn7	Zn	1.046232	-0.471321	0.466259
Zn8	Zn	1.546232	0.028679	0.966259
O9	O	1.115196	-0.401656	0.397338
O10	O	1.615196	0.098344	0.897338
O11	O	1.293142	-0.350460	0.443132
O12	O	1.793142	0.149540	0.943132
O13	O	1.160892	-0.452917	0.224311
O14	O	1.660892	0.047083	0.724311
O15	O	1.075963	-0.215307	0.340273
O16	O	1.575963	0.284693	0.840273
O17	O	1.288179	-0.452894	0.351577
O18	O	1.788179	0.047106	0.851577
O19	O	1.172406	-0.215290	0.436700
O20	O	1.672406	0.284710	0.936700
O21	O	1.069413	-0.350500	0.219438
O22	O	1.569413	0.149500	0.719438
O23	O	0.942189	-0.350447	0.346680
O24	O	1.442189	0.149553	0.846680
O25	O	1.064560	-0.452800	0.575228
O26	O	1.564560	0.047200	1.075228
O27	O	0.937273	-0.452823	0.447962
O28	O	1.437273	0.047177	0.947962
O29	O	1.165918	-0.350407	0.570374
O30	O	1.665918	0.149593	1.070374
O31	O	1.154405	-0.588034	0.357984
O32	O	1.654405	-0.088034	0.857984
O33	O	1.058009	-0.587994	0.454393
O34	O	1.558009	-0.087994	0.954393
C35	C	0.911249	-0.401632	0.397319
C36	C	1.411249	0.098368	0.897319
C37	C	0.823999	-0.401642	0.397330
C38	C	1.323999	0.098358	0.897330
C39	C	0.785589	-0.348400	0.445084
C40	C	1.285589	0.151600	0.945084
C41	C	0.703608	-0.348405	0.445088
C42	C	1.203608	0.151595	0.945088
C43	C	0.660039	-0.401658	0.397342
C44	C	1.160039	0.098342	0.897342
C45	C	0.698454	-0.454903	0.349583
C46	C	1.198454	0.045097	0.849583
C47	C	0.780433	-0.454893	0.349575
C48	C	1.280433	0.045107	0.849575
C49	C	0.527583	-0.454922	0.349603
C50	C	1.027583	0.045078	0.849603
C51	C	0.445598	-0.454933	0.349611
C52	C	0.945598	0.045067	0.849611
C53	C	0.450758	-0.348434	0.445116
C54	C	0.950758	0.151566	0.945116
C55	C	0.532737	-0.348424	0.445108
C56	C	1.032737	0.151576	0.945108
C57	C	0.571147	-0.401670	0.397350
C58	C	1.071147	0.098330	0.897350
C59	C	1.104769	-0.618264	0.407642
C60	C	1.604769	-0.118264	0.907642
C61	C	1.100380	-0.710930	0.412077
C62	C	1.600380	-0.210930	0.912077
C63	C	1.092372	-0.880591	0.420190
C64	C	1.592372	-0.380591	0.920190
C65	C	1.138160	-0.921881	0.374498
C66	C	1.638160	-0.421881	0.874498
C67	C	1.133704	-1.016286	0.379012
C68	C	1.633704	-0.516286	0.879012
C69	C	1.096827	-0.786177	0.415677
C70	C	1.596827	-0.286177	0.915677
C71	C	1.319939	-0.401680	0.397357
C72	C	1.819939	0.098320	0.897357
C73	C	1.407188	-0.401691	0.397365
C74	C	1.907188	0.098309	0.897365
C75	C	1.115246	-0.401595	0.602079
C76	C	1.615246	0.098405	1.102079
C77	C	1.115268	-0.401568	0.689328
C78	C	1.615268	0.098432	1.189328
C79	C	1.125684	-0.184202	0.387010
C80	C	1.625684	0.315798	0.887010
C81	C	1.130154	-0.091537	0.382609
C82	C	1.630154	0.408463	0.882609
C83	C	1.115193	-0.401657	0.193390
C84	C	1.615193	0.098343	0.693390
C85	C	1.115335	-0.401448	0.106130
C86	C	1.615335	0.098552	0.606130
C87	C	1.168047	-0.348248	0.727791
C88	C	1.668047	0.151752	1.227791
C89	C	1.168058	-0.348220	0.809770
C90	C	1.668058	0.151780	1.309770
C91	C	1.115292	-0.401518	0.853285
C92	C	1.615292	0.098482	1.353285
C93	C	1.062507	-0.454841	0.814816
C94	C	1.562507	0.045159	1.314816
C95	C	1.062493	-0.454864	0.732838
C96	C	1.562493	0.045136	1.232838
C97	C	1.062541	-0.454791	0.985683
C98	C	1.562541	0.045209	1.485683
C99	C	1.062556	-0.454769	1.067667
C100	C	1.562556	0.045231	1.567667
C101	C	1.168106	-0.348147	1.062616
C102	C	1.668106	0.151853	1.562616
C103	C	1.168092	-0.348170	0.980638
C104	C	1.668092	0.151830	1.480638
C105	C	1.115307	-0.401494	0.942175
C106	C	1.615307	0.098506	1.442175
H107	H	0.672339	-0.305051	0.483976
H108	H	1.172339	0.194949	0.983976
H109	H	1.019542	-0.498234	0.850252
H110	H	1.519542	0.001766	1.350252
C111	C	1.005144	-0.512556	0.943882
C112	C	1.505144	-0.012556	1.443882
C113	C	0.957078	-0.465371	0.894581
C114	C	1.457078	0.034629	1.394581
C115	C	0.904192	-0.518559	0.856073
C116	C	1.404192	-0.018559	1.356073
H117	H	1.033323	-0.548911	0.913572
H118	H	1.533323	-0.048911	1.413572
H119	H	0.973682	-0.544280	0.981518
H120	H	1.473682	-0.044280	1.481518
H121	H	0.988536	-0.433661	0.856950
H122	H	1.488536	0.066339	1.356950
H123	H	0.928880	-0.429017	0.924872
H124	H	1.428880	0.070983	1.424872
H125	H	0.872730	-0.550283	0.893709
H126	H	1.372730	-0.050283	1.393709
H127	H	0.932378	-0.554912	0.825767
H128	H	1.432378	-0.054912	1.325767
H129	H	0.871568	-0.486552	0.822623
H130	H	1.371568	0.013448	1.322623
H131	H	0.558853	-0.498278	0.310711
H132	H	1.058853	0.001722	0.810711
C133	C	1.194838	-0.874591	0.317689
C134	C	1.694838	-0.374591	0.817689
C135	C	1.176814	-0.895796	0.241006
C136	C	1.676814	-0.395796	0.741006
C137	C	1.229010	-0.852255	0.188654
C138	C	1.729010	-0.352255	0.688654
H139	H	1.190381	-0.816507	0.322040
H140	H	1.690381	-0.316507	0.822040
H141	H	1.246932	-0.888771	0.329837
H142	H	1.746932	-0.388771	0.829837
H143	H	1.124733	-0.881611	0.228861
H144	H	1.624733	-0.381611	0.728861
H145	H	1.181275	-0.953873	0.236630
H146	H	1.681275	-0.453873	0.736630
H147	H	1.281104	-0.866434	0.200802
H148	H	1.781104	-0.366434	0.700802
H149	H	1.224550	-0.794173	0.193011
H150	H	1.724550	-0.294173	0.693011
H151	H	1.216793	-0.866642	0.136619
H152	H	1.716793	-0.366642	0.636619
H153	H	0.811705	-0.498248	0.310689
H154	H	1.311705	0.001752	0.810689
H155	H	0.662973	-0.498258	0.310703
H156	H	1.162973	0.001742	0.810703
H157	H	0.568210	-0.305066	0.483992
H158	H	1.068210	0.194934	0.983992
H159	H	0.410125	-0.498297	0.310733
H160	H	0.910125	0.001703	0.810733
H161	H	1.019507	-0.498275	0.701522
H162	H	1.519507	0.001725	1.201522
C163	C	1.035661	-0.928138	0.476782
C164	C	1.535661	-0.428138	0.976782
C165	C	1.042443	-1.013677	0.470037
C166	C	1.542443	-0.513677	0.970037
C167	C	0.990204	-1.057513	0.522146
C168	C	1.490204	-0.557513	1.022146
H169	H	1.047715	-0.913972	0.528905
H170	H	1.547715	-0.413972	1.028905
H171	H	0.983562	-0.914024	0.464571
H172	H	1.483562	-0.414024	0.964571
H173	H	1.094529	-1.027785	0.482254
H174	H	1.594529	-0.527785	0.982254
H175	H	1.030381	-1.027868	0.417926
H176	H	1.530381	-0.527868	0.917926
H177	H	0.938105	-1.043400	0.509935
H178	H	1.438105	-0.543400	1.009935
H179	H	1.002263	-1.043341	0.574266
H180	H	1.502263	-0.543341	1.074266
H181	H	0.994793	-1.115556	0.517572
H182	H	1.494793	-0.615556	1.017572
C183	C	0.833027	-0.290672	0.496899
C184	C	1.333027	0.209328	0.996899
C185	C	0.913042	-0.302072	0.486690
C186	C	1.413042	0.197928	0.986690
C187	C	0.956763	-0.248912	0.534416
C188	C	1.456763	0.251088	1.034416
H189	H	0.822374	-0.234609	0.482881
H190	H	1.322374	0.265391	0.982881
H191	H	0.819068	-0.302954	0.550225
H192	H	1.319068	0.197046	1.050225
H193	H	0.926997	-0.289784	0.433377
H194	H	1.426997	0.210216	0.933377
H195	H	0.923720	-0.358124	0.500714
H196	H	1.423720	0.141876	1.000714
H197	H	0.942803	-0.261194	0.587742
H198	H	1.442803	0.238806	1.087742
H199	H	0.946103	-0.192852	0.520394
H200	H	1.446103	0.307148	1.020394
H201	H	1.011057	-0.256645	0.527502
H202	H	1.511057	0.243355	1.027502
H203	H	1.211017	-0.304849	0.692367
H204	H	1.711017	0.195151	1.192367
C205	C	1.225453	-0.290300	0.851388
C206	C	1.725453	0.209700	1.351388
C207	C	1.271678	-0.243650	0.795735
C208	C	1.771678	0.256350	1.295735
C209	C	1.324568	-0.190291	0.834043
C210	C	1.824568	0.309709	1.334043
H211	H	1.197278	-0.253884	0.881636
H212	H	1.697278	0.246116	1.381636
H213	H	1.258162	-0.322171	0.884870
H214	H	1.758162	0.177829	1.384870
H215	H	1.238972	-0.211781	0.762265
H216	H	1.738972	0.288219	1.262265
H217	H	1.299869	-0.280044	0.765484
H218	H	1.799869	0.219956	1.265484
H219	H	1.357277	-0.222163	0.867526
H220	H	1.857277	0.277837	1.367526
H221	H	1.296386	-0.153881	0.864290
H222	H	1.796386	0.346119	1.364290
H223	H	1.355942	-0.158638	0.796289
H224	H	1.855942	0.341362	1.296289
H225	H	1.211062	-0.304775	0.945211
H226	H	1.711062	0.195225	1.445211
H227	H	1.211084	-0.304727	1.093937
H228	H	1.711084	0.195273	1.593937
H229	H	1.019588	-0.498167	1.103094
H230	H	1.519588	0.001833	1.603094
H231	H	0.419481	-0.305078	0.484001
H232	H	0.919481	0.194922	0.984001
