data_functionalizedCrystal
_audit_creation_method	'MofGen! by Chris Wilmer'
_symmetry_space_group_name_H-M	'P1'
_symmetry_Int_Tables_number	1
_symmetry_cell_setting	triclinic
loop_
_symmetry_equiv_pos_as_xyz
  x,y,z
_cell_length_a	12.759394
_cell_length_b	21.395364
_cell_length_c	21.395355
_cell_angle_alpha	90.024727
_cell_angle_beta	90.014577
_cell_angle_gamma	90.013170
loop_
_atom_site_label
_atom_site_type_symbol
_atom_site_fract_x
_atom_site_fract_y
_atom_site_fract_z
Zn1	Zn	-0.418435	0.957928	0.354281
Zn2	Zn	0.081565	1.457928	0.854281
Zn3	Zn	-0.594100	0.957860	0.249511
Zn4	Zn	-0.094100	1.457860	0.749511
Zn5	Zn	-0.418430	0.853143	0.249518
Zn6	Zn	0.081570	1.353143	0.749518
Zn7	Zn	-0.594067	0.853141	0.354251
Zn8	Zn	-0.094067	1.353141	0.854251
O9	O	-0.506258	0.905518	0.301890
O10	O	-0.006258	1.405518	0.801890
O11	O	-0.441753	1.045597	0.340393
O12	O	0.058247	1.545597	0.840393
O13	O	-0.570808	0.943941	0.161834
O14	O	-0.070808	1.443941	0.661834
O15	O	-0.271410	0.867073	0.263431
O16	O	0.228590	1.367073	0.763431
O17	O	-0.570813	1.045547	0.263419
O18	O	-0.070813	1.545547	0.763419
O19	O	-0.271413	0.944058	0.340400
O20	O	0.228587	1.444058	0.840400
O21	O	-0.441744	0.867006	0.161839
O22	O	0.058256	1.367006	0.661839
O23	O	-0.441713	0.765465	0.263401
O24	O	0.058287	1.265465	0.763401
O25	O	-0.570758	0.867069	0.441933
O26	O	-0.070758	1.367069	0.941933
O27	O	-0.570753	0.765464	0.340348
O28	O	-0.070753	1.265464	0.840348
O29	O	-0.441722	0.944056	0.441955
O30	O	0.058278	1.444056	0.941955
O31	O	-0.741116	0.943939	0.263390
O32	O	-0.241116	1.443939	0.763390
O33	O	-0.741093	0.867003	0.340342
O34	O	-0.241093	1.367003	0.840342
C35	C	-0.506230	0.742730	0.301872
C36	C	-0.006230	1.242730	0.801872
C37	C	-0.506243	0.673089	0.301879
C38	C	-0.006243	1.173089	0.801879
C39	C	-0.573572	0.171309	0.341918
C40	C	-0.073572	0.671309	0.841918
C41	C	-0.573572	0.236744	0.341911
C42	C	-0.073572	0.736744	0.841911
C43	C	-0.506281	0.269451	0.301910
C44	C	-0.006281	0.769451	0.801910
C45	C	-0.439003	0.236717	0.261901
C46	C	0.060997	0.736717	0.761901
C47	C	-0.439012	0.171283	0.261905
C48	C	0.060988	0.671283	0.761905
C49	C	-0.411598	0.373124	0.297055
C50	C	0.088402	0.873124	0.797055
C51	C	-0.411587	0.438557	0.297056
C52	C	0.088413	0.938557	0.797056
C53	C	-0.506253	0.471272	0.301897
C54	C	-0.006253	0.971272	0.801897
C55	C	-0.600933	0.438545	0.306749
C56	C	-0.100933	0.938545	0.806749
C57	C	-0.600942	0.373111	0.306752
C58	C	-0.100942	0.873111	0.806752
C59	C	-0.506264	0.340403	0.301902
C60	C	-0.006264	0.840403	0.801902
C61	C	-0.573532	0.574950	0.341893
C62	C	-0.073532	1.074950	0.841893
C63	C	-0.573534	0.640387	0.341882
C64	C	-0.073534	1.140387	0.841882
C65	C	-0.438956	0.640358	0.261875
C66	C	0.061044	1.140358	0.761875
C67	C	-0.438963	0.574923	0.261883
C68	C	0.061037	1.074923	0.761883
C69	C	-0.506250	0.542223	0.301895
C70	C	-0.006250	1.042223	0.801895
C71	C	-0.779225	0.905480	0.301875
C72	C	-0.279225	1.405480	0.801875
C73	C	-0.896002	0.905522	0.301890
C74	C	-0.396002	1.405522	0.801890
C75	C	-0.895973	0.985695	0.221820
C76	C	-0.395973	1.485695	0.721820
C77	C	-0.950820	1.025799	0.181792
C78	C	-0.450820	1.525799	0.681792
C79	C	-1.060541	1.025835	0.181809
C80	C	-0.560541	1.525835	0.681809
C81	C	-1.115419	0.985766	0.221859
C82	C	-0.615419	1.485766	0.721859
C83	C	-1.060573	0.945663	0.261887
C84	C	-0.560573	1.445663	0.761887
C85	C	-0.950849	0.945629	0.261864
C86	C	-0.450849	1.445629	0.761864
C87	C	-1.060601	0.865493	0.341959
C88	C	-0.560601	1.365493	0.841959
C89	C	-0.950880	0.865452	0.341940
C90	C	-0.450880	1.365452	0.841940
C91	C	-1.115479	0.825424	0.382010
C92	C	-0.615479	1.325424	0.882010
C93	C	-1.060633	0.785316	0.422035
C94	C	-0.560633	1.285316	0.922035
C95	C	-0.950904	0.785281	0.422016
C96	C	-0.450904	1.285281	0.922016
C97	C	-0.896033	0.825349	0.381968
C98	C	-0.396033	1.325349	0.881968
C99	C	-0.232225	0.905573	0.301919
C100	C	0.267775	1.405573	0.801919
C101	C	-0.115448	0.905596	0.301932
C102	C	0.384552	1.405596	0.801932
C103	C	-0.506237	0.905570	0.465314
C104	C	-0.006237	1.405570	0.965314
C105	C	-0.506228	0.905592	0.534955
C106	C	-0.006228	1.405592	1.034955
C107	C	-0.506287	1.068941	0.301909
C108	C	-0.006287	1.568941	0.801909
C109	C	-0.506299	1.138583	0.301917
C110	C	-0.006299	1.638583	0.801917
C111	C	-0.506203	0.905502	0.139103
C112	C	-0.006203	1.405502	0.639103
C113	C	-0.505916	0.905602	0.069462
C114	C	-0.005916	1.405602	0.569462
C115	C	-0.439036	0.945677	0.567681
C116	C	0.060964	1.445677	1.067681
C117	C	-0.438990	0.945676	0.633116
C118	C	0.061010	1.445676	1.133116
C119	C	-0.506156	0.905597	0.665823
C120	C	-0.006156	1.405597	1.165823
C121	C	-0.573353	0.865504	0.633090
C122	C	-0.073353	1.365504	1.133090
C123	C	-0.573389	0.865502	0.567656
C124	C	-0.073389	1.365502	1.067656
C125	C	-0.600755	0.900637	0.769493
C126	C	-0.100755	1.400637	1.269493
C127	C	-0.600721	0.900644	0.834926
C128	C	-0.100721	1.400644	1.334926
C129	C	-0.506045	0.905601	0.867644
C130	C	-0.006045	1.405601	1.367644
C131	C	-0.411400	0.910565	0.834922
C132	C	0.088600	1.410565	1.334922
C133	C	-0.411436	0.910562	0.769488
C134	C	0.088564	1.410562	1.269488
C135	C	-0.506124	0.905595	0.736776
C136	C	-0.006124	1.405595	1.236776
C137	C	-0.438798	0.945687	0.971323
C138	C	0.061202	1.445687	1.471323
C139	C	-0.438751	0.945682	1.036759
C140	C	0.061249	1.445682	1.536759
C141	C	-0.573123	0.865513	1.036732
C142	C	-0.073123	1.365513	1.536732
C143	C	-0.573161	0.865515	0.971296
C144	C	-0.073161	1.365515	1.471296
C145	C	-0.506000	0.905605	0.938596
C146	C	-0.006000	1.405605	1.438596
H147	H	-0.384178	0.548277	0.229311
H148	H	0.115822	1.048277	0.729311
H149	H	-0.384346	0.978321	0.541060
H150	H	0.115654	1.478321	1.041060
H151	H	-0.628323	0.667032	0.374454
H152	H	-0.128323	1.167032	0.874454
H153	H	-1.105323	0.752698	0.454644
H154	H	-0.605323	1.252698	0.954644
H155	H	-0.906254	0.752626	0.454614
H156	H	-0.406254	1.252626	0.954614
H157	H	-0.384029	0.978323	1.063404
H158	H	0.115971	1.478323	1.563404
H159	H	-0.806632	0.985661	0.221794
H160	H	-0.306632	1.485661	0.721794
H161	H	-0.678034	0.346468	0.310702
H162	H	-0.178034	0.846468	0.810702
H163	H	-0.806692	0.825320	0.381944
H164	H	-0.306692	1.325320	0.881944
H165	H	-0.906129	1.058424	0.149185
H166	H	-0.406129	1.558424	0.649185
H167	H	-0.384269	0.978317	0.659767
H168	H	0.115731	1.478317	1.159767
H169	H	-1.105197	1.058494	0.149218
H170	H	-0.605197	1.558494	0.649218
H171	H	-0.334373	0.914602	0.742847
H172	H	0.165627	1.414602	1.242847
H173	H	-0.628103	0.832857	0.541011
H174	H	-0.128103	1.332857	1.041011
H175	H	-0.334306	0.914602	0.861560
H176	H	0.165694	1.414602	1.361560
H177	H	-1.204760	0.985805	0.221875
H178	H	-0.704760	1.485805	0.721875
H179	H	-0.628354	0.263395	0.374487
H180	H	-0.128354	0.763395	0.874487
H181	H	-0.384106	0.978328	0.944696
H182	H	0.115894	1.478328	1.444696
H183	H	-0.628322	0.548325	0.374472
H184	H	-0.128322	1.048325	0.874472
H185	H	-0.384216	0.263351	0.229331
H186	H	0.115784	0.763351	0.729331
H187	H	-0.678019	0.465180	0.310695
H188	H	-0.178019	0.965180	0.810695
H189	H	-0.627800	0.832873	1.063361
H190	H	-0.127800	1.332873	1.563361
H191	H	-0.627882	0.832877	0.944651
H192	H	-0.127882	1.332877	1.444651
H193	H	-0.384169	0.666988	0.229303
H194	H	0.115831	1.166988	0.729303
H195	H	-0.677786	0.896606	0.861564
H196	H	-0.177786	1.396606	1.361564
H197	H	-1.204820	0.825459	0.382023
H198	H	-0.704820	1.325459	0.882023
H199	H	-0.628366	0.144688	0.374497
H200	H	-0.128366	0.644688	0.874497
H201	H	-0.677831	0.896432	0.742859
H202	H	-0.177831	1.396432	1.242859
H203	H	-0.334493	0.465198	0.293112
H204	H	0.165507	0.965198	0.793112
H205	H	-0.384228	0.144637	0.229331
H206	H	0.115772	0.644637	0.729331
H207	H	-0.334506	0.346493	0.293103
H208	H	0.165494	0.846493	0.793103
H209	H	-0.628036	0.832869	0.659724
H210	H	-0.128036	1.332869	1.159724
