data_functionalizedCrystal
_audit_creation_method	'MofGen! by Chris Wilmer'
_symmetry_space_group_name_H-M	'P1'
_symmetry_Int_Tables_number	1
_symmetry_cell_setting	triclinic
loop_
_symmetry_equiv_pos_as_xyz
  x,y,z
_cell_length_a	13.635800
_cell_length_b	7.190334
_cell_length_c	7.190339
_cell_angle_alpha	82.319600
_cell_angle_beta	119.388276
_cell_angle_gamma	119.388224
loop_
_atom_site_label
_atom_site_type_symbol
_atom_site_fract_x
_atom_site_fract_y
_atom_site_fract_z
V1	V	2.154325	0.663510	0.291701
O2	O	2.100792	0.652431	-0.017518
O3	O	2.172020	0.657480	0.581760
O4	O	2.172022	0.953571	0.285678
O5	O	2.100790	0.354291	0.280614
V6	V	2.385281	0.626707	0.254896
O7	O	2.308656	0.744243	0.372435
O8	O	2.456048	0.545974	0.174162
O9	O	2.255982	0.632737	-0.035163
O10	O	2.497512	0.637786	0.564115
O11	O	2.497514	0.935926	0.265983
O12	O	2.255980	0.336646	0.260919
V13	V	2.654325	0.663510	0.291701
O14	O	2.600792	0.652431	-0.017518
O15	O	2.672020	0.657480	0.581760
O16	O	2.672022	0.953571	0.285678
O17	O	2.600790	0.354291	0.280614
V18	V	2.885281	0.626707	0.254896
O19	O	2.808656	0.744243	0.372435
O20	O	2.956048	0.545974	0.174162
O21	O	2.755982	0.632737	-0.035163
O22	O	2.997512	0.637786	0.564115
O23	O	2.997514	0.935926	0.265983
O24	O	2.755980	0.336646	0.260919
C25	C	2.103363	1.024318	0.274825
C26	C	2.159792	1.265891	0.271761
C27	C	2.103367	0.646638	0.652521
C28	C	2.159800	0.643590	0.894096
C29	C	2.603367	0.646638	0.652521
C30	C	2.659800	0.643590	0.894096
C31	C	2.603363	1.024318	0.274825
C32	C	2.659792	1.265891	0.271761
