data_functionalizedCrystal
_audit_creation_method	'MofGen! by Chris Wilmer'
_symmetry_space_group_name_H-M	'P1'
_symmetry_Int_Tables_number	1
_symmetry_cell_setting	triclinic
loop_
_symmetry_equiv_pos_as_xyz
  x,y,z
_cell_length_a	19.121102
_cell_length_b	16.994748
_cell_length_c	19.120904
_cell_angle_alpha	87.568840
_cell_angle_beta	89.911827
_cell_angle_gamma	87.560968
loop_
_atom_site_label
_atom_site_type_symbol
_atom_site_fract_x
_atom_site_fract_y
_atom_site_fract_z
Zn1	Zn	1.054956	-0.385856	0.442168
Zn2	Zn	1.059912	-0.512387	0.324967
Zn3	Zn	0.942722	-0.374637	0.319949
Zn4	Zn	0.937723	-0.511857	0.437169
O5	O	0.998828	-0.446184	0.381063
O6	O	1.153720	-0.407558	0.430813
O7	O	1.048532	-0.489640	0.226195
O8	O	0.957628	-0.265744	0.336154
O9	O	1.157361	-0.500520	0.344706
O10	O	1.040086	-0.273987	0.425948
O11	O	0.962433	-0.388436	0.222509
O12	O	0.843952	-0.387922	0.331306
O13	O	0.949108	-0.499616	0.535938
O14	O	0.840279	-0.488737	0.417427
O15	O	1.035239	-0.407044	0.539611
O16	O	1.043685	-0.622697	0.339858
O17	O	0.953914	-0.622308	0.422292
C18	C	0.816678	-0.437055	0.373280
C19	C	0.738752	-0.433169	0.369967
C20	C	0.998804	-0.651123	0.381075
C21	C	0.998816	-0.740445	0.381066
Zn22	Zn	1.059955	-0.880474	0.324967
Zn23	Zn	1.054957	-1.017721	0.442161
Zn24	Zn	0.942770	-1.006523	0.319899
Zn25	Zn	0.937724	-0.880018	0.437123
O26	O	0.998851	-0.946184	0.381037
O27	O	1.157397	-0.903557	0.344742
O28	O	1.040096	-1.126617	0.425931
O29	O	0.962518	-0.985307	0.222467
O30	O	1.153726	-1.004392	0.430844
O31	O	1.048613	-0.892699	0.226190
O32	O	0.957672	-1.118390	0.336105
O33	O	0.843995	-0.984865	0.331220
O34	O	0.953918	-0.769697	0.422257
O35	O	0.840288	-0.891922	0.417343
O36	O	1.043721	-0.770032	0.339857
O37	O	1.035203	-1.003950	0.539597
O38	O	0.949072	-0.902780	0.535896
C39	C	0.700252	-0.483905	0.413179
C40	C	0.627032	-0.480244	0.410069
C41	C	0.592315	-0.425850	0.363744
C42	C	0.630820	-0.375108	0.320531
C43	C	0.704038	-0.378766	0.323644
C44	C	0.371338	-0.412172	0.352107
C45	C	0.298115	-0.408519	0.348995
C46	C	0.294332	-0.513654	0.438535
C47	C	0.367552	-0.517311	0.441641
C48	C	0.406051	-0.466566	0.398431
C49	C	0.517473	-0.422108	0.360563
C50	C	0.480891	-0.470305	0.401616
C51	C	1.181690	-0.455349	0.388877
C52	C	1.259615	-0.459255	0.392207
C53	C	0.991063	-0.454522	0.563924
C54	C	0.987754	-0.458075	0.641848
C55	C	0.998857	-0.240444	0.381047
C56	C	0.998872	-0.151123	0.381041
C57	C	1.006603	-0.437823	0.198916
C58	C	1.010048	-0.434055	0.120998
C59	C	1.031041	-0.411550	0.680370
C60	C	1.027923	-0.414885	0.753588
C61	C	0.981522	-0.464751	0.788282
C62	C	0.938231	-0.511278	0.749755
C63	C	0.941345	-0.507938	0.676538
C64	C	0.969871	-0.477242	1.009253
C65	C	0.966761	-0.480580	1.082475
C66	C	1.056453	-0.384186	1.086304
C67	C	1.059567	-0.380854	1.013086
C68	C	1.016273	-0.427378	0.974564
C69	C	0.978336	-0.468163	0.863123
C70	C	1.019456	-0.423961	0.899725
C71	C	0.816704	-0.937128	0.373185
C72	C	0.738780	-0.933236	0.369843
C73	C	0.991049	-0.954533	0.563184
C74	C	0.987732	-0.958128	0.641108
C75	C	1.181710	-0.955274	0.388921
C76	C	1.259634	-0.959148	0.392280
C77	C	1.006686	-0.937805	0.198180
C78	C	1.010024	-0.934234	0.120257
C79	C	0.700268	-0.883094	0.413183
C80	C	0.627050	-0.879421	0.410043
C81	C	0.592344	-0.925895	0.363565
C82	C	0.630861	-0.976040	0.320220
C83	C	0.704078	-0.979708	0.323357
C84	C	1.031061	-1.012451	0.679610
C85	C	1.027958	-1.015830	0.752829
C86	C	0.981522	-0.964890	0.787543
C87	C	0.938192	-0.910561	0.749035
C88	C	0.941298	-0.907179	0.675819
C89	C	1.298143	-0.908462	0.349029
C90	C	1.371361	-0.912086	0.352186
C91	C	1.406068	-0.966400	0.398590
C92	C	1.367553	-1.017089	0.441846
C93	C	1.294337	-1.013461	0.438693
C94	C	0.966761	-0.980773	0.081721
C95	C	0.969884	-0.977417	0.008503
C96	C	1.016274	-0.927526	-0.026177
C97	C	1.059539	-0.880982	0.012364
C98	C	1.056412	-0.884334	0.085581
H99	H	0.728514	-0.528202	0.450899
H100	H	0.906089	-0.545816	0.645173
Cl101	Cl	1.117903	-0.318163	0.969476
Cl102	Cl	0.915492	-1.035939	-0.039933
H103	H	1.262988	-1.054740	0.473912
Cl104	Cl	0.587221	-1.034462	0.261796
Cl105	Cl	0.752439	-0.314978	0.269321
Cl106	Cl	1.110874	-0.325699	1.134735
Cl107	Cl	1.419764	-0.848359	0.297800
H108	H	0.940559	-0.508767	0.891379
H109	H	1.465685	-0.969346	0.401152
H110	H	1.097309	-0.840362	-0.015883
Cl111	Cl	0.908434	-1.043497	0.125303
Cl112	Cl	1.020197	-0.923322	-0.118221
H113	H	0.928974	-0.521189	1.110721
H114	H	0.509161	-0.514590	0.439336
Cl115	Cl	0.587175	-0.306721	0.262298
H116	H	1.063244	-1.060073	0.784172
H117	H	0.900385	-0.869088	0.777311
H118	H	0.489197	-0.377821	0.322844
Cl119	Cl	0.411192	-0.585697	0.499879
Cl120	Cl	0.578635	-0.544030	0.464395
H121	H	0.979000	-0.967651	0.847161
Cl122	Cl	1.110818	-0.825835	0.134018
Cl123	Cl	1.077780	-0.361267	0.856108
Cl124	Cl	0.886817	-0.838886	0.627424
H125	H	0.532726	-0.922898	0.361015
H126	H	1.269894	-0.864229	0.311242
H127	H	0.262979	-0.554967	0.473716
Cl128	Cl	0.254471	-0.340138	0.290748
H129	H	0.402676	-0.370857	0.316916
H130	H	1.068828	-0.370946	0.652128
H131	H	1.395823	-1.061311	0.479628
H132	H	0.728515	-0.845245	0.451032
Cl133	Cl	0.578644	-0.816382	0.464543
H134	H	1.068882	-1.053929	0.651356
Cl135	Cl	1.082375	-0.356429	0.802015
Cl136	Cl	0.879894	-0.573964	0.793370
Cl137	Cl	0.915444	-0.535731	0.960836
Cl138	Cl	0.752484	-1.042750	0.268865
