data_functionalizedCrystal
_audit_creation_method	'MofGen! by Chris Wilmer'
_symmetry_space_group_name_H-M	'P1'
_symmetry_Int_Tables_number	1
_symmetry_cell_setting	triclinic
loop_
_symmetry_equiv_pos_as_xyz
  x,y,z
_cell_length_a	16.992694
_cell_length_b	14.519709
_cell_length_c	16.053789
_cell_angle_alpha	92.884833
_cell_angle_beta	92.715794
_cell_angle_gamma	87.174184
loop_
_atom_site_label
_atom_site_type_symbol
_atom_site_fract_x
_atom_site_fract_y
_atom_site_fract_z
O1	O	1.043615	0.199250	0.069328
O2	O	1.543615	0.699250	0.569328
O3	O	0.815328	0.197106	0.069353
O4	O	1.315328	0.697106	0.569353
O5	O	0.935524	0.064374	0.069332
O6	O	1.435524	0.564374	0.569332
O7	O	0.923419	0.331983	0.069349
O8	O	1.423419	0.831983	0.569349
O9	O	0.929606	0.056998	-0.069527
O10	O	1.429606	0.556998	0.430473
O11	O	0.809409	0.189730	-0.069507
O12	O	1.309409	0.689730	0.430493
O13	O	1.037697	0.191874	-0.069531
O14	O	1.537697	0.691874	0.430469
Zn15	Zn	0.922613	0.189631	-0.091566
Zn16	Zn	1.422613	0.689631	0.408434
Zn17	Zn	0.930411	0.199349	0.091387
Zn18	Zn	1.430411	0.699349	0.591387
O19	O	0.917501	0.324607	-0.069511
O20	O	1.417501	0.824607	0.430489
C21	C	0.783152	0.190658	-0.000074
C22	C	1.283152	0.690658	0.499926
C23	C	0.696097	0.182423	-0.000065
C24	C	1.196097	0.682423	0.499935
C25	C	0.645968	0.261883	-0.000061
C26	C	1.145968	0.761883	0.499939
C27	C	0.564170	0.254139	-0.000073
C28	C	1.064170	0.754139	0.499927
C29	C	0.532503	0.166934	-0.000083
C30	C	1.032503	0.666934	0.499917
C31	C	0.582638	0.087468	-0.000089
C32	C	1.082638	0.587468	0.499911
C33	C	0.664434	0.095213	-0.000083
C34	C	1.164434	0.595213	0.499917
C35	C	0.288859	0.134836	-0.000107
C36	C	0.788859	0.634836	0.499893
C37	C	0.207057	0.127097	-0.000111
C38	C	0.707057	0.627097	0.499889
C39	C	0.188594	0.293769	-0.000095
C40	C	0.688594	0.793769	0.499905
C41	C	0.270393	0.301506	-0.000084
C42	C	0.770393	0.801506	0.499916
C43	C	0.320521	0.222040	-0.000095
C44	C	0.820521	0.722040	0.499905
N45	N	0.448893	0.159017	-0.000092
N46	N	0.948893	0.659017	0.499908
N47	N	0.404129	0.229958	-0.000092
N48	N	0.904129	0.729958	0.499908
C49	C	0.932001	0.026285	-0.000097
C50	C	1.432001	0.526285	0.499903
C51	C	0.930310	-0.076217	-0.000098
C52	C	1.430310	0.423783	0.499902
C53	C	0.924087	-0.451559	-0.000075
C54	C	1.424087	0.048441	0.499925
C55	C	0.925815	-0.347127	-0.000082
C56	C	1.425815	0.152873	0.499918
C57	C	0.927198	-0.263891	-0.000087
C58	C	1.427198	0.236109	0.499913
C59	C	0.928927	-0.159453	-0.000092
C60	C	1.428927	0.340547	0.499908
C61	C	1.069872	0.198322	-0.000103
C62	C	1.569872	0.698322	0.499897
C63	C	1.156928	0.206557	-0.000106
C64	C	1.656928	0.706557	0.499894
C65	C	0.921024	0.362695	-0.000079
C66	C	1.421024	0.862695	0.499921
C67	C	0.922715	0.465198	-0.000073
C68	C	1.422715	0.965198	0.499927
N69	N	0.917297	0.182998	-0.216426
N70	N	1.417297	0.682998	0.283574
C71	C	0.963074	0.240157	-0.260118
C72	C	1.463074	0.740157	0.239882
C73	C	0.959366	0.235512	-0.347525
C74	C	1.459366	0.735512	0.152475
C75	C	0.909876	0.173713	-0.391238
C76	C	1.409876	0.673713	0.108762
C77	C	0.864098	0.116548	-0.347540
C78	C	1.364098	0.616548	0.152460
C79	C	0.867811	0.121188	-0.260135
C80	C	1.367811	0.621188	0.239865
C81	C	0.893668	0.153451	-0.652649
C82	C	1.393668	0.653451	-0.152649
C83	C	0.889957	0.148816	-0.740060
C84	C	1.389957	0.648816	-0.240060
C85	C	0.985226	0.267780	-0.740039
C86	C	1.485226	0.767780	-0.240039
C87	C	0.988931	0.272420	-0.652632
C88	C	1.488931	0.772420	-0.152632
C89	C	0.943156	0.215251	-0.608942
C90	C	1.443156	0.715251	-0.108942
N91	N	0.906083	0.168965	-0.480582
N92	N	1.406083	0.668965	0.019418
N93	N	0.946954	0.219994	-0.519599
N94	N	1.446954	0.719994	-0.019599
N95	N	0.935734	0.205975	0.216248
N96	N	1.435734	0.705975	0.716248
H97	H	0.296170	0.372518	-0.000066
H98	H	0.796170	0.872518	0.499934
H99	H	0.856395	0.106899	-0.617086
H100	H	1.356395	0.606899	-0.117086
H101	H	0.556848	0.016463	-0.000110
H102	H	1.056848	0.516463	0.499890
O103	O	1.029811	0.323263	-0.782389
O104	O	1.529811	0.823263	-0.282389
C105	C	1.110275	0.304742	-0.761041
C106	C	1.610275	0.804742	-0.261041
H107	H	1.116285	0.272589	-0.697582
H108	H	1.616285	0.772589	-0.197582
H109	H	1.136999	0.254797	-0.810236
H110	H	1.636999	0.754797	-0.310236
C111	C	1.146571	0.434903	-0.834932
C112	C	1.646571	0.934903	-0.334932
C113	C	1.153953	0.395419	-0.756987
C114	C	1.653953	0.895419	-0.256987
H115	H	1.173515	0.490835	-0.832435
H116	H	1.673515	0.990835	-0.332435
H117	H	1.092361	0.447379	-0.849318
H118	H	1.592361	0.947379	-0.349318
H119	H	1.168840	0.393273	-0.875919
H120	H	1.668840	0.893273	-0.375919
H121	H	1.131675	0.437044	-0.716004
H122	H	1.631675	0.937044	-0.216004
H123	H	1.208160	0.382951	-0.742595
H124	H	1.708160	0.882951	-0.242595
H125	H	0.823807	0.066224	-0.383138
H126	H	1.323807	0.566224	0.116862
H127	H	0.671745	0.332895	-0.000052
H128	H	1.171745	0.832895	0.499948
H129	H	0.329664	0.070128	-0.000117
H130	H	0.829664	0.570128	0.499883
H131	H	0.523358	0.318844	-0.000068
H132	H	1.023358	0.818844	0.499932
H133	H	0.147772	0.358466	-0.000088
H134	H	0.647772	0.858466	0.499912
H135	H	0.830535	0.074644	-0.224562
H136	H	1.330535	0.574644	0.275438
O137	O	0.841866	0.088696	-0.782393
O138	O	1.341866	0.588696	-0.282393
C139	C	0.802247	0.039250	-0.725086
C140	C	1.302247	0.539250	-0.225086
H141	H	0.837348	0.039588	-0.662779
H142	H	1.337348	0.539588	-0.162779
H143	H	0.741142	0.073156	-0.715788
H144	H	1.241142	0.573156	-0.215788
C145	C	0.750985	-0.061437	-0.835738
C146	C	1.250985	0.438563	-0.335738
C147	C	0.794100	-0.061028	-0.759214
C148	C	1.294100	0.438972	-0.259214
H149	H	0.745955	-0.123292	-0.856791
H150	H	1.245955	0.376708	-0.356791
H151	H	0.777674	-0.028123	-0.874348
H152	H	1.277674	0.471877	-0.374348
H153	H	0.700068	-0.033177	-0.827980
H154	H	1.200068	0.466823	-0.327980
H155	H	0.845019	-0.089277	-0.766976
H156	H	1.345019	0.410723	-0.266976
H157	H	0.767419	-0.094349	-0.720606
H158	H	1.267419	0.405651	-0.220606
H159	H	0.181277	0.056081	-0.000118
H160	H	0.681277	0.556081	0.499882
H161	H	0.705249	0.030508	-0.000086
H162	H	1.205249	0.530508	0.499914
H163	H	0.996643	0.282056	-0.383096
H164	H	1.496643	0.782056	0.116904
O165	O	1.011215	0.300215	-0.217788
O166	O	1.511215	0.800215	0.282212
C167	C	1.050809	0.349683	-0.275100
C168	C	1.550809	0.849683	0.224900
H169	H	1.052686	0.308532	-0.337408
H170	H	1.552686	0.808532	0.162592
H171	H	1.018208	0.419184	-0.284393
H172	H	1.518208	0.919184	0.215607
C173	C	1.133255	0.415967	-0.164456
C174	C	1.633255	0.915967	0.335544
C175	C	1.135567	0.365420	-0.240981
C176	C	1.635567	0.865420	0.259019
H177	H	1.185537	0.425678	-0.143409
H178	H	1.685537	0.925678	0.356591
H179	H	1.106579	0.382642	-0.125843
H180	H	1.606579	0.882642	0.374157
H181	H	1.106085	0.473879	-0.172211
H182	H	1.606085	0.973879	0.327789
H183	H	1.162728	0.307505	-0.233224
H184	H	1.662728	0.807505	0.266776
H185	H	1.162250	0.398736	-0.279592
H186	H	1.662250	0.898736	0.220408
H187	H	1.029233	0.322741	-0.617047
H188	H	1.529233	0.822741	-0.117047
