data_functionalizedCrystal
_audit_creation_method	'MofGen! by Chris Wilmer'
_symmetry_space_group_name_H-M	'P1'
_symmetry_Int_Tables_number	1
_symmetry_cell_setting	triclinic
loop_
_symmetry_equiv_pos_as_xyz
  x,y,z
_cell_length_a	14.971482
_cell_length_b	16.974813
_cell_length_c	14.048226
_cell_angle_alpha	86.339005
_cell_angle_beta	89.994098
_cell_angle_gamma	83.503742
loop_
_atom_site_label
_atom_site_type_symbol
_atom_site_fract_x
_atom_site_fract_y
_atom_site_fract_z
O1	O	1.186698	0.103029	-0.087084
O2	O	0.926267	0.115372	-0.088039
O3	O	1.063743	-0.005897	-0.078690
O4	O	1.049223	0.224297	-0.096432
O5	O	1.063726	-0.005904	0.079632
O6	O	0.926251	0.115365	0.070283
O7	O	1.186682	0.103022	0.071238
Zn8	Zn	1.056464	0.109192	0.095898
Zn9	Zn	1.056485	0.109202	-0.112698
O10	O	1.049206	0.224290	0.061890
C11	C	0.892936	0.114817	-0.008836
C12	C	0.793643	0.113164	-0.008710
C13	C	0.746991	0.112382	0.077652
C14	C	0.653696	0.110817	0.077774
C15	C	0.607054	0.110039	-0.008468
C16	C	0.653713	0.110819	-0.094837
C17	C	0.747006	0.112379	-0.094957
C18	C	0.459259	0.107570	-0.094581
C19	C	0.365958	0.106012	-0.094461
C20	C	0.365948	0.106008	0.078150
C21	C	0.459242	0.107568	0.078030
C22	C	0.505894	0.108349	-0.008339
C23	C	1.063182	-0.035359	0.002739
C24	C	1.061525	-0.123138	0.009499
C25	C	1.060758	-0.164368	-0.073626
C26	C	1.059195	-0.246844	-0.067272
C27	C	1.058406	-0.288090	0.022208
C28	C	1.059171	-0.246854	0.105339
C29	C	1.060727	-0.164378	0.098984
C30	C	1.053745	-0.534757	0.050469
C31	C	1.052191	-0.617239	0.056817
C32	C	1.052214	-0.617223	-0.115795
C33	C	1.053775	-0.534746	-0.122142
C34	C	1.054535	-0.493517	-0.039011
N35	N	1.056812	-0.372395	0.028705
N36	N	1.056123	-0.409213	-0.045509
C37	C	1.220013	0.103577	-0.007967
C38	C	1.319306	0.105229	-0.008099
C39	C	1.049767	0.253753	-0.019542
C40	C	1.051424	0.341531	-0.026308
N41	N	1.056455	0.109185	0.238259
N42	N	1.056501	0.109202	-0.255059
C43	C	1.117348	0.055510	0.292215
C44	C	1.117354	0.055509	0.391873
C45	C	1.056471	0.109189	0.437572
C46	C	0.995571	0.162867	0.383609
C47	C	0.995562	0.162863	0.283953
C48	C	0.995597	0.162872	0.591323
C49	C	0.995608	0.162878	0.690985
C50	C	1.117390	0.055519	0.699242
C51	C	1.117380	0.055515	0.599586
C52	C	1.056482	0.109194	0.545630
H53	H	0.784959	0.113021	0.147880
H54	H	1.054419	-0.501170	-0.195006
Br55	Br	0.912943	0.235721	0.518099
Br56	Br	1.200015	-0.017328	0.537561
Br57	Br	0.590384	0.109768	0.194984
Br58	Br	1.058152	-0.302797	-0.180090
H59	H	1.166975	0.011812	0.743179
H60	H	0.497240	0.108206	-0.164912
Br61	Br	0.522540	0.108635	0.195073
Br62	Br	1.199993	-0.017340	0.465102
H63	H	0.946029	0.206588	0.728188
Br64	Br	1.199987	-0.017340	0.230204
H65	H	0.945995	0.206571	0.420823
H66	H	0.784989	0.113017	-0.165283
H67	H	1.061339	-0.130808	0.166673
Br68	Br	0.590419	0.109729	-0.211879
Br69	Br	1.051130	-0.673216	0.178263
H70	H	0.945975	0.206570	0.240023
H71	H	0.327985	0.105379	-0.164687
Br72	Br	0.302636	0.104951	0.195366
H73	H	1.061405	-0.130792	-0.146491
Br74	Br	1.051183	-0.673182	-0.228609
H75	H	1.054382	-0.501199	0.118160
Br76	Br	1.058086	-0.302828	0.226778
