data_functionalizedCrystal
_audit_creation_method	'MofGen! by Chris Wilmer'
_symmetry_space_group_name_H-M	'P1'
_symmetry_Int_Tables_number	1
_symmetry_cell_setting	triclinic
loop_
_symmetry_equiv_pos_as_xyz
  x,y,z
_cell_length_a	16.109318
_cell_length_b	16.109301
_cell_length_c	14.586319
_cell_angle_alpha	89.994786
_cell_angle_beta	90.000075
_cell_angle_gamma	83.465022
loop_
_atom_site_label
_atom_site_type_symbol
_atom_site_fract_x
_atom_site_fract_y
_atom_site_fract_z
O1	O	1.103122	0.106935	-0.076167
O2	O	1.436455	0.440268	0.257166
O3	O	1.769788	0.773601	0.590500
O4	O	0.861062	0.120219	-0.076186
O5	O	1.194395	0.453552	0.257147
O6	O	1.527728	0.786886	0.590481
O7	O	0.988741	-0.007454	-0.076167
O8	O	1.322075	0.325880	0.257167
O9	O	1.655408	0.659213	0.590500
O10	O	0.975442	0.234607	-0.076186
O11	O	1.308776	0.567941	0.257147
O12	O	1.642109	0.901274	0.590480
O13	O	0.988733	-0.007456	0.076314
O14	O	1.322066	0.325878	0.409648
O15	O	1.655399	0.659211	0.742981
O16	O	0.861053	0.120217	0.076295
O17	O	1.194386	0.453550	0.409628
O18	O	1.527720	0.786884	0.742962
O19	O	1.103113	0.106933	0.076314
O20	O	1.436446	0.440266	0.409647
O21	O	1.769780	0.773599	0.742980
Cu22	Cu	0.982082	0.113575	0.090227
Cu23	Cu	1.315415	0.446908	0.423560
Cu24	Cu	1.648749	0.780241	0.756894
Cu25	Cu	0.982093	0.113577	-0.090099
Cu26	Cu	1.315426	0.446910	0.243234
Cu27	Cu	1.648759	0.780244	0.576567
O28	O	0.975433	0.234606	0.076294
O29	O	1.308767	0.567939	0.409628
O30	O	1.642100	0.901272	0.742961
C31	C	0.830083	0.119677	0.000052
C32	C	1.163416	0.453011	0.333385
C33	C	1.496749	0.786344	0.666719
C34	C	0.737788	0.118057	0.000045
C35	C	1.071122	0.451390	0.333379
C36	C	1.404455	0.784723	0.666712
C37	C	0.438719	0.112823	-0.083055
C38	C	0.772053	0.446156	0.250278
C39	C	1.105386	0.779489	0.583611
C40	C	0.525441	0.114340	-0.083061
C41	C	0.858774	0.447673	0.250272
C42	C	1.192107	0.781007	0.583605
C43	C	0.525450	0.114327	0.083182
C44	C	0.858783	0.447660	0.416515
C45	C	1.192116	0.780993	0.749848
C46	C	0.438731	0.112803	0.083187
C47	C	0.772064	0.446137	0.416520
C48	C	1.105397	0.779470	0.749853
C49	C	0.395367	0.112056	0.000065
C50	C	0.728701	0.445389	0.333399
C51	C	1.062034	0.778722	0.666732
C52	C	0.568807	0.115096	0.000055
C53	C	0.902141	0.448430	0.333388
C54	C	1.235474	0.781763	0.666721
C55	C	0.662835	0.116742	0.000049
C56	C	0.996168	0.450075	0.333382
C57	C	1.329501	0.783408	0.666716
C58	C	0.301334	0.110409	0.000070
C59	C	0.634668	0.443742	0.333404
C60	C	0.968001	0.777075	0.666737
C61	C	0.988198	-0.038430	0.000074
C62	C	1.321532	0.294904	0.333408
C63	C	1.654865	0.628237	0.666741
C64	C	0.986583	-0.130725	0.000075
C65	C	1.319916	0.202608	0.333409
C66	C	1.653250	0.535942	0.666742
C67	C	1.058590	-0.352993	0.000067
C68	C	1.391924	-0.019660	0.333400
C69	C	1.725257	0.313674	0.666733
C70	C	1.057066	-0.439713	0.000059
C71	C	1.390400	-0.106380	0.333392
C72	C	1.723733	0.226953	0.666726
C73	C	0.905579	-0.419848	0.000051
C74	C	1.238912	-0.086515	0.333384
C75	C	1.572245	0.246818	0.666717
C76	C	0.907104	-0.333130	0.000052
C77	C	1.240437	0.000204	0.333385
C78	C	1.573770	0.333537	0.666718
C79	C	0.983612	-0.299704	0.000064
C80	C	1.316945	0.033629	0.333398
C81	C	1.650279	0.366962	0.666731
C82	C	0.980563	-0.473144	0.000056
C83	C	1.313896	-0.139810	0.333389
C84	C	1.647230	0.193523	0.666722
C85	C	0.978910	-0.567170	0.000047
C86	C	1.312243	-0.233837	0.333381
C87	C	1.645577	0.099497	0.666714
C88	C	0.985265	-0.205672	0.000071
C89	C	1.318599	0.127661	0.333404
C90	C	1.651932	0.460994	0.666738
C91	C	1.134092	0.107474	0.000074
C92	C	1.467425	0.440808	0.333407
C93	C	1.800759	0.774141	0.666740
C94	C	1.226387	0.109095	0.000075
C95	C	1.559720	0.442429	0.333408
C96	C	1.893053	0.775762	0.666741
C97	C	0.975976	0.265581	0.000052
C98	C	1.309310	0.598915	0.333385
C99	C	1.642643	0.932248	0.666718
C100	C	0.977592	0.357877	0.000044
C101	C	1.310925	0.691210	0.333378
C102	C	1.644258	1.024543	0.666711
N103	N	0.982081	0.113573	0.217059
N104	N	1.315414	0.446906	0.550392
N105	N	1.648747	0.780239	0.883725
N106	N	0.982100	0.113573	-0.216931
N107	N	1.315434	0.446906	0.116402
N108	N	1.648767	0.780239	0.449736
C109	C	1.038636	0.057058	0.452074
C110	C	1.371969	0.390391	0.785407
C111	C	1.705303	0.723725	1.118740
C112	C	1.038638	0.057056	0.548055
C113	C	1.371972	0.390389	0.881388
C114	C	1.705305	0.723723	1.214722
C115	C	0.925539	0.170090	0.548047
C116	C	1.258873	0.503423	0.881381
C117	C	1.592206	0.836756	1.214714
C118	C	0.925534	0.170087	0.452068
C119	C	1.258867	0.503420	0.785401
C120	C	1.592200	0.836754	1.118735
C121	C	0.982087	0.113572	0.404084
C122	C	1.315420	0.446906	0.737417
C123	C	1.648753	0.780239	1.070750
C124	C	0.982095	0.113573	0.596044
C125	C	1.315428	0.446906	0.929378
C126	C	1.648761	0.780240	1.262711
C127	C	0.982097	0.113571	0.700111
C128	C	1.315430	0.446904	1.033445
C129	C	1.648764	0.780238	1.366778
C130	C	0.982084	0.113573	0.300010
C131	C	1.315417	0.446906	0.633343
C132	C	1.648750	0.780239	0.966676
H133	H	0.560734	0.114964	-0.150746
H134	H	0.894067	0.448297	0.182587
H135	H	1.227401	0.781630	0.515920
H136	H	1.084685	0.011036	0.587126
H137	H	1.418018	0.344370	0.920459
H138	H	1.751352	0.677703	1.253793
Cl139	Cl	0.579968	0.115276	0.187671
Cl140	Cl	0.913302	0.448609	0.521004
Cl141	Cl	1.246635	0.781942	0.854338
Cl142	Cl	0.854433	0.241135	0.391731
Cl143	Cl	1.187767	0.574468	0.725065
Cl144	Cl	1.521100	0.907802	1.058398
Cl145	Cl	0.384209	0.111878	-0.187550
Cl146	Cl	0.717542	0.445211	0.145783
Cl147	Cl	1.050875	0.778545	0.479116
H148	H	0.403433	0.112178	0.150877
H149	H	0.736766	0.445511	0.484211
H150	H	1.070099	0.778844	0.817544
Cl151	Cl	0.854450	0.241137	0.608375
Cl152	Cl	1.187784	0.574470	0.941708
Cl153	Cl	1.521117	0.907804	1.275041
H154	H	0.846043	-0.289740	0.000047
H155	H	1.179377	0.043594	0.333380
H156	H	1.512710	0.376927	0.666714
H157	H	1.120888	-0.325781	0.000075
H158	H	1.454221	0.007552	0.333408
H159	H	1.787555	0.340885	0.666742
Cl160	Cl	1.151329	-0.506702	0.000060
Cl161	Cl	1.484663	-0.173368	0.333393
Cl162	Cl	1.817996	0.159965	0.666726
H163	H	0.843288	-0.447074	0.000042
H164	H	1.176622	-0.113741	0.333375
H165	H	1.509955	0.219592	0.666709
Cl166	Cl	1.109728	-0.013992	0.391755
Cl167	Cl	1.443061	0.319341	0.725088
Cl168	Cl	1.776395	0.652674	1.058421
