data_functionalizedCrystal
_audit_creation_method	'MofGen! by Chris Wilmer'
_symmetry_space_group_name_H-M	'P1'
_symmetry_Int_Tables_number	1
_symmetry_cell_setting	triclinic
loop_
_symmetry_equiv_pos_as_xyz
  x,y,z
_cell_length_a	14.044191
_cell_length_b	14.044190
_cell_length_c	7.681481
_cell_angle_alpha	83.728840
_cell_angle_beta	96.250963
_cell_angle_gamma	93.191777
loop_
_atom_site_label
_atom_site_type_symbol
_atom_site_fract_x
_atom_site_fract_y
_atom_site_fract_z
O1	O	1.268918	0.238473	-0.146383
O2	O	1.768918	0.738473	0.353617
O3	O	0.992245	0.230162	-0.146404
O4	O	1.492245	0.730162	0.353596
O5	O	1.126427	0.095979	-0.146359
O6	O	1.626427	0.595979	0.353641
O7	O	1.134736	0.372656	-0.146428
O8	O	1.634736	0.872656	0.353572
O9	O	1.142939	0.079423	0.146504
O10	O	1.642939	0.579423	0.646504
O11	O	1.008757	0.213605	0.146459
O12	O	1.508757	0.713605	0.646459
O13	O	1.285431	0.221917	0.146480
O14	O	1.785431	0.721917	0.646480
Zn15	Zn	1.149715	0.215132	0.192968
Zn16	Zn	1.649715	0.715132	0.692968
Zn17	Zn	1.127960	0.236946	-0.192892
Zn18	Zn	1.627960	0.736946	0.307108
O19	O	1.151248	0.356099	0.146435
O20	O	1.651248	0.856099	0.646435
C21	C	0.964879	0.218247	0.000026
C22	C	1.464879	0.718247	0.500026
C23	C	0.858735	0.207400	0.000019
C24	C	1.358735	0.707400	0.500019
C25	C	0.613278	0.264501	0.000022
C26	C	1.113278	0.764501	0.500022
C27	C	0.664402	0.187583	0.000039
C28	C	1.164402	0.687583	0.500039
C29	C	0.772539	0.198612	0.000028
C30	C	1.272539	0.698612	0.500028
C31	C	0.505132	0.253473	0.000033
C32	C	1.005132	0.753473	0.500033
C33	C	1.131047	0.052079	0.000077
C34	C	1.631047	0.552079	0.500077
C35	C	1.120200	-0.054065	0.000092
C36	C	1.620200	0.445935	0.500092
C37	C	1.177297	-0.299519	0.000027
C38	C	1.677297	0.200481	0.500027
C39	C	1.100381	-0.248396	0.000034
C40	C	1.600381	0.251604	0.500034
C41	C	1.111411	-0.140260	0.000066
C42	C	1.611411	0.359740	0.500066
C43	C	1.166269	-0.407664	-0.000005
C44	C	1.666269	0.092336	0.499995
C45	C	1.312796	0.233832	0.000047
C46	C	1.812796	0.733832	0.500047
C47	C	1.418940	0.244679	0.000042
C48	C	1.918940	0.744679	0.500042
C49	C	1.146628	0.400000	-0.000005
C50	C	1.646628	0.900000	0.499995
C51	C	1.157474	0.506145	-0.000031
C52	C	1.657474	1.006145	0.499969
N53	N	1.164570	0.200245	0.456307
N54	N	1.664570	0.700245	0.956307
N55	N	1.113112	0.251827	-0.456231
N56	N	1.613112	0.751827	0.043769
H57	H	0.650720	0.338629	-0.000001
H58	H	1.150720	0.838629	0.499999
H59	H	1.251426	-0.262077	0.000051
H60	H	1.751426	0.237923	0.500051
O61	O	1.050551	0.314770	0.454130
O62	O	1.550551	0.814770	0.954130
C63	C	1.076690	0.408055	0.499060
C64	C	1.576690	0.908055	0.999060
H65	H	1.156014	0.412079	0.549836
H66	H	1.656014	0.912079	1.049836
H67	H	1.063030	0.461850	0.377727
H68	H	1.563030	0.961850	0.877727
H69	H	1.032166	0.425671	0.605943
H70	H	1.532166	0.925671	1.105943
O71	O	0.619583	0.099215	-0.000035
O72	O	1.119583	0.599215	0.499965
C73	C	0.520027	0.107728	0.000007
C74	C	1.020027	0.607728	0.500007
H75	H	0.499941	0.183429	-0.055433
H76	H	0.999941	0.683429	0.444567
H77	H	0.479806	0.053791	-0.085025
H78	H	0.979806	0.553791	0.414975
H79	H	0.499830	0.092848	0.140507
H80	H	0.999830	0.592848	0.640507
O81	O	1.012012	-0.293215	0.000098
O82	O	1.512012	0.206785	0.500098
C83	C	1.020524	-0.392769	0.000027
C84	C	1.520524	0.107231	0.500027
H85	H	1.096212	-0.412871	0.055464
H86	H	1.596212	0.087129	0.555464
H87	H	0.966567	-0.433014	0.085046
H88	H	1.466567	0.066986	0.585046
H89	H	1.005673	-0.412924	-0.140482
H90	H	1.505673	0.087076	0.359518
O91	O	1.227181	0.137309	0.545843
O92	O	1.727181	0.637309	1.045843
C93	C	1.201008	0.044017	0.500984
C94	C	1.701008	0.544017	1.000984
H95	H	1.156718	0.048559	0.367091
H96	H	1.656718	0.548559	0.867091
H97	H	1.268389	0.003353	0.494858
H98	H	1.768389	0.503353	0.994858
H99	H	1.156756	0.004701	0.604728
H100	H	1.656756	0.504701	1.104728
