data_functionalizedCrystal
_audit_creation_method	'MofGen! by Chris Wilmer'
_symmetry_space_group_name_H-M	'P1'
_symmetry_Int_Tables_number	1
_symmetry_cell_setting	triclinic
loop_
_symmetry_equiv_pos_as_xyz
  x,y,z
_cell_length_a	8.559649
_cell_length_b	17.666332
_cell_length_c	8.559649
_cell_angle_alpha	89.996945
_cell_angle_beta	110.221336
_cell_angle_gamma	90.005544
loop_
_atom_site_label
_atom_site_type_symbol
_atom_site_fract_x
_atom_site_fract_y
_atom_site_fract_z
O1	O	2.126885	0.062936	0.055036
O2	O	1.651400	0.062939	-0.028745
O3	O	1.931033	0.062937	0.250888
O4	O	1.847252	0.062939	-0.224597
O5	O	1.931006	-0.062960	0.250891
O6	O	1.651373	-0.062957	-0.028742
O7	O	2.126858	-0.062960	0.055039
Cu8	Cu	1.889113	-0.074454	0.013149
Cu9	Cu	1.889145	0.074433	0.013145
O10	O	1.847225	-0.062958	-0.224594
C11	C	1.591077	-0.000009	-0.035093
C12	C	1.411378	-0.000007	-0.053992
N13	N	1.889102	-0.179174	0.013153
C14	C	2.012990	-0.781225	0.136947
C15	C	2.012993	-0.701977	0.136943
C16	C	1.889148	-0.662355	0.013160
C17	C	1.765317	-0.701987	-0.110653
C18	C	1.765327	-0.781233	-0.110656
N19	N	1.743065	-0.537942	-0.025041
N20	N	1.743061	-0.462661	-0.025028
C21	C	1.889110	-0.423591	0.013159
N22	N	2.035173	-0.462645	0.051365
N23	N	2.035176	-0.537933	0.051360
C24	C	1.889123	-0.576426	0.013149
C25	C	2.012943	-0.298039	0.136954
C26	C	2.012946	-0.218790	0.136939
C27	C	1.765257	-0.218802	-0.110651
C28	C	1.765267	-0.298049	-0.110643
C29	C	1.889109	-0.337663	0.013168
C30	C	2.187180	-0.000011	0.061387
C31	C	2.366879	-0.000007	0.080286
C32	C	1.937369	-0.000010	0.311198
C33	C	1.956268	-0.000006	0.490898
N34	N	1.889170	0.179153	0.013155
C35	C	1.840889	-0.000009	-0.284904
C36	C	1.821990	-0.000008	-0.464604
H37	H	2.113826	-0.669711	0.237753
H38	H	2.113833	-0.813476	0.237757
H39	H	1.466258	-0.000004	0.209705
H40	H	2.085696	-0.000013	0.590286
H41	H	1.311990	-0.000003	-0.183420
H42	H	1.692570	-0.000010	0.436018
H43	H	1.664483	-0.669723	-0.211441
H44	H	1.664496	-0.813495	-0.211464
O45	O	1.631706	-0.340776	-0.244185
H46	H	1.561237	-0.376898	-0.185562
H47	H	2.113788	-0.330294	0.237764
O48	O	2.146497	-0.176048	0.270468
H49	H	2.232596	-0.216911	0.356565
O50	O	1.631665	-0.176080	-0.244157
H51	H	1.652448	-0.114317	-0.223352
