data_functionalizedCrystal
_audit_creation_method	'MofGen! by Chris Wilmer'
_symmetry_space_group_name_H-M	'P1'
_symmetry_Int_Tables_number	1
_symmetry_cell_setting	triclinic
loop_
_symmetry_equiv_pos_as_xyz
  x,y,z
_cell_length_a	18.101398
_cell_length_b	12.645330
_cell_length_c	12.645323
_cell_angle_alpha	90.024870
_cell_angle_beta	90.030393
_cell_angle_gamma	90.009664
loop_
_atom_site_label
_atom_site_type_symbol
_atom_site_fract_x
_atom_site_fract_y
_atom_site_fract_z
Zn1	Zn	-1.132216	0.422258	-0.599664
Zn2	Zn	-1.132133	0.599546	-0.422405
Zn3	Zn	-1.008367	0.422272	-0.422385
Zn4	Zn	-1.008354	0.599455	-0.599596
O5	O	-1.070267	0.510883	-0.511013
O6	O	-1.235837	0.445808	-0.576187
O7	O	-1.115686	0.576074	-0.274055
O8	O	-1.024836	0.273923	-0.445922
O9	O	-1.235777	0.576060	-0.445955
O10	O	-1.115827	0.273913	-0.576168
O11	O	-1.024756	0.445832	-0.274040
O12	O	-0.904732	0.445744	-0.445856
O13	O	-1.024814	0.575905	-0.747953
O14	O	-0.904723	0.575919	-0.576052
O15	O	-1.115814	0.445720	-0.748003
O16	O	-1.115673	0.747881	-0.445889
O17	O	-1.024734	0.747814	-0.576071
C18	C	-0.877857	0.510824	-0.510945
C19	C	-0.795543	0.510824	-0.510941
C20	C	-0.496452	0.510866	-0.511011
C21	C	-0.527758	0.428556	-0.429496
C22	C	-0.613376	0.428784	-0.429154
C23	C	-0.644834	0.510844	-0.510976
C24	C	-0.613733	0.622514	-0.480458
C25	C	-0.528088	0.622049	-0.479886
C26	C	-0.528067	0.482479	-0.623237
C27	C	-0.613717	0.480000	-0.622630
C28	C	-0.728694	0.510839	-0.510958
C29	C	-0.412592	0.510879	-0.511026
C30	C	-1.070213	0.786312	-0.510998
C31	C	-1.070258	0.904143	-0.511027
C32	C	-1.070322	0.510801	-0.787518
C33	C	-1.070345	0.510766	-0.905348
C34	C	-0.263429	0.510922	-0.511065
C35	C	-0.345743	0.510886	-0.511046
C36	C	-1.070342	0.234377	-0.511051
C37	C	-1.070374	0.116547	-0.511067
C38	C	-1.013284	1.071709	-0.593177
C39	C	-1.012992	0.949149	-0.592913
C40	C	-1.049129	0.948732	-0.399301
C41	C	-1.048781	1.071331	-0.399799
C42	C	-1.148710	1.071248	-0.539697
C43	C	-1.148229	0.948641	-0.542140
C44	C	-1.012920	0.592280	-1.072881
C45	C	-1.013071	0.592683	-0.950321
C46	C	-1.148377	0.541100	-0.949883
C47	C	-1.148062	0.541611	-1.072481
C48	C	-1.050477	0.398462	-1.072542
C49	C	-1.048736	0.399135	-0.949935
C50	C	-1.070256	0.510888	-0.235583
C51	C	-1.070376	0.510624	-0.117753
H52	H	-0.634110	0.685488	-0.537975
H53	H	-1.167983	1.102095	-0.619783
H54	H	-0.634048	0.397823	-0.645641
H55	H	-0.506208	0.447110	-0.346822
H56	H	-1.192333	0.483508	-0.920756
H57	H	-1.087526	0.335079	-0.919321
H58	H	-1.192322	0.484720	-1.102168
H59	H	-1.026207	0.675834	-0.921009
H60	H	-1.092324	0.337625	-1.101564
H61	H	-1.164929	0.623604	-1.101095
H62	H	-0.634404	0.345976	-0.448282
H63	H	-0.991517	1.100011	-0.375548
Cl64	Cl	-1.111290	0.903730	-0.302259
Cl65	Cl	-1.033399	0.902593	-0.720818
H66	H	-0.508077	0.646123	-0.397844
H67	H	-0.507822	0.542431	-0.683973
Cl68	Cl	-0.923735	0.563369	-0.903823
Cl69	Cl	-1.172833	0.903641	-0.669088
H70	H	-0.507175	0.345492	-0.448411
Cl71	Cl	-0.644960	0.457757	-0.300766
H72	H	-0.506483	0.402464	-0.650982
Cl73	Cl	-0.960072	0.363818	-0.905006
H74	H	-0.507379	0.685453	-0.536669
Cl75	Cl	-0.646792	0.660334	-0.355162
Cl76	Cl	-0.923328	0.903987	-0.563631
H77	H	-1.165533	0.622234	-0.919198
H78	H	-0.635134	0.535584	-0.686621
H79	H	-0.955572	1.102598	-0.574450
Cl80	Cl	-1.033501	1.117126	-0.721505
Cl81	Cl	-1.110184	1.117137	-0.302115
H82	H	-0.994567	0.370814	-1.103435
Cl83	Cl	-0.961637	0.901463	-0.361180
H84	H	-1.193004	0.917999	-0.486691
H85	H	-1.191243	1.100244	-0.479893
Cl86	Cl	-1.032959	0.719842	-1.120543
Cl87	Cl	-0.923314	0.563249	-1.118357
