data_functionalizedCrystal
_audit_creation_method	'MofGen! by Chris Wilmer'
_symmetry_space_group_name_H-M	'P1'
_symmetry_Int_Tables_number	1
_symmetry_cell_setting	triclinic
loop_
_symmetry_equiv_pos_as_xyz
  x,y,z
_cell_length_a	10.908937
_cell_length_b	11.026607
_cell_length_c	13.448316
_cell_angle_alpha	90.001313
_cell_angle_beta	90.006762
_cell_angle_gamma	84.335986
loop_
_atom_site_label
_atom_site_type_symbol
_atom_site_fract_x
_atom_site_fract_y
_atom_site_fract_z
O1	O	1.662449	-0.179061	0.082722
O2	O	1.309517	-0.088524	0.082717
O3	O	1.456732	-0.304543	0.082715
O4	O	1.515234	0.036958	0.082724
O5	O	1.456713	-0.304541	-0.082668
O6	O	1.309497	-0.088522	-0.082667
O7	O	1.662430	-0.179059	-0.082662
Cu8	Cu	1.485962	-0.133790	-0.097765
Cu9	Cu	1.485985	-0.133793	0.097820
O10	O	1.515214	0.036960	-0.082660
C11	C	1.263622	-0.080062	0.000024
C12	C	1.126895	-0.054865	0.000022
C13	C	1.445930	-0.347575	0.000025
C14	C	1.413757	-0.475796	0.000028
C15	C	0.915317	-0.120775	0.000038
C16	C	1.056631	-0.146820	0.000026
C17	C	1.502592	-0.567529	0.000030
C18	C	1.469342	-0.700053	0.000034
C19	C	1.708325	-0.187521	0.000033
C20	C	1.845052	-0.212718	0.000042
C21	C	1.526016	0.079992	0.000033
C22	C	1.558189	0.208213	0.000036
N23	N	1.485955	-0.133791	-0.235329
C24	C	1.576624	-0.078442	-0.287362
C25	C	1.576638	-0.078450	-0.391466
C26	C	1.485977	-0.133800	-0.443534
C27	C	1.395303	-0.189157	-0.391494
C28	C	1.395295	-0.189156	-0.287392
C29	C	1.395324	-0.189153	-0.608474
C30	C	1.395330	-0.189153	-0.712582
C31	C	1.576667	-0.078447	-0.712547
C32	C	1.576659	-0.078446	-0.608446
C33	C	1.485983	-0.133801	-0.556413
N34	N	1.485999	-0.133803	0.235385
H35	H	0.870855	-0.022779	0.000051
C36	C	1.257646	-0.616299	0.000038
C37	C	1.333429	-0.726457	0.000038
H38	H	1.173742	-0.632604	0.000047
H39	H	1.273879	-0.570803	-0.057635
H40	H	1.273911	-0.570790	0.057712
H41	H	1.317170	-0.771962	-0.057640
H42	H	1.317188	-0.771972	0.057716
H43	H	1.101088	-0.244824	0.000025
C44	C	1.662422	-0.474013	0.085046
C45	C	1.638496	-0.541109	0.000031
H46	H	1.746323	-0.457700	0.085042
H47	H	1.646194	-0.519529	0.142709
H48	H	1.610985	-0.399294	0.085035
H49	H	1.689926	-0.615832	0.000047
H50	H	1.654737	-0.495593	-0.057646
H51	H	1.321490	-0.234231	-0.433896
C52	C	1.755912	0.030974	-0.618862
C53	C	1.676316	-0.017607	-0.551210
H54	H	1.817441	0.068524	-0.583524
H55	H	1.710432	0.089848	-0.659467
H56	H	1.793858	-0.032512	-0.659464
H57	H	1.638362	0.045881	-0.510612
H58	H	1.721802	-0.076486	-0.510587
H59	H	1.321462	-0.234226	-0.245028
H60	H	1.082440	0.043139	0.000031
H61	H	1.658866	-0.772219	0.000113
H62	H	0.889514	-0.310715	0.000041
C63	C	1.755874	0.030974	-0.297795
C64	C	1.676285	-0.017599	-0.230134
H65	H	1.817407	0.068527	-0.262464
H66	H	1.710391	0.089845	-0.338401
H67	H	1.793816	-0.032516	-0.338396
H68	H	1.638336	0.045892	-0.189538
H69	H	1.721774	-0.076475	-0.189511
C70	C	1.216104	-0.298607	-0.702157
C71	C	1.295681	-0.250009	-0.769814
H72	H	1.154590	-0.336184	-0.737491
H73	H	1.178146	-0.235137	-0.661561
H74	H	1.261609	-0.357475	-0.661546
H75	H	1.250178	-0.191134	-0.810420
H76	H	1.333641	-0.313486	-0.810428
H77	H	1.650472	-0.033382	-0.433826
C78	C	1.228623	-0.163195	-0.491421
C79	C	1.295655	-0.249999	-0.551272
H80	H	1.167098	-0.200759	-0.456102
H81	H	1.190678	-0.099734	-0.532037
H82	H	1.282633	-0.130240	-0.445521
H83	H	1.241646	-0.282948	-0.597177
H84	H	1.333601	-0.313482	-0.510652
H85	H	1.650495	-0.033369	-0.754917
H86	H	1.313087	-0.495373	0.000033
