data_functionalizedCrystal
_audit_creation_method	'MofGen! by Chris Wilmer'
_symmetry_space_group_name_H-M	'P1'
_symmetry_Int_Tables_number	1
_symmetry_cell_setting	triclinic
loop_
_symmetry_equiv_pos_as_xyz
  x,y,z
_cell_length_a	19.077105
_cell_length_b	21.295417
_cell_length_c	19.076919
_cell_angle_alpha	92.267699
_cell_angle_beta	90.076224
_cell_angle_gamma	87.725910
loop_
_atom_site_label
_atom_site_type_symbol
_atom_site_fract_x
_atom_site_fract_y
_atom_site_fract_z
Zn1	Zn	1.058240	-0.304535	-0.440394
Zn2	Zn	1.062870	-0.405748	-0.322879
Zn3	Zn	0.945459	-0.296102	-0.318188
Zn4	Zn	0.940692	-0.405368	-0.435631
O5	O	1.001815	-0.352938	-0.379273
O6	O	1.157186	-0.321649	-0.428761
O7	O	1.051228	-0.387833	-0.223925
O8	O	0.960477	-0.209135	-0.334428
O9	O	1.160587	-0.396010	-0.342424
O10	O	1.043337	-0.215330	-0.424212
O11	O	0.964966	-0.307277	-0.220479
O12	O	0.846495	-0.306909	-0.329811
O13	O	0.952352	-0.395363	-0.534594
O14	O	0.842993	-0.387186	-0.416096
O15	O	1.038714	-0.321281	-0.538093
O16	O	1.046605	-0.493784	-0.337806
O17	O	0.956842	-0.493505	-0.420645
C18	C	0.819248	-0.346091	-0.371928
C19	C	0.741144	-0.343178	-0.368802
C20	C	1.001727	-0.516485	-0.379234
C21	C	1.001753	-0.586455	-0.379243
C22	C	0.702648	-0.383664	-0.412187
C23	C	0.629261	-0.380918	-0.409254
C24	C	0.594371	-0.337690	-0.362931
C25	C	0.632872	-0.297200	-0.319544
C26	C	0.706257	-0.299943	-0.322482
C27	C	0.375085	-0.324995	-0.349340
C28	C	0.301694	-0.322256	-0.346404
C29	C	0.298089	-0.405974	-0.436115
C30	C	0.371476	-0.408716	-0.439045
C31	C	0.409970	-0.368224	-0.395661
N32	N	0.519358	-0.334883	-0.359930
N33	N	0.484982	-0.371027	-0.398666
C34	C	1.044871	-0.622490	-0.426025
C35	C	1.044895	-0.688234	-0.426043
C36	C	1.001809	-0.717940	-0.379267
C37	C	0.958682	-0.681896	-0.332482
C38	C	0.958654	-0.616153	-0.332470
N39	N	0.998975	-0.818882	-0.317559
N40	N	0.999006	-0.881335	-0.317573
C41	C	1.001890	-0.916019	-0.379302
N42	N	1.004755	-0.885891	-0.441020
N43	N	1.004728	-0.823432	-0.441005
C44	C	1.001834	-0.789227	-0.379276
C45	C	1.045036	-1.023342	-0.426108
C46	C	1.045055	-1.089087	-0.426127
C47	C	0.958846	-1.082748	-0.332560
C48	C	0.958823	-1.017004	-0.332547
C49	C	1.001922	-0.987305	-0.379320
C50	C	1.185096	-0.359812	-0.386647
C51	C	1.263199	-0.362742	-0.389789
C52	C	0.994485	-0.359220	-0.562552
C53	C	0.991361	-0.361897	-0.640655
C54	C	1.001922	-0.188754	-0.379328
C55	C	1.001968	-0.118788	-0.379352
C56	C	1.034856	-0.324586	-0.679171
C57	C	1.031912	-0.327098	-0.752557
C58	C	0.985477	-0.366926	-0.787425
C59	C	0.941978	-0.404238	-0.748904
C60	C	0.944919	-0.401722	-0.675520
C61	C	0.971858	-0.378584	-1.006706
C62	C	0.968923	-0.381099	-1.080095
C63	C	1.058856	-0.303958	-1.083742
C64	C	1.061795	-0.301448	-1.010356
C65	C	1.018294	-0.338758	-0.971842
N66	N	0.982469	-0.369496	-0.862437
N67	N	1.021299	-0.336184	-0.896831
C68	C	1.009157	-0.346637	-0.196708
C69	C	1.012417	-0.343788	-0.118611
H70	H	0.731050	-0.418867	-0.449906
C71	C	0.897073	-0.442768	-0.633153
N72	N	0.861032	-0.473685	-0.601243
C73	C	0.594490	-0.249646	-0.268591
N74	N	0.565582	-0.213829	-0.230210
C75	C	1.092285	-0.589826	-0.477473
N76	N	1.128000	-0.565222	-0.516222
C77	C	0.417420	-0.280455	-0.301611
N78	N	0.449308	-0.246907	-0.265658
H79	H	1.099610	-0.269018	-0.981971
C80	C	0.911385	-0.977363	-0.281087
N81	N	0.875647	-0.947505	-0.242328
C82	C	0.890892	-0.448043	-0.787263
N83	N	0.852413	-0.481037	-0.816153
C84	C	0.917836	-0.424912	-1.118449
N85	N	0.879360	-0.457911	-1.147337
H86	H	1.080127	-0.999160	-0.464196
C87	C	0.586920	-0.425468	-0.456968
N88	N	0.555029	-0.459028	-0.492904
H89	H	1.072670	-0.292156	-0.650786
H90	H	1.080167	-1.118427	-0.464226
C91	C	0.911441	-1.115420	-0.281115
N92	N	0.875729	-1.140032	-0.242370
C93	C	1.092333	-0.727881	-0.477506
N94	N	1.128065	-0.757741	-0.516266
C95	C	0.409849	-0.456274	-0.490000
N96	N	0.438752	-0.492098	-0.528378
H97	H	0.266739	-0.438940	-0.471437
C98	C	0.263317	-0.274698	-0.295444
N99	N	0.234411	-0.238880	-0.257062
H100	H	0.936446	-0.408974	-0.975356
C101	C	0.911315	-0.714574	-0.281003
N102	N	0.875646	-0.739187	-0.242219
H103	H	0.737600	-0.266972	-0.287157
H104	H	0.923541	-0.586812	-0.294374
C105	C	1.079761	-0.286054	-0.794921
N106	N	1.115803	-0.255138	-0.826829
H107	H	1.094272	-0.273581	-1.115109
