data_functionalizedCrystal
_audit_creation_method	'MofGen! by Chris Wilmer'
_symmetry_space_group_name_H-M	'P1'
_symmetry_Int_Tables_number	1
_symmetry_cell_setting	triclinic
loop_
_symmetry_equiv_pos_as_xyz
  x,y,z
_cell_length_a	12.759394
_cell_length_b	12.759395
_cell_length_c	14.908858
_cell_angle_alpha	93.279231
_cell_angle_beta	86.673257
_cell_angle_gamma	90.015525
loop_
_atom_site_label
_atom_site_type_symbol
_atom_site_fract_x
_atom_site_fract_y
_atom_site_fract_z
Zn1	Zn	-0.383943	1.571962	-0.510077
Zn2	Zn	-0.569789	1.581998	-0.359222
Zn3	Zn	-0.394126	1.406405	-0.359236
Zn4	Zn	-0.559585	1.396255	-0.510038
O5	O	-0.476861	1.489155	-0.434643
O6	O	-0.408605	1.720314	-0.490077
O7	O	-0.555019	1.567153	-0.232980
O8	O	-0.245753	1.428414	-0.379268
O9	O	-0.545145	1.727687	-0.379244
O10	O	-0.238271	1.550048	-0.490090
O11	O	-0.425960	1.438146	-0.232990
O12	O	-0.416066	1.258038	-0.379230
O13	O	-0.527754	1.411115	-0.636287
O14	O	-0.537628	1.250581	-0.490023
O15	O	-0.398711	1.540206	-0.636316
O16	O	-0.715458	1.557311	-0.379206
O17	O	-0.707962	1.420846	-0.490009
C18	C	-0.476845	1.216189	-0.434624
C19	C	-0.476863	1.099411	-0.434637
C20	C	-0.603697	0.872271	-0.549854
C21	C	-0.667094	0.923286	-0.607441
C22	C	-0.667082	1.033009	-0.607429
C23	C	-0.603668	1.091719	-0.549823
C24	C	-0.540272	1.040704	-0.492236
C25	C	-0.540288	0.930978	-0.492255
C26	C	-0.413466	1.048396	-0.377050
C27	C	-0.413471	0.938674	-0.377065
C28	C	-0.350052	1.107107	-0.319444
C29	C	-0.286648	1.056091	-0.261860
C30	C	-0.286662	0.946362	-0.261875
C31	C	-0.350074	0.887659	-0.319478
C32	C	-0.749830	1.489093	-0.434622
C33	C	-0.866605	1.489161	-0.434642
C34	C	-0.874352	1.631357	-0.319349
C35	C	-0.933086	1.702482	-0.261713
C36	C	-1.042806	1.702542	-0.261738
C37	C	-1.093794	1.631471	-0.319406
C38	C	-1.035060	1.560347	-0.377042
C39	C	-0.925339	1.560292	-0.377010
C40	C	-1.027313	1.418158	-0.492339
C41	C	-0.917593	1.418091	-0.492311
C42	C	-1.078301	1.347087	-0.550007
C43	C	-1.019568	1.275956	-0.607640
C44	C	-0.909842	1.275898	-0.607612
C45	C	-0.858860	1.346966	-0.549947
C46	C	-0.202825	1.489244	-0.434685
C47	C	-0.086047	1.489282	-0.434703
C48	C	-0.460958	1.473409	-0.669951
C49	C	-0.454182	1.466698	-0.770225
C50	C	-0.476877	1.763187	-0.434663
C51	C	-0.476884	1.879963	-0.434672
C52	C	-0.377439	1.390081	-0.911561
C53	C	-0.383804	1.396382	-0.817344
C54	C	-0.518196	1.530721	-0.817328
C55	C	-0.511831	1.524420	-0.911544
C56	C	-0.441451	1.454097	-0.958657
C57	C	-0.435092	1.447792	-1.052875
C58	C	-0.569478	1.582136	-1.052857
C59	C	-0.575843	1.588436	-0.958640
C60	C	-0.492626	1.504901	-0.200252
C61	C	-0.499106	1.511814	-0.099978
H62	H	-0.603702	0.782928	-0.549878
Cl63	Cl	-0.350041	1.245045	-0.319425
H64	H	-0.891561	1.760348	-0.214762
Cl65	Cl	-0.206965	0.882239	-0.189469
Cl66	Cl	-1.083672	1.186628	-0.680135
H67	H	-0.350086	0.798316	-0.319500
Cl68	Cl	-0.746787	1.097145	-0.679820
H69	H	-0.862026	1.217984	-0.654550
H70	H	-0.235027	1.103902	-0.214957
Cl71	Cl	-0.603669	1.229657	-0.549799
H72	H	-0.621597	1.634267	-1.091212
Cl73	Cl	-0.346612	1.359390	-1.112102
Cl74	Cl	-0.746825	0.849476	-0.679844
Cl75	Cl	-0.736401	1.631565	-0.319567
Cl76	Cl	-0.288958	1.301683	-0.970792
H77	H	-1.090626	1.760462	-0.214810
Cl78	Cl	-0.303326	1.315903	-0.758140
H79	H	-1.183134	1.631535	-0.319429
Cl80	Cl	-1.216260	1.346744	-0.549656
Cl81	Cl	-0.606646	1.619140	-0.758084
Cl82	Cl	-0.720909	1.347188	-0.550170
H83	H	-0.633142	1.645694	-0.920268
