data_functionalizedCrystal
_audit_creation_method	'MofGen! by Chris Wilmer'
_symmetry_space_group_name_H-M	'P1'
_symmetry_Int_Tables_number	1
_symmetry_cell_setting	triclinic
loop_
_symmetry_equiv_pos_as_xyz
  x,y,z
_cell_length_a	14.519731
_cell_length_b	19.188924
_cell_length_c	12.996460
_cell_angle_alpha	89.991787
_cell_angle_beta	89.994327
_cell_angle_gamma	83.415409
loop_
_atom_site_label
_atom_site_type_symbol
_atom_site_fract_x
_atom_site_fract_y
_atom_site_fract_z
O1	O	1.223285	0.091596	-0.085574
O2	O	0.954743	0.102358	-0.085576
O3	O	1.096767	-0.004651	-0.085563
O4	O	1.081261	0.198605	-0.085587
O5	O	1.096752	-0.004657	0.085571
O6	O	0.954729	0.102352	0.085558
O7	O	1.223270	0.091590	0.085560
Cu8	Cu	1.088998	0.096970	0.101185
Cu9	Cu	1.089015	0.096977	-0.101201
O10	O	1.081246	0.198599	0.085547
C11	C	0.920380	0.101851	-0.000009
C12	C	0.818009	0.100340	-0.000010
C13	C	0.734872	0.099112	-0.000014
C14	C	0.630573	0.097578	-0.000014
C15	C	0.547442	0.096360	-0.000014
C16	C	0.443136	0.094826	-0.000016
C17	C	1.096258	-0.030667	0.000005
C18	C	1.094754	-0.108177	0.000008
C19	C	1.094060	-0.144575	-0.093277
C20	C	1.092634	-0.217403	-0.093285
C21	C	1.091920	-0.253832	-0.000003
C22	C	1.092609	-0.217424	0.093295
C23	C	1.094026	-0.144597	0.093300
N24	N	1.142169	-0.373316	0.069426
N25	N	1.140825	-0.442499	0.069415
C26	C	1.087648	-0.473256	-0.000013
N27	N	1.035879	-0.432219	-0.069444
N28	N	1.037227	-0.363029	-0.069435
C29	C	1.090383	-0.332801	0.000002
C30	C	1.085406	-0.588623	-0.093313
C31	C	1.083974	-0.661451	-0.093317
C32	C	1.083959	-0.661472	0.093266
C33	C	1.085381	-0.588644	0.093268
C34	C	1.086110	-0.552224	-0.000025
C35	C	1.257634	0.092097	-0.000009
C36	C	1.360004	0.093608	-0.000016
C37	C	1.081755	0.224615	-0.000023
C38	C	1.083259	0.302125	-0.000033
N39	N	1.088992	0.096965	0.243532
N40	N	1.089028	0.096977	-0.243548
C41	C	1.089014	0.096978	0.663346
C42	C	1.089005	0.096977	0.546541
C43	C	1.089004	0.096972	0.453443
C44	C	1.088994	0.096970	0.336630
H45	H	1.092063	-0.247044	-0.169252
O46	O	1.094822	-0.105290	-0.193895
H47	H	1.094088	-0.142839	-0.258764
O48	O	1.083196	-0.700752	0.193884
H49	H	1.082100	-0.757510	0.178210
H50	H	1.083405	-0.691085	-0.169284
O51	O	1.091839	-0.256708	0.193912
H52	H	1.154943	-0.248868	0.238649
O53	O	1.094791	-0.105333	0.193918
H54	H	1.094062	-0.142897	0.258786
O55	O	1.086153	-0.549381	0.193883
H56	H	1.085428	-0.586946	0.258749
O57	O	1.086174	-0.549331	-0.193928
H58	H	1.085434	-0.586878	-0.258799
