data_functionalizedCrystal
_audit_creation_method	'MofGen! by Chris Wilmer'
_symmetry_space_group_name_H-M	'P1'
_symmetry_Int_Tables_number	1
_symmetry_cell_setting	triclinic
loop_
_symmetry_equiv_pos_as_xyz
  x,y,z
_cell_length_a	23.532355
_cell_length_b	22.010155
_cell_length_c	14.519709
_cell_angle_alpha	89.996686
_cell_angle_beta	83.253822
_cell_angle_gamma	90.002586
loop_
_atom_site_label
_atom_site_type_symbol
_atom_site_fract_x
_atom_site_fract_y
_atom_site_fract_z
O1	O	0.755787	0.050444	0.111708
O2	O	1.255787	0.550444	0.611708
O3	O	0.589993	0.050463	0.127957
O4	O	1.089993	0.550463	0.627957
O5	O	0.677286	0.050448	-0.014459
O6	O	1.177286	0.550448	0.485541
O7	O	0.668494	0.050460	0.254124
O8	O	1.168494	0.550460	0.754124
O9	O	0.677270	-0.050603	-0.014438
O10	O	1.177270	0.449397	0.485562
O11	O	0.589977	-0.050587	0.127978
O12	O	1.089977	0.449413	0.627978
O13	O	0.755771	-0.050607	0.111730
O14	O	1.255771	0.449393	0.611730
Cu15	Cu	0.672872	-0.059823	0.119856
Cu16	Cu	1.172872	0.440177	0.619856
Cu17	Cu	0.672891	0.059680	0.119831
Cu18	Cu	1.172891	0.559680	0.619831
O19	O	0.668478	-0.050591	0.254146
O20	O	1.168478	0.449409	0.754146
C21	C	0.568766	-0.000059	0.127561
C22	C	1.068766	0.499941	0.627561
C23	C	0.505542	-0.000052	0.126340
C24	C	1.005542	0.499948	0.626340
C25	C	0.113485	-0.055160	0.118679
C26	C	0.613485	0.444840	0.618679
C27	C	0.054080	-0.055163	0.117518
C28	C	0.554080	0.444837	0.617518
O29	O	0.023352	-0.102008	0.116895
O30	O	0.523352	0.397992	0.616895
N31	N	0.024378	-0.000081	0.116930
N32	N	0.524378	0.499919	0.616930
C33	C	0.054084	0.055008	0.117495
C34	C	0.554084	0.555008	0.617495
O35	O	0.023365	0.101859	0.116887
O36	O	0.523365	0.601859	0.616887
C37	C	0.113488	0.055010	0.118650
C38	C	0.613488	0.555010	0.618650
C39	C	0.143187	-0.000076	0.119247
C40	C	0.643187	0.499924	0.619247
C41	C	0.143184	-0.110242	0.119275
C42	C	0.643184	0.389758	0.619275
C43	C	0.202584	-0.110239	0.120439
C44	C	0.702584	0.389761	0.620439
C45	C	0.232286	-0.055155	0.121006
C46	C	0.732286	0.444845	0.621006
C47	C	0.202587	-0.000074	0.120410
C48	C	0.702587	0.499926	0.620410
C49	C	0.143194	0.110097	0.119208
C50	C	0.643194	0.610097	0.619208
C51	C	0.202602	0.110094	0.120362
C52	C	0.702602	0.610094	0.620362
C53	C	0.232300	0.055008	0.120959
C54	C	0.732300	0.555008	0.620959
C55	C	0.291689	0.055013	0.122141
C56	C	0.791689	0.555013	0.622141
N57	N	0.321392	-0.000069	0.122729
N58	N	0.821392	0.499931	0.622729
C59	C	0.291690	-0.055153	0.122161
C60	C	0.791690	0.444847	0.622161
C61	C	-0.070668	0.055000	0.115067
C62	C	0.429332	0.555000	0.615067
C63	C	-0.130072	0.054999	0.113919
C64	C	0.369928	0.554999	0.613919
C65	C	-0.130071	-0.055172	0.113940
C66	C	0.369929	0.444828	0.613940
C67	C	-0.070667	-0.055170	0.115095
C68	C	0.429333	0.444830	0.615095
C69	C	-0.040966	-0.000082	0.115655
C70	C	0.459034	0.499918	0.615655
C71	C	0.416435	-0.055144	0.124605
C72	C	0.916435	0.444856	0.624605
C73	C	0.475840	-0.055136	0.125773
C74	C	0.975840	0.444864	0.625773
C75	C	0.475835	0.055034	0.125746
C76	C	0.975835	0.555034	0.625746
C77	C	0.416435	0.055027	0.124584
C78	C	0.916435	0.555027	0.624584
C79	C	0.386736	-0.000067	0.124010
C80	C	0.886736	0.499933	0.624010
O81	O	0.322456	0.101834	0.122760
O82	O	0.822456	0.601834	0.622760
O83	O	0.322417	-0.101997	0.122757
O84	O	0.822417	0.398003	0.622757
N85	N	0.672863	-0.143876	0.119873
N86	N	1.172863	0.356124	0.619873
C87	C	0.711547	-0.563662	0.056778
C88	C	1.211547	-0.063662	0.556778
C89	C	0.711549	-0.627270	0.056771
C90	C	1.211549	-0.127270	0.556771
O91	O	0.744417	-0.660167	0.003138
O92	O	1.244417	-0.160167	0.503138
N93	N	0.672891	-0.659083	0.119811
N94	N	1.172891	-0.159083	0.619811
C95	C	0.634223	-0.627285	0.182855
C96	C	1.134223	-0.127285	0.682855
O97	O	0.601341	-0.660186	0.236475
O98	O	1.101341	-0.160186	0.736475
C99	C	0.634218	-0.563679	0.182857
C100	C	1.134218	-0.063679	0.682857
C101	C	0.672883	-0.531869	0.119819
C102	C	1.172883	-0.031869	0.619819
C103	C	0.750208	-0.531852	-0.006256
C104	C	1.250208	-0.031852	0.493744
C105	C	0.750206	-0.468249	-0.006248
C106	C	1.250206	0.031751	0.493752
C107	C	0.711543	-0.436456	0.056793
C108	C	1.211543	0.063544	0.556793
C109	C	0.672881	-0.468266	0.119827
C110	C	1.172881	0.031734	0.619827
C111	C	0.595548	-0.531882	0.245896
C112	C	1.095548	-0.031882	0.745896
C113	C	0.595547	-0.468271	0.245891
C114	C	1.095547	0.031729	0.745891
C115	C	0.634212	-0.436462	0.182853
C116	C	1.134212	0.063538	0.682853
C117	C	0.634216	-0.372869	0.182875
C118	C	1.134216	0.127131	0.682875
N119	N	0.672874	-0.341056	0.119836
N120	N	1.172874	0.158944	0.619836
C121	C	0.711538	-0.372849	0.056794
C122	C	1.211538	0.127151	0.556794
C123	C	0.634236	-0.760863	0.182847
C124	C	1.134236	-0.260863	0.682847
C125	C	0.634243	-0.824468	0.182851
C126	C	1.134243	-0.324468	0.682851
C127	C	0.711569	-0.824449	0.056765
C128	C	1.211569	-0.324449	0.556765
C129	C	0.711564	-0.760842	0.056767
C130	C	1.211564	-0.260842	0.556767
C131	C	0.672894	-0.729050	0.119807
C132	C	1.172894	-0.229050	0.619807
C133	C	0.711531	-0.239278	0.056816
C134	C	1.211531	0.260722	0.556816
C135	C	0.711527	-0.175669	0.056832
C136	C	1.211527	0.324331	0.556832
C137	C	0.634200	-0.175695	0.182914
C138	C	1.134200	0.324305	0.682914
C139	C	0.634205	-0.239298	0.182901
C140	C	1.134205	0.260702	0.682901
C141	C	0.672873	-0.271088	0.119845
C142	C	1.172873	0.228912	0.619845
O143	O	0.601364	-0.339932	0.236479
O144	O	1.101364	0.160068	0.736479
O145	O	0.744410	-0.339941	0.003176
O146	O	1.244410	0.160059	0.503176
C147	C	0.776997	-0.000082	0.112125
C148	C	1.276997	0.499918	0.612125
C149	C	0.840222	-0.000086	0.113346
C150	C	1.340222	0.499914	0.613346
C151	C	0.676868	-0.000078	-0.048803
C152	C	1.176868	0.499922	0.451197
C153	C	0.675640	-0.000078	-0.151170
C154	C	1.175640	0.499922	0.348830
N155	N	0.672905	0.143733	0.119806
N156	N	1.172905	0.643733	0.619806
C157	C	0.671120	-0.000062	-0.526011
C158	C	1.171120	0.499938	-0.026011
C159	C	0.672375	-0.000066	-0.421718
C160	C	1.172375	0.499934	0.078282
C161	C	0.673380	-0.000070	-0.338593
C162	C	1.173380	0.499930	0.161407
C163	C	0.674635	-0.000074	-0.234294
C164	C	1.174635	0.499926	0.265706
C165	C	0.668896	-0.000064	0.288490
C166	C	1.168896	0.499936	0.788490
C167	C	0.670124	-0.000060	0.390856
C168	C	1.170124	0.499940	0.890856
H169	H	-0.046491	-0.100026	0.115582
H170	H	0.453509	0.399974	0.615582
O171	O	0.231345	-0.163804	0.120967
O172	O	0.731345	0.336196	0.620967
C173	C	0.192380	-0.212417	0.120238
C174	C	0.692380	0.287583	0.620238
H175	H	0.152367	-0.196262	0.090212
H176	H	0.652367	0.303738	0.590212
H177	H	0.180156	-0.229352	0.194112
H178	H	0.680156	0.270648	0.694112
C179	C	0.269524	-0.284305	0.097086
C180	C	0.769524	0.215695	0.597086
C181	C	0.220381	-0.264465	0.060200
C182	C	0.720381	0.235535	0.560200
H183	H	0.286797	-0.316413	0.060056
H184	H	0.786797	0.183587	0.560056
H185	H	0.295776	-0.251555	0.097581
H186	H	0.795776	0.248445	0.597581
H187	H	0.259331	-0.298414	0.158647
H188	H	0.759331	0.201586	0.658647
H189	H	0.230576	-0.250349	-0.001355
H190	H	0.730576	0.249651	0.498645
H191	H	0.194131	-0.297214	0.059694
H192	H	0.694131	0.202786	0.559694
O193	O	0.749101	-0.855272	-0.004606
O194	O	1.249101	-0.355272	0.495394
C195	C	0.739742	-0.839739	-0.095820
C196	C	1.239742	-0.339739	0.404180
H197	H	0.717793	-0.793556	-0.095520
H198	H	1.217793	-0.293556	0.404480
H199	H	0.711364	-0.875537	-0.124093
H200	H	1.211364	-0.375537	0.375907
C201	C	0.824460	-0.893521	-0.158040
C202	C	1.324460	-0.393521	0.341960
C203	C	0.797506	-0.836796	-0.157673
C204	C	1.297506	-0.336796	0.342327
H205	H	0.860091	-0.891709	-0.196196
H206	H	1.360091	-0.391709	0.303804
H207	H	0.830765	-0.903988	-0.096588
H208	H	1.330765	-0.403988	0.403412
H209	H	0.800806	-0.923347	-0.181599
H210	H	1.300806	-0.423347	0.318401
H211	H	0.821157	-0.806974	-0.134104
H212	H	1.321157	-0.306974	0.365896
H213	H	0.791207	-0.826324	-0.219122
H214	H	1.291207	-0.326324	0.280878
H215	H	-0.154249	0.099855	0.113447
H216	H	0.345751	0.599855	0.613447
H217	H	0.602764	-0.850364	0.234192
H218	H	1.102764	-0.350364	0.734192
O219	O	0.387531	0.108499	0.123889
O220	O	0.887531	0.608499	0.623889
C221	C	0.359562	0.111801	0.043319
C222	C	0.859562	0.611801	0.543319
H223	H	0.352784	0.063974	0.016521
H224	H	0.852784	0.563974	0.516521
H225	H	0.386926	0.138980	-0.012171
H226	H	0.886926	0.638980	0.487829
C227	C	0.309526	0.202041	0.099378
C228	C	0.809526	0.702041	0.599378
C229	C	0.301197	0.143299	0.066470
C230	C	0.801197	0.643299	0.566470
H231	H	0.273524	0.221473	0.113656
H232	H	0.773524	0.721473	0.613656
H233	H	0.328370	0.199818	0.153658
H234	H	0.828370	0.699818	0.653658
H235	H	0.332331	0.224682	0.053131
H236	H	0.832331	0.724682	0.553131
H237	H	0.278398	0.120656	0.112720
H238	H	0.778398	0.620656	0.612720
H239	H	0.282347	0.145519	0.012197
H240	H	0.782347	0.645519	0.512197
H241	H	0.500018	-0.099996	0.126262
H242	H	1.000018	0.400004	0.626262
H243	H	0.564064	-0.557773	0.297226
H244	H	1.064064	-0.057773	0.797226
H245	H	-0.154265	-0.100025	0.113476
H246	H	0.345735	0.399975	0.613476
H247	H	0.226781	0.154955	0.120819
H248	H	0.726781	0.654955	0.620819
H249	H	0.602748	-0.734981	0.234190
H250	H	1.102748	-0.234981	0.734190
H251	H	0.564056	-0.442389	0.297225
H252	H	1.064056	0.057611	0.797225
O253	O	-0.041911	0.108571	0.115666
O254	O	0.458089	0.608571	0.615666
C255	C	-0.080870	0.157181	0.114878
C256	C	0.419130	0.657181	0.614878
H257	H	-0.125543	0.141024	0.143253
H258	H	0.374457	0.641024	0.643253
H259	H	-0.081284	0.174118	0.040757
H260	H	0.418716	0.674118	0.540757
C261	C	-0.007650	0.229073	0.140961
C262	C	0.492350	0.729073	0.640961
C263	C	-0.062518	0.209229	0.175819
C264	C	0.437482	0.709229	0.675819
H265	H	0.003670	0.261180	0.178549
H266	H	0.503670	0.761180	0.678549
H267	H	0.018598	0.196323	0.141489
H268	H	0.518598	0.696323	0.641489
H269	H	-0.008003	0.243182	0.079195
H270	H	0.491997	0.743182	0.579195
H271	H	-0.062163	0.195114	0.237580
H272	H	0.437837	0.695114	0.737580
H273	H	-0.088766	0.241978	0.175304
H274	H	0.411234	0.741978	0.675304
H275	H	0.743048	-0.734946	0.005435
H276	H	1.243048	-0.234946	0.505435
O277	O	0.504602	0.108595	0.126340
O278	O	1.004602	0.608595	0.626340
C279	C	0.465657	0.157218	0.125543
C280	C	0.965657	0.657218	0.625543
H281	H	0.420979	0.141076	0.153920
H282	H	0.920979	0.641076	0.653920
H283	H	0.465248	0.174150	0.051420
H284	H	0.965248	0.674150	0.551420
C285	C	0.538897	0.229088	0.151616
C286	C	1.038897	0.729088	0.651616
C287	C	0.484023	0.209263	0.186476
C288	C	0.984023	0.709263	0.686476
H289	H	0.550226	0.261193	0.189199
H290	H	1.050226	0.761193	0.689199
H291	H	0.565135	0.196330	0.152150
H292	H	1.065135	0.696330	0.652150
H293	H	0.538548	0.243194	0.089847
H294	H	1.038548	0.743194	0.589847
H295	H	0.484373	0.195150	0.248240
H296	H	0.984373	0.695150	0.748240
H297	H	0.457785	0.242020	0.185954
H298	H	0.957785	0.742020	0.685954
O299	O	0.596592	-0.270108	0.244169
O300	O	1.096592	0.229892	0.744169
C301	C	0.562477	-0.228403	0.299828
C302	C	1.062477	0.271597	0.799828
H303	H	0.561804	-0.183056	0.262033
H304	H	1.061804	0.316944	0.762033
H305	H	0.581030	-0.221650	0.368188
H306	H	1.081030	0.278350	0.868188
C307	C	0.501885	-0.308920	0.365761
C308	C	1.001885	0.191080	0.865761
C309	C	0.501055	-0.253226	0.319336
C310	C	1.001055	0.246774	0.819336
H311	H	0.463997	-0.324233	0.377798
H312	H	0.963997	0.175767	0.877798
H313	H	0.524870	-0.337018	0.328265
H314	H	1.024870	0.162982	0.828265
H315	H	0.517348	-0.303286	0.422722
H316	H	1.017348	0.196714	0.922722
H317	H	0.485598	-0.258863	0.262372
H318	H	0.985598	0.241137	0.762372
H319	H	0.478066	-0.225130	0.356823
H320	H	0.978066	0.274870	0.856823
O321	O	0.749108	-0.144864	-0.004497
O322	O	1.249108	0.355136	0.495503
C323	C	0.783241	-0.186570	-0.060125
C324	C	1.283241	0.313430	0.439875
H325	H	0.759891	-0.231912	-0.060969
H326	H	1.259891	0.268088	0.439031
H327	H	0.825575	-0.193336	-0.030541
H328	H	1.325575	0.306664	0.469459
C329	C	0.823559	-0.106051	-0.158676
C330	C	1.323559	0.393949	0.341324
C331	C	0.794878	-0.161739	-0.159719
C332	C	1.294878	0.338261	0.340281
H333	H	0.830740	-0.090734	-0.220109
H334	H	1.330740	0.409266	0.279891
H335	H	0.800565	-0.077952	-0.121197
H336	H	1.300565	0.422048	0.378803
H337	H	0.858834	-0.111697	-0.134018
H338	H	1.358834	0.388303	0.365982
H339	H	0.759601	-0.156092	-0.184365
H340	H	1.259601	0.343908	0.315635
H341	H	0.817866	-0.189837	-0.197205
H342	H	1.317866	0.310163	0.302795
O343	O	0.114327	-0.163741	0.118559
O344	O	0.614327	0.336259	0.618559
C345	C	0.086325	-0.167048	0.038023
C346	C	0.586325	0.332952	0.538023
H347	H	0.108673	-0.135787	-0.017471
H348	H	0.608673	0.364213	0.482529
H349	H	0.039860	-0.152262	0.055205
H350	H	0.539860	0.347738	0.555205
C351	C	0.060868	-0.271256	0.069961
C352	C	0.560868	0.228744	0.569961
C353	C	0.088319	-0.232865	0.001800
C354	C	0.588319	0.267135	0.501800
H355	H	0.062095	-0.311855	0.047618
H356	H	0.562095	0.188145	0.547618
H357	H	0.079731	-0.269027	0.124222
H358	H	0.579731	0.230973	0.624222
H359	H	0.022149	-0.258927	0.084273
H360	H	0.522149	0.241073	0.584273
H361	H	0.127039	-0.245189	-0.012502
H362	H	0.627039	0.254811	0.487498
H363	H	0.069463	-0.235097	-0.052464
H364	H	0.569463	0.264903	0.447536
H365	H	0.743017	-0.265155	0.005469
H366	H	1.243017	0.234845	0.505469
O367	O	0.387676	-0.108715	0.124095
O368	O	0.887676	0.391285	0.624095
C369	C	0.426639	-0.157325	0.124849
C370	C	0.926639	0.342675	0.624849
H371	H	0.466651	-0.141163	0.154871
H372	H	0.966651	0.358837	0.654871
H373	H	0.438864	-0.174268	0.050982
H374	H	0.938864	0.325732	0.550982
C375	C	0.349491	-0.229216	0.148026
C376	C	0.849491	0.270784	0.648026
C377	C	0.398633	-0.209368	0.184907
C378	C	0.898633	0.290632	0.684907
H379	H	0.332215	-0.261321	0.185068
H380	H	0.832215	0.238679	0.685068
H381	H	0.323240	-0.196468	0.147515
H382	H	0.823240	0.303532	0.647515
H383	H	0.359685	-0.243331	0.086471
H384	H	0.859685	0.256669	0.586471
H385	H	0.388437	-0.195247	0.246455
H386	H	0.888437	0.304753	0.746455
H387	H	0.424881	-0.242116	0.185429
H388	H	0.924881	0.257884	0.685429
O389	O	0.114446	0.163663	0.118578
O390	O	0.614446	0.663663	0.618578
C391	C	0.153410	0.212274	0.119340
C392	C	0.653410	0.712274	0.619340
H393	H	0.198083	0.196111	0.090981
H394	H	0.698083	0.696111	0.590981
H395	H	0.153824	0.229224	0.193451
H396	H	0.653824	0.729224	0.693451
C397	C	0.080202	0.284160	0.093202
C398	C	0.580202	0.784160	0.593202
C399	C	0.135069	0.264311	0.058363
C400	C	0.635069	0.764311	0.558363
H401	H	0.068888	0.316261	0.055592
H402	H	0.568888	0.816261	0.555592
H403	H	0.053951	0.251411	0.092692
H404	H	0.553951	0.751411	0.592692
H405	H	0.080554	0.298281	0.154960
H406	H	0.580554	0.798281	0.654960
H407	H	0.134715	0.250183	-0.003389
H408	H	0.634715	0.750183	0.496611
H409	H	0.161321	0.297059	0.058862
H410	H	0.661321	0.797059	0.558862
H411	H	0.781689	-0.442353	-0.057581
H412	H	1.281689	0.057647	0.442419
O413	O	0.787826	-0.562636	-0.067532
O414	O	1.287826	-0.062636	0.432468
C415	C	0.821932	-0.520908	-0.123174
C416	C	1.321932	-0.020908	0.376826
H417	H	0.822598	-0.475571	-0.085357
H418	H	1.322598	0.024429	0.414643
H419	H	0.803376	-0.514142	-0.191528
H420	H	1.303376	-0.014142	0.308472
C421	C	0.882537	-0.601393	-0.189147
C422	C	1.382537	-0.101393	0.310853
C423	C	0.883358	-0.545711	-0.142697
C424	C	1.383358	-0.045711	0.357303
H425	H	0.920427	-0.616692	-0.201195
H426	H	1.420427	-0.116692	0.298805
H427	H	0.859558	-0.629506	-0.151663
H428	H	1.359558	-0.129506	0.348337
H429	H	0.867071	-0.595747	-0.246104
H430	H	1.367071	-0.095747	0.253896
H431	H	0.898817	-0.551359	-0.085737
H432	H	1.398817	-0.051359	0.414263
H433	H	0.906342	-0.517598	-0.180172
H434	H	1.406342	-0.017598	0.319828
O435	O	0.596720	-0.144736	0.244183
O436	O	1.096720	0.355264	0.744183
C437	C	0.627270	-0.107953	0.300837
C438	C	1.127270	0.392047	0.800837
H439	H	0.671799	-0.098424	0.263736
H440	H	1.171799	0.401576	0.763736
H441	H	0.631199	-0.132464	0.368970
H442	H	1.131199	0.367536	0.868970
C443	C	0.540491	-0.059237	0.366372
C444	C	1.040491	0.440763	0.866372
C445	C	0.595181	-0.047529	0.320800
C446	C	1.095181	0.452471	0.820800
H447	H	0.520697	-0.021965	0.378691
H448	H	1.020697	0.478035	0.878691
H449	H	0.519909	-0.084020	0.328207
H450	H	1.019909	0.415980	0.828207
H451	H	0.543773	-0.079664	0.423145
H452	H	1.043773	0.420336	0.923145
H453	H	0.591898	-0.027109	0.264024
H454	H	1.091898	0.472891	0.764024
H455	H	0.615762	-0.022741	0.358957
H456	H	1.115762	0.477259	0.858957
