data_functionalizedCrystal
_audit_creation_method	'MofGen! by Chris Wilmer'
_symmetry_space_group_name_H-M	'P1'
_symmetry_Int_Tables_number	1
_symmetry_cell_setting	triclinic
loop_
_symmetry_equiv_pos_as_xyz
  x,y,z
_cell_length_a	21.295419
_cell_length_b	15.297327
_cell_length_c	15.296720
_cell_angle_alpha	107.319222
_cell_angle_beta	99.658759
_cell_angle_gamma	99.721516
loop_
_atom_site_label
_atom_site_type_symbol
_atom_site_fract_x
_atom_site_fract_y
_atom_site_fract_z
Zn1	Zn	0.835415	-0.460906	-0.589779
Zn2	Zn	0.835343	-0.589528	-0.461173
Zn3	Zn	0.752177	-0.434066	-0.434302
Zn4	Zn	0.708092	-0.616418	-0.616626
O5	O	0.782757	-0.525229	-0.525470
O6	O	0.923496	-0.477947	-0.572730
O7	O	0.842731	-0.546418	-0.327484
O8	O	0.781698	-0.307482	-0.432445
O9	O	0.923444	-0.572444	-0.478244
O10	O	0.842853	-0.327202	-0.546674
O11	O	0.781629	-0.432201	-0.307742
O12	O	0.658238	-0.458276	-0.458478
O13	O	0.706562	-0.618276	-0.743190
O14	O	0.625849	-0.592250	-0.592430
O15	O	0.800106	-0.504022	-0.723466
O16	O	0.799984	-0.723239	-0.504276
O17	O	0.706492	-0.742995	-0.618486
C18	C	0.619203	-0.525269	-0.525452
C19	C	0.549227	-0.525313	-0.525470
C20	C	0.748461	-0.766865	-0.567230
C21	C	0.733842	-0.870243	-0.585126
C22	C	0.887454	-1.120407	-0.397881
C23	C	0.901190	-1.023277	-0.381062
C24	C	0.859354	-0.985014	-0.432076
C25	C	0.803780	-1.043890	-0.499913
C26	C	0.790041	-1.141028	-0.516729
C27	C	0.761941	-1.005635	-0.550924
C28	C	0.706367	-1.064512	-0.618761
C29	C	0.692630	-1.161640	-0.635574
C30	C	0.734466	-1.199904	-0.584559
C31	C	0.775680	-0.908497	-0.534109
C32	C	0.678267	-0.929119	-0.652957
C33	C	0.664531	-1.026248	-0.669776
C34	C	0.516383	-0.476221	-0.574778
C35	C	0.450644	-0.476197	-0.574777
C36	C	0.417747	-0.525282	-0.525481
C37	C	0.450599	-0.574376	-0.476163
C38	C	0.516340	-0.574392	-0.476157
N39	N	0.303978	-0.605402	-0.532294
N40	N	0.241527	-0.605386	-0.532304
C41	C	0.219676	-0.525238	-0.525493
N42	N	0.262633	-0.445108	-0.518690
N43	N	0.325088	-0.445126	-0.518684
C44	C	0.346463	-0.525271	-0.525481
C45	C	0.115550	-0.476115	-0.574803
C46	C	0.049811	-0.476088	-0.574795
C47	C	0.049766	-0.574277	-0.476187
C48	C	0.115506	-0.574295	-0.476188
C49	C	0.148393	-0.525216	-0.525501
C50	C	0.946949	-0.525190	-0.525489
C51	C	1.016919	-0.525173	-0.525497
C52	C	0.748424	-0.567142	-0.768011
C53	C	0.733794	-0.585003	-0.871368
C54	C	0.817201	-0.282653	-0.483568
C55	C	0.831879	-0.179282	-0.465711
C56	C	0.887370	-0.397412	-1.121636
C57	C	0.901120	-0.380633	-1.024528
C58	C	0.859289	-0.431724	-0.986233
C59	C	0.803707	-0.499597	-1.045056
C60	C	0.789958	-0.516384	-1.142175
C61	C	0.761878	-0.550695	-1.006772
C62	C	0.706295	-0.618569	-1.065595
C63	C	0.692549	-0.635352	-1.162703
C64	C	0.734380	-0.584261	-1.200998
C65	C	0.775626	-0.533909	-0.909653
C66	C	0.678215	-0.652880	-0.930191
C67	C	0.664465	-0.669660	-1.027299
C68	C	0.817002	-0.483412	-0.283861
C69	C	0.831791	-0.465289	-0.180460
H70	H	0.820929	-0.860568	-0.478876
Cl71	Cl	0.409346	-0.414475	-0.636767
Cl72	Cl	0.008522	-0.414362	-0.636783
Cl73	Cl	0.008418	-0.635978	-0.414206
Cl74	Cl	0.594669	-1.100274	-0.755053
H75	H	0.820882	-0.478644	-0.861768
H76	H	0.543080	-0.614369	-0.436004
Cl77	Cl	0.156799	-0.636009	-0.414193
Cl78	Cl	0.939954	-0.333201	-1.169785
Cl79	Cl	0.940039	-1.168514	-0.333754
Cl80	Cl	0.876574	-0.410625	-0.864152
Cl81	Cl	0.716999	-1.321948	-0.605323
Cl82	Cl	0.622764	-1.235653	-0.720851
H83	H	0.644200	-0.897966	-0.694496
Cl84	Cl	0.622682	-0.720695	-1.236653
Cl85	Cl	0.557725	-0.414519	-0.636768
Cl86	Cl	0.409245	-0.636079	-0.414186
H87	H	0.946376	-0.325372	-0.976642
Cl88	Cl	0.156900	-0.414409	-0.636786
Cl89	Cl	0.717099	-0.605358	-1.323083
Cl90	Cl	0.625628	-0.717118	-0.882057
Cl91	Cl	0.876759	-0.862950	-0.411186
Cl92	Cl	0.971055	-0.949270	-0.295794
Cl93	Cl	0.594593	-0.754986	-1.101259
