data_functionalizedCrystal
_audit_creation_method	'MofGen! by Chris Wilmer'
_symmetry_space_group_name_H-M	'P1'
_symmetry_Int_Tables_number	1
_symmetry_cell_setting	triclinic
loop_
_symmetry_equiv_pos_as_xyz
  x,y,z
_cell_length_a	16.120530
_cell_length_b	21.295417
_cell_length_c	16.120297
_cell_angle_alpha	92.867002
_cell_angle_beta	90.128140
_cell_angle_gamma	87.125778
loop_
_atom_site_label
_atom_site_type_symbol
_atom_site_fract_x
_atom_site_fract_y
_atom_site_fract_z
Zn1	Zn	1.247391	-0.318915	-0.534523
Zn2	Zn	1.747391	0.181085	-0.034523
Zn3	Zn	1.254326	-0.419125	-0.395453
Zn4	Zn	1.754326	0.080875	0.104547
Zn5	Zn	1.115383	-0.308278	-0.388443
Zn6	Zn	1.615383	0.191722	0.111557
Zn7	Zn	1.108282	-0.418545	-0.527422
Zn8	Zn	1.608282	0.081455	-0.027422
O9	O	1.181345	-0.366216	-0.461460
O10	O	1.681345	0.133784	0.038540
O11	O	1.364676	-0.336903	-0.521981
O12	O	1.864676	0.163097	-0.021981
O13	O	1.241769	-0.400212	-0.278158
O14	O	1.741769	0.099788	0.221842
O15	O	1.132963	-0.221604	-0.407859
O16	O	1.632963	0.278396	0.092141
O17	O	1.369771	-0.410526	-0.419806
O18	O	1.869771	0.089474	0.080194
O19	O	1.229949	-0.229419	-0.515184
O20	O	1.729949	0.270581	-0.015184
O21	O	1.139688	-0.318773	-0.273008
O22	O	1.639688	0.181227	0.226992
O23	O	0.998075	-0.318211	-0.400973
O24	O	1.498075	0.181789	0.099027
O25	O	1.120862	-0.409538	-0.644729
O26	O	1.620862	0.090462	-0.144729
O27	O	0.992859	-0.399224	-0.503081
O28	O	1.492859	0.100776	-0.003081
O29	O	1.223064	-0.336340	-0.649946
O30	O	1.723064	0.163660	-0.149946
O31	O	1.234884	-0.507133	-0.412921
O32	O	1.734884	-0.007133	0.087079
O33	O	1.127586	-0.506707	-0.509878
O34	O	1.627586	-0.006707	-0.009878
C35	C	0.965295	-0.357501	-0.450496
C36	C	1.465295	0.142499	0.049504
C37	C	0.872866	-0.353788	-0.445825
C38	C	1.372866	0.146212	0.054175
C39	C	0.703638	-0.346996	-0.437305
C40	C	1.203638	0.153004	0.062695
C41	C	0.659891	-0.385485	-0.485677
C42	C	1.159891	0.114515	0.014323
C43	C	0.565726	-0.381705	-0.480936
C44	C	1.065726	0.118295	0.019064
C45	C	0.797811	-0.350774	-0.442045
C46	C	1.297811	0.149226	0.057955
C47	C	1.181239	-0.529761	-0.461409
C48	C	1.681239	-0.029761	0.038591
C49	C	1.181268	-0.599731	-0.461418
C50	C	1.681268	-0.099731	0.038582
C51	C	1.237182	-0.632802	-0.410990
C52	C	1.737182	-0.132802	0.089010
C53	C	1.237220	-0.698547	-0.411010
C54	C	1.737220	-0.198547	0.088990
C55	C	1.181329	-0.731217	-0.461450
C56	C	1.681329	-0.231217	0.038550
C57	C	1.125411	-0.698138	-0.511889
C58	C	1.625411	-0.198138	-0.011889
C59	C	1.125380	-0.632395	-0.511873
C60	C	1.625380	-0.132395	-0.011873
N61	N	1.108264	-0.831783	-0.464098
N62	N	1.608264	-0.331783	0.035902
N63	N	1.108296	-0.894236	-0.464108
N64	N	1.608296	-0.394236	0.035892
C65	C	1.181420	-0.929297	-0.461503
C66	C	1.681420	-0.429297	0.038497
N67	N	1.254514	-0.899546	-0.458870
N68	N	1.754514	-0.399546	0.041130
N69	N	1.254481	-0.837087	-0.458855
N70	N	1.754481	-0.337087	0.041145
C71	C	1.181357	-0.802504	-0.461473
C72	C	1.681357	-0.302504	0.038527
C73	C	1.237380	-1.033657	-0.411094
C74	C	1.737380	-0.533657	0.088906
C75	C	1.237419	-1.099403	-0.411120
C76	C	1.737419	-0.599403	0.088880
C77	C	1.125603	-1.098992	-0.511994
C78	C	1.625603	-0.598992	-0.011994
C79	C	1.125571	-1.033248	-0.511973
C80	C	1.625571	-0.533248	-0.011973
C81	C	1.181459	-1.000584	-0.461518
C82	C	1.681459	-0.500584	0.038482
C83	C	1.398240	-0.374966	-0.472468
C84	C	1.898240	0.125034	0.027532
C85	C	1.490667	-0.378694	-0.477159
C86	C	1.990667	0.121306	0.022841
C87	C	1.170397	-0.374061	-0.678353
C88	C	1.670397	0.125939	-0.178353
C89	C	1.165731	-0.377404	-0.770780
C90	C	1.665731	0.122596	-0.270780
C91	C	1.181474	-0.202033	-0.461531
C92	C	1.681474	0.297967	0.038469
C93	C	1.181529	-0.132068	-0.461562
C94	C	1.681529	0.367932	0.038438
C95	C	1.157183	-0.383493	-0.940004
C96	C	1.657183	0.116507	-0.440004
C97	C	1.205672	-0.348757	-0.983777
C98	C	1.705672	0.151243	-0.483777
C99	C	1.200915	-0.352144	-1.077938
C100	C	1.700915	0.147856	-0.577938
C101	C	1.161938	-0.380106	-0.845834
C102	C	1.661938	0.119894	-0.345834
C103	C	1.192299	-0.358358	-0.245413
C104	C	1.692299	0.141642	0.254587
C105	C	1.197126	-0.354844	-0.152995
C106	C	1.697126	0.145156	0.347005
H107	H	0.670373	-0.311209	-0.392335
H108	H	1.170373	0.188791	0.107665
H109	H	1.282957	-1.126329	-0.370057
H110	H	1.782957	-0.626329	0.129943
O111	O	1.071173	-0.600246	-0.560953
O112	O	1.571173	-0.100246	-0.060953
C113	C	1.115742	-0.566000	-0.617073
C114	C	1.615742	-0.066000	-0.117073
H115	H	1.180978	-0.588590	-0.625593
H116	H	1.680978	-0.088590	-0.125593
H117	H	1.119900	-0.515369	-0.591495
H118	H	1.619900	-0.015369	-0.091495
C119	C	0.990559	-0.538723	-0.690956
C120	C	1.490559	-0.038723	-0.190956
C121	C	1.070682	-0.566473	-0.701425
C122	C	1.570682	-0.066473	-0.201425
H123	H	0.962764	-0.539012	-0.742988
H124	H	1.462764	-0.039012	-0.242988
H125	H	0.960532	-0.561793	-0.653146
H126	H	1.460532	-0.061793	-0.153146
H127	H	0.994036	-0.496533	-0.669638
H128	H	1.494036	0.003467	-0.169638
H129	H	1.067204	-0.608664	-0.722733
H130	H	1.567204	-0.108664	-0.222733
H131	H	1.100708	-0.543410	-0.739242
H132	H	1.600708	-0.043410	-0.239242
O133	O	1.291708	-1.001861	-0.362208
O134	O	1.791708	-0.501861	0.137792
C135	C	1.342980	-0.967665	-0.412308
C136	C	1.842980	-0.467665	0.087692
H137	H	1.310415	-0.958905	-0.473807
H138	H	1.810415	-0.458905	0.026193
H139	H	1.404145	-0.995770	-0.424632
H140	H	1.904145	-0.495770	0.075368
C141	C	1.400351	-0.914935	-0.291780
C142	C	1.900351	-0.414935	0.208220
C143	C	1.360351	-0.904172	-0.367311
C144	C	1.860351	-0.404172	0.132689
H145	H	1.411070	-0.875771	-0.264023
H146	H	1.911070	-0.375771	0.235977
H147	H	1.365811	-0.937976	-0.258026
H148	H	1.865811	-0.437976	0.241974
H149	H	1.451317	-0.938358	-0.302060
H150	H	1.951317	-0.438358	0.197940
H151	H	1.309381	-0.880757	-0.357029
H152	H	1.809381	-0.380757	0.142971
H153	H	1.394883	-0.881126	-0.401062
H154	H	1.894883	-0.381126	0.098938
O155	O	1.259374	-0.310149	-0.944165
O156	O	1.759374	0.189851	-0.444165
C157	C	1.240218	-0.247428	-0.964429
C158	C	1.740218	0.252572	-0.464429
H159	H	1.172602	-0.242413	-0.984985
H160	H	1.672602	0.257587	-0.484985
H161	H	1.282316	-0.234554	-1.017048
H162	H	1.782316	0.265446	-0.517048
C163	C	1.336810	-0.209240	-0.862472
C164	C	1.836810	0.290760	-0.362472
C165	C	1.253761	-0.203079	-0.887712
C166	C	1.753761	0.296921	-0.387712
H167	H	1.345167	-0.181882	-0.815151
H168	H	1.845167	0.318118	-0.315151
H169	H	1.349719	-0.251496	-0.848821
H170	H	1.849719	0.248504	-0.348821
H171	H	1.371882	-0.198512	-0.906328
H172	H	1.871882	0.301488	-0.406328
H173	H	1.218691	-0.213814	-0.843861
H174	H	1.718691	0.286186	-0.343861
H175	H	1.240847	-0.160823	-0.901354
H176	H	1.740847	0.339177	-0.401354
H177	H	1.282755	-0.725479	-0.369945
H178	H	1.782755	-0.225479	0.130055
H179	H	1.080099	-1.125592	-0.553068
H180	H	1.580099	-0.625592	-0.053068
H181	H	1.080037	-1.006319	-0.553033
H182	H	1.580037	-0.506319	-0.053033
O183	O	1.071231	-0.729946	-0.560932
O184	O	1.571231	-0.229946	-0.060932
C185	C	1.115837	-0.771763	-0.617100
C186	C	1.615837	-0.271763	-0.117100
H187	H	1.180360	-0.783060	-0.591023
H188	H	1.680360	-0.283060	-0.091023
H189	H	1.121802	-0.748996	-0.679187
H190	H	1.621802	-0.248996	-0.179187
C191	C	0.990093	-0.819063	-0.661838
C192	C	1.490093	-0.319063	-0.161838
C193	C	1.069340	-0.832942	-0.629806
C194	C	1.569340	-0.332942	-0.129806
H195	H	0.961411	-0.856800	-0.669680
H196	H	1.461411	-0.356800	-0.169680
H197	H	0.960041	-0.790888	-0.623999
H198	H	1.460041	-0.290888	-0.123999
H199	H	0.995076	-0.800089	-0.713574
H200	H	1.495076	-0.300089	-0.213574
H201	H	1.064356	-0.851909	-0.578067
H202	H	1.564356	-0.351909	-0.078067
H203	H	1.099390	-0.861122	-0.667637
H204	H	1.599390	-0.361122	-0.167637
H205	H	1.112102	-0.415774	-0.973246
H206	H	1.612102	0.084226	-0.473246
O207	O	1.291557	-0.601174	-0.361966
O208	O	1.791557	-0.101174	0.138034
C209	C	1.340905	-0.644466	-0.317446
C210	C	1.840905	-0.144466	0.182554
H211	H	1.342053	-0.692664	-0.351663
H212	H	1.842053	-0.192664	0.148337
H213	H	1.313700	-0.647988	-0.252724
H214	H	1.813700	-0.147988	0.247276
C215	C	1.428599	-0.562695	-0.267998
C216	C	1.928599	-0.062695	0.232002
C217	C	1.430015	-0.621891	-0.310028
C218	C	1.930015	-0.121891	0.189972
H219	H	1.483565	-0.548769	-0.263418
H220	H	1.983565	-0.048769	0.236582
H221	H	1.395351	-0.533527	-0.297989
H222	H	1.895351	-0.033527	0.202011
H223	H	1.405924	-0.565638	-0.214067
H224	H	1.905924	-0.065638	0.285933
H225	H	1.452680	-0.618946	-0.363960
H226	H	1.952680	-0.118946	0.136040
H227	H	1.463269	-0.651058	-0.280045
H228	H	1.963269	-0.151058	0.219955
H229	H	0.693157	-0.421274	-0.530651
H230	H	1.193157	0.078726	-0.030651
