data_functionalizedCrystal
_audit_creation_method	'MofGen! by Chris Wilmer'
_symmetry_space_group_name_H-M	'P1'
_symmetry_Int_Tables_number	1
_symmetry_cell_setting	triclinic
loop_
_symmetry_equiv_pos_as_xyz
  x,y,z
_cell_length_a	10.654550
_cell_length_b	16.992694
_cell_length_c	15.455313
_cell_angle_alpha	92.857794
_cell_angle_beta	92.692163
_cell_angle_gamma	92.423437
loop_
_atom_site_label
_atom_site_type_symbol
_atom_site_fract_x
_atom_site_fract_y
_atom_site_fract_z
O1	O	0.261289	-1.045244	-0.072018
O2	O	0.761289	-0.545244	0.427982
O3	O	0.258364	-0.816944	-0.072044
O4	O	0.758364	-0.316944	0.427956
O5	O	0.077541	-0.936343	-0.072027
O6	O	0.577541	-0.436343	0.427973
O7	O	0.442112	-0.925845	-0.072035
O8	O	0.942112	-0.425845	0.427965
O9	O	0.087836	-0.929515	0.072234
O10	O	0.587836	-0.429515	0.572234
O11	O	0.268659	-0.810116	0.072217
O12	O	0.768659	-0.310116	0.572217
O13	O	0.271584	-1.038416	0.072243
O14	O	0.771584	-0.538416	0.572243
Cu15	Cu	0.271061	-0.923642	0.085402
Cu16	Cu	0.771061	-0.423642	0.585402
Cu17	Cu	0.258886	-0.931717	-0.085203
Cu18	Cu	0.758886	-0.431717	0.414797
O19	O	0.452406	-0.919017	0.072226
O20	O	0.952406	-0.419017	0.572226
C21	C	0.259751	-0.784297	0.000083
C22	C	0.759751	-0.284297	0.500083
C23	C	0.248531	-0.697192	0.000074
C24	C	0.748531	-0.197192	0.500074
C25	C	0.035824	-0.932158	0.000102
C26	C	0.535824	-0.432158	0.500102
C27	C	-0.103819	-0.929852	0.000099
C28	C	0.396181	-0.429852	0.500099
N29	N	0.279624	-0.917968	0.205397
N30	N	0.779624	-0.417968	0.705397
C31	C	-0.177229	-1.000152	0.000109
C32	C	0.322771	-0.500152	0.500109
C33	C	-0.308438	-0.997980	0.000103
C34	C	0.191562	-0.497980	0.500103
C35	C	-0.292815	-0.855203	0.000079
C36	C	0.207185	-0.355203	0.500079
C37	C	-0.161609	-0.857375	0.000080
C38	C	0.338391	-0.357375	0.500080
C39	C	-0.119439	-1.072629	0.000129
C40	C	0.380561	-0.572629	0.500129
C41	C	-0.192850	-1.142934	0.000140
C42	C	0.307150	-0.642934	0.500140
C43	C	-0.324059	-1.140763	0.000134
C44	C	0.175941	-0.640763	0.500134
C45	C	-0.381857	-1.068286	0.000116
C46	C	0.118143	-0.568286	0.500116
C47	C	0.494124	-0.923202	0.000095
C48	C	0.994124	-0.423202	0.500095
C49	C	0.633766	-0.925508	0.000093
C50	C	1.133766	-0.425508	0.500093
C51	C	0.270196	-1.071063	0.000114
C52	C	0.770196	-0.571063	0.500114
C53	C	0.281416	-1.158168	0.000118
C54	C	0.781416	-0.658168	0.500118
C55	C	0.356782	-0.647540	0.000072
C56	C	0.856782	-0.147540	0.500072
C57	C	0.346233	-0.565696	0.000084
C58	C	0.846233	-0.065696	0.500084
C59	C	0.227433	-0.533505	0.000092
C60	C	0.727433	-0.033505	0.500092
C61	C	0.119174	-0.583163	0.000096
C62	C	0.619174	-0.083163	0.500096
C63	C	0.129724	-0.665006	0.000090
C64	C	0.629724	-0.165006	0.500090
C65	C	0.183707	-0.289668	0.000116
C66	C	0.683707	0.210332	0.500116
C67	C	0.173165	-0.207819	0.000119
C68	C	0.673165	0.292181	0.500119
C69	C	0.400226	-0.190358	0.000109
C70	C	0.900226	0.309642	0.500109
C71	C	0.410765	-0.272203	0.000098
C72	C	0.910765	0.227797	0.500098
C73	C	0.302507	-0.321854	0.000107
C74	C	0.802507	0.178146	0.500107
N75	N	0.216648	-0.449847	0.000102
N76	N	0.716648	0.050153	0.500102
N77	N	0.313293	-0.405510	0.000103
N78	N	0.813293	0.094490	0.500103
N79	N	0.250314	-0.937397	-0.205198
N80	N	0.750314	-0.437397	0.294802
C81	C	0.202836	-0.968711	0.250798
C82	C	0.702836	-0.468711	0.750798
C83	C	0.209324	-0.964428	0.341605
C84	C	0.709324	-0.464428	0.841605
C85	C	0.292607	-0.909405	0.387010
C86	C	0.792607	-0.409405	0.887010
C87	C	0.369399	-0.858656	0.341602
C88	C	0.869399	-0.358656	0.841602
C89	C	0.362903	-0.862937	0.250797
C90	C	0.862903	-0.362937	0.750797
C91	C	0.320610	-0.890929	0.658589
C92	C	0.820610	-0.390929	1.158589
C93	C	0.327102	-0.886654	0.749401
C94	C	0.827102	-0.386654	1.249401
C95	C	0.167025	-0.992425	0.749398
C96	C	0.667025	-0.492425	1.249398
C97	C	0.160543	-0.996704	0.658590
C98	C	0.660543	-0.496704	1.158590
C99	C	0.237329	-0.945953	0.613191
C100	C	0.737329	-0.445953	1.113191
N101	N	0.299244	-0.905027	0.479830
N102	N	0.799244	-0.405027	0.979830
N103	N	0.230685	-0.950328	0.520373
N104	N	0.730685	-0.450328	1.020373
H105	H	-0.012603	-1.074405	0.000137
H106	H	0.487397	-0.574405	0.500137
F107	F	0.046717	-0.173561	0.000142
F108	F	0.546717	0.326439	0.500142
F109	F	0.068488	-0.342500	0.000125
F110	F	0.568488	0.157500	0.500125
H111	H	0.104508	-1.033743	0.786370
H112	H	0.604508	-0.533743	1.286370
H113	H	0.437205	-0.813851	0.378576
H114	H	0.937205	-0.313851	0.878576
H115	H	0.041574	-0.705432	0.000091
H116	H	0.541574	-0.205432	0.500091
H117	H	0.507504	-0.298407	0.000082
H118	H	1.007504	0.201593	0.500082
H119	H	0.425431	-0.821616	0.213832
H120	H	0.925431	-0.321616	0.713832
F121	F	-0.131336	-1.220066	0.000149
F122	F	0.368664	-0.720066	0.500149
H123	H	-0.101836	-0.800130	0.000072
H124	H	0.398164	-0.300130	0.500072
H125	H	0.453522	-0.673743	0.000065
H126	H	0.953522	-0.173743	0.500065
H127	H	0.394926	-0.841845	0.786365
H128	H	0.894926	-0.341845	1.286365
F129	F	-0.007263	-0.548900	0.000110
F130	F	0.492737	-0.048900	0.500110
F131	F	-0.402185	-1.215588	0.000137
F132	F	0.097815	-0.715588	0.500137
F133	F	-0.521501	-1.065977	0.000138
F134	F	-0.021501	-0.565977	0.500138
F135	F	0.461449	-0.512856	0.000079
F136	F	0.961449	-0.012856	0.500079
H137	H	0.488363	-0.149924	0.000104
H138	H	0.988363	0.350076	0.500104
H139	H	0.135024	-1.013520	0.213836
H140	H	0.635024	-0.513520	0.713836
F141	F	0.127596	-1.018433	0.389925
F142	F	0.627596	-0.518433	0.889925
H143	H	0.092727	-1.041508	0.621624
H144	H	0.592727	-0.541508	1.121624
F145	F	-0.354333	-0.778073	0.000062
F146	F	0.145667	-0.278073	0.500062
H147	H	0.383135	-0.849607	0.621632
H148	H	0.883135	-0.349607	1.121632
