data_functionalizedCrystal
_audit_creation_method	'MofGen! by Chris Wilmer'
_symmetry_space_group_name_H-M	'P1'
_symmetry_Int_Tables_number	1
_symmetry_cell_setting	triclinic
loop_
_symmetry_equiv_pos_as_xyz
  x,y,z
_cell_length_a	16.625548
_cell_length_b	13.032721
_cell_length_c	13.032268
_cell_angle_alpha	103.289627
_cell_angle_beta	82.837807
_cell_angle_gamma	82.794397
loop_
_atom_site_label
_atom_site_type_symbol
_atom_site_fract_x
_atom_site_fract_y
_atom_site_fract_z
Zn1	Zn	1.119641	0.499057	0.654215
Zn2	Zn	1.119553	0.654142	0.499163
Zn3	Zn	1.004420	0.476555	0.476634
Zn4	Zn	0.965173	0.676619	0.676703
O5	O	1.052197	0.576593	0.576679
O6	O	1.232459	0.519640	0.633665
O7	O	1.120669	0.611760	0.347555
O8	O	1.036166	0.330909	0.481350
O9	O	1.232395	0.633580	0.519749
O10	O	1.120819	0.347442	0.611819
O11	O	1.036081	0.481288	0.331002
O12	O	0.886384	0.503083	0.503156
O13	O	0.969275	0.671889	0.822340
O14	O	0.857549	0.650069	0.650146
O15	O	1.082763	0.541436	0.805818
O16	O	1.082613	0.805754	0.541554
O17	O	0.969190	0.822268	0.671992
C18	C	1.021652	0.852553	0.611681
C19	C	1.008655	0.970614	0.626691
C20	C	0.842711	0.576574	0.576647
C21	C	0.753086	0.576595	0.576662
C22	C	1.021651	0.611680	0.853692
C23	C	1.008634	0.626632	0.971738
C24	C	0.424905	0.576608	0.576708
C25	C	0.516216	0.576601	0.576692
C26	C	0.588993	0.576602	0.576684
C27	C	0.680309	0.576594	0.576669
C28	C	1.262501	0.576613	0.576711
C29	C	1.352119	0.576622	0.576725
C30	C	1.082880	0.299559	0.541563
C31	C	1.095956	0.181504	0.526599
C32	C	1.059018	1.015050	0.568893
C33	C	1.045586	1.137072	0.584405
C34	C	1.082679	0.541567	0.300734
C35	C	1.095885	0.526316	0.182650
C36	C	1.058982	0.568752	1.016192
C37	C	1.045530	0.584204	1.138199
H38	H	0.992523	1.189362	0.645380
N39	N	1.162531	1.115925	0.450109
N40	N	1.234809	1.129037	0.458775
H41	H	1.281826	1.082719	0.404754
N42	N	0.978952	0.660730	1.203738
N43	N	0.931608	0.715153	1.162006
H44	H	0.884586	0.769198	1.208292
N45	N	0.942096	1.036221	0.703179
N46	N	0.931281	1.135251	0.715674
H47	H	0.884272	1.181586	0.769696
N48	N	1.125544	0.492231	0.950619
N49	N	1.136375	0.479784	0.851601
H50	H	1.183385	0.425738	0.805289
N51	N	1.162449	0.449787	1.117081
N52	N	1.173281	0.437336	1.018063
H53	H	1.220290	0.383287	0.971753
N54	N	0.942051	0.703139	1.037282
N55	N	0.869781	0.694532	1.024068
H56	H	0.822753	0.748565	1.070356
N57	N	1.125591	0.949445	0.492426
N58	N	1.136412	0.850416	0.479941
H59	H	1.183433	0.804083	0.425938
