data_functionalizedCrystal
_audit_creation_method	'MofGen! by Chris Wilmer'
_symmetry_space_group_name_H-M	'P1'
_symmetry_Int_Tables_number	1
_symmetry_cell_setting	triclinic
loop_
_symmetry_equiv_pos_as_xyz
  x,y,z
_cell_length_a	11.792241
_cell_length_b	11.792241
_cell_length_c	8.140239
_cell_angle_alpha	90.003307
_cell_angle_beta	89.997269
_cell_angle_gamma	84.193416
loop_
_atom_site_label
_atom_site_type_symbol
_atom_site_fract_x
_atom_site_fract_y
_atom_site_fract_z
O1	O	1.506904	0.155566	0.136455
O2	O	1.840237	0.488899	0.469788
O3	O	2.173571	0.822232	0.803121
O4	O	1.176563	0.171599	0.136493
O5	O	1.509896	0.504932	0.469826
O6	O	1.843230	0.838265	0.803160
O7	O	1.349750	-0.001588	0.136461
O8	O	1.683083	0.331745	0.469795
O9	O	2.016417	0.665078	0.803128
O10	O	1.333717	0.328753	0.136486
O11	O	1.667050	0.662086	0.469820
O12	O	2.000384	0.995419	0.803153
O13	O	1.349744	-0.001590	-0.136766
O14	O	1.683078	0.331744	0.196568
O15	O	2.016411	0.665077	0.529901
O16	O	1.176557	0.171597	-0.136734
O17	O	1.509891	0.504931	0.196599
O18	O	1.843224	0.838264	0.529933
O19	O	1.506898	0.155564	-0.136773
O20	O	1.840232	0.488898	0.196561
O21	O	2.173565	0.822231	0.529894
Zn22	Zn	1.341727	0.163581	-0.180134
Zn23	Zn	1.675060	0.496914	0.153199
Zn24	Zn	2.008394	0.830247	0.486533
Zn25	Zn	1.341734	0.163582	0.179854
Zn26	Zn	1.675068	0.496916	0.513188
Zn27	Zn	2.008401	0.830249	0.846521
O28	O	1.333711	0.328751	-0.136741
O29	O	1.667045	0.662085	0.196592
O30	O	2.000378	0.995418	0.529926
C31	C	1.134269	0.170591	-0.000116
C32	C	1.467603	0.503924	0.333218
C33	C	1.800936	0.837258	0.666551
C34	C	1.008255	0.167576	-0.000101
C35	C	1.341589	0.500910	0.333232
C36	C	1.674922	0.834243	0.666565
C37	C	1.348740	-0.043880	-0.000152
C38	C	1.682073	0.289453	0.333182
C39	C	2.015407	0.622787	0.666515
C40	C	1.345726	-0.169894	-0.000150
C41	C	1.679059	0.163440	0.333184
C42	C	2.012392	0.496773	0.666517
C43	C	1.340183	-0.400606	-0.000122
C44	C	1.673516	-0.067272	0.333212
C45	C	2.006849	0.266061	0.666545
C46	C	1.343262	-0.272221	-0.000137
C47	C	1.676596	0.061113	0.333197
C48	C	2.009929	0.394446	0.666530
C49	C	0.777543	0.162034	-0.000149
C50	C	1.110877	0.495367	0.333184
C51	C	1.444210	0.828700	0.666518
C52	C	0.905928	0.165113	-0.000123
C53	C	1.239262	0.498447	0.333210
C54	C	1.572595	0.831780	0.666544
C55	C	1.549192	0.156572	-0.000160
C56	C	1.882525	0.489905	0.333173
C57	C	2.215859	0.823239	0.666507
C58	C	1.675206	0.159587	-0.000164
C59	C	2.008539	0.492920	0.333170
C60	C	2.341873	0.826253	0.666503
C61	C	1.334721	0.371043	-0.000124
C62	C	1.668055	0.704376	0.333209
C63	C	2.001388	1.037710	0.666542
C64	C	1.337736	0.497057	-0.000116
C65	C	1.671069	0.830390	0.333218
C66	C	2.004402	1.163723	0.666551
N67	N	1.341730	0.163579	-0.425817
N68	N	1.675064	0.496912	-0.092483
N69	N	2.008397	0.830246	0.240850
N70	N	1.341740	0.163575	0.425537
N71	N	1.675073	0.496908	0.758870
N72	N	2.008407	0.830242	1.092204
