data_functionalizedCrystal
_audit_creation_method	'MofGen! by Chris Wilmer'
_symmetry_space_group_name_H-M	'P1'
_symmetry_Int_Tables_number	1
_symmetry_cell_setting	triclinic
loop_
_symmetry_equiv_pos_as_xyz
  x,y,z
_cell_length_a	19.188905
_cell_length_b	18.266242
_cell_length_c	16.992695
_cell_angle_alpha	89.993686
_cell_angle_beta	93.098611
_cell_angle_gamma	90.016163
loop_
_atom_site_label
_atom_site_type_symbol
_atom_site_fract_x
_atom_site_fract_y
_atom_site_fract_z
O1	O	0.931882	0.061003	-0.097780
O2	O	1.265216	0.394336	0.235554
O3	O	1.598549	0.727670	0.568887
O4	O	0.729341	0.060978	-0.110976
O5	O	1.062674	0.394312	0.222358
O6	O	1.396007	0.727645	0.555691
O7	O	0.829799	0.060985	0.009762
O8	O	1.163133	0.394318	0.343095
O9	O	1.496466	0.727651	0.676429
O10	O	0.831423	0.060997	-0.218517
O11	O	1.164757	0.394330	0.114816
O12	O	1.498090	0.727663	0.448149
O13	O	0.829781	-0.060777	0.009768
O14	O	1.163114	0.272556	0.343102
O15	O	1.496448	0.605890	0.676435
O16	O	0.729322	-0.060784	-0.110969
O17	O	1.062655	0.272550	0.222364
O18	O	1.395989	0.605883	0.555697
O19	O	0.931864	-0.060759	-0.097774
O20	O	1.265197	0.272574	0.235560
O21	O	1.598530	0.605908	0.568893
Zn22	Zn	0.830590	-0.080104	-0.104371
Zn23	Zn	1.163923	0.253230	0.228963
Zn24	Zn	1.497257	0.586563	0.562296
Zn25	Zn	0.830614	0.080323	-0.104379
Zn26	Zn	1.163948	0.413656	0.228955
Zn27	Zn	1.497281	0.746990	0.562288
O28	O	0.831405	-0.060765	-0.218511
O29	O	1.164738	0.272568	0.114822
O30	O	1.498072	0.605901	0.448155
C31	C	0.703295	0.000094	-0.110548
C32	C	1.036629	0.333427	0.222785
C33	C	1.369962	0.666761	0.556118
C34	C	0.625715	0.000084	-0.109275
C35	C	0.959049	0.333418	0.224058
C36	C	1.292382	0.666751	0.557391
C37	C	0.589298	0.066459	-0.108667
C38	C	0.922631	0.399792	0.224666
C39	C	1.255965	0.733125	0.557999
C40	C	0.516404	0.066468	-0.107463
C41	C	0.849737	0.399801	0.225871
C42	C	1.183070	0.733134	0.559204
C43	C	0.479931	0.000099	-0.106850
C44	C	0.813264	0.333432	0.226483
C45	C	1.146597	0.666765	0.559817
C46	C	0.516357	-0.066284	-0.107463
C47	C	0.849690	0.267049	0.225871
C48	C	1.183023	0.600382	0.559204
C49	C	0.589249	-0.066292	-0.108675
C50	C	0.922582	0.267042	0.224658
C51	C	1.255916	0.600375	0.557991
N52	N	0.368181	-0.049296	-0.060332
N53	N	0.701514	0.284038	0.273002
N54	N	1.034848	0.617371	0.606335
N55	N	0.298937	-0.049284	-0.059178
N56	N	0.632270	0.284049	0.274155
N57	N	0.965603	0.617382	0.607489
C58	C	0.260310	0.000116	-0.103198
C59	C	0.593644	0.333450	0.230135
C60	C	0.926977	0.666783	0.563469
N61	N	0.293545	0.049516	-0.148406
N62	N	0.626879	0.382850	0.184928
N63	N	0.960212	0.716183	0.518261
N64	N	0.362796	0.049507	-0.149556
N65	N	0.696130	0.382840	0.183777
N66	N	1.029463	0.716174	0.517111
C67	C	0.400891	0.000099	-0.105536
C68	C	0.734225	0.333432	0.227798
C69	C	1.067558	0.666766	0.561131
C70	C	0.144853	0.066505	-0.101285
C71	C	0.478186	0.399838	0.232049
C72	C	0.811519	0.733172	0.565382
C73	C	0.071957	0.066511	-0.100085
C74	C	0.405290	0.399845	0.233249
C75	C	0.738624	0.733178	0.566582
C76	C	0.071912	-0.066243	-0.100077
C77	C	0.405245	0.267090	0.233256
C78	C	0.738579	0.600424	0.566590
C79	C	0.144806	-0.066247	-0.101285
C80	C	0.478139	0.267086	0.232048
C81	C	0.811473	0.600419	0.565382
C82	C	0.181272	0.000129	-0.101885
C83	C	0.514605	0.333462	0.231448
C84	C	0.847939	0.666795	0.564782
N85	N	0.830578	-0.189591	-0.104365
N86	N	1.163912	0.143743	0.228969
N87	N	1.497245	0.477076	0.562302
C88	C	0.875079	-0.227896	-0.050928
C89	C	1.208412	0.105437	0.282405
C90	C	1.541745	0.438770	0.615739
C91	C	0.875083	-0.304541	-0.050924
C92	C	1.208416	0.028792	0.282409
C93	C	1.541750	0.362125	0.615742
C94	C	0.830594	-0.342877	-0.104371
C95	C	1.163928	-0.009544	0.228963
C96	C	1.497261	0.323789	0.562296
C97	C	0.786085	-0.304562	-0.157811
C98	C	1.119419	0.028771	0.175522
C99	C	1.452752	0.362104	0.508855
C100	C	0.786077	-0.227919	-0.157808
C101	C	1.119411	0.105415	0.175525
C102	C	1.452744	0.438748	0.508858
N103	N	0.825580	-0.463207	-0.173769
N104	N	1.158913	-0.129874	0.159564
N105	N	1.492246	0.203460	0.492897
N106	N	0.825591	-0.536015	-0.173770
N107	N	1.158925	-0.202682	0.159564
N108	N	1.492258	0.130652	0.492897
C109	C	0.830614	-0.573800	-0.104382
C110	C	1.163948	-0.240466	0.228951
C111	C	1.497281	0.092867	0.562285
N112	N	0.835639	-0.536026	-0.034992
N113	N	1.168973	-0.202693	0.298342
N114	N	1.502306	0.130641	0.631675
N115	N	0.835631	-0.463211	-0.034992
N116	N	1.168965	-0.129878	0.298342
N117	N	1.502298	0.203455	0.631675
C118	C	0.830598	-0.425984	-0.104380
C119	C	1.163931	-0.092651	0.228954
C120	C	1.497264	0.240682	0.562287
C121	C	0.875122	-0.695213	-0.050937
C122	C	1.208455	-0.361880	0.282396
C123	C	1.541788	-0.028546	0.615730
C124	C	0.875121	-0.771859	-0.050932
C125	C	1.208454	-0.438526	0.282401
C126	C	1.541788	-0.105193	0.615734
C127	C	0.786127	-0.771879	-0.157826
C128	C	1.119461	-0.438545	0.175507
C129	C	1.452794	-0.105212	0.508840
C130	C	0.786124	-0.695234	-0.157824
C131	C	1.119458	-0.361900	0.175509
C132	C	1.452791	-0.028567	0.508843
C133	C	0.830625	-0.656906	-0.104380
C134	C	1.163958	-0.323572	0.228953
C135	C	1.497292	0.009761	0.562286
C136	C	0.957909	0.000127	-0.098201
C137	C	1.291242	0.333460	0.235133
C138	C	1.624576	0.666794	0.568466
C139	C	1.035489	0.000141	-0.099474
C140	C	1.368822	0.333475	0.233860
C141	C	1.702156	0.666808	0.567193
C142	C	0.827701	0.000104	0.038970
C143	C	1.161035	0.333437	0.372304
C144	C	1.494368	0.666770	0.705637
C145	C	0.821468	0.000103	0.125993
C146	C	1.154802	0.333436	0.459326
C147	C	1.488135	0.666770	0.792659
N148	N	0.830631	0.189810	-0.104378
N149	N	1.163964	0.523143	0.228955
N150	N	1.497298	0.856477	0.562288
C151	C	0.833503	0.000117	-0.247720
C152	C	1.166836	0.333451	0.085614
C153	C	1.500170	0.666784	0.418947
C154	C	0.839736	0.000123	-0.334742
C155	C	1.173069	0.333456	-0.001408
C156	C	1.506403	0.666789	0.331925
C157	C	0.881608	0.000110	0.176445
C158	C	1.214941	0.333443	0.509779
C159	C	1.548275	0.666776	0.843112
C160	C	0.875747	0.000116	0.258211
C161	C	1.209081	0.333449	0.591545
C162	C	1.542414	0.666783	0.924878
C163	C	0.809746	0.000110	0.289523
C164	C	1.143079	0.333444	0.622856
C165	C	1.476413	0.666777	0.956189
C166	C	0.749602	0.000106	0.239064
C167	C	1.082935	0.333439	0.572397
C168	C	1.416268	0.666773	0.905730
C169	C	0.755463	0.000105	0.157299
C170	C	1.088796	0.333438	0.490633
C171	C	1.422130	0.666772	0.823966
C172	C	0.785453	0.000117	0.533035
C173	C	1.118786	0.333451	0.866368
C174	C	1.452120	0.666784	1.199701
C175	C	0.779596	0.000116	0.614806
C176	C	1.112930	0.333450	0.948139
C177	C	1.446263	0.666783	1.281472
C178	C	0.905743	0.000128	0.633948
C179	C	1.239076	0.333461	0.967281
C180	C	1.572409	0.666794	1.300614
C181	C	0.911598	0.000122	0.552181
C182	C	1.244931	0.333456	0.885514
C183	C	1.578265	0.666789	1.218848
C184	C	0.851454	0.000122	0.501729
C185	C	1.184787	0.333455	0.835062
C186	C	1.518120	0.666788	1.168395
N187	N	0.803754	0.000114	0.373100
N188	N	1.137087	0.333448	0.706434
N189	N	1.470421	0.666781	1.039767
N190	N	0.857446	0.000123	0.418153
N191	N	1.190780	0.333456	0.751486
N192	N	1.524113	0.666790	1.084819
H193	H	0.618900	-0.120343	-0.109171
H194	H	0.952233	0.212990	0.224162
H195	H	1.285566	0.546323	0.557495
H196	H	0.486656	-0.120323	-0.106966
H197	H	0.819989	0.213011	0.226367
H198	H	1.153322	0.546344	0.559701
H199	H	0.935353	0.000110	0.150958
H200	H	1.268687	0.333443	0.484292
H201	H	1.602020	0.666776	0.817625
H202	H	0.911321	-0.335736	-0.007408
H203	H	1.244655	-0.002403	0.325925
H204	H	1.577988	0.330931	0.659258
H205	H	0.042216	-0.120282	-0.099583
H206	H	0.375549	0.213051	0.233750
H207	H	0.708883	0.546385	0.567083
H208	H	0.924720	0.000120	0.299287
H209	H	1.258053	0.333453	0.632621
H210	H	1.591387	0.666786	0.965954
H211	H	0.174458	-0.120297	-0.101775
H212	H	0.507791	0.213037	0.231558
H213	H	0.841124	0.546370	0.564892
H214	H	0.749901	-0.803091	-0.201340
H215	H	1.083234	-0.469758	0.131993
H216	H	1.416568	-0.136424	0.465326
H217	H	0.749891	-0.664043	-0.201340
H218	H	1.083224	-0.330710	0.131993
H219	H	1.416558	0.002624	0.465326
H220	H	0.749839	-0.196729	-0.201323
H221	H	1.083172	0.136604	0.132010
H222	H	1.416506	0.469937	0.465343
H223	H	0.725847	0.000100	0.640295
H224	H	1.059181	0.333433	0.973629
H225	H	1.392514	0.666766	1.306962
H226	H	0.911355	-0.664005	-0.007418
H227	H	1.244688	-0.330672	0.325916
H228	H	1.578022	0.002662	0.659249
H229	H	0.749861	-0.335779	-0.201327
H230	H	1.083194	-0.002446	0.132006
H231	H	1.416528	0.330887	0.465340
H232	H	0.965343	0.000127	0.526694
H233	H	1.298677	0.333460	0.860027
H234	H	1.632010	0.666793	1.193360
H235	H	0.954708	0.000129	0.675034
H236	H	1.288042	0.333463	1.008367
H237	H	1.621375	0.666796	1.341701
H238	H	0.486747	0.120519	-0.106969
H239	H	0.820080	0.453853	0.226365
H240	H	1.153413	0.787186	0.559698
H241	H	0.736479	0.000117	0.491966
H242	H	1.069812	0.333450	0.825299
H243	H	1.403146	0.666783	1.158633
H244	H	0.911312	-0.196692	-0.007409
H245	H	1.244645	0.136641	0.325924
H246	H	1.577979	0.469975	0.659257
H247	H	0.174545	0.120552	-0.101782
H248	H	0.507878	0.453886	0.231552
H249	H	0.841211	0.787219	0.564885
H250	H	0.695862	0.000106	0.264564
H251	H	1.029195	0.333439	0.597897
H252	H	1.362529	0.666773	0.931230
H253	H	0.911356	-0.803049	-0.007414
H254	H	1.244689	-0.469715	0.325920
H255	H	1.578023	-0.136382	0.659253
H256	H	0.706491	0.000100	0.116221
H257	H	1.039824	0.333433	0.449554
H258	H	1.373157	0.666766	0.782887
H259	H	0.618984	0.120507	-0.109156
H260	H	0.952318	0.453841	0.224177
H261	H	1.285651	0.787174	0.557511
H262	H	0.042307	0.120563	-0.099594
H263	H	0.375640	0.453897	0.233739
H264	H	0.708973	0.787230	0.567072
