data_functionalizedCrystal
_audit_creation_method	'MofGen! by Chris Wilmer'
_symmetry_space_group_name_H-M	'P1'
_symmetry_Int_Tables_number	1
_symmetry_cell_setting	triclinic
loop_
_symmetry_equiv_pos_as_xyz
  x,y,z
_cell_length_a	10.654545
_cell_length_b	15.944551
_cell_length_c	9.130313
_cell_angle_alpha	89.994529
_cell_angle_beta	89.996934
_cell_angle_gamma	83.990908
loop_
_atom_site_label
_atom_site_type_symbol
_atom_site_fract_x
_atom_site_fract_y
_atom_site_fract_z
O1	O	1.666317	0.117958	-0.121788
O2	O	1.300692	0.129202	-0.121795
O3	O	1.493489	0.001363	-0.121778
O4	O	1.473520	0.245798	-0.121805
O5	O	1.493475	0.001359	0.121821
O6	O	1.300679	0.129199	0.121804
O7	O	1.666303	0.117955	0.121811
Cu8	Cu	1.483490	0.123576	0.144050
Cu9	Cu	1.483505	0.123581	-0.144034
O10	O	1.473507	0.245794	0.121794
C11	C	1.253898	0.128376	0.000004
C12	C	1.114486	0.125908	0.000002
C13	C	1.048990	0.124744	0.132789
C14	C	0.918000	0.122412	0.132789
C15	C	0.918015	0.122410	-0.132796
C16	C	1.049003	0.124737	-0.132795
C17	C	1.492653	-0.029937	0.000022
C18	C	1.490168	-0.123198	0.000022
C19	C	1.364723	-0.338779	-0.000000
C20	C	1.422969	-0.399462	0.120110
C21	C	1.485672	-0.293950	0.000011
C22	C	1.423010	-0.399441	-0.120059
C23	C	1.481320	-0.458887	-0.000006
C24	C	1.543951	-0.353404	0.120220
C25	C	1.543975	-0.353377	-0.120057
C26	C	1.602309	-0.414042	0.000082
C27	C	1.488175	-0.198933	0.000022
C28	C	1.478825	-0.553903	-0.000007
C29	C	1.713097	0.118781	0.000009
C30	C	1.852509	0.121249	0.000001
C31	C	1.474342	0.277094	-0.000009
C32	C	1.476827	0.370355	-0.000019
N33	N	1.483488	0.123573	0.346673
N34	N	1.483517	0.123578	-0.346657
C35	C	1.568887	0.066990	0.423332
C36	C	1.568899	0.066990	0.576669
C37	C	1.398109	0.180164	0.576673
C38	C	1.398092	0.180159	0.423339
H39	H	1.102333	0.125682	-0.240932
C40	C	1.550020	-0.349838	0.383007
C41	C	1.612944	-0.326032	0.257458
H42	H	1.592617	-0.332943	0.467729
H43	H	1.465891	-0.323390	0.382656
H44	H	1.548899	-0.409332	0.383790
H45	H	1.614056	-0.266537	0.256669
H46	H	1.697095	-0.352477	0.257809
C47	C	1.800953	-0.434798	0.126034
C48	C	1.737948	-0.458032	0.000172
H49	H	1.884685	-0.461962	0.126096
H50	H	1.803254	-0.375410	0.126829
H51	H	1.757657	-0.451278	0.210535
H52	H	1.781239	-0.441546	-0.084329
H53	H	1.735653	-0.517433	-0.000637
C54	C	0.756602	0.191880	-0.286876
C55	C	0.846029	0.121135	-0.278760
H56	H	0.712168	0.191096	-0.376995
H57	H	0.698854	0.190848	-0.207801
H58	H	0.798142	0.241676	-0.281359
H59	H	0.804487	0.071339	-0.284266
H60	H	0.903785	0.122160	-0.357857
H61	H	1.102302	0.125698	0.240920
C62	C	0.891803	0.049624	0.359176
C63	C	0.846012	0.121135	0.278757
H64	H	0.847365	0.048839	0.449299
H65	H	0.879908	0.000354	0.304629
H66	H	0.979187	0.051188	0.378161
H67	H	0.758629	0.119567	0.259763
H68	H	0.857895	0.170417	0.333316
C69	C	1.166160	-0.317696	0.126089
C70	C	1.229202	-0.294589	0.000153
H71	H	1.082502	-0.290409	0.126190
H72	H	1.163654	-0.377065	0.126949
H73	H	1.209563	-0.301269	0.210538
H74	H	1.185805	-0.311022	-0.084297
H75	H	1.231702	-0.235207	-0.000720
H76	H	1.371807	-0.419867	0.221652
H77	H	1.595093	-0.332950	-0.221604
C78	C	1.229559	-0.388591	-0.256897
C79	C	1.353941	-0.426952	-0.257143
H80	H	1.186917	-0.405569	-0.341527
H81	H	1.187418	-0.405140	-0.171621
H82	H	1.229989	-0.329044	-0.257400
H83	H	1.353510	-0.486499	-0.256628
H84	H	1.396092	-0.410408	-0.342441
H85	H	1.638420	0.020913	0.360913
C86	C	1.737725	-0.044868	0.561252
C87	C	1.662778	0.004795	0.660932
H88	H	1.795687	-0.083263	0.613275
H89	H	1.685451	-0.075410	0.501467
H90	H	1.782881	-0.009611	0.501426
H91	H	1.617614	-0.030462	0.720751
H92	H	1.715058	0.035339	0.720742
C93	C	1.180719	0.228128	0.623934
C94	C	1.304250	0.242361	0.660957
H95	H	1.122777	0.266525	0.675975
H96	H	1.168492	0.236228	0.521656
H97	H	1.167108	0.171980	0.649088
H98	H	1.317864	0.298508	0.635794
H99	H	1.316483	0.234268	0.763258
C100	C	1.324341	0.325118	0.376089
C101	C	1.304218	0.242363	0.339063
H102	H	1.266392	0.363516	0.324052
H103	H	1.312125	0.333217	0.478368
H104	H	1.408151	0.334750	0.350932
H105	H	1.220410	0.232729	0.364231
H106	H	1.316424	0.234261	0.236762
