data_functionalizedCrystal
_audit_creation_method	'MofGen! by Chris Wilmer'
_symmetry_space_group_name_H-M	'P1'
_symmetry_Int_Tables_number	1
_symmetry_cell_setting	triclinic
loop_
_symmetry_equiv_pos_as_xyz
  x,y,z
_cell_length_a	11.792254
_cell_length_b	15.995362
_cell_length_c	10.868271
_cell_angle_alpha	90.000252
_cell_angle_beta	90.004259
_cell_angle_gamma	96.152011
loop_
_atom_site_label
_atom_site_type_symbol
_atom_site_fract_x
_atom_site_fract_y
_atom_site_fract_z
O1	O	1.505949	-0.114813	0.102305
O2	O	1.175512	-0.126629	0.102306
O3	O	1.349756	0.001124	0.102315
O4	O	1.331705	-0.242567	0.102297
O5	O	1.349742	0.001129	-0.102330
O6	O	1.175498	-0.126624	-0.102338
O7	O	1.505935	-0.114808	-0.102339
Zn8	Zn	1.340714	-0.120715	-0.134831
Zn9	Zn	1.340733	-0.120722	0.134798
O10	O	1.331691	-0.242562	-0.102347
C11	C	1.133220	-0.125883	-0.000016
C12	C	1.007226	-0.123655	-0.000014
C13	C	0.904904	-0.121844	-0.000009
C14	C	0.776536	-0.119581	-0.000008
C15	C	1.349000	0.032325	-0.000003
C16	C	1.346756	0.125285	0.000012
C17	C	1.338694	0.463067	0.000035
C18	C	1.214598	0.416201	0.000491
C19	C	1.216844	0.319501	0.000022
C20	C	1.342693	0.295490	0.000024
C21	C	1.403892	0.336290	-0.116833
C22	C	1.400769	0.432939	-0.116923
C23	C	1.403349	0.433280	0.115796
C24	C	1.403325	0.336335	0.117333
C25	C	1.344959	0.200782	0.000014
C26	C	1.336432	0.557775	0.000037
C27	C	1.548226	-0.115555	-0.000015
C28	C	1.674221	-0.117783	-0.000008
N29	N	1.340709	-0.120710	-0.318845
C30	C	1.332432	0.726236	-0.000007
C31	C	1.334632	0.633272	0.000047
C32	C	1.340727	-0.120720	-0.569851
C33	C	1.340713	-0.120717	-0.430173
N34	N	1.340746	-0.120720	0.318812
H35	H	1.168736	0.291297	0.083789
H36	H	1.491878	0.464771	-0.122220
H37	H	1.362780	0.454003	0.204371
H38	H	1.165002	0.434958	0.084295
H39	H	1.356127	0.451447	-0.204279
Br40	Br	1.557997	0.312047	-0.124081
Br41	Br	1.333031	0.289318	-0.261792
Br42	Br	1.329374	0.290715	0.261444
H43	H	1.168401	0.291860	-0.083893
Br44	Br	1.556290	0.310027	0.129110
H45	H	1.165210	0.436023	-0.082843
Br46	Br	1.555846	0.485518	0.117118
