data_functionalizedCrystal
_audit_creation_method	'MofGen! by Chris Wilmer'
_symmetry_space_group_name_H-M	'P1'
_symmetry_Int_Tables_number	1
_symmetry_cell_setting	triclinic
loop_
_symmetry_equiv_pos_as_xyz
  x,y,z
_cell_length_a	31.640172
_cell_length_b	20.875641
_cell_length_c	20.875641
_cell_angle_alpha	60.089808
_cell_angle_beta	90.005689
_cell_angle_gamma	62.438275
loop_
_atom_site_label
_atom_site_type_symbol
_atom_site_fract_x
_atom_site_fract_y
_atom_site_fract_z
Zr1	Zr	0.426526	0.694272	-0.105685
O2	O	0.364586	0.820523	-0.208961
O3	O	0.443197	0.563014	-0.070750
O4	O	0.449422	0.687036	-0.204221
O5	O	0.356087	0.703955	0.026068
O6	O	0.518978	0.687024	-0.204207
O7	O	0.358361	0.696501	-0.075490
O8	O	0.507843	0.465170	0.034548
O9	O	0.367222	0.925808	-0.212687
O10	O	0.505016	0.618847	-0.059797
O11	O	0.451410	0.624419	0.015985
O12	O	0.458739	0.770439	-0.141160
O13	O	0.405132	0.776011	-0.065378
Zr14	Zr	0.533834	0.706140	0.056312
Zr15	Zr	0.537461	0.694252	-0.105662
Zr16	Zr	0.422900	0.706160	0.056290
Zr17	Zr	0.430731	0.862189	-0.111626
Zr18	Zr	0.529630	0.538223	0.062254
O19	O	0.517164	0.837398	0.021377
O20	O	0.522320	0.820495	-0.208930
O21	O	0.359429	0.837426	0.021345
O22	O	0.595775	0.579889	0.159589
O23	O	0.600931	0.562986	-0.070718
O24	O	0.438041	0.579917	0.159557
O25	O	0.604274	0.696457	-0.075441
O26	O	0.510939	0.713376	0.154848
O27	O	0.441383	0.713388	0.154834
O28	O	0.602000	0.703911	0.026118
O29	O	0.455400	0.925792	-0.212669
O30	O	0.504961	0.474620	0.163296
O31	O	0.593139	0.474604	0.163314
O32	O	0.596021	0.465155	0.034566
O33	O	0.364339	0.935257	-0.083939
O34	O	0.452517	0.935241	-0.083921
O35	O	0.501622	0.629973	0.091787
O36	O	0.555228	0.624401	0.016006
O37	O	0.508951	0.775993	-0.065357
O38	O	0.455345	0.781565	0.010424
C39	C	0.474921	0.490167	-0.017254
C40	C	0.473136	0.418882	-0.014732
C41	C	0.500278	0.382484	-0.053104
C42	C	0.498602	0.315500	-0.050727
C43	C	0.469781	0.284919	-0.009981
C44	C	0.442638	0.321321	0.028396
C45	C	0.444317	0.388300	0.026023
C46	C	0.461761	0.084910	0.001363
C47	C	0.460083	0.017928	0.003731
C48	C	0.516047	0.012110	-0.075390
C49	C	0.517722	0.079094	-0.077764
C50	C	0.490581	0.115487	-0.039383
N51	N	0.468066	0.216453	-0.007552
N52	N	0.492299	0.183948	-0.041808
C53	C	0.341418	0.700230	-0.024714
C54	C	0.294324	0.700239	-0.024724
C55	C	0.026472	0.621069	0.017800
C56	C	-0.150514	0.621054	0.017815
O57	O	-0.152856	0.553759	0.053963
N58	N	-0.196800	0.700183	-0.024656
C59	C	-0.198839	0.779322	-0.067131
O60	O	-0.242269	0.846626	-0.103249
C61	C	-0.021854	0.779336	-0.067141
C62	C	0.024432	0.700201	-0.024673
C63	C	0.072755	0.541941	0.060265
C64	C	0.116999	0.541945	0.060258
C65	C	0.114959	0.621077	0.017785
C66	C	0.068676	0.700205	-0.024681
C67	C	-0.023893	0.858473	-0.109611
C68	C	0.020358	0.858470	-0.109608
C69	C	0.066644	0.779336	-0.067140
C70	C	0.110879	0.779342	-0.067162
N71	N	0.157165	0.700213	-0.024690
C72	C	0.159205	0.621081	0.017783
C73	C	-0.291757	0.779309	-0.067123
C74	C	-0.336003	0.779305	-0.067122
C75	C	-0.287675	0.621038	0.017826
C76	C	-0.243428	0.621042	0.017819
C77	C	-0.245471	0.700180	-0.024652
C78	C	0.252118	0.621096	0.017763
C79	C	0.296364	0.621107	0.017749
C80	C	0.248032	0.779374	-0.067195
C81	C	0.203790	0.779363	-0.067184
C82	C	0.205837	0.700217	-0.024699
O83	O	0.113260	0.846602	-0.103283
O84	O	0.202640	0.553788	0.053910
C85	C	-0.017772	0.621065	0.017808
C86	C	-0.064055	0.700193	-0.024658
C87	C	-0.066095	0.779325	-0.067131
C88	C	-0.108302	0.700189	-0.024656
C89	C	-0.106262	0.621057	0.017817
C90	C	-0.059976	0.541929	0.060288
C91	C	-0.015732	0.541933	0.060281
C92	C	-0.112381	0.858454	-0.109603
C93	C	-0.156623	0.858443	-0.109592
C94	C	-0.154583	0.779311	-0.067119
C95	C	0.618942	0.700181	-0.024658
C96	C	0.666037	0.700173	-0.024649
C97	C	0.484716	0.685336	-0.227292
C98	C	0.486256	0.680289	-0.296054
C99	C	0.485440	0.910244	-0.032118
C100	C	0.487225	0.981530	-0.034641
C101	C	0.462824	0.757046	-0.370829
C102	C	0.464277	0.752298	-0.435436
C103	C	0.489159	0.670794	-0.425266
C104	C	0.512595	0.594032	-0.350483
C105	C	0.511144	0.598780	-0.285878
C106	C	0.496090	0.648109	-0.613930
C107	C	0.497537	0.643366	-0.678543
C108	C	0.449220	0.801634	-0.763492
C109	C	0.447769	0.806374	-0.698882
C110	C	0.471207	0.729612	-0.624105
N111	N	0.490644	0.665940	-0.491303
N112	N	0.469725	0.734467	-0.558069
C113	C	0.475644	0.715076	0.177919
C114	C	0.474105	0.720123	0.246681
C115	C	0.613683	0.490143	-0.017226
C116	C	0.658993	0.418850	-0.014694
C117	C	0.470385	0.505038	0.185351
C118	C	0.467061	0.438799	0.256636
C119	C	0.609147	0.505013	0.185379
C120	C	0.652917	0.438766	0.256673
C121	C	0.351214	0.895399	-0.234752
C122	C	0.307444	0.961646	-0.306046
C123	C	0.346678	0.910269	-0.032146
C124	C	0.301368	0.981562	-0.034678
C125	C	0.489976	0.895374	-0.234724
C126	C	0.493300	0.961613	-0.306009
C127	C	0.654061	0.382470	-0.053080
C128	C	0.696630	0.315490	-0.050717
C129	C	0.744131	0.284887	-0.009962
C130	C	0.749063	0.321274	0.028425
C131	C	0.706494	0.388256	0.026056
C132	C	0.491709	0.410592	0.329687
C133	C	0.488584	0.348364	0.396672
C134	C	0.460812	0.314339	0.390605
C135	C	0.436160	0.342552	0.317546
C136	C	0.439283	0.404784	0.250563
C137	C	0.701459	0.404748	0.250597
C138	C	0.742590	0.342511	0.317579
C139	C	0.735179	0.314289	0.390637
C140	C	0.686632	0.348314	0.396712
C141	C	0.645502	0.410555	0.329730
C142	C	0.258902	0.995672	-0.299970
C143	C	0.217772	1.057930	-0.366952
C144	C	0.225183	1.086155	-0.440010
C145	C	0.273729	1.052126	-0.446085
C146	C	0.314859	0.989874	-0.379104
C147	C	0.306301	1.017948	0.003701
C148	C	0.263732	1.084945	0.001319
C149	C	0.216231	1.115550	-0.039438
C150	C	0.211299	1.079161	-0.077822
C151	C	0.253868	1.012170	-0.075444
C152	C	0.521076	0.995618	-0.299916
C153	C	0.524210	1.057848	-0.366890
C154	C	0.499564	1.086075	-0.439954
C155	C	0.471787	1.052063	-0.446045
C156	C	0.468657	0.989830	-0.379072
H157	H	0.541190	0.103991	-0.110942
H158	H	0.249844	0.982546	-0.106695
H159	H	0.427509	0.872744	-0.707172
H160	H	0.541146	0.972645	-0.240430
C161	C	0.554764	1.095254	-0.360173
N162	N	0.577777	1.123427	-0.355112
C163	C	0.515710	0.317333	0.477030
N164	N	0.536144	0.293960	0.537553
C165	C	0.545904	-0.027933	-0.117599
N166	N	0.568396	-0.058097	-0.149389
C167	C	0.457387	0.245874	0.464298
N168	N	0.454812	0.194302	0.519806
C169	C	0.428357	-0.015680	0.048525
N170	N	0.404454	-0.040981	0.082249
C171	C	0.405615	0.305111	0.310886
N172	N	0.382612	0.276904	0.305872
H173	H	0.692605	0.285872	-0.081976
H174	H	0.514324	0.438289	0.334642
H175	H	0.787744	0.296347	0.061606
H176	H	0.344974	0.993035	0.036894
C177	C	0.269167	1.124955	0.043553
N178	N	0.273263	1.155086	0.075366
C179	C	0.531984	0.416116	-0.097927
N180	N	0.555868	0.441442	-0.131687
H181	H	0.166102	0.843800	-0.101775
H182	H	0.451721	1.075056	-0.505543
C183	C	0.795986	0.305086	0.310879
N184	N	0.836203	0.276897	0.305831
C185	C	0.412171	0.435794	0.170208
N186	N	0.391750	0.459147	0.109686
H187	H	0.419174	0.296413	0.061576
H188	H	0.279758	1.075115	-0.505577
C189	C	0.368254	0.952440	-0.385800
N190	N	0.408470	0.924246	-0.390850
H191	H	0.605979	0.438245	0.334689
C192	C	0.790953	0.211198	-0.007358
N193	N	0.826218	0.155692	-0.005397
H194	H	0.710516	0.417868	0.057319
H195	H	0.446036	0.962150	-0.384043
C196	C	0.169409	1.189240	-0.042042
N197	N	0.134144	1.244741	-0.043998
C198	C	-0.192517	0.533989	0.064543
N199	N	-0.154172	0.468417	0.099739
H200	H	0.018689	0.922916	-0.144184
H201	H	0.422214	0.417937	0.057267
H202	H	0.520703	0.285864	-0.081972
C203	C	0.709623	0.435785	0.170239
N204	N	0.715777	0.459162	0.109715
C205	C	0.254377	0.534031	0.064493
N206	N	0.256079	0.468453	0.099684
C207	C	0.780428	0.245815	0.464312
N208	N	0.814512	0.194237	0.519801
C209	C	0.164375	1.095350	-0.360252
N210	N	0.124158	1.123532	-0.355204
C211	C	0.503011	1.154536	-0.513619
N212	N	0.505608	1.206102	-0.569101
H213	H	0.680605	0.325327	0.456205
H214	H	0.252858	0.972695	-0.240488
H215	H	0.172618	1.104090	-0.111005
H216	H	0.191688	1.136845	-0.494545
C217	C	0.167909	0.454891	0.106984
N218	N	0.206253	0.389317	0.142183
C219	C	0.521867	0.563667	-0.531683
N220	N	0.541282	0.500062	-0.469729
H221	H	0.334051	0.556663	0.052335
C222	C	0.431923	0.124906	0.043611
N223	N	0.409454	0.155024	0.075446
H224	H	0.074425	0.477499	0.094856
H225	H	-0.373687	0.843744	-0.101714
C226	C	-0.074800	0.945529	-0.156328
N227	N	-0.113143	1.011105	-0.191516
C228	C	-0.294013	0.866372	-0.113858
N229	N	-0.295714	0.931948	-0.149065
H230	H	0.246380	0.843801	-0.101778
C231	C	0.035178	0.454878	0.107004
N232	N	0.073523	0.389304	0.142200
C233	C	0.539964	0.504376	-0.339297
N234	N	0.560578	0.436845	-0.330871
C235	C	-0.057740	0.454883	0.107010
N236	N	-0.056060	0.389324	0.142203
H237	H	-0.286021	0.556605	0.052404
H238	H	-0.194309	0.922888	-0.144182
H239	H	-0.114050	0.922894	-0.144191
H240	H	0.442558	0.823415	-0.379120
H241	H	0.445197	0.814802	-0.496320
H242	H	0.517799	0.576992	-0.670254
H243	H	0.430139	0.864129	-0.824381
H244	H	0.530225	0.536276	-0.224992
H245	H	0.615387	0.407385	-0.086277
