data_functionalizedCrystal
_audit_creation_method	'MofGen! by Chris Wilmer'
_symmetry_space_group_name_H-M	'P1'
_symmetry_Int_Tables_number	1
_symmetry_cell_setting	triclinic
loop_
_symmetry_equiv_pos_as_xyz
  x,y,z
_cell_length_a	10.654550
_cell_length_b	23.532357
_cell_length_c	9.130313
_cell_angle_alpha	89.993247
_cell_angle_beta	89.996220
_cell_angle_gamma	83.656597
loop_
_atom_site_label
_atom_site_type_symbol
_atom_site_fract_x
_atom_site_fract_y
_atom_site_fract_z
O1	O	1.665268	0.079984	-0.121940
O2	O	1.299545	0.087605	-0.121918
O3	O	1.493468	0.000933	-0.121899
O4	O	1.471346	0.166656	-0.121958
O5	O	1.493466	0.000935	0.121700
O6	O	1.299543	0.087607	0.121681
O7	O	1.665266	0.079986	0.121659
Cu8	Cu	1.482404	0.083797	0.143913
Cu9	Cu	1.482407	0.083794	-0.144171
O10	O	1.471343	0.166658	0.121641
C11	C	1.252764	0.087046	-0.000115
C12	C	1.113375	0.085372	-0.000106
C13	C	1.492913	-0.020286	-0.000095
C14	C	1.491250	-0.083516	-0.000081
C15	C	1.032252	0.136403	-0.000145
C16	C	0.901282	0.134827	-0.000170
C17	C	0.932570	0.031184	-0.000122
C18	C	1.063537	0.032761	-0.000087
C19	C	1.082089	0.189015	-0.000164
C20	C	1.000965	0.240050	-0.000205
C21	C	0.869995	0.238473	-0.000230
C22	C	0.820149	0.185862	-0.000214
C23	C	1.480807	-0.475596	-0.132946
C24	C	1.479225	-0.535006	-0.132954
O25	O	1.478366	-0.565729	-0.245883
N26	N	1.478440	-0.564721	-0.000170
C27	C	1.479223	-0.535023	0.132631
O28	O	1.478408	-0.565753	0.245573
C29	C	1.480795	-0.475613	0.132638
C30	C	1.481594	-0.445902	-0.000155
C31	C	1.481604	-0.445885	-0.265727
C32	C	1.483187	-0.386479	-0.265719
C33	C	1.483974	-0.356785	-0.132928
C34	C	1.483177	-0.386497	-0.000146
C35	C	1.481570	-0.445916	0.265437
C36	C	1.483141	-0.386502	0.265432
C37	C	1.483939	-0.356791	0.132640
C38	C	1.485548	-0.297397	0.132653
N39	N	1.486334	-0.267682	-0.000131
C40	C	1.485547	-0.297376	-0.132921
C41	C	1.475919	-0.659786	0.132607
C42	C	1.474355	-0.719194	0.132602
C43	C	1.474355	-0.719174	-0.132984
C44	C	1.475928	-0.659764	-0.132977
C45	C	1.476704	-0.630071	-0.000177
C46	C	1.488874	-0.172620	-0.132893
C47	C	1.490463	-0.113210	-0.132872
C48	C	1.490456	-0.113235	0.132712
C49	C	1.488874	-0.172641	0.132693
C50	C	1.488078	-0.202332	-0.000122
O51	O	1.486403	-0.266636	0.245525
O52	O	1.486345	-0.266638	-0.245845
C53	C	1.712047	0.080545	-0.000147
C54	C	1.851437	0.082219	-0.000166
C55	C	1.471898	0.187877	-0.000167
C56	C	1.473562	0.251107	-0.000190
N57	N	1.482411	0.083798	0.346535
N58	N	1.482410	0.083788	-0.346794
C59	C	1.568302	0.045433	0.423195
C60	C	1.568299	0.045426	0.576532
C61	C	1.396510	0.122155	0.576535
C62	C	1.396509	0.122159	0.423201
C63	C	1.654205	0.007073	0.346530
C64	C	1.740103	-0.031295	0.423190
C65	C	1.740100	-0.031302	0.576527
C66	C	1.654198	0.007059	0.653203
H67	H	1.188730	0.190304	-0.000151
H68	H	1.326574	0.153388	0.638975
H69	H	1.810034	-0.062530	0.360752
H70	H	1.483755	-0.362328	0.373577
C71	C	0.877733	-0.026685	-0.000118
N72	N	0.836430	-0.070273	-0.000122
C73	C	1.301997	0.164350	0.338870
N74	N	1.230796	0.196123	0.275352
H75	H	1.473710	-0.743361	-0.241109
H76	H	1.476555	-0.635613	0.240755
H77	H	1.041559	0.282884	-0.000206
C78	C	1.491337	-0.080531	-0.278960
N79	N	1.491992	-0.055919	-0.388991
H80	H	1.480922	-0.470096	0.373571
H81	H	1.129590	-0.008793	-0.000058
C82	C	0.780762	0.294612	-0.000256
N83	N	0.713554	0.336898	-0.000279
H84	H	1.488235	-0.196834	0.240823
C85	C	1.484051	-0.353804	-0.411802
N86	N	1.484696	-0.329196	-0.521841
C87	C	1.473490	-0.751871	0.278684
N88	N	1.472828	-0.776480	0.388718
H89	H	1.810033	-0.062546	0.638942
C90	C	0.676076	0.184131	-0.000235
N91	N	0.567561	0.182828	-0.000259
H92	H	1.488220	-0.196787	-0.241043
C93	C	1.491309	-0.080560	0.278775
N94	N	1.491939	-0.055946	0.388791
C95	C	1.654200	0.007050	0.821879
N96	N	1.654208	0.007044	0.948924
C97	C	1.476794	-0.627087	-0.279058
N98	N	1.477443	-0.602477	-0.389092
C99	C	1.480792	-0.478542	-0.411821
N100	N	1.480209	-0.503137	-0.521868
H101	H	1.654217	0.007076	0.221675
