data_functionalizedCrystal
_audit_creation_method	'MofGen! by Chris Wilmer'
_symmetry_space_group_name_H-M	'P1'
_symmetry_Int_Tables_number	1
_symmetry_cell_setting	triclinic
loop_
_symmetry_equiv_pos_as_xyz
  x,y,z
_cell_length_a	13.033808
_cell_length_b	13.897448
_cell_length_c	13.897441
_cell_angle_alpha	90.028012
_cell_angle_beta	97.153135
_cell_angle_gamma	82.786240
loop_
_atom_site_label
_atom_site_type_symbol
_atom_site_fract_x
_atom_site_fract_y
_atom_site_fract_z
Zn1	Zn	1.597572	0.196436	-0.358386
Zn2	Zn	1.597452	0.357772	-0.197109
Zn3	Zn	1.422820	0.216994	-0.217561
Zn4	Zn	1.422794	0.378209	-0.378807
O5	O	1.510160	0.287353	-0.287966
O6	O	1.743786	0.200682	-0.319887
O7	O	1.574247	0.339148	-0.064845
O8	O	1.446062	0.079278	-0.236255
O9	O	1.743697	0.319214	-0.201398
O10	O	1.574452	0.064175	-0.339719
O11	O	1.445945	0.235719	-0.079871
O12	O	1.276587	0.255536	-0.256056
O13	O	1.446019	0.354046	-0.511075
O14	O	1.276568	0.373980	-0.374523
O15	O	1.574427	0.220498	-0.496072
O16	O	1.574222	0.495472	-0.221199
O17	O	1.445902	0.510487	-0.354692
C18	C	1.238662	0.319207	-0.319726
C19	C	1.122514	0.332858	-0.333335
C20	C	0.950669	0.294353	-0.294947
C21	C	1.070713	0.280245	-0.280877
C22	C	1.510074	0.537977	-0.287959
C23	C	1.510134	0.645184	-0.287978
C24	C	1.510236	0.841467	-0.288035
C25	C	1.510176	0.732242	-0.288006
C26	C	1.782717	0.255375	-0.256083
C27	C	1.898865	0.241748	-0.242496
C28	C	1.510234	0.287259	-0.539551
C29	C	1.510265	0.287219	-0.646761
C30	C	1.510265	1.035748	-0.288003
C31	C	1.510287	0.928531	-0.288050
C32	C	1.510294	0.287150	-0.843053
C33	C	1.510275	0.287192	-0.733822
C34	C	1.510146	0.287370	-0.037353
C35	C	1.510317	0.287114	0.069880
H36	H	1.077998	0.388345	-0.388659
C37	C	0.890536	0.369309	-0.369686
C38	C	0.905506	0.359825	-0.477613
C39	C	0.845378	0.434784	-0.552354
C40	C	0.770280	0.519227	-0.519168
C41	C	0.755307	0.528715	-0.411236
C42	C	0.815435	0.453756	-0.336495
H43	H	0.961101	0.297312	-0.502184
H44	H	0.856462	0.427760	-0.632252
H45	H	0.725770	0.574716	-0.574495
H46	H	0.699712	0.591228	-0.386665
H47	H	0.804351	0.460780	-0.256596
C48	C	0.958999	0.166793	-0.167758
C49	C	1.034098	0.082351	-0.200944
C50	C	1.094229	0.007394	-0.126203
C51	C	1.079261	0.016878	-0.018276
C52	C	1.004159	0.101324	0.014915
C53	C	0.944028	0.176281	-0.059825
H54	H	1.045181	0.075327	-0.280843
H55	H	1.149825	-0.055118	-0.150775
H56	H	1.123774	-0.038610	0.037051
H57	H	0.993076	0.108348	0.094814
H58	H	0.888432	0.238793	-0.035254
H59	H	1.115231	0.224763	-0.225549
