data_functionalizedCrystal
_audit_creation_method	'MofGen! by Chris Wilmer'
_symmetry_space_group_name_H-M	'P1'
_symmetry_Int_Tables_number	1
_symmetry_cell_setting	triclinic
loop_
_symmetry_equiv_pos_as_xyz
  x,y,z
_cell_length_a	15.995292
_cell_length_b	14.472311
_cell_length_c	14.044220
_cell_angle_alpha	89.997174
_cell_angle_beta	88.328747
_cell_angle_gamma	90.007223
loop_
_atom_site_label
_atom_site_type_symbol
_atom_site_fract_x
_atom_site_fract_y
_atom_site_fract_z
O1	O	1.120124	0.076869	0.121903
O2	O	0.877473	0.076866	0.137048
O3	O	0.995156	0.076858	-0.008508
O4	O	1.002441	0.076876	0.267460
O5	O	0.995141	-0.076824	-0.008489
O6	O	0.877457	-0.076816	0.137067
O7	O	1.120108	-0.076813	0.121923
Cu8	Cu	0.998781	-0.090847	0.129497
Cu9	Cu	0.998800	0.090900	0.129474
O10	O	1.002425	-0.076806	0.267479
C11	C	0.846224	0.000024	0.136441
C12	C	0.753133	0.000022	0.134594
N13	N	0.998774	-0.218678	0.129512
C14	C	0.414887	0.000032	0.127800
C15	C	0.446046	0.000382	0.232858
C16	C	0.542871	0.000032	0.234855
C17	C	0.582695	0.000028	0.131171
C18	C	0.549661	-0.087732	0.078658
C19	C	0.452776	-0.087802	0.077393
C20	C	0.452778	0.086963	0.075226
C21	C	0.549561	0.088119	0.079119
C22	C	0.677533	0.000022	0.133071
C23	C	0.320049	0.000032	0.125897
C24	C	0.998787	-0.407178	0.129491
C25	C	0.935804	-0.446405	0.207347
C26	C	0.935553	-0.553493	0.207135
C27	C	0.998800	-0.592769	0.129472
C28	C	0.972679	-0.553886	0.030456
C29	C	0.972212	-0.446765	0.030923
C30	C	1.088036	-0.446634	0.149759
C31	C	1.087623	-0.553763	0.151995
C32	C	0.998809	-0.697658	0.129455
C33	C	0.998777	-0.302290	0.129501
C34	C	1.151358	0.000030	0.122529
C35	C	1.244449	0.000038	0.124377
C36	C	0.991960	0.000017	-0.043812
C37	C	0.982449	0.000015	-0.149036
N38	N	0.998813	0.218730	0.129451
C39	C	0.965061	0.000028	-0.341693
C40	C	1.032517	0.000032	-0.399342
C41	C	1.022842	0.000039	-0.506543
C42	C	0.974734	0.000021	-0.234482
C43	C	1.005622	0.000038	0.302783
C44	C	1.015133	0.000045	0.408006
H45	H	0.564976	0.062945	0.275977
C46	C	0.878350	0.000215	-0.383176
C47	C	0.834980	0.079287	-0.352401
C48	C	0.755106	0.079493	-0.390619
H49	H	0.848686	-0.053319	-0.362405
H50	H	0.883254	0.000268	-0.450755
H51	H	0.830072	0.079225	-0.284836
H52	H	0.864619	0.132833	-0.373170
H53	H	0.760010	0.079546	-0.458198
H54	H	0.725449	0.025956	-0.369845
H55	H	0.725672	0.133146	-0.369751
C56	C	0.848139	-0.410607	0.190468
C57	C	0.792813	-0.446129	0.260369
C58	C	0.712053	-0.413160	0.244856
H59	H	0.830974	-0.429713	0.129353
H60	H	0.848050	-0.345033	0.193660
H61	H	0.792899	-0.511688	0.257168
H62	H	0.809951	-0.427025	0.321491
H63	H	0.711963	-0.347587	0.248048
H64	H	0.694896	-0.432268	0.183739
H65	H	0.674505	-0.437250	0.292285
C66	C	1.030442	-0.412183	-0.048799
C67	C	1.002732	-0.444783	-0.136282
C68	C	1.056342	-0.412929	-0.209739
H69	H	1.085500	-0.434099	-0.038990
H70	H	1.030534	-0.346537	-0.049103
H71	H	1.002650	-0.510416	-0.135976
H72	H	0.947682	-0.422870	-0.146122
H73	H	1.056434	-0.347284	-0.210044
H74	H	1.111397	-0.434848	-0.199921
H75	H	1.037544	-0.435037	-0.269106
H76	H	0.906908	-0.421798	0.013119
C77	C	0.412637	0.084329	0.286707
C78	C	0.363453	0.137275	0.226482
C79	C	0.332647	0.214608	0.276059
H80	H	0.458089	0.120569	0.307622
H81	H	0.379635	0.064629	0.340270
H82	H	0.396453	0.156976	0.172936
H83	H	0.317988	0.101062	0.205564
H84	H	0.299645	0.194908	0.329622
H85	H	0.378104	0.250840	0.296972
H86	H	0.299266	0.250537	0.235206
H87	H	1.111389	-0.419621	0.220444
H88	H	0.420029	-0.062196	0.273136
H89	H	0.576879	0.093416	0.003439
H90	H	0.564359	-0.062980	0.276246
H91	H	0.426910	0.153480	0.108055
C92	C	0.420748	-0.175374	0.125805
C93	C	0.452398	-0.252568	0.076672
C94	C	0.422927	-0.333255	0.121252
H95	H	0.361378	-0.176338	0.125493
H96	H	0.438674	-0.176787	0.189689
H97	H	0.434467	-0.251155	0.012805
H98	H	0.511766	-0.251634	0.076982
H99	H	0.440853	-0.334669	0.185136
H100	H	0.363557	-0.334210	0.120937
H101	H	0.444403	-0.385641	0.087927
C102	C	0.425862	-0.093176	-0.025371
C103	C	0.496827	-0.096343	-0.086048
C104	C	0.472071	-0.101312	-0.180717
H105	H	0.393477	-0.040278	-0.039900
H106	H	0.393324	-0.147312	-0.033905
H107	H	0.529352	-0.042213	-0.077520
H108	H	0.529220	-0.149239	-0.071551
H109	H	0.439532	-0.155448	-0.189251
H110	H	0.439686	-0.048412	-0.195236
H111	H	0.520216	-0.103470	-0.221898
H112	H	0.570994	0.153044	0.117354
C113	C	1.119142	-0.000025	-0.357624
C114	C	1.111645	-0.000057	-0.258047
C115	C	1.191422	-0.000125	-0.219580
H116	H	1.148783	0.053551	-0.378318
H117	H	1.148700	-0.053640	-0.378373
H118	H	1.082099	0.053554	-0.237307
H119	H	1.082018	-0.053629	-0.237327
H120	H	1.220979	-0.053740	-0.240329
H121	H	1.221056	0.053452	-0.240280
H122	H	1.186345	-0.000155	-0.152014
C123	C	0.426254	0.087812	-0.027824
C124	C	0.338874	0.091163	-0.030511
C125	C	0.314405	0.091951	-0.125419
H126	H	0.445885	0.033387	-0.058961
H127	H	0.449289	0.140513	-0.059243
H128	H	0.315847	0.038466	0.000894
H129	H	0.319221	0.145584	0.000605
H130	H	0.337440	0.144653	-0.156838
H131	H	0.334041	0.037526	-0.156548
H132	H	0.255116	0.094233	-0.127255
C133	C	0.580143	-0.174848	0.127145
C134	C	0.628421	-0.226985	0.062056
C135	C	0.656525	-0.307232	0.106697
H136	H	0.533461	-0.210336	0.149031
H137	H	0.613155	-0.158425	0.179690
H138	H	0.595410	-0.243411	0.009529
H139	H	0.675115	-0.191525	0.040167
H140	H	0.689537	-0.290809	0.159242
H141	H	0.609838	-0.342712	0.128581
H142	H	0.689291	-0.342613	0.062544
C143	C	0.957648	-0.588375	0.305338
C144	C	0.971354	-0.512999	0.365397
C145	C	0.991695	-0.545091	0.455876
H146	H	1.006905	-0.624931	0.300470
H147	H	0.912879	-0.624711	0.330850
H148	H	1.016119	-0.476679	0.339891
H149	H	0.922107	-0.476435	0.370293
H150	H	0.946926	-0.581427	0.481388
H151	H	1.040951	-0.581647	0.450999
H152	H	1.000989	-0.493954	0.496640
H153	H	0.575830	-0.090999	0.002360
H154	H	0.952229	-0.420650	0.281189
H155	H	0.869474	-0.579139	0.194141
H156	H	1.017044	-0.579324	-0.028896
H157	H	0.908085	-0.580740	0.012215
H158	H	1.137240	-0.580498	0.098988
C159	C	1.113869	-0.587833	0.249041
C160	C	1.116610	-0.684530	0.248911
C161	C	1.140792	-0.715954	0.338289
H162	H	1.074627	-0.567332	0.296520
H163	H	1.167668	-0.564066	0.262274
H164	H	1.062819	-0.708287	0.235689
H165	H	1.155854	-0.705056	0.201452
H166	H	1.194590	-0.692187	0.351522
H167	H	1.101547	-0.695446	0.385760
H168	H	1.142662	-0.781565	0.338210
H169	H	1.134991	-0.421259	0.092989
