data_functionalizedCrystal
_audit_creation_method	'MofGen! by Chris Wilmer'
_symmetry_space_group_name_H-M	'P1'
_symmetry_Int_Tables_number	1
_symmetry_cell_setting	triclinic
loop_
_symmetry_equiv_pos_as_xyz
  x,y,z
_cell_length_a	10.723024
_cell_length_b	13.448316
_cell_length_c	14.971486
_cell_angle_alpha	89.998269
_cell_angle_beta	84.041053
_cell_angle_gamma	89.995222
loop_
_atom_site_label
_atom_site_type_symbol
_atom_site_fract_x
_atom_site_fract_y
_atom_site_fract_z
O1	O	1.655879	-0.082681	0.125452
O2	O	1.292601	-0.082684	0.137460
O3	O	1.483977	-0.082680	0.001309
O4	O	1.464503	-0.082684	0.261604
O5	O	1.483957	0.082703	0.001307
O6	O	1.292582	0.082700	0.137459
O7	O	1.655860	0.082703	0.125451
Cu8	Cu	1.474219	0.097802	0.131455
Cu9	Cu	1.474242	-0.097783	0.131456
O10	O	1.464484	0.082700	0.261603
C11	C	1.246101	0.000008	0.136586
C12	C	1.107574	0.000007	0.133971
N13	N	1.474212	0.235367	0.131453
N14	N	1.474258	-0.235347	0.131451
C15	C	1.031795	0.000005	0.210155
C16	C	0.888620	0.000004	0.207454
C17	C	1.702360	0.000009	0.126325
C18	C	1.840887	0.000004	0.128940
C19	C	1.549968	0.287403	0.186201
C20	C	1.549984	0.391506	0.186197
C21	C	1.474236	0.443571	0.131450
C22	C	1.398477	0.391528	0.076696
C23	C	1.398469	0.287427	0.076695
C24	C	1.398497	0.608508	0.076702
C25	C	1.398502	0.712617	0.076703
C26	C	1.550011	0.712587	0.186204
C27	C	1.550003	0.608486	0.186203
C28	C	1.474242	0.556450	0.131450
C29	C	1.465365	0.000007	0.294933
C30	C	1.467975	0.000006	0.394244
C31	C	1.483096	0.000010	-0.032022
C32	C	1.480486	0.000005	-0.131333
C33	C	1.469212	-0.090146	0.440898
C34	C	1.471681	-0.090147	0.534210
C35	C	1.472902	0.000004	0.580867
C36	C	1.471668	0.090163	0.534206
C37	C	1.469209	0.090163	0.440895
C38	C	1.476791	0.090156	0.728696
C39	C	1.479248	0.090157	0.822013
C40	C	1.479263	-0.090154	0.822011
C41	C	1.476804	-0.090154	0.728700
C42	C	1.475567	0.000005	0.682045
H43	H	1.072915	0.000010	0.277377
Br44	Br	1.652770	0.537826	0.260530
Br45	Br	1.295706	0.783277	0.002398
H46	H	1.480260	-0.163565	0.860002
Br47	Br	0.780100	-0.000011	0.316164
Br48	Br	1.475124	0.212517	0.665379
Br49	Br	0.949399	-0.000006	0.020226
Br50	Br	1.295702	0.537888	0.002376
H51	H	1.611694	0.754960	0.230789
Br52	Br	1.473368	-0.212502	0.597522
Br53	Br	1.652770	0.216752	0.260509
Br54	Br	1.467542	0.212517	0.377576
Br55	Br	1.480937	0.212506	0.885331
H56	H	1.066454	-0.000018	0.066749
Br57	Br	1.652800	0.462123	0.260501
H58	H	1.475802	-0.163564	0.690715
Br59	Br	1.473338	0.212514	0.597524
H60	H	1.336780	0.245060	0.032114
Br61	Br	1.467541	-0.212502	0.377588
Br62	Br	1.295680	0.462187	0.002391
