data_functionalizedCrystal
_audit_creation_method	'MofGen! by Chris Wilmer'
_symmetry_space_group_name_H-M	'P1'
_symmetry_Int_Tables_number	1
_symmetry_cell_setting	triclinic
loop_
_symmetry_equiv_pos_as_xyz
  x,y,z
_cell_length_a	14.971486
_cell_length_b	14.044220
_cell_length_c	13.448316
_cell_angle_alpha	89.992660
_cell_angle_beta	89.998199
_cell_angle_gamma	88.401503
loop_
_atom_site_label
_atom_site_type_symbol
_atom_site_fract_x
_atom_site_fract_y
_atom_site_fract_z
O1	O	1.196679	0.123538	-0.082579
O2	O	1.696679	0.623538	0.417421
O3	O	0.937445	0.138332	-0.082607
O4	O	1.437445	0.638332	0.417393
O5	O	1.063171	-0.007054	-0.082584
O6	O	1.563171	0.492946	0.417416
O7	O	1.070953	0.268924	-0.082602
O8	O	1.570953	0.768924	0.417398
O9	O	1.063153	-0.007063	0.082800
O10	O	1.563153	0.492937	0.582800
O11	O	0.937427	0.138323	0.082777
O12	O	1.437427	0.638323	0.582777
O13	O	1.196661	0.123529	0.082804
O14	O	1.696661	0.623529	0.582804
Cu15	Cu	1.067042	0.130925	0.097892
Cu16	Cu	1.567042	0.630925	0.597892
Cu17	Cu	1.067064	0.130936	-0.097694
Cu18	Cu	1.567064	0.630936	0.402306
O19	O	1.070935	0.268915	0.082781
O20	O	1.570935	0.768915	0.582781
C21	C	0.904059	0.137666	0.000082
C22	C	1.404059	0.637666	0.500082
C23	C	0.804606	0.135683	0.000072
C24	C	1.304606	0.635683	0.500072
C25	C	0.754109	0.221093	0.000067
C26	C	1.254109	0.721093	0.500067
C27	C	0.660662	0.219225	0.000082
C28	C	1.160662	0.719225	0.500082
C29	C	0.617714	0.131945	0.000094
C30	C	1.117714	0.631945	0.500094
C31	C	0.668218	0.046528	0.000102
C32	C	1.168218	0.546528	0.500102
C33	C	0.761663	0.048398	0.000094
C34	C	1.261663	0.548398	0.500094
C35	C	0.473449	0.042638	0.000116
C36	C	0.973449	0.542638	0.500116
C37	C	0.379997	0.040767	0.000122
C38	C	0.879997	0.540767	0.500122
C39	C	0.372448	0.213465	0.000104
C40	C	0.872448	0.713465	0.500104
C41	C	0.465893	0.215334	0.000096
C42	C	0.965893	0.715334	0.500096
C43	C	0.516390	0.129917	0.000102
C44	C	1.016390	0.629917	0.500102
C45	C	1.059755	-0.042377	0.000108
C46	C	1.559755	0.457623	0.500108
C47	C	1.049594	-0.147614	0.000108
C48	C	1.549594	0.352386	0.500108
C49	C	1.031018	-0.340297	0.000092
C50	C	1.531018	0.159703	0.500092
C51	C	1.103085	-0.397848	0.000097
C52	C	1.603085	0.102152	0.500097
C53	C	1.092748	-0.505063	0.000088
C54	C	1.592748	-0.005063	0.500088
C55	C	1.041353	-0.233071	0.000101
C56	C	1.541353	0.266929	0.500101
C57	C	1.230047	0.124195	0.000114
C58	C	1.730047	0.624195	0.500114
C59	C	1.329501	0.126178	0.000117
C60	C	1.829501	0.626178	0.500117
C61	C	1.074351	0.304238	0.000087
C62	C	1.574351	0.804238	0.500087
C63	C	1.084512	0.409475	0.000080
C64	C	1.584512	0.909475	0.500080
N65	N	1.067034	0.130917	0.235456
N66	N	1.567034	0.630917	0.735456
N67	N	1.067079	0.130936	-0.235258
N68	N	1.567079	0.630936	0.264742
C69	C	1.122727	0.066567	0.287506
C70	C	1.622727	0.566567	0.787506
C71	C	1.122732	0.066566	0.391610
C72	C	1.622732	0.566566	0.891610
C73	C	1.067049	0.130921	0.443660
C74	C	1.567049	0.630921	0.943660
C75	C	1.011350	0.195274	0.391603
C76	C	1.511350	0.695274	0.891603
C77	C	1.011341	0.195270	0.287501
C78	C	1.511341	0.695270	0.787501
C79	C	1.011376	0.195281	0.608583
C80	C	1.511376	0.695281	1.108583
C81	C	1.011386	0.195287	0.712691
C82	C	1.511386	0.695287	1.212691
C83	C	1.122767	0.066577	0.712691
C84	C	1.622767	0.566577	1.212691
C85	C	1.122757	0.066572	0.608590
C86	C	1.622757	0.566572	1.108590
C87	C	1.067060	0.130927	0.556539
C88	C	1.567060	0.630927	1.056539
H89	H	0.619551	0.288775	0.000077
H90	H	1.119551	0.788775	0.500077
H91	H	0.514561	-0.026919	0.000122
H92	H	1.014561	0.473081	0.500122
O93	O	1.195099	-0.356467	0.000108
O94	O	1.695099	0.143533	0.500108
H95	H	1.231936	-0.380779	0.067516
H96	H	1.731936	0.119221	0.567516
O97	O	0.621896	-0.047610	0.000117
O98	O	1.121896	0.452390	0.500117
H99	H	0.641638	-0.088652	0.067533
H100	H	1.141638	0.411348	0.567533
O101	O	1.182809	-0.002843	0.552445
O102	O	1.682809	0.497157	1.052445
H103	H	1.253509	0.009349	0.572412
H104	H	1.753509	0.509349	1.072412
O105	O	0.816134	-0.043722	0.000096
O106	O	1.316134	0.456278	0.500096
H107	H	0.770573	-0.104728	0.000097
H108	H	1.270573	0.395272	0.500097
H109	H	0.961562	-0.371545	0.000082
H110	H	1.461562	0.128455	0.500082
O111	O	1.182781	-0.002849	0.231367
O112	O	1.682781	0.497151	0.731367
H113	H	1.221501	-0.047603	0.285055
H114	H	1.721501	0.452397	0.785055
O115	O	0.951291	0.264673	0.552429
O116	O	1.451291	0.764673	1.052429
H117	H	0.992608	0.310805	0.504971
H118	H	1.492608	0.810805	1.004971
H119	H	1.168080	0.014166	0.433989
H120	H	1.668080	0.514166	0.933989
O121	O	1.182837	-0.002844	0.768822
O122	O	1.682837	0.497156	1.268822
H123	H	1.173482	0.007958	0.849955
H124	H	1.673482	0.507958	1.349955
H125	H	0.966042	0.247690	0.755066
H126	H	1.466042	0.747690	1.255066
O127	O	0.951297	0.264696	0.447736
O128	O	1.451297	0.764696	0.947736
H129	H	0.904646	0.224724	0.495190
H130	H	1.404646	0.724724	0.995190
O131	O	0.951278	0.264680	0.231353
O132	O	1.451278	0.764680	0.731353
H133	H	0.912566	0.309438	0.285034
H134	H	1.412566	0.809438	0.785034
H135	H	0.345032	-0.030303	0.000133
H136	H	0.845032	0.469697	0.500133
O137	O	0.512214	0.309473	0.000095
O138	O	1.012214	0.809473	0.500095
H139	H	0.492463	0.350533	-0.067307
H140	H	0.992463	0.850533	0.432693
O141	O	0.800431	0.315232	0.000064
O142	O	1.300431	0.815232	0.500064
H143	H	0.749614	0.374308	0.000076
H144	H	1.249614	0.874308	0.500076
H145	H	0.331329	0.283015	0.000104
H146	H	0.831329	0.783015	0.500104
