data_functionalizedCrystal
_audit_creation_method	'MofGen! by Chris Wilmer'
_symmetry_space_group_name_H-M	'P1'
_symmetry_Int_Tables_number	1
_symmetry_cell_setting	triclinic
loop_
_symmetry_equiv_pos_as_xyz
  x,y,z
_cell_length_a	16.959455
_cell_length_b	25.639240
_cell_length_c	16.959447
_cell_angle_alpha	90.040258
_cell_angle_beta	90.014322
_cell_angle_gamma	90.029705
loop_
_atom_site_label
_atom_site_type_symbol
_atom_site_fract_x
_atom_site_fract_y
_atom_site_fract_z
Zn1	Zn	1.208314	-0.208183	0.446854
Zn2	Zn	1.541647	0.125150	0.780187
Zn3	Zn	1.874981	0.458484	1.113521
Zn4	Zn	1.208207	-0.295624	0.314653
Zn5	Zn	1.541541	0.037710	0.647986
Zn6	Zn	1.874874	0.371043	0.981319
Zn7	Zn	1.076143	-0.208199	0.314692
Zn8	Zn	1.409476	0.125134	0.648025
Zn9	Zn	1.742809	0.458467	0.981358
Zn10	Zn	1.076078	-0.295585	0.446791
Zn11	Zn	1.409411	0.037749	0.780125
Zn12	Zn	1.742745	0.371082	1.113458
O13	O	1.142185	-0.251898	0.380747
O14	O	1.475519	0.081436	0.714081
O15	O	1.808852	0.414769	1.047414
O16	O	1.318911	-0.219792	0.429327
O17	O	1.652244	0.113542	0.762661
O18	O	1.985577	0.446875	1.095994
O19	O	1.190671	-0.284050	0.204047
O20	O	1.524004	0.049283	0.537380
O21	O	1.857338	0.382617	0.870713
O22	O	1.093747	-0.135032	0.332266
O23	O	1.427080	0.198301	0.665599
O24	O	1.760414	0.531635	0.998933
O25	O	1.318832	-0.284034	0.332199
O26	O	1.652166	0.049299	0.665533
O27	O	1.985499	0.382633	0.998866
O28	O	1.190853	-0.135020	0.429365
O29	O	1.524186	0.198313	0.762698
O30	O	1.857520	0.531647	1.096032
O31	O	1.093644	-0.219820	0.204075
O32	O	1.426977	0.113514	0.537409
O33	O	1.760310	0.446847	0.870742
O34	O	0.965523	-0.219782	0.332205
O35	O	1.298856	0.113552	0.665538
O36	O	1.632190	0.446885	0.998872
O37	O	1.093637	-0.283967	0.557410
O38	O	1.426970	0.049366	0.890744
O39	O	1.760304	0.382699	1.224077
O40	O	0.965476	-0.283983	0.429258
O41	O	1.298809	0.049350	0.762591
O42	O	1.632142	0.382683	1.095925
O43	O	1.190790	-0.219754	0.557457
O44	O	1.524124	0.113579	0.890790
O45	O	1.857457	0.446913	1.224123
O46	O	1.190608	-0.368784	0.332138
O47	O	1.523942	-0.035450	0.665472
O48	O	1.857275	0.297883	0.998805
O49	O	1.093533	-0.368755	0.429220
O50	O	1.426867	-0.035422	0.762553
O51	O	1.760200	0.297912	1.095887
C52	C	0.936819	-0.251880	0.380729
C53	C	1.270153	0.081453	0.714063
C54	C	1.603486	0.414786	1.047396
C55	C	0.848963	-0.251886	0.380740
C56	C	1.182296	0.081448	0.714074
C57	C	1.515629	0.414781	1.047407
C58	C	1.142074	-0.387740	0.380685
C59	C	1.475407	-0.054407	0.714019
C60	C	1.808740	0.278926	1.047352
C61	C	1.142098	-0.445854	0.380685
C62	C	1.475432	-0.112521	0.714019
C63	C	1.808765	0.220812	1.047352
C64	C	0.477487	-0.218441	0.330317
C65	C	0.810821	0.114893	0.663651
C66	C	1.144154	0.448226	0.996984
C67	C	0.477487	-0.285398	0.431222
C68	C	0.810820	0.047935	0.764556
C69	C	1.144153	0.381269	1.097889
C70	C	0.560033	-0.285390	0.431218
C71	C	0.893366	0.047943	0.764551
C72	C	1.226699	0.381276	1.097884
C73	C	0.601310	-0.251908	0.380761
C74	C	0.934643	0.081425	0.714094
C75	C	1.267976	0.414759	1.047428
C76	C	0.560041	-0.218433	0.330309
C77	C	0.893374	0.114900	0.663643
C78	C	1.226708	0.448233	0.996976
C79	C	0.601308	-0.318868	0.481663
C80	C	0.934641	0.014465	0.814996
C81	C	1.267974	0.347798	1.148330
C82	C	0.683859	-0.318863	0.481659
C83	C	1.017192	0.014471	0.814993
C84	C	1.350525	0.347804	1.148326
C85	C	0.725137	-0.285377	0.431206
C86	C	1.058470	0.047956	0.764540
C87	C	1.391804	0.381289	1.097873
C88	C	0.683863	-0.251901	0.380753
C89	C	1.017197	0.081433	0.714086
C90	C	1.350530	0.414766	1.047420
C91	C	0.725140	-0.218418	0.330297
C92	C	1.058474	0.114915	0.663630
C93	C	1.391807	0.448248	0.996963
C94	C	0.683868	-0.184939	0.279847
C95	C	1.017201	0.148395	0.613180
C96	C	1.350535	0.481728	0.946513
C97	C	0.601319	-0.184948	0.279856
C98	C	0.934653	0.148386	0.613189
C99	C	1.267986	0.481719	0.946523
C100	C	0.807686	-0.285368	0.431197
C101	C	1.141019	0.047965	0.764530
C102	C	1.474352	0.381299	1.097863
C103	C	0.807694	-0.218411	0.330288
C104	C	1.141027	0.114922	0.663622
C105	C	1.474360	0.448256	0.996955
C106	C	1.192774	-0.806173	0.431398
C107	C	1.526107	-0.472839	0.764731
C108	C	1.859440	-0.139506	1.098065
C109	C	1.192797	-0.860777	0.431414
C110	C	1.526130	-0.527444	0.764748
C111	C	1.859464	-0.194110	1.098081
O112	O	1.235750	-0.888976	0.474468
O113	O	1.569083	-0.555642	0.807802
O114	O	1.902417	-0.222309	1.141135
N115	N	1.142295	-0.888137	0.380824
N116	N	1.475628	-0.554803	0.714157
N117	N	1.808962	-0.221470	1.047490
C118	C	1.091761	-0.860889	0.330220
C119	C	1.425094	-0.527556	0.663553
C120	C	1.758428	-0.194223	0.996886
O121	O	1.048807	-0.889175	0.287190
O122	O	1.382140	-0.555842	0.620524
O123	O	1.715474	-0.222508	0.953857
C124	C	1.091734	-0.806286	0.330208
C125	C	1.425068	-0.472953	0.663541
C126	C	1.758401	-0.139619	0.996875
C127	C	1.142245	-0.778929	0.380796
C128	C	1.475578	-0.445596	0.714130
C129	C	1.808912	-0.112262	1.047463
C130	C	1.243280	-0.778816	0.481983
C131	C	1.576613	-0.445482	0.815316
C132	C	1.909946	-0.112149	1.148649
C133	C	1.243257	-0.724215	0.481965
C134	C	1.576590	-0.390882	0.815299
C135	C	1.909924	-0.057548	1.148632
C136	C	1.192729	-0.696972	0.431364
C137	C	1.526062	-0.363638	0.764697
C138	C	1.859395	-0.030305	1.098030
C139	C	1.142223	-0.724329	0.380779
C140	C	1.475556	-0.390995	0.714112
C141	C	1.808889	-0.057662	1.047446
C142	C	1.041197	-0.779040	0.279609
C143	C	1.374530	-0.445707	0.612942
C144	C	1.707864	-0.112373	0.946275
C145	C	1.041174	-0.724433	0.279602
C146	C	1.374507	-0.391100	0.612935
C147	C	1.707841	-0.057766	0.946269
C148	C	1.091685	-0.697076	0.330190
C149	C	1.425018	-0.363742	0.663523
C150	C	1.758352	-0.030409	0.996857
C151	C	1.091672	-0.642485	0.330160
C152	C	1.425005	-0.309151	0.663493
C153	C	1.758338	0.024182	0.996826
N154	N	1.142173	-0.615125	0.380750
N155	N	1.475507	-0.281791	0.714083
N156	N	1.808840	0.051542	1.047417
C157	C	1.192702	-0.642368	0.431352
C158	C	1.526035	-0.309035	0.764685
C159	C	1.859369	0.024298	1.098019
C160	C	1.091820	-0.975560	0.330249
C161	C	1.425153	-0.642227	0.663582
C162	C	1.758487	-0.308893	0.996915
C163	C	1.091850	-1.030162	0.330255
C164	C	1.425184	-0.696829	0.663589
C165	C	1.758517	-0.363496	0.996922
C166	C	1.192885	-1.030046	0.431451
C167	C	1.526218	-0.696713	0.764785
C168	C	1.859552	-0.363379	1.098118
C169	C	1.192858	-0.975443	0.431440
C170	C	1.526192	-0.642109	0.764773
C171	C	1.859525	-0.308776	1.098107
C172	C	1.142322	-0.948200	0.380839
C173	C	1.475655	-0.614867	0.714172
C174	C	1.808989	-0.281534	1.047506
C175	C	1.192651	-0.527703	0.431311
C176	C	1.525985	-0.194370	0.764645
C177	C	1.859318	0.138963	1.097978
C178	C	1.192627	-0.473098	0.431287
C179	C	1.525960	-0.139765	0.764621
C180	C	1.859293	0.193569	1.097954
C181	C	1.091589	-0.473219	0.330095
C182	C	1.424923	-0.139886	0.663428
C183	C	1.758256	0.193448	0.996761
C184	C	1.091616	-0.527819	0.330116
C185	C	1.424950	-0.194486	0.663449
C186	C	1.758283	0.138847	0.996782
C187	C	1.142150	-0.555060	0.380730
C188	C	1.475484	-0.221727	0.714064
C189	C	1.808817	0.111606	1.047397
O190	O	1.048738	-0.614251	0.287130
O191	O	1.382072	-0.280918	0.620463
O192	O	1.715405	0.052415	0.953796
O193	O	1.235641	-0.614076	0.474381
O194	O	1.568975	-0.280743	0.807715
O195	O	1.902308	0.052591	1.141048
C196	C	1.348354	-0.251915	0.380766
C197	C	1.681687	0.081418	0.714099
C198	C	2.015020	0.414751	1.047433
C199	C	1.436210	-0.251923	0.380774
C200	C	1.769544	0.081410	0.714107
C201	C	2.102877	0.414744	1.047441
C202	C	1.142218	-0.251854	0.586916
C203	C	1.475552	0.081479	0.920249
C204	C	1.808885	0.414812	1.253582
C205	C	1.142232	-0.251836	0.674772
C206	C	1.475566	0.081497	1.008106
C207	C	1.808899	0.414831	1.341439
C208	C	1.142319	-0.115525	0.380827
C209	C	1.475652	0.217809	0.714160
C210	C	1.808986	0.551142	1.047493
C211	C	1.142376	-0.057411	0.380861
C212	C	1.475709	0.275923	0.714194
C213	C	1.809043	0.609256	1.047527
C214	C	1.142198	-0.251903	0.175381
C215	C	1.475532	0.081430	0.508714
C216	C	1.808865	0.414764	0.842048
C217	C	1.142337	-0.251774	0.087525
C218	C	1.475671	0.081559	0.420858
C219	C	1.809004	0.414892	0.754192
C220	C	1.091744	-0.285214	1.046227
C221	C	1.425077	0.048119	1.379560
C222	C	1.758410	0.381453	1.712893
C223	C	1.192910	-0.218348	1.046270
C224	C	1.526244	0.114985	1.379603
C225	C	1.859577	0.448319	1.712936
C226	C	1.192889	-0.218359	0.963724
C227	C	1.526222	0.114974	1.297057
C228	C	1.859556	0.448308	1.630391
C229	C	1.142295	-0.251799	0.922425
C230	C	1.475629	0.081535	1.255759
C231	C	1.808962	0.414868	1.589092
C232	C	1.091723	-0.285227	0.963673
C233	C	1.425056	0.048106	1.297006
C234	C	1.758389	0.381440	1.630340
C235	C	1.243467	-0.184935	0.922470
C236	C	1.576800	0.148399	1.255803
C237	C	1.910133	0.481732	1.589137
C238	C	1.243448	-0.184945	0.839919
C239	C	1.576782	0.148388	1.173252
C240	C	1.910115	0.481722	1.506586
C241	C	1.192850	-0.218382	0.798619
C242	C	1.526183	0.114951	1.131953
C243	C	1.859516	0.448284	1.465286
C244	C	1.142274	-0.251812	0.839872
C245	C	1.475608	0.081522	1.173205
C246	C	1.808941	0.414855	1.506539
C247	C	1.091681	-0.285251	0.798573
C248	C	1.425014	0.048082	1.131907
C249	C	1.758347	0.381415	1.465240
C250	C	1.041101	-0.318679	0.839825
C251	C	1.374434	0.014655	1.173158
C252	C	1.707767	0.347988	1.506491
C253	C	1.041124	-0.318665	0.922373
C254	C	1.374458	0.014669	1.255706
C255	C	1.707791	0.348002	1.589040
C256	C	1.192826	-0.218396	0.716071
C257	C	1.526160	0.114937	1.049404
C258	C	1.859493	0.448270	1.382737
C259	C	1.091660	-0.285265	0.716020
C260	C	1.424993	0.048069	1.049353
C261	C	1.758326	0.381402	1.382687
H262	H	0.841296	-0.191142	0.289205
H263	H	1.174629	0.142191	0.622538
H264	H	1.507962	0.475525	0.955872
H265	H	1.234106	-0.191126	1.079900
H266	H	1.567439	0.142208	1.413233
H267	H	1.900772	0.475541	1.746567
H268	H	1.050493	-0.550095	0.288916
H269	H	1.383826	-0.216761	0.622250
H270	H	1.717159	0.116572	0.955583
H271	H	1.000066	-0.801305	0.238414
H272	H	1.333399	-0.467971	0.571747
H273	H	1.666733	-0.134638	0.905081
H274	H	0.999911	-0.345907	0.806189
H275	H	1.333244	-0.012574	1.139522
H276	H	1.666577	0.320759	1.472855
H277	H	1.050669	-0.953382	0.289037
H278	H	1.384003	-0.620049	0.622370
H279	H	1.717336	-0.286715	0.955703
H280	H	0.717456	-0.346123	0.522739
H281	H	1.050789	-0.012790	0.856073
H282	H	1.384122	0.320543	1.189406
H283	H	0.841286	-0.312628	0.472270
H284	H	1.174619	0.020705	0.805603
H285	H	1.507952	0.354038	1.138936
H286	H	1.000019	-0.702255	0.238397
H287	H	1.333352	-0.368921	0.571731
H288	H	1.666685	-0.035588	0.905064
H289	H	0.717486	-0.157680	0.238762
H290	H	1.050820	0.175654	0.572095
H291	H	1.384153	0.508987	0.905428
H292	H	1.050452	-0.451029	0.288893
H293	H	1.383785	-0.117695	0.622226
H294	H	1.717118	0.215638	0.955559
H295	H	1.234010	-0.191182	0.682488
H296	H	1.567343	0.142151	1.015821
H297	H	1.900676	0.475485	1.349154
H298	H	1.284426	-0.800991	0.523194
H299	H	1.617759	-0.467658	0.856527
H300	H	1.951093	-0.134325	1.189860
H301	H	0.567694	-0.346132	0.522736
H302	H	0.901027	-0.012798	0.856070
H303	H	1.234360	0.320535	1.189403
H304	H	1.284662	-0.157713	0.956101
H305	H	1.617996	0.175620	1.289435
H306	H	1.951329	0.508953	1.622768
H307	H	1.233795	-0.549876	0.472532
H308	H	1.567129	-0.216543	0.805865
H309	H	1.900462	0.116790	1.139199
H310	H	0.567708	-0.157691	0.238782
H311	H	0.901041	0.175642	0.572115
H312	H	1.234375	0.508976	0.905448
H313	H	1.233761	-0.450825	0.472482
H314	H	1.567095	-0.117492	0.805815
H315	H	1.900428	0.215841	1.139149
H316	H	0.443880	-0.191181	0.289245
H317	H	0.777213	0.142152	0.622578
H318	H	1.110546	0.475486	0.955911
H319	H	0.443874	-0.312661	0.472297
H320	H	0.777207	0.020673	0.805631
H321	H	1.110541	0.354006	1.138964
H322	H	1.284385	-0.701944	0.523161
H323	H	1.617718	-0.368611	0.856494
H324	H	1.951052	-0.035277	1.189827
H325	H	1.233988	-0.953172	0.472633
H326	H	1.567321	-0.619839	0.805967
H327	H	1.900655	-0.286505	1.139300
H328	H	1.234027	-1.052238	0.472656
H329	H	1.567360	-0.718904	0.805989
H330	H	1.900694	-0.385571	1.139322
H331	H	1.050728	-1.052432	0.289053
H332	H	1.384061	-0.719099	0.622386
H333	H	1.717394	-0.385765	0.955720
H334	H	0.999947	-0.345881	0.955967
H335	H	1.333281	-0.012547	1.289300
H336	H	1.666614	0.320786	1.622634
H337	H	1.050452	-0.312491	0.682401
H338	H	1.383786	0.020842	1.015734
H339	H	1.717119	0.354176	1.349067
H340	H	1.050560	-0.312428	1.079817
H341	H	1.383894	0.020905	1.413150
H342	H	1.717227	0.354239	1.746484
H343	H	1.284633	-0.157726	0.806339
H344	H	1.617966	0.175607	1.139673
H345	H	1.951300	0.508941	1.473006
