data_functionalizedCrystal
_audit_creation_method	'MofGen! by Chris Wilmer'
_symmetry_space_group_name_H-M	'P1'
_symmetry_Int_Tables_number	1
_symmetry_cell_setting	triclinic
loop_
_symmetry_equiv_pos_as_xyz
  x,y,z
_cell_length_a	12.594517
_cell_length_b	16.994747
_cell_length_c	12.594509
_cell_angle_alpha	90.008624
_cell_angle_beta	90.021327
_cell_angle_gamma	90.010859
loop_
_atom_site_label
_atom_site_type_symbol
_atom_site_fract_x
_atom_site_fract_y
_atom_site_fract_z
Zn1	Zn	1.627304	-0.314008	0.602005
Zn2	Zn	1.627210	-0.445929	0.424087
Zn3	Zn	1.449308	-0.314042	0.424034
Zn4	Zn	1.449306	-0.445874	0.602017
O5	O	1.538282	-0.379963	0.513036
O6	O	1.776237	-0.331517	0.578421
O7	O	1.603573	-0.428471	0.275134
O8	O	1.472960	-0.203657	0.447615
O9	O	1.776169	-0.428438	0.447706
O10	O	1.603733	-0.203632	0.578369
O11	O	1.472869	-0.331574	0.275095
O12	O	1.300362	-0.331521	0.447627
O13	O	1.472956	-0.428345	0.750962
O14	O	1.300360	-0.428377	0.578390
O15	O	1.603730	-0.331464	0.750953
O16	O	1.603571	-0.556303	0.447718
O17	O	1.472865	-0.556262	0.578442
C18	C	1.261741	-0.379947	0.513005
C19	C	1.143435	-0.379960	0.513016
C20	C	1.538220	-0.584903	0.513084
C21	C	1.538228	-0.674225	0.513081
Zn22	Zn	1.449338	-0.945129	0.424004
Zn23	Zn	1.627351	-0.945073	0.601958
Zn24	Zn	1.449342	-0.813266	0.602000
Zn25	Zn	1.627230	-0.813184	0.424053
O26	O	1.538315	-0.879163	0.513004
O27	O	1.473002	-1.055503	0.447572
O28	O	1.603790	-0.927600	0.750910
O29	O	1.300396	-0.830816	0.578385
O30	O	1.603787	-1.055462	0.578315
O31	O	1.300393	-0.927694	0.447612
O32	O	1.473008	-0.830762	0.750940
O33	O	1.472890	-0.702874	0.578432
O34	O	1.603580	-0.830675	0.275100
O35	O	1.603583	-0.702814	0.447695
O36	O	1.472884	-0.927615	0.275065
O37	O	1.776281	-0.927520	0.578362
O38	O	1.776192	-0.830622	0.447655
C39	C	1.074152	-0.327208	0.442030
C40	C	1.003350	-0.399158	0.415883
C41	C	1.003439	-0.308044	0.539181
C42	C	1.074191	-0.451948	0.486819
C43	C	1.074287	-0.360785	0.610163
C44	C	1.003516	-0.432786	0.584053
C45	C	1.815903	-0.379980	0.513068
C46	C	1.934208	-0.379987	0.513082
C47	C	1.538353	-0.379894	0.790657
C48	C	1.538384	-0.379865	0.908962
C49	C	1.538349	-0.174223	0.512982
C50	C	1.538382	-0.084901	0.512959
C51	C	1.538272	-0.379975	0.236495
C52	C	1.538448	-0.379782	0.118190
C53	C	1.467278	-0.432528	0.978221
C54	C	1.564400	-0.451801	1.049020
C55	C	1.441336	-0.360544	1.048962
C56	C	1.635557	-0.399176	0.978204
C57	C	1.512428	-0.307885	0.978140
C58	C	1.609618	-0.327130	1.048907
C59	C	1.814856	-0.879058	0.513012
C60	C	1.933162	-0.879036	0.513047
C61	C	1.538218	-0.879142	0.235383
C62	C	1.538176	-0.879133	0.117077
C63	C	1.260695	-0.879270	0.512998
C64	C	1.142389	-0.879316	0.512995
C65	C	1.538337	-0.879229	0.789545
C66	C	1.538081	-0.879389	0.907850
C67	C	2.002405	-0.826292	0.442036
C68	C	2.073198	-0.807062	0.539194
C69	C	2.073167	-0.898228	0.415965
C70	C	2.002397	-0.859769	0.610256
C71	C	2.002360	-0.950969	0.486961
C72	C	2.073121	-0.931766	0.584186
C73	C	1.609217	-0.826403	0.047843
C74	C	1.635243	-0.898353	-0.022970
C75	C	1.512072	-0.807176	-0.022909
C76	C	1.564254	-0.951121	0.047822
C77	C	1.441037	-0.859895	0.047889
C78	C	1.467027	-0.931895	-0.022892
H79	H	1.105168	-0.282641	0.381924
H80	H	1.669847	-0.282559	1.079749
O81	O	1.590783	-0.524379	1.086052
C82	C	1.692442	-0.545112	1.048480
H83	H	1.710841	-0.510236	0.973394
H84	H	1.694387	-0.610737	1.029820
H85	H	1.754301	-0.531129	1.111843
O86	O	1.395477	-0.485629	0.941132
C87	C	1.318383	-0.446464	0.879512
H88	H	1.315131	-0.381846	0.903597
H89	H	1.237447	-0.474732	0.893209
H90	H	1.340230	-0.451142	0.791903
H91	H	0.972193	-0.415393	0.333756
O92	O	1.733453	-0.418741	0.941110
C93	C	1.732232	-0.418562	0.829168
H94	H	1.647401	-0.427340	0.799866
H95	H	1.784448	-0.468337	0.798286
H96	H	1.763858	-0.359868	0.798833
O97	O	1.485843	-0.734627	-0.060153
C98	C	1.485172	-0.735811	-0.172089
H99	H	1.537413	-0.786025	-0.201597
H100	H	1.517099	-0.677538	-0.203558
H101	H	1.400463	-0.744826	-0.201627
O102	O	1.485978	-0.235354	0.941007
C103	C	1.383528	-0.215246	0.977016
H104	H	1.337595	-0.271131	0.996927
H105	H	1.339863	-0.181399	0.912201
H106	H	1.390281	-0.176947	1.051036
H107	H	1.359238	-0.344237	1.080045
O108	O	0.966309	-0.235456	0.565373
C109	C	0.903093	-0.206189	0.481835
H110	H	0.926086	-0.236659	0.404550
H111	H	0.916228	-0.140097	0.473646
H112	H	0.815849	-0.218144	0.499756
H113	H	1.105140	-0.512796	0.464625
H114	H	1.971357	-0.781655	0.382031
O115	O	2.110280	-0.734443	0.565383
C116	C	2.074237	-0.679009	0.490300
H117	H	2.054359	-0.710326	0.412748
H118	H	2.139019	-0.633466	0.475462
H119	H	2.000189	-0.648410	0.521977
H120	H	1.971221	-1.011784	0.464834
O121	O	1.965298	-0.840294	0.708188
C122	C	1.853356	-0.840519	0.706966
H123	H	1.824051	-0.831688	0.622151
H124	H	1.822458	-0.790798	0.759275
H125	H	1.823039	-0.899250	0.738483
O126	O	2.109890	-0.984888	0.656082
C127	C	2.073611	-0.964371	0.758295
H128	H	2.053864	-0.898930	0.760407
H129	H	2.138201	-0.977651	0.819143
H130	H	1.999436	-0.999942	0.777988
H131	H	0.972696	-0.477460	0.644112
O132	O	2.110127	-0.917509	0.317910
C133	C	2.074116	-0.861733	0.243274
H134	H	1.999597	-0.831708	0.274832
H135	H	2.055028	-0.892605	0.165199
H136	H	2.138603	-0.815784	0.229439
O137	O	1.681145	-0.773369	0.084857
C138	C	1.783387	-0.793935	0.048726
H139	H	1.785412	-0.859361	0.028848
H140	H	1.844139	-0.780760	0.113456
H141	H	1.803286	-0.758315	-0.025339
H142	H	1.105469	-0.344529	0.692265
O143	O	1.733254	-0.917743	-0.059928
C144	C	1.802296	-0.930690	0.026467
H145	H	1.770985	-0.898450	0.099397
H146	H	1.884797	-0.907664	0.005952
H147	H	1.806935	-0.996422	0.043913
O148	O	1.590698	-1.023673	0.084902
C149	C	1.590472	-1.022800	0.196844
H150	H	1.602280	-0.959937	0.226161
H151	H	1.657665	-1.061482	0.227723
H152	H	1.511290	-1.046274	0.227167
O153	O	1.395413	-0.985249	-0.059672
C154	C	1.423249	-1.060976	-0.023415
H155	H	1.511569	-1.062442	-0.003671
H156	H	1.405369	-1.106070	-0.088016
H157	H	1.375320	-1.075651	0.050758
H158	H	1.358966	-0.843603	0.079038
