data_functionalizedCrystal
_audit_creation_method	'MofGen! by Chris Wilmer'
_symmetry_space_group_name_H-M	'P1'
_symmetry_Int_Tables_number	1
_symmetry_cell_setting	triclinic
loop_
_symmetry_equiv_pos_as_xyz
  x,y,z
_cell_length_a	10.723023
_cell_length_b	14.519731
_cell_length_c	9.798715
_cell_angle_alpha	89.995867
_cell_angle_beta	89.996770
_cell_angle_gamma	84.078200
loop_
_atom_site_label
_atom_site_type_symbol
_atom_site_fract_x
_atom_site_fract_y
_atom_site_fract_z
O1	O	1.655992	0.129343	-0.113480
O2	O	2.155992	0.629343	0.386520
O3	O	1.292725	0.141724	-0.113487
O4	O	1.792725	0.641724	0.386513
O5	O	1.483976	0.001346	-0.113471
O6	O	1.983976	0.501346	0.386529
O7	O	1.464741	0.269722	-0.113496
O8	O	1.964741	0.769722	0.386504
O9	O	1.483962	0.001345	0.113511
O10	O	1.983962	0.501345	0.613511
O11	O	1.292710	0.141724	0.113496
O12	O	1.792710	0.641724	0.613496
O13	O	1.655977	0.129342	0.113502
O14	O	2.155977	0.629342	0.613502
Zn15	Zn	1.474342	0.135533	0.149537
Zn16	Zn	1.974342	0.635533	0.649537
Zn17	Zn	1.474360	0.135534	-0.149522
Zn18	Zn	1.974360	0.635534	0.350478
O19	O	1.464726	0.269721	0.113486
O20	O	1.964726	0.769721	0.613486
C21	C	1.246226	0.140823	0.000004
C22	C	1.746226	0.640823	0.500004
C23	C	1.107697	0.138128	0.000002
C24	C	1.607697	0.638128	0.500002
C25	C	0.902774	0.134141	-0.117581
C26	C	1.402774	0.634141	0.382419
C27	C	1.045951	0.136927	-0.117582
C28	C	1.545951	0.636927	0.382418
C29	C	1.483067	-0.033019	0.000020
C30	C	1.983067	0.466981	0.500020
C31	C	1.480367	-0.135413	0.000021
C32	C	1.980367	0.364587	0.500021
C33	C	1.478172	-0.218568	0.000018
C34	C	1.978172	0.281432	0.500018
C35	C	1.475430	-0.322891	0.000008
C36	C	1.975430	0.177109	0.500008
C37	C	1.473254	-0.406041	-0.000001
C38	C	1.973254	0.093959	0.499999
C39	C	1.470512	-0.510370	-0.000009
C40	C	1.970512	-0.010370	0.499991
C41	C	1.702476	0.130243	0.000008
C42	C	2.202476	0.630243	0.500008
C43	C	1.841005	0.132939	0.000001
C44	C	2.341005	0.632939	0.500001
C45	C	1.465635	0.304085	-0.000008
C46	C	1.965635	0.804085	0.499992
C47	C	1.468336	0.406479	-0.000018
C48	C	1.968336	0.906479	0.499982
N49	N	1.474338	0.135532	0.353637
N50	N	1.974338	0.635532	0.853637
N51	N	1.474374	0.135527	-0.353622
N52	N	1.974374	0.635527	0.146378
C53	C	1.554642	0.076331	0.421420
C54	C	2.054642	0.576331	0.921420
C55	C	1.554662	0.076328	0.578583
C56	C	2.054662	0.576328	1.078583
H57	H	1.099069	0.137966	-0.218249
H58	H	1.599069	0.637966	0.281751
F59	F	0.833359	0.132761	-0.249164
F60	F	1.333359	0.632761	0.250836
H61	H	1.054585	0.137100	0.100674
H62	H	1.554585	0.637100	0.600674
H63	H	0.894122	0.133968	0.100667
H64	H	1.394122	0.633968	0.600667
H65	H	1.405597	0.186211	0.411955
H66	H	1.905597	0.686211	0.911955
F67	F	1.644265	0.009920	0.345199
F68	F	2.144265	0.509920	0.845199
F69	F	1.644533	0.010082	0.654770
F70	F	2.144533	0.510082	1.154770
H71	H	1.405624	0.186218	0.588096
H72	H	1.905624	0.686218	1.088096
