data_functionalizedCrystal
_audit_creation_method	'MofGen! by Chris Wilmer'
_symmetry_space_group_name_H-M	'P1'
_symmetry_Int_Tables_number	1
_symmetry_cell_setting	triclinic
loop_
_symmetry_equiv_pos_as_xyz
  x,y,z
_cell_length_a	14.971491
_cell_length_b	16.109304
_cell_length_c	14.048226
_cell_angle_alpha	89.996377
_cell_angle_beta	89.991693
_cell_angle_gamma	83.539437
loop_
_atom_site_label
_atom_site_type_symbol
_atom_site_fract_x
_atom_site_fract_y
_atom_site_fract_z
O1	O	1.186789	0.108368	-0.079195
O2	O	0.926371	0.121338	-0.079188
O3	O	1.063733	-0.006169	-0.079192
O4	O	1.049427	0.235875	-0.079191
O5	O	1.063716	-0.006176	0.079129
O6	O	0.926354	0.121331	0.079134
O7	O	1.186773	0.108361	0.079126
Zn8	Zn	1.056561	0.114844	0.104267
Zn9	Zn	1.056583	0.114854	-0.104328
O10	O	1.049411	0.235867	0.079131
C11	C	0.893039	0.120754	-0.000026
C12	C	0.793745	0.119013	-0.000023
C13	C	0.366059	0.111507	-0.086346
C14	C	0.459357	0.113140	-0.086343
C15	C	0.505992	0.113957	-0.000038
C16	C	0.459326	0.113134	0.086268
C17	C	0.366031	0.111495	0.086263
C18	C	0.653783	0.116552	0.086271
C19	C	0.747085	0.118192	0.086276
C20	C	0.747109	0.118196	-0.086335
C21	C	0.653814	0.116558	-0.086339
C22	C	0.607154	0.115736	-0.000032
C23	C	1.063144	-0.037148	-0.000034
C24	C	1.061406	-0.129445	-0.000040
C25	C	1.057398	-0.341784	-0.086337
C26	C	1.055756	-0.428506	-0.086336
C27	C	1.055743	-0.428511	0.086274
C28	C	1.057378	-0.341790	0.086272
C29	C	1.058210	-0.298429	-0.000036
C30	C	1.054933	-0.471872	-0.000033
C31	C	1.053153	-0.565900	-0.000032
C32	C	1.059989	-0.204394	-0.000038
C33	C	1.220105	0.108945	-0.000038
C34	C	1.319399	0.110686	-0.000047
C35	C	1.049999	0.266847	-0.000030
C36	C	1.051738	0.359144	-0.000030
N37	N	1.056553	0.114837	0.246628
N38	N	1.056598	0.114855	-0.246689
C39	C	1.117395	0.058400	0.296444
C40	C	1.117401	0.058400	0.396101
C41	C	1.056568	0.114841	0.445941
C42	C	0.995719	0.171280	0.396118
C43	C	0.995709	0.171276	0.296462
C44	C	0.995745	0.171286	0.603832
C45	C	0.995755	0.171292	0.703495
C46	C	1.117437	0.058410	0.703471
C47	C	1.117427	0.058406	0.603815
C48	C	1.056579	0.114847	0.553999
H49	H	0.615845	0.115897	-0.156616
H50	H	0.328040	0.110835	0.156537
H51	H	1.058035	-0.306489	0.156553
H52	H	1.055067	-0.463826	0.156544
Cl53	Cl	0.595128	0.115509	0.194773
Cl54	Cl	1.193881	-0.012555	0.233798
Cl55	Cl	0.517954	0.114160	0.194766
H56	H	0.328094	0.110847	-0.156625
H57	H	1.166944	0.012444	0.436661
Cl58	Cl	1.058439	-0.287275	-0.194839
H59	H	0.946218	0.217251	0.744070
Cl60	Cl	1.054733	-0.483005	-0.194834
Cl61	Cl	1.193908	-0.012543	0.541158
Cl62	Cl	0.518011	0.114168	-0.194839
Cl63	Cl	0.805765	0.119240	-0.194834
Cl64	Cl	1.193932	-0.012541	0.766100
Cl65	Cl	0.919245	0.242241	0.541210
Cl66	Cl	0.919237	0.242232	0.458772
Cl67	Cl	0.919214	0.242226	0.233837
Cl68	Cl	0.805712	0.119214	0.194775
