data_functionalizedCrystal
_audit_creation_method	'MofGen! by Chris Wilmer'
_symmetry_space_group_name_H-M	'P1'
_symmetry_Int_Tables_number	1
_symmetry_cell_setting	triclinic
loop_
_symmetry_equiv_pos_as_xyz
  x,y,z
_cell_length_a	12.827893
_cell_length_b	12.645330
_cell_length_c	12.827885
_cell_angle_alpha	90.031113
_cell_angle_beta	90.019272
_cell_angle_gamma	90.012617
loop_
_atom_site_label
_atom_site_type_symbol
_atom_site_fract_x
_atom_site_fract_y
_atom_site_fract_z
Zn1	Zn	1.597690	-0.421989	0.590839
Zn2	Zn	2.097690	0.078011	1.090839
Zn3	Zn	1.597592	-0.599289	0.416095
Zn4	Zn	2.097592	-0.099289	0.916095
Zn5	Zn	1.422931	-0.422040	0.416113
Zn6	Zn	1.922931	0.077960	0.916113
Zn7	Zn	1.422925	-0.599211	0.590795
Zn8	Zn	1.922925	-0.099211	1.090795
O9	O	1.510284	-0.510632	0.503461
O10	O	2.010284	-0.010632	1.003461
O11	O	1.743913	-0.445520	0.567670
O12	O	2.243913	0.054480	1.067670
O13	O	1.574385	-0.575832	0.269861
O14	O	2.074385	-0.075832	0.769861
O15	O	1.446157	-0.273686	0.439316
O16	O	1.946157	0.226314	0.939316
O17	O	1.743841	-0.575782	0.439286
O18	O	2.243841	-0.075782	0.939286
O19	O	1.574551	-0.273648	0.567687
O20	O	2.074551	0.226352	1.067687
O21	O	1.446062	-0.445608	0.269874
O22	O	1.946062	0.054392	0.769874
O23	O	1.276694	-0.445531	0.439274
O24	O	1.776694	0.054469	0.939274
O25	O	1.446146	-0.575647	0.737037
O26	O	1.946146	-0.075647	1.237037
O27	O	1.276689	-0.575697	0.567612
O28	O	1.776689	-0.075697	1.067612
O29	O	1.574545	-0.445443	0.737069
O30	O	2.074545	0.054557	1.237069
O31	O	1.574379	-0.747626	0.439244
O32	O	2.074379	-0.247626	0.939244
O33	O	1.446051	-0.747568	0.567595
O34	O	1.946051	-0.247568	1.067595
C35	C	1.238774	-0.510612	0.503441
C36	C	1.738774	-0.010612	1.003441
C37	C	1.122621	-0.510629	0.503457
C38	C	1.622621	-0.010629	1.003457
C39	C	1.070862	-0.575140	0.566865
C40	C	1.570862	-0.075140	1.066865
C41	C	0.950811	-0.575158	0.566883
C42	C	1.450811	-0.075158	1.066883
C43	C	1.510232	-0.786062	0.503436
C44	C	2.010232	-0.286062	1.003436
C45	C	1.510305	-0.903892	0.503460
C46	C	2.010305	-0.403892	1.003460
C47	C	1.590906	-1.071448	0.422551
C48	C	2.090906	-0.571448	0.922551
C49	C	1.591169	-0.948888	0.422749
C50	C	2.091169	-0.448888	0.922749
C51	C	1.540172	-0.948266	0.613614
C52	C	2.040172	-0.448266	1.113614
C53	C	1.540811	-1.070864	0.613184
C54	C	2.040811	-0.570864	1.113184
C55	C	1.399806	-1.071222	0.475302
C56	C	1.899806	-0.571222	0.975302
C57	C	1.400335	-0.948617	0.472832
C58	C	1.900335	-0.448617	0.972832
C59	C	1.782854	-0.510654	0.503481
C60	C	2.282854	-0.010654	1.003481
C61	C	1.899007	-0.510663	0.503490
C62	C	2.399007	-0.010663	1.003490
C63	C	1.510355	-0.510531	0.776031
C64	C	2.010355	-0.010531	1.276031
C65	C	1.510386	-0.510487	0.892184
C66	C	2.010386	-0.010487	1.392184
C67	C	1.510365	-0.234127	0.503508
C68	C	2.010365	0.265873	1.003508
C69	C	1.510400	-0.116297	0.503529
C70	C	2.010400	0.383703	1.003529
C71	C	1.510274	-0.510657	0.231951
C72	C	2.010274	-0.010657	0.731951
C73	C	1.510446	-0.510402	0.115798
C74	C	2.010446	-0.010402	0.615798
C75	C	1.573929	-0.446045	0.943985
C76	C	2.073929	0.053955	1.443985
C77	C	1.573961	-0.445999	1.064035
C78	C	2.073961	0.054001	1.564035
H79	H	1.572482	-0.918891	0.341071
H80	H	2.072482	-0.418891	0.841071
Br81	Br	1.560160	-1.120718	0.286012
Br82	Br	2.060160	-0.620718	0.786012
H83	H	1.078058	-0.455408	0.449189
H84	H	1.578058	0.044592	0.949189
Br85	Br	1.145126	-0.667179	0.657326
Br86	Br	1.645126	-0.167179	1.157326
H87	H	1.456002	-0.565617	0.936712
H88	H	1.956002	-0.065617	1.436712
Br89	Br	0.973183	-0.418609	0.412992
Br90	Br	1.473183	0.081391	0.912992
H91	H	1.628302	-0.390905	0.899456
H92	H	2.128302	0.109095	1.399456
H93	H	1.620097	-0.917476	0.637922
H94	H	2.120097	-0.417476	1.137922
Br95	Br	1.726705	-1.122660	0.453314
Br96	Br	2.226705	-0.622660	0.953314
H97	H	1.337116	-0.917999	0.527488
H98	H	1.837116	-0.417999	1.027488
Br99	Br	1.727696	-0.899861	0.453871
Br100	Br	2.227696	-0.399861	0.953871
H101	H	0.906299	-0.630392	0.621166
H102	H	1.406299	-0.130392	1.121166
H103	H	1.621650	-1.099375	0.637094
H104	H	2.121650	-0.599375	1.137094
Br105	Br	1.447311	-1.120311	0.717161
Br106	Br	1.947311	-0.620311	1.217161
Br107	Br	1.354534	-1.122916	0.343757
Br108	Br	1.854534	-0.622916	0.843757
H109	H	1.628366	-0.390832	1.108582
H110	H	2.128366	0.109168	1.608582
Br111	Br	1.445407	-0.899701	0.716873
Br112	Br	1.945407	-0.399701	1.216873
H113	H	1.456045	-0.565580	1.071257
H114	H	1.956045	-0.065580	1.571257
Br115	Br	1.362791	-0.900293	0.337723
Br116	Br	1.862791	-0.400293	0.837723
Br117	Br	1.299827	-1.119562	0.573602
Br118	Br	1.799827	-0.619562	1.073602
