data_functionalizedCrystal
_audit_creation_method	'MofGen! by Chris Wilmer'
_symmetry_space_group_name_H-M	'P1'
_symmetry_Int_Tables_number	1
_symmetry_cell_setting	triclinic
loop_
_symmetry_equiv_pos_as_xyz
  x,y,z
_cell_length_a	12.594517
_cell_length_b	12.594516
_cell_length_c	11.169409
_cell_angle_alpha	90.031702
_cell_angle_beta	89.976516
_cell_angle_gamma	89.973469
loop_
_atom_site_label
_atom_site_type_symbol
_atom_site_fract_x
_atom_site_fract_y
_atom_site_fract_z
Zn1	Zn	1.627211	0.423662	-0.678665
Zn2	Zn	1.627062	0.601688	-0.477984
Zn3	Zn	1.449208	0.423723	-0.477987
Zn4	Zn	1.449164	0.601598	-0.678616
O5	O	1.538161	0.512668	-0.578313
O6	O	1.776137	0.447289	-0.652064
O7	O	1.603425	0.578144	-0.310035
O8	O	1.472901	0.274769	-0.504629
O9	O	1.776027	0.578084	-0.504624
O10	O	1.603679	0.274724	-0.652066
O11	O	1.472757	0.447394	-0.310037
O12	O	1.300256	0.447307	-0.504581
O13	O	1.472826	0.577931	-0.846573
O14	O	1.300224	0.577990	-0.651983
O15	O	1.603636	0.447202	-0.846609
O16	O	1.603382	0.750622	-0.504577
O17	O	1.472681	0.750556	-0.651981
C18	C	1.261620	0.512646	-0.578278
C19	C	1.143315	0.512663	-0.578291
C20	C	1.074048	0.441487	-0.498272
C21	C	1.003218	0.538578	-0.468755
C22	C	1.003346	0.415619	-0.607829
C23	C	1.074043	0.609805	-0.548717
C24	C	1.074176	0.486781	-0.687841
C25	C	1.003378	0.583939	-0.658366
C26	C	1.538040	0.789209	-0.578299
C27	C	1.538085	0.907514	-0.578334
C28	C	1.466977	0.976770	-0.658450
C29	C	1.441027	1.047644	-0.548934
C30	C	1.564093	1.047439	-0.687867
C31	C	1.512084	0.976830	-0.468760
C32	C	1.635195	0.976619	-0.607767
C33	C	1.609282	1.047461	-0.498176
C34	C	1.815782	0.512690	-0.578349
C35	C	1.934087	0.512699	-0.578365
C36	C	1.538243	0.512549	-0.891356
C37	C	1.538278	0.512499	-1.024756
C38	C	1.538265	1.235047	-0.578351
C39	C	1.538190	1.116741	-0.578363
C40	C	1.538141	0.512709	-0.266488
C41	C	1.538312	0.512459	-0.133089
H42	H	1.105368	0.464837	-0.780426
H43	H	0.972052	0.560492	-0.376142
H44	H	0.972544	0.644215	-0.726067
H45	H	1.490033	0.945942	-0.376116
H46	H	1.669460	1.078304	-0.430358
H47	H	1.104968	0.691913	-0.523662
H48	H	0.972235	0.333546	-0.632740
H49	H	1.406753	0.945730	-0.726103
H50	H	1.717251	0.945401	-0.632689
H51	H	1.358953	1.078865	-0.524064
H52	H	1.105078	0.381354	-0.430519
H53	H	1.586049	1.078456	-0.780485
