data_functionalizedCrystal
_audit_creation_method	'MofGen! by Chris Wilmer'
_symmetry_space_group_name_H-M	'P1'
_symmetry_Int_Tables_number	1
_symmetry_cell_setting	triclinic
loop_
_symmetry_equiv_pos_as_xyz
  x,y,z
_cell_length_a	12.759401
_cell_length_b	25.639239
_cell_length_c	25.639233
_cell_angle_alpha	89.981253
_cell_angle_beta	89.988407
_cell_angle_gamma	90.040211
loop_
_atom_site_label
_atom_site_type_symbol
_atom_site_fract_x
_atom_site_fract_y
_atom_site_fract_z
Zn1	Zn	1.605994	-0.208193	-0.295595
Zn2	Zn	2.105994	0.291807	0.204405
Zn3	Zn	1.605841	-0.295612	-0.208159
Zn4	Zn	2.105841	0.204388	0.291841
Zn5	Zn	1.430322	-0.208195	-0.208175
Zn6	Zn	1.930322	0.291805	0.291825
Zn7	Zn	1.430211	-0.295602	-0.295565
Zn8	Zn	1.930211	0.204398	0.204435
O9	O	1.518092	-0.251900	-0.251874
O10	O	2.018092	0.248100	0.248126
O11	O	1.752995	-0.219793	-0.284002
O12	O	2.252995	0.280207	0.215998
O13	O	1.582539	-0.284021	-0.134996
O14	O	2.082539	0.215979	0.365004
O15	O	1.453736	-0.135029	-0.219790
O16	O	1.953736	0.364971	0.280210
O17	O	1.752882	-0.284019	-0.219763
O18	O	2.252882	0.215981	0.280237
O19	O	1.582801	-0.135028	-0.284017
O20	O	2.082801	0.364972	0.215983
O21	O	1.453586	-0.219796	-0.135008
O22	O	1.953586	0.280204	0.364992
O23	O	1.283286	-0.219786	-0.219762
O24	O	1.783286	0.280214	0.280238
O25	O	1.453548	-0.284002	-0.368734
O26	O	1.953548	0.215998	0.131266
O27	O	1.283205	-0.284003	-0.283967
O28	O	1.783205	0.215997	0.216033
O29	O	1.582694	-0.219783	-0.368756
O30	O	2.082694	0.280217	0.131244
O31	O	1.582432	-0.368776	-0.219735
O32	O	2.082432	0.131224	0.280265
O33	O	1.453398	-0.368768	-0.283952
O34	O	1.953398	0.131232	0.216048
C35	C	1.245125	-0.251894	-0.251863
C36	C	1.745125	0.248106	0.248137
C37	C	1.128348	-0.251904	-0.251871
C38	C	1.628348	0.248096	0.248129
C39	C	1.073471	-0.285393	-0.285250
C40	C	1.573471	0.214607	0.214750
C41	C	0.963747	-0.285395	-0.285260
C42	C	1.463747	0.214605	0.214740
C43	C	0.963786	-0.218417	-0.218508
C44	C	1.463786	0.281583	0.281492
C45	C	1.073508	-0.218413	-0.218501
C46	C	1.573508	0.281587	0.281499
C47	C	1.517915	-0.387743	-0.251850
C48	C	2.017915	0.112257	0.248150
C49	C	1.517936	-0.445857	-0.251857
C50	C	2.017936	0.054143	0.248143
C51	C	1.585455	-0.806211	-0.218493
C52	C	2.085455	-0.306211	0.281507
C53	C	1.585496	-0.860816	-0.218500
C54	C	2.085496	-0.360816	0.281500
O55	O	1.642720	-0.889045	-0.190106
O56	O	2.142720	-0.389045	0.309894
N57	N	1.518277	-0.888139	-0.251908
N58	N	2.018277	-0.388139	0.248092
C59	C	1.451020	-0.860856	-0.285315
C60	C	1.951020	-0.360856	0.214685
O61	O	1.393849	-0.889111	-0.313733
O62	O	1.893849	-0.389111	0.186267
C63	C	1.450985	-0.806253	-0.285311
C64	C	1.950985	-0.306253	0.214689
C65	C	1.518201	-0.778932	-0.251896
C66	C	2.018201	-0.278932	0.248104
C67	C	1.652667	-0.778890	-0.185082
C68	C	2.152667	-0.278890	0.314918
C69	C	1.652624	-0.724290	-0.185074
C70	C	2.152624	-0.224290	0.314926
C71	C	1.585370	-0.697010	-0.218478
C72	C	2.085370	-0.197010	0.281522
C73	C	1.518159	-0.724331	-0.251889
C74	C	2.018159	-0.224331	0.248111
C75	C	1.383734	-0.778970	-0.318720
C76	C	1.883734	-0.278970	0.181280
C77	C	1.383706	-0.724363	-0.318713
C78	C	1.883706	-0.224363	0.181287
C79	C	1.450922	-0.697042	-0.285299
C80	C	1.950922	-0.197042	0.214701
C81	C	1.450863	-0.642451	-0.285285
C82	C	1.950863	-0.142451	0.214715
N83	N	1.518082	-0.615127	-0.251877
N84	N	2.018082	-0.115127	0.248123
C85	C	1.585336	-0.642407	-0.218473
C86	C	2.085336	-0.142407	0.281527
C87	C	1.451099	-0.975527	-0.285324
C88	C	1.951099	-0.475527	0.214676
C89	C	1.451127	-1.030129	-0.285326
C90	C	1.951127	-0.530129	0.214674
C91	C	1.585605	-1.030085	-0.218511
C92	C	2.085605	-0.530085	0.281489
C93	C	1.585571	-0.975482	-0.218506
C94	C	2.085571	-0.475482	0.281494
C95	C	1.518318	-0.948203	-0.251915
C96	C	2.018318	-0.448203	0.248085
C97	C	1.585241	-0.527742	-0.218459
C98	C	2.085241	-0.027742	0.281541
C99	C	1.585190	-0.473137	-0.218453
C100	C	2.085190	0.026863	0.281547
C101	C	1.450716	-0.473185	-0.285270
C102	C	1.950716	0.026815	0.214730
C103	C	1.450763	-0.527786	-0.285274
C104	C	1.950763	-0.027786	0.214726
C105	C	1.518034	-0.555063	-0.251867
C106	C	2.018034	-0.055063	0.248133
O107	O	1.393671	-0.614187	-0.313666
O108	O	1.893671	-0.114187	0.186334
O109	O	1.642507	-0.614145	-0.190065
O110	O	2.142507	-0.114145	0.309935
C111	C	1.792125	-0.251907	-0.251884
C112	C	2.292125	0.248093	0.248116
C113	C	1.908902	-0.251910	-0.251889
C114	C	2.408902	0.248090	0.248111
C115	C	1.518126	-0.251891	-0.388247
C116	C	2.018126	0.248109	0.111753
C117	C	1.518140	-0.251887	-0.446361
C118	C	2.018140	0.248113	0.053639
C119	C	1.518298	-0.115527	-0.251909
C120	C	2.018298	0.384473	0.248091
C121	C	1.518386	-0.057413	-0.251924
C122	C	2.018386	0.442587	0.248076
C123	C	1.585472	-0.218349	-0.806741
C124	C	2.085472	0.281651	-0.306741
C125	C	1.585485	-0.218335	-0.861345
C126	C	2.085485	0.281665	-0.361345
O127	O	1.642649	-0.189881	-0.889596
O128	O	2.142649	0.310119	-0.389596
N129	N	1.518256	-0.251765	-0.888643
N130	N	2.018256	0.248235	-0.388643
C131	C	1.451002	-0.285208	-0.861334
C132	C	1.951002	0.214792	-0.361334
O133	O	1.393819	-0.313641	-0.889567
O134	O	1.893819	0.186359	-0.389567
C135	C	1.450985	-0.285219	-0.806731
C136	C	1.950985	0.214781	-0.306731
C137	C	1.518226	-0.251791	-0.779436
C138	C	2.018226	0.248209	-0.279436
C139	C	1.652707	-0.184923	-0.779445
C140	C	2.152707	0.315077	-0.279445
C141	C	1.652695	-0.184939	-0.724845
C142	C	2.152695	0.315061	-0.224845
C143	C	1.585449	-0.218380	-0.697540
C144	C	2.085449	0.281620	-0.197540
C145	C	1.518214	-0.251806	-0.724835
C146	C	2.018214	0.248194	-0.224835
C147	C	1.383726	-0.318659	-0.779423
C148	C	1.883726	0.181341	-0.279423
C149	C	1.383714	-0.318667	-0.724816
C150	C	1.883714	0.181333	-0.224816
C151	C	1.450955	-0.285239	-0.697521
C152	C	1.950955	0.214761	-0.197521
C153	C	1.450955	-0.285262	-0.642929
C154	C	1.950955	0.214738	-0.142929
N155	N	1.518184	-0.251833	-0.615631
N156	N	2.018184	0.248167	-0.115631
C157	C	1.585431	-0.218391	-0.642936
C158	C	2.085431	0.281609	-0.142936
C159	C	1.451043	-0.285180	-0.976005
C160	C	1.951043	0.214820	-0.476005
C161	C	1.451065	-0.285172	-1.030607
C162	C	1.951065	0.214828	-0.530607
C163	C	1.585547	-0.218298	-1.030614
C164	C	2.085547	0.281702	-0.530614
C165	C	1.585529	-0.218310	-0.976011
C166	C	2.085529	0.281690	-0.476011
C167	C	1.518272	-0.251750	-0.948707
C168	C	2.018272	0.248250	-0.448707
C169	C	1.585402	-0.218426	-0.528271
C170	C	2.085402	0.281574	-0.028271
C171	C	1.585387	-0.218446	-0.473666
C172	C	2.085387	0.281554	0.026334
C173	C	1.450901	-0.285317	-0.473663
C174	C	1.950901	0.214683	0.026337
C175	C	1.450920	-0.285300	-0.528264
C176	C	1.950920	0.214700	-0.028264
C177	C	1.518173	-0.251850	-0.555567
C178	C	2.018173	0.248150	-0.055567
O179	O	1.393818	-0.313700	-0.614643
O180	O	1.893818	0.186300	-0.114643
O181	O	1.642595	-0.189958	-0.614696
O182	O	2.142595	0.310042	-0.114696
C183	C	1.518119	-0.251872	-0.116031
C184	C	2.018119	0.248128	0.383969
C185	C	1.518308	-0.251728	-0.057917
C186	C	2.018308	0.248272	0.442083
H187	H	0.919072	-0.312664	-0.312442
H188	H	1.419072	0.187336	0.187558
H189	H	1.118119	-0.312662	-0.312424
H190	H	1.618119	0.187338	0.187576
H191	H	1.396034	-0.550032	-0.312485
H192	H	1.896034	-0.050032	0.187515
H193	H	1.118190	-0.191139	-0.191320
H194	H	1.618190	0.308861	0.308680
H195	H	1.328932	-0.345893	-0.702588
H196	H	1.828932	0.154107	-0.202588
Cl197	Cl	1.299240	-0.813303	-0.360736
Cl198	Cl	1.799240	-0.313303	0.139264
H199	H	0.919122	-0.191151	-0.191339
H200	H	1.419122	0.308849	0.308661
Cl201	Cl	1.669810	-0.562024	-0.176460
Cl202	Cl	2.169810	-0.062024	0.323540
Cl203	Cl	1.669697	-0.438794	-0.176444
Cl204	Cl	2.169697	0.061206	0.323556
Cl205	Cl	1.737227	-0.813175	-0.143083
Cl206	Cl	2.237227	-0.313175	0.356917
Cl207	Cl	1.737146	-0.689952	-0.143073
Cl208	Cl	2.237146	-0.189952	0.356927
Cl209	Cl	1.670075	-0.941141	-0.176499
Cl210	Cl	2.170075	-0.441141	0.323501
Cl211	Cl	1.366178	-0.438881	-0.327264
Cl212	Cl	1.866178	0.061119	0.172736
Cl213	Cl	1.670152	-1.064389	-0.176516
Cl214	Cl	2.170152	-0.564389	0.323484
H215	H	1.328942	-0.702156	-0.345920
H216	H	1.828942	-0.202156	0.154080
Cl217	Cl	1.366611	-1.064469	-0.327328
Cl218	Cl	1.866611	-0.564469	0.172672
Cl219	Cl	1.366545	-0.327206	-1.064915
Cl220	Cl	1.866545	0.172794	-0.564915
Cl221	Cl	1.366535	-0.941239	-0.327323
Cl222	Cl	1.866535	-0.441239	0.172677
Cl223	Cl	1.669927	-0.176419	-0.439355
Cl224	Cl	2.169927	0.323581	0.060645
Cl225	Cl	1.669946	-0.176372	-0.562586
Cl226	Cl	2.169946	0.323628	-0.062586
H227	H	1.707448	-0.157717	-0.702626
H228	H	2.207448	0.342283	-0.202626
Cl229	Cl	1.737271	-0.142884	-0.813762
Cl230	Cl	2.237271	0.357116	-0.313762
Cl231	Cl	1.670062	-0.176283	-0.941703
Cl232	Cl	2.170062	0.323717	-0.441703
Cl233	Cl	1.670084	-0.176256	-1.064951
Cl234	Cl	2.170084	0.323744	-0.564951
Cl235	Cl	1.366490	-0.327229	-0.941685
Cl236	Cl	1.866490	0.172771	-0.441685
H237	H	1.328971	-0.345880	-0.801637
H238	H	1.828971	0.154120	-0.301637
H239	H	1.396176	-0.312525	-0.550489
H240	H	1.896176	0.187475	-0.050489
H241	H	1.396154	-0.312546	-0.451422
H242	H	1.896154	0.187454	0.048578
