data_functionalizedCrystal
_audit_creation_method	'MofGen! by Chris Wilmer'
_symmetry_space_group_name_H-M	'P1'
_symmetry_Int_Tables_number	1
_symmetry_cell_setting	triclinic
loop_
_symmetry_equiv_pos_as_xyz
  x,y,z
_cell_length_a	10.654562
_cell_length_b	17.038272
_cell_length_c	9.130313
_cell_angle_alpha	90.001738
_cell_angle_beta	90.003070
_cell_angle_gamma	87.800830
loop_
_atom_site_label
_atom_site_type_symbol
_atom_site_fract_x
_atom_site_fract_y
_atom_site_fract_z
O1	O	1.678031	0.109922	0.121898
O2	O	1.313526	0.120380	0.121880
O3	O	1.493612	0.001324	0.121877
O4	O	1.497945	0.228979	0.121901
O5	O	1.493610	0.001327	-0.121721
O6	O	1.313524	0.120383	-0.121719
O7	O	1.678029	0.109925	-0.121701
Cu8	Cu	1.495777	0.115155	-0.143952
Cu9	Cu	1.495779	0.115151	0.144132
O10	O	1.497943	0.228982	-0.121698
C11	C	1.266656	0.119612	0.000078
C12	C	1.127000	0.117308	0.000071
C13	C	1.061368	0.116235	-0.132703
C14	C	0.930145	0.114077	-0.132679
C15	C	0.930197	0.114068	0.132906
C16	C	1.061418	0.116220	0.132880
C17	C	1.126950	0.117323	-0.265512
C18	C	1.061318	0.116251	-0.398297
C19	C	0.930095	0.114093	-0.398273
C20	C	0.864504	0.113007	-0.265464
C21	C	1.489671	-0.027825	0.000078
C22	C	1.477914	-0.114684	0.000078
C23	C	1.585857	-0.164192	0.000082
C24	C	1.574803	-0.245805	0.000095
C25	C	1.455803	-0.277908	0.000094
C26	C	1.347852	-0.228393	0.000095
C27	C	1.358907	-0.146782	0.000092
C28	C	1.416746	-0.523885	0.000112
C29	C	1.405698	-0.605502	0.000111
C30	C	1.632651	-0.622908	0.000114
C31	C	1.643696	-0.541295	0.000102
C32	C	1.535744	-0.491788	0.000110
C33	C	1.444501	-0.361329	0.000103
C34	C	1.547047	-0.408368	0.000112
C35	C	1.724900	0.110694	0.000104
C36	C	1.864556	0.112997	0.000121
C37	C	1.501885	0.258131	0.000105
C38	C	1.513642	0.344990	0.000115
N39	N	1.495784	0.115157	-0.346575
C40	C	1.575550	0.062457	-0.423228
C41	C	1.575545	0.062447	-0.576565
C42	C	1.416006	0.167845	-0.576582
C43	C	1.416005	0.167850	-0.423248
C44	C	1.655329	0.009763	-0.346555
C45	C	1.735102	-0.042940	-0.423208
C46	C	1.735098	-0.042950	-0.576545
C47	C	1.655320	0.009745	-0.653229
N48	N	1.495781	0.115142	0.346754
H49	H	1.114856	0.117098	0.240997
H50	H	1.682760	-0.138061	0.000073
Br51	Br	1.655346	0.009779	-0.138456
H52	H	1.351056	0.210748	-0.639027
Br53	Br	1.270238	-0.456706	0.000133
Br54	Br	1.150330	0.117713	-0.578529
Br55	Br	1.655304	0.009720	-0.861331
H56	H	1.233797	0.119083	-0.265547
H57	H	1.800047	-0.085847	-0.360765
H58	H	0.757654	0.111247	-0.265455
Br59	Br	1.307740	0.239370	-0.319214
H60	H	0.876662	0.113214	-0.506393
H61	H	0.876782	0.113185	0.241033
Br62	Br	1.721306	-0.312992	0.000101
Br63	Br	1.212406	-0.079591	0.000098
H64	H	1.740598	-0.515163	0.000103
Br65	Br	1.779149	-0.690100	0.000102
Br66	Br	1.244188	-0.649070	0.000094
H67	H	1.250959	-0.254538	0.000103
H68	H	1.643936	-0.382227	0.000145
Br69	Br	1.843344	-0.114482	-0.680575
H70	H	1.347611	-0.387476	0.000099
