data_functionalizedCrystal
_audit_creation_method	'MofGen! by Chris Wilmer'
_symmetry_space_group_name_H-M	'P1'
_symmetry_Int_Tables_number	1
_symmetry_cell_setting	triclinic
loop_
_symmetry_equiv_pos_as_xyz
  x,y,z
_cell_length_a	10.654543
_cell_length_b	10.654549
_cell_length_c	9.130313
_cell_angle_alpha	90.002761
_cell_angle_beta	90.000509
_cell_angle_gamma	95.516525
loop_
_atom_site_label
_atom_site_type_symbol
_atom_site_fract_x
_atom_site_fract_y
_atom_site_fract_z
O1	O	-0.176394	1.667836	0.121755
O2	O	-0.193201	1.302357	0.121764
O3	O	-0.002058	1.493504	0.121762
O4	O	-0.367537	1.476689	0.121756
O5	O	-0.002058	1.493490	-0.121837
O6	O	-0.193201	1.302343	-0.121835
O7	O	-0.176394	1.667822	-0.121844
Cu8	Cu	-0.184798	1.485081	-0.144082
Cu9	Cu	-0.184798	1.485098	0.144002
O10	O	-0.367537	1.476675	-0.121843
C11	C	-0.191967	1.255552	-0.000035
C12	C	-0.188275	1.116109	-0.000031
C13	C	0.044740	1.492264	-0.000033
C14	C	0.184184	1.488575	-0.000021
C15	C	0.263670	1.601119	-0.000018
C16	C	0.394691	1.597646	0.000009
C17	C	0.366728	1.369075	0.000023
C18	C	0.235709	1.372550	0.000007
C19	C	-0.177628	1.714627	-0.000043
C20	C	-0.181320	1.854070	-0.000037
C21	C	0.585665	1.477921	-0.000027
C22	C	0.446224	1.481628	0.000022
N23	N	-0.184797	1.485078	-0.346705
C24	C	-0.072256	2.064587	-0.000031
C25	C	-0.068778	1.933567	-0.000029
C26	C	-0.297348	1.905600	-0.000032
C27	C	-0.300825	2.036618	-0.000023
C28	C	-0.261679	1.561907	-0.423355
C29	C	-0.261672	1.561927	-0.576691
C30	C	-0.107897	1.408278	-0.576715
C31	C	-0.107899	1.408266	-0.423381
N32	N	-0.184788	1.485111	0.346624
H33	H	0.221723	1.695594	-0.000038
Cl34	Cl	-0.011241	1.311710	-0.673119
Cl35	Cl	-0.011241	1.311669	-0.327014
Cl36	Cl	-0.358340	1.658481	-0.326967
H37	H	0.459404	1.689290	0.000014
H38	H	0.408696	1.274611	0.000044
Cl39	Cl	-0.446690	2.101393	-0.000011
H40	H	0.170988	1.280898	0.000009
H41	H	-0.388982	1.840863	-0.000028
Cl42	Cl	0.069235	2.164514	-0.000031
Cl43	Cl	0.077081	1.868803	-0.000016
Cl44	Cl	-0.358327	1.658519	-0.673045
