data_functionalizedCrystal
_audit_creation_method	'MofGen! by Chris Wilmer'
_symmetry_space_group_name_H-M	'P1'
_symmetry_Int_Tables_number	1
_symmetry_cell_setting	triclinic
loop_
_symmetry_equiv_pos_as_xyz
  x,y,z
_cell_length_a	8.559649
_cell_length_b	9.565339
_cell_length_c	8.559649
_cell_angle_alpha	89.998090
_cell_angle_beta	69.778664
_cell_angle_gamma	90.002743
loop_
_atom_site_label
_atom_site_type_symbol
_atom_site_fract_x
_atom_site_fract_y
_atom_site_fract_z
O1	O	2.126882	0.116238	-0.055047
O2	O	1.651397	0.116243	0.028735
O3	O	1.931030	0.116239	-0.250898
O4	O	1.847249	0.116243	0.224586
O5	O	1.931009	-0.116281	-0.250880
O6	O	1.651376	-0.116277	0.028753
O7	O	2.126860	-0.116282	-0.055029
Zn8	Zn	1.889115	-0.153197	-0.013135
Zn9	Zn	1.889143	0.153158	-0.013159
O10	O	1.847227	-0.116277	0.224604
C11	C	1.591077	-0.000016	0.035093
C12	C	1.411378	-0.000014	0.053992
N13	N	1.889107	-0.362276	-0.013121
C14	C	1.759756	-0.453477	0.116166
C15	C	1.902491	-0.546658	0.129655
C16	C	1.746434	-0.546651	-0.026606
C17	C	2.031907	-0.453405	0.000432
C18	C	1.875762	-0.453390	-0.155881
C19	C	2.018610	-0.546529	-0.142467
C20	C	2.187180	-0.000020	-0.061387
C21	C	2.366879	-0.000013	-0.080286
C22	C	1.937369	-0.000019	-0.311198
C23	C	1.956268	-0.000011	-0.490898
N24	N	1.889165	0.362238	-0.013187
C25	C	1.840889	-0.000017	0.284904
C26	C	1.821990	-0.000015	0.464604
H27	H	1.311990	-0.000005	0.183420
H28	H	2.085696	-0.000024	-0.590286
H29	H	1.864383	-0.412391	-0.276534
H30	H	1.913819	-0.587624	0.250353
C31	C	1.499308	0.000274	-0.252902
C32	C	1.481006	0.119918	-0.339235
C33	C	1.602993	0.120240	-0.498247
H34	H	1.487232	-0.080716	-0.311936
H35	H	1.606559	0.000348	-0.243167
H36	H	1.373781	0.119831	-0.348977
H37	H	1.493098	0.200927	-0.280252
H38	H	1.710244	0.120314	-0.488512
H39	H	1.590908	0.039245	-0.557264
H40	H	1.590602	0.201423	-0.556837
H41	H	1.650445	-0.412621	0.225578
H42	H	2.152595	-0.412618	0.011957
C43	C	2.164855	-0.600604	-0.288143
C44	C	2.313803	-0.553128	-0.273241
C45	C	2.448560	-0.602933	-0.407386
H46	H	2.156437	-0.567288	-0.389477
H47	H	2.163662	-0.699922	-0.287893
H48	H	2.314995	-0.453831	-0.273507
H49	H	2.322276	-0.586440	-0.171935
H50	H	2.447367	-0.702251	-0.407136
H51	H	2.440125	-0.569614	-0.508710
H52	H	2.549637	-0.570739	-0.397285
C53	C	1.585601	-0.601536	-0.041707
C54	C	1.588377	-0.747892	-0.043009
C55	C	1.440233	-0.798494	-0.056879
H56	H	1.575061	-0.568380	-0.142201
H57	H	1.493759	-0.569755	0.050290
H58	H	1.680193	-0.779660	-0.134997
H59	H	1.598891	-0.781086	0.057475
H60	H	1.348390	-0.766713	0.035117
H61	H	1.429705	-0.765329	-0.157374
H62	H	1.442089	-0.897801	-0.057749
H63	H	1.692570	-0.000018	-0.436018
