data_functionalizedCrystal
_audit_creation_method	'MofGen! by Chris Wilmer'
_symmetry_space_group_name_H-M	'P1'
_symmetry_Int_Tables_number	1
_symmetry_cell_setting	triclinic
loop_
_symmetry_equiv_pos_as_xyz
  x,y,z
_cell_length_a	14.519709
_cell_length_b	16.109301
_cell_length_c	14.586319
_cell_angle_alpha	90.003133
_cell_angle_beta	89.998870
_cell_angle_gamma	96.429187
loop_
_atom_site_label
_atom_site_type_symbol
_atom_site_fract_x
_atom_site_fract_y
_atom_site_fract_z
O1	O	0.118535	-1.103339	-0.076184
O2	O	0.618535	-0.603339	0.423816
O3	O	0.133287	-0.861303	-0.076199
O4	O	0.633287	-0.361303	0.423801
O5	O	-0.008341	-0.988738	-0.076183
O6	O	0.491659	-0.488738	0.423817
O7	O	0.260163	-0.975904	-0.076200
O8	O	0.760163	-0.475904	0.423800
O9	O	-0.008333	-0.988723	0.076298
O10	O	0.491667	-0.488723	0.576298
O11	O	0.133295	-0.861287	0.076282
O12	O	0.633295	-0.361287	0.576282
O13	O	0.118543	-1.103324	0.076296
O14	O	0.618543	-0.603324	0.576296
Cu15	Cu	0.125920	-0.982304	0.090212
Cu16	Cu	0.625920	-0.482304	0.590212
Cu17	Cu	0.125910	-0.982323	-0.090114
Cu18	Cu	0.625910	-0.482323	0.409886
O19	O	0.260171	-0.975888	0.076280
O20	O	0.760171	-0.475888	0.576280
C21	C	-0.042696	-0.988132	0.000057
C22	C	0.457304	-0.488132	0.500057
C23	C	-0.145073	-0.986340	0.000058
C24	C	0.354927	-0.486340	0.500058
C25	C	0.132693	-0.830319	0.000039
C26	C	0.632693	-0.330319	0.500039
C27	C	0.130902	-0.738021	0.000034
C28	C	0.630902	-0.238021	0.500034
C29	C	0.119136	-1.134307	0.000056
C30	C	0.619136	-0.634307	0.500056
C31	C	0.120928	-1.226606	0.000055
C32	C	0.620928	-0.726606	0.500055
C33	C	-0.519955	-0.979741	0.000034
C34	C	-0.019955	-0.479741	0.500034
C35	C	-0.415651	-0.981574	0.000041
C36	C	0.084349	-0.481574	0.500041
C37	C	-0.332517	-0.983041	0.000047
C38	C	0.167483	-0.483041	0.500047
C39	C	-0.228207	-0.984873	0.000052
C40	C	0.271793	-0.484873	0.500052
C41	C	0.294526	-0.976494	0.000038
C42	C	0.794526	-0.476494	0.500038
C43	C	0.396903	-0.978287	0.000031
C44	C	0.896903	-0.478287	0.500031
N45	N	0.125926	-0.982297	0.217044
N46	N	0.625926	-0.482297	0.717044
C47	C	0.210775	-0.515887	0.000040
C48	C	0.710775	-0.015887	0.500040
C49	C	0.209085	-0.429163	0.000046
C50	C	0.709085	0.070837	0.500046
C51	C	0.041048	-0.448747	0.000053
C52	C	0.541048	0.051253	0.500053
C53	C	0.042739	-0.535468	0.000053
C54	C	0.542739	-0.035468	0.500053
C55	C	0.127606	-0.569036	0.000042
C56	C	0.627606	-0.069036	0.500042
C57	C	0.124224	-0.395591	0.000047
C58	C	0.624224	0.104409	0.500047
C59	C	0.122390	-0.301562	0.000054
C60	C	0.622390	0.198438	0.500054
C61	C	0.129440	-0.663071	0.000037
C62	C	0.629440	-0.163071	0.500037
N63	N	0.125896	-0.982336	-0.216946
N64	N	0.625896	-0.482336	0.283054
C65	C	0.181864	-1.032817	0.452049
C66	C	0.681864	-0.532817	0.952049
C67	C	0.181857	-1.032826	0.548031
C68	C	0.681857	-0.532826	1.048031
C69	C	0.069953	-0.931814	0.548041
C70	C	0.569953	-0.431814	1.048041
C71	C	0.069955	-0.931811	0.452062
C72	C	0.569955	-0.431811	0.952062
C73	C	0.125915	-0.982310	0.404068
C74	C	0.625915	-0.482310	0.904068
C75	C	0.125907	-0.982323	0.596029
C76	C	0.625907	-0.482323	1.096029
C77	C	0.125900	-0.982332	0.700096
C78	C	0.625900	-0.482332	1.200096
C79	C	0.125922	-0.982303	0.299995
C80	C	0.625922	-0.482303	0.799995
H81	H	0.279879	-0.543214	0.000037
H82	H	0.779879	-0.043214	0.500037
H83	H	0.024392	-0.890698	0.587129
H84	H	0.524392	-0.390698	1.087129
H85	H	0.227415	-1.073954	0.587093
H86	H	0.727415	-0.573954	1.087093
O87	O	0.009612	-0.877330	0.400300
O88	O	0.509612	-0.377330	0.900300
H89	H	-0.029290	-0.842205	0.449795
H90	H	0.470710	-0.342205	0.949795
O91	O	0.298788	-0.371835	0.000040
O92	O	0.798788	0.128165	0.500040
H93	H	0.358081	-0.409749	0.000027
H94	H	0.858081	0.090251	0.500027
H95	H	-0.024991	-0.578745	0.000058
H96	H	0.475009	-0.078745	0.500058
O97	O	-0.050485	-0.412543	0.000058
O98	O	0.449515	0.087457	0.500058
H99	H	-0.037691	-0.343311	0.000049
H100	H	0.462309	0.156689	0.500049
O101	O	0.242211	-1.087288	0.400280
O102	O	0.742211	-0.587288	0.900280
H103	H	0.281107	-1.122415	0.449774
H104	H	0.781107	-0.622415	0.949774
