data_functionalizedCrystal
_audit_creation_method	'MofGen! by Chris Wilmer'
_symmetry_space_group_name_H-M	'P1'
_symmetry_Int_Tables_number	1
_symmetry_cell_setting	triclinic
loop_
_symmetry_equiv_pos_as_xyz
  x,y,z
_cell_length_a	10.654545
_cell_length_b	13.339070
_cell_length_c	9.730223
_cell_angle_alpha	89.998050
_cell_angle_beta	89.997167
_cell_angle_gamma	100.056187
loop_
_atom_site_label
_atom_site_type_symbol
_atom_site_fract_x
_atom_site_fract_y
_atom_site_fract_z
O1	O	1.715928	0.142412	-0.114271
O2	O	1.355033	0.155987	-0.114276
O3	O	1.494061	0.001646	-0.114270
O4	O	1.576900	0.296753	-0.114277
O5	O	1.494048	0.001641	0.114310
O6	O	1.355019	0.155983	0.114304
O7	O	1.715915	0.142408	0.114309
Zn8	Zn	1.535465	0.149194	0.150599
Zn9	Zn	1.535483	0.149200	-0.150565
O10	O	1.576886	0.296749	0.114303
C11	C	1.307892	0.154989	0.000013
C12	C	1.167442	0.152010	0.000011
C13	C	1.101457	0.150605	0.124611
C14	C	0.969486	0.147789	0.124611
C15	C	0.969500	0.147787	-0.124599
C16	C	1.101466	0.150595	-0.124598
C17	C	1.480062	-0.036144	0.000018
C18	C	1.438352	-0.148738	0.000012
C19	C	1.762665	-0.511259	0.000017
C20	C	1.801858	-0.405472	0.000031
C21	C	1.710985	-0.341283	0.000026
C22	C	1.580912	-0.382892	0.000008
C23	C	1.541716	-0.488690	0.000005
C24	C	1.490035	-0.318714	0.000013
C25	C	1.359963	-0.360322	-0.000004
C26	C	1.320773	-0.466110	-0.000008
C27	C	1.411646	-0.530298	-0.000003
C28	C	1.529232	-0.212916	0.000016
C29	C	1.308282	-0.190346	0.000004
C30	C	1.269090	-0.296134	-0.000010
C31	C	1.763056	0.143406	0.000017
C32	C	1.903505	0.146385	0.000010
C33	C	1.590886	0.334538	0.000012
C34	C	1.632596	0.447132	0.000009
N35	N	1.535461	0.149190	0.356135
N36	N	1.535493	0.149196	-0.356102
C37	C	1.597062	0.080877	0.428064
C38	C	1.597075	0.080877	0.571947
C39	C	1.473885	0.217513	0.571960
C40	C	1.473865	0.217507	0.428079
H41	H	1.155193	0.151737	-0.226068
H42	H	0.915767	0.146645	0.226073
H43	H	1.423737	0.273136	0.630551
O44	O	1.942138	-0.360592	0.000020
H45	H	1.998744	-0.422996	0.000002
O46	O	1.669514	-0.168043	0.000029
H47	H	1.692662	-0.120375	-0.093131
O48	O	1.753247	-0.227183	0.000027
H49	H	1.858959	-0.209033	0.000027
H50	H	1.836640	-0.563530	0.000033
H51	H	1.379742	-0.616440	-0.000019
O52	O	1.180484	-0.510994	-0.000010
H53	H	1.123877	-0.448591	-0.000022
O54	O	1.128801	-0.341020	-0.000003
H55	H	1.105670	-0.388684	-0.093162
H56	H	1.155170	0.151756	0.226076
H57	H	1.647215	0.025248	0.369490
H58	H	1.234285	-0.138083	0.000006
H59	H	1.647234	0.025249	0.630507
H60	H	1.423696	0.273136	0.369511
H61	H	0.915766	0.146636	-0.226052
