data_functionalizedCrystal
_audit_creation_method	'MofGen! by Chris Wilmer'
_symmetry_space_group_name_H-M	'P1'
_symmetry_Int_Tables_number	1
_symmetry_cell_setting	triclinic
loop_
_symmetry_equiv_pos_as_xyz
  x,y,z
_cell_length_a	14.971482
_cell_length_b	10.654551
_cell_length_c	13.448316
_cell_angle_alpha	89.996249
_cell_angle_beta	89.993798
_cell_angle_gamma	84.048985
loop_
_atom_site_label
_atom_site_type_symbol
_atom_site_fract_x
_atom_site_fract_y
_atom_site_fract_z
O1	O	1.187840	0.163637	-0.082673
O2	O	0.927546	0.183240	-0.082677
O3	O	1.063678	-0.009365	-0.082675
O4	O	1.051709	0.356242	-0.082674
O5	O	1.063660	-0.009377	0.082709
O6	O	0.927529	0.183228	0.082707
O7	O	1.187823	0.163625	0.082711
Cu8	Cu	1.057675	0.173426	0.097810
Cu9	Cu	1.057695	0.173440	-0.097776
O10	O	1.051692	0.356230	0.082710
C11	C	0.894208	0.182358	0.000015
C12	C	0.794897	0.179734	0.000013
C13	C	0.748236	0.178491	0.090165
C14	C	0.654924	0.176005	0.090166
C15	C	0.608274	0.174770	0.000014
C16	C	0.654941	0.176009	-0.090145
C17	C	0.748252	0.178486	-0.090145
C18	C	0.460451	0.170849	-0.090138
C19	C	0.367134	0.168374	-0.090139
C20	C	0.367123	0.168367	0.090172
C21	C	0.460434	0.170845	0.090172
C22	C	0.507095	0.172086	0.000013
C23	C	1.062790	-0.056159	0.000015
C24	C	1.060160	-0.195574	0.000008
C25	C	1.058936	-0.261067	-0.090141
C26	C	1.056457	-0.392060	-0.090137
C27	C	1.056431	-0.392059	0.090174
C28	C	1.058903	-0.261066	0.090168
C29	C	1.058955	-0.261069	-0.194242
C30	C	1.056476	-0.392063	-0.194238
C31	C	1.221161	0.164507	0.000018
C32	C	1.320473	0.167131	0.000013
C33	C	1.052580	0.403025	0.000018
C34	C	1.055209	0.542439	0.000018
N35	N	1.057667	0.173415	0.235374
N36	N	1.057710	0.173440	-0.235340
C37	C	1.117965	0.088164	0.287415
C38	C	1.117970	0.088163	0.391519
C39	C	1.057681	0.173420	0.443579
C40	C	0.997377	0.258674	0.391531
C41	C	0.997368	0.258668	0.287429
C42	C	0.997402	0.258683	0.608511
C43	C	0.997412	0.258691	0.712619
C44	C	1.118004	0.088178	0.712600
C45	C	1.117995	0.088172	0.608499
C46	C	1.057692	0.173428	0.556458
H47	H	0.498413	0.171858	0.163582
O48	O	0.609709	0.174986	-0.177781
C49	C	0.623039	0.284292	-0.232612
H50	H	0.687636	0.322314	-0.206979
H51	H	0.563899	0.359003	-0.220109
C52	C	0.550890	0.204709	-0.375506
C53	C	0.630233	0.251402	-0.344028
H54	H	0.555323	0.184425	-0.444233
H55	H	0.541906	0.131070	-0.338564
H56	H	0.501615	0.266976	-0.365078
H57	H	0.679504	0.189130	-0.354445
H58	H	0.639225	0.325031	-0.380974
H59	H	1.124195	-0.232202	-0.226540
O60	O	0.321895	0.167345	-0.177771
C61	C	0.335219	0.276645	-0.232612
H62	H	0.399819	0.314668	-0.206993
H63	H	0.276082	0.351359	-0.220105
C64	C	0.263051	0.197049	-0.375488
C65	C	0.342399	0.243743	-0.344027
H66	H	0.267476	0.176757	-0.444214
H67	H	0.254071	0.123414	-0.338539
H68	H	0.213778	0.259318	-0.365057
H69	H	0.391668	0.181469	-0.354447
H70	H	0.351388	0.317368	-0.380980
H71	H	1.118293	-0.439016	-0.234207
H72	H	1.167091	0.018756	0.566111
H73	H	1.167062	0.018744	0.245035
O74	O	0.978696	-0.426725	-0.232719
C75	C	0.980765	-0.559296	-0.230457
H76	H	1.030147	-0.599045	-0.171043
H77	H	1.002924	-0.599597	-0.306099
C78	C	0.825730	-0.547155	-0.279041
C79	C	0.886377	-0.595975	-0.206060
H80	H	0.767507	-0.569782	-0.263996
H81	H	0.824337	-0.457840	-0.280568
H82	H	0.844208	-0.580744	-0.342069
H83	H	0.867905	-0.562374	-0.143036
H84	H	0.887765	-0.685286	-0.204522
O85	O	0.321787	0.166919	0.177732
C86	C	0.277265	0.056812	0.183118
H87	H	0.312003	-0.018391	0.131952
H88	H	0.204406	0.079498	0.158908
C89	C	0.237462	0.099846	0.353668
C90	C	0.280133	0.007476	0.290831
H91	H	0.239227	0.069415	0.420110
H92	H	0.267454	0.174030	0.350039
H93	H	0.176750	0.118742	0.333481
H94	H	0.340846	-0.011407	0.311011
H95	H	0.250151	-0.066712	0.294466
O96	O	1.176516	0.005188	0.441956
C97	C	1.161209	-0.119172	0.416549
H98	H	1.126719	-0.119104	0.340977
H99	H	1.116466	-0.158126	0.475157
C100	C	1.293879	-0.202568	0.504530
C101	C	1.251525	-0.202487	0.411707
H102	H	1.349589	-0.253964	0.501548
H103	H	1.304191	-0.118785	0.521651
H104	H	1.256584	-0.235027	0.553360
H105	H	1.288815	-0.170014	0.362882
H106	H	1.241222	-0.286267	0.394578
H107	H	0.786242	0.179501	-0.163556
H108	H	0.498440	0.171860	-0.163556
H109	H	1.055406	-0.445398	0.163579
O110	O	1.176671	0.005311	0.762993
C111	C	1.229871	-0.069951	0.694721
H112	H	1.231186	-0.018461	0.620509
H113	H	1.200263	-0.163319	0.683664
C114	C	1.324591	-0.158833	0.826475
C115	C	1.326211	-0.095588	0.735329
H116	H	1.384017	-0.174653	0.851524
H117	H	1.288747	-0.108132	0.872472
H118	H	1.299913	-0.236633	0.817249
H119	H	1.350878	-0.017783	0.744558
H120	H	1.362062	-0.146277	0.689333
H121	H	0.948318	0.328114	0.755001
H122	H	1.059895	-0.207746	0.163576
H123	H	0.997148	-0.214121	-0.234217
H124	H	0.948293	0.328104	0.566142
O125	O	0.938686	0.341363	0.442057
C126	C	0.850019	0.320756	0.416625
H127	H	0.848962	0.220206	0.388016
H128	H	0.824168	0.390302	0.356200
C129	C	0.790809	0.463625	0.544255
C130	C	0.789510	0.340124	0.509124
H131	H	0.753482	0.475577	0.601310
H132	H	0.850545	0.477513	0.561387
H133	H	0.769268	0.521565	0.493892
H134	H	0.811061	0.282187	0.559482
H135	H	0.729776	0.326227	0.492003
O136	O	0.609731	0.174864	0.177828
C137	C	0.670916	0.176464	0.257397
H138	H	0.733974	0.217959	0.230963
H139	H	0.689604	0.076057	0.285125
C140	C	0.549878	0.206829	0.375035
C141	C	0.627324	0.257803	0.342570
H142	H	0.522988	0.256997	0.427576
H143	H	0.508655	0.205746	0.321429
H144	H	0.565462	0.123157	0.398135
H145	H	0.611737	0.341467	0.319460
H146	H	0.668543	0.258902	0.396175
O147	O	0.938919	0.341536	0.236763
C148	C	0.987290	0.419142	0.176545
H149	H	1.056970	0.369287	0.160938
H150	H	0.993941	0.511977	0.216653
C151	C	0.851435	0.507090	0.096837
C152	C	0.937015	0.445852	0.077662
H153	H	0.820422	0.523572	0.035843
H154	H	0.818846	0.454809	0.137410
H155	H	0.856990	0.584446	0.130263
H156	H	0.931459	0.368492	0.044248
H157	H	0.969602	0.498121	0.037081
H158	H	0.786211	0.179507	0.163577
