data_functionalizedCrystal
_audit_creation_method	'MofGen! by Chris Wilmer'
_symmetry_space_group_name_H-M	'P1'
_symmetry_Int_Tables_number	1
_symmetry_cell_setting	triclinic
loop_
_symmetry_equiv_pos_as_xyz
  x,y,z
_cell_length_a	14.044220
_cell_length_b	23.532407
_cell_length_c	12.503572
_cell_angle_alpha	93.496478
_cell_angle_beta	86.164750
_cell_angle_gamma	88.018778
loop_
_atom_site_label
_atom_site_type_symbol
_atom_site_fract_x
_atom_site_fract_y
_atom_site_fract_z
O1	O	1.261903	0.134222	-0.089227
O2	O	0.985982	0.129269	-0.089253
O3	O	1.132262	0.049265	-0.089219
O4	O	1.115623	0.214225	-0.089260
O5	O	1.121261	0.055293	0.089420
O6	O	0.974981	0.135296	0.089386
O7	O	1.250902	0.140249	0.089413
Cu8	Cu	1.111937	0.138323	0.105711
Cu9	Cu	1.124947	0.131195	-0.105551
O10	O	1.104622	0.220253	0.089379
C11	C	0.945188	0.130115	0.000063
C12	C	0.840023	0.123648	0.000054
C13	C	0.647472	0.111828	0.000078
C14	C	0.589407	0.157687	0.000072
C15	C	0.482265	0.151110	0.000085
C16	C	0.754624	0.118404	0.000065
C17	C	1.126337	0.031040	0.000103
C18	C	1.125063	-0.032246	0.000111
C19	C	1.203641	-0.427092	0.000060
C20	C	1.202458	-0.486556	0.000051
O21	O	1.275300	-0.519354	0.000019
N22	N	1.115494	-0.513896	0.000044
C23	C	1.029708	-0.481769	0.000034
O24	O	0.955630	-0.510484	0.000026
C25	C	1.030893	-0.422305	0.000034
C26	C	1.117862	-0.394968	0.000053
C27	C	1.290603	-0.399754	0.000077
C28	C	1.291786	-0.340294	0.000087
C29	C	1.206006	-0.308170	0.000080
C30	C	1.119044	-0.335508	0.000063
C31	C	0.945109	-0.390179	0.000016
C32	C	0.946301	-0.330712	0.000016
C33	C	1.033270	-0.303375	0.000035
C34	C	1.034447	-0.243924	0.000066
N35	N	1.121411	-0.216584	0.000074
C36	C	1.207191	-0.248707	0.000081
C37	C	1.027228	-0.606646	0.000031
C38	C	1.026042	-0.666108	0.000038
C39	C	1.198792	-0.670891	0.000053
C40	C	1.199976	-0.611428	0.000054
C41	C	1.114192	-0.579306	0.000038
C42	C	1.209668	-0.123835	0.000103
C43	C	1.210842	-0.064369	0.000118
C44	C	1.038093	-0.059591	0.000097
C45	C	1.036917	-0.119052	0.000088
C46	C	1.122713	-0.151173	0.000087
O47	O	0.961644	-0.211090	0.000095
O48	O	1.281258	-0.219985	0.000075
C49	C	1.291696	0.139403	0.000094
C50	C	1.396861	0.145869	0.000096
C51	C	1.110547	0.238478	0.000054
C52	C	1.111822	0.301763	0.000039
N53	N	1.102793	0.143337	0.254301
N54	N	1.134098	0.126177	-0.254141
C55	C	1.089342	0.150717	0.473413
C56	C	1.147546	0.118799	0.526753
C57	C	1.140062	0.122905	0.648675
C58	C	1.096825	0.146611	0.351480
H59	H	0.616718	0.067631	0.000095
O60	O	0.863056	-0.299426	-0.000043
C61	C	0.788301	-0.205699	0.000024
C62	C	0.882645	-0.241061	0.000063
H63	H	0.804104	-0.158503	0.000133
H64	H	0.750072	-0.218684	-0.074762
H65	H	0.740870	-0.213732	0.074759
H66	H	0.930149	-0.233045	-0.074621
H67	H	0.920798	-0.228069	0.074898
H68	H	1.281666	-0.042114	0.000136
H69	H	0.620163	0.201888	0.000055
O70	O	0.954681	-0.028465	0.000129
C71	C	0.783217	-0.029982	0.000011
C72	C	0.877607	-0.065302	0.000013
H73	H	0.720880	-0.059751	-0.000106
H74	H	0.774776	0.000482	0.074786
H75	H	0.784127	-0.004527	-0.074735
H76	H	0.876764	-0.090791	0.074708
H77	H	0.886012	-0.095731	-0.074812
O78	O	1.293092	-0.154945	0.000155
C79	C	1.464562	-0.153399	0.000121
C80	C	1.370156	-0.118099	0.000079
H81	H	1.526895	-0.123625	0.000037
H82	H	1.463792	-0.178828	0.074896
H83	H	1.472890	-0.183887	-0.074624
H84	H	1.361769	-0.087581	0.074774
H85	H	1.370969	-0.092709	-0.074746
H86	H	1.360460	-0.425903	0.000079
H87	H	1.202998	0.088389	0.480853
O88	O	1.376306	-0.313777	-0.000096
C89	C	1.530040	-0.302836	-0.092607
C90	C	1.434348	-0.332890	-0.092540
H91	H	1.577001	-0.318287	-0.167328
H92	H	1.516231	-0.254814	-0.092674
H93	H	1.567755	-0.313188	-0.017811
H94	H	1.396584	-0.322585	-0.167323
H95	H	1.448221	-0.380905	-0.092416
O96	O	1.284544	-0.584967	0.000013
C97	C	1.455758	-0.596002	0.000090
C98	C	1.360050	-0.626038	0.000116
H99	H	1.516828	-0.629193	0.000196
H100	H	1.465305	-0.570821	-0.074690
H101	H	1.455984	-0.565747	0.074830
H102	H	1.359756	-0.656320	-0.074573
H103	H	1.350541	-0.651182	0.074946
O104	O	1.282109	-0.702133	-0.000142
C105	C	1.386681	-0.775189	-0.092671
C106	C	1.292316	-0.739838	-0.092594
H107	H	1.394954	-0.805691	-0.167399
H108	H	1.449088	-0.745469	-0.092734
H109	H	1.385829	-0.800608	-0.017882
H110	H	1.293075	-0.714415	-0.167371
H111	H	1.229951	-0.769588	-0.092475
O112	O	1.023113	0.187007	0.527994
C113	C	0.895525	0.257030	0.516432
C114	C	0.970468	0.215946	0.454469
H115	H	0.852955	0.280447	0.457014
H116	H	0.845104	0.231855	0.569062
H117	H	0.933088	0.289235	0.569106
H118	H	0.932986	0.183733	0.401738
H119	H	1.020883	0.241160	0.401907
O120	O	0.943925	-0.575426	-0.000160
C121	C	0.850706	-0.508609	-0.092674
C122	C	0.945077	-0.543941	-0.092603
H123	H	0.851614	-0.483135	-0.167396
H124	H	0.788322	-0.538345	-0.092747
H125	H	0.842344	-0.478158	-0.017878
H126	H	0.953531	-0.574394	-0.167386
H127	H	1.007413	-0.514172	-0.092474
O128	O	0.941479	-0.692570	-0.000016
C129	C	0.770257	-0.681531	0.000032
C130	C	0.865961	-0.651494	0.000076
H131	H	0.709174	-0.648334	0.000129
H132	H	0.769918	-0.711748	-0.074751
H133	H	0.760828	-0.706754	0.074770
H134	H	0.875451	-0.626240	-0.074611
H135	H	0.866256	-0.621310	0.074908
H136	H	0.874290	-0.412427	-0.000005
H137	H	0.966098	-0.141310	0.000102
