data_functionalizedCrystal
_audit_creation_method	'MofGen! by Chris Wilmer'
_symmetry_space_group_name_H-M	'P1'
_symmetry_Int_Tables_number	1
_symmetry_cell_setting	triclinic
loop_
_symmetry_equiv_pos_as_xyz
  x,y,z
_cell_length_a	14.044220
_cell_length_b	14.519709
_cell_length_c	13.596369
_cell_angle_alpha	89.999709
_cell_angle_beta	89.993157
_cell_angle_gamma	91.565489
loop_
_atom_site_label
_atom_site_type_symbol
_atom_site_fract_x
_atom_site_fract_y
_atom_site_fract_z
O1	O	0.124273	-1.233892	-0.081665
O2	O	0.374273	-0.983892	0.168335
O3	O	0.624273	-0.733892	0.418335
O4	O	0.874273	-0.483892	0.668335
O5	O	0.138907	-0.966596	-0.081695
O6	O	0.388907	-0.716596	0.168305
O7	O	0.638907	-0.466596	0.418305
O8	O	0.888907	-0.216596	0.668305
O9	O	-0.006402	-1.096232	-0.081671
O10	O	0.243598	-0.846232	0.168329
O11	O	0.493598	-0.596232	0.418329
O12	O	0.743598	-0.346232	0.668329
O13	O	0.269581	-1.104256	-0.081690
O14	O	0.519581	-0.854256	0.168310
O15	O	0.769581	-0.604256	0.418310
O16	O	1.019581	-0.354256	0.668310
O17	O	-0.006409	-1.096217	0.081912
O18	O	0.243591	-0.846217	0.331912
O19	O	0.493591	-0.596217	0.581912
O20	O	0.743591	-0.346217	0.831912
O21	O	0.138899	-0.966581	0.081887
O22	O	0.388899	-0.716581	0.331887
O23	O	0.638899	-0.466581	0.581887
O24	O	0.888899	-0.216581	0.831887
O25	O	0.124265	-1.233878	0.081918
O26	O	0.374265	-0.983878	0.331918
O27	O	0.624265	-0.733878	0.581918
O28	O	0.874265	-0.483878	0.831918
Zn29	Zn	0.131581	-1.100227	0.107875
Zn30	Zn	0.381581	-0.850227	0.357875
Zn31	Zn	0.631581	-0.600227	0.607875
Zn32	Zn	0.881581	-0.350227	0.857875
Zn33	Zn	0.131591	-1.100246	-0.107653
Zn34	Zn	0.381591	-0.850246	0.142347
Zn35	Zn	0.631591	-0.600246	0.392347
Zn36	Zn	0.881591	-0.350246	0.642347
O37	O	0.269574	-1.104241	0.081893
O38	O	0.519574	-0.854241	0.331893
O39	O	0.769574	-0.604241	0.581893
O40	O	1.019574	-0.354241	0.831893
C41	C	-0.041726	-1.092712	0.000120
C42	C	0.208274	-0.842712	0.250120
C43	C	0.458274	-0.592712	0.500120
C44	C	0.708274	-0.342712	0.750120
C45	C	-0.146969	-1.082235	0.000120
C46	C	0.103031	-0.832235	0.250120
C47	C	0.353031	-0.582235	0.500120
C48	C	0.603031	-0.332235	0.750120
C49	C	0.138221	-0.932174	0.000092
C50	C	0.388221	-0.682174	0.250092
C51	C	0.638221	-0.432174	0.500092
C52	C	0.888221	-0.182174	0.750092
C53	C	0.136177	-0.829628	0.000081
C54	C	0.386177	-0.579628	0.250081
C55	C	0.636177	-0.329628	0.500081
C56	C	0.886177	-0.079628	0.750081
C57	C	0.124951	-1.268300	0.000128
C58	C	0.374951	-1.018300	0.250128
C59	C	0.624951	-0.768300	0.500128
C60	C	0.874951	-0.518300	0.750128
C61	C	0.126995	-1.370846	0.000133
C62	C	0.376995	-1.120846	0.250133
C63	C	0.626995	-0.870846	0.500133
C64	C	0.876995	-0.620846	0.750133
C65	C	-0.339663	-1.063081	0.000104
C66	C	-0.089663	-0.813081	0.250104
C67	C	0.160337	-0.563081	0.500104
C68	C	0.410337	-0.313081	0.750104
C69	C	-0.397170	-1.137389	0.000110
C70	C	-0.147170	-0.887389	0.250110
C71	C	0.102830	-0.637389	0.500110
C72	C	0.352830	-0.387389	0.750110
C73	C	-0.504392	-1.126731	0.000101
C74	C	-0.254392	-0.876731	0.250101
C75	C	-0.004392	-0.626731	0.500101
C76	C	0.245608	-0.376731	0.750101
C77	C	-0.232432	-1.073737	0.000113
C78	C	0.017568	-0.823737	0.250113
C79	C	0.267568	-0.573737	0.500113
C80	C	0.517568	-0.323737	0.750113
C81	C	0.304898	-1.107761	0.000100
C82	C	0.554898	-0.857761	0.250100
C83	C	0.804898	-0.607761	0.500100
C84	C	1.054898	-0.357761	0.750100
C85	C	0.410141	-1.118238	0.000093
C86	C	0.660141	-0.868238	0.250093
C87	C	0.910141	-0.618238	0.500093
C88	C	1.160141	-0.368238	0.750093
C89	C	0.128653	-0.454125	0.000126
C90	C	0.378653	-0.204125	0.250126
C91	C	0.628653	0.045875	0.500126
C92	C	0.878653	0.295875	0.750126
C93	C	0.130743	-0.558601	0.000113
C94	C	0.380743	-0.308601	0.250113
C95	C	0.630743	-0.058601	0.500113
C96	C	0.880743	0.191399	0.750113
C97	C	0.132415	-0.641873	0.000103
C98	C	0.382415	-0.391873	0.250103
C99	C	0.632415	-0.141873	0.500103
C100	C	0.882415	0.108127	0.750103
C101	C	0.134505	-0.746356	0.000092
C102	C	0.384505	-0.496356	0.250092
C103	C	0.634505	-0.246356	0.500092
C104	C	0.884505	0.003644	0.750092
N105	N	0.131573	-1.100220	0.254967
N106	N	0.381573	-0.850220	0.504967
N107	N	0.631573	-0.600220	0.754967
N108	N	0.881573	-0.350220	1.004967
N109	N	0.131591	-1.100260	-0.254744
N110	N	0.381591	-0.850260	-0.004744
N111	N	0.631591	-0.600260	0.245256
N112	N	0.881591	-0.350260	0.495256
C113	C	0.131592	-1.100245	0.656258
C114	C	0.381592	-0.850245	0.906258
C115	C	0.631592	-0.600245	1.156258
C116	C	0.881592	-0.350245	1.406258
C117	C	0.131590	-1.100236	0.544606
C118	C	0.381590	-0.850236	0.794606
C119	C	0.631590	-0.600236	1.044606
C120	C	0.881590	-0.350236	1.294606
C121	C	0.131583	-1.100233	0.455616
C122	C	0.381583	-0.850233	0.705616
C123	C	0.631583	-0.600233	0.955616
C124	C	0.881583	-0.350233	1.205616
C125	C	0.131580	-1.100223	0.343957
C126	C	0.381580	-0.850223	0.593957
C127	C	0.631580	-0.600223	0.843957
C128	C	0.881580	-0.350223	1.093957
H129	H	-0.365878	-1.209010	0.000052
H130	H	-0.115878	-0.959010	0.250052
H131	H	0.134122	-0.709010	0.500052
H132	H	0.384122	-0.459010	0.750052
H133	H	-0.370954	-0.991465	0.000094
H134	H	-0.120954	-0.741465	0.250094
H135	H	0.129046	-0.491465	0.500094
H136	H	0.379046	-0.241465	0.750094
