data_functionalizedCrystal
_audit_creation_method	'MofGen! by Chris Wilmer'
_symmetry_space_group_name_H-M	'P1'
_symmetry_Int_Tables_number	1
_symmetry_cell_setting	triclinic
loop_
_symmetry_equiv_pos_as_xyz
  x,y,z
_cell_length_a	14.908783
_cell_length_b	16.959453
_cell_length_c	14.908308
_cell_angle_alpha	86.734947
_cell_angle_beta	90.211273
_cell_angle_gamma	93.315641
loop_
_atom_site_label
_atom_site_type_symbol
_atom_site_fract_x
_atom_site_fract_y
_atom_site_fract_z
Zn1	Zn	1.345291	-0.276463	0.587822
Zn2	Zn	1.353861	-0.400620	0.437459
Zn3	Zn	1.203604	-0.275608	0.428794
Zn4	Zn	1.194885	-0.415756	0.579080
O5	O	1.274410	-0.342112	0.508289
O6	O	1.472256	-0.286957	0.575161
O7	O	1.341164	-0.377345	0.310486
O8	O	1.222462	-0.165109	0.449921
O9	O	1.478552	-0.378174	0.464690
O10	O	1.326558	-0.165738	0.566759
O11	O	1.230772	-0.285499	0.304120
O12	O	1.076619	-0.300175	0.441444
O13	O	1.207601	-0.403971	0.706063
O14	O	1.070213	-0.403141	0.551859
O15	O	1.318104	-0.301633	0.712486
O16	O	1.332710	-0.513240	0.456213
O17	O	1.215911	-0.524361	0.560262
C18	C	1.040790	-0.353209	0.494763
C19	C	0.940846	-0.357976	0.488998
C20	C	0.746470	-0.272097	0.593375
C21	C	0.652563	-0.276574	0.587962
C22	C	0.659122	-0.371402	0.472754
C23	C	0.753030	-0.366925	0.478167
C24	C	0.796700	-0.317272	0.538481
C25	C	0.890609	-0.312800	0.543899
C26	C	0.897167	-0.407623	0.428687
C27	C	0.803259	-0.412099	0.423273
C28	C	1.274317	-0.547481	0.508250
C29	C	1.274358	-0.635336	0.508268
C30	C	1.213520	-0.682428	0.562399
C31	C	1.335239	-0.670797	0.454160
C32	C	1.335283	-0.753342	0.454179
C33	C	1.274445	-0.800433	0.508310
C34	C	1.213564	-0.764981	0.562422
C35	C	1.396169	-0.788801	0.400075
C36	C	1.396216	-0.871350	0.400092
C37	C	1.335374	-0.918443	0.454219
C38	C	1.274489	-0.882986	0.508332
C39	C	1.213651	-0.930078	0.562463
C40	C	1.152762	-0.894622	0.616573
C41	C	1.152721	-0.812074	0.616549
C42	C	1.335414	-1.000991	0.454243
C43	C	1.213695	-1.012630	0.562486
C44	C	1.508942	-0.330972	0.521867
C45	C	1.608886	-0.326226	0.527654
C46	C	1.260924	-0.354586	0.742811
C47	C	1.255177	-0.359901	0.842750
C48	C	1.274527	-0.135941	0.508348
C49	C	1.274576	-0.048083	0.508374
C50	C	1.287896	-0.329627	0.274682
C51	C	1.293817	-0.324080	0.174753
C52	C	1.359441	-0.263308	1.037237
C53	C	1.354044	-0.268299	1.131139
C54	C	1.238981	-0.374872	1.124458
C55	C	1.244379	-0.369880	1.030556
C56	C	1.304611	-0.314097	0.986949
C57	C	1.310012	-0.309110	0.893045
C58	C	1.194946	-0.415678	0.886366
C59	C	1.189549	-0.420670	0.980268
H60	H	0.938074	-0.444414	0.383995
Cl61	Cl	1.137204	-1.071825	0.630536
H62	H	1.140507	-0.466086	1.015786
Cl63	Cl	1.422975	-0.204446	1.194355
H64	H	1.189943	-0.420288	1.159980
H65	H	1.445795	-0.900211	0.356032
H66	H	1.103232	-0.932975	0.660651
H67	H	1.103148	-0.783201	0.660604
Cl68	Cl	1.411959	-1.045561	0.386231
Cl69	Cl	0.604207	-0.433807	0.396927
H70	H	0.767690	-0.452523	0.374165
Cl71	Cl	1.385734	-0.238985	0.838226
H72	H	1.163943	-0.653558	0.606452
H73	H	0.611669	-0.239786	0.632660
Cl74	Cl	1.126023	-0.479540	0.823142
Cl75	Cl	1.435169	-0.193191	0.982413
Cl76	Cl	1.411724	-0.611595	0.386121
Cl77	Cl	0.801373	-0.209687	0.669204
H78	H	0.926164	-0.272371	0.593010
H79	H	1.445706	-0.750456	0.356008
