data_functionalizedCrystal
_audit_creation_method	'MofGen! by Chris Wilmer'
_symmetry_space_group_name_H-M	'P1'
_symmetry_Int_Tables_number	1
_symmetry_cell_setting	triclinic
loop_
_symmetry_equiv_pos_as_xyz
  x,y,z
_cell_length_a	6.817900
_cell_length_b	17.458045
_cell_length_c	14.858572
_cell_angle_alpha	94.437862
_cell_angle_beta	104.524003
_cell_angle_gamma	106.367962
loop_
_atom_site_label
_atom_site_type_symbol
_atom_site_fract_x
_atom_site_fract_y
_atom_site_fract_z
V1	V	-4.053376	-0.111069	-0.290790
V2	V	-3.553376	0.388931	0.209210
O3	O	-4.024959	0.004820	-0.284404
O4	O	-3.524959	0.504820	0.215596
O5	O	-4.019545	-0.219734	-0.289619
O6	O	-3.519545	0.280266	0.210381
O7	O	-4.009815	-0.109588	-0.417241
O8	O	-3.509815	0.390412	0.082759
O9	O	-4.034756	-0.106089	-0.155900
O10	O	-3.534756	0.393911	0.344100
V11	V	-4.534489	-0.097181	-0.274557
V12	V	-4.034489	0.402819	0.225443
O13	O	-4.319921	-0.141535	-0.326400
O14	O	-3.819921	0.358465	0.173600
O15	O	-4.718142	-0.066715	-0.238948
O16	O	-4.218142	0.433285	0.261052
O17	O	-4.345114	0.011484	-0.275728
O18	O	-3.845114	0.511484	0.224272
O19	O	-4.680303	-0.213070	-0.280943
O20	O	-4.180303	0.286930	0.219057
O21	O	-4.670506	-0.102161	-0.409448
O22	O	-4.170506	0.397839	0.090552
O23	O	-4.354843	-0.098662	-0.148106
O24	O	-3.854843	0.401338	0.351894
C25	C	-3.867933	-0.246217	-0.285243
C26	C	-3.367933	0.253783	0.214757
C27	C	-3.921591	-0.335054	-0.285129
C28	C	-3.421591	0.164946	0.214871
C29	C	-3.763955	-0.372713	-0.280403
C30	C	-3.263955	0.127287	0.219597
C31	C	-3.814378	-0.456183	-0.280284
C32	C	-3.314378	0.043817	0.219716
C33	C	-4.022443	-0.501993	-0.284898
C34	C	-3.522443	-0.001993	0.215102
C35	C	-4.180088	-0.464328	-0.289621
C36	C	-3.680088	0.035672	0.210379
C37	C	-4.129660	-0.380858	-0.289733
C38	C	-3.629660	0.119142	0.210267
C39	C	-4.192866	-0.752067	-0.285058
C40	C	-3.692866	-0.252067	0.214942
C41	C	-4.243285	-0.835542	-0.284948
C42	C	-3.743285	-0.335542	0.215052
C43	C	-3.877569	-0.827392	-0.275609
C44	C	-3.377569	-0.327392	0.224391
C45	C	-3.827160	-0.743922	-0.275727
C46	C	-3.327160	-0.243922	0.224273
C47	C	-3.984806	-0.706263	-0.280445
C48	C	-3.484806	-0.206263	0.219555
N49	N	-4.073990	-0.587313	-0.284780
N50	N	-3.573990	-0.087313	0.215220
N51	N	-3.933255	-0.620943	-0.280557
N52	N	-3.433255	-0.120943	0.219443
C53	C	-3.855521	-0.105714	-0.448036
C54	C	-3.355521	0.394286	0.051964
C55	C	-3.901285	-0.105222	-0.551415
C56	C	-3.401285	0.394778	-0.051415
C57	C	-4.068783	-0.103423	-0.929970
C58	C	-3.568783	0.396577	-0.429970
C59	C	-4.022172	-0.103923	-0.824644
C60	C	-3.522172	0.396077	-0.324644
C61	C	-3.985036	-0.104323	-0.740696
C62	C	-3.485036	0.395677	-0.240696
C63	C	-3.938421	-0.104822	-0.635363
C64	C	-3.438421	0.395178	-0.135363
C65	C	-4.160068	0.037963	-0.280102
C66	C	-3.660068	0.537963	0.219898
C67	C	-4.085648	0.126798	-0.280222
C68	C	-3.585648	0.626798	0.219778
C69	C	-4.172480	-0.102539	-0.117307
C70	C	-3.672480	0.397461	0.382693
C71	C	-4.105954	-0.103027	-0.013926
C72	C	-3.605954	0.396973	0.486074
H73	H	-4.321243	-0.721416	-0.288907
H74	H	-3.821243	-0.221416	0.211093
H75	H	-3.594535	-0.335421	-0.276653
H76	H	-3.094535	0.164579	0.223347
H77	H	-3.686003	-0.486840	-0.276422
H78	H	-3.186003	0.013160	0.223578
H79	H	-3.657735	-0.706628	-0.271966
H80	H	-3.157735	-0.206628	0.228034
H81	H	-3.749228	-0.858062	-0.271766
H82	H	-3.249228	-0.358062	0.228234
H83	H	-4.412720	-0.872839	-0.288705
H84	H	-3.912720	-0.372839	0.211295
H85	H	-4.349499	-0.501632	-0.293373
H86	H	-3.849499	-0.001632	0.206627
H87	H	-4.258024	-0.350197	-0.293576
H88	H	-3.758024	0.149803	0.206424
