data_functionalizedCrystal
_audit_creation_method	'MofGen! by Chris Wilmer'
_symmetry_space_group_name_H-M	'P1'
_symmetry_Int_Tables_number	1
_symmetry_cell_setting	triclinic
loop_
_symmetry_equiv_pos_as_xyz
  x,y,z
_cell_length_a	18.050591
_cell_length_b	18.050591
_cell_length_c	13.033915
_cell_angle_alpha	97.175493
_cell_angle_beta	82.821899
_cell_angle_gamma	90.007106
loop_
_atom_site_label
_atom_site_type_symbol
_atom_site_fract_x
_atom_site_fract_y
_atom_site_fract_z
Zn1	Zn	1.172888	0.382487	-0.416347
Zn2	Zn	1.188638	0.242555	-0.591023
Zn3	Zn	1.048730	0.258305	-0.416299
Zn4	Zn	1.064467	0.366693	-0.591023
O5	O	1.118681	0.312510	-0.503673
O6	O	1.278904	0.363943	-0.439539
O7	O	1.170084	0.140721	-0.567825
O8	O	1.052023	0.287979	-0.270081
O9	O	1.290475	0.261135	-0.567872
O10	O	1.143241	0.379215	-0.270116
O11	O	1.067295	0.152293	-0.439457
O12	O	0.946891	0.272664	-0.439456
O13	O	1.078844	0.472710	-0.567872
O14	O	0.958453	0.352296	-0.567825
O15	O	1.158500	0.484314	-0.439539
O16	O	1.185344	0.245821	-0.737247
O17	O	1.094116	0.337024	-0.737247
C18	C	0.925725	0.312476	-0.503636
C19	C	0.843180	0.312477	-0.503646
C20	C	0.588039	0.269296	-0.433767
C21	C	0.635156	0.339363	-0.408355
C22	C	0.546065	0.312533	-0.503699
C23	C	0.646023	0.242447	-0.529035
C24	C	0.692047	0.312502	-0.503670
C25	C	0.592090	0.382639	-0.478239
C26	C	0.602956	0.285674	-0.598962
C27	C	0.650054	0.355784	-0.573587
C28	C	0.461968	0.312550	-0.503713
C29	C	0.776143	0.312492	-0.503656
C30	C	1.118670	0.506212	-0.503710
C31	C	1.118666	0.588756	-0.503726
C32	C	1.075342	0.781897	-0.573505
C33	C	1.145401	0.828990	-0.599075
C34	C	1.118668	0.739888	-0.503712
C35	C	1.048617	0.839874	-0.478177
C36	C	1.118664	0.885874	-0.503700
C37	C	1.188767	0.785889	-0.529331
C38	C	1.091934	0.796772	-0.408389
C39	C	1.162036	0.843846	-0.433923
C40	C	1.118670	0.655789	-0.503722
C41	C	1.118670	0.969971	-0.503690
C42	C	1.312390	0.312544	-0.503711
C43	C	1.394937	0.312559	-0.503727
C44	C	1.118681	1.119558	-0.503669
C45	C	1.118667	1.037011	-0.503682
C46	C	1.143167	0.288016	-0.775162
C47	C	1.153710	0.277562	-0.891306
C48	C	1.124125	0.307179	-1.063162
C49	C	1.113232	0.317989	-0.943121
C50	C	1.094120	0.337115	-0.231124
C51	C	1.083653	0.347601	-0.114980
H52	H	0.588510	0.262949	-0.679513
O53	O	0.682061	0.399382	-0.644255
C54	C	0.701206	0.421054	-0.824308
C55	C	0.664900	0.371626	-0.744391
H56	H	0.687358	0.398622	-0.905289
H57	H	0.678840	0.480753	-0.802594
H58	H	0.764350	0.420350	-0.824210
H59	H	0.601755	0.372266	-0.744448
H60	H	0.687325	0.311950	-0.766134
O61	O	0.674073	0.171713	-0.554683
C62	C	0.647192	0.041902	-0.600655
C63	C	0.615333	0.121973	-0.571655
H64	H	0.599714	0.001663	-0.614363
H65	H	0.688594	0.039103	-0.674684
H66	H	0.676856	0.025657	-0.534306
H67	H	0.585632	0.138269	-0.637936
H68	H	0.573969	0.124728	-0.497594
O69	O	1.032797	0.398520	-1.061847
C70	C	1.011599	0.509779	-0.938432
C71	C	1.069274	0.452175	-0.998556
H72	H	1.041066	0.553165	-0.887230
H73	H	0.982829	0.538593	-0.996068
H74	H	0.968187	0.480188	-0.887431
H75	H	1.112732	0.481708	-1.049558
H76	H	1.097987	0.423364	-0.940863
H77	H	1.038760	0.754898	-0.632577
H78	H	1.168016	0.843426	-0.679682
H79	H	1.166836	0.264566	-1.107668
H80	H	1.248032	0.762337	-0.551015
H81	H	1.198722	0.870705	-0.374896
O82	O	1.064809	0.779551	-0.312287
C83	C	0.960292	0.787553	-0.176693
C84	C	0.990923	0.807092	-0.285546
H85	H	0.900557	0.809826	-0.155030
H86	H	0.961022	0.724335	-0.177422
H87	H	0.996649	0.814080	-0.117005
H88	H	0.954592	0.780615	-0.345295
H89	H	0.990208	0.870317	-0.284730
O90	O	1.204806	0.226860	-0.944389
C91	C	1.316243	0.206057	-1.067545
C92	C	1.258408	0.263534	-1.007504
H93	H	1.359586	0.235684	-1.118604
H94	H	1.345073	0.177359	-1.009856
H95	H	1.286851	0.162563	-1.118682
H96	H	1.287742	0.307074	-0.956366
H97	H	1.229581	0.292175	-1.065249
O98	O	0.555810	0.225857	-0.363039
C99	C	0.535418	0.205082	-0.182675
C100	C	0.571945	0.254344	-0.262661
H101	H	0.548463	0.228086	-0.101505
H102	H	0.472365	0.205087	-0.183785
H103	H	0.558430	0.145562	-0.203541
H104	H	0.548993	0.313886	-0.241850
H105	H	0.634995	0.254275	-0.261537
H106	H	1.070512	0.360600	-0.898620
O107	O	0.652284	0.366558	-0.312227
C108	C	0.643136	0.470726	-0.176041
C109	C	0.623679	0.440021	-0.284906
H110	H	0.620032	0.530130	-0.153928
H111	H	0.617447	0.433870	-0.116459
H112	H	0.706390	0.470922	-0.177175
H113	H	0.560437	0.439823	-0.283874
H114	H	0.649421	0.476885	-0.344442
H115	H	0.989377	0.863509	-0.456584
O116	O	0.563898	0.453315	-0.452515
C117	C	0.453993	0.532627	-0.423739
C118	C	0.485820	0.452552	-0.452863
H119	H	0.390865	0.532039	-0.424031
H120	H	0.467419	0.555604	-0.342746
H121	H	0.480149	0.569530	-0.482957
H122	H	0.459683	0.415591	-0.393715
H123	H	0.472403	0.429636	-0.533882
