data_functionalizedCrystal
_audit_creation_method	'MofGen! by Chris Wilmer'
_symmetry_space_group_name_H-M	'P1'
_symmetry_Int_Tables_number	1
_symmetry_cell_setting	triclinic
loop_
_symmetry_equiv_pos_as_xyz
  x,y,z
_cell_length_a	23.532407
_cell_length_b	15.995350
_cell_length_c	14.472310
_cell_angle_alpha	90.009379
_cell_angle_beta	90.006424
_cell_angle_gamma	96.829474
loop_
_atom_site_label
_atom_site_type_symbol
_atom_site_fract_x
_atom_site_fract_y
_atom_site_fract_z
O1	O	-0.073404	1.110386	0.076747
O2	O	-0.082469	0.866535	0.076764
O3	O	0.004967	0.995814	0.076767
O4	O	-0.160840	0.981107	0.076744
O5	O	0.004962	0.995781	-0.076915
O6	O	-0.082474	0.866502	-0.076918
O7	O	-0.073409	1.110353	-0.076935
Cu8	Cu	-0.077942	0.988424	-0.090959
Cu9	Cu	-0.077936	0.988464	0.090788
O10	O	-0.160845	0.981074	-0.076938
C11	C	-0.082096	0.835327	-0.000074
C12	C	-0.080973	0.742386	-0.000067
C13	C	-0.076938	0.404672	-0.000086
C14	C	-0.014668	0.452624	-0.000420
C15	C	-0.015792	0.549305	-0.000068
C16	C	-0.078939	0.572216	-0.000077
C17	C	-0.109650	0.530892	0.087675
C18	C	-0.108086	0.434270	0.087742
C19	C	-0.109378	0.433882	-0.087023
C20	C	-0.109364	0.530828	-0.088176
C21	C	-0.080074	0.666904	-0.000069
C22	C	-0.075805	0.309984	-0.000088
C23	C	-0.182060	0.981465	-0.000100
C24	C	-0.245281	0.982591	-0.000108
C25	C	-0.644117	0.913149	-0.000056
C26	C	-0.703521	0.914195	-0.000050
O27	O	-0.740018	0.849821	-0.000011
N28	N	-0.726443	0.991051	-0.000056
C29	C	-0.689957	1.066866	-0.000060
O30	O	-0.714909	1.132334	-0.000064
C31	C	-0.630554	1.065819	-0.000060
C32	C	-0.607636	0.988958	-0.000063
C33	C	-0.621198	0.836294	-0.000058
C34	C	-0.561798	0.835249	-0.000066
C35	C	-0.525316	0.911058	-0.000072
C36	C	-0.548235	0.987913	-0.000071
C37	C	-0.594069	1.141634	-0.000057
C38	C	-0.534663	1.140580	-0.000056
C39	C	-0.511744	1.063719	-0.000059
C40	C	-0.452354	1.062676	-0.000085
N41	N	-0.429432	0.985820	-0.000079
C42	C	-0.465913	0.910011	-0.000072
C43	C	-0.814708	1.069059	-0.000059
C44	C	-0.874110	1.070107	-0.000066
C45	C	-0.887670	0.917435	-0.000054
C46	C	-0.828267	0.916388	-0.000054
C47	C	-0.791786	0.992203	-0.000052
C48	C	-0.341168	0.907821	-0.000090
C49	C	-0.281762	0.906782	-0.000102
C50	C	-0.268207	1.059453	-0.000109
C51	C	-0.327608	1.060492	-0.000102
C52	C	-0.364088	0.984669	-0.000089
O53	O	-0.415822	1.127016	-0.000120
O54	O	-0.440954	0.844554	-0.000056
C55	C	0.026182	0.995423	-0.000069
C56	C	0.089404	0.994297	-0.000054
C57	C	-0.073781	1.141561	-0.000094
C58	C	-0.074905	1.234502	-0.000096
N59	N	-0.077946	0.988403	-0.218790
C60	C	-0.077933	0.988463	-0.592881
C61	C	-0.124562	0.919059	-0.553717
C62	C	-0.124732	0.919216	-0.446628
C63	C	-0.077939	0.988432	-0.407290
C64	C	-0.090918	1.075689	-0.446136
C65	C	-0.091250	1.075298	-0.553257
C66	C	-0.018188	0.971390	-0.553401
C67	C	-0.018587	0.969383	-0.446273
C68	C	-0.077942	0.988421	-0.302402
C69	C	-0.077932	0.988480	-0.697769
N70	N	-0.077927	0.988492	0.218619
H71	H	0.010221	0.434295	-0.063350
H72	H	-0.370863	0.846078	-0.000080
H73	H	-0.650896	0.774558	-0.000050
H74	H	-0.238494	1.121175	-0.000119
H75	H	-0.153804	0.401642	0.091718
N76	N	0.018166	0.426945	0.082465
H77	H	-0.007121	0.384387	0.120231
H78	H	0.030592	0.478153	0.121599
N79	N	-0.775367	1.150840	-0.000078
H80	H	-0.750425	1.153797	-0.057050
H81	H	-0.750448	1.153784	0.056928
H82	H	-0.809611	0.853801	-0.000060
N83	N	-0.147975	1.096216	-0.410597
H84	H	-0.179148	1.051156	-0.431134
H85	H	-0.155891	1.152493	-0.435986
N86	N	-0.081396	0.568714	0.174201
H87	H	-0.083923	0.631301	0.175207
H88	H	-0.039881	0.558410	0.175026
H89	H	-0.543143	0.772660	-0.000060
N90	N	-0.170189	0.391293	-0.087822
H91	H	-0.177028	0.356740	-0.146047
H92	H	-0.197526	0.435384	-0.085739
H93	H	-0.089023	0.413502	-0.153538
N94	N	-0.495316	1.222353	-0.000051
H95	H	-0.518853	1.271197	-0.000049
H96	H	-0.470381	1.225238	-0.057026
H97	H	-0.085686	0.416162	0.153346
H98	H	-0.892764	1.132695	-0.000078
H99	H	-0.134821	1.090418	-0.578240
N100	N	-0.047982	1.145722	-0.587604
H101	H	-0.018222	1.121514	-0.626396
H102	H	-0.028812	1.176872	-0.533113
N103	N	-0.927023	0.835666	-0.000049
H104	H	-0.968131	0.847998	-0.000046
H105	H	-0.919598	0.802160	0.056925
H106	H	-0.612719	1.204222	-0.000054
H107	H	-0.116999	0.854341	-0.420366
H108	H	-0.156043	0.544632	0.090931
N109	N	0.029532	1.032046	-0.410818
H110	H	0.049713	1.062854	-0.464660
H111	H	0.057614	1.001355	-0.375236
H112	H	-0.057860	1.128548	-0.420651
N113	N	0.016407	0.586492	0.083411
H114	H	-0.002354	0.561390	0.141467
H115	H	0.015807	0.649520	0.083906
H116	H	-0.086945	0.558317	-0.153095
N117	N	-0.182958	0.933249	-0.589355
H118	H	-0.199846	0.882314	-0.625629
H119	H	-0.179284	0.984457	-0.630715
H120	H	-0.346269	1.123079	-0.000113
H121	H	-0.116956	0.853972	-0.579498
N122	N	-0.170364	0.550661	-0.095213
H123	H	-0.170706	0.613642	-0.099124
H124	H	-0.192427	0.528314	-0.038797
H125	H	-0.263106	0.844190	-0.000109
N126	N	-0.001662	0.888961	-0.589215
H127	H	-0.032740	0.861849	-0.631402
H128	H	0.003381	0.850222	-0.535499
H129	H	-0.169068	0.930067	-0.421001
H130	H	-0.008737	0.905199	-0.420884
H131	H	0.016511	1.022009	-0.578726
H132	H	0.008349	0.577921	-0.062972
