data_functionalizedCrystal
_audit_creation_method	'MofGen! by Chris Wilmer'
_symmetry_space_group_name_H-M	'P1'
_symmetry_Int_Tables_number	1
_symmetry_cell_setting	triclinic
loop_
_symmetry_equiv_pos_as_xyz
  x,y,z
_cell_length_a	12.759401
_cell_length_b	17.640280
_cell_length_c	12.759393
_cell_angle_alpha	101.231878
_cell_angle_beta	90.018496
_cell_angle_gamma	78.801088
loop_
_atom_site_label
_atom_site_type_symbol
_atom_site_fract_x
_atom_site_fract_y
_atom_site_fract_z
Zn1	Zn	1.690815	-0.314620	0.509515
Zn2	Zn	1.726240	-0.446817	0.298344
Zn3	Zn	1.515128	-0.314662	0.333843
Zn4	Zn	1.550620	-0.446756	0.474002
O5	O	1.620701	-0.380714	0.403926
O6	O	1.842537	-0.332165	0.481509
O7	O	1.698207	-0.429329	0.156021
O8	O	1.508755	-0.204049	0.386865
O9	O	1.868564	-0.429289	0.326362
O10	O	1.637831	-0.204019	0.515931
O11	O	1.543105	-0.332235	0.182102
O12	O	1.372813	-0.332176	0.352430
O13	O	1.569245	-0.429185	0.625745
O14	O	1.398888	-0.429226	0.455404
O15	O	1.672246	-0.332106	0.651837
O16	O	1.732622	-0.557416	0.291927
O17	O	1.603595	-0.557371	0.420982
C18	C	1.347729	-0.380699	0.403916
C19	C	1.230956	-0.380712	0.403931
C20	C	1.189721	-0.431327	0.457417
C21	C	1.079999	-0.431337	0.457425
C22	C	1.052758	-0.330115	0.350454
C23	C	1.162476	-0.330102	0.350453
C24	C	1.258201	-0.481937	0.510895
C25	C	1.216967	-0.532556	0.564384
C26	C	1.107245	-0.532566	0.564393
C27	C	1.038758	-0.481957	0.510913
C28	C	1.675832	-0.586073	0.348771
C29	C	1.699514	-0.673926	0.325211
C30	C	1.441225	-0.962886	0.583293
C31	C	1.463480	-1.045438	0.561121
C32	C	1.597919	-1.045419	0.426872
C33	C	1.575680	-0.962866	0.449037
C34	C	1.497331	-0.921606	0.527247
C35	C	1.631785	-0.921585	0.392991
C36	C	1.609543	-0.839039	0.415150
C37	C	1.531196	-0.797773	0.493355
C38	C	1.475089	-0.839060	0.549406
C39	C	1.710129	-0.962847	0.314775
C40	C	1.766234	-0.921566	0.258729
C41	C	1.743998	-0.839018	0.280893
C42	C	1.665650	-0.797753	0.359098
C43	C	1.800105	-0.797732	0.224841
C44	C	1.777863	-0.715186	0.247000
C45	C	1.643408	-0.715207	0.381257
C46	C	1.894738	-0.380729	0.403937
C47	C	2.011516	-0.380736	0.403942
C48	C	1.620753	-0.380634	0.677981
C49	C	1.620775	-0.380600	0.794767
C50	C	1.565383	-0.174553	0.459319
C51	C	1.541809	-0.086700	0.482925
C52	C	1.620694	-0.380736	0.130953
C53	C	1.620815	-0.380548	0.014227
C54	C	1.674416	-0.330046	0.863218
C55	C	1.674433	-0.330017	0.972949
C56	C	1.567168	-0.431104	0.945768
C57	C	1.567145	-0.431128	0.836040
C58	C	1.728046	-0.279518	0.821945
C59	C	1.781692	-0.228960	0.890397
C60	C	1.781709	-0.228932	1.000128
C61	C	1.728080	-0.279461	1.041408
H62	H	0.949415	-0.481962	0.510935
C63	C	1.207839	-0.274424	0.291626
H64	H	1.151344	-0.244291	0.259766
H65	H	1.241411	-0.240020	0.341138
H66	H	1.258737	-0.304614	0.237667
C67	C	1.852418	-0.966956	0.172709
H68	H	1.857635	-1.022030	0.167543
H69	H	1.833458	-0.953468	0.105724
H70	H	1.919343	-0.953380	0.191808
C71	C	1.728025	-0.279544	0.701246
H72	H	1.767639	-0.242208	0.686467
H73	H	1.759866	-0.330558	0.662713
H74	H	1.656548	-0.265868	0.680097
C75	C	1.508191	-0.486767	0.760732
H76	H	1.476280	-0.516873	0.801022
H77	H	1.454289	-0.456564	0.726025
H78	H	1.557654	-0.521210	0.708694
H79	H	1.411297	-0.805464	0.613101
H80	H	0.996988	-0.288912	0.306912
H81	H	1.347543	-0.481936	0.510892
H82	H	1.073674	-0.573777	0.607955
H83	H	1.579616	-0.681611	0.444952
H84	H	1.377433	-0.929291	0.646988
C85	C	1.292297	-0.588224	0.623203
H86	H	1.363550	-0.580976	0.615529
H87	H	1.271260	-0.576727	0.696911
H88	H	1.288565	-0.641319	0.593438
H89	H	1.825346	-0.187816	0.856780
H90	H	1.513080	-0.730559	0.511388
H91	H	1.661708	-1.079024	0.363190
C92	C	1.401766	-1.090844	0.622785
H93	H	1.351927	-1.054446	0.672542
H94	H	1.364701	-1.123092	0.573903
H95	H	1.450604	-1.122999	0.659970
H96	H	1.728238	-1.030061	0.296739
C97	C	1.886279	-0.843124	0.138813
H98	H	1.891492	-0.898198	0.133646
H99	H	1.867312	-0.829633	0.071831
H100	H	1.953209	-0.829553	0.157904
C101	C	1.839580	-0.669775	0.185356
H102	H	1.889434	-0.706169	0.135611
H103	H	1.790752	-0.637615	0.148177
H104	H	1.876647	-0.637531	0.234252
C105	C	1.840714	-0.173321	1.075422
H106	H	1.872655	-0.143239	1.035121
H107	H	1.791297	-0.138867	1.127484
H108	H	1.894615	-0.203557	1.110099
H109	H	1.728084	-0.279424	1.130763
C110	C	1.508196	-0.486689	0.991173
H111	H	1.515902	-0.479440	1.066325
H112	H	1.434496	-0.475126	0.976300
H113	H	1.537829	-0.539802	0.958912
