data_functionalizedCrystal
_audit_creation_method	'MofGen! by Chris Wilmer'
_symmetry_space_group_name_H-M	'P1'
_symmetry_Int_Tables_number	1
_symmetry_cell_setting	triclinic
loop_
_symmetry_equiv_pos_as_xyz
  x,y,z
_cell_length_a	10.686220
_cell_length_b	12.594516
_cell_length_c	10.686551
_cell_angle_alpha	85.596700
_cell_angle_beta	90.308082
_cell_angle_gamma	94.397503
loop_
_atom_site_label
_atom_site_type_symbol
_atom_site_fract_x
_atom_site_fract_y
_atom_site_fract_z
Zn1	Zn	1.972283	-0.259491	-0.562399
Zn2	Zn	2.472283	0.240509	-0.062399
Zn3	Zn	1.956050	-0.452140	-0.352650
Zn4	Zn	2.456050	0.047860	0.147350
Zn5	Zn	1.746401	-0.286719	-0.368718
Zn6	Zn	2.246401	0.213281	0.131282
Zn7	Zn	1.762480	-0.449983	-0.578427
Zn8	Zn	2.262480	0.050017	-0.078427
O9	O	1.859303	-0.362083	-0.465548
O10	O	2.359303	0.137917	0.034452
O11	O	2.145671	-0.274554	-0.521143
O12	O	2.645671	0.225446	-0.021143
O13	O	1.914717	-0.442494	-0.179236
O14	O	2.414717	0.057506	0.320764
O15	O	1.776429	-0.134156	-0.394426
O16	O	2.276429	0.365844	0.105574
O17	O	2.133745	-0.416093	-0.367041
O18	O	2.633745	0.083907	0.132959
O19	O	1.942383	-0.114152	-0.536723
O20	O	2.442383	0.385848	-0.036723
O21	O	1.760688	-0.320960	-0.191041
O22	O	2.260688	0.179040	0.308959
O23	O	1.572992	-0.318868	-0.409968
O24	O	2.072992	0.181132	0.090032
O25	O	1.803834	-0.412416	-0.751846
O26	O	2.303834	0.087584	-0.251846
O27	O	1.584805	-0.438818	-0.564041
O28	O	2.084805	0.061182	-0.064041
O29	O	1.957975	-0.272463	-0.740070
O30	O	2.457975	0.227537	-0.240070
O31	O	1.930308	-0.600805	-0.382583
O32	O	2.430308	-0.100805	0.117417
O33	O	1.788093	-0.599220	-0.548461
O34	O	2.288093	-0.099220	-0.048461
C35	C	1.533382	-0.381564	-0.490488
C36	C	2.033382	0.118436	0.009512
C37	C	1.393954	-0.389922	-0.501188
C38	C	1.893954	0.110078	-0.001188
C39	C	1.859220	-0.638630	-0.465542
C40	C	2.359220	-0.138630	0.034458
C41	C	1.859303	-0.756928	-0.465573
C42	C	2.359303	-0.256928	0.034427
C43	C	1.781939	-0.825363	-0.555736
C44	C	2.281939	-0.325363	-0.055736
C45	C	1.742587	-0.906041	-0.443608
C46	C	2.242587	-0.406041	0.056392
C47	C	1.898771	-0.887040	-0.577711
C48	C	2.398771	-0.387040	-0.077711
C49	C	1.819885	-0.836056	-0.353389
C50	C	2.319885	-0.336056	0.146611
C51	C	1.976128	-0.817041	-0.487566
C52	C	2.476128	-0.317041	0.012434
C53	C	1.936813	-0.897690	-0.375356
C54	C	2.436813	-0.397690	0.124644
C55	C	2.186497	-0.342527	-0.440512
C56	C	2.686497	0.157473	0.059488
C57	C	2.325928	-0.334193	-0.429842
C58	C	2.825928	0.165807	0.070158
C59	C	1.884508	-0.339162	-0.792747
C60	C	2.384508	0.160838	-0.292747
C61	C	1.895249	-0.329394	-0.932180
C62	C	2.395249	0.170606	-0.432180
C63	C	1.859423	-0.084453	-0.465579
C64	C	2.359423	0.415547	0.034421
C65	C	1.859474	0.033857	-0.465592
C66	C	2.359474	0.533857	0.034408
C67	C	1.834268	-0.384834	-0.139617
C68	C	2.334268	0.115166	0.360383
C69	C	1.823770	-0.394288	-0.000166
C70	C	2.323770	0.105712	0.499834
H71	H	1.374354	-0.280088	-0.360574
H72	H	1.874354	0.219912	0.139426
H73	H	1.964673	-0.266362	-0.980651
H74	H	2.464673	0.233638	-0.480651
Cl75	Cl	1.319186	-0.473476	-0.608128
Cl76	Cl	1.819186	0.026524	-0.108128
Cl77	Cl	2.037930	-0.946386	-0.257528
Cl78	Cl	2.537930	-0.446386	0.242472
Cl79	Cl	1.680729	-0.776384	-0.673313
Cl80	Cl	2.180729	-0.276384	-0.173313
Cl81	Cl	1.590167	-0.965939	-0.414884
Cl82	Cl	2.090167	-0.465939	0.085116
Cl83	Cl	1.768280	-0.801192	-0.206955
Cl84	Cl	2.268280	-0.301192	0.293045
H85	H	1.754361	-0.457322	-0.951701
H86	H	2.254361	0.042678	-0.451701
Cl87	Cl	1.950201	-0.922128	-0.724112
Cl88	Cl	2.450201	-0.422128	-0.224112
Cl89	Cl	2.128513	-0.757102	-0.516343
Cl90	Cl	2.628513	-0.257102	-0.016343
