data_functionalizedCrystal
_audit_creation_method	'MofGen! by Chris Wilmer'
_symmetry_space_group_name_H-M	'P1'
_symmetry_Int_Tables_number	1
_symmetry_cell_setting	triclinic
loop_
_symmetry_equiv_pos_as_xyz
  x,y,z
_cell_length_a	18.627350
_cell_length_b	18.627245
_cell_length_c	18.627297
_cell_angle_alpha	89.997346
_cell_angle_beta	120.001335
_cell_angle_gamma	120.000253
loop_
_atom_site_label
_atom_site_type_symbol
_atom_site_fract_x
_atom_site_fract_y
_atom_site_fract_z
O1	O	-0.633238	0.492479	-0.021354
O2	O	-0.486231	0.388083	0.021257
O3	O	-0.633232	0.388082	-0.125747
O4	O	-0.486236	0.492480	0.125650
O5	O	-0.513832	0.507484	-0.125750
O6	O	-0.366831	0.507485	0.021254
O7	O	-0.513838	0.611881	-0.021357
Zn8	Zn	-0.421377	0.578641	-0.000052
Zn9	Zn	-0.578691	0.421323	-0.000048
O10	O	-0.366837	0.611882	0.125647
C11	C	-0.644043	0.742978	-0.031065
C12	C	-0.593649	0.837674	-0.024973
C13	C	-0.601244	0.699378	-0.031668
C14	C	-0.774042	0.612978	-0.031062
C15	C	-0.862643	0.568677	-0.024966
C16	C	-0.731045	0.569575	-0.031665
C17	C	-0.644038	0.612980	-0.031057
C18	C	-0.593639	0.568681	-0.024956
C19	C	-0.731050	0.699376	-0.031673
O20	O	-1.104444	0.388077	-0.125765
O21	O	-0.895647	0.492475	0.125634
O22	O	-0.895645	0.492475	-0.021364
O23	O	-1.104446	0.388077	0.021234
O24	O	-0.895647	0.611876	-0.021372
O25	O	-0.895649	0.611876	0.125627
O26	O	-1.104446	0.507478	-0.125772
Zn27	Zn	-1.000048	0.578634	-0.000074
Zn28	Zn	-1.000045	0.421319	-0.000064
O29	O	-1.104448	0.507478	0.021226
C30	C	-0.644029	0.386981	-0.387046
C31	C	-0.593633	0.431280	-0.431348
C32	C	-0.731033	0.300582	-0.430447
C33	C	-0.644028	0.386981	-0.257045
C34	C	-0.593632	0.431282	-0.162350
C35	C	-0.731032	0.300583	-0.300644
C36	C	-0.774026	0.256981	-0.387041
C37	C	-0.862624	0.162285	-0.431337
C38	C	-0.601233	0.430385	-0.300649
C39	C	-0.356043	0.256976	0.030937
C40	C	-0.406440	0.162279	0.024839
C41	C	-0.269040	0.300577	0.031539
C42	C	-0.356039	0.386979	0.030943
C43	C	-0.406432	0.431282	0.024852
C44	C	-0.269036	0.430383	0.031545
C45	C	-0.226045	0.386977	0.030932
C46	C	-0.137449	0.431276	0.024831
C47	C	-0.398836	0.300580	0.031549
O48	O	-0.366838	1.125678	0.021243
O49	O	-0.513847	0.874277	-0.021373
O50	O	-0.366852	1.021263	0.125633
O51	O	-0.513833	0.978692	-0.125763
O52	O	-0.486257	1.021261	0.125627
O53	O	-0.633252	0.874275	-0.021379
O54	O	-0.486243	1.125676	0.021238
Zn55	Zn	-0.578706	0.999975	-0.000071
Zn56	Zn	-0.421385	0.999978	-0.000064
O57	O	-0.633238	0.978690	-0.125768
O58	O	-1.104417	-0.125712	-0.492519
O59	O	-0.895624	0.125685	-0.388135
O60	O	-0.895618	-0.021312	-0.388123
O61	O	-1.104423	0.021284	-0.492531
O62	O	-0.895621	-0.021315	-0.507526
O63	O	-0.895628	0.125681	-0.507539
O64	O	-1.104420	-0.125716	-0.611922
Zn65	Zn	-1.000025	-0.000018	-0.578688
Zn66	Zn	-1.000020	-0.000013	-0.421369
O67	O	-1.104427	0.021281	-0.611935
O68	O	-0.486231	0.492485	-0.611948
O69	O	-0.633232	0.388082	-0.507549
O70	O	-0.486228	0.388086	-0.507543
O71	O	-0.633235	0.492482	-0.611954
O72	O	-0.366831	0.507486	-0.388144
O73	O	-0.513835	0.507482	-0.388151
O74	O	-0.366833	0.611885	-0.492549
Zn75	Zn	-0.421377	0.578641	-0.421393
Zn76	Zn	-0.578688	0.421326	-0.578706
O77	O	-0.513837	0.611882	-0.492556
C78	C	-0.226041	0.742985	0.386940
C79	C	-0.137443	0.837681	0.431235
C80	C	-0.269034	0.699384	0.430347
C81	C	-0.356039	0.612984	0.256945
C82	C	-0.406436	0.568683	0.162250
C83	C	-0.398834	0.569581	0.300549
C84	C	-0.356038	0.612986	0.386946
C85	C	-0.406432	0.568687	0.431249
C86	C	-0.269035	0.699382	0.300543
C87	C	-0.644043	0.612982	0.386936
C88	C	-0.593644	0.568684	0.431242
C89	C	-0.601249	0.699380	0.430334
C90	C	-0.774046	0.612979	0.256929
C91	C	-0.862645	0.568678	0.162232
C92	C	-0.731054	0.699377	0.300525
C93	C	-0.644049	0.742980	0.386924
C94	C	-0.593656	0.837676	0.431218
C95	C	-0.731049	0.569577	0.300537
C96	C	-1.356045	0.256975	-0.387063
C97	C	-1.406438	0.162278	-0.431357
C98	C	-1.398844	0.300575	-0.430472
C99	C	-1.226048	0.386975	-0.257067
C100	C	-1.137448	0.431276	-0.162370
C101	C	-1.269044	0.430378	-0.300674
C102	C	-1.356049	0.386973	-0.387073
C103	C	-1.406448	0.431272	-0.431379
C104	C	-1.269039	0.300577	-0.300664
C105	C	-0.356099	1.030900	0.386912
C106	C	-0.406504	1.024795	0.431206
C107	C	-0.269099	1.031496	0.430316
C108	C	-0.356078	1.030928	0.256922
C109	C	-0.406460	1.024853	0.162230
C110	C	-0.269078	1.031524	0.300524
C111	C	-0.226098	1.030897	0.386917
C112	C	-0.137505	1.024788	0.431216
C113	C	-0.398882	1.031527	0.300519
O114	O	-0.486263	1.125675	0.492403
O115	O	-0.633258	0.874278	0.388014
O116	O	-0.486259	1.021275	0.388011
O117	O	-0.633262	0.978677	0.492406
O118	O	-0.366857	1.021275	0.507417
O119	O	-0.513856	0.874277	0.507420
O120	O	-0.366861	1.125674	0.611809
Zn121	Zn	-0.421401	0.999976	0.578573
Zn122	Zn	-0.578718	0.999976	0.421250
O123	O	-0.513860	0.978677	0.611812
C124	C	-0.773998	0.969050	-0.387054
C125	C	-0.862595	0.975153	-0.431354
C126	C	-0.730992	0.968457	-0.430452
C127	C	-0.644013	0.969025	-0.257058
C128	C	-0.593630	0.975100	-0.162366
C129	C	-0.601205	0.968432	-0.300653
C130	C	-0.643989	0.969059	-0.387046
C131	C	-0.593581	0.975171	-0.431338
C132	C	-0.731017	0.968423	-0.300661
H133	H	-0.767026	0.498589	-0.032633
H134	H	-0.233036	0.734388	0.501340
H135	H	-1.233051	0.501370	-0.265674
C136	C	-0.709233	1.041857	-0.178119
C137	C	-0.779599	0.967101	-0.253411
H138	H	-0.739227	1.041045	-0.148955
H139	H	-0.651181	1.042104	-0.139774
H140	H	-0.689583	1.093122	-0.194572
H141	H	-0.799242	0.915836	-0.236958
H142	H	-0.837669	0.966846	-0.291764
C143	C	-0.573096	0.958075	0.248819
C144	C	-0.493390	1.032853	0.253255
H145	H	-0.631438	0.958896	0.219643
H146	H	-0.588254	0.906831	0.217191
H147	H	-0.553656	0.957794	0.306621
H148	H	-0.512827	1.033131	0.195453
H149	H	-0.478232	1.084111	0.284882
C150	C	-0.808556	0.770882	0.299920
C151	C	-0.779620	0.746646	0.253283
H152	H	-0.838528	0.800071	0.270763
H153	H	-0.856285	0.719803	0.302897
H154	H	-0.750474	0.809221	0.357727
H155	H	-0.837704	0.708302	0.195478
H156	H	-0.731889	0.797732	0.250296
H157	H	-0.233048	0.734390	0.265539
H158	H	-0.531204	0.501365	-0.265640
H159	H	-0.531240	0.734383	0.501324
H160	H	-0.766979	0.498611	0.265515
C161	C	-1.219930	0.248936	-0.178106
C162	C	-1.220455	0.253329	-0.253395
H163	H	-1.189940	0.219766	-0.148928
H164	H	-1.181850	0.306739	-0.139771
H165	H	-1.287650	0.217309	-0.194565
H166	H	-1.152734	0.284962	-0.236936
H167	H	-1.258534	0.195516	-0.291738
C168	C	-1.573057	0.178055	-0.531213
C169	C	-1.493363	0.253327	-0.526300
H170	H	-1.631409	0.148894	-0.590369
H171	H	-1.553616	0.139699	-0.511504
H172	H	-1.588202	0.194530	-0.495109
H173	H	-1.478212	0.236851	-0.562399
H174	H	-1.512807	0.291690	-0.546020
H175	H	-0.766974	0.967487	-0.501440
H176	H	-0.233094	1.032505	0.265518
H177	H	-0.233126	1.032464	0.501303
H178	H	-0.531191	0.967458	-0.265640
H179	H	-0.767027	0.734387	-0.032647
C180	C	-0.529101	0.770884	-0.108550
C181	C	-0.506731	0.746627	-0.032986
H182	H	-0.470751	0.800054	-0.109358
H183	H	-0.583167	0.719816	-0.159262
H184	H	-0.548539	0.809245	-0.108267
H185	H	-0.487299	0.708260	-0.033273
H186	H	-0.452647	0.797702	0.017739
C187	C	-0.470949	0.229089	0.108453
C188	C	-0.493337	0.253340	0.032885
H189	H	-0.529285	0.199935	0.109281
H190	H	-0.451527	0.190723	0.108160
H191	H	-0.416862	0.280166	0.159168
H192	H	-0.547420	0.202262	-0.017830
H193	H	-0.512773	0.291707	0.033170
C194	C	-0.709233	0.248877	-0.178128
C195	C	-0.779603	0.253296	-0.253394
H196	H	-0.739217	0.219679	-0.148960
H197	H	-0.689594	0.217275	-0.194604
H198	H	-0.651169	0.306683	-0.139767
H199	H	-0.837664	0.195489	-0.291758
H200	H	-0.799256	0.284896	-0.236918
C201	C	-0.219940	0.248851	-0.041863
C202	C	-0.220486	0.253291	0.032886
H203	H	-0.189966	0.219655	-0.041017
H204	H	-0.287643	0.217239	-0.093127
H205	H	-0.181825	0.306651	-0.042129
H206	H	-0.258608	0.195490	0.033149
H207	H	-0.152772	0.284902	0.084164
H208	H	-0.767014	0.265581	-0.501435
H209	H	-0.233057	0.501372	0.032522
C210	C	-0.470990	0.420547	0.229062
C211	C	-0.493348	0.473752	0.253315
H212	H	-0.529337	0.361390	0.199912
H213	H	-0.451571	0.440251	0.190691
H214	H	-0.416908	0.423909	0.280138
H215	H	-0.547425	0.470395	0.202238
H216	H	-0.512781	0.454042	0.291687
