data_functionalizedCrystal
_audit_creation_method	'MofGen! by Chris Wilmer'
_symmetry_space_group_name_H-M	'P1'
_symmetry_Int_Tables_number	1
_symmetry_cell_setting	triclinic
loop_
_symmetry_equiv_pos_as_xyz
  x,y,z
_cell_length_a	16.992695
_cell_length_b	17.699083
_cell_length_c	16.776229
_cell_angle_alpha	89.995692
_cell_angle_beta	90.003864
_cell_angle_gamma	93.024381
loop_
_atom_site_label
_atom_site_type_symbol
_atom_site_fract_x
_atom_site_fract_y
_atom_site_fract_z
O1	O	1.040087	-0.160466	0.066259
O2	O	1.373421	0.172867	0.399593
O3	O	1.706754	0.506201	0.732926
O4	O	0.811805	-0.158705	0.066268
O5	O	1.145139	0.174628	0.399601
O6	O	1.478472	0.507961	0.732934
O7	O	0.932396	-0.049798	0.066256
O8	O	1.265729	0.283535	0.399590
O9	O	1.599062	0.616869	0.732923
O10	O	0.919497	-0.269373	0.066271
O11	O	1.252830	0.063960	0.399604
O12	O	1.586163	0.397293	0.732937
O13	O	0.932382	-0.049797	-0.066320
O14	O	1.265715	0.283537	0.267013
O15	O	1.599049	0.616870	0.600346
O16	O	0.811792	-0.158704	-0.066309
O17	O	1.145125	0.174629	0.267025
O18	O	1.478458	0.507962	0.600358
O19	O	1.040074	-0.160465	-0.066317
O20	O	1.373407	0.172869	0.267016
O21	O	1.706740	0.506202	0.600349
Zn22	Zn	0.925930	-0.159584	-0.087362
Zn23	Zn	1.259264	0.173749	0.245971
Zn24	Zn	1.592597	0.507082	0.579304
Zn25	Zn	0.925948	-0.159586	0.087313
Zn26	Zn	1.259282	0.173748	0.420646
Zn27	Zn	1.592615	0.507081	0.753980
O28	O	0.919483	-0.269372	-0.066306
O29	O	1.252816	0.063961	0.267028
O30	O	1.586150	0.397295	0.600361
C31	C	0.782590	-0.156440	-0.000019
C32	C	1.115924	0.176893	0.333314
C33	C	1.449257	0.510227	0.666647
C34	C	0.695559	-0.149683	-0.000016
C35	C	1.028892	0.183650	0.333317
C36	C	1.362226	0.516984	0.666650
C37	C	1.069289	-0.162730	-0.000028
C38	C	1.402622	0.170603	0.333305
C39	C	1.735955	0.503937	0.666638
C40	C	1.156320	-0.169487	-0.000026
C41	C	1.489653	0.163846	0.333307
C42	C	1.822987	0.497179	0.666641
C43	C	0.931927	-0.021572	-0.000032
C44	C	1.265260	0.311762	0.333301
C45	C	1.598593	0.645095	0.666635
C46	C	0.930540	0.062533	-0.000032
C47	C	1.263873	0.395866	0.333301
C48	C	1.597207	0.729199	0.666634
C49	C	1.206685	-0.104290	-0.000028
C50	C	1.540018	0.229044	0.333306
C51	C	1.873351	0.562377	0.666639
C52	C	1.288459	-0.110643	-0.000030
C53	C	1.621792	0.222690	0.333303
C54	C	1.955126	0.556024	0.666637
C55	C	1.319867	-0.182195	-0.000025
C56	C	1.653201	0.151138	0.333308
C57	C	1.986534	0.484472	0.666641
C58	C	1.269496	-0.247398	-0.000026
C59	C	1.602830	0.085936	0.333307
C60	C	1.936163	0.419269	0.666641
C61	C	1.187723	-0.241043	-0.000029
C62	C	1.521057	0.092290	0.333304
C63	C	1.854390	0.425623	0.666637
C64	C	1.563415	-0.208531	-0.000020
C65	C	1.896748	0.124802	0.333313
C66	C	2.230082	0.458136	0.666646
C67	C	1.645194	-0.214881	-0.000015
C68	C	1.978528	0.118453	0.333319
C69	C	2.311861	0.451786	0.666652
C70	C	1.664152	-0.078125	-0.000020
C71	C	1.997485	0.255208	0.333313
C72	C	2.330818	0.588541	0.666646
C73	C	1.582376	-0.071777	-0.000019
C74	C	1.915710	0.261556	0.333314
C75	C	2.249043	0.594889	0.666648
C76	C	1.532012	-0.136980	-0.000024
C77	C	1.865346	0.196353	0.333310
C78	C	2.198679	0.529687	0.666643
N79	N	1.403454	-0.188691	-0.000025
N80	N	1.736787	0.144642	0.333308
N81	N	2.070120	0.477976	0.666641
N82	N	1.448427	-0.130483	-0.000030
N83	N	1.781761	0.202850	0.333304
N84	N	2.115094	0.536184	0.666637
C85	C	0.919952	-0.297598	-0.000016
C86	C	1.253285	0.035735	0.333318
C87	C	1.586619	0.369068	0.666651
C88	C	0.921339	-0.381703	-0.000010
C89	C	1.254672	-0.048370	0.333323
C90	C	1.588005	0.284964	0.666657
N91	N	0.925924	-0.159583	-0.206574
N92	N	1.259257	0.173750	0.126760
N93	N	1.592591	0.507084	0.460093
C94	C	1.001324	0.106747	-0.000036
C95	C	1.334658	0.440080	0.333297
C96	C	1.667991	0.773413	0.666631
C97	C	1.000017	0.185771	-0.000029
C98	C	1.333350	0.519105	0.333304
C99	C	1.666683	0.852438	0.666638
C100	C	0.927924	0.220581	-0.000024
C101	C	1.261258	0.553914	0.333309
C102	C	1.594591	0.887247	0.666643
C103	C	0.857135	0.176361	-0.000018
C104	C	1.190468	0.509694	0.333316
C105	C	1.523801	0.843028	0.666649
C106	C	0.858443	0.097338	-0.000019
C107	C	1.191776	0.430671	0.333314
C108	C	1.525110	0.764004	0.666648
C109	C	0.851857	0.495053	-0.000011
C110	C	1.185190	0.828386	0.333322
C111	C	1.518523	1.161719	0.666656
C112	C	0.850554	0.574082	-0.000012
C113	C	1.183887	0.907415	0.333321
C114	C	1.517220	1.240748	0.666655
C115	C	0.993430	0.583486	-0.000021
C116	C	1.326764	0.916820	0.333312
C117	C	1.660097	1.250153	0.666646
C118	C	0.994739	0.504463	-0.000022
C119	C	1.328072	0.837796	0.333311
C120	C	1.661405	1.171130	0.666644
C121	C	0.923950	0.460250	-0.000012
C122	C	1.257283	0.793584	0.333321
C123	C	1.590616	1.126917	0.666655
C124	C	0.925368	0.374563	-0.000018
C125	C	1.258702	0.707896	0.333315
C126	C	1.592035	1.041229	0.666648
C127	C	0.926505	0.306267	-0.000023
C128	C	1.259838	0.639600	0.333310
C129	C	1.593171	0.972933	0.666643
C130	C	0.973382	-0.208387	-0.248286
C131	C	1.306715	0.124947	0.085047
C132	C	1.640049	0.458280	0.418381
C133	C	0.973391	-0.208384	-0.331738
C134	C	1.306724	0.124949	0.001595
C135	C	1.640057	0.458282	0.334929
C136	C	0.925937	-0.159582	-0.373476
C137	C	1.259270	0.173752	-0.040143
C138	C	1.592603	0.507085	0.293190
C139	C	0.878477	-0.110773	-0.331758
C140	C	1.211810	0.222560	0.001575
C141	C	1.545143	0.555894	0.334908
C142	C	0.878473	-0.110772	-0.248308
C143	C	1.211806	0.222561	0.085026
C144	C	1.545139	0.555895	0.418359
C145	C	0.878492	-0.110775	-0.668306
C146	C	1.211826	0.222558	-0.334972
C147	C	1.545159	0.555892	-0.001639
C148	C	0.878498	-0.110781	-0.751762
C149	C	1.211832	0.222552	-0.418429
C150	C	1.545165	0.555886	-0.085095
C151	C	0.973411	-0.208387	-0.751736
C152	C	1.306744	0.124946	-0.418403
C153	C	1.640077	0.458280	-0.085069
C154	C	0.973407	-0.208386	-0.668285
C155	C	1.306740	0.124947	-0.334952
C156	C	1.640073	0.458281	-0.001619
C157	C	0.925950	-0.159575	-0.626574
C158	C	1.259283	0.173758	-0.293241
C159	C	1.592617	0.507092	0.040092
C160	C	0.925942	-0.159577	-0.536086
C161	C	1.259276	0.173756	-0.202753
C162	C	1.592609	0.507090	0.130581
C163	C	0.925940	-0.159583	-0.463963
C164	C	1.259273	0.173750	-0.130630
C165	C	1.592606	0.507084	0.202703
N166	N	0.925961	-0.159581	0.206524
N167	N	1.259295	0.173752	0.539857
N168	N	1.592628	0.507085	0.873191
H169	H	1.181119	-0.046024	-0.000027
H170	H	1.514452	0.287309	0.333307
H171	H	1.847786	0.620642	0.666640
H172	H	1.522418	-0.261624	-0.000020
H173	H	1.855751	0.071709	0.333313
H174	H	2.189084	0.405043	0.666646
H175	H	0.791844	0.602420	-0.000009
H176	H	1.125177	0.935754	0.333324
H177	H	1.458511	1.269087	0.666657
Cl178	Cl	0.769453	0.041754	-0.000011
Cl179	Cl	1.102787	0.375087	0.333322
Cl180	Cl	1.436120	0.708421	0.666655
Cl181	Cl	0.762864	0.439481	0.000004
Cl182	Cl	1.096198	0.772814	0.333337
Cl183	Cl	1.429531	1.106148	0.666671
Cl184	Cl	1.124407	-0.323010	-0.000033
Cl185	Cl	1.457740	0.010324	0.333301
Cl186	Cl	1.791074	0.343657	0.666634
Cl187	Cl	1.308981	-0.337349	-0.000021
Cl188	Cl	1.642314	-0.004016	0.333312
Cl189	Cl	1.975648	0.329317	0.666646
H190	H	1.329463	-0.057552	-0.000035
H191	H	1.662797	0.275781	0.333299
H192	H	1.996130	0.609115	0.666632
H193	H	1.670763	-0.273150	-0.000022
H194	H	2.004096	0.060184	0.333311
H195	H	2.337430	0.393517	0.666644
Cl196	Cl	1.033074	-0.269749	-0.804178
Cl197	Cl	1.366407	0.063584	-0.470844
Cl198	Cl	1.699740	0.396918	-0.137511
Cl199	Cl	1.091960	0.062995	-0.000051
Cl200	Cl	1.425293	0.396328	0.333283
Cl201	Cl	1.758627	0.729661	0.666616
Cl202	Cl	0.818838	-0.049424	-0.804232
Cl203	Cl	1.152171	0.283910	-0.470899
Cl204	Cl	1.485505	0.617243	-0.137566
H205	H	0.839827	-0.071031	-0.214347
H206	H	1.173160	0.262302	0.118987
H207	H	1.506494	0.595635	0.452320
H208	H	0.798436	0.204709	-0.000009
H209	H	1.131769	0.538042	0.333325
H210	H	1.465102	0.871376	0.666658
H211	H	1.012020	-0.248132	-0.214308
H212	H	1.345353	0.085202	0.119025
H213	H	1.678687	0.418535	0.452358
H214	H	1.012037	-0.248124	-0.365697
H215	H	1.345371	0.085210	-0.032363
H216	H	1.678704	0.418543	0.300970
H217	H	1.012046	-0.248129	-0.634306
H218	H	1.345379	0.085204	-0.300973
H219	H	1.678712	0.418538	0.032361
Cl220	Cl	0.818801	-0.049440	-0.615880
Cl221	Cl	1.152135	0.283893	-0.282547
Cl222	Cl	1.485468	0.617227	0.050787
H223	H	0.839843	-0.071034	-0.365748
H224	H	1.173176	0.262300	-0.032415
H225	H	1.506509	0.595633	0.300918
Cl226	Cl	1.542898	0.018177	0.000004
Cl227	Cl	1.876231	0.351511	0.333337
Cl228	Cl	2.209565	0.684844	0.666670
Cl229	Cl	1.089007	0.241352	-0.000036
Cl230	Cl	1.422340	0.574685	0.333297
Cl231	Cl	1.755673	0.908018	0.666631
H232	H	1.705166	-0.025041	-0.000017
H233	H	2.038500	0.308292	0.333316
H234	H	2.371833	0.641625	0.666649
Cl235	Cl	1.085373	0.460707	-0.000026
Cl236	Cl	1.418706	0.794041	0.333307
Cl237	Cl	1.752039	1.127374	0.666641
H238	H	1.051070	0.619494	-0.000025
H239	H	1.384404	0.952827	0.333308
H240	H	1.717737	1.286161	0.666641
