data_functionalizedCrystal
_audit_creation_method	'MofGen! by Chris Wilmer'
_symmetry_space_group_name_H-M	'P1'
_symmetry_Int_Tables_number	1
_symmetry_cell_setting	triclinic
loop_
_symmetry_equiv_pos_as_xyz
  x,y,z
_cell_length_a	12.759395
_cell_length_b	18.050590
_cell_length_c	12.759387
_cell_angle_alpha	90.035119
_cell_angle_beta	90.020509
_cell_angle_gamma	90.020089
loop_
_atom_site_label
_atom_site_type_symbol
_atom_site_fract_x
_atom_site_fract_y
_atom_site_fract_z
Zn1	Zn	1.606241	-0.295590	0.593974
Zn2	Zn	2.106241	0.204410	1.093974
Zn3	Zn	1.606119	-0.419799	0.418281
Zn4	Zn	2.106119	0.080201	0.918281
Zn5	Zn	1.430539	-0.295630	0.418310
Zn6	Zn	1.930539	0.204370	0.918310
Zn7	Zn	1.430519	-0.419746	0.593920
Zn8	Zn	1.930519	0.080254	1.093920
O9	O	1.518354	-0.357691	0.506121
O10	O	2.018354	0.142309	1.006121
O11	O	1.753246	-0.312072	0.570678
O12	O	2.253246	0.187928	1.070678
O13	O	1.582786	-0.403367	0.271263
O14	O	2.082786	0.096633	0.771263
O15	O	1.453905	-0.191700	0.441647
O16	O	1.953905	0.308300	0.941647
O17	O	1.753157	-0.403327	0.441597
O18	O	2.253157	0.096673	0.941597
O19	O	1.582992	-0.191671	0.570706
O20	O	2.082992	0.308329	1.070706
O21	O	1.453787	-0.312141	0.271285
O22	O	1.953787	0.187859	0.771285
O23	O	1.283515	-0.312089	0.441595
O24	O	1.783515	0.187911	0.941595
O25	O	1.453872	-0.403237	0.740948
O26	O	1.953872	0.096763	1.240948
O27	O	1.283501	-0.403276	0.570615
O28	O	1.783501	0.096724	1.070615
O29	O	1.582973	-0.312020	0.740988
O30	O	2.082973	0.187980	1.240988
O31	O	1.582767	-0.523716	0.441545
O32	O	2.082767	-0.023716	0.941545
O33	O	1.453754	-0.523677	0.570586
O34	O	1.953754	-0.023677	1.070586
C35	C	1.245387	-0.357682	0.506103
C36	C	1.745387	0.142318	1.006103
C37	C	1.128610	-0.357696	0.506120
C38	C	1.628610	0.142304	1.006120
C39	C	1.128634	-0.452803	0.640251
C40	C	1.628634	0.047197	1.140251
C41	C	1.073785	-0.500362	0.707319
C42	C	1.573785	-0.000362	1.207319
C43	C	0.964063	-0.500371	0.707332
C44	C	1.464063	-0.000371	1.207332
C45	C	0.909188	-0.452814	0.640272
C46	C	1.409188	0.047186	1.140272
C47	C	0.964037	-0.405255	0.573203
C48	C	1.464037	0.094745	1.073203
C49	C	1.073761	-0.405253	0.573195
C50	C	1.573761	0.094747	1.073195
C51	C	0.964014	-0.310146	0.439080
C52	C	1.464014	0.189854	0.939080
C53	C	1.073735	-0.310139	0.439060
C54	C	1.573735	0.189861	0.939060
C55	C	0.909138	-0.262589	0.372019
C56	C	1.409138	0.237411	0.872019
C57	C	0.963987	-0.215032	0.304944
C58	C	1.463987	0.284968	0.804944
C59	C	1.073716	-0.215026	0.304933
C60	C	1.573716	0.284974	0.804933
C61	C	1.128584	-0.262580	0.371991
C62	C	1.628584	0.237420	0.871991
C63	C	1.518274	-0.550643	0.506079
C64	C	2.018274	-0.050643	1.006079
C65	C	1.518335	-0.633189	0.506096
C66	C	2.018335	-0.133189	1.006096
C67	C	1.588638	-0.832634	0.436022
C68	C	2.088638	-0.332634	0.936022
C69	C	1.614308	-0.881958	0.531909
C70	C	2.114308	-0.381958	1.031909
C71	C	1.518395	-0.784319	0.506138
C72	C	2.018395	-0.284319	1.006138
C73	C	1.492832	-0.882077	0.410295
C74	C	1.992832	-0.382077	0.910295
C75	C	1.518455	-0.930304	0.506170
C76	C	2.018455	-0.430304	1.006170
C77	C	1.544114	-0.832556	0.602076
C78	C	2.044114	-0.332556	1.102076
C79	C	1.422594	-0.832671	0.480397
C80	C	1.922594	-0.332671	0.980397
C81	C	1.448227	-0.881973	0.576350
C82	C	1.948227	-0.381973	1.076350
C83	C	1.518363	-0.700221	0.506119
C84	C	2.018363	-0.200221	1.006119
C85	C	1.518486	-1.014401	0.506201
C86	C	2.018486	-0.514401	1.006201
C87	C	1.792388	-0.357701	0.506140
C88	C	2.292388	0.142299	1.006140
C89	C	1.909165	-0.357705	0.506148
C90	C	2.409165	0.142295	1.006148
C91	C	1.518434	-0.357618	0.780155
C92	C	2.018434	0.142382	1.280155
C93	C	1.518468	-0.357587	0.896932
C94	C	2.018468	0.142413	1.396932
C95	C	1.518464	-0.163986	0.506186
C96	C	2.018464	0.336014	1.006186
C97	C	1.518511	-0.081440	0.506214
C98	C	2.018511	0.418560	1.006214
C99	C	1.518336	-0.357710	0.233154
C100	C	2.018336	0.142290	0.733154
C101	C	1.518506	-0.357532	0.116377
C102	C	2.018506	0.142468	0.616377
C103	C	1.652910	-0.262609	0.896992
C104	C	2.152910	0.237391	1.396992
C105	C	1.720146	-0.215109	0.951884
C106	C	2.220146	0.284891	1.451884
C107	C	1.720172	-0.215082	1.061605
C108	C	2.220172	0.284918	1.561605
C109	C	1.652952	-0.262559	1.116438
C110	C	2.152952	0.237441	1.616438
C111	C	1.585716	-0.310059	1.061547
C112	C	2.085716	0.189941	1.561547
C113	C	1.585700	-0.310082	0.951823
C114	C	2.085700	0.189918	1.451823
C115	C	1.451270	-0.405032	1.061486
C116	C	1.951270	0.094968	1.561486
C117	C	1.451248	-0.405064	0.951764
C118	C	1.951248	0.094936	1.451764
C119	C	1.384050	-0.452508	1.116319
C120	C	1.884050	0.047492	1.616319
C121	C	1.316817	-0.500013	1.061428
C122	C	1.816817	-0.000013	1.561428
C123	C	1.316796	-0.500039	0.951700
C124	C	1.816796	-0.000039	1.451700
C125	C	1.384012	-0.452564	0.896873
C126	C	1.884012	0.047436	1.396873
H127	H	1.118476	-0.539081	0.761920
H128	H	1.618476	-0.039081	1.261920
F129	F	0.905688	-0.550985	0.778718
F130	F	1.405688	-0.050985	1.278718
F131	F	1.383999	-0.452591	0.780097
F132	F	1.883999	0.047409	1.280097
H133	H	1.774874	-0.176454	0.907227
H134	H	2.274874	0.323546	1.407227
F135	F	1.791718	-0.164518	1.120026
F136	F	2.291718	0.335482	1.620026
H137	H	1.471187	-0.903828	0.329228
H138	H	1.971187	-0.403828	0.829228
F139	F	1.652974	-0.262521	1.233214
F140	F	2.152974	0.237479	1.733214
F141	F	0.792412	-0.452817	0.640302
F142	F	1.292412	0.047183	1.140302
H143	H	1.648061	-0.810969	0.376788
H144	H	2.148061	-0.310969	0.876788
F145	F	1.720239	-0.910245	0.560409
F146	F	2.220239	-0.410245	1.060409
H147	H	1.384071	-0.452480	1.205660
H148	H	1.884071	0.047520	1.705660
F149	F	1.245280	-0.550532	1.119790
F150	F	1.745280	-0.050532	1.619790
H151	H	1.118367	-0.176292	0.250325
H152	H	1.618367	0.323708	0.750325
H153	H	1.565679	-0.810897	0.683213
H154	H	2.065679	-0.310897	1.183213
H155	H	1.217975	-0.452806	0.640239
H156	H	1.717975	0.047194	1.140239
F157	F	0.792363	-0.262595	0.372040
F158	F	1.292363	0.237405	0.872040
F159	F	1.370616	-0.910113	0.653958
F160	F	1.870616	-0.410113	1.153958
H161	H	0.919299	-0.176312	0.250354
H162	H	1.419299	0.323688	0.750354
F163	F	1.245227	-0.550593	0.893288
F164	F	1.745227	-0.050593	1.393288
F165	F	1.316691	-0.804352	0.451879
F166	F	1.816691	-0.304352	0.951879
F167	F	1.245360	-0.262580	0.371981
F168	F	1.745360	0.237420	0.871981
H169	H	1.652906	-0.262634	0.807651
H170	H	2.152906	0.237366	1.307651
