data_functionalizedCrystal
_audit_creation_method	'MofGen! by Chris Wilmer'
_symmetry_space_group_name_H-M	'P1'
_symmetry_Int_Tables_number	1
_symmetry_cell_setting	triclinic
loop_
_symmetry_equiv_pos_as_xyz
  x,y,z
_cell_length_a	19.077236
_cell_length_b	12.594516
_cell_length_c	19.077258
_cell_angle_alpha	92.305329
_cell_angle_beta	89.918181
_cell_angle_gamma	92.304758
loop_
_atom_site_label
_atom_site_type_symbol
_atom_site_fract_x
_atom_site_fract_y
_atom_site_fract_z
Zn1	Zn	1.058268	-0.333032	0.440562
Zn2	Zn	1.062953	-0.517829	0.323063
Zn3	Zn	0.945505	-0.347270	0.318341
Zn4	Zn	0.940754	-0.518380	0.435802
O5	O	1.001870	-0.429128	0.379442
O6	O	1.157221	-0.351356	0.428943
O7	O	1.051323	-0.500932	0.224105
O8	O	0.960490	-0.196433	0.334570
O9	O	1.160664	-0.487126	0.342617
O10	O	1.043337	-0.185972	0.424365
O11	O	0.965034	-0.375623	0.220636
O12	O	0.846543	-0.376158	0.329955
O13	O	0.952393	-0.488065	0.534765
O14	O	0.843052	-0.501871	0.416253
O15	O	1.038730	-0.351890	0.538262
O16	O	1.046716	-0.666850	0.338002
O17	O	0.956937	-0.667255	0.420831
C18	C	0.819301	-0.440620	0.372075
C19	C	0.741197	-0.445561	0.368940
C20	C	0.702708	-0.377299	0.412482
C21	C	0.629321	-0.381937	0.409530
C22	C	0.594423	-0.454843	0.363040
C23	C	0.632917	-0.523109	0.319495
C24	C	0.706303	-0.518465	0.322443
C25	C	0.375135	-0.476296	0.349392
C26	C	0.301744	-0.480937	0.346448
C27	C	0.298153	-0.339763	0.436483
C28	C	0.371541	-0.335130	0.439430
C29	C	0.410028	-0.403392	0.395882
N30	N	0.519410	-0.459588	0.360024
N31	N	0.485040	-0.398641	0.398895
C32	C	1.001838	-0.705671	0.379428
C33	C	1.001888	-0.823973	0.379449
C34	C	1.050771	-0.892960	0.334450
C35	C	1.065351	-0.958872	0.399277
C36	C	0.987394	-0.968852	0.314666
C37	C	1.016499	-0.888321	0.444310
C38	C	0.938514	-0.898300	0.359655
C39	C	0.953068	-0.964179	0.424525
C40	C	1.185152	-0.417591	0.386838
C41	C	1.263256	-0.412675	0.389989
C42	C	0.994509	-0.418451	0.562722
C43	C	0.991372	-0.413901	0.640825
C44	C	1.001921	-0.151502	0.379472
C45	C	1.001942	-0.033194	0.379484
C46	C	1.034821	-0.477001	0.679327
C47	C	1.031874	-0.472713	0.752713
C48	C	0.985473	-0.405330	0.787596
C49	C	0.942023	-0.342222	0.749089
C50	C	0.944974	-0.346505	0.675705
C51	C	0.971832	-0.385519	1.006879
C52	C	0.968883	-0.381243	1.080269
C53	C	1.058735	-0.511733	1.083888
C54	C	1.061679	-0.516015	1.010502
C55	C	1.018231	-0.452903	0.972001
N56	N	0.982458	-0.400947	0.862609
N57	N	1.021251	-0.457281	0.896990
C58	C	1.009196	-0.439789	1.196874
C59	C	1.012331	-0.444343	1.118771
H60	H	0.273332	-0.540312	0.308590
Br61	Br	0.418897	-0.236192	0.502533
H62	H	0.737639	-0.574051	0.286987
Br63	Br	0.585557	-0.622047	0.256395
Br64	Br	1.117697	-0.597379	1.136142
Br65	Br	0.245918	-0.247127	0.495581
H66	H	0.406463	-0.531881	0.313932
Br67	Br	0.905936	-0.289740	1.127611
Br68	Br	1.090839	-0.558360	0.804963
H69	H	0.975113	-1.004065	0.259866
H70	H	1.118967	-0.985647	0.416038
Br71	Br	1.124653	-0.607468	0.963166
H72	H	1.092115	-0.861691	0.296433
H73	H	0.936451	-0.334133	0.975541
H74	H	0.904246	-0.287352	0.777497
Br75	Br	0.886011	-0.260857	0.623451
H76	H	1.028725	-0.853241	0.499155
Br77	Br	0.884201	-1.015962	0.488048
H78	H	1.072607	-0.531869	0.650931
Br79	Br	0.750062	-0.278356	0.475583
Br80	Br	0.577089	-0.289291	0.468625
H81	H	0.884914	-0.871502	0.342876
