data_functionalizedCrystal
_audit_creation_method	'MofGen! by Chris Wilmer'
_symmetry_space_group_name_H-M	'P1'
_symmetry_Int_Tables_number	1
_symmetry_cell_setting	triclinic
loop_
_symmetry_equiv_pos_as_xyz
  x,y,z
_cell_length_a	10.654560
_cell_length_b	16.109301
_cell_length_c	14.586319
_cell_angle_alpha	90.007381
_cell_angle_beta	89.997345
_cell_angle_gamma	96.024729
loop_
_atom_site_label
_atom_site_type_symbol
_atom_site_fract_x
_atom_site_fract_y
_atom_site_fract_z
O1	O	-1.666242	0.116816	0.076289
O2	O	-1.300614	0.127933	0.076281
O3	O	-1.493472	0.001403	0.076276
O4	O	-1.473384	0.243345	0.076295
O5	O	-1.493470	0.001395	-0.076204
O6	O	-1.300612	0.127925	-0.076199
O7	O	-1.666240	0.116808	-0.076191
Cu8	Cu	-1.483426	0.122366	-0.090118
Cu9	Cu	-1.483428	0.122375	0.090208
O10	O	-1.473382	0.243337	-0.076186
C11	C	-1.253826	0.127111	0.000040
C12	C	-1.114417	0.124663	0.000037
C13	C	-1.492657	-0.029580	0.000035
C14	C	-1.490218	-0.121890	0.000034
C15	C	-0.917924	0.121206	-0.083080
C16	C	-1.048913	0.123510	-0.083081
C17	C	-1.048924	0.123520	0.083162
C18	C	-0.917936	0.121221	0.083162
C19	C	-1.218279	0.175271	-0.182938
C20	C	-1.283770	0.176403	-0.266061
C21	C	-1.250894	0.127021	-0.339451
C22	C	-1.152533	0.076488	-0.329723
C23	C	-1.087050	0.075349	-0.246598
C24	C	-1.119920	0.124750	-0.173211
C25	C	-0.748569	0.069454	0.183013
C26	C	-0.683085	0.068309	0.266138
C27	C	-0.715960	0.117685	0.339537
C28	C	-0.814327	0.168206	0.329817
C29	C	-0.879811	0.169351	0.246692
C30	C	-0.846927	0.119976	0.173293
C31	C	-1.598983	-0.343513	0.000051
C32	C	-1.596681	-0.430247	0.000058
C33	C	-1.367862	-0.411739	0.000050
C34	C	-1.370165	-0.325007	0.000049
C35	C	-1.485730	-0.290896	0.000045
C36	C	-1.481124	-0.464363	0.000053
C37	C	-1.478627	-0.558404	0.000061
C38	C	-1.488227	-0.196849	0.000038
C39	C	-0.713028	0.117626	0.000046
C40	C	-0.852440	0.120060	0.000039
C41	C	-1.474196	0.274321	0.000057
C42	C	-1.476636	0.366631	0.000064
N43	N	-1.483430	0.122376	0.217040
N44	N	-1.483434	0.122359	-0.216950
C45	C	-1.568992	0.066459	0.452044
C46	C	-1.568996	0.066457	0.548025
C47	C	-1.397867	0.178281	0.548039
C48	C	-1.397871	0.178286	0.452060
C49	C	-1.483432	0.122371	0.404065
C50	C	-1.483432	0.122363	0.596025
C51	C	-1.483435	0.122362	0.700093
C52	C	-1.483430	0.122373	0.299991
H53	H	-1.006967	0.034205	-0.238677
O54	O	-1.250215	0.223369	-0.111753
C55	C	-1.271344	0.362442	-0.057285
C56	C	-1.235158	0.308069	-0.137982
H57	H	-1.259158	0.430934	-0.078457
H58	H	-1.373904	0.343729	-0.037426
H59	H	-1.207670	0.352914	0.003799
H60	H	-1.298746	0.317570	-0.199119
H61	H	-1.132573	0.326795	-0.157763
H62	H	-1.363854	0.217553	-0.273976
H63	H	-0.721783	0.029251	0.123245
O64	O	-1.260260	-0.273769	0.000084
C65	C	-1.162410	-0.131947	0.000031
C66	C	-1.286962	-0.189877	0.000007
H67	H	-1.183955	-0.064109	-0.000051
H68	H	-1.105523	-0.144365	0.063857
H69	H	-1.105536	-0.144490	-0.063769
H70	H	-1.343937	-0.177368	0.063763
H71	H	-1.343754	-0.177447	-0.063862
O72	O	-1.706780	-0.481273	0.000184
C73	C	-1.901614	-0.523646	0.079213
C74	C	-1.776982	-0.465799	0.079172
H75	H	-1.958396	-0.511168	0.143078
H76	H	-1.958571	-0.511156	0.015443
H77	H	-1.880094	-0.591490	0.079173
H78	H	-1.798387	-0.397935	0.079244
H79	H	-1.720062	-0.478361	0.142936
O80	O	-1.652061	0.012199	0.594743
C81	C	-1.823249	-0.004445	0.703374
C82	C	-1.729375	0.057134	0.650463
H83	H	-1.885764	0.031860	0.748450
H84	H	-1.884504	-0.044478	0.652703
H85	H	-1.768905	-0.046316	0.748189
H86	H	-1.783617	0.099058	0.605646
H87	H	-1.668120	0.097109	0.701183
H88	H	-1.638663	0.020930	0.412969
H89	H	-0.602991	0.027167	0.274048
O90	O	-1.711128	-0.310240	0.000016
C91	C	-1.816093	-0.184829	0.000080
C92	C	-1.688999	-0.222396	0.000093
H93	H	-1.798246	-0.113803	0.000162
H94	H	-1.872085	-0.206394	-0.063743
H95	H	-1.872048	-0.206488	0.063883
H96	H	-1.632942	-0.200755	-0.063667
H97	H	-1.633103	-0.200835	0.063958
H98	H	-1.328204	0.223805	0.587126
H99	H	-1.125784	0.036271	-0.389485
O100	O	-1.314577	0.232518	0.405488
C101	C	-1.096114	0.279654	0.376151
C102	C	-1.190294	0.218178	0.428934
H103	H	-0.995611	0.268094	0.395102
H104	H	-1.110709	0.270054	0.299297
H105	H	-1.112312	0.346374	0.395025
H106	H	-1.174154	0.151435	0.410136
H107	H	-1.175676	0.227851	0.505775
O108	O	-1.314416	0.127992	-0.420247
C109	C	-1.336344	0.074837	-0.574481
C110	C	-1.264317	0.073638	-0.483028
H111	H	-1.295850	0.030911	-0.625270
H112	H	-1.440511	0.053605	-0.562486
H113	H	-1.325939	0.140941	-0.603409
H114	H	-1.274620	0.007556	-0.454051
H115	H	-1.160179	0.094919	-0.495079
O116	O	-1.112430	0.124530	0.163963
C117	C	-1.166826	0.053322	0.306024
C118	C	-1.094830	0.052082	0.214557
H119	H	-1.152643	-0.005254	0.346947
H120	H	-1.129539	0.110914	0.347078
H121	H	-1.271682	0.055201	0.291729
H122	H	-0.989963	0.050173	0.228769
H123	H	-1.132220	-0.005503	0.173531
O124	O	-0.975276	0.218480	0.237098
C125	C	-1.054405	0.331811	0.154861
C126	C	-0.946219	0.276220	0.165612
H127	H	-1.030940	0.378518	0.097079
H128	H	-1.145660	0.291241	0.137976
H129	H	-1.066672	0.366865	0.221623
H130	H	-0.933837	0.241155	0.098876
H131	H	-0.855024	0.316833	0.182540
H132	H	-0.864599	0.120271	-0.150764
O133	O	-1.255578	-0.444838	0.000210
C134	C	-1.059269	-0.455510	0.079169
C135	C	-1.186400	-0.417989	0.079116
H136	H	-1.003291	-0.433803	0.142948
H137	H	-1.077002	-0.526542	0.079228
H138	H	-1.003358	-0.433915	0.015325
H139	H	-1.242376	-0.439519	0.142949
H140	H	-1.168577	-0.346961	0.079010
H141	H	-0.841096	0.208411	0.389585
H142	H	-0.662636	0.116744	0.407223
