data_functionalizedCrystal
_audit_creation_method	'MofGen! by Chris Wilmer'
_symmetry_space_group_name_H-M	'P1'
_symmetry_Int_Tables_number	1
_symmetry_cell_setting	triclinic
loop_
_symmetry_equiv_pos_as_xyz
  x,y,z
_cell_length_a	25.639239
_cell_length_b	25.639242
_cell_length_c	16.120297
_cell_angle_alpha	92.869733
_cell_angle_beta	92.868703
_cell_angle_gamma	90.034213
loop_
_atom_site_label
_atom_site_type_symbol
_atom_site_fract_x
_atom_site_fract_y
_atom_site_fract_z
Zn1	Zn	-0.223221	0.784258	-0.471560
Zn2	Zn	0.276779	1.284258	0.028440
Zn3	Zn	-0.306221	0.788606	-0.332144
Zn4	Zn	0.193779	1.288606	0.167856
Zn5	Zn	-0.218795	0.701259	-0.332144
Zn6	Zn	0.281205	1.201259	0.167856
Zn7	Zn	-0.310618	0.696782	-0.471487
Zn8	Zn	0.189382	1.196782	0.028513
O9	O	-0.264714	0.742726	-0.401834
O10	O	0.235286	1.242726	0.098166
O11	O	-0.234243	0.857999	-0.453097
O12	O	0.265757	1.357999	0.046903
O13	O	-0.290932	0.780713	-0.215482
O14	O	0.209068	1.280713	0.284518
O15	O	-0.146218	0.712323	-0.350668
O16	O	0.353782	1.212323	0.149332
O17	O	-0.295224	0.861194	-0.350669
O18	O	0.204776	1.361194	0.149331
O19	O	-0.149470	0.773302	-0.453096
O20	O	0.350530	1.273302	0.046904
O21	O	-0.226700	0.716540	-0.215482
O22	O	0.273300	1.216540	0.284518
O23	O	-0.230963	0.627501	-0.350597
O24	O	0.269037	1.127501	0.149403
O25	O	-0.302717	0.704692	-0.588158
O26	O	0.197283	1.204692	-0.088158
O27	O	-0.298425	0.624211	-0.452972
O28	O	0.201575	1.124211	0.047028
O29	O	-0.238506	0.768960	-0.588212
O30	O	0.261494	1.268960	-0.088212
O31	O	-0.379969	0.776372	-0.350598
O32	O	0.120031	1.276372	0.149402
O33	O	-0.383199	0.708908	-0.452972
O34	O	0.116801	1.208908	0.047028
C35	C	-0.264691	0.606886	-0.401777
C36	C	0.235309	1.106886	0.098223
C37	C	-0.264695	0.548772	-0.401773
C38	C	0.235305	1.048772	0.098227
C39	C	-0.299896	0.186704	-0.455090
C40	C	0.200104	0.686704	0.044910
C41	C	-0.299899	0.132100	-0.455103
C42	C	0.200101	0.632100	0.044897
O43	O	-0.329801	0.102415	-0.500387
O44	O	0.170199	0.602415	-0.000387
N45	N	-0.264730	0.106486	-0.401888
N46	N	0.235270	0.606486	0.098112
C47	C	-0.229551	0.135479	-0.348662
C48	C	0.270449	0.635479	0.151338
O49	O	-0.199637	0.108678	-0.303401
O50	O	0.300363	0.608678	0.196599
C51	C	-0.229546	0.190083	-0.348654
C52	C	0.270454	0.690083	0.151346
C53	C	-0.264721	0.215694	-0.401867
C54	C	0.235279	0.715694	0.098133
C55	C	-0.335067	0.212316	-0.508298
C56	C	0.164933	0.712316	-0.008298
C57	C	-0.335064	0.266917	-0.508284
C58	C	0.164936	0.766917	-0.008284
C59	C	-0.299889	0.295906	-0.455061
C60	C	0.200111	0.795906	0.044939
C61	C	-0.264718	0.270295	-0.401852
C62	C	0.235282	0.770295	0.098148
C63	C	-0.194365	0.219075	-0.295434
C64	C	0.305635	0.719075	0.204566
C65	C	-0.194362	0.273682	-0.295430
C66	C	0.305638	0.773682	0.204570
C67	C	-0.229537	0.299293	-0.348643
C68	C	0.270463	0.799293	0.151357
C69	C	-0.229540	0.353886	-0.348614
C70	C	0.270460	0.853886	0.151386
N71	N	-0.264709	0.379499	-0.401829
N72	N	0.235291	0.879499	0.098171
C73	C	-0.299884	0.350510	-0.455052
C74	C	0.200116	0.850510	0.044948
C75	C	-0.229565	0.020808	-0.348685
C76	C	0.270435	0.520808	0.151315
C77	C	-0.229573	-0.033795	-0.348689
C78	C	0.270427	0.466205	0.151311
C79	C	-0.299920	-0.037170	-0.455130
C80	C	0.200080	0.462830	0.044870
C81	C	-0.299915	0.017433	-0.455122
C82	C	0.200085	0.517433	0.044878
C83	C	-0.264735	0.046422	-0.401900
C84	C	0.235265	0.546422	0.098100
C85	C	-0.299875	0.465176	-0.455018
C86	C	0.200125	0.965176	0.044982
C87	C	-0.299870	0.519782	-0.454996
C88	C	0.200130	1.019782	0.045004
C89	C	-0.229521	0.523153	-0.348558
C90	C	0.270479	1.023153	0.151442
C91	C	-0.229527	0.468552	-0.348576
C92	C	0.270473	0.968552	0.151424
C93	C	-0.264706	0.439565	-0.401813
C94	C	0.235294	0.939565	0.098187
O95	O	-0.199652	0.383604	-0.303356
O96	O	0.300348	0.883604	0.196644
O97	O	-0.329788	0.377317	-0.500314
O98	O	0.170212	0.877317	-0.000314
C99	C	-0.400555	0.742640	-0.401795
C100	C	0.099445	1.242640	0.098205
C101	C	-0.458670	0.742650	-0.401807
C102	C	0.041330	1.242650	0.098193
C103	C	-0.817342	0.777939	-0.348618
C104	C	-0.317342	1.277939	0.151382
C105	C	-0.871947	0.777959	-0.348629
C106	C	-0.371947	1.277959	0.151371
O107	O	-0.898744	0.807873	-0.303364
O108	O	-0.398744	1.307873	0.196636
N109	N	-0.900955	0.742817	-0.401889
N110	N	-0.400955	1.242817	0.098111
C111	C	-0.875355	0.707656	-0.455147
C112	C	-0.375355	1.207656	0.044853
O113	O	-0.905043	0.677767	-0.500450
O114	O	-0.405043	1.177767	-0.000450
C115	C	-0.820752	0.707639	-0.455139
C116	C	-0.320752	1.207639	0.044861
C117	C	-0.791746	0.742780	-0.401870
C118	C	-0.291746	1.242780	0.098130
C119	C	-0.788336	0.813077	-0.295354
C120	C	-0.288336	1.313077	0.204646
C121	C	-0.733735	0.813057	-0.295342
C122	C	-0.233735	1.313057	0.204658
C123	C	-0.708140	0.777897	-0.348594
C124	C	-0.208140	1.277897	0.151406
C125	C	-0.737145	0.742759	-0.401858
C126	C	-0.237145	1.242759	0.098142
C127	C	-0.795154	0.672481	-0.508401
C128	C	-0.295154	1.172481	-0.008401
C129	C	-0.740547	0.672467	-0.508389
C130	C	-0.240547	1.172467	-0.008389
C131	C	-0.711541	0.707608	-0.455120
C132	C	-0.211541	1.207608	0.044880
C133	C	-0.656949	0.707579	-0.455098
C134	C	-0.156949	1.207579	0.044902
N135	N	-0.627941	0.742721	-0.401838
N136	N	-0.127941	1.242721	0.098162
C137	C	-0.653536	0.777880	-0.348586
C138	C	-0.153536	1.277880	0.151414
C139	C	-0.990027	0.707695	-0.455160
C140	C	-0.490027	1.207695	0.044840
C141	C	-1.044629	0.707709	-0.455164
C142	C	-0.544629	1.207709	0.044836
C143	C	-1.041216	0.778013	-0.348647
C144	C	-0.541216	1.278013	0.151353
C145	C	-0.986613	0.777996	-0.348639
C146	C	-0.486613	1.277996	0.151361
C147	C	-0.961018	0.742837	-0.401900
C148	C	-0.461018	1.242837	0.098100
C149	C	-0.538871	0.777834	-0.348565
C150	C	-0.038871	1.277834	0.151435
C151	C	-0.484265	0.777809	-0.348555
C152	C	0.015735	1.277809	0.151445
C153	C	-0.487683	0.707507	-0.455074
C154	C	0.012317	1.207507	0.044926
C155	C	-0.542283	0.707530	-0.455081
C156	C	-0.042283	1.207530	0.044919
C157	C	-0.567876	0.742698	-0.401824
C158	C	-0.067876	1.242698	0.098176
O159	O	-0.630116	0.677681	-0.500343
O160	O	-0.130116	1.177681	-0.000343
O161	O	-0.623843	0.807769	-0.303299
O162	O	-0.123843	1.307769	0.196701
C163	C	-0.128343	0.742827	-0.401890
C164	C	0.371657	1.242827	0.098110
C165	C	-0.070229	0.742870	-0.401914
C166	C	0.429771	1.242870	0.098086
C167	C	-0.271596	0.735842	-0.619280
C168	C	0.228404	1.235842	-0.119280
C169	C	-0.274528	0.732908	-0.711943
C170	C	0.225472	1.232908	-0.211943
C171	C	-0.264737	0.879098	-0.401891
C172	C	0.235263	1.379098	0.098109
C173	C	-0.264746	0.937211	-0.401915
C174	C	0.235254	1.437211	0.098085
C175	C	-0.279871	0.727532	-0.881598
C176	C	0.220129	1.227532	-0.381598
C177	C	-0.249400	0.758024	-0.922921
C178	C	0.250600	1.258024	-0.422921
C179	C	-0.252373	0.755033	-1.017323
C180	C	0.247627	1.255033	-0.517323
C181	C	-0.276899	0.730522	-0.787188
C182	C	0.223101	1.230522	-0.287188
C183	C	-0.257821	0.749614	-0.185233
C184	C	0.242179	1.249614	0.314767
C185	C	-0.254741	0.752650	-0.092571
C186	C	0.245259	1.252650	0.407429
H187	H	-0.328560	-0.060784	-0.498470
H188	H	0.171440	0.439216	0.001530
C189	C	-0.176038	0.768383	-0.824907
C190	C	0.323962	1.268383	-0.324907
C191	C	-0.211163	0.796296	-0.874983
C192	C	0.288837	1.296296	-0.374983
H193	H	-0.152433	0.792010	-0.795310
H194	H	0.347567	1.292010	-0.295310
H195	H	-0.157090	0.744566	-0.858871
H196	H	0.342910	1.244566	-0.358871
H197	H	-0.194769	0.749651	-0.786571
H198	H	0.305231	1.249651	-0.286571
H199	H	-0.192431	0.815025	-0.913324
H200	H	0.307569	1.315025	-0.413324
H201	H	-0.230112	0.820122	-0.841017
H202	H	0.269888	1.320122	-0.341017
H203	H	-0.363711	0.188718	-0.551644
H204	H	0.136289	0.688718	-0.051644
C205	C	-0.353225	0.717182	-0.979618
C206	C	0.146775	1.217182	-0.479618
C207	C	-0.318104	0.689265	-0.929543
C208	C	0.181896	1.189265	-0.429543
H209	H	-0.376831	0.693558	-1.009219
H210	H	0.123169	1.193558	-0.509219
H211	H	-0.334494	0.735915	-1.017943
H212	H	0.165506	1.235915	-0.517943
H213	H	-0.372176	0.741000	-0.945648
H214	H	0.127824	1.241000	-0.445648
H215	H	-0.299151	0.665449	-0.963514
H216	H	0.200849	1.165449	-0.463514
H217	H	-0.336838	0.670523	-0.891213
H218	H	0.163162	1.170523	-0.391213
C219	C	-0.369405	0.510952	-0.560217
C220	C	0.130595	1.010952	-0.060217
C221	C	-0.338534	0.547933	-0.513496
C222	C	0.161466	1.047933	-0.013496
H223	H	-0.393271	0.528331	-0.596335
H224	H	0.106729	1.028331	-0.096335
H225	H	-0.388218	0.490788	-0.523842
H226	H	0.111782	0.990788	-0.023842
H227	H	-0.347661	0.488662	-0.592171
H228	H	0.152339	0.988662	-0.092171
H229	H	-0.360278	0.570220	-0.481536
H230	H	0.139722	1.070220	0.018464
H231	H	-0.319720	0.568106	-0.549876
H232	H	0.180280	1.068106	-0.049876
H233	H	-0.328519	0.441581	-0.498370
H234	H	0.171481	0.941581	0.001630
H235	H	-0.363706	0.287764	-0.551617
H236	H	0.136294	0.787764	-0.051617
H237	H	-0.962999	0.806611	-0.305264
H238	H	-0.462999	1.306611	0.194736
H239	H	-0.719711	0.643837	-0.551763
H240	H	-0.219711	1.143837	-0.051763
H241	H	-1.062066	0.806643	-0.305289
H242	H	-0.562066	1.306643	0.194711
H243	H	-0.710122	0.841673	-0.251968
H244	H	-0.210122	1.341673	0.248032
C245	C	-0.369448	0.008599	-0.560336
C246	C	0.130552	0.508599	-0.060336
C247	C	-0.338575	0.045582	-0.513622
C248	C	0.161425	0.545582	-0.013622
H249	H	-0.393312	0.025976	-0.596457
H250	H	0.106688	0.525976	-0.096457
H251	H	-0.388261	-0.011561	-0.523956
H252	H	0.111739	0.488439	-0.023956
H253	H	-0.347705	-0.013694	-0.592286
H254	H	0.152295	0.486306	-0.092286
H255	H	-0.360318	0.067873	-0.481667
H256	H	0.139682	0.567873	0.018333
H257	H	-0.319760	0.065751	-0.550007
H258	H	0.180240	0.565751	-0.050007
C259	C	-0.160038	-0.024960	-0.243477
C260	C	0.339962	0.475040	0.256523
C261	C	-0.190911	-0.061943	-0.290191
C262	C	0.309089	0.438057	0.209809
H263	H	-0.136166	-0.042337	-0.207369
H264	H	0.363834	0.457663	0.292631
H265	H	-0.181776	-0.002673	-0.211521
H266	H	0.318224	0.497327	0.288479
H267	H	-0.141228	-0.004793	-0.279865
H268	H	0.358772	0.495207	0.220135
H269	H	-0.209724	-0.082107	-0.253803
H270	H	0.290276	0.417893	0.246197
H271	H	-0.169170	-0.084238	-0.322149
H272	H	0.330830	0.415762	0.177851
C273	C	-0.604120	0.636849	-0.466563
C274	C	-0.104120	1.136849	0.033437
C275	C	-0.574167	0.668898	-0.513629
C276	C	-0.074167	1.168898	-0.013629
H277	H	-0.623797	0.612999	-0.502714
H278	H	-0.123797	1.112999	-0.002714
H279	H	-0.627180	0.657791	-0.434864
H280	H	-0.127180	1.157791	0.065136
H281	H	-0.581693	0.618013	-0.430200
H282	H	-0.081693	1.118013	0.069800
H283	H	-0.596594	0.687737	-0.549988
H284	H	-0.096594	1.187737	-0.049988
H285	H	-0.551105	0.647953	-0.545343
H286	H	-0.051105	1.147953	-0.045343
C287	C	-0.218637	0.085738	-0.236544
C288	C	0.281363	0.585738	0.263456
C289	C	-0.190899	0.052672	-0.290168
C290	C	0.309101	0.552672	0.209832
H291	H	-0.194765	0.105409	-0.200423
H292	H	0.305235	0.605409	0.299577
H293	H	-0.240375	0.065428	-0.204602
H294	H	0.259625	0.565428	0.295398
H295	H	-0.239577	0.108808	-0.268242
H296	H	0.260423	0.608808	0.231758
H297	H	-0.169962	0.029600	-0.258470
H298	H	0.330038	0.529600	0.241530
H299	H	-0.169152	0.072984	-0.322114
H300	H	0.330848	0.572984	0.177886
H301	H	-1.068241	0.679089	-0.498533
H302	H	-0.568241	1.179089	0.001467
H303	H	-0.818761	0.643863	-0.551774
H304	H	-0.318761	1.143863	-0.051774
H305	H	-0.165723	0.198232	-0.252100
H306	H	0.334277	0.698232	0.247900
H307	H	-0.200886	0.447698	-0.305244
H308	H	0.299114	0.947698	0.194756
C309	C	-0.124827	0.271530	-0.190215
C310	C	0.375173	0.771530	0.309785
C311	C	-0.155694	0.305546	-0.236917
C312	C	0.344306	0.805546	0.263083
H313	H	-0.100960	0.291202	-0.154087
H314	H	0.399040	0.791202	0.345913
H315	H	-0.106016	0.249104	-0.226602
H316	H	0.393984	0.749104	0.273398
H317	H	-0.146573	0.251221	-0.158273
H318	H	0.353427	0.751221	0.341727
H319	H	-0.133948	0.325853	-0.268864
H320	H	0.366052	0.825853	0.231136
H321	H	-0.174507	0.327981	-0.200525
H322	H	0.325493	0.827981	0.299475
H323	H	-0.969190	0.679060	-0.498529
H324	H	-0.469190	1.179060	0.001471
H325	H	-0.200884	0.546766	-0.305222
H326	H	0.299116	1.046766	0.194778
H327	H	-0.460650	0.806425	-0.305174
H328	H	0.039350	1.306425	0.194826
C329	C	-0.429802	0.696632	-0.567180
C330	C	0.070198	1.196632	-0.067180
C331	C	-0.459539	0.668865	-0.513612
C332	C	0.040461	1.168865	-0.013612
H333	H	-0.412429	0.672778	-0.603325
H334	H	0.087571	1.172778	-0.103325
H335	H	-0.404720	0.717554	-0.535448
H336	H	0.095280	1.217554	-0.035448
H337	H	-0.452093	0.718390	-0.599107
H338	H	0.047907	1.218390	-0.099107
H339	H	-0.437248	0.647110	-0.481681
H340	H	0.062752	1.147110	0.018319
H341	H	-0.484625	0.647934	-0.545348
H342	H	0.015375	1.147934	-0.045348
C343	C	-0.529997	0.847319	-0.243266
C344	C	-0.029997	1.347319	0.256734
C345	C	-0.566996	0.816487	-0.290017
C346	C	-0.066996	1.316487	0.209983
H347	H	-0.547362	0.871177	-0.207116
H348	H	-0.047362	1.371177	0.292884
H349	H	-0.509825	0.866140	-0.279620
H350	H	-0.009825	1.366140	0.220380
H351	H	-0.507718	0.825548	-0.211344
H352	H	-0.007718	1.325548	0.288656
H353	H	-0.589274	0.838258	-0.321944
H354	H	-0.089274	1.338258	0.178056
H355	H	-0.587177	0.797665	-0.253658
H356	H	-0.087177	1.297665	0.246342
C357	C	-0.870523	0.844385	-0.248139
C358	C	-0.370523	1.344385	0.251861
C359	C	-0.816467	0.851764	-0.236872
C360	C	-0.316467	1.351764	0.263128
H361	H	-0.887886	0.868282	-0.212051
H362	H	-0.387886	1.368282	0.287949
H363	H	-0.879136	0.809672	-0.235821
H364	H	-0.379136	1.309672	0.264179
H365	H	-0.881206	0.850205	-0.304187
H366	H	-0.381206	1.350205	0.195813
H367	H	-0.805783	0.845941	-0.180826
H368	H	-0.305783	1.345941	0.319174
H369	H	-0.807849	0.886485	-0.249185
H370	H	-0.307849	1.386485	0.250815
