data_functionalizedCrystal
_audit_creation_method	'MofGen! by Chris Wilmer'
_symmetry_space_group_name_H-M	'P1'
_symmetry_Int_Tables_number	1
_symmetry_cell_setting	triclinic
loop_
_symmetry_equiv_pos_as_xyz
  x,y,z
_cell_length_a	14.853568
_cell_length_b	14.044220
_cell_length_c	12.503572
_cell_angle_alpha	86.156832
_cell_angle_beta	86.480006
_cell_angle_gamma	91.587841
loop_
_atom_site_label
_atom_site_type_symbol
_atom_site_fract_x
_atom_site_fract_y
_atom_site_fract_z
O1	O	-1.210924	0.118301	0.089241
O2	O	-0.710924	0.618301	0.589241
O3	O	-0.949634	0.133042	0.089261
O4	O	-0.449634	0.633042	0.589261
O5	O	-1.076357	-0.012318	0.089241
O6	O	-0.576357	0.487682	0.589241
O7	O	-1.084202	0.263660	0.089261
O8	O	-0.584202	0.763660	0.589261
O9	O	-1.066828	-0.001368	-0.089400
O10	O	-0.566828	0.498632	0.410600
O11	O	-0.940105	0.143992	-0.089379
O12	O	-0.440105	0.643992	0.410621
O13	O	-1.201396	0.129251	-0.089400
O14	O	-0.701396	0.629251	0.410600
Cu15	Cu	-1.069880	0.137621	-0.105701
Cu16	Cu	-0.569880	0.637621	0.394299
Cu17	Cu	-1.081149	0.124671	0.105562
Cu18	Cu	-0.581149	0.624671	0.605562
O19	O	-1.074673	0.274611	-0.089379
O20	O	-0.574673	0.774611	0.410621
C21	C	-0.911228	0.137849	-0.000057
C22	C	-0.411228	0.637849	0.499943
C23	C	-0.810986	0.135846	-0.000049
C24	C	-0.310986	0.635846	0.499951
C25	C	-0.392324	0.121408	0.097312
C26	C	0.107676	0.621408	0.597312
C27	C	-0.381957	0.133347	-0.097448
C28	C	0.118043	0.633347	0.402552
C29	C	-0.476140	0.135227	-0.097446
C30	C	0.023860	0.635227	0.402554
C31	C	-0.528420	0.130200	-0.000063
C32	C	-0.028420	0.630200	0.499937
C33	C	-0.486516	0.123291	0.097318
C34	C	0.013484	0.623291	0.597318
C35	C	-0.518050	0.142145	-0.194825
C36	C	-0.018050	0.642145	0.305175
C37	C	-0.612239	0.144027	-0.194826
C38	C	-0.112239	0.644027	0.305174
C39	C	-0.664521	0.138992	-0.097442
C40	C	-0.164521	0.638992	0.402558
C41	C	-0.622611	0.132083	-0.000057
C42	C	-0.122611	0.632083	0.499943
C43	C	-0.674891	0.127055	0.097326
C44	C	-0.174891	0.627055	0.597326
C45	C	-0.632984	0.120138	0.194712
C46	C	-0.132984	0.620138	0.694712
C47	C	-0.538798	0.118257	0.194702
C48	C	-0.038798	0.618257	0.694702
C49	C	-0.758707	0.140874	-0.097432
C50	C	-0.258707	0.640874	0.402568
C51	C	-0.769083	0.128938	0.097331
C52	C	-0.269083	0.628938	0.597331
C53	C	-1.068159	-0.042162	-0.000080
C54	C	-0.568159	0.457838	0.499920
C55	C	-1.057917	-0.147401	-0.000080
C56	C	-0.557917	0.352599	0.499920
C57	C	-1.039194	-0.340088	-0.000063
C58	C	-0.539194	0.159912	0.499937
C59	C	-1.111832	-0.397625	-0.000066
C60	C	-0.611832	0.102375	0.499934
C61	C	-1.101415	-0.504843	-0.000056
C62	C	-0.601415	-0.004843	0.499944
C63	C	-1.049610	-0.232860	-0.000073
C64	C	-0.549610	0.267140	0.499927
C65	C	-0.239802	0.124441	-0.000077
C66	C	0.260198	0.624441	0.499923
C67	C	-0.340045	0.126436	-0.000071
C68	C	0.159955	0.626436	0.499929
C69	C	-1.082871	0.304454	-0.000056
C70	C	-0.582871	0.804454	0.499944
C71	C	-1.093113	0.409693	-0.000049
C72	C	-0.593113	0.909693	0.499951
N73	N	-1.061961	0.146729	-0.254292
N74	N	-0.561961	0.646729	0.245708
C75	C	-1.050312	0.160134	-0.473405
C76	C	-0.550312	0.660134	0.026595
C77	C	-1.100722	0.102154	-0.526740
C78	C	-0.600722	0.602154	-0.026740
C79	C	-1.094240	0.109613	-0.648663
C80	C	-0.594240	0.609613	-0.148663
C81	C	-1.056792	0.152676	-0.351472
C82	C	-0.556792	0.652676	0.148528
N83	N	-1.089075	0.115556	0.254153
N84	N	-0.589075	0.615556	0.754153
H85	H	-0.504668	0.112625	0.273988
H86	H	-0.004668	0.612625	0.773988
C87	C	-0.826583	0.123403	0.204463
C88	C	-0.326583	0.623403	0.704463
N89	N	-0.869892	0.119234	0.285155
N90	N	-0.369892	0.619234	0.785155
C91	C	-0.690503	0.114608	0.301830
C92	C	-0.190503	0.614608	0.801830
N93	N	-0.733831	0.110442	0.382508
N94	N	-0.233831	0.610442	0.882508
H95	H	-0.969187	-0.371350	-0.000055
H96	H	-0.469187	0.128650	0.499945
C97	C	-0.346226	0.113800	0.204431
C98	C	0.153774	0.613800	0.704431
N99	N	-0.311504	0.108071	0.285114
N100	N	0.188496	0.608071	0.785114
H101	H	-0.339385	0.137447	-0.176733
H102	H	0.160615	0.637447	0.323267
C103	C	-1.165614	0.027537	-0.464727
C104	C	-0.665614	0.527537	0.035273
N105	N	-1.214494	-0.028658	-0.418014
N106	N	-0.714494	0.471342	0.081986
C107	C	-0.985434	0.234756	-0.535418
C108	C	-0.485434	0.734756	-0.035418
N109	N	-0.936569	0.290960	-0.582138
N110	N	-0.436569	0.790960	-0.082138
C111	C	-0.804800	0.148482	-0.204550
C112	C	-0.304800	0.648482	0.295450
N113	N	-0.839517	0.154210	-0.285236
N114	N	-0.339517	0.654210	0.214764
C115	C	-1.206416	-0.355390	-0.000088
C116	C	-0.706416	0.144610	0.499912
N117	N	-1.277653	-0.323574	-0.000111
N118	N	-0.777653	0.176426	0.499889
H119	H	-0.475477	0.146245	-0.274109
H120	H	0.024523	0.646245	0.225891
H121	H	-0.646351	0.149656	-0.274123
H122	H	-0.146351	0.649656	0.225877
