data_functionalizedCrystal
_audit_creation_method	'MofGen! by Chris Wilmer'
_symmetry_space_group_name_H-M	'P1'
_symmetry_Int_Tables_number	1
_symmetry_cell_setting	triclinic
loop_
_symmetry_equiv_pos_as_xyz
  x,y,z
_cell_length_a	19.121102
_cell_length_b	25.639239
_cell_length_c	19.120904
_cell_angle_alpha	87.589896
_cell_angle_beta	89.911827
_cell_angle_gamma	87.592882
loop_
_atom_site_label
_atom_site_type_symbol
_atom_site_fract_x
_atom_site_fract_y
_atom_site_fract_z
Zn1	Zn	1.054765	-0.255751	0.442042
Zn2	Zn	1.554765	0.244249	0.942042
Zn3	Zn	1.059658	-0.339618	0.324799
Zn4	Zn	1.559658	0.160382	0.824799
Zn5	Zn	0.942536	-0.248315	0.319827
Zn6	Zn	1.442536	0.251685	0.819827
Zn7	Zn	0.937469	-0.339266	0.437001
Zn8	Zn	1.437469	0.160734	0.937001
O9	O	0.998607	-0.295738	0.380917
O10	O	1.498607	0.204262	0.880917
O11	O	1.153518	-0.270136	0.430680
O12	O	1.653518	0.229864	0.930680
O13	O	1.048290	-0.324541	0.226035
O14	O	1.548290	0.175459	0.726035
O15	O	0.957496	-0.176139	0.336067
O16	O	1.457496	0.323861	0.836067
O17	O	1.157113	-0.331752	0.344542
O18	O	1.657113	0.168248	0.844542
O19	O	1.039950	-0.181603	0.425859
O20	O	1.539950	0.318397	0.925859
O21	O	0.962241	-0.257461	0.222382
O22	O	1.462241	0.242539	0.722382
O23	O	0.843760	-0.257121	0.331180
O24	O	1.343760	0.242879	0.831180
O25	O	0.948861	-0.331153	0.535775
O26	O	1.448861	0.168847	1.035775
O27	O	0.840037	-0.323942	0.417267
O28	O	1.340037	0.176058	0.917267
O29	O	1.035037	-0.269795	0.539478
O30	O	1.535037	0.230205	1.039478
O31	O	1.043377	-0.412733	0.339654
O32	O	1.543377	0.087267	0.839654
O33	O	0.953605	-0.412475	0.422089
O34	O	1.453605	0.087525	0.922089
C35	C	0.816461	-0.289687	0.373137
C36	C	1.316461	0.210313	0.873137
C37	C	0.738537	-0.287111	0.369826
C38	C	1.238537	0.212889	0.869826
C39	C	0.700012	-0.320740	0.413021
C40	C	1.200012	0.179260	0.913021
C41	C	0.626794	-0.318313	0.409912
C42	C	1.126794	0.181687	0.909912
C43	C	0.592104	-0.282260	0.363605
C44	C	1.092104	0.217740	0.863605
C45	C	0.630634	-0.248627	0.320408
C46	C	1.130634	0.251373	0.820408
C47	C	0.703850	-0.251052	0.323520
C48	C	1.203850	0.248948	0.823520
C49	C	0.371134	-0.273194	0.351972
C50	C	0.871134	0.226806	0.851972
C51	C	0.297913	-0.270773	0.348862
C52	C	0.797913	0.229227	0.848862
C53	C	0.294078	-0.340458	0.438367
C54	C	0.794078	0.159542	0.938367
C55	C	0.367296	-0.342882	0.441472
C56	C	0.867296	0.157118	0.941472
C57	C	0.405820	-0.309247	0.398278
C58	C	0.905820	0.190753	0.898278
C59	C	0.517264	-0.279779	0.360425
C60	C	1.017264	0.220221	0.860425
C61	C	0.480658	-0.311726	0.401462
C62	C	0.980658	0.188274	0.901462
C63	C	0.998491	-0.431575	0.380880
C64	C	1.498491	0.068425	0.880880
C65	C	0.998504	-0.489690	0.380890
C66	C	1.498504	0.010310	0.880890
C67	C	1.045465	-0.850185	0.338075
C68	C	1.545465	-0.350185	0.838075
C69	C	1.045491	-0.904791	0.338085
C70	C	1.545491	-0.404791	0.838085
O71	O	1.085298	-0.933135	0.301642
O72	O	1.585298	-0.433135	0.801642
N73	N	0.998728	-0.931982	0.380969
N74	N	1.498728	-0.431982	0.880969
C75	C	0.951940	-0.904565	0.423850
C76	C	1.451940	-0.404565	0.923850
O77	O	0.912167	-0.932708	0.460327
O78	O	1.412167	-0.432708	0.960327
C79	C	0.951917	-0.849961	0.423843
C80	C	1.451917	-0.349961	0.923843
C81	C	0.998679	-0.822772	0.380951
C82	C	1.498679	-0.322772	0.880951
C83	C	1.092223	-0.822997	0.295188
C84	C	1.592223	-0.322997	0.795188
C85	C	1.092195	-0.768395	0.295176
C86	C	1.592195	-0.268395	0.795176
C87	C	1.045409	-0.740982	0.338052
C88	C	1.545409	-0.240982	0.838052
C89	C	0.998651	-0.768171	0.380940
C90	C	1.498651	-0.268171	0.880940
C91	C	0.905133	-0.822546	0.466727
C92	C	1.405133	-0.322546	0.966727
C93	C	0.905115	-0.767938	0.466716
C94	C	1.405115	-0.267938	0.966716
C95	C	0.951876	-0.740749	0.423825
C96	C	1.451876	-0.240749	0.923825
C97	C	0.951837	-0.686156	0.423805
C98	C	1.451837	-0.186156	0.923805
N99	N	0.998600	-0.658965	0.380921
N100	N	1.498600	-0.158965	0.880921
C101	C	1.045386	-0.686378	0.338045
C102	C	1.545386	-0.186378	0.838045
C103	C	0.951992	-1.019238	0.423863
C104	C	1.451992	-0.519238	0.923863
C105	C	0.952011	-1.073841	0.423867
C106	C	1.452011	-0.573841	0.923867
C107	C	1.045564	-1.074063	0.338103
C108	C	1.545564	-0.574063	0.838103
C109	C	1.045541	-1.019459	0.338096
C110	C	1.545541	-0.519459	0.838096
C111	C	0.998756	-0.992047	0.380980
C112	C	1.498756	-0.492047	0.880980
C113	C	1.045324	-0.571710	0.338024
C114	C	1.545324	-0.071710	0.838024
C115	C	1.045290	-0.517103	0.338014
C116	C	1.545290	-0.017103	0.838014
C117	C	0.951740	-0.516886	0.423780
C118	C	1.451740	-0.016886	0.923780
C119	C	0.951771	-0.571488	0.423788
C120	C	1.451771	-0.071488	0.923788
C121	C	0.998569	-0.598899	0.380907
C122	C	1.498569	-0.098899	0.880907
O123	O	0.912052	-0.657777	0.460232
O124	O	1.412052	-0.157777	0.960232
O125	O	1.085159	-0.658229	0.301581
O126	O	1.585159	-0.158229	0.801581
C127	C	1.181464	-0.301813	0.388728
C128	C	1.681464	0.198187	0.888728
C129	C	1.259387	-0.304401	0.392057
C130	C	1.759387	0.195599	0.892057
C131	C	0.990838	-0.301264	0.563775
C132	C	1.490838	0.198736	1.063775
C133	C	0.987527	-0.303619	0.641698
C134	C	1.487527	0.196381	1.141698
C135	C	0.998742	-0.159371	0.380971
C136	C	1.498742	0.340629	0.880971
C137	C	0.998800	-0.101259	0.380993
C138	C	1.498800	0.398741	0.880993
C139	C	1.006386	-0.290196	0.198772
C140	C	1.506386	0.209804	0.698772
C141	C	1.009833	-0.287698	0.120856
C142	C	1.509833	0.212302	0.620856
C143	C	1.030837	-0.272781	0.680236
C144	C	1.530837	0.227219	1.180236
C145	C	1.027718	-0.274992	0.753453
C146	C	1.527718	0.225008	1.253453
C147	C	0.981292	-0.308044	0.788130
C148	C	1.481292	0.191956	1.288130
C149	C	0.937977	-0.338883	0.749587
C150	C	1.437977	0.161117	1.249587
C151	C	0.941093	-0.336669	0.676372
C152	C	1.441093	0.163331	1.176372
C153	C	0.969635	-0.316324	1.009097
C154	C	1.469635	0.183676	1.509097
C155	C	0.966523	-0.318536	1.082318
C156	C	1.466523	0.181464	1.582318
C157	C	1.056263	-0.254644	1.086178
C158	C	1.556263	0.245356	1.586178
C159	C	1.059378	-0.252436	1.012961
C160	C	1.559378	0.247564	1.512961
C161	C	1.016061	-0.283273	0.974424
C162	C	1.516061	0.216727	1.474424
C163	C	0.978104	-0.310306	0.862970
C164	C	1.478104	0.189694	1.362970
C165	C	1.019246	-0.281008	0.899586
C166	C	1.519246	0.218992	1.399586
H167	H	0.262704	-0.367840	0.473534
H168	H	0.762704	0.132160	0.973534
H169	H	1.083618	-0.997325	0.303171
H170	H	1.583618	-0.497325	0.803171
O171	O	0.906321	-0.597823	0.465514
O172	O	1.406321	-0.097823	0.965514
C173	C	0.865007	-0.561914	0.503339
C174	C	1.365007	-0.061914	1.003339
H175	H	0.893594	-0.523991	0.507000
H176	H	1.393594	-0.023991	1.007000
H177	H	0.855150	-0.579096	0.558254
H178	H	1.355150	-0.079096	1.058254
H179	H	0.812871	-0.553619	0.475351
H180	H	1.312871	-0.053619	0.975351
O181	O	0.899105	-0.366708	0.638965
O182	O	1.399105	0.133292	1.138965
C183	C	0.913607	-0.419864	0.657502
C184	C	1.413607	0.080136	1.157502
H185	H	0.968752	-0.424969	0.680031
H186	H	1.468752	0.075031	1.180031
H187	H	0.909602	-0.444037	0.609082
H188	H	1.409602	0.055963	1.109082
H189	H	0.874196	-0.433571	0.698381
H190	H	1.374196	0.066429	1.198381
O191	O	0.483530	-0.244829	0.315372
O192	O	0.983530	0.255171	0.815372
C193	C	0.443048	-0.271766	0.268235
C194	C	0.943048	0.228234	0.768235
H195	H	0.465270	-0.313534	0.264727
H196	H	0.965270	0.186466	0.764727
H197	H	0.444495	-0.251132	0.214296
H198	H	0.944495	0.248868	0.714296
H199	H	0.386647	-0.272416	0.287564
H200	H	0.886647	0.227584	0.787564
H201	H	0.867052	-0.844673	0.501650
H202	H	1.367052	-0.344673	1.001650
H203	H	0.900174	-0.365793	0.777828
H204	H	1.400174	0.134207	1.277828
O205	O	1.064248	-0.248870	0.865824
O206	O	1.564248	0.251130	1.365824
C207	C	1.026168	-0.212487	0.821794
C208	C	1.526168	0.287513	1.321794
H209	H	0.973485	-0.228828	0.808550
H210	H	1.473485	0.271172	1.308550
H211	H	1.056918	-0.204875	0.771531
H212	H	1.556918	0.295125	1.271531
H213	H	1.017308	-0.174339	0.849696
H214	H	1.517308	0.325661	1.349696
H215	H	1.083369	-0.494968	0.303084
H216	H	1.583369	0.005032	0.803084
O217	O	1.090805	-0.598249	0.296303
O218	O	1.590805	-0.098249	0.796303
C219	C	1.132075	-0.562534	0.258464
C220	C	1.632075	-0.062534	0.758464
H221	H	1.103440	-0.522609	0.254789
H222	H	1.603440	-0.022609	0.754789
H223	H	1.141950	-0.576895	0.203555
H224	H	1.641950	-0.076895	0.703555
H225	H	1.184204	-0.559219	0.286450
H226	H	1.684204	-0.059219	0.786450
O227	O	1.137654	-0.741933	0.253616
O228	O	1.637654	-0.241933	0.753616
C229	C	1.181204	-0.713023	0.295496
C230	C	1.681204	-0.213023	0.795496
H231	H	1.154172	-0.705625	0.347543
H232	H	1.654172	-0.205625	0.847543
H233	H	1.191826	-0.674078	0.267341
H234	H	1.691826	-0.174078	0.767341
H235	H	1.232827	-0.735987	0.305469
H236	H	1.732827	-0.235987	0.805469
O237	O	0.859762	-0.741292	0.508452
O238	O	1.359762	-0.241292	1.008452
C239	C	0.897700	-0.712344	0.555449
C240	C	1.397700	-0.212344	1.055449
H241	H	0.952735	-0.730718	0.562182
H242	H	1.452735	-0.230718	1.062182
H243	H	0.870012	-0.712518	0.608297
H244	H	1.370012	-0.212518	1.108297
H245	H	0.901030	-0.670390	0.533872
H246	H	1.401030	-0.170390	1.033872
O247	O	0.400881	-0.377919	0.486518
O248	O	0.900881	0.122081	0.986518
C249	C	0.351177	-0.407091	0.523964
C250	C	0.851177	0.092909	1.023964
H251	H	0.298898	-0.384026	0.524230
H252	H	0.798898	0.115974	1.024230
H253	H	0.369994	-0.415105	0.580085
H254	H	0.869994	0.084895	1.080085
H255	H	0.344445	-0.445731	0.497859
H256	H	0.844445	0.054269	0.997859
O257	O	1.137698	-0.849538	0.253467
O258	O	1.637698	-0.349538	0.753467
C259	C	1.178969	-0.813822	0.215632
C260	C	1.678969	-0.313822	0.715632
H261	H	1.150336	-0.773896	0.211962
H262	H	1.650336	-0.273896	0.711962
H263	H	1.188843	-0.828178	0.160721
H264	H	1.688843	-0.328178	0.660721
H265	H	1.231099	-0.810510	0.243618
H266	H	1.731099	-0.310510	0.743618
H267	H	0.934373	-0.341441	0.977730
H268	H	1.434373	0.158559	1.477730
H269	H	0.913645	-0.494558	0.458687
H270	H	1.413645	0.005442	0.958687
O271	O	0.733596	-0.355778	0.458066
O272	O	1.233596	0.144222	0.958066
C273	C	0.683889	-0.384946	0.495513
C274	C	1.183889	0.115054	0.995513
H275	H	0.631611	-0.361880	0.495772
H276	H	1.131611	0.138120	0.995772
H277	H	0.702702	-0.392956	0.551635
H278	H	1.202702	0.107044	1.051635
H279	H	0.677159	-0.423588	0.469412
H280	H	1.177159	0.076412	0.969412
O281	O	0.589340	-0.350911	0.451944
O282	O	1.089340	0.149089	0.951944
C283	C	0.545085	-0.321171	0.495494
C284	C	1.045085	0.178829	0.995494
H285	H	0.566992	-0.280862	0.500868
H286	H	1.066992	0.219138	1.000868
H287	H	0.541966	-0.341750	0.549362
H288	H	1.041966	0.158250	1.049362
H289	H	0.490511	-0.316854	0.471469
H290	H	0.990511	0.183146	0.971469
O291	O	1.069813	-0.245111	0.790971
O292	O	1.569813	0.254889	1.290971
C293	C	1.113270	-0.277658	0.835243
C294	C	1.613270	0.222342	1.335243
H295	H	1.088041	-0.316791	0.845134
H296	H	1.588041	0.183209	1.345134
H297	H	1.120483	-0.258229	0.887140
H298	H	1.620483	0.241771	1.387140
H299	H	1.166423	-0.284272	0.809256
H300	H	1.666423	0.215728	1.309256
O301	O	0.933049	-0.342485	0.896584
O302	O	1.433049	0.157515	1.396584
C303	C	0.949092	-0.394564	0.879349
C304	C	1.449092	0.105436	1.379349
H305	H	0.978298	-0.394941	0.827340
H306	H	1.478298	0.105059	1.327340
H307	H	0.898581	-0.416253	0.874680
H308	H	1.398581	0.083747	1.374680
H309	H	0.983370	-0.414611	0.922091
H310	H	1.483370	0.085389	1.422091
H311	H	0.269669	-0.241408	0.311157
H312	H	0.769669	0.258592	0.811157
H313	H	0.602383	-0.219270	0.282707
H314	H	1.102383	0.280730	0.782707
O315	O	0.906505	-0.992551	0.465417
O316	O	1.406505	-0.492551	0.965417
C317	C	0.862926	-0.958312	0.423529
C318	C	1.362926	-0.458312	0.923529
H319	H	0.889949	-0.949337	0.371480
H320	H	1.389949	-0.449337	0.871480
H321	H	0.852270	-0.920467	0.451674
H322	H	1.352270	-0.420467	0.951674
H323	H	0.811321	-0.977445	0.413563
H324	H	1.311321	-0.477445	0.913563
O325	O	1.091037	-1.100782	0.296570
O326	O	1.591037	-0.600782	0.796570
C327	C	1.081039	-1.154808	0.305794
C328	C	1.581039	-0.654808	0.805794
H329	H	1.055673	-1.163119	0.358870
H330	H	1.555673	-0.663119	0.858870
H331	H	1.133779	-1.177109	0.303418
H332	H	1.633779	-0.677109	0.803418
H333	H	1.045581	-1.167881	0.262556
H334	H	1.545581	-0.667881	0.762556
O335	O	0.921359	-0.350655	1.115894
O336	O	1.421359	0.149345	1.615894
C337	C	0.883806	-0.377408	1.066182
C338	C	1.383806	0.122592	1.566182
H339	H	0.883617	-0.354335	1.013896
H340	H	1.383617	0.145665	1.513896
H341	H	0.827667	-0.381787	1.084977
H342	H	1.327667	0.118213	1.584977
H343	H	0.909768	-0.417733	1.059475
H344	H	1.409768	0.082267	1.559475
O345	O	1.076009	-0.240750	0.646523
O346	O	1.576009	0.259250	1.146523
C347	C	1.123053	-0.270735	0.606082
C348	C	1.623053	0.229265	1.106082
H349	H	1.126409	-0.312723	0.628313
H350	H	1.626409	0.187277	1.128313
H351	H	1.177057	-0.253589	0.607567
H352	H	1.677057	0.246411	1.107567
H353	H	1.103736	-0.270138	0.549666
H354	H	1.603736	0.229862	1.049666
O355	O	0.408444	-0.240500	0.309945
O356	O	0.908444	0.259500	0.809945
C357	C	0.362122	-0.208151	0.268420
C358	C	0.862122	0.291849	0.768420
H359	H	0.310022	-0.227765	0.263717
H360	H	0.810022	0.272235	0.763717
H361	H	0.385616	-0.201535	0.214097
H362	H	0.885616	0.298465	0.714097
H363	H	0.353271	-0.168997	0.293865
H364	H	0.853271	0.331003	0.793865
H365	H	0.735217	-0.223665	0.288350
H366	H	1.235217	0.276335	0.788350
H367	H	0.913927	-1.095973	0.458787
H368	H	1.413927	-0.595973	0.958787
O369	O	1.104492	-0.220282	0.979387
O370	O	1.604492	0.279718	1.479387
C371	C	1.142064	-0.193547	1.029103
C372	C	1.642064	0.306453	1.529103
H373	H	1.111130	-0.192359	1.080066
H374	H	1.611130	0.307641	1.580066
H375	H	1.150484	-0.151963	1.008284
H376	H	1.650484	0.348037	1.508284
H377	H	1.194957	-0.214697	1.039159
H378	H	1.694957	0.285303	1.539159
H379	H	1.091528	-0.229538	1.117562
H380	H	1.591528	0.270462	1.617562
O381	O	0.514277	-0.346816	0.446406
O382	O	1.014277	0.153184	0.946406
C383	C	0.497016	-0.397848	0.430181
C384	C	0.997016	0.102152	0.930181
H385	H	0.444993	-0.396328	0.400972
H386	H	0.944993	0.103672	0.900972
H387	H	0.492362	-0.422798	0.480612
H388	H	0.992362	0.077202	0.980612
H389	H	0.539735	-0.415685	0.395841
H390	H	1.039735	0.084315	0.895841
