data_functionalizedCrystal
_audit_creation_method	'MofGen! by Chris Wilmer'
_symmetry_space_group_name_H-M	'P1'
_symmetry_Int_Tables_number	1
_symmetry_cell_setting	triclinic
loop_
_symmetry_equiv_pos_as_xyz
  x,y,z
_cell_length_a	18.101395
_cell_length_b	12.827893
_cell_length_c	12.827885
_cell_angle_alpha	90.021189
_cell_angle_beta	89.967435
_cell_angle_gamma	89.970686
loop_
_atom_site_label
_atom_site_type_symbol
_atom_site_fract_x
_atom_site_fract_y
_atom_site_fract_z
Zn1	Zn	-0.294828	-1.597556	-0.590883
Zn2	Zn	0.205172	-1.097556	-0.090883
Zn3	Zn	-0.418687	-1.597402	-0.416136
Zn4	Zn	0.081313	-1.097402	0.083864
Zn5	Zn	-0.294860	-1.422797	-0.416151
Zn6	Zn	0.205140	-0.922797	0.083849
Zn7	Zn	-0.418628	-1.422734	-0.590830
Zn8	Zn	0.081372	-0.922734	-0.090830
O9	O	-0.356751	-1.510122	-0.503500
O10	O	0.143249	-1.010122	-0.003500
O11	O	-0.311269	-1.743771	-0.567719
O12	O	0.188731	-1.243771	-0.067719
O13	O	-0.402300	-1.574202	-0.269902
O14	O	0.097700	-1.074202	0.230098
O15	O	-0.191223	-1.446070	-0.439358
O16	O	0.308777	-0.946070	0.060642
O17	O	-0.402268	-1.743658	-0.439332
O18	O	0.097732	-1.243658	0.060668
O19	O	-0.191199	-1.574464	-0.567733
O20	O	0.308801	-1.074464	-0.067733
O21	O	-0.311325	-1.445920	-0.269913
O22	O	0.188675	-0.945920	0.230087
O23	O	-0.311267	-1.276553	-0.439307
O24	O	0.188733	-0.776553	0.060693
O25	O	-0.402167	-1.445963	-0.737073
O26	O	0.097833	-0.945963	-0.237073
O27	O	-0.402199	-1.276507	-0.567642
O28	O	0.097801	-0.776507	-0.067642
O29	O	-0.311212	-1.574403	-0.737112
O30	O	0.188788	-1.074403	-0.237112
O31	O	-0.522312	-1.574141	-0.439280
O32	O	-0.022312	-1.074141	0.060720
O33	O	-0.522269	-1.445814	-0.567627
O34	O	-0.022269	-0.945814	-0.067627
C35	C	-0.356731	-1.238612	-0.503471
C36	C	0.143269	-0.738612	-0.003471
C37	C	-0.356740	-1.122459	-0.503483
C38	C	0.143260	-0.622459	-0.003483
C39	C	-0.311789	-1.070730	-0.567110
C40	C	0.188211	-0.570730	-0.067110
C41	C	-0.311798	-0.950680	-0.567125
C42	C	0.188202	-0.450680	-0.067125
C43	C	-0.549162	-1.509982	-0.503469
C44	C	-0.049162	-1.009982	-0.003469
C45	C	-0.631476	-1.510018	-0.503491
C46	C	-0.131476	-1.010018	-0.003491
C47	C	-0.930566	-1.510247	-0.503547
C48	C	-0.430566	-1.010247	-0.003547
C49	C	-0.899245	-1.429695	-0.584500
C50	C	-0.399245	-0.929695	-0.084500
C51	C	-0.813627	-1.429312	-0.584247
C52	C	-0.313627	-0.929312	-0.084247
C53	C	-0.782184	-1.510134	-0.503520
C54	C	-0.282184	-1.010134	-0.003520
C55	C	-0.813342	-1.480314	-0.393385
C56	C	-0.313342	-0.980314	0.106615
C57	C	-0.898987	-1.479795	-0.393869
C58	C	-0.398987	-0.979795	0.106131
C59	C	-0.898911	-1.620796	-0.531760
C60	C	-0.398911	-1.120796	-0.031760
C61	C	-0.813260	-1.620146	-0.534176
C62	C	-0.313260	-1.120146	-0.034176
C63	C	-0.698325	-1.510071	-0.503498
C64	C	-0.198325	-1.010071	-0.003498
C65	C	-1.014426	-1.510307	-0.503562
C66	C	-0.514426	-1.010307	-0.003562
C67	C	-0.163589	-1.510291	-0.503554
C68	C	0.336411	-1.010291	-0.003554
C69	C	-0.081275	-1.510363	-0.503577
C70	C	0.418725	-1.010363	-0.003577
C71	C	-0.356679	-1.510193	-0.776070
C72	C	0.143321	-1.010193	-0.276070
C73	C	-0.356649	-1.510224	-0.892223
C74	C	0.143351	-1.010224	-0.392223
C75	C	-0.356766	-0.782692	-0.503521
C76	C	0.143234	-0.282692	-0.003521
C77	C	-0.356756	-0.898845	-0.503509
C78	C	0.143244	-0.398845	-0.003509
C79	C	-0.311592	-1.446799	-1.064058
C80	C	0.188408	-0.946799	-0.564058
C81	C	-0.311622	-1.446766	-0.944008
C82	C	0.188378	-0.946766	-0.444008
C83	C	-0.356769	-1.510111	-0.231990
C84	C	0.143231	-1.010111	0.268010
C85	C	-0.356591	-1.510284	-0.115837
C86	C	0.143409	-1.010284	0.384163
H87	H	-0.395246	-0.943325	-0.449039
H88	H	0.104754	-0.443325	0.050961
H89	H	-0.395229	-1.077869	-0.449019
H90	H	0.104771	-0.577869	0.050981
F91	F	-0.786086	-1.453695	-0.690989
F92	F	-0.286086	-0.953695	-0.190989
H93	H	-0.919787	-1.448166	-0.666429
H94	H	-0.419787	-0.948166	-0.166429
F95	F	-0.261498	-0.892537	-0.638333
F96	F	0.238502	-0.392537	-0.138333
F97	F	-0.927472	-1.323245	-0.560399
F98	F	-0.427472	-0.823245	-0.060399
F99	F	-0.261476	-1.129006	-0.638297
F100	F	0.238524	-0.629006	-0.138297
H101	H	-0.273099	-1.392411	-0.899479
H102	H	0.226901	-0.892411	-0.399479
F103	F	-0.786928	-1.322207	-0.559825
F104	F	-0.286928	-0.822207	-0.059825
H105	H	-0.395136	-1.564615	-1.071291
H106	H	0.104864	-1.064615	-0.571291
H107	H	-0.919030	-1.398984	-0.369970
H108	H	-0.419030	-0.898984	0.130030
F109	F	-0.786725	-1.554587	-0.312394
F110	F	-0.286725	-1.054587	0.187606
F111	F	-0.926075	-1.553146	-0.312338
F112	F	-0.426075	-1.053146	0.187662
H113	H	-0.791957	-1.400359	-0.369057
H114	H	-0.291957	-0.900359	0.130943
F115	F	-0.786638	-1.649542	-0.640119
F116	F	-0.286638	-1.149542	-0.140119
H117	H	-0.920454	-1.647982	-0.610702
H118	H	-0.420454	-1.147982	-0.110702
H119	H	-0.791852	-1.683337	-0.479511
H120	H	-0.291852	-1.183337	0.020489
F121	F	-0.261201	-1.375792	-1.122279
F122	F	0.238799	-0.875792	-0.622279
F123	F	-0.925397	-1.699244	-0.454707
F124	F	-0.425397	-1.199244	0.045293
H125	H	-0.395177	-1.564577	-0.936746
H126	H	0.104823	-1.064577	-0.436746
