data_functionalizedCrystal
_audit_creation_method	'MofGen! by Chris Wilmer'
_symmetry_space_group_name_H-M	'P1'
_symmetry_Int_Tables_number	1
_symmetry_cell_setting	triclinic
loop_
_symmetry_equiv_pos_as_xyz
  x,y,z
_cell_length_a	12.759401
_cell_length_b	12.759400
_cell_length_c	12.759393
_cell_angle_alpha	89.968436
_cell_angle_beta	90.018496
_cell_angle_gamma	89.985155
loop_
_atom_site_label
_atom_site_type_symbol
_atom_site_fract_x
_atom_site_fract_y
_atom_site_fract_z
Zn1	Zn	1.606255	0.418200	0.593981
Zn2	Zn	1.606150	0.593919	0.418301
Zn3	Zn	1.430557	0.418255	0.418321
Zn4	Zn	1.430546	0.593838	0.593943
O5	O	1.518377	0.506053	0.506137
O6	O	1.753262	0.441520	0.570685
O7	O	1.582818	0.570673	0.271283
O8	O	1.453913	0.271226	0.441647
O9	O	1.753185	0.570620	0.441614
O10	O	1.582998	0.271186	0.570704
O11	O	1.453811	0.441614	0.271297
O12	O	1.283535	0.441535	0.441609
O13	O	1.453894	0.570482	0.740969
O14	O	1.283527	0.570536	0.570638
O15	O	1.582987	0.441442	0.740997
O16	O	1.582807	0.740929	0.441577
O17	O	1.453791	0.740870	0.570620
C18	C	1.245410	0.506033	0.506122
C19	C	1.128633	0.506050	0.506141
C20	C	1.073794	0.573328	0.573215
C21	C	0.964070	0.573342	0.573227
C22	C	0.964034	0.438796	0.439081
C23	C	1.073756	0.438778	0.439075
C24	C	1.128672	0.640600	0.640281
C25	C	1.073833	0.707885	0.707360
C26	C	0.964109	0.707898	0.707371
C27	C	0.909224	0.640627	0.640304
C28	C	1.518315	0.779020	0.506115
C29	C	1.518384	0.895797	0.506140
C30	C	1.518451	0.505947	0.780170
C31	C	1.518482	0.505902	0.896947
C32	C	1.792410	0.506073	0.506152
C33	C	1.909187	0.506082	0.506158
C34	C	1.518468	0.232019	0.506182
C35	C	1.518507	0.115243	0.506201
C36	C	1.585637	0.950655	0.439022
C37	C	1.585702	1.060379	0.439054
C38	C	1.451252	1.060377	0.573327
C39	C	1.451193	0.950655	0.573299
C40	C	1.652828	0.895797	0.371864
C41	C	1.720086	0.950655	0.304739
C42	C	1.720150	1.060379	0.304771
C43	C	1.652957	1.115245	0.371929
C44	C	1.518364	0.506083	0.233169
C45	C	1.518537	0.505832	0.116393
C46	C	1.585710	0.438704	0.951825
C47	C	1.585735	0.438666	1.061549
C48	C	1.451301	0.573033	1.061507
C49	C	1.451272	0.573064	0.951785
C50	C	1.652920	0.371541	0.896987
C51	C	1.720155	0.304339	0.951866
C52	C	1.720180	0.304301	1.061590
C53	C	1.652970	0.371465	1.116436
H54	H	0.819879	0.640634	0.640328
C55	C	1.377386	0.646923	1.121831
C56	C	1.257948	0.638353	1.106747
C57	C	1.184036	0.712251	1.167068
C58	C	1.229564	0.794720	1.242472
C59	C	1.349009	0.803293	1.257558
C60	C	1.422920	0.729395	1.197238
H61	H	1.224240	0.577302	1.050926
H62	H	1.095615	0.705904	1.155899
H63	H	1.174850	0.849424	1.287125
H64	H	1.382716	0.864344	1.313380
H65	H	1.511341	0.735742	1.208406
C66	C	0.903785	0.781905	0.781157
C67	C	0.828325	0.864343	0.735491
C68	C	0.768004	0.938357	0.809275
C69	C	0.783144	0.929934	0.928725
C70	C	0.858608	0.847492	0.974397
C71	C	0.918928	0.773478	0.900613
H72	H	0.817115	0.870582	0.647062
H73	H	0.712141	0.999386	0.775465
H74	H	0.738491	0.984723	0.983344
H75	H	0.869818	0.841253	1.062826
H76	H	0.974791	0.712449	0.934423
H77	H	1.652780	0.806454	0.371827
C78	C	1.794000	0.890308	0.230874
C79	C	1.793933	0.769618	0.230833
C80	C	1.867851	0.709274	0.156968
C81	C	1.941834	0.769620	0.083144
C82	C	1.941903	0.890317	0.083182
C83	C	1.867986	0.950661	0.157048
H84	H	1.739164	0.724940	0.285484
H85	H	1.867799	0.619926	0.156940
H86	H	1.996552	0.724950	0.028465
H87	H	1.996673	0.934994	0.028531
H88	H	1.868037	1.040009	0.157076
H89	H	1.774922	1.105041	0.250123
H90	H	1.653024	1.204589	0.371958
C91	C	1.794079	0.230459	0.891541
C92	C	1.794060	0.230497	0.770851
C93	C	1.867986	0.156615	0.710529
C94	C	1.941932	0.082694	0.770898
C95	C	1.941954	0.082652	0.891595
C96	C	1.868028	0.156535	0.951916
H97	H	1.739318	0.285221	0.726157
H98	H	1.867968	0.156646	0.621181
H99	H	1.996656	0.028001	0.726244
H100	H	1.996696	0.027929	0.936289
H101	H	1.868046	0.156504	1.041264
H102	H	0.919337	0.384028	0.384477
C103	C	1.377334	0.646985	0.891399
C104	C	1.257902	0.638407	0.906462
C105	C	1.183963	0.712325	0.846070
C106	C	1.229457	0.794821	0.770615
C107	C	1.348895	0.803402	0.755548
C108	C	1.422834	0.729484	0.815940
H109	H	1.224219	0.577335	0.962322
H110	H	1.095547	0.705972	0.857224
H111	H	1.174723	0.849539	0.725909
H112	H	1.382578	0.864474	0.699688
H113	H	1.511250	0.735837	0.804786
C114	C	1.134093	0.364770	0.365302
C115	C	1.119024	0.245347	0.374095
C116	C	1.179365	0.171331	0.300330
C117	C	1.254775	0.216738	0.217770
C118	C	1.269847	0.336167	0.208974
C119	C	1.209506	0.410183	0.282739
H120	H	1.063199	0.211729	0.435214
H121	H	1.168207	0.082922	0.306842
H122	H	1.299443	0.161947	0.163164
H123	H	1.325673	0.369786	0.147855
H124	H	1.220664	0.498593	0.276227
H125	H	1.218015	0.640599	0.640277
H126	H	1.396545	1.105058	0.628002
H127	H	1.396431	0.905989	0.627954
H128	H	1.118528	0.762647	0.761970
H129	H	1.652910	0.371567	0.807644
H130	H	1.774917	0.249574	1.106269
H131	H	1.652984	0.371417	1.205780
