data_functionalizedCrystal
_audit_creation_method	'MofGen! by Chris Wilmer'
_symmetry_space_group_name_H-M	'P1'
_symmetry_Int_Tables_number	1
_symmetry_cell_setting	triclinic
loop_
_symmetry_equiv_pos_as_xyz
  x,y,z
_cell_length_a	13.033293
_cell_length_b	14.908178
_cell_length_c	13.033352
_cell_angle_alpha	86.528613
_cell_angle_beta	90.908427
_cell_angle_gamma	100.025217
loop_
_atom_site_label
_atom_site_type_symbol
_atom_site_fract_x
_atom_site_fract_y
_atom_site_fract_z
Zn1	Zn	1.482154	-0.280459	0.760641
Zn2	Zn	1.982154	0.219541	1.260641
Zn3	Zn	1.496518	-0.409809	0.579075
Zn4	Zn	1.996518	0.090191	1.079075
Zn5	Zn	1.332343	-0.275632	0.567182
Zn6	Zn	1.832343	0.224368	1.067182
Zn7	Zn	1.300570	-0.447405	0.726319
Zn8	Zn	1.800570	0.052595	1.226319
O9	O	1.402896	-0.353327	0.658304
O10	O	1.902896	0.146673	1.158304
O11	O	1.628760	-0.283904	0.755897
O12	O	2.128760	0.216096	1.255897
O13	O	1.494048	-0.374256	0.434911
O14	O	1.994048	0.125744	0.934911
O15	O	1.359501	-0.150252	0.602231
O16	O	1.859501	0.349748	1.102231
O17	O	1.639313	-0.378937	0.622501
O18	O	2.139313	0.121063	1.122501
O19	O	1.469567	-0.153798	0.744365
O20	O	1.969567	0.346202	1.244365
O21	O	1.373429	-0.275677	0.426174
O22	O	1.873429	0.224323	0.926174
O23	O	1.183427	-0.312132	0.568951
O24	O	1.683427	0.187868	1.068951
O25	O	1.305349	-0.443014	0.873458
O26	O	1.805349	0.056986	1.373458
O27	O	1.160084	-0.438333	0.685868
O28	O	1.660084	0.061667	1.185868
O29	O	1.438758	-0.320359	0.898674
O30	O	1.938758	0.179641	1.398674
O31	O	1.463239	-0.540817	0.589220
O32	O	1.963239	-0.040817	1.089220
O33	O	1.319277	-0.568439	0.697400
O34	O	1.819277	-0.068439	1.197400
C35	C	1.134236	-0.378789	0.622395
C36	C	1.634236	0.121211	1.122395
C37	C	1.019297	-0.389707	0.607056
C38	C	1.519297	0.110293	1.107056
C39	C	0.962815	-0.347651	0.666308
C40	C	1.462815	0.152349	1.166308
C41	C	0.844020	-0.358934	0.650456
C42	C	1.344020	0.141066	1.150456
C43	C	1.389394	-0.587304	0.640902
C44	C	1.889394	-0.087304	1.140902
C45	C	1.383708	-0.687395	0.633505
C46	C	1.883708	-0.187395	1.133505
C47	C	1.487515	-0.879048	0.767733
C48	C	1.987515	-0.379048	1.267733
C49	C	1.482175	-0.973093	0.760786
C50	C	1.982175	-0.473093	1.260786
C51	C	1.367684	-0.969534	0.612669
C52	C	1.867684	-0.469534	1.112669
C53	C	1.373023	-0.875489	0.619616
C54	C	1.873023	-0.375489	1.119616
C55	C	1.432942	-0.830249	0.697150
C56	C	1.932942	-0.330249	1.197150
C57	C	1.438287	-0.736201	0.704092
C58	C	1.938287	-0.236201	1.204092
C59	C	1.323790	-0.732644	0.555979
C60	C	1.823790	-0.232644	1.055979
C61	C	1.318451	-0.826689	0.549032
C62	C	1.818451	-0.326689	1.049032
C63	C	1.672605	-0.327765	0.694354
C64	C	2.172605	0.172235	1.194354
C65	C	1.787539	-0.316872	0.709716
C66	C	2.287539	0.183128	1.209716
C67	C	1.366907	-0.386419	0.924071
C68	C	1.866907	0.113581	1.424071
C69	C	1.351570	-0.400521	1.037325
C70	C	1.851570	0.099479	1.537325
C71	C	1.416476	-0.118436	0.675800
C72	C	1.916476	0.381564	1.175800
C73	C	1.422263	-0.018339	0.683256
C74	C	1.922263	0.481661	1.183256
C75	C	1.410741	-0.346121	1.100293
C76	C	1.910741	0.153879	1.600293
C77	C	1.394892	-0.360694	1.217347
C78	C	1.894892	0.139306	1.717347
C79	C	1.438736	-0.320385	1.393569
C80	C	1.938736	0.179615	1.893569
C81	C	1.454070	-0.306287	1.280314
C82	C	1.954070	0.193713	1.780314
H83	H	0.804434	-0.403294	0.587985
H84	H	1.304434	0.096706	1.087985
H85	H	1.536311	-0.842212	0.830859
H86	H	2.036311	-0.342212	1.330859
C87	C	1.495024	-0.268620	1.056067
C88	C	1.995024	0.231380	1.556067
H89	H	1.530085	-0.236375	1.110752
H90	H	2.030085	0.263625	1.610752
H91	H	1.543670	-0.293659	1.017994
H92	H	2.043670	0.206341	1.517994
H93	H	1.463304	-0.227998	1.012184
H94	H	1.963304	0.272002	1.512184
C95	C	0.841004	-0.256948	0.794112
C96	C	1.341004	0.243052	1.294112
H97	H	0.913832	-0.257231	0.793704
H98	H	1.413832	0.242769	1.293704
H99	H	0.828839	-0.196242	0.781481
H100	H	1.328839	0.303758	1.281481
H101	H	0.813334	-0.280418	0.859225
H102	H	1.313334	0.219582	1.359225
C103	C	0.965824	-0.449637	0.522673
C104	C	1.465824	0.050363	1.022673
H105	H	0.892994	-0.449364	0.523094
H106	H	1.392994	0.050636	1.023094
H107	H	0.993489	-0.426185	0.457558
H108	H	1.493489	0.073815	0.957558
H109	H	0.977987	-0.510346	0.535324
H110	H	1.477987	-0.010346	1.035324
C111	C	1.016287	-0.287726	0.750695
C112	C	1.516287	0.212274	1.250695
H113	H	1.089116	-0.288009	0.750284
H114	H	1.589116	0.211991	1.250284
H115	H	1.004122	-0.227021	0.738061
H116	H	1.504122	0.272979	1.238061
H117	H	0.988620	-0.311193	0.815811
H118	H	1.488620	0.188807	1.315811
C119	C	1.267287	-0.478018	1.081555
C120	C	1.767287	0.021982	1.581555
H121	H	1.267698	-0.477652	1.154427
H122	H	1.767698	0.022348	1.654427
H123	H	1.200908	-0.469280	1.055858
H124	H	1.700908	0.030720	1.555858
H125	H	1.281273	-0.534942	1.061678
H126	H	1.781273	-0.034942	1.561678
H127	H	1.269664	-0.863537	0.485908
H128	H	1.769664	-0.363537	0.985908
C129	C	1.542211	-1.026769	0.838423
C130	C	2.042211	-0.526769	1.338423
H131	H	1.578665	-0.986352	0.885586
H132	H	2.078665	-0.486352	1.385586
H133	H	1.494530	-1.072751	0.874782
H134	H	1.994530	-0.572751	1.374782
H135	H	1.590497	-1.054305	0.802794
H136	H	2.090497	-0.554305	1.302794
C137	C	1.310604	-0.438196	1.261573
C138	C	1.810604	0.061804	1.761573
H139	H	1.311015	-0.437830	1.334445
H140	H	1.811015	0.062170	1.834445
H141	H	1.244225	-0.429458	1.235876
H142	H	1.744225	0.070542	1.735876
H143	H	1.324590	-0.495120	1.241696
H144	H	1.824590	0.004880	1.741696
H145	H	1.487079	-0.699367	0.767221
H146	H	1.987079	-0.199367	1.267221
H147	H	1.279357	-0.692900	0.498502
H148	H	1.779357	-0.192900	0.998502
H149	H	1.318896	-1.006385	0.549548
H150	H	1.818896	-0.506385	1.049548
H151	H	1.516461	-0.248915	1.247572
H152	H	2.016461	0.251085	1.747572
