data_functionalizedCrystal
_audit_creation_method	'MofGen! by Chris Wilmer'
_symmetry_space_group_name_H-M	'P1'
_symmetry_Int_Tables_number	1
_symmetry_cell_setting	triclinic
loop_
_symmetry_equiv_pos_as_xyz
  x,y,z
_cell_length_a	9.065215
_cell_length_b	22.610064
_cell_length_c	23.532409
_cell_angle_alpha	89.992482
_cell_angle_beta	96.067871
_cell_angle_gamma	89.992169
loop_
_atom_site_label
_atom_site_type_symbol
_atom_site_fract_x
_atom_site_fract_y
_atom_site_fract_z
O1	O	1.956302	-0.049173	-0.083482
O2	O	1.526679	-0.049175	-0.090333
O3	O	1.754444	-0.049175	-0.004071
O4	O	1.728537	-0.049174	-0.169744
O5	O	1.754404	0.049194	-0.004084
O6	O	1.526639	0.049194	-0.090346
O7	O	1.956261	0.049196	-0.083495
Zn8	Zn	1.741443	0.064813	-0.086923
Zn9	Zn	1.741497	-0.064792	-0.086905
O10	O	1.728496	0.049196	-0.169757
C11	C	1.471705	0.000009	-0.089681
C12	C	1.307958	0.000008	-0.087714
N13	N	1.741418	0.153266	-0.086934
C14	C	1.842354	0.561907	-0.048719
C15	C	1.842361	0.623827	-0.048715
O16	O	1.928119	0.655846	-0.016229
N17	N	1.741494	0.654803	-0.086899
C18	C	1.640602	0.623855	-0.125084
O19	O	1.554806	0.655888	-0.157561
C20	C	1.640589	0.561937	-0.125085
C21	C	1.741473	0.530964	-0.086903
C22	C	1.943229	0.530935	-0.010540
C23	C	1.943223	0.469019	-0.010544
C24	C	1.842342	0.438076	-0.048728
C25	C	1.741467	0.469048	-0.086907
C26	C	1.539692	0.530990	-0.163267
C27	C	1.539686	0.469067	-0.163264
C28	C	1.640571	0.438095	-0.125082
C29	C	1.640581	0.376190	-0.125095
N30	N	1.741448	0.345214	-0.086912
C31	C	1.842329	0.376157	-0.048729
C32	C	1.640636	0.753889	-0.125080
C33	C	1.640655	0.815807	-0.125082
C34	C	1.842413	0.815774	-0.048713
C35	C	1.842399	0.753855	-0.048713
C36	C	1.741504	0.722913	-0.086896
C37	C	1.842309	0.246130	-0.048741
C38	C	1.842299	0.184209	-0.048751
C39	C	1.640537	0.184247	-0.125118
C40	C	1.640552	0.246162	-0.125111
C41	C	1.741444	0.277102	-0.086918
O42	O	1.554863	0.344131	-0.157564
O43	O	1.928097	0.344117	-0.016252
C44	C	2.011236	0.000011	-0.084147
C45	C	2.174982	0.000008	-0.086114
C46	C	1.753764	0.000008	0.017143
C47	C	1.751779	0.000004	0.080375
N48	N	1.741531	0.846755	-0.086896
C49	C	1.729177	0.000011	-0.190972
C50	C	1.731162	0.000012	-0.254203
C51	C	1.743359	-0.053620	0.353689
C52	C	1.745203	-0.053620	0.294275
O53	O	1.746226	-0.099221	0.263549
N54	N	1.746093	0.000002	0.264559
C55	C	1.745155	0.053628	0.294261
O56	O	1.746083	0.099237	0.263529
C57	C	1.743322	0.053627	0.353674
C58	C	1.742417	0.000002	0.383386
C59	C	1.742456	-0.107241	0.383401
C60	C	1.740610	-0.107241	0.442811
C61	C	1.739667	-0.053619	0.472508
C62	C	1.740571	0.000002	0.442796
C63	C	1.742395	0.107252	0.383375
C64	C	1.740563	0.107247	0.442792
C65	C	1.739658	0.053621	0.472504
C66	C	1.737782	0.053624	0.531902
N67	N	1.736892	0.000002	0.561618
C68	C	1.737835	-0.053620	0.531921
C69	C	1.749006	0.053625	0.169489
C70	C	1.750828	0.053626	0.110077
C71	C	1.750879	-0.053622	0.110096
C72	C	1.749046	-0.053623	0.169509
C73	C	1.748116	0.000003	0.199205
C74	C	1.733957	-0.053615	0.656685
C75	C	1.732104	-0.053610	0.716100
C76	C	1.732062	0.053638	0.716076
C77	C	1.733906	0.053633	0.656667
C78	C	1.734858	0.000002	0.626973
O79	O	1.736764	0.099201	0.562666
O80	O	1.736926	-0.099222	0.562661
H81	H	1.924463	0.271314	-0.017640
C82	C	1.730743	0.111870	0.748285
C83	C	1.604239	0.144224	0.728103
C84	C	1.602978	0.197866	0.757768
H85	H	1.816975	0.133971	0.742461
H86	H	1.729442	0.104208	0.787925
H87	H	1.605553	0.151888	0.688472
H88	H	1.517987	0.122140	0.733927
H89	H	1.601677	0.190204	0.797408
H90	H	1.689215	0.219962	0.751942
H91	H	1.517140	0.219822	0.744082
H92	H	1.924547	0.728641	-0.017622
C93	C	1.734560	0.111831	0.624352
C94	C	1.608673	0.114961	0.584504
C95	C	1.609225	0.168566	0.554732
H96	H	1.821216	0.114117	0.605019
H97	H	1.733645	0.143788	0.650522
H98	H	1.609601	0.083012	0.558338
H99	H	1.521998	0.112685	0.603821
H100	H	1.608310	0.200523	0.580902
H101	H	1.695886	0.170847	0.535403
H102	H	1.523806	0.170699	0.527696
C103	C	1.430378	0.435398	-0.204753
C104	C	1.508427	0.399841	-0.240031
C105	C	1.407787	0.368813	-0.278253
H106	H	1.370261	0.462648	-0.227545
H107	H	1.369294	0.411209	-0.183954
H108	H	1.569485	0.424028	-0.260828
H109	H	1.568538	0.372581	-0.217255
H110	H	1.346703	0.344624	-0.257454
H111	H	1.347676	0.396066	-0.301041
H112	H	1.460728	0.344680	-0.302190
H113	H	1.558478	0.728699	-0.156178
C114	C	1.429987	0.564500	-0.204746
C115	C	1.341621	0.524136	-0.238168
C116	C	1.240525	0.554982	-0.276381
H117	H	1.482512	0.588657	-0.228795
H118	H	1.368803	0.588641	-0.183943
H119	H	1.402797	0.500005	-0.258969
H120	H	1.289064	0.499978	-0.214134
H121	H	1.179341	0.579124	-0.255578
H122	H	1.293062	0.579138	-0.300426
H123	H	1.180547	0.527600	-0.299059
H124	H	1.731362	-0.097280	0.740289
C125	C	2.052939	0.564416	0.030943
C126	C	2.141287	0.524027	0.064364
C127	C	2.242397	0.554844	0.102578
H128	H	2.000425	0.588576	0.054994
H129	H	2.114134	0.588553	0.010142
H130	H	2.080100	0.499901	0.085164
H131	H	2.193833	0.499866	0.040329
H132	H	2.303592	0.578980	0.081777
H133	H	2.189871	0.579002	0.126624
H134	H	2.302362	0.527445	0.125255
H135	H	1.924456	0.158993	-0.017659
C136	C	1.530962	0.279872	-0.166475
C137	C	1.441140	0.315426	-0.135647
C138	C	1.340172	0.346490	-0.173728
H139	H	1.470737	0.252643	-0.189234
H140	H	1.583634	0.304066	-0.190454
H141	H	1.388472	0.291234	-0.111678
H142	H	1.501324	0.342665	-0.112890
H143	H	1.392844	0.370683	-0.197708
H144	H	1.279957	0.319257	-0.196486
H145	H	1.279225	0.370620	-0.152817
H146	H	1.558405	0.159043	-0.156209
H147	H	1.924553	0.840979	-0.017621
C148	C	2.052288	0.435419	0.031113
C149	C	1.973883	0.399981	0.066373
C150	C	2.074206	0.369064	0.104830
H151	H	2.112172	0.462735	0.053899
H152	H	2.113631	0.411159	0.010493
H153	H	1.912566	0.424239	0.086992
H154	H	1.914005	0.372655	0.043604
H155	H	2.135549	0.344804	0.084209
H156	H	2.134084	0.396384	0.127611
H157	H	2.021023	0.345012	0.128755
H158	H	1.743147	0.150920	0.359194
C159	C	1.734901	-0.111904	0.624551
C160	C	1.733673	-0.158857	0.663296
C161	C	1.734512	-0.212560	0.633714
H162	H	1.821630	-0.114224	0.605265
H163	H	1.649549	-0.114167	0.597492
H164	H	1.819017	-0.156595	0.690345
H165	H	1.646951	-0.156556	0.682584
H166	H	1.649160	-0.214824	0.606655
H167	H	1.821242	-0.214874	0.614429
H168	H	1.733665	-0.244424	0.659997
C169	C	1.739475	0.165533	0.474927
C170	C	1.740623	0.212490	0.436183
C171	C	1.739598	0.266190	0.465762
H172	H	1.824765	0.167848	0.501999
H173	H	1.652686	0.167796	0.494194
H174	H	1.827404	0.210227	0.416925
H175	H	1.655340	0.210195	0.409109
H176	H	1.652808	0.268454	0.485029
H177	H	1.824889	0.268499	0.492833
H178	H	1.740363	0.298057	0.439478
C179	C	1.530897	0.849398	-0.166475
C180	C	1.386083	0.834352	-0.156449
C181	C	1.284925	0.865288	-0.194562
H182	H	1.546155	0.839280	-0.204591
H183	H	1.545237	0.890714	-0.161005
H184	H	1.371748	0.793046	-0.161923
H185	H	1.370777	0.844471	-0.118340
H186	H	1.299266	0.906603	-0.189092
H187	H	1.300197	0.855168	-0.232676
H188	H	1.186658	0.855087	-0.187761
C189	C	1.739449	-0.165511	0.474978
C190	C	1.613022	-0.197881	0.454776
C191	C	1.611934	-0.251571	0.484384
H192	H	1.738154	-0.157930	0.514624
H193	H	1.825765	-0.187560	0.469111
H194	H	1.526728	-0.175837	0.460648
H195	H	1.614289	-0.205478	0.415134
H196	H	1.698249	-0.273620	0.478517
H197	H	1.610643	-0.243984	0.524028
H198	H	1.526162	-0.273543	0.470677
C199	C	1.743141	-0.165432	0.351096
C200	C	1.617234	-0.168542	0.311259
C201	C	1.617767	-0.222145	0.281495
H202	H	1.742235	-0.197398	0.377255
H203	H	1.829814	-0.167713	0.331761
H204	H	1.530584	-0.166267	0.330594
H205	H	1.618114	-0.136589	0.285089
H206	H	1.704440	-0.224425	0.262159
H207	H	1.616865	-0.254106	0.307657
H208	H	1.532349	-0.224259	0.254458
C209	C	1.748256	0.111831	0.201774
C210	C	1.874138	0.114985	0.241620
C211	C	1.873500	0.168597	0.271363
H212	H	1.661597	0.114111	0.221105
H213	H	1.749120	0.143782	0.175587
H214	H	1.873261	0.083042	0.267803
H215	H	1.960817	0.112715	0.222304
H216	H	1.874364	0.200548	0.245176
H217	H	1.786836	0.170872	0.290691
H218	H	1.958915	0.170747	0.298398
H219	H	1.748306	-0.097289	0.193696
H220	H	1.751641	-0.097284	0.085905
H221	H	1.751537	0.097293	0.085889
