data_functionalizedCrystal
_audit_creation_method	'MofGen! by Chris Wilmer'
_symmetry_space_group_name_H-M	'P1'
_symmetry_Int_Tables_number	1
_symmetry_cell_setting	triclinic
loop_
_symmetry_equiv_pos_as_xyz
  x,y,z
_cell_length_a	18.627271
_cell_length_b	18.627235
_cell_length_c	18.627288
_cell_angle_alpha	120.001912
_cell_angle_beta	89.997213
_cell_angle_gamma	60.000222
loop_
_atom_site_label
_atom_site_type_symbol
_atom_site_fract_x
_atom_site_fract_y
_atom_site_fract_z
O1	O	0.492477	0.633246	0.021359
O2	O	0.388086	0.486235	-0.021255
O3	O	0.388069	0.633247	0.125757
O4	O	0.492494	0.486233	-0.125653
O5	O	0.507472	0.513843	0.125753
O6	O	0.507489	0.366831	-0.021259
O7	O	0.611880	0.513842	0.021355
Cu8	Cu	0.570587	0.429434	0.000048
Cu9	Cu	0.429379	0.570643	0.000052
O10	O	0.611897	0.366829	-0.125657
C11	C	0.612977	0.644046	0.031059
C12	C	0.568679	0.593645	0.024958
C13	C	0.569571	0.731055	0.031671
C14	C	0.742976	0.644050	0.031064
C15	C	0.837674	0.593653	0.024967
C16	C	0.699373	0.731059	0.031675
C17	C	0.612974	0.774053	0.031067
C18	C	0.568673	0.862656	0.024975
C19	C	0.699376	0.601249	0.031667
C20	C	0.256980	0.356045	-0.030935
C21	C	0.162281	0.406446	-0.024833
C22	C	0.300581	0.269040	-0.031541
C23	C	0.386983	0.356039	-0.030944
C24	C	0.431285	0.406433	-0.024853
C25	C	0.430387	0.269034	-0.031550
C26	C	0.386981	0.226043	-0.030937
C27	C	0.431280	0.137444	-0.024839
C28	C	0.300583	0.398839	-0.031548
O29	O	1.021290	0.486245	-0.125635
O30	O	0.978665	0.633260	0.125778
O31	O	1.125679	0.486250	-0.021229
O32	O	0.874276	0.633256	0.021372
O33	O	1.125678	0.366844	-0.021237
O34	O	0.978664	0.513855	0.125770
O35	O	1.021289	0.366840	-0.125642
Cu36	Cu	0.999977	0.429444	0.000063
Cu37	Cu	0.999977	0.570655	0.000072
O38	O	0.874275	0.513850	0.021365
C39	C	0.968967	0.774058	0.387084
C40	C	0.975059	0.862663	0.431390
C41	C	0.968365	0.731058	0.430483
C42	C	0.968971	0.644053	0.257076
C43	C	0.975066	0.593657	0.162377
C44	C	0.968369	0.601251	0.300673
C45	C	0.968977	0.644047	0.387073
C46	C	0.975080	0.593644	0.431368
C47	C	0.968359	0.731064	0.300684
C48	C	1.030998	0.356035	-0.256944
C49	C	1.024892	0.406439	-0.162242
C50	C	1.031610	0.398830	-0.300546
C51	C	1.031011	0.226023	-0.386954
C52	C	1.024918	0.137418	-0.431259
C53	C	1.031623	0.269015	-0.430358
C54	C	1.031012	0.356026	-0.386949
C55	C	1.024920	0.406420	-0.431250
C56	C	1.031609	0.269024	-0.300551
O57	O	0.507485	1.104436	-0.021247
O58	O	0.611875	0.895654	0.021370
O59	O	0.611885	0.895626	-0.125643
O60	O	0.507476	1.104465	0.125766
O61	O	0.492478	0.895637	-0.125628
O62	O	0.492468	0.895665	0.021385
O63	O	0.388078	1.104447	-0.021232
Cu64	Cu	0.429370	1.000057	0.000078
Cu65	Cu	0.570583	1.000044	0.000060
O66	O	0.388068	1.104476	0.125781
C67	C	0.613015	0.356036	-0.256955
C68	C	0.568702	0.406432	-0.162257
C69	C	0.699419	0.269029	-0.300559
C70	C	0.613033	0.356042	-0.386953
C71	C	0.568739	0.406443	-0.431249
C72	C	0.699437	0.269034	-0.430360
C73	C	0.743033	0.226036	-0.386958
C74	C	0.837735	0.137435	-0.431260
C75	C	0.569617	0.398837	-0.300554
O76	O	0.874247	0.633184	0.611925
O77	O	1.125647	0.486349	0.507640
O78	O	0.978626	0.633277	0.507591
O79	O	1.021268	0.486256	0.611974
O80	O	0.978736	0.513805	0.388142
O81	O	1.125757	0.366876	0.388191
O82	O	0.874357	0.513712	0.492476
Cu83	Cu	1.000067	0.429386	0.429427
Cu84	Cu	0.999937	0.570675	0.570689
O85	O	1.021379	0.366784	0.492524
O86	O	1.021249	1.104480	0.611995
O87	O	0.978660	0.895668	0.507594
O88	O	1.125659	0.895669	0.507579
O89	O	0.874250	1.104479	0.612010
O90	O	1.125652	0.895669	0.388177
O91	O	0.978653	0.895668	0.388192
O92	O	1.021242	1.104480	0.492593
Cu93	Cu	0.999947	1.000074	0.429490
Cu94	Cu	0.999955	1.000074	0.570697
O95	O	0.874243	1.104479	0.492608
C96	C	0.386941	0.644058	0.387063
C97	C	0.431237	0.593663	0.431364
C98	C	0.300538	0.731067	0.430470
C99	C	0.386955	0.644050	0.257059
C100	C	0.431265	0.593647	0.162358
C101	C	0.300551	0.731060	0.300663
C102	C	0.256940	0.774060	0.387065
C103	C	0.162239	0.862663	0.431368
C104	C	0.430355	0.601255	0.300662
C105	C	0.612995	0.643992	-0.386937
C106	C	0.568695	0.593594	-0.431232
C107	C	0.699398	0.601184	-0.430349
C108	C	0.612990	0.774008	-0.256939
C109	C	0.568685	0.862623	-0.162239
C110	C	0.699394	0.731002	-0.300549
C111	C	0.743000	0.643983	-0.386950
C112	C	0.837702	0.593575	-0.431258
C113	C	0.569586	0.731011	-0.300536
O114	O	0.388147	0.633256	-0.492436
O115	O	0.492530	0.486247	-0.388048
O116	O	0.492527	0.633261	-0.388022
O117	O	0.388150	0.486242	-0.492462
O118	O	0.611946	0.513858	-0.507425
O119	O	0.611949	0.366844	-0.507451
O120	O	0.507566	0.513854	-0.611839
Cu121	Cu	0.570661	0.429446	-0.570548
Cu122	Cu	0.429435	0.570654	-0.429340
O123	O	0.507568	0.366840	-0.611865
C124	C	0.256955	1.356119	0.387089
C125	C	0.162253	1.406527	0.431397
C126	C	0.300557	1.398917	0.430487
C127	C	0.386964	1.226094	0.257077
C128	C	0.431268	1.137479	0.162377
C129	C	0.430369	1.269090	0.300673
C130	C	0.386960	1.356109	0.387075
C131	C	0.431262	1.406506	0.431368
C132	C	0.300560	1.269100	0.300687
H133	H	0.734383	0.767036	0.032649
C134	C	0.473670	0.779664	0.032988
N135	N	0.401441	0.816274	0.033978
H136	H	0.265576	0.468847	-0.032530
H137	H	1.032580	0.233048	-0.265540
H138	H	0.967402	0.531230	0.265656
H139	H	0.501377	0.233053	-0.032530
H140	H	0.734381	0.531232	0.032636
H141	H	0.265573	0.233058	-0.032521
H142	H	0.967379	0.767050	0.501477
C143	C	1.032925	0.493417	-0.253249
N144	N	1.033914	0.564659	-0.217627
H145	H	0.734396	0.766990	-0.265543
C146	C	0.253260	1.493517	0.526391
N147	N	0.217636	1.564769	0.598622
C148	C	0.746693	0.506590	-0.526255
N149	N	0.782315	0.435343	-0.598489
C150	C	0.253266	1.220491	0.253402
N151	N	0.217647	1.183879	0.217786
C152	C	0.253265	0.779666	0.253370
N153	N	0.217648	0.816275	0.217751
C154	C	0.526275	1.220466	0.253372
N155	N	0.598510	1.183845	0.217748
C156	C	0.526263	0.506673	0.253370
N157	N	0.598500	0.435438	0.217751
C158	C	0.967030	0.779684	0.253400
N159	N	0.966026	0.816304	0.217786
C160	C	0.473708	0.493419	-0.253261
N161	N	0.401472	0.564655	-0.217643
C162	C	0.746859	0.220656	-0.526149
N163	N	0.782618	0.184301	-0.598255
C164	C	0.746705	0.220418	-0.253269
N165	N	0.782323	0.183808	-0.217650
H166	H	0.265528	0.767053	0.501463
H167	H	0.498616	0.766954	-0.265504
H168	H	1.032616	0.233017	-0.501354
