data_functionalizedCrystal
_audit_creation_method	'MofGen! by Chris Wilmer'
_symmetry_space_group_name_H-M	'P1'
_symmetry_Int_Tables_number	1
_symmetry_cell_setting	triclinic
loop_
_symmetry_equiv_pos_as_xyz
  x,y,z
_cell_length_a	14.519709
_cell_length_b	15.995350
_cell_length_c	13.596369
_cell_angle_alpha	89.996243
_cell_angle_beta	90.000291
_cell_angle_gamma	83.586260
loop_
_atom_site_label
_atom_site_type_symbol
_atom_site_fract_x
_atom_site_fract_y
_atom_site_fract_z
O1	O	1.223669	0.109760	-0.081658
O2	O	0.955169	0.122685	-0.081688
O3	O	1.096759	-0.005654	-0.081671
O4	O	1.082079	0.238099	-0.081675
O5	O	1.096744	-0.005661	0.081912
O6	O	0.955155	0.122679	0.081895
O7	O	1.223655	0.109753	0.081925
Zn8	Zn	1.089403	0.116215	0.107882
Zn9	Zn	1.089421	0.116224	-0.107645
O10	O	1.082065	0.238093	0.081908
C11	C	0.920803	0.122080	0.000100
C12	C	0.818425	0.120275	0.000088
C13	C	0.443541	0.113629	0.000133
C14	C	0.547846	0.115475	0.000120
C15	C	0.630980	0.116952	0.000110
C16	C	0.735291	0.118797	0.000099
C17	C	1.096145	-0.036853	0.000118
C18	C	1.094325	-0.129806	0.000112
C19	C	1.087791	-0.467563	0.000115
C20	C	0.986954	-0.420280	-0.000263
C21	C	0.988773	-0.323587	0.000106
C22	C	1.091032	-0.299998	0.000113
C23	C	1.140761	-0.341005	0.093531
C24	C	1.138228	-0.437644	0.093609
C25	C	1.140327	-0.437992	-0.092415
C26	C	1.140303	-0.341046	-0.093650
C27	C	1.092869	-0.205298	0.000115
C28	C	1.085957	-0.562264	0.000119
C29	C	1.258021	0.110359	0.000135
C30	C	1.360399	0.112164	0.000140
C31	C	1.082679	0.269292	0.000116
C32	C	1.084498	0.362245	0.000116
N33	N	1.089397	0.116208	0.254974
N34	N	1.089434	0.116224	-0.254737
C35	C	1.089420	0.116225	0.656265
C36	C	1.089411	0.116223	0.544614
C37	C	1.089409	0.116217	0.455623
C38	C	1.089399	0.116214	0.343965
H39	H	0.949683	-0.295221	-0.066860
H40	H	1.106210	-0.312678	0.163044
H41	H	0.946656	-0.438870	-0.067255
H42	H	1.107364	-0.458578	-0.163220
N43	N	0.939414	-0.288701	0.084258
N44	N	0.979965	-0.248810	0.146867
H45	H	0.945105	-0.224171	0.206304
N46	N	1.233593	-0.477697	-0.093228
N47	N	1.287325	-0.462528	-0.161141
H48	H	1.353191	-0.490573	-0.161710
H49	H	0.946823	-0.439937	0.066347
N50	N	1.092721	-0.460668	0.181206
N51	N	1.063049	-0.405389	0.241857
H52	H	1.030907	-0.421645	0.303725
N53	N	1.231102	-0.477954	0.098946
N54	N	1.297582	-0.434686	0.102608
H55	H	1.363174	-0.463150	0.106384
N56	N	1.235007	-0.323144	0.097886
N57	N	1.266649	-0.279888	0.032032
H58	H	1.333210	-0.267272	0.035105
H59	H	1.103945	-0.313849	-0.162758
N60	N	1.233852	-0.321629	-0.100703
N61	N	1.290334	-0.343436	-0.033609
H62	H	1.356406	-0.329720	-0.038581
