data_functionalizedCrystal
_audit_creation_method	'MofGen! by Chris Wilmer'
_symmetry_space_group_name_H-M	'P1'
_symmetry_Int_Tables_number	1
_symmetry_cell_setting	triclinic
loop_
_symmetry_equiv_pos_as_xyz
  x,y,z
_cell_length_a	12.837939
_cell_length_b	9.130307
_cell_length_c	12.811415
_cell_angle_alpha	95.434161
_cell_angle_beta	90.588266
_cell_angle_gamma	89.999195
loop_
_atom_site_label
_atom_site_type_symbol
_atom_site_fract_x
_atom_site_fract_y
_atom_site_fract_z
O1	O	-1.376627	0.158037	0.272971
O2	O	-0.876627	0.658037	0.772971
O3	O	-1.074763	0.156253	0.259488
O4	O	-0.574763	0.656253	0.759488
O5	O	-1.233290	0.136945	0.114197
O6	O	-0.733290	0.636945	0.614197
O7	O	-1.218101	0.177345	0.418262
O8	O	-0.718101	0.677345	0.918262
O9	O	-1.233284	-0.106655	0.114195
O10	O	-0.733284	0.393345	0.614195
O11	O	-1.074758	-0.087347	0.259486
O12	O	-0.574758	0.412653	0.759486
O13	O	-1.376622	-0.085562	0.272969
O14	O	-0.876622	0.414438	0.772969
Cu15	Cu	-1.225689	-0.108697	0.266227
Cu16	Cu	-0.725689	0.391303	0.766227
Cu17	Cu	-1.225696	0.179387	0.266230
Cu18	Cu	-0.725696	0.679387	0.766230
O19	O	-1.218095	-0.066254	0.418260
O20	O	-0.718095	0.433746	0.918260
C21	C	-1.036120	0.033849	0.254931
C22	C	-0.536120	0.533849	0.754931
C23	C	-0.920985	0.032046	0.241346
C24	C	-0.420985	0.532046	0.741346
N25	N	-1.225693	-0.311320	0.266226
N26	N	-0.725693	0.188680	0.766226
C27	C	-0.680731	0.053725	0.404676
C28	C	-0.180731	0.553725	0.904676
C29	C	-0.572550	0.052031	0.391916
C30	C	-0.072550	0.552031	0.891916
C31	C	-0.596440	0.026955	0.203066
C32	C	-0.096440	0.526955	0.703066
C33	C	-0.704621	0.028648	0.215826
C34	C	-0.204621	0.528648	0.715826
C35	C	-0.746762	0.042036	0.316634
C36	C	-0.246762	0.542036	0.816634
C37	C	-0.854945	0.043740	0.329394
C38	C	-0.354945	0.543740	0.829394
C39	C	-0.878833	0.018654	0.140544
C40	C	-0.378833	0.518654	0.640544
C41	C	-0.770652	0.016960	0.127784
C42	C	-0.270652	0.516960	0.627784
C43	C	-1.366125	-0.328401	0.137617
C44	C	-0.866125	0.171599	0.637617
C45	C	-1.436348	-0.413608	0.073317
C46	C	-0.936348	0.086392	0.573317
C47	C	-1.436359	-0.566941	0.073317
C48	C	-0.936359	-0.066941	0.573317
C49	C	-1.366136	-0.635071	0.137623
C50	C	-0.866136	-0.135071	0.637623
C51	C	-1.295913	-0.549864	0.201923
C52	C	-0.795913	-0.049864	0.701923
C53	C	-1.295913	-0.396528	0.201918
C54	C	-0.795913	0.103472	0.701918
C55	C	-1.155477	-0.532784	0.330524
C56	C	-0.655477	-0.032784	0.830524
C57	C	-1.155470	-0.379450	0.330531
C58	C	-0.655470	0.120550	0.830531
C59	C	-1.085255	-0.600914	0.394830
C60	C	-0.585255	-0.100914	0.894830
C61	C	-1.015035	-0.515706	0.459137
C62	C	-0.515035	-0.015706	0.959137
C63	C	-1.015028	-0.362363	0.459135
C64	C	-0.515028	0.137637	0.959135
C65	C	-1.085247	-0.294243	0.394832
C66	C	-0.585247	0.205757	0.894832
C67	C	-0.415265	0.036843	0.277526
C68	C	0.084735	0.536843	0.777526
C69	C	-0.530400	0.038649	0.291114
C70	C	-0.030400	0.538649	0.791114
C71	C	-1.232436	0.009941	0.075006
C72	C	-0.732436	0.509941	0.575006
C73	C	-1.229887	-0.005565	-0.041767
C74	C	-0.729887	0.494435	0.458233
N75	N	-1.225701	0.382009	0.266224
N76	N	-0.725701	0.882009	0.766224
C77	C	-1.225085	0.230900	-0.261184
C78	C	-0.725085	0.730900	0.238816
C79	C	-1.222691	0.216338	-0.370902
C80	C	-0.722691	0.716338	0.129098
C81	C	-1.222696	-0.049250	-0.370924
C82	C	-0.722696	0.450750	0.129076
C83	C	-1.225091	-0.034687	-0.261206
C84	C	-0.725091	0.465313	0.238794
C85	C	-1.226287	0.105392	-0.206339
C86	C	-0.726287	0.605392	0.293661
C87	C	-1.228689	0.119953	-0.096619
C88	C	-0.728689	0.619953	0.403381
C89	C	-1.228687	-0.145634	-0.096643
C90	C	-0.728687	0.354366	0.403357
C91	C	-1.226292	-0.160196	-0.206361
C92	C	-0.726292	0.339804	0.293639
C93	C	-1.218949	0.060753	0.457451
C94	C	-0.718949	0.560753	0.957451
C95	C	-1.221498	0.076268	0.574224
C96	C	-0.721498	0.576268	1.074224
H97	H	-0.889254	0.054639	0.411477
H98	H	-0.389254	0.554639	0.911477
H99	H	-0.932608	0.009146	0.068854
H100	H	-0.432608	0.509146	0.568854
F101	F	-1.225011	-0.309270	-0.264765
F102	F	-0.725011	0.190730	0.235235
H103	H	-1.229669	-0.247832	-0.051977
H104	H	-0.729669	0.252168	0.448023
F105	F	-1.511093	-0.657626	0.004876
F106	F	-1.011093	-0.157626	0.504876
H107	H	-1.221709	0.318541	-0.415552
H108	H	-0.721709	0.818541	0.084448
F109	F	-1.085261	-0.764106	0.394825
F110	F	-0.585261	-0.264106	0.894825
H111	H	-1.085252	-0.169391	0.394828
H112	H	-0.585252	0.330609	0.894828
F113	F	-0.940302	-0.588222	0.527562
F114	F	-0.440302	-0.088222	1.027562
H115	H	-1.366133	-0.203548	0.137620
H116	H	-0.866133	0.296452	0.637620
F117	F	-0.725583	0.067991	0.511962
F118	F	-0.225583	0.567991	1.011962
F119	F	-0.725791	0.002708	0.020502
F120	F	-0.225791	0.502708	0.520502
F121	F	-1.511078	-0.341093	0.004877
F122	F	-1.011078	0.158907	0.504877
F123	F	-0.940280	-0.271692	0.527569
F124	F	-0.440280	0.228308	1.027569
F125	F	-1.366138	-0.798264	0.137608
F126	F	-0.866138	-0.298264	0.637608
H127	H	-0.518790	0.061545	0.463609
H128	H	-0.018790	0.561545	0.963609
H129	H	-1.229666	0.234013	-0.051948
H130	H	-0.729666	0.734013	0.448052
H131	H	-0.562109	0.015934	0.120992
H132	H	-0.062109	0.515934	0.620992
H133	H	-1.226068	0.344959	-0.216511
H134	H	-0.726068	0.844959	0.283489
H135	H	-1.221714	-0.163296	-0.415615
H136	H	-0.721714	0.336704	0.084385
