data_functionalizedCrystal
_audit_creation_method	'MofGen! by Chris Wilmer'
_symmetry_space_group_name_H-M	'P1'
_symmetry_Int_Tables_number	1
_symmetry_cell_setting	triclinic
loop_
_symmetry_equiv_pos_as_xyz
  x,y,z
_cell_length_a	10.654545
_cell_length_b	10.654550
_cell_length_c	9.730223
_cell_angle_alpha	89.998521
_cell_angle_beta	89.997167
_cell_angle_gamma	84.484004
loop_
_atom_site_label
_atom_site_type_symbol
_atom_site_fract_x
_atom_site_fract_y
_atom_site_fract_z
O1	O	1.667842	0.176372	-0.114266
O2	O	1.302363	0.193184	-0.114271
O3	O	1.493506	0.002038	-0.114270
O4	O	1.476700	0.367517	-0.114268
O5	O	1.493493	0.002033	0.114310
O6	O	1.302351	0.193178	0.114309
O7	O	1.667830	0.176366	0.114313
Zn8	Zn	1.485088	0.184771	0.150603
Zn9	Zn	1.485105	0.184778	-0.150561
O10	O	1.476687	0.367512	0.114312
C11	C	1.255559	0.191948	0.000018
C12	C	1.116115	0.188258	0.000016
C13	C	1.492266	-0.044762	0.000017
C14	C	1.488574	-0.184206	0.000007
C15	C	1.483364	-0.380743	-0.124581
C16	C	1.486845	-0.249723	-0.124590
C17	C	1.486833	-0.249717	0.124621
C18	C	1.483360	-0.380736	0.124628
C19	C	1.050604	0.186518	0.124615
C20	C	0.919585	0.183031	0.124615
C21	C	0.919599	0.183028	-0.124595
C22	C	1.050617	0.186507	-0.124594
C23	C	1.714634	0.177602	0.000021
C24	C	1.854078	0.181292	0.000014
C25	C	1.477927	0.414312	0.000022
C26	C	1.481619	0.553755	0.000023
N27	N	1.485086	0.184766	0.356139
N28	N	1.485117	0.184774	-0.356097
C29	C	1.569753	0.100163	0.428066
C30	C	1.569766	0.100163	0.571949
C31	C	1.400440	0.269381	0.571966
C32	C	1.400423	0.269374	0.428086
H33	H	1.481945	-0.434076	-0.226043
F34	F	1.659857	0.010113	0.351501
F35	F	0.849868	0.181180	0.257232
H36	H	1.638708	0.031270	0.630508
H37	H	1.488248	-0.196363	0.226070
H38	H	1.481944	-0.434069	0.226101
H39	H	1.103929	0.187944	0.226080
H40	H	1.331511	0.338269	0.630559
F41	F	0.849883	0.181139	-0.257205
H42	H	1.103958	0.187920	-0.226064
H43	H	1.488267	-0.196398	-0.226055
F44	F	1.310299	0.359419	0.351530
