data_functionalizedCrystal
_audit_creation_method	'MofGen! by Chris Wilmer'
_symmetry_space_group_name_H-M	'P1'
_symmetry_Int_Tables_number	1
_symmetry_cell_setting	triclinic
loop_
_symmetry_equiv_pos_as_xyz
  x,y,z
_cell_length_a	19.805407
_cell_length_b	15.297327
_cell_length_c	19.805398
_cell_angle_alpha	80.352693
_cell_angle_beta	90.013121
_cell_angle_gamma	99.707092
loop_
_atom_site_label
_atom_site_type_symbol
_atom_site_fract_x
_atom_site_fract_y
_atom_site_fract_z
Zn1	Zn	0.988051	-0.359179	0.429335
Zn2	Zn	1.488051	0.140821	0.929335
Zn3	Zn	0.968387	-0.510050	0.335727
Zn4	Zn	1.468387	-0.010050	0.835727
Zn5	Zn	0.874875	-0.359207	0.316163
Zn6	Zn	1.374875	0.140793	0.816163
Zn7	Zn	0.855244	-0.510000	0.448867
Zn8	Zn	1.355244	-0.010000	0.948867
O9	O	0.921639	-0.434609	0.382523
O10	O	1.421639	0.065391	0.882523
O11	O	1.080158	-0.379202	0.416931
O12	O	1.580158	0.120798	0.916931
O13	O	0.955968	-0.490073	0.238420
O14	O	1.455968	0.009927	0.738420
O15	O	0.906333	-0.232955	0.314814
O16	O	1.406333	0.267045	0.814814
O17	O	1.065710	-0.490047	0.348158
O18	O	1.565710	0.009953	0.848158
O19	O	0.989483	-0.232935	0.397960
O20	O	1.489483	0.267065	0.897960
O21	O	0.887265	-0.379249	0.224046
O22	O	1.387265	0.120751	0.724046
O23	O	0.777555	-0.379200	0.333753
O24	O	1.277555	0.120800	0.833753
O25	O	0.872875	-0.489960	0.540989
O26	O	1.372875	0.010040	1.040989
O27	O	0.763133	-0.489987	0.431251
O28	O	1.263133	0.010013	0.931251
O29	O	0.970448	-0.379153	0.526638
O30	O	1.470448	0.120847	1.026638
O31	O	0.936933	-0.636291	0.367097
O32	O	1.436933	-0.136291	0.867097
O33	O	0.853807	-0.636254	0.450221
O34	O	1.353807	-0.136254	0.950221
C35	C	0.745785	-0.434592	0.382499
C36	C	1.245785	0.065408	0.882499
C37	C	0.670551	-0.434606	0.382508
C38	C	1.170551	0.065394	0.882508
C39	C	0.627704	-0.492380	0.433216
C40	C	1.127704	0.007620	0.933216
C41	C	0.557015	-0.492381	0.433225
C42	C	1.057015	0.007619	0.933225
C43	C	0.529175	-0.434613	0.382524
C44	C	1.029175	0.065387	0.882524
C45	C	0.572028	-0.376833	0.331813
C46	C	1.072028	0.123167	0.831813
C47	C	0.642716	-0.376828	0.331807
C48	C	1.142716	0.123172	0.831807
C49	C	0.286952	-0.376853	0.331838
C50	C	0.786952	0.123147	0.831838
C51	C	0.216259	-0.376865	0.331847
C52	C	0.716259	0.123135	0.831847
C53	C	0.201251	-0.492407	0.433257
C54	C	0.701251	0.007593	0.933257
C55	C	0.271939	-0.492401	0.433250
C56	C	0.771939	0.007599	0.933250
C57	C	0.314787	-0.434618	0.382542
C58	C	0.814787	0.065382	0.882542
C59	C	0.391435	-0.434616	0.382533
C60	C	0.891435	0.065384	0.882533
C61	C	0.452527	-0.434619	0.382529
C62	C	0.952527	0.065381	0.882529
C63	C	0.891125	-0.669007	0.412916
C64	C	1.391125	-0.169007	0.912916
C65	C	0.878132	-0.769284	0.425942
C66	C	1.378132	-0.269284	0.925942
C67	C	1.014776	-1.051899	0.289662
C68	C	1.514776	-0.551899	0.789662
C69	C	1.026982	-0.957684	0.277421
C70	C	1.526982	-0.457684	0.777421
C71	C	0.989771	-0.910580	0.314550
C72	C	1.489771	-0.410580	0.814550
C73	C	0.940351	-0.957699	0.363922
C74	C	1.440351	-0.457699	0.863922
C75	C	0.928139	-1.051923	0.376161
C76	C	1.428139	-0.551923	0.876161
C77	C	0.903135	-0.910604	0.401049
C78	C	1.403135	-0.410604	0.901049
C79	C	0.853714	-0.957723	0.450421
C80	C	1.353714	-0.457723	0.950421
C81	C	0.841505	-1.051938	0.462658
C82	C	1.341505	-0.551938	0.962658
C83	C	0.878717	-1.099043	0.425529
C84	C	1.378717	-0.599043	0.925529
C85	C	0.915346	-0.816379	0.388810
C86	C	1.415346	-0.316379	0.888810
C87	C	0.828710	-0.816403	0.475309
C88	C	1.328710	-0.316403	0.975309
C89	C	0.816503	-0.910618	0.487550
C90	C	1.316503	-0.410618	0.987550
C91	C	1.098179	-0.434627	0.382548
C92	C	1.598179	0.065373	0.882548
C93	C	1.173410	-0.434635	0.382558
C94	C	1.673410	0.065365	0.882558
C95	C	0.921665	-0.434548	0.559058
C96	C	1.421665	0.065452	1.059058
C97	C	0.921676	-0.434522	0.634287
C98	C	1.421676	0.065478	1.134287
C99	C	0.952291	-0.199295	0.352026
C100	C	1.452291	0.300705	0.852026
C101	C	0.965353	-0.099019	0.339030
C102	C	1.465353	0.400981	0.839030
C103	C	0.921660	-0.434605	0.206667
C104	C	1.421660	0.065395	0.706667
C105	C	0.921814	-0.434377	0.131405
C106	C	1.421814	0.065623	0.631405
C107	C	0.957575	-0.492085	1.103541
C108	C	1.457575	0.007915	1.603541
C109	C	0.957553	-0.492109	1.032856
C110	C	1.457553	0.007891	1.532856
C111	C	0.921773	-0.434420	0.990035
C112	C	1.421773	0.065580	1.490035
C113	C	0.886007	-0.376709	1.017904
C114	C	1.386007	0.123291	1.517904
C115	C	0.886026	-0.376690	1.088589
C116	C	1.386026	0.123310	1.588589
C117	C	0.885932	-0.376787	0.732841
C118	C	1.385932	0.123213	1.232841
C119	C	0.885918	-0.376809	0.662151
C120	C	1.385918	0.123191	1.162151
C121	C	0.957459	-0.492206	0.677108
C122	C	1.457459	0.007794	1.177108
C123	C	0.957478	-0.492186	0.747792
C124	C	1.457478	0.007814	1.247792
C125	C	0.921709	-0.434479	0.775656
C126	C	1.421709	0.065521	1.275656
C127	C	0.921732	-0.434455	0.852301
C128	C	1.421732	0.065545	1.352301
C129	C	0.921754	-0.434440	0.913391
C130	C	1.421754	0.065560	1.413391
H131	H	0.166356	-0.539453	0.474548
H132	H	0.666356	-0.039453	0.974548
H133	H	0.856906	-0.329697	1.111274
H134	H	1.356906	0.170303	1.611274
H135	H	0.321830	-0.329809	0.290544
H136	H	0.821830	0.170191	0.790544
Cl137	Cl	0.181261	-0.304235	0.268104
Cl138	Cl	0.681261	0.195765	0.768104
Cl139	Cl	0.841038	-0.304173	0.964071
Cl140	Cl	1.341038	0.195827	1.464071
H141	H	0.522131	-0.539427	0.474516
H142	H	1.022131	-0.039427	0.974516
Cl143	Cl	1.002424	-0.564756	0.642076
Cl144	Cl	1.502424	-0.064756	1.142076
Cl145	Cl	0.696582	-0.304192	0.268058
Cl146	Cl	1.196582	0.195808	0.768058
Cl147	Cl	0.779374	-1.111172	0.524723
Cl148	Cl	1.279374	-0.611172	1.024723
H149	H	0.955584	-0.778023	0.348611
H150	H	1.455584	-0.278023	0.848611
Cl151	Cl	1.002514	-0.564658	0.997830
Cl152	Cl	1.502514	-0.064658	1.497830
Cl153	Cl	0.754377	-0.969865	0.549616
Cl154	Cl	1.254377	-0.469865	1.049616
Cl155	Cl	0.840930	-0.304281	0.767865
Cl156	Cl	1.340930	0.195719	1.267865
H157	H	0.650365	-0.539424	0.474501
H158	H	1.150365	-0.039424	0.974501
H159	H	0.856780	-0.329829	0.627288
H160	H	1.356780	0.170171	1.127288
H161	H	0.549356	-0.329793	0.290533
H162	H	1.049356	0.170207	0.790533
Cl163	Cl	1.089114	-0.898455	0.215362
Cl164	Cl	1.589114	-0.398455	0.715362
Cl165	Cl	0.306934	-0.565030	0.496990
Cl166	Cl	0.806934	-0.065030	0.996990
Cl167	Cl	1.005303	-0.792137	0.299346
Cl168	Cl	1.505303	-0.292137	0.799346
Cl169	Cl	1.061547	-1.111120	0.242990
Cl170	Cl	1.561547	-0.611120	0.742990
H171	H	0.868782	-1.175760	0.435494
H172	H	1.368782	-0.675760	0.935494
Cl173	Cl	0.781923	-0.757193	0.521985
Cl174	Cl	1.281923	-0.257193	1.021985
Cl175	Cl	1.002461	-0.564712	0.801620
Cl176	Cl	1.502461	-0.064712	1.301620
Cl177	Cl	1.002563	-0.564607	1.157366
Cl178	Cl	1.502563	-0.064607	1.657366
