data_functionalizedCrystal
_audit_creation_method	'MofGen! by Chris Wilmer'
_symmetry_space_group_name_H-M	'P1'
_symmetry_Int_Tables_number	1
_symmetry_cell_setting	triclinic
loop_
_symmetry_equiv_pos_as_xyz
  x,y,z
_cell_length_a	18.215407
_cell_length_b	12.594516
_cell_length_c	18.215399
_cell_angle_alpha	89.977894
_cell_angle_beta	89.980167
_cell_angle_gamma	90.016501
loop_
_atom_site_label
_atom_site_type_symbol
_atom_site_fract_x
_atom_site_fract_y
_atom_site_fract_z
Zn1	Zn	1.125117	-0.423740	-0.416146
Zn2	Zn	1.458450	-0.090407	-0.082812
Zn3	Zn	1.791784	0.242926	0.250521
Zn4	Zn	1.125045	-0.601738	-0.293092
Zn5	Zn	1.458378	-0.268404	0.040241
Zn6	Zn	1.791711	0.064929	0.373575
Zn7	Zn	1.002050	-0.423775	-0.293093
Zn8	Zn	1.335383	-0.090442	0.040240
Zn9	Zn	1.668716	0.242892	0.373574
Zn10	Zn	1.002035	-0.601679	-0.416117
Zn11	Zn	1.335368	-0.268345	-0.082784
Zn12	Zn	1.668701	0.064988	0.250550
O13	O	1.063561	-0.512733	-0.354612
O14	O	1.396895	-0.179400	-0.021279
O15	O	1.730228	0.153934	0.312055
O16	O	1.228092	-0.447362	-0.399834
O17	O	1.561425	-0.114029	-0.066501
O18	O	1.894758	0.219304	0.266833
O19	O	1.108705	-0.578170	-0.190108
O20	O	1.442038	-0.244837	0.143225
O21	O	1.775372	0.088497	0.476559
O22	O	1.018412	-0.274825	-0.309429
O23	O	1.351745	0.058509	0.023904
O24	O	1.685078	0.391842	0.357238
O25	O	1.228038	-0.578136	-0.309427
O26	O	1.561372	-0.244803	0.023906
O27	O	1.894705	0.088530	0.357240
O28	O	1.108829	-0.274799	-0.399835
O29	O	1.442162	0.058534	-0.066502
O30	O	1.775495	0.391868	0.266832
O31	O	1.018341	-0.447422	-0.190109
O32	O	1.351675	-0.114088	0.143225
O33	O	1.685008	0.219245	0.476558
O34	O	0.899063	-0.447364	-0.309401
O35	O	1.232397	-0.114031	0.023932
O36	O	1.565730	0.219302	0.357266
O37	O	1.018386	-0.578035	-0.519105
O38	O	1.351719	-0.244702	-0.185772
O39	O	1.685052	0.088631	0.147562
O40	O	0.899052	-0.578069	-0.399786
O41	O	1.232386	-0.244736	-0.066453
O42	O	1.565719	0.088598	0.266881
O43	O	1.108814	-0.447305	-0.519126
O44	O	1.442147	-0.113971	-0.185793
O45	O	1.775481	0.219362	0.147540
O46	O	1.108690	-0.750676	-0.309399
O47	O	1.442024	-0.417342	0.023934
O48	O	1.775357	-0.084009	0.357268
O49	O	1.018315	-0.750632	-0.399785
O50	O	1.351649	-0.417299	-0.066452
O51	O	1.684982	-0.083966	0.266882
C52	C	0.872355	-0.512715	-0.354591
C53	C	1.205689	-0.179381	-0.021258
C54	C	1.539022	0.153952	0.312076
C55	C	0.790556	-0.512733	-0.354599
C56	C	1.123890	-0.179399	-0.021266
C57	C	1.457223	0.153934	0.312067
C58	C	1.063513	-0.789274	-0.354605
C59	C	1.396847	-0.455941	-0.021271
C60	C	1.730180	-0.122607	0.312062
C61	C	1.063560	-0.907579	-0.354626
C62	C	1.396893	-0.574246	-0.021293
C63	C	1.730227	-0.240913	0.312040
C64	C	0.602376	-0.580898	-0.401604
C65	C	0.935709	-0.247564	-0.068270
C66	C	1.269043	0.085769	0.265063
C67	C	0.525517	-0.580901	-0.401613
C68	C	0.858850	-0.247568	-0.068280
C69	C	1.192184	0.085766	0.265054
C70	C	0.525499	-0.444588	-0.307636
C71	C	0.858832	-0.111254	0.025697
C72	C	1.192166	0.222079	0.359030
C73	C	0.602356	-0.444580	-0.307631
C74	C	0.935690	-0.111246	0.025702
C75	C	1.269023	0.222087	0.359035
C76	C	0.640793	-0.512741	-0.354614
C77	C	0.974126	-0.179407	-0.021281
C78	C	1.307459	0.153926	0.312053
C79	C	0.487077	-0.512752	-0.354628
C80	C	0.820410	-0.179419	-0.021295
C81	C	1.153743	0.153915	0.312039
C82	C	0.403743	-0.512755	-0.354638
C83	C	0.737076	-0.179422	-0.021304
C84	C	1.070410	0.153912	0.312029
C85	C	0.724132	-0.512737	-0.354606
C86	C	1.057465	-0.179403	-0.021272
C87	C	1.390798	0.153930	0.312061
C88	C	1.014400	-0.976847	-0.403753
C89	C	1.347734	-0.643514	-0.070419
C90	C	1.681067	-0.310181	0.262914
C91	C	0.996471	-1.047706	-0.336600
C92	C	1.329804	-0.714373	-0.003266
C93	C	1.663138	-0.381039	0.330067
C94	C	1.081556	-1.047520	-0.421791
C95	C	1.414890	-0.714186	-0.088457
C96	C	1.748223	-0.380853	0.244876
C97	C	1.045595	-0.976880	-0.287438
C98	C	1.378928	-0.643546	0.045896
C99	C	1.712262	-0.310213	0.379229
C100	C	1.130712	-0.976687	-0.372674
C101	C	1.464045	-0.643354	-0.039341
C102	C	1.797378	-0.310020	0.293993
C103	C	1.112808	-1.047514	-0.305475
C104	C	1.446141	-0.714180	0.027858
C105	C	1.779475	-0.380847	0.361192
C106	C	1.255514	-0.512752	-0.354634
C107	C	1.588848	-0.179419	-0.021300
C108	C	1.922181	0.153915	0.312033
C109	C	1.337313	-0.512760	-0.354643
C110	C	1.670647	-0.179427	-0.021309
C111	C	2.003980	0.153907	0.312024
C112	C	1.063606	-0.512660	-0.546565
C113	C	1.396940	-0.179326	-0.213232
C114	C	1.730273	0.154007	0.120102
C115	C	1.063625	-0.512628	-0.628364
C116	C	1.396959	-0.179295	-0.295031
C117	C	1.730292	0.154038	0.038303
C118	C	1.063630	-0.235112	-0.354635
C119	C	1.396963	0.098221	-0.021302
C120	C	1.730297	0.431555	0.312031
C121	C	1.063659	-0.116807	-0.354645
C122	C	1.396992	0.216527	-0.021312
C123	C	1.730326	0.549860	0.312021
C124	C	1.110728	-0.444493	-0.816570
C125	C	1.444062	-0.111160	-0.483237
C126	C	1.777395	0.222173	-0.149903
C127	C	1.110737	-0.444462	-0.893429
C128	C	1.444070	-0.111129	-0.560096
C129	C	1.777404	0.222204	-0.226762
C130	C	1.016575	-0.580599	-0.893396
C131	C	1.349908	-0.247265	-0.560062
C132	C	1.683241	0.086068	-0.226729
C133	C	1.016563	-0.580624	-0.816538
C134	C	1.349896	-0.247290	-0.483205
C135	C	1.683229	0.086043	-0.149872
C136	C	1.063644	-0.512572	-0.778127
C137	C	1.396977	-0.179239	-0.444794
C138	C	1.730310	0.154094	-0.111461
C139	C	1.063664	-0.512517	-0.931844
C140	C	1.396998	-0.179183	-0.598510
C141	C	1.730331	0.154150	-0.265177
C142	C	1.063674	-0.512483	-1.015177
C143	C	1.397007	-0.179150	-0.681844
C144	C	1.730340	0.154183	-0.348511
C145	C	1.063634	-0.512604	-0.694788
C146	C	1.396967	-0.179271	-0.361455
C147	C	1.730300	0.154063	-0.028122
C148	C	1.063559	-0.512729	-0.163406
C149	C	1.396892	-0.179396	0.169928
C150	C	1.730226	0.153937	0.503261
C151	C	1.063683	-0.512461	-0.081607
C152	C	1.397016	-0.179127	0.251726
C153	C	1.730349	0.154206	0.585059
H154	H	0.633668	-0.636396	-0.439862
H155	H	0.967002	-0.303063	-0.106529
H156	H	1.300335	0.030271	0.226805
Br157	Br	0.952685	-0.672953	-0.945529
Br158	Br	1.286018	-0.339620	-0.612196
Br159	Br	1.619351	-0.006286	-0.278862
H160	H	1.154423	-1.078347	-0.263891
H161	H	1.487756	-0.745014	0.069443
H162	H	1.821090	-0.411680	0.402776
H163	H	0.939728	-1.078924	-0.321350
H164	H	1.273061	-0.745591	0.011983
H165	H	1.606395	-0.412258	0.345317
H166	H	1.149077	-0.389024	-0.924726
H167	H	1.482410	-0.055690	-0.591392
H168	H	1.815744	0.277643	-0.258059
H169	H	1.030348	-0.945979	-0.230630
H170	H	1.363681	-0.612645	0.102704
H171	H	1.697015	-0.279312	0.436037
H172	H	1.149063	-0.389079	-0.785298
H173	H	1.482396	-0.055745	-0.451965
H174	H	1.815729	0.277588	-0.118632
Br175	Br	0.944991	-0.925126	-0.472898
Br176	Br	1.278324	-0.591793	-0.139565
Br177	Br	1.611658	-0.258460	0.193768
Br178	Br	0.952651	-0.673014	-0.764361
Br179	Br	1.285984	-0.339681	-0.431028
Br180	Br	1.619317	-0.006347	-0.097694
H181	H	1.096738	-1.078549	-0.478583
H182	H	1.430071	-0.745216	-0.145250
H183	H	1.763404	-0.411883	0.188083
Br184	Br	0.473382	-0.673399	-0.465391
Br185	Br	0.806716	-0.340065	-0.132058
Br186	Br	1.140049	-0.006732	0.201276
H187	H	1.187442	-0.945472	-0.387956
H188	H	1.520775	-0.612138	-0.054622
H189	H	1.854108	-0.278805	0.278711
Br190	Br	0.473331	-0.352088	-0.243877
Br191	Br	0.806664	-0.018755	0.089456
Br192	Br	1.139998	0.314579	0.422790
Br193	Br	0.654499	-0.352064	-0.243862
Br194	Br	0.987832	-0.018730	0.089471
Br195	Br	1.321165	0.314603	0.422805
