data_functionalizedCrystal
_audit_creation_method	'MofGen! by Chris Wilmer'
_symmetry_space_group_name_H-M	'P1'
_symmetry_Int_Tables_number	1
_symmetry_cell_setting	triclinic
loop_
_symmetry_equiv_pos_as_xyz
  x,y,z
_cell_length_a	14.908571
_cell_length_b	13.897448
_cell_length_c	14.908854
_cell_angle_alpha	86.674879
_cell_angle_beta	90.204386
_cell_angle_gamma	93.284087
loop_
_atom_site_label
_atom_site_type_symbol
_atom_site_fract_x
_atom_site_fract_y
_atom_site_fract_z
Zn1	Zn	1.345320	0.430868	0.587614
Zn2	Zn	1.353898	0.601993	0.437257
Zn3	Zn	1.203630	0.431962	0.428608
Zn4	Zn	1.194930	0.583367	0.578912
O5	O	1.274445	0.512047	0.508098
O6	O	1.472285	0.460905	0.574930
O7	O	1.341195	0.587692	0.310283
O8	O	1.222477	0.296837	0.449722
O9	O	1.478586	0.586630	0.464464
O10	O	1.326576	0.296033	0.566543
O11	O	1.230794	0.462771	0.303928
O12	O	1.076650	0.444709	0.441284
O13	O	1.207649	0.554884	0.705893
O14	O	1.070258	0.555945	0.551712
O15	O	1.318140	0.442844	0.712287
O16	O	1.332759	0.734502	0.456026
O17	O	1.215966	0.720817	0.560099
C18	C	1.040828	0.498425	0.494616
C19	C	0.940885	0.492620	0.488869
C20	C	0.746482	0.597742	0.592905
C21	C	0.652577	0.592290	0.587509
C22	C	0.659166	0.476259	0.472686
C23	C	0.753072	0.481711	0.478082
C24	C	0.796727	0.542456	0.538193
C25	C	0.890634	0.547912	0.543584
C26	C	0.897222	0.431877	0.428766
C27	C	0.803316	0.426425	0.423370
C28	C	1.274372	0.762659	0.508078
C29	C	1.274422	0.869874	0.508104
C30	C	1.274506	1.066170	0.508174
C31	C	1.274457	0.956937	0.508138
C32	C	1.508973	0.525723	0.521633
C33	C	1.608915	0.531551	0.527401
C34	C	1.260967	0.496664	0.742628
C35	C	1.255224	0.490108	0.842571
C36	C	1.274532	1.260457	0.508149
C37	C	1.274549	1.153241	0.508196
C38	C	1.287921	0.527305	0.274483
C39	C	1.293839	0.533599	0.174550
C40	C	1.359413	0.607868	1.036994
C41	C	1.354019	0.601712	1.130900
C42	C	1.239049	0.471635	1.124289
C43	C	1.244442	0.477792	1.030384
C44	C	1.304625	0.545911	0.986740
C45	C	1.310014	0.552072	0.892832
C46	C	1.195048	0.421991	0.886223
C47	C	1.189655	0.415835	0.980129
H48	H	0.782027	0.647208	0.641845
O49	O	1.141864	0.361663	0.837505
C50	C	1.160242	0.265166	0.861581
H51	H	1.190894	0.260705	0.931756
H52	H	1.095177	0.217926	0.861058
H53	H	1.209514	0.238838	0.811399
H54	H	1.359022	0.607534	0.857299
O55	O	0.932996	0.606800	0.602101
C56	C	0.904905	0.578660	0.690429
H57	H	0.878837	0.499805	0.693599
H58	H	0.964118	0.587710	0.738390
H59	H	0.849047	0.625708	0.710724
H60	H	1.398634	0.652162	1.171814
O61	O	0.603906	0.646091	0.640693
C62	C	0.662578	0.700850	0.694921
H63	H	0.731623	0.710436	0.661931
H64	H	0.634890	0.774666	0.702842
H65	H	0.668662	0.661730	0.763838
O66	O	0.616609	0.417301	0.414352
C67	C	0.522949	0.424308	0.421362
H68	H	0.508430	0.496145	0.449920
H69	H	0.491090	0.419944	0.351985
H70	H	0.493593	0.362501	0.467848
H71	H	1.190057	0.416170	1.159841
H72	H	1.140658	0.360371	1.015677
H73	H	0.767759	0.376965	0.374432
O74	O	0.945995	0.378273	0.375484
C75	C	0.928151	0.403739	0.284516
H76	H	0.902591	0.479597	0.278376
H77	H	0.992447	0.401857	0.243650
H78	H	0.874990	0.350359	0.257963
O79	O	1.417939	0.674070	0.994737
C80	C	1.465117	0.727461	1.059229
H81	H	1.464410	0.683745	1.126355
H82	H	1.537513	0.743671	1.036177
H83	H	1.431580	0.798138	1.067306
