data_functionalizedCrystal
_audit_creation_method	'MofGen! by Chris Wilmer'
_symmetry_space_group_name_H-M	'P1'
_symmetry_Int_Tables_number	1
_symmetry_cell_setting	triclinic
loop_
_symmetry_equiv_pos_as_xyz
  x,y,z
_cell_length_a	14.044220
_cell_length_b	11.792241
_cell_length_c	10.868271
_cell_angle_alpha	90.005281
_cell_angle_beta	89.999310
_cell_angle_gamma	88.691147
loop_
_atom_site_label
_atom_site_type_symbol
_atom_site_fract_x
_atom_site_fract_y
_atom_site_fract_z
O1	O	-1.259113	-0.273771	-0.102192
O2	O	-0.983093	-0.263891	-0.102224
O3	O	-1.127802	-0.104289	-0.102199
O4	O	-1.114405	-0.433373	-0.102217
O5	O	-1.127790	-0.104281	0.102446
O6	O	-0.983081	-0.263883	0.102421
O7	O	-1.259101	-0.273763	0.102452
Zn8	Zn	-1.121089	-0.268822	0.134928
Zn9	Zn	-1.121105	-0.268832	-0.134700
O10	O	-1.114393	-0.433365	0.102427
C11	C	-1.126954	-0.061915	0.000123
C12	C	-1.124435	0.064335	0.000122
C13	C	-0.947751	-0.259563	0.000095
C14	C	-0.842459	-0.246664	0.000083
C15	C	-1.294444	-0.278091	0.000131
C16	C	-1.399736	-0.290990	0.000135
C17	C	-0.649676	-0.223082	0.000109
C18	C	-0.592513	-0.314567	0.000109
C19	C	-0.485242	-0.301445	0.000123
C20	C	-0.756957	-0.236202	0.000095
C21	C	-1.115241	-0.475739	0.000103
C22	C	-1.117759	-0.601989	0.000096
N23	N	-1.121086	-0.268815	0.318942
C24	C	-1.119804	0.295482	0.000101
C25	C	-1.122377	0.166855	0.000112
N26	N	-1.121117	-0.268831	-0.318714
C27	C	-1.121100	-0.268829	0.569949
C28	C	-1.121089	-0.268824	0.430271
H29	H	-0.624137	-0.402744	0.000098
H30	H	-0.618054	-0.134912	0.000121
