data_functionalizedCrystal
_audit_creation_method	'MofGen! by Chris Wilmer'
_symmetry_space_group_name_H-M	'P1'
_symmetry_Int_Tables_number	1
_symmetry_cell_setting	triclinic
loop_
_symmetry_equiv_pos_as_xyz
  x,y,z
_cell_length_a	18.215407
_cell_length_b	18.215406
_cell_length_c	18.215399
_cell_angle_alpha	89.981825
_cell_angle_beta	90.017777
_cell_angle_gamma	90.005685
loop_
_atom_site_label
_atom_site_type_symbol
_atom_site_fract_x
_atom_site_fract_y
_atom_site_fract_z
Zn1	Zn	-1.125206	-0.293078	-0.416125
Zn2	Zn	-1.125171	-0.416149	-0.293080
Zn3	Zn	-1.002138	-0.293091	-0.293077
Zn4	Zn	-1.002161	-0.416098	-0.416110
O5	O	-1.063669	-0.354604	-0.354598
O6	O	-1.228185	-0.309419	-0.399811
O7	O	-1.108826	-0.399852	-0.190096
O8	O	-1.018469	-0.190105	-0.309405
O9	O	-1.228159	-0.399839	-0.309410
O10	O	-1.108886	-0.190095	-0.399808
O11	O	-1.018435	-0.309443	-0.190093
O12	O	-0.899157	-0.309393	-0.309390
O13	O	-1.018507	-0.399752	-0.519096
O14	O	-0.899173	-0.399765	-0.399781
O15	O	-1.108908	-0.309369	-0.519108
O16	O	-1.108847	-0.519126	-0.309395
O17	O	-1.018473	-0.519089	-0.399784
C18	C	-0.872463	-0.354575	-0.354584
C19	C	-0.790664	-0.354581	-0.354595
C20	C	-0.602482	-0.307590	-0.401740
C21	C	-0.525624	-0.307594	-0.401742
C22	C	-0.525607	-0.401607	-0.307462
C23	C	-0.602465	-0.401599	-0.307457
C24	C	-0.640900	-0.354591	-0.354600
C25	C	-0.487184	-0.354603	-0.354607
C26	C	-0.403850	-0.354608	-0.354609
C27	C	-0.724239	-0.354586	-0.354598
C28	C	-1.063679	-0.545810	-0.354604
C29	C	-1.063750	-0.627609	-0.354631
C30	C	-1.063714	-0.354553	-0.546551
C31	C	-1.063733	-0.354532	-0.628350
C32	C	-0.255622	-0.354625	-0.354611
C33	C	-0.337421	-0.354614	-0.354612
C34	C	-1.063679	-0.162651	-0.354608
C35	C	-1.063684	-0.080852	-0.354613
C36	C	-1.016660	0.107362	-0.401682
C37	C	-1.016672	0.184221	-0.401687
C38	C	-1.110779	0.184171	-0.307560
C39	C	-1.110770	0.107314	-0.307559
C40	C	-1.063706	0.068911	-0.354619
C41	C	-1.063727	0.222627	-0.354625
C42	C	-1.063741	0.305961	-0.354630
C43	C	-1.063693	-0.014428	-0.354615
C44	C	-1.110821	-0.307426	-0.816551
C45	C	-1.110830	-0.307404	-0.893410
C46	C	-1.016696	-0.401524	-0.893387
C47	C	-1.016684	-0.401541	-0.816529
C48	C	-1.063751	-0.354493	-0.778114
C49	C	-1.063772	-0.354454	-0.931830
C50	C	-1.063781	-0.354431	-1.015164
C51	C	-1.063741	-0.354515	-0.694775
C52	C	-1.063667	-0.354601	-0.163392
C53	C	-1.063790	-0.354416	-0.081593
H54	H	-0.633745	-0.439874	-0.269066
H55	H	-0.978343	0.076097	-0.440006
H56	H	-0.633774	-0.269311	-0.440125
H57	H	-1.149144	-0.269114	-0.785276
C58	C	-0.483364	-0.255893	-0.453599
C59	C	-0.525644	-0.204189	-0.505451
C60	C	-0.483385	-0.152485	-0.557309
C61	C	-0.398845	-0.152486	-0.557316
C62	C	-0.356560	-0.204192	-0.505461
C63	C	-0.398819	-0.255896	-0.453603
H64	H	-0.588230	-0.204187	-0.505448
H65	H	-0.514688	-0.114209	-0.595695
H66	H	-0.367562	-0.114212	-0.595704
H67	H	-0.293974	-0.204194	-0.505464
H68	H	-0.367516	-0.294172	-0.415217
C69	C	-0.483327	-0.453320	-0.255614
C70	C	-0.398786	-0.453336	-0.255620
C71	C	-0.356507	-0.505053	-0.203773
C72	C	-0.398769	-0.556753	-0.151919
C73	C	-0.483313	-0.556739	-0.151910
C74	C	-0.525592	-0.505022	-0.203758
H75	H	-0.367498	-0.415062	-0.294007
H76	H	-0.293922	-0.505063	-0.203779
H77	H	-0.367471	-0.595037	-0.113538
H78	H	-0.514602	-0.595013	-0.113523
H79	H	-0.588178	-0.505012	-0.203751
C80	C	-1.162610	-0.255630	-0.935692
C81	C	-1.214377	-0.203880	-0.893433
C82	C	-1.266158	-0.152102	-0.935714
C83	C	-1.266171	-0.152074	-1.020254
C84	C	-1.214401	-0.203826	-1.062518
C85	C	-1.162621	-0.255604	-1.020237
H86	H	-1.214369	-0.203899	-0.830847
H87	H	-1.304481	-0.113792	-0.904427
H88	H	-1.304502	-0.113745	-1.051553
H89	H	-1.214409	-0.203807	-1.125104
H90	H	-1.124298	-0.293914	-1.051523
H91	H	-0.978364	0.215525	-0.440010
C92	C	-1.162544	0.226416	-0.255793
C93	C	-1.162556	0.310956	-0.255790
C94	C	-1.214322	0.353199	-0.204021
C95	C	-1.266076	0.310902	-0.152256
C96	C	-1.266067	0.226357	-0.152257
C97	C	-1.214300	0.184114	-0.204026
H98	H	-1.124243	0.342271	-0.294111
H99	H	-1.214329	0.415785	-0.204020
H100	H	-1.304397	0.342173	-0.113934
H101	H	-1.304380	0.195042	-0.113936
H102	H	-1.214293	0.121528	-0.204027
C103	C	-1.162526	0.065013	-0.255787
C104	C	-1.156501	0.075550	-0.172124
C105	C	-1.208257	0.033249	-0.120357
C106	C	-1.266037	-0.019588	-0.152253
C107	C	-1.272064	-0.030127	-0.235920
C108	C	-1.220308	0.012173	-0.287687
H109	H	-1.113727	0.114666	-0.148509
H110	H	-1.203795	0.041051	-0.058421
H111	H	-1.304350	-0.050902	-0.113932
H112	H	-1.314838	-0.069243	-0.259536
H113	H	-1.224770	0.004371	-0.349623
H114	H	-0.978378	-0.439830	-0.924674
C115	C	-0.964904	-0.453319	-0.774242
C116	C	-0.913139	-0.505077	-0.816494
C117	C	-0.861359	-0.556850	-0.774206
C118	C	-0.861344	-0.556866	-0.689666
C119	C	-0.913112	-0.505106	-0.647409
C120	C	-0.964891	-0.453333	-0.689697
H121	H	-0.913148	-0.505067	-0.879080
H122	H	-0.823037	-0.595166	-0.805488
H123	H	-0.823014	-0.595191	-0.658362
H124	H	-0.913102	-0.505116	-0.584823
H125	H	-1.003213	-0.415017	-0.658415
