data_functionalizedCrystal
_audit_creation_method	'MofGen! by Chris Wilmer'
_symmetry_space_group_name_H-M	'P1'
_symmetry_Int_Tables_number	1
_symmetry_cell_setting	triclinic
loop_
_symmetry_equiv_pos_as_xyz
  x,y,z
_cell_length_a	10.654541
_cell_length_b	10.654545
_cell_length_c	17.766277
_cell_angle_alpha	90.003968
_cell_angle_beta	90.008000
_cell_angle_gamma	84.484678
loop_
_atom_site_label
_atom_site_type_symbol
_atom_site_fract_x
_atom_site_fract_y
_atom_site_fract_z
O1	O	1.667853	0.176386	0.062567
O2	O	1.302374	0.193196	0.062573
O3	O	1.493516	0.002052	0.062569
O4	O	1.476712	0.367530	0.062571
O5	O	1.493482	0.002042	-0.062619
O6	O	1.302340	0.193186	-0.062615
O7	O	1.667819	0.176376	-0.062622
Cu8	Cu	1.485077	0.184780	-0.074049
Cu9	Cu	1.485117	0.184792	0.074001
O10	O	1.476678	0.367520	-0.062618
C11	C	1.255559	0.191957	-0.000020
C12	C	1.116116	0.188266	-0.000018
C13	C	1.088146	0.416831	-0.000008
C14	C	1.008652	0.529374	0.000001
C15	C	0.877634	0.525898	0.000001
C16	C	0.826108	0.409867	-0.000008
C17	C	0.905602	0.297324	-0.000017
C18	C	1.036622	0.300812	-0.000015
C19	C	0.933572	0.068763	-0.000032
C20	C	1.064590	0.072235	-0.000028
C21	C	0.882046	-0.047269	-0.000042
C22	C	0.961540	-0.159814	-0.000045
C23	C	1.092565	-0.156334	-0.000045
C24	C	1.144084	-0.040308	-0.000036
C25	C	1.492265	-0.044751	-0.000023
C26	C	1.488572	-0.184195	-0.000019
C27	C	1.488624	-0.184192	0.136465
C28	C	1.486920	-0.249701	0.204707
C29	C	1.483451	-0.380719	0.204708
C30	C	1.481682	-0.446232	0.136460
C31	C	1.483386	-0.380723	0.068218
C32	C	1.486859	-0.249702	0.068224
C33	C	1.483325	-0.380725	-0.068265
C34	C	1.486803	-0.249707	-0.068267
C35	C	1.481556	-0.446238	-0.136513
C36	C	1.483269	-0.380730	-0.204757
C37	C	1.486740	-0.249704	-0.204755
C38	C	1.488507	-0.184199	-0.136509
C39	C	1.714634	0.177615	-0.000027
C40	C	1.854078	0.181306	-0.000024
C41	C	1.477929	0.414323	-0.000023
C42	C	1.481621	0.553766	-0.000023
N43	N	1.485058	0.184771	-0.178180
C44	C	1.569723	0.100174	-0.217568
C45	C	1.569730	0.100169	-0.296370
C46	C	1.485084	0.184781	-0.335780
C47	C	1.400403	0.269384	-0.296382
C48	C	1.400389	0.269379	-0.217582
C49	C	1.469625	0.299019	-0.460618
C50	C	1.469647	0.299026	-0.539416
C51	C	1.485118	0.184797	-0.578826
C52	C	1.500593	0.070555	-0.539428
C53	C	1.500580	0.070550	-0.460628
C54	C	1.485089	0.184796	-0.421226
C55	C	1.569796	0.100187	-0.703661
C56	C	1.569794	0.100179	-0.782464
C57	C	1.400473	0.269406	-0.782475
C58	C	1.400468	0.269402	-0.703673
C59	C	1.485136	0.184794	-0.664271
N60	N	1.485146	0.184791	0.178131
H61	H	1.250764	-0.037463	-0.000027
H62	H	0.919576	-0.254278	-0.000052
O63	O	1.477984	-0.587551	0.136456
H64	H	1.477118	-0.622099	0.195374
O65	O	1.452933	0.422223	-0.418105
H66	H	1.530217	0.480374	-0.433202
O67	O	1.488591	-0.179055	-0.278361
H68	H	1.402466	-0.193760	-0.311082
H69	H	1.638662	0.031279	-0.185489
O70	O	1.064233	0.654514	0.000012
H71	H	1.032377	0.708645	-0.051013
H72	H	1.331530	0.338293	-0.671601
H73	H	0.775363	-0.050090	-0.000046
O74	O	1.178307	-0.277721	-0.000059
H75	H	1.159885	-0.333195	0.050963
O76	O	1.492307	-0.042892	-0.136456
H77	H	1.407784	0.002189	-0.165892
O78	O	1.492497	-0.042895	0.136462
H79	H	1.493480	-0.008350	0.195380
H80	H	1.638678	0.031277	-0.328446
O81	O	1.517247	-0.052655	-0.418130
H82	H	1.527997	-0.132091	-0.458767
O83	O	1.488828	-0.179045	0.278317
H84	H	1.491537	-0.076935	0.266856
O85	O	0.684795	0.406122	-0.000016
H86	H	0.656284	0.355881	-0.051049
O87	O	1.517270	-0.052665	-0.581920
H88	H	1.514662	-0.033476	-0.643334
O89	O	0.791879	0.647276	0.000006
H90	H	0.810318	0.702742	0.051036
H91	H	1.638735	0.031284	-0.814535
H92	H	1.482052	-0.434055	0.260277
O93	O	1.309174	0.360674	-0.824968
H94	H	1.323410	0.346472	-0.886382
O95	O	1.661094	0.008922	-0.661154
H96	H	1.719955	-0.049922	-0.701786
O97	O	1.309060	0.360632	-0.175101
H98	H	1.247555	0.307188	-0.139219
H99	H	1.478724	-0.552919	-0.136507
H100	H	1.331480	0.338275	-0.328474
O101	O	1.229459	0.420575	-0.000006
H102	H	1.251933	0.520160	-0.000002
H103	H	1.457055	0.392048	-0.571488
O104	O	1.481381	-0.451386	-0.278362
H105	H	1.478689	-0.553497	-0.266896
