data_functionalizedCrystal
_audit_creation_method	'MofGen! by Chris Wilmer'
_symmetry_space_group_name_H-M	'P1'
_symmetry_Int_Tables_number	1
_symmetry_cell_setting	triclinic
loop_
_symmetry_equiv_pos_as_xyz
  x,y,z
_cell_length_a	19.188930
_cell_length_b	14.586319
_cell_length_c	16.109301
_cell_angle_alpha	89.994786
_cell_angle_beta	83.303130
_cell_angle_gamma	89.982618
loop_
_atom_site_label
_atom_site_type_symbol
_atom_site_fract_x
_atom_site_fract_y
_atom_site_fract_z
O1	O	0.926386	-0.076538	0.103796
O2	O	1.426386	0.423462	0.603796
O3	O	0.723108	-0.076476	0.117769
O4	O	1.223108	0.423524	0.617769
O5	O	0.830331	-0.076499	-0.010267
O6	O	1.330331	0.423501	0.489733
O7	O	0.819163	-0.076514	0.231832
O8	O	1.319163	0.423486	0.731832
O9	O	0.830324	0.075982	-0.010268
O10	O	1.330324	0.575982	0.489732
O11	O	0.723100	0.076005	0.117767
O12	O	1.223100	0.576005	0.617767
O13	O	0.926379	0.075943	0.103795
O14	O	1.426379	0.575943	0.603795
Cu15	Cu	0.824739	0.089897	0.110781
Cu16	Cu	1.324739	0.589897	0.610781
Cu17	Cu	0.824748	-0.090429	0.110783
Cu18	Cu	1.324748	0.409571	0.610783
O19	O	0.819155	0.075966	0.231830
O20	O	1.319155	0.575966	0.731830
C21	C	0.697092	-0.000227	0.117316
C22	C	1.197092	0.499773	0.617316
C23	C	0.619584	-0.000203	0.115958
C24	C	1.119584	0.499797	0.615958
N25	N	0.824738	0.216728	0.110779
N26	N	1.324738	0.716728	0.610779
C27	C	0.829875	-0.000258	-0.041241
C28	C	1.329875	0.499742	0.458759
C29	C	0.828519	-0.000256	-0.133532
C30	C	1.328519	0.499744	0.366468
C31	C	0.574836	-0.000222	0.191085
C32	C	1.074836	0.499778	0.691085
C33	C	0.502009	-0.000232	0.189809
C34	C	1.002009	0.499768	0.689809
C35	C	0.473934	-0.000241	0.113401
C36	C	0.973934	0.499759	0.613401
C37	C	0.518692	-0.000217	0.038264
C38	C	1.018692	0.499783	0.538264
C39	C	0.591517	-0.000198	0.039542
C40	C	1.091517	0.499802	0.539542
N41	N	0.365820	-0.052170	0.054998
N42	N	0.865820	0.447830	0.554998
N43	N	0.296638	-0.052191	0.053788
N44	N	0.796638	0.447809	0.553788
C45	C	0.254516	-0.000297	0.109545
C46	C	0.754516	0.499703	0.609545
N47	N	0.284188	0.051606	0.166569
N48	N	0.784188	0.551606	0.666569
N49	N	0.353375	0.051622	0.167781
N50	N	0.853375	0.551622	0.667781
C51	C	0.394968	-0.000262	0.112007
C52	C	0.894968	0.499738	0.612007
C53	C	0.130800	-0.000326	0.183294
C54	C	0.630800	0.499674	0.683294
C55	C	0.057973	-0.000330	0.182015
C56	C	0.557973	0.499670	0.682015
C57	C	0.074657	-0.000324	0.030468
C58	C	0.574657	0.499676	0.530468
C59	C	0.147483	-0.000311	0.031749
C60	C	0.647483	0.499689	0.531749
C61	C	0.175550	-0.000316	0.108165
C62	C	0.675550	0.499684	0.608165
C63	C	0.952395	-0.000308	0.104248
C64	C	1.452395	0.499692	0.604248
C65	C	1.029903	-0.000338	0.105606
C66	C	1.529903	0.499662	0.605606
N67	N	0.824754	-0.217261	0.110778
N68	N	1.324754	0.282739	0.610778
C69	C	0.872232	0.451724	0.054103
C70	C	1.372232	0.951724	0.554103
C71	C	0.872234	0.547706	0.054101
C72	C	1.372234	1.047706	0.554101
C73	C	0.777255	0.547736	0.167457
C74	C	1.277255	1.047736	0.667457
C75	C	0.777250	0.451757	0.167454
C76	C	1.277250	0.951757	0.667454
C77	C	0.824743	0.403753	0.110778
C78	C	1.324743	0.903753	0.610778
C79	C	0.824750	0.595714	0.110779
C80	C	1.324750	1.095714	0.610779
C81	C	0.824751	0.699781	0.110777
C82	C	1.324751	1.199781	0.610777
C83	C	0.824740	0.299679	0.110779
C84	C	1.324740	0.799679	0.610779
C85	C	0.888990	-0.000290	-0.356005
C86	C	1.388990	0.499710	0.143995
C87	C	0.887710	-0.000297	-0.442721
C88	C	1.387710	0.499703	0.057279
C89	C	0.760493	-0.000254	-0.422425
C90	C	1.260493	0.499746	0.077575
C91	C	0.761773	-0.000253	-0.335710
C92	C	1.261773	0.499747	0.164290
C93	C	0.826024	-0.000267	-0.302503
C94	C	1.326024	0.499733	0.197497
C95	C	0.823463	-0.000274	-0.475933
C96	C	1.323463	0.499726	0.024067
C97	C	0.822075	-0.000282	-0.569955
C98	C	1.322075	0.499718	-0.069955
C99	C	0.827412	-0.000261	-0.208475
C100	C	1.327412	0.499739	0.291525
C101	C	0.819612	-0.000277	0.262805
C102	C	1.319612	0.499723	0.762805
C103	C	0.820968	-0.000284	0.355096
C104	C	1.320968	0.499716	0.855096
H105	H	0.597683	-0.000228	0.253308
H106	H	1.097683	0.499772	0.753308
H107	H	0.738575	0.412696	0.213606
H108	H	1.238575	0.912696	0.713606
H109	H	0.910903	0.412642	0.007953
H110	H	1.410903	0.912642	0.507953
H111	H	0.153654	-0.000316	0.245516
H112	H	0.653654	0.499684	0.745516
C113	C	0.725020	0.600540	0.229805
C114	C	1.225020	1.100540	0.729805
C115	C	0.725060	0.706114	0.229860
C116	C	1.225060	1.206114	0.729860
C117	C	0.672825	0.758915	0.292212
C118	C	1.172825	1.258915	0.792212
C119	C	0.620550	0.706142	0.354509
C120	C	1.120550	1.206142	0.854509
C121	C	0.620509	0.600562	0.354455
C122	C	1.120509	1.100562	0.854455
C123	C	0.672744	0.547761	0.292103
C124	C	1.172744	1.047761	0.792103
H125	H	0.763758	0.745185	0.183742
H126	H	1.263758	1.245185	0.683742
H127	H	0.672856	0.837072	0.292251
H128	H	1.172856	1.337072	0.792251
H129	H	0.581883	0.745228	0.400665
H130	H	1.081883	1.245228	0.900665
H131	H	0.581810	0.561491	0.400573
H132	H	1.081810	1.061491	0.900573
H133	H	0.672712	0.469604	0.292064
H134	H	1.172712	0.969604	0.792064
H135	H	0.941306	-0.000302	-0.328970
H136	H	1.441306	0.499698	0.171030
C137	C	0.956973	-0.000317	-0.501574
C138	C	1.456973	0.499683	-0.001574
C139	C	0.973593	-0.079505	-0.563968
C140	C	1.473593	0.420495	-0.063968
C141	C	1.042860	-0.079527	-0.622822
C142	C	1.542860	0.420473	-0.122822
C143	C	1.095506	-0.000361	-0.619281
C144	C	1.595506	0.499639	-0.119281
C145	C	1.078887	0.078833	-0.556884
C146	C	1.578887	0.578833	-0.056884
C147	C	1.009620	0.078855	-0.498030
C148	C	1.509620	0.578855	0.001970
H149	H	0.934620	-0.138114	-0.566592
H150	H	1.434620	0.361886	-0.066592
H151	H	1.055162	-0.138152	-0.669012
H152	H	1.555162	0.361848	-0.169012
H153	H	1.146781	-0.000377	-0.662848
H154	H	1.646781	0.499623	-0.162848
H155	H	1.117860	0.137442	-0.554261
H156	H	1.617860	0.637442	-0.054261
H157	H	0.997318	0.137480	-0.451840
H158	H	1.497318	0.637480	0.048160
H159	H	0.021538	-0.000340	0.243195
H160	H	0.521538	0.499660	0.743195
H161	H	0.910904	0.586761	0.007950
H162	H	1.410904	1.086761	0.507950
H163	H	0.708182	-0.000242	-0.449473
H164	H	1.208182	0.499758	0.050527
H165	H	0.495829	-0.000237	-0.023948
H166	H	0.995829	0.499763	0.476052
H167	H	0.710496	-0.000237	-0.292146
H168	H	1.210496	0.499763	0.207854
H169	H	0.183919	-0.000300	-0.029428
H170	H	0.683919	0.499700	0.470572
H171	H	0.051799	-0.000389	-0.031745
H172	H	0.551799	0.499611	0.468255
C173	C	0.452774	-0.000264	0.272453
C174	C	0.952774	0.499736	0.772453
C175	C	0.483646	-0.000273	0.356505
C176	C	0.983646	0.499727	0.856505
C177	C	0.434414	-0.000309	0.439149
C178	C	0.934414	0.499691	0.939149
C179	C	0.354309	-0.000336	0.437741
C180	C	0.854309	0.499664	0.937741
C181	C	0.323433	-0.000327	0.353686
C182	C	0.823433	0.499673	0.853686
C183	C	0.372665	-0.000291	0.271042
C184	C	0.872665	0.499709	0.771042
H185	H	0.542948	-0.000253	0.357551
H186	H	1.042948	0.499747	0.857551
H187	H	0.457271	-0.000315	0.501372
H188	H	0.957271	0.499685	1.001372
H189	H	0.317864	-0.000363	0.498919
H190	H	0.817864	0.499637	0.998919
H191	H	0.264131	-0.000348	0.352640
H192	H	0.764131	0.499652	0.852640
H193	H	0.349808	-0.000285	0.208819
H194	H	0.849808	0.499715	0.708819
C195	C	0.640746	-0.000184	-0.043103
C196	C	1.140746	0.499816	0.456897
C197	C	0.693134	-0.079351	-0.063060
C198	C	1.193134	0.420649	0.436940
C199	C	0.742365	-0.079340	-0.145705
C200	C	1.242365	0.420660	0.354295
C201	C	0.739208	-0.000160	-0.208393
C202	C	1.239208	0.499840	0.291607
C203	C	0.686818	0.079014	-0.188437
C204	C	1.186818	0.579014	0.311563
C205	C	0.637587	0.079002	-0.105792
C206	C	1.137587	0.579002	0.394208
H207	H	0.695473	-0.137970	-0.016653
H208	H	1.195473	0.362030	0.483347
H209	H	0.781147	-0.137950	-0.160477
H210	H	1.281147	0.362050	0.339523
H211	H	0.775651	-0.000151	-0.269572
H212	H	1.275651	0.499849	0.230428
H213	H	0.684479	0.137633	-0.234844
H214	H	1.184479	0.637633	0.265156
H215	H	0.598805	0.137612	-0.091020
H216	H	1.098805	0.637612	0.408980
