data_functionalizedCrystal
_audit_creation_method	'MofGen! by Chris Wilmer'
_symmetry_space_group_name_H-M	'P1'
_symmetry_Int_Tables_number	1
_symmetry_cell_setting	triclinic
loop_
_symmetry_equiv_pos_as_xyz
  x,y,z
_cell_length_a	10.489768
_cell_length_b	8.965430
_cell_length_c	9.065218
_cell_angle_alpha	90.002272
_cell_angle_beta	84.783187
_cell_angle_gamma	89.998466
loop_
_atom_site_label
_atom_site_type_symbol
_atom_site_fract_x
_atom_site_fract_y
_atom_site_fract_z
O1	O	-1.694785	0.123954	-0.208351
O2	O	-1.323665	0.123973	-0.227848
O3	O	-1.516896	0.123960	-0.003421
O4	O	-1.501554	0.123967	-0.432778
O5	O	-1.516880	-0.124119	-0.003436
O6	O	-1.323648	-0.124106	-0.227863
O7	O	-1.694769	-0.124125	-0.208366
Cu8	Cu	-1.509207	-0.146767	-0.218116
Cu9	Cu	-1.509227	0.146615	-0.218098
O10	O	-1.501538	-0.124112	-0.432793
C11	C	-1.276120	-0.000064	-0.226374
C12	C	-1.134476	-0.000056	-0.221943
N13	N	-1.509203	-0.353116	-0.218127
C14	C	-0.981095	-0.000081	-0.076505
C15	C	-1.058742	-0.122391	-0.149225
C16	C	-1.058714	0.122196	-0.149245
C17	C	-0.959749	-0.122506	-0.286841
C18	C	-0.959715	0.122190	-0.286840
C19	C	-1.037314	-0.000149	-0.359662
C20	C	-1.419812	-0.450416	-0.321883
C21	C	-1.535415	-0.549835	-0.351751
C22	C	-1.393649	-0.549824	-0.188272
C23	C	-1.624865	-0.450347	-0.248063
C24	C	-1.483022	-0.450327	-0.084525
C25	C	-1.598708	-0.549701	-0.114337
C26	C	-0.742316	-0.000088	-0.209816
C27	C	-0.883967	-0.000096	-0.214178
C28	C	-1.515413	-0.000077	0.051551
C29	C	-1.511005	-0.000070	0.215374
N30	N	-1.509241	0.352964	-0.218075
C31	C	-1.503020	-0.000072	-0.487765
C32	C	-1.507429	-0.000069	-0.651587
H33	H	-0.955942	-0.000207	0.043217
C34	C	-1.685463	-0.556489	-0.536502
C35	C	-1.565345	-0.608864	-0.504235
H36	H	-1.703928	-0.592925	-0.630644
H37	H	-1.749037	-0.590475	-0.462873
H38	H	-1.684876	-0.450543	-0.537897
H39	H	-1.565935	-0.714810	-0.502830
H40	H	-1.501755	-0.574887	-0.577884
H41	H	-1.674403	-0.593022	-0.026568
H42	H	-1.101953	0.225603	-0.091094
H43	H	-1.062223	-0.000214	-0.479473
H44	H	-1.344287	-0.406822	-0.409707
C45	C	-1.850502	-0.442817	-0.174321
C46	C	-1.756818	-0.391570	-0.282333
H47	H	-1.931952	-0.406504	-0.195487
H48	H	-1.851363	-0.548754	-0.174482
H49	H	-1.831735	-0.407922	-0.079742
H50	H	-1.775580	-0.426474	-0.376912
H51	H	-1.755961	-0.285610	-0.282188
C52	C	-1.331909	-0.441381	0.098933
C53	C	-1.453047	-0.391256	0.067918
H54	H	-1.313392	-0.404901	0.193040
H55	H	-1.330931	-0.547313	0.099803
H56	H	-1.269245	-0.405900	0.024997
H57	H	-1.515712	-0.426746	0.141847
H58	H	-1.454034	-0.285302	0.067059
C59	C	-1.168243	-0.558672	-0.263019
C60	C	-1.261708	-0.608802	-0.154192
H61	H	-1.086787	-0.595071	-0.241980
H62	H	-1.187464	-0.594217	-0.357184
H63	H	-1.167078	-0.452726	-0.263680
H64	H	-1.262879	-0.714749	-0.153539
H65	H	-1.242481	-0.573264	-0.060003
C66	C	-0.815659	0.218477	-0.485098
C67	C	-0.901274	0.261788	-0.365225
H68	H	-0.779588	0.304670	-0.533485
H69	H	-0.749404	0.159518	-0.450249
H70	H	-0.859932	0.161888	-0.552870
H71	H	-0.856998	0.318368	-0.297448
H72	H	-0.967539	0.320771	-0.400074
C73	C	-1.089307	-0.261778	0.077379
C74	C	-1.117148	-0.261989	-0.070785
H75	H	-1.125368	-0.347954	0.125809
H76	H	-0.999158	-0.262328	0.081532
H77	H	-1.124537	-0.174916	0.125286
H78	H	-1.081911	-0.348846	-0.118695
H79	H	-1.207316	-0.261453	-0.074946
H80	H	-0.916673	-0.226030	-0.344926
