data_functionalizedCrystal
_audit_creation_method	'MofGen! by Chris Wilmer'
_symmetry_space_group_name_H-M	'P1'
_symmetry_Int_Tables_number	1
_symmetry_cell_setting	triclinic
loop_
_symmetry_equiv_pos_as_xyz
  x,y,z
_cell_length_a	17.077404
_cell_length_b	19.120786
_cell_length_c	17.077395
_cell_angle_alpha	87.529859
_cell_angle_beta	89.984359
_cell_angle_gamma	92.465349
loop_
_atom_site_label
_atom_site_type_symbol
_atom_site_fract_x
_atom_site_fract_y
_atom_site_fract_z
Zn1	Zn	1.186679	-0.279635	-0.430494
Zn2	Zn	1.686679	0.220365	0.069506
Zn3	Zn	1.180989	-0.397096	-0.293620
Zn4	Zn	1.680989	0.102904	0.206380
Zn5	Zn	1.055419	-0.279657	-0.299240
Zn6	Zn	1.555419	0.220343	0.200760
Zn7	Zn	1.049775	-0.397057	-0.424846
Zn8	Zn	1.549775	0.102943	0.075154
O9	O	1.118216	-0.338361	-0.362050
O10	O	1.618216	0.161639	0.137950
O11	O	1.295771	-0.295223	-0.412349
O12	O	1.795771	0.204777	0.087651
O13	O	1.164313	-0.381543	-0.184518
O14	O	1.664313	0.118457	0.315482
O15	O	1.077574	-0.181364	-0.321367
O16	O	1.577574	0.318636	0.178633
O17	O	1.291591	-0.381522	-0.311788
O18	O	1.791591	0.118478	0.188212
O19	O	1.174010	-0.181347	-0.417798
O20	O	1.674010	0.318653	0.082202
O21	O	1.072057	-0.295261	-0.188647
O22	O	1.572057	0.204739	0.311353
O23	O	0.944824	-0.295223	-0.315891
O24	O	1.444824	0.204777	0.184109
O25	O	1.067955	-0.381455	-0.535443
O26	O	1.567955	0.118545	-0.035443
O27	O	0.940677	-0.381476	-0.408172
O28	O	1.440677	0.118524	0.091828
O29	O	1.168538	-0.295185	-0.539593
O30	O	1.668538	0.204815	-0.039593
O31	O	1.158841	-0.495381	-0.306312
O32	O	1.658841	0.004619	0.193688
O33	O	1.062438	-0.495352	-0.402723
O34	O	1.562438	0.004648	0.097277
C35	C	0.914268	-0.338348	-0.362029
C36	C	1.414268	0.161652	0.137971
C37	C	0.827018	-0.338360	-0.362038
C38	C	1.327018	0.161640	0.137962
C39	C	0.783886	-0.383340	-0.410005
C40	C	1.283886	0.116660	0.089995
C41	C	0.701906	-0.383341	-0.410017
C42	C	1.201906	0.116659	0.089983
C43	C	0.663058	-0.338366	-0.362058
C44	C	1.163058	0.161634	0.137942
C45	C	0.706196	-0.293381	-0.314089
C46	C	1.206196	0.206619	0.185911
C47	C	0.788175	-0.293377	-0.314081
C48	C	1.288175	0.206623	0.185919
C49	C	0.535326	-0.293395	-0.314107
C50	C	1.035326	0.206605	0.185893
C51	C	0.453341	-0.293400	-0.314113
C52	C	0.953341	0.206600	0.185887
C53	C	0.449056	-0.383360	-0.410044
C54	C	0.949056	0.116640	0.089956
C55	C	0.531035	-0.383355	-0.410036
C56	C	1.031035	0.116645	0.089964
C57	C	0.574167	-0.338371	-0.362065
C58	C	1.074167	0.161629	0.137935
C59	C	1.109431	-0.520852	-0.353312
C60	C	1.609431	-0.020852	0.146688
C61	C	1.105744	-0.598923	-0.349599
C62	C	1.605744	-0.098923	0.150401
C63	C	1.154184	-0.635532	-0.398103
C64	C	1.654184	-0.135532	0.101897
C65	C	1.150717	-0.708887	-0.394616
C66	C	1.650717	-0.208887	0.105384
C67	C	1.098814	-0.745633	-0.342622
C68	C	1.598814	-0.245633	0.157378
C69	C	1.050368	-0.709019	-0.294117
C70	C	1.550368	-0.209019	0.205883
C71	C	1.053832	-0.635665	-0.297608
C72	C	1.553832	-0.135665	0.202392
C73	C	1.085842	-0.967119	-0.329571
C74	C	1.585842	-0.467119	0.170429
C75	C	1.082384	-1.040478	-0.326082
C76	C	1.582384	-0.540478	0.173918
C77	C	1.182732	-1.040341	-0.426583
C78	C	1.682732	-0.540341	0.073417
C79	C	1.186194	-0.966986	-0.430066
C80	C	1.686194	-0.466986	0.069934
C81	C	1.137746	-0.930378	-0.381564
C82	C	1.637746	-0.430378	0.118436
C83	C	1.095270	-0.820614	-0.339055
C84	C	1.595270	-0.320614	0.160945
C85	C	1.141286	-0.855398	-0.385135
C86	C	1.641286	-0.355398	0.114865
C87	C	1.322959	-0.338374	-0.362072
C88	C	1.822959	0.161626	0.137928
C89	C	1.410209	-0.338380	-0.362081
C90	C	1.910209	0.161620	0.137919
C91	C	1.118252	-0.338313	-0.566797
C92	C	1.618252	0.161687	-0.066797
C93	C	1.118267	-0.338293	-0.654047
C94	C	1.618267	0.161707	-0.154047
C95	C	1.127056	-0.155157	-0.370840
C96	C	1.627056	0.344843	0.129160
C97	C	1.130824	-0.077087	-0.374585
C98	C	1.630824	0.422913	0.125415
C99	C	1.170732	-0.293277	-1.032029
C100	C	1.670732	0.206723	-0.532029
C101	C	1.170715	-0.293302	-0.950047
C102	C	1.670715	0.206698	-0.450047
C103	C	1.118335	-0.338227	-0.906900
C104	C	1.618335	0.161773	-0.406900
C105	C	1.065974	-0.383135	-0.945738
C106	C	1.565974	0.116865	-0.445738
C107	C	1.065996	-0.383113	-1.027718
C108	C	1.565996	0.116887	-0.527718
C109	C	1.065931	-0.383176	-0.774866
C110	C	1.565931	0.116824	-0.274866
C111	C	1.065909	-0.383196	-0.692880
C112	C	1.565909	0.116804	-0.192880
C113	C	1.170651	-0.293364	-0.697195
C114	C	1.670651	0.206636	-0.197195
C115	C	1.170672	-0.293342	-0.779175
C116	C	1.670672	0.206658	-0.279175
C117	C	1.118310	-0.338250	-0.818008
C118	C	1.618310	0.161750	-0.318008
C119	C	1.118227	-0.338358	-0.158102
C120	C	1.618227	0.161642	0.341898
C121	C	1.118374	-0.338180	-0.070861
C122	C	1.618374	0.161820	0.429139
H123	H	0.562662	-0.419982	-0.449084
H124	H	1.062662	0.080018	0.050916
H125	H	0.666791	-0.419969	-0.449077
H126	H	1.166791	0.080031	0.050923
H127	H	0.674561	-0.256758	-0.275043
H128	H	1.174561	0.243242	0.224957
H129	H	1.014386	-0.605858	-0.258112
H130	H	1.514386	-0.105858	0.241888
H131	H	0.413934	-0.419985	-0.449105
H132	H	0.913934	0.080015	0.050895
H133	H	0.823293	-0.256746	-0.275025
H134	H	1.323293	0.243254	0.224975
H135	H	1.196453	-0.605619	-0.440439
H136	H	1.696453	-0.105619	0.059561
C137	C	1.228291	-0.243921	-0.826635
C138	C	1.728291	0.256079	-0.326635
N139	N	1.271693	-0.206698	-0.862382
N140	N	1.771693	0.293302	-0.362382
C141	C	1.228254	-0.243970	-0.654477
C142	C	1.728254	0.256030	-0.154477
N143	N	1.271639	-0.206766	-0.622298
N144	N	1.771639	0.293234	-0.122298
C145	C	1.032529	-0.926860	-0.276234
C146	C	1.532529	-0.426860	0.223766
N147	N	0.992365	-0.896534	-0.236065
N148	N	1.492365	-0.396534	0.263935
H149	H	1.213352	-0.256739	-0.918433
H150	H	1.713352	0.243261	-0.418433
H151	H	0.421714	-0.256769	-0.275070
H152	H	0.921714	0.243231	0.224930
C153	C	1.228356	-0.243856	-1.079483
C154	C	1.728356	0.256144	-0.579483
N155	N	1.271762	-0.206632	-1.115224
N156	N	1.771762	0.293368	-0.615224
H157	H	1.190168	-0.738691	-0.434107
H158	H	1.690168	-0.238691	0.065893
C159	C	1.243307	-0.926571	-0.487250
C160	C	1.743307	-0.426571	0.012750
N161	N	1.286332	-0.896131	-0.530314
N162	N	1.786332	-0.396131	-0.030314
H163	H	1.183543	-0.825478	-0.427472
H164	H	1.683543	-0.325478	0.072528
C165	C	1.008299	-0.432626	-0.645419
C166	C	1.508299	0.067374	-0.145419
N167	N	0.964909	-0.469861	-0.609672
N168	N	1.464909	0.030139	-0.109672
H169	H	1.222175	-1.070155	-0.466072
H170	H	1.722175	-0.570155	0.033928
H171	H	1.023329	-0.419717	-0.910601
H172	H	1.523329	0.080283	-0.410601
H173	H	1.023295	-0.419746	-0.806481
H174	H	1.523295	0.080254	-0.306481
H175	H	1.023361	-0.419679	-1.059335
H176	H	1.523361	0.080321	-0.559335
H177	H	1.053012	-0.850540	-0.296719
H178	H	1.553012	-0.350540	0.203281
H179	H	0.570442	-0.256758	-0.275052
H180	H	1.070442	0.243242	0.224948
H181	H	1.040114	-1.070394	-0.283741
H182	H	1.540114	-0.570394	0.216259
H183	H	0.815510	-0.419966	-0.449057
H184	H	1.315510	0.080034	0.050943
C185	C	0.993321	-0.749441	-0.236874
C186	C	1.493321	-0.249441	0.263126
N187	N	0.950372	-0.779887	-0.193739
N188	N	1.450372	-0.279887	0.306261
