data_functionalizedCrystal
_audit_creation_method	'MofGen! by Chris Wilmer'
_symmetry_space_group_name_H-M	'P1'
_symmetry_Int_Tables_number	1
_symmetry_cell_setting	triclinic
loop_
_symmetry_equiv_pos_as_xyz
  x,y,z
_cell_length_a	13.262508
_cell_length_b	13.262402
_cell_length_c	9.198806
_cell_angle_alpha	105.914386
_cell_angle_beta	105.915142
_cell_angle_gamma	80.095424
loop_
_atom_site_label
_atom_site_type_symbol
_atom_site_fract_x
_atom_site_fract_y
_atom_site_fract_z
O1	O	0.141413	1.393260	0.485956
O2	O	0.156776	1.087749	0.371221
O3	O	-0.003661	1.248193	0.371235
O4	O	0.301850	1.232816	0.485942
O5	O	-0.003661	1.248180	0.613015
O6	O	0.156776	1.087736	0.613001
O7	O	0.141413	1.393247	0.727736
Cu8	Cu	0.149094	1.240491	0.692445
Cu9	Cu	0.149095	1.240506	0.406512
O10	O	0.301849	1.232803	0.727722
C11	C	0.155913	1.048636	0.476306
C12	C	0.153330	0.932109	0.429206
C13	C	0.152115	0.877371	0.275279
C14	C	0.149699	0.767887	0.231033
C15	C	0.148488	0.713132	0.340705
C16	C	0.149695	0.767871	0.494632
C17	C	0.152121	0.877364	0.538886
C18	C	0.148493	0.713125	0.604312
C19	C	0.149701	0.767864	0.758239
C20	C	0.152125	0.877347	0.802485
C21	C	0.153335	0.932103	0.692813
C22	C	0.146068	0.603632	0.560058
C23	C	0.146073	0.603625	0.823665
C24	C	0.148490	0.713109	0.867911
C25	C	-0.042768	1.247326	0.476319
C26	C	-0.159295	1.244748	0.429220
C27	C	-0.487778	1.237449	0.823647
C28	C	-0.378295	1.239862	0.867897
C29	C	-0.323539	1.241084	0.758232
C30	C	-0.378279	1.239891	0.604308
C31	C	-0.487772	1.237469	0.560050
C32	C	-0.323533	1.241105	0.494636
C33	C	-0.378272	1.239912	0.340712
C34	C	-0.487755	1.237491	0.296462
C35	C	-0.542510	1.236269	0.406127
C36	C	-0.214039	1.243527	0.538894
C37	C	-0.214033	1.243548	0.275297
C38	C	-0.323517	1.241134	0.231047
C39	C	0.340957	1.233671	0.622634
C40	C	0.457483	1.236248	0.669724
N41	N	0.149093	1.240488	0.893557
C42	C	0.142276	1.432361	0.622648
C43	C	0.144859	1.548887	0.669738
N44	N	0.149087	1.240517	0.205400
C45	C	0.081435	1.307855	0.965643
C46	C	0.081431	1.307871	1.133061
H47	H	0.153109	0.921961	0.186004
C48	C	0.144739	0.543400	0.944312
N49	N	0.143735	0.498031	1.035176
C50	C	0.003173	1.385790	1.216805
N51	N	-0.055774	1.444480	1.279885
C52	C	0.227343	1.162580	0.977615
N53	N	0.286283	1.103898	1.040925
H54	H	0.145086	0.559074	0.434730
H55	H	-0.368101	1.240162	0.105719
C56	C	0.003164	1.385740	0.881569
N57	N	-0.055798	1.444401	0.818242
C58	C	-0.153807	1.244895	0.154657
N59	N	-0.108438	1.245909	0.063800
H60	H	0.146520	0.623985	0.304670
H61	H	0.207019	1.182842	1.143421
H62	H	0.148716	0.723326	0.105706
C63	C	0.155941	1.052549	0.741459
N64	N	0.157886	1.143273	0.778089
H65	H	0.153118	0.921912	0.927826
C66	C	-0.153840	1.244846	0.708208
N67	N	-0.108499	1.245843	0.835747
H68	H	-0.532319	1.236510	0.171124
C69	C	0.149860	0.773331	1.037243
N70	N	0.150905	0.818690	1.164788
H71	H	-0.333735	1.240844	0.993226
C72	C	-0.662949	1.233610	0.357457
N73	N	-0.753665	1.231606	0.320803
H74	H	-0.234393	1.243048	0.794270
C75	C	-0.548015	1.236091	0.944255
N76	N	-0.593386	1.235065	1.035104
