data_functionalizedCrystal
_audit_creation_method	'MofGen! by Chris Wilmer'
_symmetry_space_group_name_H-M	'P1'
_symmetry_Int_Tables_number	1
_symmetry_cell_setting	triclinic
loop_
_symmetry_equiv_pos_as_xyz
  x,y,z
_cell_length_a	15.944551
_cell_length_b	14.519709
_cell_length_c	13.596369
_cell_angle_alpha	89.993066
_cell_angle_beta	89.999164
_cell_angle_gamma	83.589442
loop_
_atom_site_label
_atom_site_type_symbol
_atom_site_fract_x
_atom_site_fract_y
_atom_site_fract_z
O1	O	1.114698	0.118943	-0.081691
O2	O	1.448031	0.452276	0.251642
O3	O	1.781364	0.785610	0.584976
O4	O	0.870169	0.133607	-0.081716
O5	O	1.203503	0.466941	0.251618
O6	O	1.536836	0.800274	0.584951
O7	O	0.998917	-0.007975	-0.081694
O8	O	1.332250	0.325359	0.251640
O9	O	1.665583	0.658692	0.584973
O10	O	0.985950	0.260525	-0.081713
O11	O	1.319283	0.593858	0.251621
O12	O	1.652617	0.927192	0.584954
O13	O	0.998904	-0.007982	0.081889
O14	O	1.332237	0.325351	0.415222
O15	O	1.665571	0.658685	0.748556
O16	O	0.870156	0.133600	0.081867
O17	O	1.203490	0.466933	0.415201
O18	O	1.536823	0.800267	0.748534
O19	O	1.114685	0.118936	0.081892
O20	O	1.448018	0.452269	0.415225
O21	O	1.781351	0.785602	0.748559
Zn22	Zn	0.992419	0.126267	0.107852
Zn23	Zn	1.325752	0.459600	0.441185
Zn24	Zn	1.659085	0.792933	0.774519
Zn25	Zn	0.992435	0.126276	-0.107676
Zn26	Zn	1.325769	0.459610	0.225658
Zn27	Zn	1.659102	0.792943	0.558991
O28	O	0.985937	0.260518	0.081870
O29	O	1.319271	0.593851	0.415203
O30	O	1.652604	0.927184	0.748537
C31	C	0.998306	-0.042337	0.000098
C32	C	1.331639	0.290996	0.333431
C33	C	1.664973	0.624330	0.666764
C34	C	0.996495	-0.144715	0.000098
C35	C	1.329828	0.188618	0.333431
C36	C	1.663162	0.521952	0.666765
C37	C	0.838868	0.132995	0.000073
C38	C	1.172201	0.466328	0.333406
C39	C	1.505535	0.799661	0.666739
C40	C	0.745619	0.131170	0.000064
C41	C	1.078953	0.464503	0.333397
C42	C	1.412286	0.797836	0.666730
C43	C	0.989829	-0.519599	0.000072
C44	C	1.323162	-0.186266	0.333405
C45	C	1.656495	0.147067	0.666739
C46	C	0.991680	-0.415295	0.000080
C47	C	1.325013	-0.081961	0.333413
C48	C	1.658347	0.251372	0.666746
C49	C	0.993162	-0.332161	0.000086
C50	C	1.326495	0.001173	0.333419
C51	C	1.659828	0.334506	0.666753
C52	C	0.995013	-0.227849	0.000092
C53	C	1.328347	0.105484	0.333425
C54	C	1.661680	0.438817	0.666758
C55	C	0.530629	0.039048	0.000089
C56	C	0.863962	0.372382	0.333422
C57	C	1.197296	0.705715	0.666756
C58	C	0.469677	0.081830	-0.080569
C59	C	0.803011	0.415163	0.252764
C60	C	1.136344	0.748497	0.586098
C61	C	0.574889	0.127868	0.000075
C62	C	0.908222	0.461201	0.333409
C63	C	1.241555	0.794535	0.666742
C64	C	0.469687	0.081844	0.080711
C65	C	0.803020	0.415177	0.414044
C66	C	1.136353	0.748510	0.747378
C67	C	0.409971	0.124672	0.000091
C68	C	0.743305	0.458005	0.333425
C69	C	1.076638	0.791339	0.666758
C70	C	0.515165	0.170674	-0.080649
C71	C	0.848498	0.504007	0.252684
C72	C	1.181832	0.837341	0.586017
C73	C	0.515181	0.170675	0.080703
C74	C	0.848514	0.504009	0.414036
C75	C	1.181848	0.837342	0.747370
C76	C	0.454247	0.213522	0.000025
C77	C	0.787580	0.546855	0.333359
C78	C	1.120914	0.880188	0.666692
C79	C	0.669894	0.129706	0.000065
C80	C	1.003227	0.463040	0.333399
C81	C	1.336560	0.796373	0.666732
C82	C	0.314967	0.122840	0.000094
C83	C	0.648301	0.456174	0.333427
C84	C	0.981634	0.789507	0.666761
C85	C	1.145986	0.119548	0.000101
C86	C	1.479319	0.452881	0.333435
C87	C	1.812653	0.786215	0.666768
C88	C	1.239235	0.121373	0.000104
C89	C	1.572568	0.454707	0.333437
C90	C	1.905901	0.788040	0.666771
C91	C	0.986548	0.294880	0.000076
C92	C	1.319881	0.628213	0.333410
C93	C	1.653215	0.961547	0.666743
C94	C	0.988359	0.397258	0.000070
C95	C	1.321692	0.730591	0.333403
C96	C	1.655025	1.063925	0.666736
N97	N	0.992413	0.126259	0.254944
N98	N	1.325746	0.459593	0.588277
N99	N	1.659080	0.792926	0.921610
N100	N	0.992448	0.126276	-0.254767
N101	N	1.325781	0.459610	0.078566
N102	N	1.659114	0.792943	0.411899
C103	C	0.992434	0.126277	0.656235
C104	C	1.325768	0.459611	0.989568
C105	C	1.659101	0.792944	1.322901
C106	C	0.992426	0.126275	0.544583
C107	C	1.325759	0.459609	0.877917
C108	C	1.659093	0.792942	1.211250
C109	C	0.992424	0.126269	0.455593
C110	C	1.325757	0.459602	0.788926
C111	C	1.659091	0.792936	1.122259
C112	C	0.992415	0.126266	0.343934
C113	C	1.325748	0.459599	0.677268
C114	C	1.659082	0.792932	1.010601
H115	H	0.563855	-0.034665	-0.000005
H116	H	0.897188	0.298668	0.333328
H117	H	1.230522	0.632002	0.666661
Br118	Br	0.399155	0.336506	-0.000052
Br119	Br	0.732488	0.669840	0.333281
Br120	Br	1.065822	1.003173	0.666614
H121	H	0.535213	0.208216	-0.148914
H122	H	0.868546	0.541550	0.184420
H123	H	1.201879	0.874883	0.517753
H124	H	0.535361	0.208208	0.148892
H125	H	0.868695	0.541542	0.482225
H126	H	1.202028	0.874875	0.815559
Br127	Br	0.436108	0.019200	0.194362
Br128	Br	0.769441	0.352534	0.527696
Br129	Br	1.102775	0.685867	0.861029
H130	H	0.449518	0.044266	-0.148754
H131	H	0.782851	0.377599	0.184579
H132	H	1.116185	0.710933	0.517912
