data_functionalizedCrystal
_audit_creation_method	'MofGen! by Chris Wilmer'
_symmetry_space_group_name_H-M	'P1'
_symmetry_Int_Tables_number	1
_symmetry_cell_setting	triclinic
loop_
_symmetry_equiv_pos_as_xyz
  x,y,z
_cell_length_a	17.699083
_cell_length_b	10.654550
_cell_length_c	9.730223
_cell_angle_alpha	89.995747
_cell_angle_beta	89.997260
_cell_angle_gamma	96.116027
loop_
_atom_site_label
_atom_site_type_symbol
_atom_site_fract_x
_atom_site_fract_y
_atom_site_fract_z
O1	O	1.005084	-0.158805	0.114097
O2	O	0.784837	-0.179467	0.114142
O3	O	0.900024	0.013692	0.114110
O4	O	0.889897	-0.351964	0.114129
O5	O	0.900017	0.013697	-0.114470
O6	O	0.784830	-0.179462	-0.114438
O7	O	1.005077	-0.158800	-0.114483
Zn8	Zn	0.894952	-0.169130	-0.150753
Zn9	Zn	0.894962	-0.169137	0.150411
O10	O	0.889889	-0.351959	-0.114451
C11	C	0.756632	-0.178724	-0.000143
C12	C	0.672599	-0.176503	-0.000126
N13	N	0.894951	-0.169125	-0.356289
C14	C	0.899277	0.060479	-0.000180
C15	C	0.897052	0.199884	-0.000177
C16	C	0.624699	-0.289883	-0.000120
C17	C	0.545743	-0.287788	-0.000138
C18	C	0.514688	-0.172313	-0.000152
C19	C	0.562594	-0.058924	-0.000161
C20	C	0.641549	-0.061020	-0.000153
C21	C	0.244177	-0.050470	-0.000196
C22	C	0.165216	-0.048383	-0.000200
C23	C	0.148371	-0.277239	-0.000180
C24	C	0.227326	-0.279334	-0.000172
C25	C	0.275225	-0.165946	-0.000189
C26	C	0.360839	-0.168219	-0.000172
C27	C	0.429076	-0.170039	-0.000159
C28	C	1.033282	-0.159543	-0.000196
C29	C	1.117314	-0.161764	-0.000204
C30	C	0.890637	-0.398746	-0.000159
C31	C	0.892861	-0.538151	-0.000153
C32	C	0.964873	0.280556	-0.000190
C33	C	0.962778	0.411541	-0.000173
C34	C	0.825036	0.381166	-0.000135
C35	C	0.827132	0.250185	-0.000142
C36	C	0.945973	-0.083630	-0.428229
C37	C	0.945981	-0.083630	-0.572112
C38	C	0.843941	-0.254631	-0.572102
C39	C	0.843930	-0.254624	-0.428222
N40	N	0.894969	-0.169132	0.355948
H41	H	0.649978	-0.383916	-0.000108
H42	H	0.768109	0.422138	-0.000110
H43	H	0.771900	0.184497	-0.000127
C44	C	0.528439	0.068100	-0.000175
H45	H	0.568277	0.135325	-0.000189
H46	H	0.497986	0.073674	0.079534
H47	H	0.497994	0.073676	-0.079898
H48	H	1.021807	0.239606	-0.000216
H49	H	0.987527	-0.014011	-0.630682
H50	H	0.802402	-0.324245	-0.630684
H51	H	1.018004	0.477220	-0.000181
C52	C	0.261486	-0.406353	-0.000153
H53	H	0.315369	-0.391362	-0.000137
H54	H	0.245091	-0.453030	-0.079860
H55	H	0.245081	-0.453025	0.079571
C56	C	0.787805	-0.348676	-0.349082
H57	H	0.757428	-0.399609	-0.412527
H58	H	0.756063	-0.303561	-0.292965
H59	H	0.815303	-0.400896	-0.292944
H60	H	0.680549	0.031306	-0.000157
H61	H	0.987516	-0.014009	-0.369665
H62	H	0.109361	-0.369564	-0.000174
C63	C	0.493056	-0.412506	-0.000127
H64	H	0.522859	-0.481579	-0.000101
H65	H	0.461910	-0.416452	-0.079842
H66	H	0.461900	-0.416443	0.079590
H67	H	0.139935	0.045657	-0.000213
H68	H	0.283168	0.041858	-0.000211
