data_functionalizedCrystal
_audit_creation_method	'MofGen! by Chris Wilmer'
_symmetry_space_group_name_H-M	'P1'
_symmetry_Int_Tables_number	1
_symmetry_cell_setting	triclinic
loop_
_symmetry_equiv_pos_as_xyz
  x,y,z
_cell_length_a	16.959455
_cell_length_b	18.101395
_cell_length_c	16.959447
_cell_angle_alpha	90.029468
_cell_angle_beta	90.014322
_cell_angle_gamma	90.028051
loop_
_atom_site_label
_atom_site_type_symbol
_atom_site_fract_x
_atom_site_fract_y
_atom_site_fract_z
Zn1	Zn	1.208323	-0.294875	0.446913
Zn2	Zn	1.208220	-0.418728	0.314737
Zn3	Zn	1.076152	-0.294899	0.314751
Zn4	Zn	1.076091	-0.418673	0.446875
O5	O	1.142196	-0.356794	0.380819
O6	O	1.318920	-0.311318	0.429390
O7	O	1.190683	-0.402335	0.204128
O8	O	1.093753	-0.191263	0.332304
O9	O	1.318845	-0.402312	0.332280
O10	O	1.190859	-0.191246	0.429404
O11	O	1.093653	-0.311358	0.204138
O12	O	0.965533	-0.311304	0.332267
O13	O	1.093649	-0.402218	0.557491
O14	O	0.965488	-0.402241	0.429339
O15	O	1.190800	-0.311264	0.557519
O16	O	1.190624	-0.522354	0.332243
O17	O	1.093550	-0.522313	0.429325
C18	C	0.936830	-0.356769	0.380801
C19	C	0.848974	-0.356777	0.380812
C20	C	0.477497	-0.309404	0.330380
C21	C	0.477499	-0.404244	0.431304
C22	C	0.560045	-0.404234	0.431299
C23	C	0.601321	-0.356808	0.380833
C24	C	0.560050	-0.309394	0.330372
C25	C	0.601321	-0.451653	0.481754
C26	C	0.683872	-0.451644	0.481750
C27	C	0.725150	-0.404215	0.431287
C28	C	0.683874	-0.356798	0.380825
C29	C	0.725150	-0.309373	0.330359
C30	C	0.683876	-0.261951	0.279899
C31	C	0.601327	-0.261964	0.279909
C32	C	0.807698	-0.404202	0.431278
C33	C	0.807703	-0.309362	0.330351
C34	C	1.142091	-0.549204	0.380796
C35	C	1.142118	-0.631518	0.380812
C36	C	1.142291	-0.930609	0.380855
C37	C	1.081356	-0.899289	0.442088
C38	C	1.081066	-0.813671	0.441896
C39	C	1.142205	-0.782227	0.380834
C40	C	1.119658	-0.813380	0.297530
C41	C	1.119266	-0.899025	0.297896
C42	C	1.225907	-0.898956	0.402193
C43	C	1.225415	-0.813305	0.404020
C44	C	1.142158	-0.698367	0.380818
C45	C	1.142337	-1.014469	0.380866
C46	C	1.348365	-0.356819	0.380838
C47	C	1.436221	-0.356830	0.380846
C48	C	1.142229	-0.356732	0.586987
C49	C	1.142243	-0.356706	0.674844
C50	C	1.142324	-0.163632	0.380860
C51	C	1.142379	-0.081318	0.380877
C52	C	1.142209	-0.356801	0.175453
C53	C	1.142348	-0.356619	0.087597
C54	C	1.091756	-0.403984	1.046308
C55	C	1.192920	-0.309273	1.046332
C56	C	1.192899	-0.309289	0.963786
C57	C	1.142306	-0.356653	0.922497
C58	C	1.091735	-0.404002	0.963754
C59	C	1.243475	-0.261946	0.922523
C60	C	1.243456	-0.261960	0.839972
C61	C	1.192859	-0.309322	0.798681
C62	C	1.142285	-0.356672	0.839944
C63	C	1.091693	-0.404037	0.798655
C64	C	1.041115	-0.451384	0.839915
C65	C	1.041138	-0.451364	0.922464
C66	C	1.192836	-0.309342	0.716133
C67	C	1.091672	-0.404055	0.716101
H68	H	0.443888	-0.270793	0.289299
N69	N	1.037090	-0.455137	0.671580
H70	H	1.049327	-0.508050	0.685933
H71	H	1.044768	-0.447908	0.613037
H72	H	1.234114	-0.270715	1.079954
H73	H	1.284640	-0.223407	0.806384
H74	H	1.095322	-0.919836	0.504057
H75	H	0.841299	-0.442814	0.472359
N76	N	0.556803	-0.210839	0.225478
H77	H	0.571176	-0.157932	0.237840
H78	H	0.498262	-0.218120	0.233169
N79	N	1.038301	-0.925576	0.273964
H80	H	1.037235	-0.981364	0.273964
H81	H	1.025609	-0.906773	0.219361
N82	N	0.999755	-0.927869	0.423600
H83	H	0.960974	-0.907486	0.463206
H84	H	0.999711	-0.983603	0.426347
H85	H	0.841304	-0.270738	0.289259
H86	H	0.999962	-0.489914	0.956066
N87	N	0.432985	-0.455400	0.485725
H88	H	0.374428	-0.448214	0.478071
H89	H	0.447434	-0.443938	0.542199
N90	N	1.175499	-0.926481	0.235404
H91	H	1.200430	-0.882946	0.207737
H92	H	1.145680	-0.957465	0.195826
H93	H	1.271306	-0.919210	0.357595
H94	H	1.242417	-0.792941	0.465328
H95	H	1.234018	-0.270794	0.682542
N96	N	1.099744	-0.785760	0.523715
H97	H	1.108241	-0.829092	0.560232
H98	H	1.054345	-0.754874	0.543646
N99	N	1.288740	-0.784947	0.349258
H100	H	1.264277	-0.751405	0.308458
H101	H	1.315076	-0.828030	0.322092
N102	N	0.986554	-0.502474	0.795380
H103	H	0.994222	-0.495301	0.736825
H104	H	0.930111	-0.490938	0.809804
H105	H	1.019089	-0.793246	0.427762
H106	H	1.162645	-0.793014	0.250663
H107	H	1.050574	-0.442530	1.079906
N108	N	1.298044	-0.210867	0.967053
H109	H	1.290378	-0.218038	1.025607
H110	H	1.285775	-0.157978	0.952638
N111	N	0.728378	-0.502785	0.536181
H112	H	0.762648	-0.472724	0.572865
H113	H	0.762561	-0.537055	0.503941
N114	N	1.039555	-0.785054	0.273148
H115	H	1.017756	-0.752050	0.315937
H116	H	1.002730	-0.828184	0.264588
H117	H	0.567709	-0.490269	0.522835
N118	N	0.728392	-0.210800	0.225465
H119	H	0.762615	-0.240852	0.188776
H120	H	0.762624	-0.176527	0.257705
N121	N	1.253144	-0.927495	0.481284
H122	H	1.211551	-0.961237	0.504085
H123	H	1.262142	-0.884506	0.518196
