data_functionalizedCrystal
_audit_creation_method	'MofGen! by Chris Wilmer'
_symmetry_space_group_name_H-M	'P1'
_symmetry_Int_Tables_number	1
_symmetry_cell_setting	triclinic
loop_
_symmetry_equiv_pos_as_xyz
  x,y,z
_cell_length_a	12.759401
_cell_length_b	16.120444
_cell_length_c	12.759393
_cell_angle_alpha	92.863572
_cell_angle_beta	89.981425
_cell_angle_gamma	92.926867
loop_
_atom_site_label
_atom_site_type_symbol
_atom_site_fract_x
_atom_site_fract_y
_atom_site_fract_z
Zn1	Zn	1.584964	-0.331848	-0.615154
Zn2	Zn	1.575912	-0.471287	-0.448369
Zn3	Zn	1.409263	-0.331893	-0.439496
Zn4	Zn	1.400313	-0.471223	-0.624006
O5	O	1.492613	-0.401563	-0.531756
O6	O	1.730784	-0.350353	-0.593039
O7	O	1.553764	-0.452841	-0.300174
O8	O	1.440105	-0.215221	-0.455379
O9	O	1.724134	-0.452798	-0.470503
O10	O	1.569191	-0.215188	-0.584434
O11	O	1.431327	-0.350429	-0.293655
O12	O	1.261056	-0.350367	-0.463963
O13	O	1.424849	-0.452689	-0.769850
O14	O	1.254480	-0.452732	-0.599522
O15	O	1.560512	-0.350291	-0.763347
O16	O	1.545085	-0.587944	-0.479086
O17	O	1.416072	-0.587897	-0.608126
C18	C	1.219647	-0.401548	-0.531741
C19	C	1.102869	-0.401562	-0.531760
C20	C	1.051464	-0.348315	-0.595674
C21	C	0.941740	-0.348324	-0.595682
C22	C	0.934834	-0.454833	-0.467858
C23	C	1.044557	-0.454820	-0.467846
C24	C	1.478654	-0.618171	-0.545552
C25	C	1.472778	-0.710836	-0.551490
C26	C	1.523352	-0.921781	-0.501183
C27	C	1.462069	-0.880493	-0.562340
C28	C	1.468029	-0.786087	-0.556301
C29	C	1.517393	-1.016195	-0.507221
C30	C	1.766645	-0.401578	-0.531773
C31	C	1.883422	-0.401584	-0.531780
C32	C	1.492692	-0.401478	-0.805785
C33	C	1.492726	-0.401442	-0.922559
C34	C	1.506656	-0.184109	-0.517930
C35	C	1.512640	-0.091443	-0.512037
C36	C	1.428998	-0.348107	-0.974025
C37	C	1.429024	-0.348081	-1.083748
C38	C	1.556514	-0.454729	-1.090528
C39	C	1.556482	-0.454758	-0.980808
C40	C	1.492599	-0.401586	-0.258791
C41	C	1.492784	-0.401387	-0.142002
H42	H	0.887343	-0.498194	-0.415823
H43	H	1.580289	-0.886233	-0.444293
F44	F	1.099269	-0.511488	-0.399807
H45	H	1.377083	-0.304693	-0.926602
H46	H	0.899891	-0.304964	-0.647726
H47	H	1.098940	-0.304947	-0.647714
H48	H	1.608424	-0.498136	-1.137968
H49	H	1.405127	-0.916045	-0.619234
F50	F	1.361184	-0.291323	-1.138518
F51	F	1.624310	-0.511532	-0.926031
