data_functionalizedCrystal
_audit_creation_method	'MofGen! by Chris Wilmer'
_symmetry_space_group_name_H-M	'P1'
_symmetry_Int_Tables_number	1
_symmetry_cell_setting	triclinic
loop_
_symmetry_equiv_pos_as_xyz
  x,y,z
_cell_length_a	17.000383
_cell_length_b	17.019370
_cell_length_c	16.776229
_cell_angle_alpha	93.871574
_cell_angle_beta	89.989541
_cell_angle_gamma	79.506877
loop_
_atom_site_label
_atom_site_type_symbol
_atom_site_fract_x
_atom_site_fract_y
_atom_site_fract_z
O1	O	1.056070	0.028438	-0.064392
O2	O	1.556070	0.528438	0.435608
O3	O	0.824306	0.057068	-0.062417
O4	O	1.324306	0.557068	0.437583
O5	O	0.946654	-0.072526	-0.071309
O6	O	1.446654	0.427474	0.428691
O7	O	0.933722	0.158032	-0.055499
O8	O	1.433722	0.658032	0.444501
O9	O	0.946638	-0.072533	0.061267
O10	O	1.446638	0.427467	0.561267
O11	O	0.824289	0.057061	0.070159
O12	O	1.324289	0.557061	0.570159
O13	O	1.056054	0.028432	0.068185
O14	O	1.556054	0.528432	0.568185
Zn15	Zn	0.940169	0.042746	0.090221
Zn16	Zn	1.440169	0.542746	0.590221
Zn17	Zn	0.940191	0.042754	-0.084453
Zn18	Zn	1.440191	0.542754	0.415547
O19	O	0.933706	0.158026	0.077077
O20	O	1.433706	0.658026	0.577077
C21	C	0.794642	0.058602	0.003978
C22	C	1.294642	0.558602	0.503978
C23	C	0.706278	0.063174	0.004296
C24	C	1.206278	0.563174	0.504296
C25	C	0.206028	0.092697	0.006291
C26	C	0.706028	0.592697	0.506291
C27	C	0.289056	0.088395	0.005996
C28	C	0.789056	0.588395	0.505996
C29	C	0.340136	0.013720	0.000882
C30	C	0.840136	0.513720	0.500882
C31	C	0.308184	-0.056657	-0.003947
C32	C	0.808184	0.443343	0.496053
C33	C	0.225158	-0.052354	-0.003658
C34	C	0.725158	0.447646	0.496342
C35	C	0.591301	-0.002900	-0.000244
C36	C	1.091301	0.497100	0.499756
C37	C	0.674332	-0.007198	-0.000530
C38	C	1.174332	0.492802	0.499470
C39	C	0.655198	0.137855	0.009412
C40	C	1.155198	0.637855	0.509412
C41	C	0.572171	0.142151	0.009705
C42	C	1.072171	0.642151	0.509705
C43	C	0.540226	0.071774	0.004872
C44	C	1.040226	0.571774	0.504872
C45	C	0.425004	0.009321	0.000583
C46	C	0.925004	0.509321	0.500583
C47	C	0.455360	0.076174	0.005165
C48	C	0.955360	0.576174	0.505165
C49	C	0.946156	-0.101884	-0.007036
C50	C	1.446156	0.398116	0.492964
C51	C	0.944686	-0.189351	-0.013038
C52	C	1.444686	0.310649	0.486962
C53	C	0.943984	-0.230454	0.056405
C54	C	1.443984	0.269546	0.556405
C55	C	0.942608	-0.312639	0.050758
C56	C	1.442608	0.187361	0.550758
C57	C	0.941927	-0.353719	-0.024333
C58	C	1.441927	0.146281	0.475667
C59	C	0.942631	-0.312612	-0.093782
C60	C	1.442631	0.187388	0.406218
C61	C	0.944013	-0.230429	-0.088134
C62	C	1.444013	0.269571	0.411866
C63	C	0.937760	-0.601859	-0.045002
C64	C	1.437760	-0.101859	0.454998
C65	C	0.936376	-0.684047	-0.050644
C66	C	1.436376	-0.184047	0.449356
C67	C	0.936354	-0.684069	0.093897
C68	C	1.436354	-0.184069	0.593897
C69	C	0.937731	-0.601884	0.099538
C70	C	1.437731	-0.101884	0.599538
C71	C	0.938439	-0.560784	0.030089
C72	C	1.438439	-0.060784	0.530089
C73	C	0.940518	-0.437726	-0.030107
C74	C	1.440518	0.062274	0.469893
C75	C	0.939854	-0.476780	0.035864
C76	C	1.439854	0.023220	0.535864
C77	C	1.085718	0.026897	0.001788
C78	C	1.585718	0.526897	0.501788
C79	C	1.174081	0.022325	0.001465
C80	C	1.674081	0.522325	0.501465
C81	C	0.934204	0.187384	0.012802
C82	C	1.434204	0.687384	0.512802
C83	C	0.935674	0.274850	0.018799
C84	C	1.435674	0.774850	0.518799
N85	N	0.940160	0.042739	0.209432
N86	N	1.440160	0.542739	0.709432
N87	N	0.940206	0.042754	-0.203665
N88	N	1.440206	0.542754	0.296335
C89	C	0.994353	-0.014624	0.247213
C90	C	1.494353	0.485376	0.747213
C91	C	0.994357	-0.014625	0.330665
C92	C	1.494357	0.485375	0.830665
C93	C	0.940172	0.042741	0.376335
C94	C	1.440172	0.542741	0.876335
C95	C	0.885974	0.100107	0.338549
C96	C	1.385974	0.600107	0.838549
C97	C	0.885967	0.100104	0.255098
C98	C	1.385967	0.600104	0.755098
C99	C	0.886003	0.100121	0.675097
C100	C	1.386003	0.600121	1.175097
C101	C	0.886016	0.100121	0.758553
C102	C	1.386016	0.600121	1.258553
C103	C	0.994394	-0.014609	0.750664
C104	C	1.494394	0.485391	1.250664
C105	C	0.994386	-0.014612	0.667213
C106	C	1.494386	0.485388	1.167213
C107	C	0.940185	0.042751	0.629434
C108	C	1.440185	0.542751	1.129434
C109	C	0.940180	0.042751	0.538945
C110	C	1.440180	0.542751	1.038945
C111	C	0.940181	0.042746	0.466822
C112	C	1.440181	0.542746	0.966822
H113	H	0.199149	-0.109659	-0.007590
H114	H	0.699149	0.390341	0.492410
H115	H	0.938302	-0.568445	0.160685
H116	H	1.438302	-0.068445	0.660685
H117	H	0.841889	0.146838	0.795737
H118	H	1.341889	0.646838	1.295737
H119	H	0.939962	-0.471182	-0.091247
H120	H	1.439962	0.028818	0.408753
Br121	Br	1.067900	-0.092478	0.185241
Br122	Br	1.567900	0.407522	0.685241
H123	H	0.841837	0.146814	0.224338
H124	H	1.341837	0.646814	0.724338
Br125	Br	0.136712	0.194047	0.013242
Br126	Br	0.636712	0.694047	0.513242
H127	H	0.841852	0.146814	0.375738
H128	H	1.341852	0.646814	0.875738
H129	H	0.841872	0.146829	0.644343
H130	H	1.341872	0.646829	1.144343
H131	H	0.942082	-0.346067	-0.154923
H132	H	1.442082	0.153933	0.345077
H133	H	0.349780	-0.117459	-0.008116
H134	H	0.849780	0.382541	0.491884
Br135	Br	1.067953	-0.092462	0.801940
Br136	Br	1.567953	0.407538	1.301940
Br137	Br	0.547958	-0.098413	-0.006826
Br138	Br	1.047958	0.401587	0.493174
H139	H	0.530586	0.202960	0.013868
H140	H	1.030586	0.702960	0.513868
H141	H	0.935813	-0.717491	-0.111796
H142	H	1.435813	-0.217491	0.388204
Br143	Br	0.698555	0.233362	0.015966
Br144	Br	1.198555	0.733362	0.515966
Br145	Br	0.935393	-0.739851	0.188143
Br146	Br	1.435393	-0.239851	0.688143
Br147	Br	1.067902	-0.092479	0.381942
Br148	Br	1.567902	0.407521	0.881942
Br149	Br	0.743656	-0.108549	-0.007470
Br150	Br	1.243656	0.391451	0.492530
Br151	Br	0.944973	-0.174647	-0.182383
Br152	Br	1.444973	0.325353	0.317617
Br153	Br	0.332408	0.183905	0.012539
Br154	Br	0.832408	0.683905	0.512539
Br155	Br	0.944901	-0.174708	0.158320
Br156	Br	1.444901	0.325292	0.658320
Br157	Br	0.938719	-0.546091	-0.139255
Br158	Br	1.438719	-0.046091	0.360745
H159	H	0.413767	0.136974	0.009326
H160	H	0.913767	0.636974	0.509326
H161	H	0.466602	-0.051480	-0.003578
H162	H	0.966602	0.448520	0.496422
Br163	Br	1.067929	-0.092464	0.605235
Br164	Br	1.567929	0.407536	1.105235
H165	H	0.942040	-0.346102	0.107307
H166	H	1.442040	0.153898	0.607307
H167	H	0.940413	-0.443330	0.097003
H168	H	1.440413	0.056670	0.597003
