data_functionalizedCrystal
_audit_creation_method	'MofGen! by Chris Wilmer'
_symmetry_space_group_name_H-M	'P1'
_symmetry_Int_Tables_number	1
_symmetry_cell_setting	triclinic
loop_
_symmetry_equiv_pos_as_xyz
  x,y,z
_cell_length_a	12.811457
_cell_length_b	11.792241
_cell_length_c	10.868271
_cell_angle_alpha	90.005281
_cell_angle_beta	84.572363
_cell_angle_gamma	84.118185
loop_
_atom_site_label
_atom_site_type_symbol
_atom_site_fract_x
_atom_site_fract_y
_atom_site_fract_z
O1	O	1.393528	0.152863	-0.053179
O2	O	1.088042	0.169489	-0.019088
O3	O	1.248199	-0.004009	-0.036969
O4	O	1.233372	0.326361	-0.035297
O5	O	1.248185	-0.004016	-0.241613
O6	O	1.088029	0.169482	-0.223731
O7	O	1.393515	0.152856	-0.257822
Zn8	Zn	1.240770	0.161168	-0.273268
Zn9	Zn	1.240787	0.161177	-0.003642
O10	O	1.233359	0.326354	-0.239941
C11	C	1.048927	0.168554	-0.117045
C12	C	0.932394	0.165766	-0.104041
C13	C	0.713404	0.160498	-0.302731
C14	C	0.603911	0.157878	-0.290518
C15	C	0.603916	0.157897	-0.067404
C16	C	0.713408	0.160518	-0.079617
C17	C	0.768148	0.161819	-0.197284
C18	C	0.877642	0.164448	-0.209495
C19	C	0.877645	0.164459	0.013618
C20	C	0.768152	0.161839	0.025831
C21	C	1.247261	-0.046301	-0.139187
C22	C	1.244473	-0.172310	-0.138874
C23	C	1.239347	-0.403012	-0.138282
C24	C	1.242195	-0.274632	-0.138611
C25	C	1.432631	0.153791	-0.159862
C26	C	1.549163	0.156579	-0.172859
C27	C	1.234297	0.368647	-0.137721
C28	C	1.237084	0.494655	-0.138025
N29	N	1.240766	0.161161	-0.457282
C30	C	1.240782	0.161175	-0.708290
C31	C	1.240769	0.161171	-0.568611
N32	N	1.240800	0.161175	0.180371
H33	H	0.559342	0.156808	-0.376384
H34	H	0.922229	0.165542	0.099481
H35	H	0.559329	0.156818	0.028395
N36	N	0.712234	0.160488	0.146017
N37	N	0.660362	0.079114	0.176696
H38	H	0.620870	0.078160	0.261581
N39	N	0.933541	0.165801	-0.329692
N40	N	0.884643	0.164629	-0.423831
H41	H	0.924118	0.165587	-0.508724
H42	H	0.757972	0.161573	-0.398540
