data_functionalizedCrystal
_audit_creation_method	'MofGen! by Chris Wilmer'
_symmetry_space_group_name_H-M	'P1'
_symmetry_Int_Tables_number	1
_symmetry_cell_setting	triclinic
loop_
_symmetry_equiv_pos_as_xyz
  x,y,z
_cell_length_a	15.995350
_cell_length_b	19.188930
_cell_length_c	14.472310
_cell_angle_alpha	89.993787
_cell_angle_beta	89.990621
_cell_angle_gamma	83.318578
loop_
_atom_site_label
_atom_site_type_symbol
_atom_site_fract_x
_atom_site_fract_y
_atom_site_fract_z
O1	O	1.110667	0.089991	-0.076773
O2	O	0.866851	0.101105	-0.076794
O3	O	0.995795	-0.006090	-0.076765
O4	O	0.981723	0.197186	-0.076802
O5	O	0.995762	-0.006083	0.076917
O6	O	0.866818	0.101111	0.076888
O7	O	1.110634	0.089998	0.076909
Cu8	Cu	0.988723	0.095555	0.090931
Cu9	Cu	0.988762	0.095547	-0.090816
O10	O	0.981690	0.197192	0.076880
C11	C	0.835641	0.100648	0.000045
C12	C	0.742696	0.099271	0.000038
C13	C	0.404967	0.094324	0.000058
C14	C	0.452680	0.017982	0.000415
C15	C	0.549365	0.019360	0.000062
C16	C	0.572518	0.096778	0.000049
C17	C	0.531312	0.134429	-0.087714
C18	C	0.434683	0.132511	-0.087781
C19	C	0.434301	0.134095	0.086984
C20	C	0.531246	0.134077	0.088137
C21	C	0.667211	0.098169	0.000040
C22	C	0.310274	0.092936	0.000060
C23	C	0.995323	-0.032099	0.000079
C24	C	0.993955	-0.109607	0.000087
C25	C	1.069615	-0.154338	0.000097
C26	C	1.068330	-0.227165	0.000082
C27	C	0.991380	-0.255258	0.000075
C28	C	0.915710	-0.210517	0.000059
C29	C	0.916997	-0.137691	0.000065
N30	N	0.932550	-0.363410	0.052371
N31	N	0.931332	-0.432592	0.052368
C32	C	0.987497	-0.474676	0.000056
N33	N	1.044938	-0.444967	-0.052240
N34	N	1.046158	-0.375779	-0.052233
C35	C	0.989976	-0.334224	0.000069
C36	C	1.061769	-0.598375	0.000050
C37	C	1.060480	-0.671204	0.000029
C38	C	0.907859	-0.654553	0.000015
C39	C	0.909149	-0.581727	0.000027
C40	C	0.986106	-0.553643	0.000048
C41	C	1.141843	0.090454	0.000068
C42	C	1.234789	0.091831	0.000069
C43	C	0.982162	0.223201	0.000034
C44	C	0.983530	0.300709	0.000020
N45	N	0.988701	0.095560	0.218762
N46	N	0.988790	0.095537	-0.218647
C47	C	0.988761	0.095545	0.592853
C48	C	0.919535	0.152710	0.553672
C49	C	0.919694	0.152918	0.446584
C50	C	0.988731	0.095552	0.407262
C51	C	1.076037	0.111464	0.446103
C52	C	1.075648	0.111870	0.553224
C53	C	0.971460	0.022298	0.553394
C54	C	0.969454	0.022787	0.446266
C55	C	0.988719	0.095555	0.302374
C56	C	0.988778	0.095543	0.697741
H57	H	0.559796	0.108273	-0.153020
N58	N	0.428245	-0.020143	-0.078070
N59	N	0.394612	-0.075170	-0.066938
H60	H	0.377347	-0.102096	-0.122367
H61	H	0.853057	-0.233394	0.000052
N62	N	0.829255	-0.683240	0.000025
N63	N	0.778293	-0.669541	0.064804
H64	H	0.722776	-0.689803	0.064810
N65	N	0.429566	-0.020313	0.079357
N66	N	0.461273	-0.082307	0.091418
H67	H	0.444944	-0.109356	0.147172
H68	H	0.577889	-0.010236	0.062975
N69	N	0.408630	0.102786	0.170429
N70	N	0.368396	0.050774	0.166844
H71	H	0.350264	0.028656	0.225773
N72	N	1.145626	-0.272858	0.000092
N73	N	1.214329	-0.247773	0.000109
H74	H	1.268920	-0.280041	0.000118
N75	N	0.584461	-0.018025	-0.078989
N76	N	0.537538	-0.045212	-0.134074
H77	H	0.562323	-0.071616	-0.189909
N78	N	0.394198	0.204705	0.087744
N79	N	0.409129	0.245383	0.151543
H80	H	0.380803	0.295249	0.152076
H81	H	0.855384	-0.101270	0.000057
H82	H	0.854789	0.143438	0.420324
H83	H	1.124432	-0.575508	0.000063
H84	H	0.847538	-0.545305	0.000023
H85	H	1.122095	-0.707624	0.000033
N86	N	1.148229	-0.125663	0.000117
N87	N	1.215779	-0.165616	0.000124
H88	H	1.271302	-0.145364	0.000136
N89	N	0.837850	0.141007	0.586021
N90	N	0.829697	0.090402	0.638334
H91	H	0.772004	0.082135	0.661186
N92	N	0.933171	0.220511	0.587425
N93	N	0.993650	0.226913	0.640210
H94	H	1.003283	0.274796	0.664050
N95	N	0.933473	0.221119	0.414421
N96	N	0.943010	0.268709	0.471089
H97	H	0.952728	0.316883	0.448376
H98	H	1.090934	0.165288	0.578192
H99	H	1.128755	0.071875	0.579141
N100	N	1.142184	0.060617	0.414148
N101	N	1.125679	0.011969	0.362267
H102	H	1.172394	-0.023943	0.339698
N103	N	0.893320	0.003128	0.587300
N104	N	0.826249	0.041348	0.570853
H105	H	0.771057	0.027817	0.594794
N106	N	0.411866	0.098062	-0.170074
N107	N	0.467280	0.075599	-0.227056
H108	H	0.451171	0.051267	-0.285177
H109	H	0.546404	0.190533	0.093428
N110	N	1.095676	0.177711	0.412418
N111	N	1.045519	0.213314	0.359818
H112	H	1.059385	0.260103	0.336028
H113	H	0.905232	0.010711	0.420881
N114	N	1.028638	-0.033071	0.412696
N115	N	1.105320	-0.033254	0.429463
H116	H	1.147128	-0.072701	0.405754
N117	N	0.565613	0.099584	0.169582
N118	N	0.620301	0.047723	0.162849
H119	H	0.644577	0.023359	0.220368
N120	N	1.034786	-0.031066	0.585200
N121	N	1.044519	-0.042018	0.669873
H122	H	1.089244	-0.079701	0.692343
N123	N	0.393960	0.202819	-0.092782
N124	N	0.406063	0.245972	-0.030911
H125	H	0.377303	0.295626	-0.034446
N126	N	0.548772	0.205780	-0.091812
N127	N	0.591884	0.229734	-0.029949
H128	H	0.604216	0.280126	-0.032840
