data_functionalizedCrystal
_audit_creation_method	'MofGen! by Chris Wilmer'
_symmetry_space_group_name_H-M	'P1'
_symmetry_Int_Tables_number	1
_symmetry_cell_setting	triclinic
loop_
_symmetry_equiv_pos_as_xyz
  x,y,z
_cell_length_a	17.699083
_cell_length_b	17.699083
_cell_length_c	16.176319
_cell_angle_alpha	90.005533
_cell_angle_beta	89.997690
_cell_angle_gamma	96.716985
loop_
_atom_site_label
_atom_site_type_symbol
_atom_site_fract_x
_atom_site_fract_y
_atom_site_fract_z
O1	O	1.004076	-0.095699	0.068632
O2	O	0.783698	-0.108151	0.068660
O3	O	0.900113	0.008264	0.068638
O4	O	0.887661	-0.212114	0.068654
O5	O	0.900102	0.008243	-0.068855
O6	O	0.783687	-0.108172	-0.068834
O7	O	1.004065	-0.095720	-0.068861
Cu8	Cu	0.893875	-0.101948	-0.081401
Cu9	Cu	0.893888	-0.101923	0.081200
O10	O	0.887650	-0.212135	-0.068839
C11	C	0.755495	-0.107716	-0.000084
C12	C	0.671477	-0.106377	-0.000073
C13	C	0.899662	0.036451	-0.000109
C14	C	0.898323	0.120469	-0.000109
C15	C	0.622856	-0.174711	-0.000069
C16	C	0.543913	-0.173448	-0.000079
C17	C	0.513592	-0.103852	-0.000089
C18	C	0.562219	-0.035513	-0.000096
C19	C	0.641161	-0.036776	-0.000091
C20	C	0.243856	-0.030418	-0.000117
C21	C	0.164908	-0.029160	-0.000120
C22	C	0.146608	-0.167090	-0.000105
C23	C	0.225550	-0.168353	-0.000100
C24	C	0.274170	-0.100015	-0.000112
C25	C	0.359769	-0.101384	-0.000102
C26	C	0.427995	-0.102481	-0.000093
C27	C	1.032268	-0.096156	-0.000116
C28	C	1.116286	-0.097494	-0.000121
N29	N	0.893871	-0.101965	-0.195767
C30	C	0.888102	-0.240322	-0.000091
C31	C	0.889440	-0.324340	-0.000085
C32	C	0.966656	0.169090	-0.000119
C33	C	0.965394	0.248033	-0.000111
C34	C	0.895798	0.278354	-0.000100
C35	C	0.827459	0.229727	-0.000088
C36	C	0.828722	0.150785	-0.000089
C37	C	0.822364	0.548090	-0.000080
C38	C	0.821106	0.627038	-0.000081
C39	C	0.959036	0.645338	-0.000102
C40	C	0.960299	0.566396	-0.000104
C41	C	0.891961	0.517776	-0.000087
C42	C	0.893330	0.432177	-0.000094
C43	C	0.894427	0.363951	-0.000099
C44	C	0.848080	-0.056059	-0.761154
C45	C	0.848079	-0.056065	-0.674607
C46	C	0.893891	-0.101917	-0.631342
C47	C	0.939714	-0.147759	-0.674629
C48	C	0.939719	-0.147749	-0.761174
C49	C	0.939696	-0.147802	-0.325600
C50	C	0.939685	-0.147811	-0.239049
C51	C	0.848055	-0.056118	-0.239033
C52	C	0.848060	-0.056108	-0.325579
C53	C	0.893886	-0.101947	-0.368858
C54	C	0.893888	-0.101939	-0.462702
C55	C	0.893886	-0.101929	-0.537499
N56	N	0.893898	-0.101900	0.195565
H57	H	0.504328	-0.229092	-0.000075
C58	C	0.655667	-0.250330	0.000072
C59	C	0.630919	-0.291628	0.070799
C60	C	0.661117	-0.361298	0.070949
H61	H	0.709643	-0.241408	0.000118
H62	H	0.638949	-0.278508	-0.047850
H63	H	0.647641	-0.263456	0.118708
H64	H	0.576947	-0.300571	0.070768
H65	H	0.644399	-0.389476	0.023027
H66	H	0.715092	-0.352368	0.070993
H67	H	0.644324	-0.389330	0.118932
H68	H	0.810772	-0.018735	-0.639372
H69	H	1.014680	0.684934	-0.000111
C70	C	0.989463	-0.197659	-0.372432
C71	C	1.029562	-0.237833	-0.316016
C72	C	1.075407	-0.283781	-0.359130
H73	H	1.024421	-0.166681	-0.406189
H74	H	0.958399	-0.232567	-0.406184
H75	H	1.060624	-0.202929	-0.282278
H76	H	0.994623	-0.268826	-0.282257
H77	H	1.044342	-0.318688	-0.392882
H78	H	1.110360	-0.252796	-0.392886
H79	H	1.102614	-0.311049	-0.320858
C80	C	1.035839	0.533434	-0.000283
C81	C	1.040598	0.488656	-0.071031
C82	C	1.110179	0.458289	-0.071225
H83	H	1.039274	0.502971	0.047608
H84	H	1.076379	0.573676	-0.000330
H85	H	1.000069	0.448419	-0.070976
H86	H	1.037177	0.519101	-0.118933
H87	H	1.150720	0.498531	-0.071272
H88	H	1.113608	0.427830	-0.023331
H89	H	1.113421	0.427910	-0.119230
H90	H	0.977019	-0.185089	-0.639395
H91	H	0.810752	-0.018774	-0.360801
H92	H	0.283434	0.025228	-0.000127
H93	H	0.107012	-0.222734	-0.000100
H94	H	1.023330	0.144409	-0.000133
H95	H	0.140225	0.027517	-0.000128
H96	H	0.773078	0.111198	-0.000081
H97	H	0.810744	-0.018791	-0.203785
C98	C	1.039668	0.300696	-0.000170
C99	C	1.100887	0.257246	-0.000209
C100	C	1.169322	0.305732	-0.000275
H101	H	1.042160	0.331893	0.047764
H102	H	1.042075	0.331856	-0.048136
H103	H	1.098481	0.226098	0.047752
H104	H	1.098419	0.226050	-0.048140
H105	H	1.171729	0.336893	-0.048241
H106	H	1.171807	0.336927	0.047659
H107	H	1.210867	0.276259	-0.000310
H108	H	0.977029	-0.185077	-0.796412
H109	H	0.250232	-0.225025	-0.000089
H110	H	0.770792	0.254420	-0.000073
H111	H	0.680748	0.018868	-0.000095
C112	C	0.798315	-0.006195	-0.807975
C113	C	0.758206	0.033965	-0.751544
C114	C	0.712364	0.079919	-0.794642
H115	H	0.763364	-0.037168	-0.841747
H116	H	0.829384	0.028721	-0.841709
H117	H	0.727140	-0.000946	-0.717823
H118	H	0.793138	0.064953	-0.717769
H119	H	0.743432	0.114835	-0.828377
H120	H	0.677418	0.048939	-0.828413
H121	H	0.685149	0.107178	-0.756360
H122	H	0.764429	0.651721	-0.000074
H123	H	0.537526	0.021154	-0.000116
C124	C	0.748088	0.495435	-0.000118
C125	C	0.686872	0.538888	-0.000136
C126	C	0.618435	0.490405	-0.000184
H127	H	0.745603	0.464244	0.047815
H128	H	0.745670	0.464267	-0.048085
H129	H	0.689289	0.570043	0.047827
H130	H	0.689332	0.570077	-0.048065
H131	H	0.616017	0.459237	-0.048152
H132	H	0.615957	0.459217	0.047749
H133	H	0.576891	0.519881	-0.000204
H134	H	0.976994	-0.185151	-0.203825
