data_functionalizedCrystal
_audit_creation_method	'MofGen! by Chris Wilmer'
_symmetry_space_group_name_H-M	'P1'
_symmetry_Int_Tables_number	1
_symmetry_cell_setting	triclinic
loop_
_symmetry_equiv_pos_as_xyz
  x,y,z
_cell_length_a	29.839134
_cell_length_b	12.759400
_cell_length_c	12.759393
_cell_angle_alpha	89.968436
_cell_angle_beta	90.031415
_cell_angle_gamma	89.990454
loop_
_atom_site_label
_atom_site_type_symbol
_atom_site_fract_x
_atom_site_fract_y
_atom_site_fract_z
Zn1	Zn	0.686845	0.418348	0.594343
Zn2	Zn	0.686800	0.594067	0.418664
Zn3	Zn	0.611715	0.418387	0.418643
Zn4	Zn	0.611711	0.593970	0.594265
O5	O	0.649268	0.506193	0.506479
O6	O	0.749706	0.441682	0.571080
O7	O	0.676823	0.570820	0.271640
O8	O	0.621702	0.271361	0.441974
O9	O	0.749673	0.570782	0.442009
O10	O	0.676900	0.271332	0.571061
O11	O	0.621659	0.441748	0.271625
O12	O	0.548848	0.441654	0.441899
O13	O	0.621694	0.570616	0.741297
O14	O	0.548844	0.570654	0.570928
O15	O	0.676895	0.441588	0.741354
O16	O	0.676818	0.741075	0.441933
O17	O	0.621650	0.741004	0.570947
C18	C	0.532545	0.506148	0.506403
C19	C	0.482611	0.506155	0.506396
C20	C	0.649241	0.779160	0.506457
C21	C	0.649271	0.895937	0.506483
C22	C	0.649299	0.506087	0.780512
C23	C	0.649313	0.506042	0.897289
C24	C	0.172975	0.573463	0.573582
C25	C	-0.014698	0.573492	0.573629
O26	O	-0.038956	0.630671	0.630708
N27	N	-0.038174	0.506232	0.506558
C28	C	-0.014730	0.438954	0.439476
O29	O	-0.039004	0.381737	0.382437
C30	C	0.172943	0.438920	0.439435
C31	C	0.196417	0.506192	0.506503
C32	C	0.196449	0.640729	0.640645
C33	C	0.243364	0.640725	0.640628
C34	C	0.266806	0.573455	0.573549
C35	C	0.243332	0.506188	0.506486
C36	C	0.196387	0.371637	0.372359
C37	C	0.243308	0.371633	0.372357
C38	C	0.266782	0.438906	0.439424
C39	C	0.313689	0.438914	0.439391
N40	N	0.337165	0.506175	0.506461
C41	C	0.313724	0.573445	0.573540
C42	C	-0.113260	0.438978	0.439500
C43	C	-0.160178	0.438987	0.439509
C44	C	-0.160143	0.573525	0.573664
C45	C	-0.113225	0.573520	0.573649
C46	C	-0.089784	0.506239	0.506571
C47	C	0.412250	0.573432	0.573500
C48	C	0.459169	0.573425	0.573475
C49	C	0.459130	0.438884	0.439325
C50	C	0.412215	0.438895	0.439346
C51	C	0.388776	0.506172	0.506442
O52	O	0.337976	0.381757	0.382350
O53	O	0.338006	0.630636	0.630587
C54	C	0.126059	0.573467	0.573598
C55	C	0.102586	0.506200	0.506535
C56	C	0.126027	0.438930	0.439456
C57	C	0.055668	0.506210	0.506544
C58	C	0.032226	0.573480	0.573623
C59	C	0.055702	0.640741	0.640694
C60	C	0.102618	0.640737	0.640678
C61	C	0.102551	0.371669	0.372386
C62	C	0.055635	0.371680	0.372407
C63	C	0.032194	0.438950	0.439486
C64	C	0.766446	0.506239	0.506556
C65	C	0.816380	0.506258	0.506588
C66	C	0.649307	0.232160	0.506524
C67	C	0.649323	0.115383	0.506543
C68	C	0.678028	0.950801	0.439379
C69	C	0.678056	1.060525	0.439412
C70	C	0.620564	1.060511	0.573654
C71	C	0.620539	0.950789	0.573626
C72	C	0.706760	0.895949	0.372236
C73	C	0.735520	0.950814	0.305127
C74	C	0.735547	1.060538	0.305159
C75	C	0.706815	1.115397	0.372301
C76	C	0.649262	0.506223	0.233512
C77	C	0.649336	0.505972	0.116735
C78	C	0.678060	0.438850	0.952183
C79	C	0.678070	0.438812	1.061907
C80	C	0.620586	0.573167	1.061834
C81	C	0.620573	0.573198	0.952112
C82	C	0.706799	0.371694	0.897360
C83	C	0.735549	0.304498	0.952254
C84	C	0.735560	0.304460	1.061978
C85	C	0.706821	0.371618	1.116808
H86	H	0.478279	0.628211	0.628090
C87	C	0.795999	0.289844	1.185428
C88	C	0.767155	0.230595	1.122325
H89	H	0.815504	0.244240	1.222687
H90	H	0.813173	0.335629	1.142628
H91	H	0.778881	0.329832	1.233776
H92	H	0.784273	0.190612	1.073971
H93	H	0.749980	0.184791	1.165129
H94	H	0.706795	0.371719	0.808017
C95	C	0.811646	1.094140	0.254209
C96	C	0.767174	1.120806	0.231400
H97	H	0.831174	1.131330	0.208664
H98	H	0.818203	1.112071	0.324809
H99	H	0.815720	1.020933	0.244605
H100	H	0.763099	1.194012	0.241011
H101	H	0.760614	1.102882	0.160782
C102	C	0.143692	0.782089	0.655014
C103	C	0.170686	0.714684	0.714382
H104	H	0.127787	0.827748	0.700538
H105	H	0.161982	0.822205	0.609169
H106	H	0.122993	0.742025	0.615085
H107	H	0.191387	0.754748	0.754306
H108	H	0.152393	0.674564	0.760246
C109	C	0.563763	0.705973	1.050746
C110	C	0.589000	0.646990	1.122100
H111	H	0.544262	0.751546	1.087953
H112	H	0.583325	0.746179	1.007954
H113	H	0.546580	0.660193	1.007950
H114	H	0.606185	0.692770	1.164892
H115	H	0.569435	0.606781	1.164910
C116	C	0.614309	0.714536	0.828659
C117	C	0.588980	0.647057	0.891749
H118	H	0.594804	0.760126	0.791385
H119	H	0.633875	0.754721	0.871468
H120	H	0.631422	0.674520	0.780323
H121	H	0.571870	0.687073	0.940090
H122	H	0.569407	0.606868	0.848935
C123	C	-0.212948	0.297677	0.425128
C124	C	-0.185984	0.365071	0.365767
H125	H	-0.228881	0.252051	0.379598
H126	H	-0.194634	0.257526	0.470951
H127	H	-0.233621	0.337752	0.465081
H128	H	-0.165308	0.324996	0.325820
H129	H	-0.204299	0.405226	0.319926
H130	H	0.393171	0.628213	0.628139
H131	H	0.758944	0.249813	0.907603
H132	H	0.597123	0.906118	0.628269
H133	H	0.262473	0.695503	0.695244
C134	C	0.041251	0.818708	0.691586
C135	C	0.029930	0.714683	0.714434
H136	H	0.025337	0.864348	0.737108
H137	H	0.072549	0.828333	0.701186
H138	H	0.033540	0.833994	0.620970
H139	H	0.037645	0.699394	0.785049
H140	H	-0.001375	0.705053	0.704843
H141	H	0.706826	0.371569	1.206153
C142	C	-0.117914	0.706499	0.706255
C143	C	-0.087425	0.647457	0.647381
H144	H	-0.101987	0.752140	0.751782
H145	H	-0.136224	0.746636	0.660411
H146	H	-0.136204	0.660760	0.746515
H147	H	-0.069137	0.693196	0.607115
H148	H	-0.069107	0.607318	0.693231
C149	C	-0.232054	0.633252	0.633247
C150	C	-0.185916	0.647462	0.647407
H151	H	-0.247965	0.678887	0.678780
H152	H	-0.239759	0.648561	0.562641
H153	H	-0.239727	0.562672	0.648733
H154	H	-0.178242	0.718041	0.631914
H155	H	-0.178208	0.632162	0.718029
H156	H	0.177282	0.316859	0.317743
C157	C	-0.118017	0.306000	0.306890
C158	C	-0.087498	0.365022	0.365754
H159	H	-0.102113	0.260351	0.261357
H160	H	-0.136301	0.265874	0.352741
H161	H	-0.136330	0.351751	0.266639
H162	H	-0.069187	0.319271	0.406012
H163	H	-0.069206	0.405151	0.319898
H164	H	0.597172	1.105187	0.628317
H165	H	0.262391	0.316837	0.317739
H166	H	0.758915	0.906141	0.250468
C167	C	0.041160	0.320282	0.194583
C168	C	0.029843	0.297725	0.298667
H169	H	0.025241	0.274617	0.149065
H170	H	0.033454	0.390841	0.179091
H171	H	0.072460	0.310668	0.185004
H172	H	-0.001457	0.307347	0.308248
H173	H	0.037546	0.227149	0.314164
C174	C	0.416896	0.305910	0.306738
C175	C	0.386410	0.364953	0.365621
H176	H	0.400966	0.260253	0.261234
H177	H	0.435177	0.351640	0.266465
H178	H	0.435215	0.265782	0.352587
H179	H	0.368093	0.405088	0.319773
H180	H	0.368121	0.319218	0.405897
C181	C	0.155267	0.356903	0.231063
C182	C	0.128314	0.297725	0.298641
H183	H	0.171172	0.311251	0.185535
H184	H	0.136948	0.402630	0.190817
H185	H	0.175965	0.396951	0.271011
H186	H	0.107614	0.257683	0.258693
H187	H	0.146635	0.251980	0.338891
H188	H	0.478225	0.384118	0.384707
H189	H	0.706739	0.806606	0.372200
H190	H	0.121726	0.695517	0.695291
H191	H	0.706843	1.204742	0.372330
