data_functionalizedCrystal
_audit_creation_method	'MofGen! by Chris Wilmer'
_symmetry_space_group_name_H-M	'P1'
_symmetry_Int_Tables_number	1
_symmetry_cell_setting	triclinic
loop_
_symmetry_equiv_pos_as_xyz
  x,y,z
_cell_length_a	12.784905
_cell_length_b	13.262508
_cell_length_c	11.892095
_cell_angle_alpha	109.778227
_cell_angle_beta	86.511728
_cell_angle_gamma	78.993526
loop_
_atom_site_label
_atom_site_type_symbol
_atom_site_fract_x
_atom_site_fract_y
_atom_site_fract_z
O1	O	1.417125	-0.000773	-0.094248
O2	O	1.106850	0.045261	-0.080094
O3	O	1.273249	-0.135023	-0.135519
O4	O	1.250726	0.179510	-0.038823
O5	O	1.259376	-0.120012	0.057103
O6	O	1.092976	0.060271	0.112528
O7	O	1.403251	0.014237	0.098375
Zn8	Zn	1.245911	0.039637	0.136034
Zn9	Zn	1.264190	0.019860	-0.117754
O10	O	1.236852	0.194521	0.153800
C11	C	1.060260	0.055760	0.017137
C12	C	0.942108	0.064668	0.019876
C13	C	0.748959	-0.116824	-0.035940
C14	C	0.637945	-0.108460	-0.033368
C15	C	0.609064	0.089760	0.027583
C16	C	0.720078	0.081396	0.025011
C17	C	0.790022	-0.021900	-0.006750
C18	C	0.901038	-0.030263	-0.009313
C19	C	0.872155	0.167955	0.051630
C20	C	0.761141	0.176320	0.054201
C21	C	1.266326	-0.167499	-0.051502
C22	C	1.266352	-0.286631	-0.088134
C23	C	1.236171	-0.589727	0.228615
C24	C	1.236137	-0.477794	0.263034
C25	C	1.243691	-0.429998	0.175245
C26	C	1.251278	-0.494145	0.053031
C27	C	1.251303	-0.606086	0.018609
C28	C	1.258824	-0.446358	-0.034761
C29	C	1.266411	-0.510505	-0.156975
C30	C	1.266436	-0.622435	-0.191390
C31	C	1.258882	-0.670231	-0.103602
C32	C	1.258799	-0.334417	-0.000339
C33	C	1.273931	-0.350776	-0.210344
C34	C	1.273965	-0.462708	-0.244763
C35	C	1.449841	0.003738	0.001140
C36	C	1.567994	-0.005171	-0.001606
C37	C	1.243776	0.226997	0.069780
C38	C	1.243750	0.346128	0.106404
N39	N	1.233444	0.053133	0.309237
N40	N	1.276666	0.006355	-0.290960
C41	C	1.363420	-0.087617	0.502614
C42	C	1.354713	-0.078176	0.623858
C43	C	1.207319	0.081450	0.672971
C44	C	1.216026	0.072009	0.551726
C45	C	1.294080	-0.012526	0.466552
C46	C	1.302791	-0.021961	0.345307
C47	C	1.155392	0.137660	0.394420
C48	C	1.146685	0.147100	0.515664
H49	H	1.252612	-0.282197	0.099169
H50	H	1.280141	-0.514952	-0.344272
H51	H	1.258915	-0.761376	-0.131620
H52	H	1.280075	-0.311860	-0.281829
C53	C	0.709470	0.340137	0.007925
C54	C	0.684251	0.289856	0.089110
H55	H	0.661996	0.410228	0.029477
H56	H	0.781452	0.348742	0.010584
H57	H	0.702046	0.295546	-0.071342
H58	H	0.691683	0.334444	0.168377
H59	H	0.612251	0.281256	0.086463
C60	C	1.221219	-0.472884	0.467147
C61	C	1.227828	-0.407295	0.397361
H62	H	1.216103	-0.429360	0.550078
H63	H	1.159348	-0.502886	0.453672
H64	H	1.283736	-0.530880	0.445029
H65	H	1.165307	-0.349303	0.419473
H66	H	1.289705	-0.377276	0.410844
C67	C	1.371262	-0.216756	0.249029
C68	C	1.388579	-0.114906	0.251700
H69	H	1.424220	-0.274144	0.191243
H70	H	1.375983	-0.221844	0.326406
H71	H	1.301840	-0.223358	0.227606
H72	H	1.457998	-0.108300	0.273132
H73	H	1.383867	-0.109815	0.174306
C74	C	1.417865	-0.267155	0.602171
C75	C	1.430935	-0.160718	0.663499
H76	H	1.464927	-0.318115	0.626639
H77	H	1.345601	-0.270679	0.620504
H78	H	1.434223	-0.284861	0.517774
H79	H	1.414569	-0.143008	0.747895
H80	H	1.503215	-0.157191	0.645174
C81	C	1.052234	0.128809	0.820664
C82	C	1.121525	0.174356	0.766613
H83	H	0.999273	0.186166	0.878482
H84	H	1.018134	0.083953	0.760708
H85	H	1.092305	0.085431	0.859477
H86	H	1.081455	0.217727	0.727792
H87	H	1.155628	0.219231	0.826579
C88	C	0.480595	-0.183652	-0.056496
C89	C	0.592806	-0.212802	-0.065455
H90	H	0.452732	-0.248074	-0.076316
H91	H	0.451638	-0.136340	0.023611
H92	H	0.461318	-0.146787	-0.110726
H93	H	0.612084	-0.249659	-0.011218
H94	H	0.621774	-0.260132	-0.145575
C95	C	1.029508	0.243151	0.074710
C96	C	0.917296	0.272303	0.083685
H97	H	1.057374	0.307570	0.094488
H98	H	1.048794	0.206315	0.128951
H99	H	1.058457	0.195812	-0.005403
H100	H	0.888346	0.319636	0.163802
H101	H	0.898000	0.309156	0.029443
C102	C	1.229508	-0.754063	0.269075
C103	C	1.227879	-0.642268	0.325100
H104	H	1.224397	-0.786500	0.328648
H105	H	1.170427	-0.761773	0.224606
H106	H	1.294814	-0.789737	0.215989
H107	H	1.162569	-0.606592	0.378180
H108	H	1.286965	-0.634551	0.369590
H109	H	1.272605	-0.674659	-0.290904
C110	C	0.766361	-0.311916	-0.095928
C111	C	0.825848	-0.230362	-0.070851
H112	H	0.813831	-0.382010	-0.117489
H113	H	0.717629	-0.299302	-0.026489
H114	H	0.727293	-0.309756	-0.160829
H115	H	0.864911	-0.232517	-0.005944
H116	H	0.874600	-0.242980	-0.140298
C117	C	1.008825	0.296400	0.455151
C118	C	1.079167	0.220210	0.354782
H119	H	0.961776	0.347366	0.430679
H120	H	0.967929	0.258891	0.489778
H121	H	1.049067	0.334627	0.513058
H122	H	1.038925	0.181976	0.296878
H123	H	1.120067	0.257723	0.320137
C124	C	0.991592	0.194490	0.663362
C125	C	1.060895	0.240017	0.609299
H126	H	0.938635	0.251857	0.721173
H127	H	0.957489	0.149632	0.603411
H128	H	1.031655	0.151117	0.702185
H129	H	1.020833	0.283383	0.570467
H130	H	1.095001	0.284893	0.669260
C131	C	0.426060	0.190584	0.058583
C132	C	0.532170	0.203295	0.062494
H133	H	0.378590	0.260678	0.080145
H134	H	0.418649	0.146011	-0.020683
H135	H	0.408975	0.156458	0.113654
H136	H	0.549258	0.237415	0.007417
H137	H	0.539586	0.247886	0.141773
H138	H	0.957985	-0.114372	-0.035172
H139	H	1.243662	-0.338857	0.203276
H140	H	1.426982	-0.156442	0.433265
