data_functionalizedCrystal
_audit_creation_method	'MofGen! by Chris Wilmer'
_symmetry_space_group_name_H-M	'P1'
_symmetry_Int_Tables_number	1
_symmetry_cell_setting	triclinic
loop_
_symmetry_equiv_pos_as_xyz
  x,y,z
_cell_length_a	21.295420
_cell_length_b	21.295417
_cell_length_c	21.295411
_cell_angle_alpha	90.021644
_cell_angle_beta	90.024592
_cell_angle_gamma	90.026289
loop_
_atom_site_label
_atom_site_type_symbol
_atom_site_fract_x
_atom_site_fract_y
_atom_site_fract_z
Zn1	Zn	0.962355	-0.250752	0.355912
Zn2	Zn	1.295689	0.082582	0.689245
Zn3	Zn	1.629022	0.415915	1.022579
Zn4	Zn	0.962258	-0.356004	0.250637
Zn5	Zn	1.295591	-0.022670	0.583971
Zn6	Zn	1.628924	0.310663	0.917304
Zn7	Zn	0.857079	-0.250744	0.250657
Zn8	Zn	1.190412	0.082589	0.583990
Zn9	Zn	1.523745	0.415922	0.917324
Zn10	Zn	0.857048	-0.355979	0.355869
Zn11	Zn	1.190381	-0.022646	0.689202
Zn12	Zn	1.523715	0.310687	1.022536
O13	O	0.909685	-0.303370	0.303269
O14	O	1.243018	0.029964	0.636602
O15	O	1.576352	0.363297	0.969935
O16	O	1.050432	-0.264727	0.341957
O17	O	1.383765	0.068606	0.675290
O18	O	1.717098	0.401940	1.008623
O19	O	0.948277	-0.342048	0.162550
O20	O	1.281611	-0.008715	0.495884
O21	O	1.614944	0.324619	0.829217
O22	O	0.871097	-0.162656	0.264645
O23	O	1.204431	0.170677	0.597979
O24	O	1.537764	0.504011	0.931312
O25	O	1.050360	-0.342055	0.264612
O26	O	1.383693	-0.008722	0.597945
O27	O	1.717027	0.324612	0.931279
O28	O	0.948444	-0.162661	0.341976
O29	O	1.281777	0.170672	0.675309
O30	O	1.615110	0.504005	1.008642
O31	O	0.871003	-0.264714	0.162565
O32	O	1.204336	0.068619	0.495898
O33	O	1.537669	0.401952	0.829232
O34	O	0.768985	-0.264691	0.264604
O35	O	1.102318	0.068642	0.597937
O36	O	1.435652	0.401976	0.931270
O37	O	0.871045	-0.342014	0.443964
O38	O	1.204379	-0.008680	0.777297
O39	O	1.537712	0.324653	1.110631
O40	O	0.768963	-0.342006	0.341903
O41	O	1.102296	-0.008673	0.675236
O42	O	1.435629	0.324660	1.008569
O43	O	0.948414	-0.264703	0.443996
O44	O	1.281747	0.068630	0.777329
O45	O	1.615081	0.401963	1.110662
O46	O	0.948248	-0.444090	0.264570
O47	O	1.281581	-0.110756	0.597904
O48	O	1.614914	0.222577	0.931237
O49	O	0.870951	-0.444072	0.341884
O50	O	1.204284	-0.110739	0.675217
O51	O	1.537617	0.222595	1.008550
C52	C	0.746133	-0.303346	0.303251
C53	C	1.079467	0.029988	0.636584
C54	C	1.412800	0.363321	0.969918
C55	C	0.676165	-0.303351	0.303258
C56	C	1.009499	0.029983	0.636592
C57	C	1.342832	0.363316	0.969925
C58	C	0.176744	-0.263200	0.343617
C59	C	0.510077	0.070133	0.676950
C60	C	0.843411	0.403467	1.010284
C61	C	0.242486	-0.263195	0.343617
C62	C	0.575820	0.070138	0.676950
C63	C	0.909153	0.403471	1.010284
C64	C	0.275326	-0.303389	0.303283
C65	C	0.608659	0.029944	0.636617
C66	C	0.941992	0.363278	0.969950
C67	C	0.242417	-0.343602	0.262958
C68	C	0.575750	-0.010268	0.596292
C69	C	0.909084	0.323065	0.929625
C70	C	0.176676	-0.343610	0.262964
C71	C	0.510009	-0.010276	0.596297
C72	C	0.843343	0.323057	0.929631
N73	N	0.378516	-0.308125	0.248164
N74	N	0.711849	0.025209	0.581497
N75	N	1.045182	0.358542	0.914830
N76	N	0.440967	-0.308113	0.248160
N77	N	0.774300	0.025220	0.581493
N78	N	1.107634	0.358553	0.914827
C79	C	0.473400	-0.303368	0.303265
C80	C	0.806734	0.029965	0.636598
C81	C	1.140067	0.363298	0.969932
N82	N	0.441023	-0.298623	0.358375
N83	N	0.774356	0.034711	0.691708
N84	N	1.107690	0.368044	1.025041
N85	N	0.378566	-0.298631	0.358377
N86	N	0.711899	0.034703	0.691711
N87	N	1.045233	0.368036	1.025044
C88	C	0.346611	-0.303385	0.303273
C89	C	0.679944	0.029948	0.636606
C90	C	1.013278	0.363282	0.969940
C91	C	0.577587	-0.263156	0.343591
C92	C	0.910920	0.070177	0.676924
C93	C	1.244253	0.403511	1.010257
C94	C	0.643330	-0.263156	0.343592
C95	C	0.976664	0.070178	0.676925
C96	C	1.309997	0.403511	1.010258
C97	C	0.643260	-0.343559	0.262927
C98	C	0.976593	-0.010226	0.596261
C99	C	1.309926	0.323108	0.929594
C100	C	0.577517	-0.343562	0.262932
C101	C	0.910851	-0.010229	0.596265
C102	C	1.244184	0.323104	0.929598
C103	C	0.544685	-0.303358	0.303263
C104	C	0.878018	0.029976	0.636596
C105	C	1.211351	0.363309	0.969929
C106	C	0.909602	-0.466921	0.303234
C107	C	1.242936	-0.133588	0.636567
C108	C	1.576269	0.199745	0.969901
C109	C	0.909625	-0.536890	0.303240
C110	C	1.242958	-0.203556	0.636573
C111	C	1.576291	0.129777	0.969907
C112	C	0.949909	-0.569745	0.263024
C113	C	1.283242	-0.236411	0.596358
C114	C	1.616576	0.096922	0.929691
C115	C	0.949939	-0.635487	0.263038
C116	C	1.283272	-0.302154	0.596372
C117	C	1.616605	0.031180	0.929705
C118	C	0.909672	-0.668372	0.303262
C119	C	1.243006	-0.335039	0.636595
C120	C	1.576339	-0.001705	0.969928
C121	C	0.869385	-0.635509	0.343485
C122	C	1.202718	-0.302176	0.676819
C123	C	1.536052	0.031158	1.010152
C124	C	0.869361	-0.569768	0.343474
C125	C	1.202695	-0.236434	0.676808
C126	C	1.536028	0.096899	1.010141
N127	N	0.854605	-0.771635	0.308055
N128	N	1.187939	-0.438301	0.641388
N129	N	1.521272	-0.104968	0.974721
N130	N	0.854630	-0.834086	0.308061
N131	N	1.187963	-0.500753	0.641395
N132	N	1.521297	-0.167419	0.974728
C133	C	0.909743	-0.866447	0.303298
C134	C	1.243076	-0.533113	0.636631
C135	C	1.576410	-0.199780	0.969965
N136	N	0.964832	-0.833997	0.298515
N137	N	1.298165	-0.500663	0.631849
N138	N	1.631498	-0.167330	0.965182
N139	N	0.964807	-0.771540	0.298505
N140	N	1.298140	-0.438206	0.631839
N141	N	1.631473	-0.104873	0.965172
C142	C	0.909694	-0.739657	0.303278
C143	C	1.243027	-0.406324	0.636612
C144	C	1.576361	-0.072991	0.969945
C145	C	0.950063	-0.970587	0.263095
C146	C	1.283396	-0.637254	0.596429
C147	C	1.616729	-0.303921	0.929762
C148	C	0.950093	-1.036331	0.263114
C149	C	1.283427	-0.702998	0.596447
C150	C	1.616760	-0.369664	0.929781
C151	C	0.869534	-1.036352	0.343557
C152	C	1.202868	-0.703018	0.676891
C153	C	1.536201	-0.369685	1.010224
C154	C	0.869509	-0.970609	0.343542
C155	C	1.202843	-0.637276	0.676876
C156	C	1.536176	-0.303943	1.010209
C157	C	0.909773	-0.937731	0.303308
C158	C	1.243106	-0.604398	0.636641
C159	C	1.576439	-0.271064	0.969974
C160	C	1.073875	-0.303394	0.303287
C161	C	1.407208	0.029939	0.636620
C162	C	1.740542	0.363272	0.969954
C163	C	1.143843	-0.303405	0.303295
C164	C	1.477177	0.029928	0.636628
C165	C	1.810510	0.363262	0.969961
C166	C	0.909737	-0.303357	0.467459
C167	C	1.243070	0.029977	0.800792
C168	C	1.576404	0.363310	1.134126
C169	C	0.909759	-0.303351	0.537427
C170	C	1.243093	0.029982	0.870761
C171	C	1.576426	0.363316	1.204094
C172	C	0.909785	-0.139180	0.303318
C173	C	1.243118	0.194154	0.636651
C174	C	1.576452	0.527487	0.969984
C175	C	0.909827	-0.069211	0.303338
C176	C	1.243161	0.264122	0.636672
C177	C	1.576494	0.597455	0.970005
C178	C	0.909669	-0.303338	0.139717
C179	C	1.243002	0.029996	0.473051
C180	C	1.576336	0.363329	0.806384
C181	C	0.909769	-0.303166	0.069749
C182	C	1.243102	0.030167	0.403083
C183	C	1.576435	0.363501	0.736416
C184	C	0.950044	-0.263094	0.570311
C185	C	1.283377	0.070240	0.903645
C186	C	1.616710	0.403573	1.236978
C187	C	0.950043	-0.263066	0.636054
C188	C	1.283376	0.070267	0.969387
C189	C	1.616709	0.403600	1.302721
C190	C	0.909764	-0.303308	0.668910
C191	C	1.243098	0.030026	1.002243
C192	C	1.576431	0.363359	1.335576
C193	C	0.869472	-0.343568	0.636018
C194	C	1.202806	-0.010234	0.969351
C195	C	1.536139	0.323099	1.302684
C196	C	0.869470	-0.343589	0.570276
C197	C	1.202803	-0.010256	0.903610
C198	C	1.536136	0.323077	1.236943
N199	N	0.904908	-0.358375	0.772125
N200	N	1.238241	-0.025042	1.105459
N201	N	1.571574	0.308292	1.438792
N202	N	0.904914	-0.358353	0.834577
N203	N	1.238247	-0.025019	1.167910
N204	N	1.571580	0.308314	1.501243
C205	C	0.909768	-0.303244	0.866985
C206	C	1.243102	0.030090	1.200318
C207	C	1.576435	0.363423	1.533651
N208	N	0.914629	-0.248157	0.834582
N209	N	1.247962	0.085177	1.167915
N210	N	1.581296	0.418510	1.501249
N211	N	0.914626	-0.248180	0.772125
N212	N	1.247960	0.085153	1.105458
N213	N	1.581293	0.418487	1.438791
C214	C	0.909762	-0.303288	0.740195
C215	C	1.243095	0.030045	1.073529
C216	C	1.576429	0.363378	1.406862
C217	C	0.950054	-0.262953	0.971154
C218	C	1.283387	0.070380	1.304488
C219	C	1.616720	0.403713	1.637821
C220	C	0.950048	-0.262925	1.036898
C221	C	1.283382	0.070408	1.370231
C222	C	1.616715	0.403742	1.703565
C223	C	0.869481	-0.343432	1.036861
C224	C	1.202815	-0.010099	1.370194
C225	C	1.536148	0.323235	1.703527
C226	C	0.869483	-0.343455	0.971118
C227	C	1.202816	-0.010121	1.304452
C228	C	1.536150	0.323212	1.637785
C229	C	0.909773	-0.303216	0.938269
C230	C	1.243106	0.030117	1.271602
C231	C	1.576439	0.363450	1.604936
H232	H	0.149888	-0.376351	0.230128
H233	H	0.483222	-0.043017	0.563461
H234	H	0.816555	0.290316	0.896795
H235	H	0.836556	-0.543017	0.376224
H236	H	1.169890	-0.209683	0.709557
H237	H	1.503223	0.123650	1.042890
Cl238	Cl	0.536308	-0.212616	0.394293
Cl239	Cl	0.869642	0.120717	0.727627
Cl240	Cl	1.202975	0.454050	1.060960
Cl241	Cl	0.536154	-0.394099	0.212228
Cl242	Cl	0.869487	-0.060766	0.545561
Cl243	Cl	1.202821	0.272568	0.878895
H244	H	0.982846	-0.230281	0.662833
H245	H	1.316179	0.103053	0.996167
H246	H	1.649512	0.436386	1.329500
H247	H	0.982745	-0.662243	0.230290
H248	H	1.316079	-0.328910	0.563623
H249	H	1.649412	0.004424	0.896957
Cl250	Cl	0.818839	-0.394016	1.078159
Cl251	Cl	1.152172	-0.060683	1.411492
Cl252	Cl	1.485506	0.272651	1.744826
Cl253	Cl	0.283700	-0.394133	0.212256
Cl254	Cl	0.617033	-0.060800	0.545589
Cl255	Cl	0.950366	0.272533	0.878922
H256	H	0.982856	-0.230185	0.944407
H257	H	1.316190	0.103148	1.277740
H258	H	1.649523	0.436481	1.611074
H259	H	0.836675	-0.376330	0.662773
H260	H	1.170009	-0.042997	0.996107
H261	H	1.503342	0.290336	1.329440
H262	H	0.982695	-0.542977	0.230265
H263	H	1.316029	-0.209644	0.563598
H264	H	1.649362	0.123690	0.896931
H265	H	0.150016	-0.230465	0.376460
H266	H	0.483349	0.102869	0.709794
H267	H	0.816682	0.436202	1.043127
Cl268	Cl	0.818823	-0.394203	0.528934
Cl269	Cl	1.152156	-0.060870	0.862268
Cl270	Cl	1.485490	0.272464	1.195601
Cl271	Cl	1.000678	-0.929252	0.212516
Cl272	Cl	1.334011	-0.595918	0.545849
Cl273	Cl	1.667345	-0.262585	0.879182
H274	H	0.836601	-0.662288	0.376237
H275	H	1.169935	-0.328955	0.709570
H276	H	1.503268	0.004379	1.042903
Cl277	Cl	0.283856	-0.212646	0.394310
Cl278	Cl	0.617189	0.120687	0.727643
Cl279	Cl	0.950523	0.454020	1.060977
H280	H	0.670117	-0.230418	0.376431
H281	H	1.003450	0.102915	0.709765
H282	H	1.336784	0.436249	1.043098
H283	H	0.669997	-0.376290	0.230092
H284	H	1.003330	-0.042957	0.563425
H285	H	1.336664	0.290376	0.896758
H286	H	0.982902	-1.063080	0.230367
H287	H	1.316235	-0.729747	0.563700
H288	H	1.649568	-0.396414	0.897033
Cl289	Cl	1.000706	-0.212321	1.078239
Cl290	Cl	1.334040	0.121012	1.411572
Cl291	Cl	1.667373	0.454346	1.744905
Cl292	Cl	0.818840	-0.394070	0.929776
Cl293	Cl	1.152173	-0.060736	1.263109
Cl294	Cl	1.485506	0.272597	1.596443
H295	H	0.836752	-1.063126	0.376311
H296	H	1.170085	-0.729793	0.709644
H297	H	1.503418	-0.396459	1.042978
Cl298	Cl	0.818860	-0.929303	0.394099
Cl299	Cl	1.152193	-0.595970	0.727433
Cl300	Cl	1.485527	-0.262637	1.060766
H301	H	0.982850	-0.230328	0.543570
H302	H	1.316183	0.103006	0.876903
H303	H	1.649517	0.436339	1.210236
