data_functionalizedCrystal
_audit_creation_method	'MofGen! by Chris Wilmer'
_symmetry_space_group_name_H-M	'P1'
_symmetry_Int_Tables_number	1
_symmetry_cell_setting	triclinic
loop_
_symmetry_equiv_pos_as_xyz
  x,y,z
_cell_length_a	6.394989
_cell_length_b	10.654562
_cell_length_c	9.130313
_cell_angle_alpha	89.996930
_cell_angle_beta	89.998359
_cell_angle_gamma	94.506093
loop_
_atom_site_label
_atom_site_type_symbol
_atom_site_fract_x
_atom_site_fract_y
_atom_site_fract_z
O1	O	-0.293559	1.670934	-0.121886
O2	O	-0.321488	1.305753	-0.121866
O3	O	-0.003535	1.493527	-0.121877
O4	O	-0.611512	1.483160	-0.121875
O5	O	-0.003543	1.493525	0.121721
O6	O	-0.321497	1.305751	0.121732
O7	O	-0.293567	1.670932	0.121713
Cu8	Cu	-0.307533	1.488341	0.143965
Cu9	Cu	-0.307523	1.488344	-0.144119
O10	O	-0.611521	1.483158	0.121724
C11	C	-0.319436	1.258933	-0.000065
C12	C	-0.313284	1.119425	-0.000058
C13	C	-0.310419	1.053863	0.132716
C14	C	-0.304655	0.922779	0.132692
C15	C	-0.304631	0.922832	-0.132893
C16	C	-0.310379	1.053914	-0.132867
C17	C	-0.310443	1.053831	0.286050
C18	C	-0.304679	0.922748	0.286026
C19	C	0.074312	1.491476	-0.000083
C20	C	0.310638	1.485212	-0.000084
C21	C	-0.295619	1.717752	-0.000092
C22	C	-0.301772	1.857260	-0.000108
N23	N	-0.307539	1.488348	0.346588
N24	N	-0.307500	1.488346	-0.346741
C25	C	-0.166797	1.571517	0.423235
C26	C	-0.166772	1.571513	0.576572
C27	C	-0.448249	1.405169	0.576601
C28	C	-0.448262	1.405167	0.423267
C29	C	-0.004295	1.667559	0.423220
C30	C	-0.004270	1.667555	0.576556
H31	H	-0.152312	0.891545	0.333604
H32	H	0.147482	1.635435	0.624104
O33	O	0.208417	1.636953	0.368041
H34	H	0.191078	1.550151	0.300488
H35	H	-0.055186	1.759281	0.375657
H36	H	-0.040073	1.764445	0.618168
H37	H	-0.312680	1.107292	-0.240984
H38	H	-0.302266	0.869476	-0.241021
O39	O	-0.495927	0.863434	0.363985
H40	H	-0.639483	0.889176	0.306613
H41	H	-0.562846	1.337434	0.360862
O42	O	-0.600066	1.315478	0.659302
H43	H	-0.571939	1.217136	0.629888
O44	O	-0.119209	1.113098	0.364046
H45	H	0.024356	1.087368	0.306674
O46	O	-0.512236	1.095165	0.349114
H47	H	-0.614571	1.011070	0.382530
