data_functionalizedCrystal
_audit_creation_method	'MofGen! by Chris Wilmer'
_symmetry_space_group_name_H-M	'P1'
_symmetry_Int_Tables_number	1
_symmetry_cell_setting	triclinic
loop_
_symmetry_equiv_pos_as_xyz
  x,y,z
_cell_length_a	15.944499
_cell_length_b	17.038272
_cell_length_c	14.421503
_cell_angle_alpha	90.004327
_cell_angle_beta	89.989779
_cell_angle_gamma	87.294583
loop_
_atom_site_label
_atom_site_type_symbol
_atom_site_fract_x
_atom_site_fract_y
_atom_site_fract_z
O1	O	1.121742	0.100633	-0.077169
O2	O	1.621742	0.600633	0.422831
O3	O	0.878077	0.113107	-0.077158
O4	O	1.378077	0.613107	0.422842
O5	O	0.998461	-0.006945	-0.077156
O6	O	1.498461	0.493055	0.422844
O7	O	1.001357	0.220686	-0.077171
O8	O	1.501357	0.720686	0.422829
O9	O	0.998441	-0.006927	0.077067
O10	O	1.498441	0.493073	0.577067
O11	O	0.878057	0.113125	0.077065
O12	O	1.378057	0.613125	0.577065
O13	O	1.121721	0.100651	0.077055
O14	O	1.621721	0.600651	0.577055
Cu15	Cu	0.999887	0.106890	0.091142
Cu16	Cu	1.499887	0.606890	0.591142
Cu17	Cu	0.999911	0.106869	-0.091245
Cu18	Cu	1.499911	0.606869	0.408755
O19	O	1.001337	0.220704	0.077052
O20	O	1.501337	0.720704	0.577052
C21	C	0.846735	0.112606	-0.000045
C22	C	1.346735	0.612606	0.499955
C23	C	0.753378	0.111074	-0.000041
C24	C	1.253378	0.611074	0.499959
C25	C	0.466822	0.180822	-0.000060
C26	C	0.966822	0.680822	0.499940
C27	C	0.525272	0.144557	-0.076099
C28	C	1.025272	0.644557	0.423901
C29	C	0.417344	0.105512	-0.000062
C30	C	0.917344	0.605512	0.499938
C31	C	0.525237	0.144554	0.075953
C32	C	1.025237	0.644554	0.575953
C33	C	0.582448	0.108249	-0.000050
C34	C	1.082448	0.608249	0.499950
C35	C	0.474565	0.069226	-0.076165
C36	C	0.974565	0.569226	0.423835
C37	C	0.474524	0.069233	0.075956
C38	C	0.974524	0.569233	0.575956
C39	C	0.532953	0.032913	-0.000102
C40	C	1.032953	0.532913	0.499898
C41	C	0.322232	0.103937	-0.000070
C42	C	0.822232	0.603937	0.499930
C43	C	0.677559	0.109818	-0.000049
C44	C	1.177559	0.609818	0.499951
C45	C	0.995817	-0.036065	-0.000044
C46	C	1.495817	0.463935	0.499956
C47	C	0.987957	-0.122859	-0.000044
C48	C	1.487957	0.377141	0.499956
C49	C	1.060116	-0.172964	-0.000046
C50	C	1.560116	0.327036	0.499954
C51	C	1.052726	-0.254516	-0.000055
C52	C	1.552726	0.245484	0.499945
C53	C	0.973177	-0.285960	-0.000055
C54	C	1.473177	0.214040	0.499945
C55	C	0.901013	-0.235849	-0.000055
C56	C	1.401013	0.264151	0.499945
C57	C	0.908404	-0.154299	-0.000054
C58	C	1.408404	0.345701	0.499946
C59	C	0.947068	-0.531721	-0.000066
C60	C	1.447068	-0.031721	0.499934
C61	C	0.939682	-0.613278	-0.000065
C62	C	1.439682	-0.113278	0.499935
C63	C	1.091396	-0.631939	-0.000067
C64	C	1.591396	-0.131939	0.499933
C65	C	1.098780	-0.550387	-0.000059
C66	C	1.598780	-0.050387	0.499941
C67	C	1.026616	-0.500282	-0.000065
C68	C	1.526616	-0.000282	0.499935
C69	C	0.965622	-0.369319	-0.000060
C70	C	1.465622	0.130681	0.499940
C71	C	1.034172	-0.416925	-0.000066
C72	C	1.534172	0.083075	0.499934
C73	C	1.153063	0.101153	-0.000060
C74	C	1.653063	0.601153	0.499940
C75	C	1.246420	0.102684	-0.000071
C76	C	1.746420	0.602684	0.499929
C77	C	1.003981	0.249823	-0.000061
C78	C	1.503981	0.749823	0.499939
C79	C	1.011841	0.336617	-0.000067
C80	C	1.511841	0.836617	0.499933
N81	N	0.999877	0.106904	0.219423
N82	N	1.499877	0.606904	0.719423
N83	N	0.999928	0.106848	-0.219527
N84	N	1.499928	0.606848	0.280473
C85	C	0.944199	0.162391	0.469076
C86	C	1.444199	0.662391	0.969076
C87	C	1.021183	0.177557	0.530874
C88	C	1.521183	0.677557	1.030874
C89	C	0.999896	0.106885	0.408584
C90	C	1.499896	0.606885	0.908584
C91	C	0.922932	0.091738	0.530880
C92	C	1.422932	0.591738	1.030880
C93	C	0.999907	0.106869	0.591306
C94	C	1.499907	0.606869	1.091306
C95	C	1.076921	0.122086	0.469022
C96	C	1.576921	0.622086	0.969022
C97	C	0.978618	0.036236	0.469023
C98	C	1.478618	0.536236	0.969023
C99	C	1.055655	0.051372	0.530793
C100	C	1.555655	0.551372	1.030793
C101	C	0.999888	0.106897	0.303323
C102	C	1.499888	0.606897	0.803323
C103	C	0.999924	0.106857	0.696565
C104	C	1.499924	0.606857	1.196565
H105	H	0.547579	0.176427	0.140236
H106	H	1.047579	0.676427	0.640236
H107	H	0.960587	-0.023484	0.441833
H108	H	1.460587	0.476516	0.941833
H109	H	0.452126	0.037414	0.140247
H110	H	0.952126	0.537414	0.640247
H111	H	0.452322	0.037394	-0.140522
H112	H	0.952322	0.537394	0.359478
H113	H	1.142032	0.134963	0.441965
H114	H	1.642032	0.634963	0.941965
H115	H	1.039191	0.237297	0.558041
H116	H	1.539191	0.737297	1.058041
H117	H	1.102816	0.004423	0.557722
H118	H	1.602816	0.504423	1.057722
H119	H	1.124893	-0.147369	-0.000041
H120	H	1.624893	0.352631	0.499959
H121	H	0.561664	-0.029643	-0.000139
H122	H	1.061664	0.470357	0.499861
H123	H	0.897151	0.209369	0.441977
H124	H	1.397151	0.709369	0.941977
H125	H	1.111485	-0.295309	-0.000055
H126	H	1.611485	0.204691	0.499945
H127	H	0.857840	0.078933	0.558054
H128	H	1.357840	0.578933	1.058054
H129	H	1.163557	-0.524791	-0.000059
H130	H	1.663557	-0.024791	0.499941
H131	H	1.150147	-0.672743	-0.000064
H132	H	1.650147	-0.172743	0.499936
H133	H	0.547653	0.176405	-0.140385
H134	H	1.047653	0.676405	0.359615
H135	H	0.437954	0.243322	-0.000137
H136	H	0.937954	0.743322	0.499863
H137	H	0.874901	-0.638876	-0.000050
H138	H	1.374901	-0.138876	0.499950
H139	H	0.888306	-0.490935	-0.000071
H140	H	1.388306	0.009065	0.499929
H141	H	0.836243	-0.261457	-0.000061
H142	H	1.336243	0.238543	0.499939
H143	H	1.098940	-0.391320	-0.000086
H144	H	1.598940	0.108680	0.499914
H145	H	0.849644	-0.113503	-0.000052
H146	H	1.349644	0.386497	0.499948
H147	H	0.900852	-0.394930	-0.000058
H148	H	1.400852	0.105070	0.499942
