data_functionalizedCrystal
_audit_creation_method	'MofGen! by Chris Wilmer'
_symmetry_space_group_name_H-M	'P1'
_symmetry_Int_Tables_number	1
_symmetry_cell_setting	triclinic
loop_
_symmetry_equiv_pos_as_xyz
  x,y,z
_cell_length_a	6.817900
_cell_length_b	19.275516
_cell_length_c	12.200875
_cell_angle_alpha	88.649746
_cell_angle_beta	72.856407
_cell_angle_gamma	109.077597
loop_
_atom_site_label
_atom_site_type_symbol
_atom_site_fract_x
_atom_site_fract_y
_atom_site_fract_z
V1	V	-4.095076	-0.101450	0.354567
O2	O	-4.053799	0.004704	0.350996
O3	O	-4.072566	-0.200993	0.349085
O4	O	-4.064408	-0.099964	0.510600
O5	O	-4.062013	-0.097024	0.188362
V6	V	-4.573052	-0.088743	0.335059
O7	O	-4.368503	-0.129321	0.397359
O8	O	-4.749822	-0.060872	0.292266
O9	O	-4.372356	0.010800	0.340541
O10	O	-4.731727	-0.194897	0.338630
O11	O	-4.723512	-0.093169	0.501263
O12	O	-4.380514	-0.090229	0.179025
C13	C	-3.923291	-0.225257	0.342702
C14	C	-3.986290	-0.306635	0.339260
C15	C	-3.912883	-0.096384	0.548730
C16	C	-3.969263	-0.095828	0.676269
C17	C	-4.184988	0.035060	0.346921
C18	C	-4.099665	0.117966	0.350452
C19	C	-4.101598	-0.455629	0.332967
C20	C	-4.037425	-0.372718	0.336469
V21	V	-4.219181	0.252836	0.345701
O22	O	-4.145899	0.360850	0.339351
O23	O	-4.229986	0.149154	0.346427
O24	O	-4.221196	0.250153	0.507988
O25	O	-4.154750	0.259152	0.176672
V26	V	-4.649826	0.286319	0.294942
O27	O	-4.487615	0.234670	0.373883
O28	O	-4.794530	0.323312	0.238438
O29	O	-4.434188	0.380666	0.308258
O30	O	-4.830841	0.183214	0.293907
O31	O	-4.821990	0.284912	0.456586
O32	O	-4.442978	0.279667	0.146697
C33	C	-4.195381	-0.093811	0.140889
C34	C	-4.118238	-0.094364	0.013350
C35	C	-4.255553	0.397775	0.325400
C36	C	-4.152763	0.478282	0.330172
C37	C	-4.088463	0.246798	0.556548
C38	C	-4.165068	0.247331	0.684106
C39	C	-4.072446	-0.094811	0.909774
C40	C	-4.015019	-0.095377	0.779835
C41	C	-4.266766	0.268941	0.119311
C42	C	-4.171105	0.267544	-0.006943
C43	C	-4.280665	0.180538	0.758329
C44	C	-4.352683	0.181028	0.878186
C45	C	-4.309090	0.248313	0.923817
C46	C	-4.193488	0.315111	0.849584
C47	C	-4.121485	0.314620	0.729730
C48	C	-4.223628	0.200656	-0.053149
C49	C	-4.133742	0.199329	-0.171773
C50	C	-3.991345	0.264892	-0.244190
C51	C	-3.938816	0.331785	-0.197976
C52	C	-4.028690	0.333110	-0.079353
H53	H	-4.446801	0.126631	0.938612
N54	N	-4.382669	0.248795	1.046250
N55	N	-4.485876	0.189147	1.112499
H56	H	-4.537844	0.189482	1.198969
N57	N	-4.148994	0.383830	0.896223
N58	N	-4.213298	0.384248	1.003240
H59	H	-4.181870	0.432780	1.036184
H60	H	-4.027350	0.369013	0.669304
H61	H	-4.176542	0.144856	-0.209382
H62	H	-4.339567	0.147263	0.005800
H63	H	-3.985916	0.387581	-0.041744
H64	H	-3.822868	0.385164	-0.256956
N65	N	-4.325020	0.111814	0.711699
N66	N	-4.254055	0.064075	0.738912
H67	H	-4.285333	0.015539	0.705972
N68	N	-3.899563	0.263519	-0.365357
N69	N	-3.946495	0.203787	-0.406587
H70	H	-3.881684	0.202812	-0.492161
