data_functionalizedCrystal
_audit_creation_method	'MofGen! by Chris Wilmer'
_symmetry_space_group_name_H-M	'P1'
_symmetry_Int_Tables_number	1
_symmetry_cell_setting	triclinic
loop_
_symmetry_equiv_pos_as_xyz
  x,y,z
_cell_length_a	12.837943
_cell_length_b	13.339070
_cell_length_c	11.295483
_cell_angle_alpha	95.212346
_cell_angle_beta	85.461227
_cell_angle_gamma	105.229117
loop_
_atom_site_label
_atom_site_type_symbol
_atom_site_fract_x
_atom_site_fract_y
_atom_site_fract_z
O1	O	1.458416	0.264173	-0.098995
O2	O	1.152768	0.250811	-0.099002
O3	O	1.270513	0.106847	-0.098996
O4	O	1.340670	0.408137	-0.099001
O5	O	1.260165	0.119470	0.099055
O6	O	1.142420	0.263434	0.099048
O7	O	1.448068	0.276796	0.099056
Cu8	Cu	1.294299	0.271267	0.117135
Cu9	Cu	1.306537	0.256339	-0.117082
O10	O	1.330322	0.420760	0.099049
C11	C	1.107675	0.252608	0.000022
C12	C	0.988726	0.239146	0.000019
C13	C	0.794315	0.400986	0.000033
C14	C	0.682553	0.388342	0.000031
C15	C	0.653436	0.201215	0.000022
C16	C	0.765199	0.213859	0.000024
C17	C	0.835635	0.313748	0.000028
C18	C	0.947400	0.326391	0.000021
C19	C	0.918281	0.139265	0.000020
C20	C	0.806518	0.126621	0.000018
C21	C	1.253488	0.074327	0.000027
C22	C	1.218164	-0.041381	0.000022
C23	C	1.492830	-0.379696	0.000029
C24	C	1.526022	-0.270983	0.000041
C25	C	1.449060	-0.213577	0.000036
C26	C	1.338901	-0.264895	0.000019
C27	C	1.305705	-0.373618	0.000017
C28	C	1.261935	-0.207499	0.000024
C29	C	1.151776	-0.258817	0.000007
C30	C	1.118585	-0.367530	0.000004
C31	C	1.195547	-0.424936	0.000009
C32	C	1.295131	-0.098776	0.000026
C33	C	1.108006	-0.092698	0.000014
C34	C	1.074814	-0.201411	0.000002
C35	C	1.493161	0.274998	0.000029
C36	C	1.612110	0.288460	0.000024
C37	C	1.347347	0.453280	0.000023
C38	C	1.382672	0.568987	0.000021
N39	N	1.285699	0.281767	0.281871
N40	N	1.315142	0.245832	-0.281818
C41	C	1.377032	0.170190	0.531166
C42	C	1.370543	0.178133	0.655829
C43	C	1.266225	0.305590	0.655863
C44	C	1.272714	0.297647	0.531200
C45	C	1.328121	0.229946	0.468856
C46	C	1.334616	0.222009	0.344190
C47	C	1.230293	0.349460	0.344227
C48	C	1.223804	0.357403	0.468890
H49	H	1.384823	-0.057004	0.000040
H50	H	0.749154	0.045295	0.000029
N51	N	1.023377	0.434120	0.000034
H52	H	1.074232	0.438864	-0.073383
H53	H	0.980163	0.487405	0.000087
N54	N	1.164054	0.430420	0.536148
H55	H	1.198708	0.504074	0.514452
H56	H	1.086067	0.409640	0.514445
N57	N	1.575827	-0.441613	0.000027
H58	H	1.650650	-0.392611	0.000032
H59	H	1.562288	-0.482174	0.073447
N60	N	1.644826	-0.215634	0.000065
H61	H	1.688545	-0.268494	0.000066
H62	H	1.666517	-0.175333	-0.073350
N63	N	1.484853	-0.096324	0.000028
H64	H	1.452276	-0.064258	0.073437
H65	H	1.566319	-0.072611	-0.000012
N66	N	1.206486	0.378616	0.723120
H67	H	1.176488	0.415274	0.664733
H68	H	1.145195	0.337516	0.774857
N69	N	0.962845	0.045163	0.000002
H70	H	1.044335	0.068326	-0.000001
H71	H	0.933120	0.006767	0.073417
H72	H	1.379734	0.166887	0.293430
H73	H	1.190470	0.398120	0.293480
N74	N	1.159744	-0.542194	-0.000007
H75	H	1.225217	-0.570768	-0.000007
H76	H	1.111156	-0.562429	0.073411
H77	H	0.851666	0.482319	0.000035
H78	H	0.648916	0.459381	0.000039
N79	N	0.999776	-0.422892	-0.000010
H80	H	0.977999	-0.463185	0.073407
H81	H	0.956129	-0.369980	-0.000060
N82	N	0.956000	-0.256759	-0.000008
H83	H	0.941898	-0.306407	-0.073426
H84	H	0.934297	-0.296992	0.073457
N85	N	1.024994	-0.030786	0.000018
H86	H	1.038433	0.009780	-0.073397
H87	H	0.950207	-0.079850	0.000065
N88	N	0.577457	0.093488	0.000052
H89	H	0.500387	0.098722	0.000063
H90	H	0.594453	0.050149	-0.073364
N91	N	1.436801	0.097187	0.463913
H92	H	1.466808	0.060540	0.522304
H93	H	1.385446	0.043935	0.412197
N94	N	1.423307	0.113692	0.723038
H95	H	1.459393	0.069605	0.664622
H96	H	1.479211	0.161399	0.774743
