data_functionalizedCrystal
_audit_creation_method	'MofGen! by Chris Wilmer'
_symmetry_space_group_name_H-M	'P1'
_symmetry_Int_Tables_number	1
_symmetry_cell_setting	triclinic
loop_
_symmetry_equiv_pos_as_xyz
  x,y,z
_cell_length_a	21.395362
_cell_length_b	12.645330
_cell_length_c	21.395356
_cell_angle_alpha	89.980568
_cell_angle_beta	89.964230
_cell_angle_gamma	90.033572
loop_
_atom_site_label
_atom_site_type_symbol
_atom_site_fract_x
_atom_site_fract_y
_atom_site_fract_z
Zn1	Zn	0.957866	-0.421639	-0.354613
Zn2	Zn	1.457866	0.078361	0.145387
Zn3	Zn	0.957807	-0.598910	-0.249846
Zn4	Zn	1.457807	-0.098910	0.250154
Zn5	Zn	0.853095	-0.421710	-0.249814
Zn6	Zn	1.353095	0.078290	0.250186
Zn7	Zn	0.853074	-0.598910	-0.354551
Zn8	Zn	1.353074	-0.098910	0.145449
O9	O	0.905460	-0.510292	-0.302206
O10	O	1.405460	-0.010292	0.197794
O11	O	1.045536	-0.445124	-0.340754
O12	O	1.545536	0.054876	0.159246
O13	O	0.943901	-0.575434	-0.162164
O14	O	1.443901	-0.075434	0.337836
O15	O	0.867027	-0.273353	-0.263728
O16	O	1.367027	0.226647	0.236272
O17	O	1.045493	-0.575364	-0.263783
O18	O	1.545493	-0.075364	0.236217
O19	O	0.944001	-0.273301	-0.340723
O20	O	1.444001	0.226699	0.159277
O21	O	0.866970	-0.445246	-0.162140
O22	O	1.366970	0.054754	0.337860
O23	O	0.765415	-0.445246	-0.263668
O24	O	1.265415	0.054754	0.236332
O25	O	0.866990	-0.575364	-0.442237
O26	O	1.366990	-0.075364	0.057763
O27	O	0.765399	-0.575433	-0.340618
O28	O	1.265399	-0.075433	0.159382
O29	O	0.943980	-0.445124	-0.442282
O30	O	1.443980	0.054876	0.057718
O31	O	0.943880	-0.747257	-0.263724
O32	O	1.443880	-0.247257	0.236276
O33	O	0.866933	-0.747257	-0.340650
O34	O	1.366933	-0.247257	0.159350
C35	C	0.742673	-0.510348	-0.302133
C36	C	1.242673	-0.010348	0.197867
C37	C	0.673031	-0.510397	-0.302117
C38	C	1.173031	-0.010397	0.197883
C39	C	0.905415	-0.785722	-0.302197
C40	C	1.405415	-0.285722	0.197803
C41	C	0.905452	-0.903552	-0.302214
C42	C	1.405452	-0.403552	0.197786
C43	C	0.640326	-0.578276	-0.342125
C44	C	1.140326	-0.078276	0.157875
C45	C	0.574891	-0.578250	-0.342153
C46	C	1.074891	-0.078250	0.157847
C47	C	0.542163	-0.510357	-0.302162
C48	C	1.042163	-0.010357	0.197838
C49	C	0.574876	-0.442465	-0.262151
C50	C	1.074876	0.057535	0.237849
C51	C	0.640310	-0.442485	-0.262129
C52	C	1.140310	0.057515	0.237871
C53	C	0.438445	-0.501828	-0.245756
C54	C	0.938445	-0.001828	0.254244
C55	C	0.373012	-0.501815	-0.245777
C56	C	0.873012	-0.001815	0.254223
C57	C	0.340342	-0.510287	-0.302231
C58	C	0.840342	-0.010287	0.197769
C59	C	0.373114	-0.518795	-0.358665
C60	C	0.873114	-0.018795	0.141335
C61	C	0.438548	-0.518815	-0.358643
C62	C	0.938548	-0.018815	0.141357
C63	C	0.471211	-0.510326	-0.302182
C64	C	0.971211	-0.010326	0.197818
C65	C	0.236685	-0.578142	-0.342272
C66	C	0.736685	-0.078142	0.157728
C67	C	0.171248	-0.578108	-0.342301
C68	C	0.671248	-0.078108	0.157699
C69	C	0.171235	-0.442328	-0.262294
C70	C	0.671235	0.057672	0.237706
C71	C	0.236670	-0.442356	-0.262271
C72	C	0.736670	0.057644	0.237729
C73	C	0.269391	-0.510268	-0.302259
C74	C	0.769391	-0.010268	0.197741
C75	C	0.857245	-1.071160	-0.350758
C76	C	1.357245	-0.571160	0.149242
C77	C	0.856998	-0.948600	-0.350602
C78	C	1.356998	-0.448600	0.149398
C79	C	0.887583	-0.948144	-0.236177
C80	C	1.387583	-0.448144	0.263823
C81	C	0.887289	-1.070742	-0.236472
C82	C	1.387289	-0.570742	0.263528
C83	C	0.971824	-1.070613	-0.319173
C84	C	1.471824	-0.570613	0.180827
C85	C	0.971417	-0.948006	-0.320616
C86	C	1.471417	-0.448006	0.179384
C87	C	1.068884	-0.510236	-0.302279
C88	C	1.568884	-0.010236	0.197721
C89	C	1.138525	-0.510213	-0.302311
C90	C	1.638525	-0.010213	0.197689
C91	C	0.905489	-0.510236	-0.465629
C92	C	1.405489	-0.010236	0.034371
C93	C	0.905501	-0.510212	-0.535271
C94	C	1.405501	-0.010212	-0.035271
C95	C	0.905523	-0.233787	-0.302228
C96	C	1.405523	0.266213	0.197772
C97	C	0.905550	-0.115957	-0.302238
C98	C	1.405550	0.384043	0.197762
C99	C	0.945630	-0.577779	-1.037080
C100	C	1.445630	-0.077779	-0.537080
C101	C	0.945618	-0.577813	-0.971645
C102	C	1.445618	-0.077813	-0.471645
C103	C	0.905561	-0.510044	-0.938909
C104	C	1.405561	-0.010044	-0.438909
C105	C	0.865501	-0.442257	-0.971615
C106	C	1.365501	0.057743	-0.471615
C107	C	0.865509	-0.442232	-1.037049
C108	C	1.365509	0.057768	-0.537049
C109	C	0.900623	-0.414574	-0.835246
C110	C	1.400623	0.085426	-0.335246
C111	C	0.900619	-0.414597	-0.769813
C112	C	1.400619	0.085403	-0.269813
C113	C	0.905533	-0.510119	-0.737088
C114	C	1.405533	-0.010119	-0.237088
C115	C	0.910463	-0.605623	-0.769804
C116	C	1.410463	-0.105623	-0.269804
C117	C	0.910471	-0.605599	-0.835239
C118	C	1.410471	-0.105599	-0.335239
C119	C	0.905548	-0.510063	-0.867957
C120	C	1.405548	-0.010063	-0.367957
C121	C	0.945575	-0.577945	-0.633438
C122	C	1.445575	-0.077945	-0.133438
C123	C	0.945560	-0.577980	-0.568001
C124	C	1.445560	-0.077980	-0.068001
C125	C	0.865445	-0.442415	-0.567973
C126	C	1.365445	0.057585	-0.067973
C127	C	0.865458	-0.442389	-0.633408
C128	C	1.365458	0.057611	-0.133408
C129	C	0.905526	-0.510152	-0.666137
C130	C	1.405526	-0.010152	-0.166137
C131	C	0.905468	-0.510271	-0.139418
C132	C	1.405468	-0.010271	0.360582
C133	C	0.905577	-0.509996	-0.069777
C134	C	1.405577	-0.009996	0.430223
H135	H	0.666964	-0.633574	-0.374687
H136	H	1.166964	-0.133574	0.125313
C137	C	0.538908	-0.652858	-0.386200
C138	C	1.038908	-0.152858	0.113800
H139	H	0.567767	-0.693290	-0.410021
H140	H	1.067767	-0.193290	0.089979
H141	H	0.513445	-0.612304	-0.413536
H142	H	1.013445	-0.112304	0.086464
H143	H	0.513320	-0.699006	-0.362222
H144	H	1.013320	-0.199006	0.137778
H145	H	0.832892	-0.387033	-1.063671
H146	H	1.332892	0.112967	-0.563671
C147	C	0.272650	-0.367698	-0.218258
C148	C	0.772650	0.132302	0.281742
H149	H	0.316307	-0.377428	-0.223976
H150	H	0.816307	0.122572	0.276024
H151	H	0.261880	-0.383110	-0.176148
H152	H	0.761880	0.116890	0.323852
H153	H	0.261968	-0.296485	-0.227508
H154	H	0.761968	0.203515	0.272492
H155	H	0.465040	-0.494925	-0.199781
H156	H	0.965040	0.005075	0.300219
H157	H	0.914466	-0.683406	-0.743161
H158	H	1.414466	-0.183406	-0.243161
H159	H	0.984893	-0.918857	-0.369216
H160	H	1.484893	-0.418857	0.130784
H161	H	0.896662	-0.336777	-0.861885
H162	H	1.396662	0.163223	-0.361885
C163	C	0.933599	-0.908724	-0.185999
C164	C	1.433599	-0.408724	0.314001
H165	H	0.921932	-0.936627	-0.146440
H166	H	1.421932	-0.436627	0.353560
H167	H	0.932599	-0.833671	-0.184438
H168	H	1.432599	-0.333671	0.315562
H169	H	0.974656	-0.931576	-0.196158
H170	H	1.474656	-0.431576	0.303842
H171	H	0.839642	-0.917552	-0.221575
H172	H	1.339642	-0.417552	0.278425
H173	H	0.832885	-0.387080	-0.944957
H174	H	1.332885	0.112920	-0.444957
C175	C	0.932751	-1.110789	-0.185968
C176	C	1.432751	-0.610789	0.314032
H177	H	0.932882	-1.185917	-0.185809
H178	H	1.432882	-0.685917	0.314191
H179	H	0.919762	-1.085603	-0.146207
H180	H	1.419762	-0.585603	0.353793
H181	H	0.973660	-1.085560	-0.194740
H182	H	1.473660	-0.585560	0.305260
C183	C	0.474597	-0.528168	-0.420713
C184	C	0.974597	-0.028168	0.079287
H185	H	0.518245	-0.526975	-0.412611
H186	H	1.018245	-0.026975	0.087389
H187	H	0.463928	-0.470560	-0.447132
H188	H	0.963928	0.029440	0.052868
H189	H	0.463864	-0.592756	-0.440684
H190	H	0.963864	-0.092756	0.059316
C191	C	0.821380	-0.367871	-0.531975
C192	C	1.321380	0.132129	-0.031975
H193	H	0.797525	-0.327499	-0.560823
H194	H	1.297525	0.172501	-0.060823
H195	H	0.845352	-0.321681	-0.506462
H196	H	1.345352	0.178319	-0.006462
H197	H	0.794066	-0.408453	-0.506435
H198	H	1.294066	0.091547	-0.006435
C199	C	0.135242	-0.367633	-0.218312
C200	C	0.635242	0.132367	0.281688
H201	H	0.091587	-0.377342	-0.224055
H202	H	0.591587	0.122658	0.275945
H203	H	0.146012	-0.296435	-0.227555
H204	H	0.646012	0.203565	0.272445
H205	H	0.145913	-0.383051	-0.176190
H206	H	0.645913	0.116949	0.323810
C207	C	0.993846	-1.112270	-0.383121
C208	C	1.493846	-0.612270	0.116879
H209	H	0.962823	-1.157710	-0.400092
H210	H	1.462823	-0.657710	0.099908
H211	H	1.031757	-1.150378	-0.378063
H212	H	1.531757	-0.650378	0.121937
H213	H	1.000528	-1.054415	-0.410668
H214	H	1.500528	-0.554415	0.089332
H215	H	0.838843	-1.099454	-0.222129
H216	H	1.338843	-0.599454	0.277871
C217	C	0.989621	-0.652543	-0.532034
C218	C	1.489621	-0.152543	-0.032034
H219	H	1.013488	-0.692886	-0.560900
H220	H	1.513488	-0.192886	-0.060900
H221	H	0.965646	-0.698759	-0.506493
H222	H	1.465646	-0.198759	-0.006493
H223	H	1.016925	-0.611977	-0.506525
H224	H	1.516925	-0.111977	-0.006525
C225	C	0.821407	-0.367814	-0.669377
C226	C	1.321407	0.132186	-0.169377
H227	H	0.797551	-0.327451	-0.640511
H228	H	1.297551	0.172549	-0.140511
H229	H	0.794102	-0.408363	-0.694889
H230	H	1.294102	0.091637	-0.194889
H231	H	0.845393	-0.321602	-0.694916
H232	H	1.345393	0.178398	-0.194916
H233	H	0.896608	-0.336832	-0.743181
H234	H	1.396608	0.163168	-0.243181
H235	H	0.978243	-0.632998	-0.945017
H236	H	1.478243	-0.132998	-0.445017
C237	C	0.135269	-0.652774	-0.386313
C238	C	0.635269	-0.152774	0.113687
H239	H	0.091612	-0.643028	-0.380605
H240	H	0.591612	-0.143028	0.119395
H241	H	0.145949	-0.723984	-0.377066
H242	H	0.645949	-0.223984	0.122934
H243	H	0.146044	-0.637358	-0.428425
H244	H	0.646044	-0.137358	0.071575
C245	C	0.989693	-0.652332	-1.073078
C246	C	1.489693	-0.152332	-0.573078
H247	H	1.013541	-0.692715	-1.044229
H248	H	1.513541	-0.192715	-0.544229
H249	H	1.017005	-0.611769	-1.098625
H250	H	1.517005	-0.111769	-0.598625
H251	H	0.965711	-0.698527	-1.098584
H252	H	1.465711	-0.198527	-0.598584
C253	C	0.337189	-0.528104	-0.420770
C254	C	0.837189	-0.028104	0.079230
H255	H	0.366077	-0.533177	-0.454374
H256	H	0.866077	-0.033177	0.045626
H257	H	0.311700	-0.467350	-0.426345
H258	H	0.811700	0.032650	0.073655
H259	H	0.311631	-0.589547	-0.419906
H260	H	0.811631	-0.089547	0.080094
C261	C	0.915885	-0.710643	-0.871224
C262	C	1.415885	-0.210643	-0.371224
H263	H	0.918806	-0.767541	-0.842367
H264	H	1.418806	-0.267541	-0.342367
H265	H	0.952205	-0.709245	-0.896771
H266	H	1.452205	-0.209245	-0.396771
H267	H	0.879971	-0.719957	-0.896728
H268	H	1.379971	-0.219957	-0.396728
H269	H	0.346335	-0.494895	-0.199825
H270	H	0.846335	0.005105	0.300175
C271	C	0.791284	-1.112918	-0.335792
C272	C	1.291284	-0.612918	0.164208
H273	H	0.793055	-1.157531	-0.300102
H274	H	1.293055	-0.657531	0.199898
H275	H	0.775895	-1.151928	-0.370463
H276	H	1.275895	-0.651928	0.129537
H277	H	0.764209	-1.055048	-0.327565
H278	H	1.264209	-0.555048	0.172435
C279	C	0.272684	-0.652825	-0.386263
C280	C	0.772684	-0.152825	0.113737
H281	H	0.316338	-0.643125	-0.380515
H282	H	0.816338	-0.143125	0.119485
H283	H	0.262009	-0.637399	-0.428379
H284	H	0.762009	-0.137399	0.071621
H285	H	0.261918	-0.724033	-0.377026
H286	H	0.761918	-0.224033	0.122974
H287	H	0.548225	-0.387184	-0.229591
H288	H	1.048225	0.112816	0.270409
C289	C	0.676287	-0.367821	-0.218115
C290	C	1.176287	0.132179	0.281885
H291	H	0.647427	-0.327384	-0.194298
H292	H	1.147427	0.172616	0.305702
H293	H	0.701861	-0.321698	-0.242118
H294	H	1.201861	0.178302	0.257882
H295	H	0.701765	-0.408329	-0.190762
H296	H	1.201765	0.091671	0.309238
H297	H	0.868177	-0.918449	-0.399567
H298	H	1.368177	-0.418449	0.100433
C299	C	0.872146	-1.111025	-0.417110
C300	C	1.372146	-0.611025	0.082890
H301	H	0.907965	-1.155337	-0.415820
H302	H	1.407965	-0.655337	0.084180
H303	H	0.880114	-1.052403	-0.443728
H304	H	1.380114	-0.552403	0.056272
H305	H	0.837537	-1.149993	-0.432708
H306	H	1.337537	-0.649993	0.067292
C307	C	1.022597	-0.906592	-0.276349
C308	C	1.522597	-0.406592	0.223651
H309	H	1.004323	-0.861450	-0.245927
H310	H	1.504323	-0.361450	0.254073
H311	H	1.052807	-0.868215	-0.299720
H312	H	1.552807	-0.368215	0.200280
H313	H	1.042227	-0.964572	-0.256074
H314	H	1.542227	-0.464572	0.243926
H315	H	0.807865	-0.919387	-0.339381
H316	H	1.307865	-0.419387	0.160619
H317	H	1.007813	-1.099578	-0.283834
H318	H	1.507813	-0.599578	0.216166
H319	H	0.978200	-0.633125	-0.660087
H320	H	1.478200	-0.133125	-0.160087
