data_functionalizedCrystal
_audit_creation_method	'MofGen! by Chris Wilmer'
_symmetry_space_group_name_H-M	'P1'
_symmetry_Int_Tables_number	1
_symmetry_cell_setting	triclinic
loop_
_symmetry_equiv_pos_as_xyz
  x,y,z
_cell_length_a	14.908520
_cell_length_b	14.908610
_cell_length_c	14.908308
_cell_angle_alpha	89.826017
_cell_angle_beta	96.360765
_cell_angle_gamma	89.796704
loop_
_atom_site_label
_atom_site_type_symbol
_atom_site_fract_x
_atom_site_fract_y
_atom_site_fract_z
Zn1	Zn	-0.470677	-1.316647	-0.613097
Zn2	Zn	0.029323	-0.816647	-0.113097
Zn3	Zn	-0.613316	-1.316545	-0.470461
Zn4	Zn	-0.113316	-0.816545	0.029539
Zn5	Zn	-0.453349	-1.176017	-0.453154
Zn6	Zn	0.046651	-0.676017	0.046846
Zn7	Zn	-0.612237	-1.157638	-0.612051
Zn8	Zn	-0.112237	-0.657638	-0.112051
O9	O	-0.537395	-1.241712	-0.537191
O10	O	-0.037395	-0.741712	-0.037191
O11	O	-0.497302	-1.441990	-0.601857
O12	O	0.002698	-0.941990	-0.101857
O13	O	-0.585296	-1.305552	-0.341973
O14	O	-0.085296	-0.805552	0.158027
O15	O	-0.329458	-1.202406	-0.467565
O16	O	0.170542	-0.702406	0.032435
O17	O	-0.602099	-1.441916	-0.497063
O18	O	-0.102099	-0.941916	0.002937
O19	O	-0.342189	-1.305726	-0.585075
O20	O	0.157811	-0.805726	-0.085075
O21	O	-0.467769	-1.202307	-0.329257
O22	O	0.032231	-0.702307	0.170743
O23	O	-0.466723	-1.048222	-0.466551
O24	O	0.033277	-0.548222	0.033449
O25	O	-0.600259	-1.171082	-0.738383
O26	O	-0.100259	-0.671082	-0.238383
O27	O	-0.583457	-1.034719	-0.583292
O28	O	-0.083457	-0.534719	-0.083292
O29	O	-0.496256	-1.287905	-0.739151
O30	O	0.003744	-0.787905	-0.239151
O31	O	-0.739363	-1.287732	-0.496049
O32	O	-0.239363	-0.787732	0.003951
O33	O	-0.738570	-1.170984	-0.600074
O34	O	-0.238570	-0.670984	-0.100074
C35	C	-0.523093	-1.008967	-0.522930
C36	C	-0.023093	-0.508967	-0.022930
C37	C	-0.516997	-0.909395	-0.516852
C38	C	-0.016997	-0.409395	-0.016852
C39	C	-0.447549	-0.776056	-0.447594
C40	C	0.052451	-0.276056	0.052406
C41	C	-0.453272	-0.869613	-0.453301
C42	C	0.046728	-0.369613	0.046699
C43	C	-0.575002	-0.855612	-0.574702
C44	C	-0.075002	-0.355612	-0.074702
C45	C	-0.569280	-0.762055	-0.568995
C46	C	-0.069280	-0.262055	-0.068995
C47	C	-0.505552	-0.722280	-0.505438
C48	C	-0.005552	-0.222280	-0.005438
C49	C	-0.499834	-0.628721	-0.499727
C50	C	0.000166	-0.128721	0.000273
C51	C	-0.621560	-0.614722	-0.621131
C52	C	-0.121560	-0.114722	-0.121131
C53	C	-0.627283	-0.708280	-0.626838
C54	C	-0.127283	-0.208280	-0.126838
C55	C	-0.771689	-1.227376	-0.549847
C56	C	-0.271689	-0.727376	-0.049847
C57	C	-0.871928	-1.221323	-0.555297
C58	C	-0.371928	-0.721323	-0.055297
C59	C	-1.061064	-1.331630	-0.457316
C60	C	-0.561064	-0.831630	0.042684
C61	C	-1.155247	-1.325946	-0.462434
C62	C	-0.655247	-0.825946	0.037566
C63	C	-1.154479	-1.204275	-0.570655
C64	C	-0.654479	-0.704275	-0.070655
C65	C	-1.060296	-1.209959	-0.565537
C66	C	-0.560296	-0.709959	-0.065537
C67	C	-1.013591	-1.273638	-0.508865
C68	C	-0.513591	-0.773638	-0.008865
C69	C	-0.919406	-1.279317	-0.503743
C70	C	-0.419406	-0.779317	-0.003743
C71	C	-0.918641	-1.157651	-0.611968
C72	C	-0.418641	-0.657651	-0.111968
C73	C	-1.012824	-1.151967	-0.617086
C74	C	-0.512824	-0.651967	-0.117086
C75	C	-0.302189	-1.256127	-0.524506
C76	C	0.197811	-0.756127	-0.024506
C77	C	-0.201958	-1.262270	-0.519100
C78	C	0.298042	-0.762270	-0.019100
C79	C	-0.550070	-1.227455	-0.772402
C80	C	-0.050070	-0.727455	-0.272402
C81	C	-0.555471	-1.221380	-0.872635
C82	C	-0.055471	-0.721380	-0.372635
C83	C	-0.551745	-0.475367	-0.551500
C84	C	-0.051745	0.024633	-0.051500
C85	C	-0.557840	-0.574939	-0.557577
C86	C	-0.057840	-0.074939	-0.057577
C87	C	-0.457301	-1.331610	-1.061784
C88	C	0.042699	-0.831610	-0.561784
C89	C	-0.462373	-1.325905	-1.155962
C90	C	0.037627	-0.825905	-0.655962
C91	C	-0.570682	-1.204260	-1.155170
C92	C	-0.070682	-0.704260	-0.655170
C93	C	-0.565610	-1.209966	-1.060992
C94	C	-0.065610	-0.709966	-0.560992
C95	C	-0.508919	-1.273643	-1.014303
C96	C	-0.008919	-0.773643	-0.514303
C97	C	-0.503852	-1.279352	-0.920124
C98	C	-0.003852	-0.779352	-0.420124
C99	C	-0.612156	-1.157704	-0.919333
C100	C	-0.112156	-0.657704	-0.419333
C101	C	-0.617228	-1.151999	-1.013510
C102	C	-0.117228	-0.651999	-0.513510
C103	C	-0.524707	-1.255968	-0.302894
C104	C	-0.024707	-0.755968	0.197106
C105	C	-0.519063	-1.262233	-0.202658
C106	C	-0.019063	-0.762233	0.297342
H107	H	-0.626882	-0.888013	-0.626450
H108	H	-0.126882	-0.388013	-0.126450
Br109	Br	-0.713771	-0.762268	-0.713084
Br110	Br	-0.213771	-0.262268	-0.213084
H111	H	-0.420338	-1.373105	-1.194618
H112	H	0.079662	-0.873105	-0.694618
Br113	Br	-0.856021	-1.365732	-0.426826
Br114	Br	-0.356021	-0.865732	0.073174
H115	H	-1.050864	-1.100124	-0.663229
H116	H	-0.550864	-0.600124	-0.163229
Br117	Br	-0.854208	-1.078928	-0.681914
Br118	Br	-0.354208	-0.578928	-0.181914
Br119	Br	-0.997672	-1.418032	-0.380389
Br120	Br	-0.497672	-0.918032	0.119611
H121	H	-0.616837	-1.152417	-1.193201
H122	H	-0.116837	-0.652417	-0.693201
H123	H	-0.654189	-1.110506	-0.880663
H124	H	-0.154189	-0.610506	-0.380663
Br125	Br	-0.426920	-1.365775	-0.856760
Br126	Br	0.073080	-0.865775	-0.356760
Br127	Br	-1.217881	-1.117876	-0.647576
Br128	Br	-0.717881	-0.617876	-0.147576
H129	H	-1.193895	-1.373171	-0.420460
H130	H	-0.693895	-0.873171	0.079540
Br131	Br	-0.380379	-1.418038	-0.998417
Br132	Br	0.119621	-0.918038	-0.498417
H133	H	-0.395661	-0.743671	-0.395843
H134	H	0.104339	-0.243671	0.104157
H135	H	-0.447943	-0.596338	-0.447977
H136	H	0.052057	-0.096338	0.052023
H137	H	-0.668791	-0.570928	-0.668231
H138	H	-0.168791	-0.070928	-0.168231
H139	H	-0.663382	-1.100153	-1.051538
H140	H	-0.163382	-0.600153	-0.551538
H141	H	-0.406037	-0.913394	-0.406202
H142	H	0.093963	-0.413394	0.093798
