data_functionalizedCrystal
_audit_creation_method	'MofGen! by Chris Wilmer'
_symmetry_space_group_name_H-M	'P1'
_symmetry_Int_Tables_number	1
_symmetry_cell_setting	triclinic
loop_
_symmetry_equiv_pos_as_xyz
  x,y,z
_cell_length_a	18.878441
_cell_length_b	14.560438
_cell_length_c	14.560438
_cell_angle_alpha	59.997697
_cell_angle_beta	60.002079
_cell_angle_gamma	89.999865
loop_
_atom_site_label
_atom_site_type_symbol
_atom_site_fract_x
_atom_site_fract_y
_atom_site_fract_z
Zr1	Zr	0.682385	-0.120619	1.005343
O2	O	0.569282	-0.267272	1.196944
O3	O	0.717056	-0.075653	0.813738
O4	O	0.717057	-0.267266	1.005342
O5	O	0.569283	0.075480	1.005341
O6	O	0.833624	-0.267271	1.005348
O7	O	0.569282	-0.075659	1.005339
O8	O	0.833624	0.075490	0.662602
O9	O	0.569283	-0.267282	1.348088
O10	O	0.818837	-0.056490	0.892554
O11	O	0.731845	0.056307	0.892552
O12	O	0.731845	-0.169293	1.118142
O13	O	0.644852	-0.056497	1.118140
Zr14	Zr	0.868298	0.120421	1.005356
Zr15	Zr	0.868297	-0.120627	1.005352
Zr16	Zr	0.682386	0.120429	1.005347
Zr17	Zr	0.682386	-0.120634	1.246400
Zr18	Zr	0.868297	0.120437	0.764299
O19	O	0.833627	0.075456	1.196962
O20	O	0.833626	-0.267284	1.196956
O21	O	0.569284	0.075467	1.196949
O22	O	0.981401	0.267075	0.813755
O23	O	0.981400	-0.075665	0.813750
O24	O	0.717058	0.267086	0.813743
O25	O	0.981401	-0.075677	1.005358
O26	O	0.833627	0.267069	1.005357
O27	O	0.717059	0.267074	1.005351
O28	O	0.981401	0.075461	1.005360
O29	O	0.717059	-0.267288	1.348094
O30	O	0.833625	0.267091	0.662605
O31	O	0.981400	0.267085	0.662612
O32	O	0.981399	0.075483	0.662608
O33	O	0.569284	-0.075681	1.348091
O34	O	0.717059	-0.075687	1.348098
O35	O	0.818838	0.169096	0.892558
O36	O	0.905831	0.056299	0.892560
O37	O	0.818839	-0.056504	1.118148
O38	O	0.731846	0.056292	1.118145
C39	C	0.542794	-0.000088	1.005339
C40	C	0.463869	-0.000085	1.005335
C41	C	0.775340	-0.000079	0.703824
C42	C	0.775339	-0.000073	0.601489
C43	C	0.775343	0.301416	1.005355
C44	C	0.775343	0.403747	1.005356
C45	C	0.472197	0.058793	0.887582
C46	C	0.398036	0.058794	0.887586
C47	C	0.315548	-0.000091	1.005345
C48	C	0.307222	-0.058971	1.123108
C49	C	0.381382	-0.058964	1.123102
C50	C	0.152652	-0.058982	1.123111
C51	C	0.078486	-0.058990	1.123117
C52	C	0.169306	0.058776	0.887595
C53	C	0.243466	0.058782	0.887590
C54	C	0.235134	-0.000099	1.005353
C55	C	1.007889	-0.000109	1.005360
C56	C	1.086814	-0.000112	1.005364
C57	C	0.775340	-0.301613	1.005345
C58	C	0.775340	-0.403944	1.005343
C59	C	0.729935	0.392943	1.123109
C60	C	0.729931	0.489098	1.123103
C61	C	0.820749	0.606857	0.887581
C62	C	0.820748	0.510704	0.887589
C63	C	0.711119	-0.083351	0.636699
C64	C	0.711123	-0.083380	0.540559
C65	C	0.839570	0.083158	0.374001
C66	C	0.839570	0.083181	0.470140
C67	C	0.775343	-0.000118	1.306875
C68	C	0.775344	-0.000125	1.409210
C69	C	1.007888	-0.000089	0.703835
C70	C	1.086812	-0.000086	0.601504
C71	C	0.775341	0.301435	0.703829
C72	C	0.775341	0.403773	0.601496
C73	C	1.007889	0.301425	0.703840
C74	C	1.086813	0.403759	0.601510
C75	C	0.542794	-0.301622	1.306859
C76	C	0.463870	-0.403957	1.409189
C77	C	0.542796	-0.000108	1.306864
C78	C	0.463871	-0.000111	1.409196
C79	C	0.775342	-0.301632	1.306870
C80	C	0.775342	-0.403970	1.409203
C81	C	1.078465	-0.058970	0.553445
C82	C	1.152616	-0.058989	0.457307
C83	C	1.235112	-0.000118	0.409223
C84	C	1.243456	0.058767	0.457291
C85	C	1.169307	0.058779	0.553434
C86	C	1.169294	0.392938	0.553456
C87	C	1.243459	0.489083	0.457320
C88	C	1.235141	0.596048	0.409233
C89	C	1.152652	0.606867	0.457297
C90	C	1.078489	0.510723	0.553438
C91	C	0.381389	-0.393135	1.457255
C92	C	0.307224	-0.489280	1.553421
C93	C	0.315542	-0.596245	1.601513
C94	C	0.398031	-0.607064	1.553443
C95	C	0.472194	-0.510921	1.457285
C96	C	0.472218	0.058762	1.457265
C97	C	0.398067	0.058755	1.553429
C98	C	0.315572	-0.000119	1.601516
C99	C	0.307227	-0.059000	1.553443
C100	C	0.381377	-0.058998	1.457287
C101	C	0.820750	0.510726	0.553421
C102	C	0.820740	0.606879	0.457277
C103	C	0.729911	0.489113	0.457288
C104	C	0.729916	0.392962	0.553437
H105	H	0.404824	0.106740	0.791700
N106	N	1.178278	0.277576	0.605299
H107	H	1.241788	0.285327	0.560258
H108	H	1.149485	0.235106	0.701822
H109	H	0.404879	0.106707	1.592554
N110	N	1.332422	0.477399	0.405490
H111	H	1.326431	0.395047	0.450537
H112	H	1.365174	0.514735	0.308968
N113	N	0.235542	-0.699931	1.705213
H114	H	0.235499	-0.746208	1.671753
H115	H	0.235541	-0.746135	1.784977
H116	H	1.295537	0.674325	0.330949
N117	N	0.406996	-0.722436	1.605319
H118	H	0.347494	-0.781692	1.673521
H119	H	0.439777	-0.731349	1.531892
N120	N	0.869729	0.522375	0.605276
H121	H	0.915429	0.485112	0.588540
H122	H	0.898437	0.604743	0.560211
N123	N	0.908844	0.173000	0.432168
H124	H	0.949531	0.225742	0.334372
H125	H	0.880763	0.216681	0.468416
N126	N	1.178319	0.122292	0.605263
H127	H	1.118833	0.113371	0.673471
H128	H	1.211113	0.091360	0.645079
H129	H	0.539352	-0.519745	1.418151
H130	H	0.539383	0.106712	1.418120
N131	N	1.143687	0.722239	0.405424
H132	H	1.203189	0.781494	0.337225
H133	H	1.110904	0.731157	0.365586
H134	H	0.857715	0.693962	0.418140
N135	N	0.372394	-0.277779	1.405413
H136	H	0.401143	-0.235263	1.422141
H137	H	0.401115	-0.235344	1.308912
H138	H	1.011300	-0.106923	0.592593
N139	N	1.143605	-0.122505	0.405475
H140	H	1.080091	-0.159785	0.450521
H141	H	1.172396	-0.068447	0.308953
H142	H	0.255201	-0.000111	1.679813
N143	N	0.372359	-0.122500	1.405450
H144	H	0.339592	-0.091604	1.365572
H145	H	0.431872	-0.113558	1.337288
H146	H	0.692954	0.480291	1.218989
H147	H	0.692962	0.305858	1.219003
H148	H	0.240049	-0.106933	1.592610
N149	N	0.680925	0.477455	0.405445
H150	H	0.687814	0.554595	0.337235
H151	H	0.704771	0.434936	0.365628
H152	H	1.310634	0.106697	0.418128
N153	N	0.561164	0.122295	0.760569
H154	H	0.555184	0.159594	0.685974
H155	H	0.593913	0.181490	0.755433
N156	N	0.332431	0.122296	0.760573
H157	H	0.365223	0.181548	0.755322
H158	H	0.365156	0.068223	0.755397
H159	H	1.295482	-0.000136	0.330936
N160	N	0.908845	0.172949	0.232335
H161	H	0.899102	0.160300	0.176772
H162	H	0.906012	0.249360	0.212756
N163	N	0.989525	0.522394	0.605257
H164	H	0.982577	0.564870	0.645146
H165	H	0.982651	0.564849	0.531820
H166	H	0.240065	-0.480449	1.592543
N167	N	0.178295	0.122295	0.760579
H168	H	0.241804	0.159594	0.685979
H169	H	0.149502	0.068231	0.755454
N170	N	-0.010484	-0.122503	1.250125
H171	H	-0.004511	-0.159798	1.324726
H172	H	-0.043234	-0.068443	1.255248
N173	N	0.680878	0.277594	0.605374
H174	H	0.652088	0.285333	0.560358
H175	H	0.722530	0.235072	0.588695
H176	H	0.857724	0.519509	0.791695
N177	N	0.869732	0.722215	0.760566
H178	H	0.862849	0.781491	0.778426
H179	H	0.933234	0.731106	0.709158
H180	H	0.145861	-0.106908	1.219006
H181	H	0.658814	-0.151136	0.743646
H182	H	0.240053	-0.106909	1.218989
N183	N	0.641862	-0.173207	0.578533
H184	H	0.601177	-0.225942	0.676330
H185	H	0.608184	-0.136807	0.542255
N186	N	0.372407	-0.122477	1.250104
H187	H	0.401149	-0.068474	1.255352
H188	H	0.308884	-0.159784	1.324634
