data_functionalizedCrystal
_audit_creation_method	'MofGen! by Chris Wilmer'
_symmetry_space_group_name_H-M	'P1'
_symmetry_Int_Tables_number	1
_symmetry_cell_setting	triclinic
loop_
_symmetry_equiv_pos_as_xyz
  x,y,z
_cell_length_a	19.077105
_cell_length_b	29.839131
_cell_length_c	19.077569
_cell_angle_alpha	92.326321
_cell_angle_beta	94.700723
_cell_angle_gamma	87.737628
loop_
_atom_site_label
_atom_site_type_symbol
_atom_site_fract_x
_atom_site_fract_y
_atom_site_fract_z
Zn1	Zn	1.093625	-0.195626	0.441828
Zn2	Zn	1.343625	0.054374	0.691828
Zn3	Zn	1.593625	0.304374	0.941828
Zn4	Zn	1.843625	0.554374	1.191828
Zn5	Zn	1.088771	-0.273652	0.323930
Zn6	Zn	1.338771	-0.023652	0.573930
Zn7	Zn	1.588771	0.226348	0.823930
Zn8	Zn	1.838771	0.476348	1.073930
Zn9	Zn	0.971007	-0.195633	0.319224
Zn10	Zn	1.221007	0.054367	0.569224
Zn11	Zn	1.471007	0.304367	0.819224
Zn12	Zn	1.721007	0.554367	1.069224
Zn13	Zn	0.975670	-0.267822	0.437050
Zn14	Zn	1.225670	-0.017822	0.687050
Zn15	Zn	1.475670	0.232178	0.937050
Zn16	Zn	1.725670	0.482178	1.187050
O17	O	1.032268	-0.233183	0.380508
O18	O	1.282268	0.016817	0.630508
O19	O	1.532268	0.266817	0.880508
O20	O	1.782268	0.516817	1.130508
O21	O	1.191630	-0.208413	0.430158
O22	O	1.441630	0.041587	0.680158
O23	O	1.691630	0.291587	0.930158
O24	O	1.941630	0.541587	1.180158
O25	O	1.069167	-0.265745	0.224654
O26	O	1.319167	-0.015745	0.474654
O27	O	1.569167	0.234255	0.724654
O28	O	1.819167	0.484255	0.974654
O29	O	0.987353	-0.132766	0.335518
O30	O	1.237353	0.117234	0.585518
O31	O	1.487353	0.367234	0.835518
O32	O	1.737353	0.617234	1.085518
O33	O	1.188064	-0.265739	0.343538
O34	O	1.438064	-0.015739	0.593538
O35	O	1.688064	0.234261	0.843538
O36	O	1.938064	0.484261	1.093538
O37	O	1.077440	-0.132761	0.425595
O38	O	1.327440	0.117239	0.675595
O39	O	1.577440	0.367239	0.925595
O40	O	1.827440	0.617239	1.175595
O41	O	0.982646	-0.208424	0.221196
O42	O	1.232646	0.041576	0.471196
O43	O	1.482646	0.291576	0.721196
O44	O	1.732646	0.541576	0.971196
O45	O	0.872977	-0.202772	0.330885
O46	O	1.122977	0.047228	0.580885
O47	O	1.372977	0.297228	0.830885
O48	O	1.622977	0.547228	1.080885
O49	O	0.995300	-0.255803	0.536336
O50	O	1.245300	-0.005803	0.786336
O51	O	1.495300	0.244197	1.036336
O52	O	1.745300	0.494197	1.286336
O53	O	0.876403	-0.255809	0.417451
O54	O	1.126403	-0.005809	0.667451
O55	O	1.376403	0.244191	0.917451
O56	O	1.626403	0.494191	1.167451
O57	O	1.081961	-0.202761	0.539846
O58	O	1.331961	0.047239	0.789846
O59	O	1.581961	0.297239	1.039846
O60	O	1.831961	0.547239	1.289846
O61	O	1.073688	-0.335745	0.338905
O62	O	1.323688	-0.085745	0.588905
O63	O	1.573688	0.164255	0.838905
O64	O	1.823688	0.414255	1.088905
O65	O	0.990593	-0.331462	0.422014
O66	O	1.240593	-0.081462	0.672014
O67	O	1.490593	0.168538	0.922014
O68	O	1.740593	0.418538	1.172014
C69	C	0.849111	-0.228659	0.373139
C70	C	1.099111	0.021341	0.623139
C71	C	1.349111	0.271341	0.873139
C72	C	1.599111	0.521341	1.123139
C73	C	0.770756	-0.226734	0.370003
C74	C	1.020756	0.023266	0.620003
C75	C	1.270756	0.273266	0.870003
C76	C	1.520756	0.523266	1.120003
C77	C	0.735744	-0.253488	0.413530
C78	C	0.985744	-0.003488	0.663530
C79	C	1.235744	0.246512	0.913530
C80	C	1.485744	0.496512	1.163530
C81	C	0.662122	-0.251674	0.410587
C82	C	0.912122	-0.001674	0.660587
C83	C	1.162122	0.248326	0.910587
C84	C	1.412122	0.498326	1.160587
C85	C	0.623512	-0.223106	0.364113
C86	C	0.873512	0.026894	0.614113
C87	C	1.123512	0.276894	0.864113
C88	C	1.373512	0.526894	1.114113
C89	C	0.658529	-0.196349	0.320585
C90	C	0.908529	0.053651	0.570585
C91	C	1.158529	0.303651	0.820585
C92	C	1.408529	0.553651	1.070585
C93	C	0.732151	-0.198162	0.323532
C94	C	0.982151	0.051838	0.573532
C95	C	1.232151	0.301838	0.823532
C96	C	1.482151	0.551838	1.073532
C97	C	0.403135	-0.214716	0.350478
C98	C	0.653135	0.035284	0.600478
C99	C	0.903135	0.285284	0.850478
C100	C	1.153135	0.535284	1.100478
C101	C	0.329509	-0.212907	0.347532
C102	C	0.579509	0.037093	0.597532
C103	C	0.829509	0.287093	0.847532
C104	C	1.079509	0.537093	1.097532
C105	C	0.333106	-0.268231	0.437535
C106	C	0.583106	-0.018231	0.687535
C107	C	0.833106	0.231769	0.937535
C108	C	1.083106	0.481769	1.187535
C109	C	0.406728	-0.270043	0.440475
C110	C	0.656728	-0.020043	0.690475
C111	C	0.906728	0.229957	0.940475
C112	C	1.156728	0.479957	1.190475
C113	C	0.441739	-0.243284	0.396950
C114	C	0.691739	0.006716	0.646950
C115	C	0.941739	0.256716	0.896950
C116	C	1.191739	0.506716	1.146950
N117	N	0.548258	-0.221252	0.361103
N118	N	0.798258	0.028748	0.611103
N119	N	1.048258	0.278748	0.861103
N120	N	1.298258	0.528748	1.111103
N121	N	0.516992	-0.245137	0.399965
N122	N	0.766992	0.004863	0.649965
N123	N	1.016992	0.254863	0.899965
N124	N	1.266992	0.504863	1.149965
C125	C	1.032140	-0.349904	0.380468
C126	C	1.282140	-0.099904	0.630468
C127	C	1.532140	0.150096	0.880468
C128	C	1.782140	0.400096	1.130468
C129	C	1.032150	-0.399838	0.380477
C130	C	1.282150	-0.149838	0.630477
C131	C	1.532150	0.100162	0.880477
C132	C	1.782150	0.350162	1.130477
C133	C	1.075620	-0.711701	0.337302
C134	C	1.325620	-0.461701	0.587302
C135	C	1.575620	-0.211701	0.837302
C136	C	1.825620	0.038299	1.087302
C137	C	1.075709	-0.899376	0.337333
C138	C	1.325709	-0.649376	0.587333
C139	C	1.575709	-0.399376	0.837333
C140	C	1.825709	-0.149376	1.087333
O141	O	1.112566	-0.925527	0.300594
O142	O	1.362566	-0.675527	0.550594
O143	O	1.612566	-0.425527	0.800594
O144	O	1.862566	-0.175527	1.050594
N145	N	1.032417	-0.920628	0.380567
N146	N	1.282417	-0.670628	0.630567
N147	N	1.532417	-0.420628	0.880567
N148	N	1.782417	-0.170628	1.130567
C149	C	0.989103	-0.894957	0.423800
C150	C	1.239103	-0.644957	0.673800
C151	C	1.489103	-0.394957	0.923800
C152	C	1.739103	-0.144957	1.173800
O153	O	0.952288	-0.917340	0.460579
O154	O	1.202288	-0.667340	0.710579
O155	O	1.452288	-0.417340	0.960579
O156	O	1.702288	-0.167340	1.210579
C157	C	0.989019	-0.707284	0.423772
C158	C	1.239019	-0.457284	0.673772
C159	C	1.489019	-0.207284	0.923772
C160	C	1.739019	0.042716	1.173772
C161	C	1.032309	-0.686035	0.380530
C162	C	1.282309	-0.436035	0.630530
C163	C	1.532309	-0.186035	0.880530
C164	C	1.782309	0.063965	1.130530
C165	C	1.118907	-0.690452	0.294064
C166	C	1.368907	-0.440452	0.544064
C167	C	1.618907	-0.190452	0.794064
C168	C	1.868907	0.059548	1.044064
C169	C	1.118882	-0.643536	0.294054
C170	C	1.368882	-0.393536	0.544054
C171	C	1.618882	-0.143536	0.794054
C172	C	1.868882	0.106464	1.044054
C173	C	1.075570	-0.617870	0.337282
C174	C	1.325570	-0.367870	0.587282
C175	C	1.575570	-0.117870	0.837282
C176	C	1.825570	0.132130	1.087282
C177	C	1.032283	-0.639119	0.380520
C178	C	1.282283	-0.389119	0.630520
C179	C	1.532283	-0.139119	0.880520
C180	C	1.782283	0.110881	1.130520
C181	C	0.945710	-0.681615	0.467008
C182	C	1.195710	-0.431615	0.717008
C183	C	1.445710	-0.181615	0.967008
C184	C	1.695710	0.068385	1.217008
C185	C	0.945694	-0.634693	0.466998
C186	C	1.195694	-0.384693	0.716998
C187	C	1.445694	-0.134693	0.966998
C188	C	1.695694	0.115307	1.216998
C189	C	0.988984	-0.613444	0.423757
C190	C	1.238984	-0.363444	0.673757
C191	C	1.488984	-0.113444	0.923757
C192	C	1.738984	0.136556	1.173757
C193	C	0.988946	-0.566537	0.423738
C194	C	1.238946	-0.316537	0.673738
C195	C	1.488946	-0.066537	0.923738
C196	C	1.738946	0.183463	1.173738
N197	N	1.032238	-0.545285	0.380504
N198	N	1.282238	-0.295285	0.630504
N199	N	1.532238	-0.045285	0.880504
N200	N	1.782238	0.204715	1.130504
C201	C	1.075550	-0.570952	0.337276
C202	C	1.325550	-0.320952	0.587276
C203	C	1.575550	-0.070952	0.837276
C204	C	1.825550	0.179048	1.087276
C205	C	0.989149	-0.993489	0.423810
C206	C	1.239149	-0.743489	0.673810
C207	C	1.489149	-0.493489	0.923810
C208	C	1.739149	-0.243489	1.173810
C209	C	0.989169	-1.040407	0.423816
C210	C	1.239169	-0.790407	0.673816
C211	C	1.489169	-0.540407	0.923816
C212	C	1.739169	-0.290407	1.173816
C213	C	1.075776	-1.044822	0.337351
C214	C	1.325776	-0.794822	0.587351
C215	C	1.575776	-0.544822	0.837351
C216	C	1.825776	-0.294822	1.087351
C217	C	1.075752	-0.997903	0.337341
C218	C	1.325752	-0.747903	0.587341
C219	C	1.575752	-0.497903	0.837341
C220	C	1.825752	-0.247903	1.087341
C221	C	1.032441	-0.972237	0.380576
C222	C	1.282441	-0.722237	0.630576
C223	C	1.532441	-0.472237	0.880576
C224	C	1.782441	-0.222237	1.130576
C225	C	1.075493	-0.472425	0.337258
C226	C	1.325493	-0.222425	0.587258
C227	C	1.575493	0.027575	0.837258
C228	C	1.825493	0.277575	1.087258
C229	C	1.075462	-0.425505	0.337249
C230	C	1.325462	-0.175505	0.587249
C231	C	1.575462	0.074495	0.837249
C232	C	1.825462	0.324495	1.087249
C233	C	0.988858	-0.421093	0.423717
C234	C	1.238858	-0.171093	0.673717
C235	C	1.488858	0.078907	0.923717
C236	C	1.738858	0.328907	1.173717
C237	C	0.988887	-0.468010	0.423723
C238	C	1.238887	-0.218010	0.673723
C239	C	1.488887	0.031990	0.923723
C240	C	1.738887	0.281990	1.173723
C241	C	1.032210	-0.493674	0.380491
C242	C	1.282210	-0.243674	0.630491
C243	C	1.532210	0.006326	0.880491
C244	C	1.782210	0.256326	1.130491
O245	O	0.952114	-0.540358	0.460464
O246	O	1.202114	-0.290358	0.710464
O247	O	1.452114	-0.040358	0.960464
O248	O	1.702114	0.209642	1.210464
O249	O	1.112371	-0.548561	0.300514
O250	O	1.362371	-0.298561	0.550514
O251	O	1.612371	-0.048561	0.800514
O252	O	1.862371	0.201439	1.050514
C253	C	1.075646	-0.758617	0.337312
C254	C	1.325646	-0.508617	0.587312
C255	C	1.575646	-0.258617	0.837312
C256	C	1.825646	-0.008617	1.087312
C257	C	1.032359	-0.779867	0.380550
C258	C	1.282359	-0.529867	0.630550
C259	C	1.532359	-0.279867	0.880550
C260	C	1.782359	-0.029867	1.130550
C261	C	0.989047	-0.754200	0.423778
C262	C	1.239047	-0.504200	0.673778
C263	C	1.489047	-0.254200	0.923778
C264	C	1.739047	-0.004200	1.173778
C265	C	1.032379	-0.826785	0.380556
C266	C	1.282379	-0.576785	0.630556
C267	C	1.532379	-0.326785	0.880556
C268	C	1.782379	-0.076785	1.130556
C269	C	1.075691	-0.852451	0.337329
C270	C	1.325691	-0.602451	0.587329
C271	C	1.575691	-0.352451	0.837329
C272	C	1.825691	-0.102451	1.087329
C273	C	1.118983	-0.831200	0.294095
C274	C	1.368983	-0.581200	0.544095
C275	C	1.618983	-0.331200	0.794095
C276	C	1.868983	-0.081200	1.044095
C277	C	1.118957	-0.784284	0.294085
C278	C	1.368957	-0.534284	0.544085
C279	C	1.618957	-0.284284	0.794085
C280	C	1.868957	-0.034284	1.044085
C281	C	0.945756	-0.775451	0.467012
C282	C	1.195756	-0.525451	0.717012
C283	C	1.445756	-0.275451	0.967012
C284	C	1.695756	-0.025451	1.217012
C285	C	0.945784	-0.822368	0.467018
C286	C	1.195784	-0.572368	0.717018
C287	C	1.445784	-0.322368	0.967018
C288	C	1.695784	-0.072368	1.217018
C289	C	0.989096	-0.848034	0.423790
C290	C	1.239096	-0.598034	0.673790
C291	C	1.489096	-0.348034	0.923790
C292	C	1.739096	-0.098034	1.173790
C293	C	1.216141	-0.237725	0.387906
C294	C	1.466141	0.012275	0.637906
C295	C	1.716141	0.262275	0.887906
C296	C	1.966141	0.512275	1.137906
C297	C	1.294496	-0.239661	0.391059
C298	C	1.544496	0.010339	0.641059
C299	C	1.794496	0.260339	0.891059
C300	C	2.044496	0.510339	1.141059
C301	C	1.039692	-0.228631	0.564385
C302	C	1.289692	0.021369	0.814385
C303	C	1.539692	0.271369	1.064385
C304	C	1.789692	0.521369	1.314385
C305	C	1.042856	-0.226691	0.642743
C306	C	1.292856	0.023309	0.892743
C307	C	1.542856	0.273309	1.142743
C308	C	1.792856	0.523309	1.392743
C309	C	1.032417	-0.116007	0.380564
C310	C	1.282417	0.133993	0.630564
C311	C	1.532417	0.383993	0.880564
C312	C	1.782417	0.633993	1.130564
C313	C	1.032481	-0.066074	0.380589
C314	C	1.282481	0.183926	0.630589
C315	C	1.532481	0.433926	0.880589
C316	C	1.782481	0.683926	1.130589
C317	C	1.024914	-0.237686	0.197348
C318	C	1.274914	0.012314	0.447348
C319	C	1.524914	0.262314	0.697348
C320	C	1.774914	0.512314	0.947348
C321	C	1.021887	-0.239503	0.118996
C322	C	1.271887	0.010497	0.368996
C323	C	1.521887	0.260497	0.618996
C324	C	1.771887	0.510497	0.868996
C325	C	0.999223	-0.253394	0.677729
C326	C	1.249223	-0.003394	0.927729
C327	C	1.499223	0.246606	1.177729
C328	C	1.749223	0.496606	1.427729
C329	C	1.002202	-0.251571	0.751354
C330	C	1.252202	-0.001571	1.001354
C331	C	1.502202	0.248429	1.251354
C332	C	1.752202	0.498429	1.501354
C333	C	1.048809	-0.223043	0.789993
C334	C	1.298809	0.026957	1.039993
C335	C	1.548809	0.276957	1.289993
C336	C	1.798809	0.526957	1.539993
C337	C	1.092447	-0.196339	0.755002
C338	C	1.342447	0.053661	1.005002
C339	C	1.592447	0.303661	1.255002
C340	C	1.842447	0.553661	1.505002
C341	C	1.089471	-0.198164	0.681378
C342	C	1.339471	0.051836	0.931378
C343	C	1.589471	0.301836	1.181378
C344	C	1.839471	0.551836	1.431378
C345	C	1.062549	-0.214625	1.010381
C346	C	1.312549	0.035375	1.260381
C347	C	1.562549	0.285375	1.510381
C348	C	1.812549	0.535375	1.760381
C349	C	1.065520	-0.212800	1.084010
C350	C	1.315520	0.037200	1.334010
C351	C	1.565520	0.287200	1.584010
C352	C	1.815520	0.537200	1.834010
C353	C	0.975275	-0.268033	1.080358
C354	C	1.225275	-0.018033	1.330358
C355	C	1.475275	0.231967	1.580358
C356	C	1.725275	0.481967	1.830358
C357	C	0.972301	-0.269854	1.006732
C358	C	1.222301	-0.019854	1.256732
C359	C	1.472301	0.230146	1.506732
C360	C	1.722301	0.480146	1.756732
C361	C	1.015941	-0.243152	0.971748
C362	C	1.265941	0.006848	1.221748
C363	C	1.515941	0.256848	1.471748
C364	C	1.765941	0.506848	1.721748
N365	N	1.051853	-0.221178	0.865250
N366	N	1.301853	0.028822	1.115250
N367	N	1.551853	0.278822	1.365250
N368	N	1.801853	0.528822	1.615250
N369	N	1.012900	-0.245019	0.896492
N370	N	1.262900	0.004981	1.146492
N371	N	1.512900	0.254981	1.396492
N372	N	1.762900	0.504981	1.646492
H373	H	0.627088	-0.173087	0.282749
H374	H	0.877088	0.076913	0.532749
H375	H	1.127088	0.326913	0.782749
H376	H	1.377088	0.576913	1.032749
H377	H	0.633618	-0.273460	0.446030
H378	H	0.883618	-0.023460	0.696030
H379	H	1.133618	0.226540	0.946030
H380	H	1.383618	0.476540	1.196030
H381	H	0.438159	-0.293307	0.478317
H382	H	0.688159	-0.043307	0.728317
H383	H	0.938159	0.206693	0.978317
H384	H	1.188159	0.456693	1.228317
H385	H	0.304592	-0.290016	0.472972
H386	H	0.554592	-0.040016	0.722972
H387	H	0.804592	0.209984	0.972972
H388	H	1.054592	0.459984	1.222972
Br389	Br	0.930364	-0.958663	0.482492
Br390	Br	1.180364	-0.708663	0.732492
Br391	Br	1.430364	-0.458663	0.982492
Br392	Br	1.680364	-0.208663	1.232492
H393	H	1.110713	-0.408205	0.302034
H394	H	1.360713	-0.158205	0.552034
H395	H	1.610713	0.091795	0.802034
H396	H	1.860713	0.341795	1.052034
Br397	Br	0.788135	-0.292264	0.476599
Br398	Br	1.038135	-0.042264	0.726599
Br399	Br	1.288135	0.207736	0.976599
Br400	Br	1.538135	0.457736	1.226599
H401	H	0.760657	-0.176373	0.288092
H402	H	1.010657	0.073627	0.538092
H403	H	1.260657	0.323627	0.788092
H404	H	1.510657	0.573627	1.038092
Br405	Br	1.155707	-0.157625	0.807438
Br406	Br	1.405707	0.092375	1.057438
Br407	Br	1.655707	0.342375	1.307438
Br408	Br	1.905707	0.592375	1.557438
Br409	Br	1.134289	-0.507248	0.278585
Br410	Br	1.384289	-0.257248	0.528585
Br411	Br	1.634289	-0.007248	0.778585
Br412	Br	1.884289	0.242752	1.028585
Br413	Br	0.916055	-0.304271	1.127840
Br414	Br	1.166055	-0.054271	1.377840
Br415	Br	1.416055	0.195729	1.627840
Br416	Br	1.666055	0.445729	1.877840
Br417	Br	0.450641	-0.178398	0.291411
Br418	Br	0.700641	0.071602	0.541411
Br419	Br	0.950641	0.321602	0.791411
Br420	Br	1.200641	0.571602	1.041411
Br421	Br	0.909039	-0.308568	0.954300
Br422	Br	1.159039	-0.058568	1.204300
Br423	Br	1.409039	0.191432	1.454300
Br424	Br	1.659039	0.441432	1.704300
Br425	Br	1.134553	-1.079665	0.278682
Br426	Br	1.384553	-0.829665	0.528682
Br427	Br	1.634553	-0.579665	0.778682
Br428	Br	1.884553	-0.329665	1.028682
Br429	Br	1.177645	-0.614706	0.235376
Br430	Br	1.427645	-0.364706	0.485376
Br431	Br	1.677645	-0.114706	0.735376
Br432	Br	1.927645	0.135294	0.985376
Br433	Br	0.277110	-0.174139	0.284449
Br434	Br	0.527110	0.075861	0.534449
Br435	Br	0.777110	0.325861	0.784449
Br436	Br	1.027110	0.575861	1.034449
H437	H	1.154208	-0.766987	0.258873
H438	H	1.404208	-0.516987	0.508873
H439	H	1.654208	-0.266987	0.758873
H440	H	1.904208	-0.016987	1.008873
H441	H	1.103471	-0.189565	1.115467
H442	H	1.353471	0.060435	1.365467
H443	H	1.603471	0.310435	1.615467
H444	H	1.853471	0.560435	1.865467
H445	H	0.953639	-0.485311	0.458937
H446	H	1.203639	-0.235311	0.708937
H447	H	1.453639	0.014689	0.958937
H448	H	1.703639	0.264689	1.208937
Br449	Br	0.935961	-0.292109	0.625298
Br450	Br	1.185961	-0.042109	0.875298
Br451	Br	1.435961	0.207891	1.125298
Br452	Br	1.685961	0.457891	1.375298
Br453	Br	1.121773	-0.178385	0.962911
Br454	Br	1.371773	0.071615	1.212911
Br455	Br	1.621773	0.321615	1.462911
Br456	Br	1.871773	0.571615	1.712911
Br457	Br	1.148694	-0.161927	0.633896
Br458	Br	1.398694	0.088073	0.883896
Br459	Br	1.648694	0.338073	1.133896
Br460	Br	1.898694	0.588073	1.383896
Br461	Br	1.177697	-0.725277	0.235392
Br462	Br	1.427697	-0.475277	0.485392
Br463	Br	1.677697	-0.225277	0.735392
Br464	Br	1.927697	0.024723	0.985392
Br465	Br	0.886964	-0.710440	0.525705
Br466	Br	1.136964	-0.460440	0.775705
Br467	Br	1.386964	-0.210440	1.025705
Br468	Br	1.636964	0.039560	1.275705
H469	H	1.111002	-0.980605	0.302130
H470	H	1.361002	-0.730605	0.552130
H471	H	1.611002	-0.480605	0.802130
H472	H	1.861002	-0.230605	1.052130
H473	H	0.953912	-1.057704	0.459021
H474	H	1.203912	-0.807704	0.709021
H475	H	1.453912	-0.557704	0.959021
H476	H	1.703912	-0.307704	1.209021
Br477	Br	0.886915	-0.599864	0.525681
Br478	Br	1.136915	-0.349864	0.775681
Br479	Br	1.386915	-0.099864	1.025681
Br480	Br	1.636915	0.150136	1.275681
H481	H	1.154247	-0.852106	0.258895
H482	H	1.404247	-0.602106	0.508895
H483	H	1.654247	-0.352106	0.758895
H484	H	1.904247	-0.102106	1.008895
H485	H	0.910526	-0.839664	0.502230
H486	H	1.160526	-0.589664	0.752230
H487	H	1.410526	-0.339664	1.002230
H488	H	1.660526	-0.089664	1.252230
Br489	Br	0.930084	-0.386251	0.482384
Br490	Br	1.180084	-0.136251	0.732384
Br491	Br	1.430084	0.113749	0.982384
Br492	Br	1.680084	0.363749	1.232384
H493	H	0.910487	-0.754557	0.502214
H494	H	1.160487	-0.504557	0.752214
H495	H	1.410487	-0.254557	1.002214
H496	H	1.660487	-0.004557	1.252214
Br497	Br	0.942992	-0.287818	0.798833
Br498	Br	1.192992	-0.037818	1.048833
Br499	Br	1.442992	0.212182	1.298833
Br500	Br	1.692992	0.462182	1.548833
