data_functionalizedCrystal
_audit_creation_method	'MofGen! by Chris Wilmer'
_symmetry_space_group_name_H-M	'P1'
_symmetry_Int_Tables_number	1
_symmetry_cell_setting	triclinic
loop_
_symmetry_equiv_pos_as_xyz
  x,y,z
_cell_length_a	16.625547
_cell_length_b	16.625546
_cell_length_c	18.101389
_cell_angle_alpha	90.019589
_cell_angle_beta	90.025473
_cell_angle_gamma	90.021654
loop_
_atom_site_label
_atom_site_type_symbol
_atom_site_fract_x
_atom_site_fract_y
_atom_site_fract_z
Zn1	Zn	-1.232668	0.321104	-0.418855
Zn2	Zn	-0.899335	0.654437	-0.085522
Zn3	Zn	-0.566001	0.987770	0.247811
Zn4	Zn	-1.232575	0.455921	-0.295011
Zn5	Zn	-0.899241	0.789255	0.038322
Zn6	Zn	-0.565908	1.122588	0.371655
Zn7	Zn	-1.097833	0.321105	-0.295014
Zn8	Zn	-0.764500	0.654438	0.038319
Zn9	Zn	-0.431167	0.987771	0.371653
Zn10	Zn	-1.097800	0.455896	-0.418797
Zn11	Zn	-0.764467	0.789229	-0.085464
Zn12	Zn	-0.431133	1.122563	0.247869
O13	O	-1.165219	0.388506	-0.356920
O14	O	-0.831886	0.721840	-0.023586
O15	O	-0.498552	1.055173	0.309747
O16	O	-1.345488	0.338998	-0.402450
O17	O	-1.012155	0.672331	-0.069117
O18	O	-0.678821	1.005664	0.264216
O19	O	-1.214676	0.438049	-0.191379
O20	O	-0.881343	0.771382	0.141955
O21	O	-0.548009	1.104715	0.475288
O22	O	-1.115772	0.208272	-0.311467
O23	O	-0.782439	0.541605	0.021866
O24	O	-0.449106	0.874939	0.355199
O25	O	-1.345420	0.438048	-0.311463
O26	O	-1.012086	0.771381	0.021871
O27	O	-0.678753	1.104714	0.355204
O28	O	-1.214835	0.208271	-0.402453
O29	O	-0.881501	0.541605	-0.069120
O30	O	-0.548168	0.874938	0.264214
O31	O	-1.115682	0.338999	-0.191381
O32	O	-0.782349	0.672333	0.141953
O33	O	-0.449015	1.005666	0.475286
O34	O	-0.984997	0.338975	-0.311411
O35	O	-0.651663	0.672308	0.021922
O36	O	-0.318330	1.005641	0.355256
O37	O	-1.115716	0.438005	-0.522438
O38	O	-0.782382	0.771338	-0.189105
O39	O	-0.449049	1.104671	0.144229
O40	O	-0.984972	0.438005	-0.402354
O41	O	-0.651639	0.771339	-0.069021
O42	O	-0.318305	1.104672	0.264312
O43	O	-1.214802	0.338973	-0.522481
O44	O	-0.881469	0.672307	-0.189147
O45	O	-0.548136	1.005640	0.144186
O46	O	-1.214644	0.568750	-0.311406
O47	O	-0.881310	0.902084	0.021927
O48	O	-0.547977	1.235417	0.355260
O49	O	-1.115625	0.568732	-0.402352
O50	O	-0.782292	0.902065	-0.069018
O51	O	-0.448959	1.235398	0.264315
C52	C	-0.955728	0.388488	-0.356877
C53	C	-0.622395	0.721821	-0.023544
C54	C	-0.289062	1.055155	0.309790
C55	C	-0.866107	0.388500	-0.356876
C56	C	-0.532774	0.721833	-0.023543
C57	C	-0.199440	1.055166	0.309790
C58	C	-0.793325	0.388500	-0.356883
C59	C	-0.459991	0.721833	-0.023550
C60	C	-0.126658	1.055167	0.309784
C61	C	-0.702016	0.388503	-0.356898
C62	C	-0.368683	0.721837	-0.023565
C63	C	-0.035350	1.055170	0.309768
C64	C	-0.629240	0.388510	-0.356914
C65	C	-0.295906	0.721843	-0.023581
C66	C	0.037427	1.055176	0.309752
C67	C	-0.537925	0.388514	-0.356929
C68	C	-0.204592	0.721847	-0.023596
C69	C	0.128741	1.055181	0.309738
C70	C	-1.165143	0.597997	-0.356889
C71	C	-0.831809	0.931331	-0.023555
C72	C	-0.498476	1.264664	0.309778
C73	C	-1.165184	0.687618	-0.356900
C74	C	-0.831851	1.020952	-0.023567
C75	C	-0.498517	1.354285	0.309767
C76	C	-0.375528	0.388522	-0.356954
C77	C	-0.042195	0.721855	-0.023620
C78	C	0.291139	1.055189	0.309713
C79	C	-0.465149	0.388520	-0.356945
C80	C	-0.131816	0.721854	-0.023612
C81	C	0.201518	1.055187	0.309722
C82	C	-1.165266	0.388486	-0.550082
C83	C	-0.831932	0.721819	-0.216748
C84	C	-0.498599	1.055153	0.116585
C85	C	-1.165285	0.388477	-0.632396
C86	C	-0.831952	0.721811	-0.299062
C87	C	-0.498619	1.055144	0.034271
C88	C	-1.165318	0.178197	-0.356967
C89	C	-0.831984	0.511531	-0.023634
C90	C	-0.498651	0.844864	0.309700
C91	C	-1.165360	0.088576	-0.356987
C92	C	-0.832026	0.421910	-0.023654
C93	C	-0.498693	0.755243	0.309680
C94	C	-1.165325	1.015794	-0.356977
C95	C	-0.831991	1.349127	-0.023644
C96	C	-0.498658	1.682461	0.309689
C97	C	-1.165283	0.924485	-0.356958
C98	C	-0.831949	1.257819	-0.023624
C99	C	-0.498616	1.591152	0.309709
C100	C	-1.165254	0.851709	-0.356938
C101	C	-0.831920	1.185042	-0.023605
C102	C	-0.498587	1.518376	0.309728
C103	C	-1.165213	0.760395	-0.356920
C104	C	-0.831880	1.093728	-0.023586
C105	C	-0.498546	1.427061	0.309747
C106	C	-1.165332	0.388326	-0.931487
C107	C	-0.831999	0.721660	-0.598154
C108	C	-0.498666	1.054993	-0.264820
C109	C	-1.102775	0.450436	-0.900135
C110	C	-0.769442	0.783769	-0.566801
C111	C	-0.436108	1.117103	-0.233468
C112	C	-1.102944	0.450724	-0.814516
C113	C	-0.769611	0.784057	-0.481183
C114	C	-0.436278	1.117391	-0.147850
C115	C	-1.165308	0.388401	-0.783104
C116	C	-0.831975	0.721735	-0.449771
C117	C	-0.498642	1.055068	-0.116438
C118	C	-1.250264	0.411467	-0.814211
C119	C	-0.916930	0.744800	-0.480878
C120	C	-0.583597	1.078134	-0.147544
C121	C	-1.249915	0.411875	-0.899856
C122	C	-0.916582	0.745208	-0.566523
C123	C	-0.583248	1.078541	-0.233189
C124	C	-1.143673	0.303012	-0.899912
C125	C	-0.810340	0.636346	-0.566579
C126	C	-0.477007	0.969679	-0.233246
C127	C	-1.141783	0.303505	-0.814261
C128	C	-0.808450	0.636839	-0.480928
C129	C	-0.475117	0.970172	-0.147595
C130	C	-1.165300	0.388442	-0.699245
C131	C	-0.831967	0.721776	-0.365911
C132	C	-0.498633	1.055109	-0.032578
C133	C	-1.165346	0.388287	-1.015346
C134	C	-0.832013	0.721621	-0.682013
C135	C	-0.498680	1.054954	-0.348680
C136	C	-1.165219	0.388469	-0.164509
C137	C	-0.831886	0.721802	0.168824
C138	C	-0.498552	1.055135	0.502158
C139	C	-1.165355	0.388250	-0.082195
C140	C	-0.832022	0.721583	0.251138
C141	C	-0.498689	1.054917	0.584471
H142	H	-1.039947	0.436290	-0.793483
H143	H	-0.706614	0.769623	-0.460150
H144	H	-0.373280	1.102957	-0.126816
N145	N	-1.058974	0.280455	-0.787323
N146	N	-0.725641	0.613788	-0.453989
N147	N	-0.392308	0.947122	-0.120656
H148	H	-1.044177	0.225801	-0.807539
H149	H	-0.710844	0.559135	-0.474206
H150	H	-0.377510	0.892468	-0.140872
H151	H	-1.018574	0.321623	-0.804829
H152	H	-0.685240	0.654956	-0.471495
H153	H	-0.351907	0.988289	-0.138162
N154	N	-1.019069	0.431505	-0.927379
N155	N	-0.685736	0.764839	-0.594046
N156	N	-0.352402	1.098172	-0.260713
H157	H	-1.020883	0.382487	-0.960314
H158	H	-0.687550	0.715820	-0.626980
H159	H	-0.354217	1.049154	-0.293647
H160	H	-0.997567	0.478833	-0.956237
H161	H	-0.664233	0.812166	-0.622903
H162	H	-0.330900	1.145500	-0.289570
H163	H	-1.184021	0.254774	-0.792879
H164	H	-0.850688	0.588107	-0.459546
H165	H	-0.517355	0.921440	-0.126212
N166	N	-1.121541	0.533690	-0.928635
N167	N	-0.788208	0.867024	-0.595302
N168	N	-0.454875	1.200357	-0.261969
H169	H	-1.074100	0.554759	-0.957607
H170	H	-0.740767	0.888092	-0.624273
H171	H	-0.407434	1.221426	-0.290940
H172	H	-1.170403	0.531275	-0.961734
H173	H	-0.837070	0.864608	-0.628401
H174	H	-0.503737	1.197941	-0.295067
H175	H	-1.117245	0.513961	-0.794033
H176	H	-0.783911	0.847294	-0.460700
H177	H	-0.450578	1.180628	-0.127366
N178	N	-1.275003	0.493200	-0.785813
N179	N	-0.941670	0.826534	-0.452479
N180	N	-0.608336	1.159867	-0.119146
H181	H	-1.283681	0.530833	-0.828872
H182	H	-0.950348	0.864166	-0.495539
H183	H	-0.617014	1.197499	-0.162206
H184	H	-1.326572	0.488058	-0.756724
H185	H	-0.993239	0.821391	-0.423390
H186	H	-0.659905	1.154725	-0.090057
N187	N	-1.274228	0.494481	-0.926339
N188	N	-0.940894	0.827814	-0.593005
N189	N	-0.607561	1.161147	-0.259672
H190	H	-1.329916	0.507517	-0.907559
H191	H	-0.996582	0.840850	-0.574226
H192	H	-0.663249	1.174183	-0.240893
H193	H	-1.234763	0.535650	-0.907064
H194	H	-0.901429	0.868983	-0.573731
H195	H	-0.568096	1.202317	-0.240397
N196	N	-1.313757	0.354570	-0.927339
N197	N	-0.980424	0.687903	-0.594006
N198	N	-0.647090	1.021236	-0.260672
H199	H	-1.342003	0.329158	-0.883817
H200	H	-1.008670	0.662491	-0.550483
H201	H	-0.675337	0.995824	-0.217150
H202	H	-1.354094	0.385029	-0.958282
H203	H	-1.020760	0.718362	-0.624949
H204	H	-0.687427	1.051695	-0.291616
N205	N	-1.313667	0.353425	-0.787278
N206	N	-0.980334	0.686758	-0.453945
N207	N	-0.647000	1.020091	-0.120612
H208	H	-1.287868	0.311521	-0.754573
H209	H	-0.954535	0.644854	-0.421239
H210	H	-0.621202	0.978187	-0.087906
H211	H	-1.355750	0.383743	-0.758255
H212	H	-1.022417	0.717077	-0.424922
H213	H	-0.689084	1.050410	-0.091589
H214	H	-1.189237	0.256738	-0.920190
H215	H	-0.855904	0.590071	-0.586857
H216	H	-0.522571	0.923404	-0.253523
H217	H	-1.082800	0.281998	-0.921497
H218	H	-0.749467	0.615331	-0.588164
H219	H	-0.416133	0.948665	-0.254831
