data_functionalizedCrystal
_audit_creation_method	'MofGen! by Chris Wilmer'
_symmetry_space_group_name_H-M	'P1'
_symmetry_Int_Tables_number	1
_symmetry_cell_setting	triclinic
loop_
_symmetry_equiv_pos_as_xyz
  x,y,z
_cell_length_a	12.594517
_cell_length_b	29.839131
_cell_length_c	12.594509
_cell_angle_alpha	89.957380
_cell_angle_beta	89.985695
_cell_angle_gamma	90.035187
loop_
_atom_site_label
_atom_site_type_symbol
_atom_site_fract_x
_atom_site_fract_y
_atom_site_fract_z
Zn1	Zn	1.627125	-0.178840	-0.601554
Zn2	Zn	1.626956	-0.253975	-0.423531
Zn3	Zn	1.449129	-0.178860	-0.423605
Zn4	Zn	1.449052	-0.253944	-0.601483
O5	O	1.538065	-0.216405	-0.512543
O6	O	1.776048	-0.188812	-0.577938
O7	O	1.603329	-0.244032	-0.274595
O8	O	1.472843	-0.115990	-0.447271
O9	O	1.775924	-0.244013	-0.447145
O10	O	1.603616	-0.115976	-0.578010
O11	O	1.472680	-0.188845	-0.274649
O12	O	1.300173	-0.188815	-0.447202
O13	O	1.472712	-0.243960	-0.750438
O14	O	1.300116	-0.243979	-0.577888
O15	O	1.603541	-0.188782	-0.750491
O16	O	1.603254	-0.316838	-0.447076
O17	O	1.472548	-0.316815	-0.577816
C18	C	1.261524	-0.216396	-0.512546
C19	C	1.143219	-0.216403	-0.512572
C20	C	1.003202	-0.246461	-0.583520
C21	C	1.073964	-0.257396	-0.486372
C22	C	1.074029	-0.205488	-0.609709
C23	C	1.003195	-0.227374	-0.415341
C24	C	1.003254	-0.175447	-0.538743
C25	C	1.073984	-0.186366	-0.441528
C26	C	1.537903	-0.333127	-0.512454
C27	C	1.537931	-0.383062	-0.512451
C28	C	1.606144	-0.692663	-0.580716
C29	C	1.606260	-0.880336	-0.580780
O30	O	1.664098	-0.904565	-0.638755
N31	N	1.538246	-0.903847	-0.512661
C32	C	1.470194	-0.880437	-0.444527
O33	O	1.412339	-0.904740	-0.386597
C34	C	1.470074	-0.692764	-0.444469
C35	C	1.538100	-0.669256	-0.512584
C36	C	1.674163	-0.669154	-0.648826
C37	C	1.674138	-0.622239	-0.648806
C38	C	1.606093	-0.598832	-0.580674
C39	C	1.538074	-0.622340	-0.512564
C40	C	1.402017	-0.669355	-0.376341
C41	C	1.401991	-0.622434	-0.376334
C42	C	1.470017	-0.598926	-0.444450
C43	C	1.470004	-0.552018	-0.444412
N44	N	1.538017	-0.528507	-0.512530
C45	C	1.606062	-0.551914	-0.580661
C46	C	1.470263	-0.978967	-0.444561
C47	C	1.470295	-1.025885	-0.444573
C48	C	1.606359	-1.025781	-0.580828
C49	C	1.606332	-0.978862	-0.580809
C50	C	1.538277	-0.955456	-0.512679
C51	C	1.606004	-0.453388	-0.580612
C52	C	1.605976	-0.406469	-0.580582
C53	C	1.469908	-0.406577	-0.444332
C54	C	1.469940	-0.453492	-0.444357
C55	C	1.537991	-0.476897	-0.512506
O56	O	1.412188	-0.527760	-0.386476
O57	O	1.663891	-0.527602	-0.638599
C58	C	1.606170	-0.739578	-0.580737
C59	C	1.538150	-0.763087	-0.512626
C60	C	1.470106	-0.739680	-0.444495
C61	C	1.538182	-0.810005	-0.512639
C62	C	1.606226	-0.833412	-0.580770
C63	C	1.674240	-0.809901	-0.648889
C64	C	1.674214	-0.762985	-0.648868
C65	C	1.402092	-0.763191	-0.376376
C66	C	1.402124	-0.810106	-0.376402
C67	C	1.470169	-0.833513	-0.444533
C68	C	1.815686	-0.216414	-0.512541
C69	C	1.933992	-0.216418	-0.512540
C70	C	1.538137	-0.216365	-0.790164
C71	C	1.538167	-0.216349	-0.908470
C72	C	1.538257	-0.099226	-0.512657
C73	C	1.538339	-0.049292	-0.512705
C74	C	1.467031	-0.246343	-0.977694
C75	C	1.564143	-0.257320	-1.048466
C76	C	1.441131	-0.205345	-1.048497
C77	C	1.635330	-0.227347	-0.977684
C78	C	1.512252	-0.175353	-0.977708
C79	C	1.609431	-0.186314	-1.048448
C80	C	1.538056	-0.216412	-0.236002
C81	C	1.538232	-0.216302	-0.117697
H82	H	1.104866	-0.160953	-0.381447
H83	H	1.414556	-0.472634	-0.388884
H84	H	0.972169	-0.140815	-0.560928
H85	H	1.406921	-0.271748	-0.946629
H86	H	1.414913	-1.045022	-0.389096
O87	O	1.111023	-0.194516	-0.707804
C88	C	1.117063	-0.213826	-0.893450
C89	C	1.075080	-0.226291	-0.782421
H90	H	1.088039	-0.239514	-0.953804
H91	H	1.086735	-0.179162	-0.916444
H92	H	1.207571	-0.213587	-0.892280
H93	H	0.984575	-0.226556	-0.783507
H94	H	1.105489	-0.260947	-0.759471
H95	H	1.105024	-0.292039	-0.464215
O96	O	1.672204	-0.476050	-0.646848
C97	C	1.807105	-0.470982	-0.782042
C98	C	1.732206	-0.445263	-0.707069
H99	H	1.855620	-0.446102	-0.830766
H100	H	1.862879	-0.492936	-0.733293
H101	H	1.758203	-0.492954	-0.837626
H102	H	1.781022	-0.423267	-0.651470
H103	H	1.676429	-0.423338	-0.755885
O104	O	1.671908	-0.383584	-0.646808
C105	C	1.686115	-0.330575	-0.790551
C106	C	1.611335	-0.356454	-0.715602
H107	H	1.637171	-0.308642	-0.846205
H108	H	1.741772	-0.308578	-0.741783
H109	H	1.734771	-0.355376	-0.839202
H110	H	1.562609	-0.331686	-0.666935
H111	H	1.555748	-0.378458	-0.764431
H112	H	1.586097	-0.291969	-1.079548
H113	H	0.972212	-0.236654	-0.333157
O114	O	1.740247	-0.599475	-0.715079
C115	C	1.875248	-0.604342	-0.850182
C116	C	1.800414	-0.630173	-0.775193
H117	H	1.923929	-0.629149	-0.898788
H118	H	1.826392	-0.582386	-0.905867
H119	H	1.930878	-0.582361	-0.801345
H120	H	1.744769	-0.652177	-0.823945
H121	H	1.849337	-0.652100	-0.719506
H122	H	1.414843	-0.959913	-0.389078
O123	O	1.740118	-0.691907	-0.715125
C124	C	1.754436	-0.744833	-0.858826
C125	C	1.679607	-0.719090	-0.783829
H126	H	1.705543	-0.766824	-0.914377
H127	H	1.803018	-0.719984	-0.907575
H128	H	1.810158	-0.766773	-0.809989
H129	H	1.623819	-0.697149	-0.832584
H130	H	1.631099	-0.743963	-0.735077
H131	H	1.661724	-0.959724	-0.636275
O132	O	0.966166	-0.276860	-0.654904
C133	C	0.960232	-0.354395	-0.707942
C134	C	1.002226	-0.320017	-0.627018
H135	H	0.989387	-0.389294	-0.685438
H136	H	0.869720	-0.353931	-0.707799
H137	H	0.990560	-0.345404	-0.790552
H138	H	0.971977	-0.328985	-0.544369
H139	H	1.092736	-0.320488	-0.627254
O140	O	1.403845	-0.383765	-0.378254
C141	C	1.343550	-0.311526	-0.317823
C142	C	1.418410	-0.337305	-0.392720
H143	H	1.355316	-0.273958	-0.329477
H144	H	1.257697	-0.320739	-0.336457
H145	H	1.362272	-0.320800	-0.232024
H146	H	1.399784	-0.328045	-0.478545
H147	H	1.504241	-0.328089	-0.373995
H148	H	1.717443	-0.236674	-0.946709
H149	H	1.346624	-0.688488	-0.320874
O150	O	1.335845	-0.599768	-0.310052
C151	C	1.200829	-0.604827	-0.174971
C152	C	1.275701	-0.630551	-0.249962
H153	H	1.152167	-0.629704	-0.126385
H154	H	1.249653	-0.582877	-0.119268
H155	H	1.145182	-0.582851	-0.223806
H156	H	1.331363	-0.652551	-0.201213
H157	H	1.226811	-0.652473	-0.305668
O158	O	1.672354	-1.048592	-0.646982
C159	C	1.732718	-1.120832	-0.707340
C160	C	1.657921	-1.095052	-0.632382
H161	H	1.721090	-1.158400	-0.695546
H162	H	1.713960	-1.111618	-0.793170
H163	H	1.818542	-1.111559	-0.688743
H164	H	1.572072	-1.104311	-0.650884
H165	H	1.676770	-1.104268	-0.546575
H166	H	1.729607	-0.743848	-0.704334
H167	H	1.729648	-0.828967	-0.704360
O168	O	1.335940	-0.832870	-0.310194
C169	C	1.201010	-0.828009	-0.175018
C170	C	1.275898	-0.802175	-0.249949
H171	H	1.152463	-0.803203	-0.126274
H172	H	1.145267	-0.849961	-0.223802
H173	H	1.249924	-0.849993	-0.119451
H174	H	1.227069	-0.780167	-0.305531
H175	H	1.331644	-0.780252	-0.201099
O176	O	1.681453	-0.156080	-1.085236
C177	C	1.865101	-0.133494	-1.090644
C178	C	1.783650	-0.167769	-1.048928
H179	H	1.947742	-0.142927	-1.061287
H180	H	1.864205	-0.133488	-1.181158
H181	H	1.843632	-0.098672	-1.060308
H182	H	1.805062	-0.202608	-1.079186
H183	H	1.784561	-0.167736	-0.958415
H184	H	1.346681	-0.744137	-0.320897
H185	H	1.490270	-0.140714	-0.946603
O186	O	1.343122	-0.194314	-1.085481
C187	C	1.157359	-0.213523	-1.091526
C188	C	1.268290	-0.226055	-1.049554
H189	H	1.096831	-0.239183	-1.062514
H190	H	1.134567	-0.178852	-1.061177
H191	H	1.158572	-0.213270	-1.182033
H192	H	1.267161	-0.226332	-0.959049
H193	H	1.291038	-0.260718	-1.079983
