data_functionalizedCrystal
_audit_creation_method	'MofGen! by Chris Wilmer'
_symmetry_space_group_name_H-M	'P1'
_symmetry_Int_Tables_number	1
_symmetry_cell_setting	triclinic
loop_
_symmetry_equiv_pos_as_xyz
  x,y,z
_cell_length_a	10.723024
_cell_length_b	10.489694
_cell_length_c	9.198806
_cell_angle_alpha	89.999419
_cell_angle_beta	90.003648
_cell_angle_gamma	84.493909
loop_
_atom_site_label
_atom_site_type_symbol
_atom_site_fract_x
_atom_site_fract_y
_atom_site_fract_z
O1	O	-1.657268	-0.178910	-0.120870
O2	O	-1.294123	-0.196035	-0.120874
O3	O	-1.483989	-0.001865	-0.120876
O4	O	-1.467402	-0.373079	-0.120868
O5	O	-1.483974	-0.001865	0.120909
O6	O	-1.294108	-0.196034	0.120912
O7	O	-1.657253	-0.178909	0.120915
Cu8	Cu	-1.475679	-0.187472	0.142990
Cu9	Cu	-1.475697	-0.187472	-0.142949
O10	O	-1.467386	-0.373079	0.120917
C11	C	-1.247615	-0.194789	0.000018
C12	C	-1.109059	-0.191060	0.000016
C13	C	-1.482741	0.045667	0.000013
C14	C	-1.479030	0.187297	0.000000
C15	C	-1.703760	-0.180156	0.000020
C16	C	-1.842316	-0.183884	0.000013
N17	N	-1.475675	-0.187471	0.344104
C18	C	-1.034125	-0.299707	0.000018
C19	C	-0.890920	-0.295856	0.000016
C20	C	-1.595460	0.285046	0.000015
C21	C	-1.533954	0.362368	-0.119194
C22	C	-1.533912	0.362332	0.119187
C23	C	-1.417572	0.262753	-0.119307
C24	C	-1.417547	0.262712	0.119181
C25	C	-1.355955	0.339985	-0.000057
C26	C	-1.468654	0.579392	0.000027
C27	C	-1.472424	0.437769	0.000034
N28	N	-1.475710	-0.187464	-0.344063
C29	C	-1.555394	-0.105585	0.416300
C30	C	-1.555414	-0.105580	0.583713
H31	H	-1.075990	-0.395575	0.000028
H32	H	-0.826529	-0.388866	0.000011
O33	O	-1.592379	0.414139	0.239578
C34	C	-1.532117	0.361358	0.365070
H35	H	-1.431754	0.323604	0.337083
H36	H	-1.531199	0.438381	0.452390
H37	H	-1.584668	0.279412	0.407215
H38	H	-0.906700	-0.090869	0.000002
O39	O	-1.059275	-0.076606	-0.000182
C40	C	-1.099409	-0.006817	-0.125426
H41	H	-1.190053	-0.042242	-0.167173
H42	H	-1.116399	0.099264	-0.097268
H43	H	-1.024232	-0.021037	-0.213111
H44	H	-1.623627	-0.035477	0.354173
H45	H	-1.696726	0.260434	-0.000105
H46	H	-1.368455	0.219417	-0.220202
H47	H	-1.583110	0.405894	-0.219978
O48	O	-1.235040	0.369002	-0.000384
C49	C	-1.174125	0.317794	-0.126223
H50	H	-1.246721	0.303168	-0.213679
H51	H	-1.106436	0.386891	-0.167824
H52	H	-1.119963	0.221919	-0.098924
O53	O	-1.358948	0.210533	0.239303
C54	C	-1.362361	0.076517	0.236907
H55	H	-1.375031	0.043458	0.120236
H56	H	-1.270823	0.028261	0.282425
H57	H	-1.443985	0.049465	0.306120
O58	O	-1.636784	-0.021763	0.657611
C59	C	-1.615038	0.104637	0.620555
H60	H	-1.567005	0.104880	0.510015
H61	H	-1.708141	0.166841	0.615483
H62	H	-1.552387	0.144402	0.706199
O63	O	-1.394211	-0.270930	0.418372
C64	C	-1.316479	-0.202057	0.506401
H65	H	-1.365065	-0.102569	0.529038
H66	H	-1.297445	-0.255062	0.613502
H67	H	-1.224073	-0.192847	0.447850
H68	H	-1.407460	-0.257578	0.593861
