data_functionalizedCrystal
_audit_creation_method	'MofGen! by Chris Wilmer'
_symmetry_space_group_name_H-M	'P1'
_symmetry_Int_Tables_number	1
_symmetry_cell_setting	triclinic
loop_
_symmetry_equiv_pos_as_xyz
  x,y,z
_cell_length_a	27.731993
_cell_length_b	27.731996
_cell_length_c	26.809956
_cell_angle_alpha	89.998344
_cell_angle_beta	90.002784
_cell_angle_gamma	82.620891
loop_
_atom_site_label
_atom_site_type_symbol
_atom_site_fract_x
_atom_site_fract_y
_atom_site_fract_z
O1	O	0.640938	0.057386	-0.041352
O2	O	1.140938	0.557386	0.458648
O3	O	0.500139	0.066159	-0.041383
O4	O	1.000139	0.566159	0.458617
O5	O	0.574924	-0.008627	-0.041356
O6	O	1.074924	0.491373	0.458644
O7	O	0.566152	0.132172	-0.041379
O8	O	1.066152	0.632172	0.458621
O9	O	0.574910	-0.008615	0.041604
O10	O	1.074910	0.491385	0.541604
O11	O	0.500125	0.066171	0.041576
O12	O	1.000125	0.566171	0.541576
O13	O	0.640923	0.057398	0.041607
O14	O	1.140923	0.557398	0.541607
Zn15	Zn	0.570522	0.061786	0.054763
Zn16	Zn	1.070522	0.561786	0.554763
Zn17	Zn	0.570540	0.061771	-0.054539
Zn18	Zn	1.070540	0.561771	0.445461
O19	O	0.566138	0.132184	0.041580
O20	O	1.066138	0.632184	0.541580
C21	C	0.482124	0.065985	0.000093
C22	C	0.982124	0.565985	0.500093
C23	C	0.428468	0.065443	0.000081
C24	C	0.928468	0.565443	0.500081
C25	C	0.045316	0.061506	-0.045115
C26	C	0.545316	0.561506	0.454885
C27	C	0.246973	0.063573	-0.045129
C28	C	0.746973	0.563573	0.454871
O29	O	0.273053	0.063815	-0.083589
O30	O	0.773053	0.563815	0.416411
N31	N	0.272186	0.063838	0.000091
N32	N	0.772186	0.563838	0.500091
C33	C	0.246981	0.063583	0.045318
C34	C	0.746981	0.563583	0.545318
O35	O	0.273054	0.063850	0.083780
O36	O	0.773054	0.563850	0.583780
C37	C	0.045326	0.061512	0.045331
C38	C	0.545326	0.561512	0.545331
C39	C	0.020115	0.061252	0.000108
C40	C	0.520115	0.561252	0.500108
C41	C	0.020106	0.061245	-0.090334
C42	C	0.520106	0.561245	0.409666
C43	C	-0.030306	0.060731	-0.090330
C44	C	0.469694	0.560731	0.409670
C45	C	-0.055507	0.060478	-0.045107
C46	C	0.444493	0.560478	0.454893
C47	C	-0.030296	0.060738	0.000112
C48	C	0.469704	0.560738	0.500112
C49	C	0.020123	0.061253	0.090557
C50	C	0.520123	0.561253	0.590557
C51	C	-0.030294	0.060735	0.090557
C52	C	0.469706	0.560735	0.590557
C53	C	-0.055505	0.060475	0.045334
C54	C	0.444495	0.560475	0.545334
C55	C	-0.105909	0.059970	0.045339
C56	C	0.394091	0.559970	0.545339
N57	N	-0.131121	0.059705	0.000119
N58	N	0.368879	0.559705	0.500119
C59	C	-0.105920	0.059959	-0.045104
C60	C	0.394080	0.559959	0.454896
C61	C	0.352853	0.064671	0.045308
C62	C	0.852853	0.564671	0.545308
C63	C	0.403267	0.065189	0.045304
C64	C	0.903267	0.565189	0.545304
C65	C	0.403255	0.065178	-0.045143
C66	C	0.903255	0.565178	0.454857
C67	C	0.352841	0.064663	-0.045139
C68	C	0.852841	0.564663	0.454861
C69	C	0.327641	0.064406	0.000088
C70	C	0.827641	0.564406	0.500088
C71	C	-0.211789	0.058880	-0.045092
C72	C	0.288211	0.558880	0.454908
C73	C	-0.262205	0.058368	-0.045084
C74	C	0.237795	0.558368	0.454916
C75	C	-0.262189	0.058376	0.045362
C76	C	0.237811	0.558376	0.545362
C77	C	-0.211777	0.058891	0.045355
C78	C	0.288223	0.558891	0.545355
C79	C	-0.186578	0.059141	0.000123
C80	C	0.313422	0.559141	0.500123
O81	O	-0.132019	0.059722	0.083779
O82	O	0.367981	0.559722	0.583779
O83	O	-0.132000	0.059681	-0.083560
O84	O	0.368000	0.559681	0.416440
C85	C	0.095728	0.062020	-0.045119
C86	C	0.595728	0.562020	0.454881
C87	C	0.120938	0.062280	0.000100
C88	C	0.620938	0.562280	0.500100
C89	C	0.095737	0.062027	0.045324
C90	C	0.595737	0.562027	0.545324
C91	C	0.171352	0.062799	0.000097
C92	C	0.671352	0.562799	0.500097
C93	C	0.196553	0.063052	-0.045126
C94	C	0.696553	0.563052	0.454874
C95	C	0.171341	0.062788	-0.090346
C96	C	0.671341	0.562788	0.409654
C97	C	0.120929	0.062274	-0.090342
C98	C	0.620929	0.562274	0.409658
C99	C	0.120950	0.062292	0.090544
C100	C	0.620950	0.562292	0.590544
C101	C	0.171362	0.062806	0.090536
C102	C	0.671362	0.562806	0.590536
C103	C	0.196563	0.063060	0.045313
C104	C	0.696563	0.563060	0.545313
C105	C	0.574737	-0.026628	0.000126
C106	C	1.074737	0.473372	0.500126
C107	C	0.574194	-0.080284	0.000131
C108	C	1.074194	0.419716	0.500131
C109	C	0.570787	-0.413006	-0.045116
C110	C	1.070787	0.086994	0.454884
C111	C	0.568726	-0.614664	-0.045125
C112	C	1.068726	-0.114664	0.454875
O113	O	0.568445	-0.640740	-0.083584
O114	O	1.068445	-0.140740	0.416416
N115	N	0.568462	-0.639875	0.000096
N116	N	1.068462	-0.139875	0.500096
C117	C	0.568711	-0.614668	0.045322
C118	C	1.068711	-0.114668	0.545322
O119	O	0.568434	-0.640738	0.083785
O120	O	1.068434	-0.140738	0.583785
C121	C	0.570768	-0.413010	0.045331
C122	C	1.070768	0.086990	0.545331
C123	C	0.571037	-0.387803	0.000107
C124	C	1.071037	0.112197	0.500107
C125	C	0.571055	-0.387799	-0.090336
C126	C	1.071055	0.112201	0.409664
C127	C	0.571573	-0.337388	-0.090333
C128	C	1.071573	0.162612	0.409667
C129	C	0.571823	-0.312184	-0.045110
C130	C	1.071823	0.187816	0.454890
C131	C	0.571555	-0.337392	0.000110
C132	C	1.071555	0.162608	0.500110
C133	C	0.571013	-0.387804	0.090556
C134	C	1.071013	0.112196	0.590556
C135	C	0.571526	-0.337386	0.090554
C136	C	1.071526	0.162614	0.590554
C137	C	0.571795	-0.312179	0.045331
C138	C	1.071795	0.187821	0.545331
C139	C	0.572323	-0.261777	0.045335
C140	C	1.072323	0.238223	0.545335
N141	N	0.572586	-0.236567	0.000115
N142	N	1.072586	0.263433	0.500115
C143	C	0.572336	-0.261770	-0.045108
C144	C	1.072336	0.238230	0.454892
C145	C	0.567631	-0.720541	0.045314
C146	C	1.067631	-0.220541	0.545314
C147	C	0.567118	-0.770955	0.045312
C148	C	1.067118	-0.270955	0.545312
C149	C	0.567132	-0.770948	-0.045135
C150	C	1.067132	-0.270948	0.454865
C151	C	0.567649	-0.720533	-0.045132
C152	C	1.067649	-0.220533	0.454868
C153	C	0.567895	-0.695330	0.000093
C154	C	1.067895	-0.195330	0.500093
C155	C	0.573424	-0.155903	-0.045099
C156	C	1.073424	0.344097	0.454901
C157	C	0.573944	-0.105488	-0.045092
C158	C	1.073944	0.394512	0.454908
C159	C	0.573927	-0.105499	0.045355
C160	C	1.073927	0.394501	0.545355
C161	C	0.573410	-0.155910	0.045348
C162	C	1.073410	0.344090	0.545348
C163	C	0.573157	-0.181111	0.000117
C164	C	1.073157	0.318889	0.500117
O165	O	0.572598	-0.235670	0.083774
O166	O	1.072598	0.264330	0.583774
O167	O	0.572602	-0.235690	-0.083565
O168	O	1.072602	0.264310	0.416435
C169	C	0.570269	-0.463417	-0.045118
C170	C	1.070269	0.036583	0.454882
C171	C	0.570001	-0.488625	0.000101
C172	C	1.070001	0.011375	0.500101
C173	C	0.570251	-0.463422	0.045324
C174	C	1.070251	0.036578	0.545324
C175	C	0.569488	-0.539039	0.000099
C176	C	1.069488	-0.039039	0.500099
C177	C	0.569238	-0.564243	-0.045123
C178	C	1.069238	-0.064243	0.454877
C179	C	0.569501	-0.539032	-0.090344
C180	C	1.069501	-0.039032	0.409656
C181	C	0.570019	-0.488621	-0.090341
C182	C	1.070019	0.011379	0.409659
C183	C	0.569987	-0.488633	0.090545
C184	C	1.069987	0.011367	0.590545
C185	C	0.569470	-0.539044	0.090538
C186	C	1.069470	-0.039044	0.590538
C187	C	0.569220	-0.564247	0.045316
C188	C	1.069220	-0.064247	0.545316
C189	C	0.658938	0.057572	0.000131
C190	C	1.158938	0.557572	0.500131
C191	C	0.712594	0.058114	0.000139
C192	C	1.212594	0.558114	0.500139
C193	C	0.566325	0.150185	0.000098
C194	C	1.066325	0.650185	0.500098
C195	C	0.566868	0.203841	0.000089
C196	C	1.066868	0.703841	0.500089
N197	N	0.570513	0.061796	0.129359
N198	N	1.070513	0.561796	0.629359
N199	N	0.570553	0.061757	-0.129135
N200	N	1.070553	0.561757	0.370865
C201	C	0.603651	0.028664	0.473998
C202	C	1.103651	0.528664	0.973998
C203	C	0.603663	0.028656	0.682875
C204	C	1.103663	0.528656	1.182875
O205	O	0.631818	0.000489	0.709889
O206	O	1.131818	0.500489	1.209889
N207	N	0.570543	0.061760	0.708986
N208	N	1.070543	0.561760	1.208986
C209	C	0.537416	0.094866	0.682875
C210	C	1.037416	0.594866	1.182875
O211	O	0.509243	0.123020	0.709877
O212	O	1.009243	0.623020	1.209877
C213	C	0.537403	0.094871	0.473998
C214	C	1.037403	0.594871	0.973998
C215	C	0.570528	0.061768	0.447890
C216	C	1.070528	0.561768	0.947890
C217	C	0.636773	-0.004437	0.447889
C218	C	1.136773	0.495563	0.947889
C219	C	0.636772	-0.004433	0.395673
C220	C	1.136772	0.495567	0.895673
C221	C	0.603648	0.028672	0.369565
C222	C	1.103648	0.528672	0.869565
C223	C	0.570526	0.061772	0.395673
C224	C	1.070526	0.561772	0.895673
C225	C	0.504274	0.127974	0.447888
C226	C	1.004274	0.627974	0.947888
C227	C	0.504273	0.127972	0.395665
C228	C	1.004273	0.627972	0.895665
C229	C	0.537398	0.094869	0.369557
C230	C	1.037398	0.594869	0.869557
C231	C	0.537401	0.094881	0.317349
C232	C	1.037401	0.594881	0.817349
N233	N	0.570521	0.061777	0.291238
N234	N	1.070521	0.561777	0.791238
C235	C	0.603644	0.028672	0.317346
C236	C	1.103644	0.528672	0.817346
C237	C	0.537426	0.094862	0.792538
C238	C	1.037426	0.594862	1.292538
C239	C	0.537430	0.094862	0.844757
C240	C	1.037430	0.594862	1.344757
C241	C	0.603676	0.028651	0.844754
C242	C	1.103676	0.528651	1.344754
C243	C	0.603674	0.028654	0.792534
C244	C	1.103674	0.528654	1.292534
C245	C	0.570546	0.061758	0.766427
C246	C	1.070546	0.561758	1.266427
C247	C	0.603639	0.028683	0.207688
C248	C	1.103639	0.528683	0.707688
C249	C	0.603636	0.028692	0.155467
C250	C	1.103636	0.528692	0.655467
C251	C	0.537389	0.094900	0.155475
C252	C	1.037389	0.594900	0.655475
C253	C	0.537393	0.094894	0.207691
C254	C	1.037393	0.594894	0.707691
C255	C	0.570520	0.061781	0.233797
C256	C	1.070520	0.561781	0.733797
O257	O	0.509257	0.123029	0.290303
O258	O	1.009257	0.623029	0.790303
O259	O	0.631806	0.000516	0.290335
O260	O	1.131806	0.500516	0.790335
C261	C	0.603653	0.028660	0.526214
C262	C	1.103653	0.528660	1.026214
C263	C	0.570531	0.061760	0.552322
C264	C	1.070531	0.561760	1.052322
C265	C	0.537407	0.094865	0.526215
C266	C	1.037407	0.594865	1.026215
C267	C	0.570534	0.061760	0.604541
C268	C	1.070534	0.561760	1.104541
C269	C	0.603658	0.028655	0.630649
C270	C	1.103658	0.528655	1.130649
C271	C	0.636777	-0.004448	0.604538
C272	C	1.136777	0.495552	1.104538
C273	C	0.636776	-0.004445	0.552322
C274	C	1.136776	0.495555	1.052322
C275	C	0.504288	0.127969	0.552326
C276	C	1.004288	0.627969	1.052326
C277	C	0.504292	0.127962	0.604542
C278	C	1.004292	0.627962	1.104542
C279	C	0.537416	0.094858	0.630650
C280	C	1.037416	0.594858	1.130650
H281	H	0.332341	0.064459	0.082138
H282	H	0.832341	0.564459	0.582138
H283	H	0.423788	0.065409	0.082129
H284	H	0.923788	0.565409	0.582129
C285	C	0.222283	0.104930	-0.142821
C286	C	0.722283	0.604930	0.357179
C287	C	0.199050	0.063066	-0.140056
C288	C	0.699050	0.563066	0.359944
H289	H	0.239394	0.105098	-0.173507
H290	H	0.739394	0.605098	0.326493
H291	H	0.198712	0.132925	-0.140952
H292	H	0.698712	0.632925	0.359048
H293	H	0.244506	0.105156	-0.115883
H294	H	0.744506	0.605156	0.384117
H295	H	0.176824	0.062842	-0.166992
H296	H	0.676824	0.562842	0.333008
H297	H	0.222624	0.035064	-0.141930
H298	H	0.722624	0.535064	0.358070
C299	C	0.526430	0.160733	0.903475
C300	C	1.026430	0.660733	1.403475
C301	C	0.501022	0.131253	0.873452
C302	C	1.001022	0.631253	1.373452
H303	H	0.503950	0.183200	0.921185
H304	H	1.003950	0.683200	1.421185
H305	H	0.546151	0.141019	0.926499
H306	H	1.046151	0.641019	1.426499
H307	H	0.546415	0.177977	0.883098
H308	H	1.046415	0.677977	1.383098
H309	H	0.481039	0.114006	0.893829
H310	H	0.981039	0.614006	1.393829
H311	H	0.481292	0.150969	0.850425
H312	H	0.981292	0.650969	1.350425
H313	H	0.663750	-0.031402	0.625803
H314	H	1.163750	0.468598	1.125803
C315	C	0.528822	-0.438712	0.143013
C316	C	1.028822	0.061288	0.643013
C317	C	0.570698	-0.415494	0.140272
C318	C	1.070698	0.084506	0.640272
H319	H	0.528624	-0.455805	0.173708
H320	H	1.028624	0.044195	0.673708
H321	H	0.500835	-0.415134	0.141105
H322	H	1.000835	0.084866	0.641105
H323	H	0.528613	-0.460950	0.116088
H324	H	1.028613	0.039050	0.616088
H325	H	0.570905	-0.393253	0.167196
H326	H	1.070905	0.106747	0.667196
H327	H	0.598692	-0.439074	0.142185
H328	H	1.098692	0.060926	0.642185
H329	H	-0.050809	0.060529	0.127386
H330	H	0.449191	0.560529	0.627386
C331	C	-0.149354	0.017884	-0.097581
C332	C	0.350646	0.517884	0.402419
C333	C	-0.184097	0.059158	-0.094812
C334	C	0.315903	0.559158	0.405188
H335	H	-0.132262	0.018059	-0.128277
H336	H	0.367738	0.518059	0.371723
H337	H	-0.127121	0.018116	-0.070659
H338	H	0.372879	0.518116	0.429341
H339	H	-0.165121	-0.010514	-0.095694
H340	H	0.334879	0.489486	0.404306
H341	H	-0.168330	0.087557	-0.096695
H342	H	0.331670	0.587557	0.403305
H343	H	-0.206333	0.058931	-0.121741
H344	H	0.293667	0.558931	0.378259
H345	H	-0.050828	0.060517	-0.127156
H346	H	0.449172	0.560517	0.372844
C347	C	0.424534	0.023753	-0.122226
C348	C	0.924534	0.523753	0.377774
C349	C	0.430962	0.065454	-0.094854
C350	C	0.930962	0.565454	0.405146
H351	H	0.441639	0.023924	-0.152915
H352	H	0.941639	0.523924	0.347085
H353	H	0.436703	-0.004352	-0.103637
H354	H	0.936703	0.495648	0.396363
H355	H	0.390901	0.023413	-0.128697
H356	H	0.890901	0.523413	0.371303
H357	H	0.464595	0.065793	-0.088380
H358	H	0.964595	0.565793	0.411620
H359	H	0.418796	0.093567	-0.113448
H360	H	0.918796	0.593567	0.386552
H361	H	0.477294	0.154929	0.374412
H362	H	0.977294	0.654929	0.874412
H363	H	0.510448	0.121821	0.771286
H364	H	1.010448	0.621821	1.271286
H365	H	0.571790	-0.316868	-0.127158
H366	H	1.071790	0.183132	0.372842
C367	C	0.567152	-0.765886	0.134713
C368	C	1.067152	-0.265886	0.634713
C369	C	0.566827	-0.798661	0.095023
C370	C	1.066827	-0.298661	0.595023
H371	H	0.566967	-0.782989	0.165403
H372	H	1.066967	-0.282989	0.665403
H373	H	0.595551	-0.750129	0.132839
H374	H	1.095551	-0.250129	0.632839
H375	H	0.539151	-0.742316	0.132819
H376	H	1.039151	-0.242316	0.632819
H377	H	0.594829	-0.822228	0.096916
H378	H	1.094829	-0.322228	0.596916
H379	H	0.538424	-0.814425	0.096899
H380	H	1.038424	-0.314425	0.596899
H381	H	0.040619	0.061450	-0.127163
H382	H	0.540619	0.561450	0.372837
C383	C	0.192638	0.021395	0.167631
C384	C	0.692638	0.521395	0.667631
C385	C	0.199070	0.063090	0.140250
C386	C	0.699070	0.563090	0.640250
H387	H	0.209746	0.021567	0.198320
H388	H	0.709746	0.521567	0.698320
H389	H	0.159009	0.021058	0.174100
H390	H	0.659009	0.521058	0.674100
H391	H	0.204805	-0.006717	0.149045
H392	H	0.704805	0.493283	0.649045
H393	H	0.186900	0.091203	0.158834
H394	H	0.686900	0.591203	0.658834
H395	H	0.232706	0.063432	0.133782
H396	H	0.732706	0.563432	0.633782
H397	H	-0.191251	0.059112	0.082179
H398	H	0.308749	0.559112	0.582179
C399	C	0.532485	-0.084214	0.122422
C400	C	1.032485	0.415786	0.622422
C401	C	0.574191	-0.077784	0.095060
C402	C	1.074191	0.422216	0.595060
H403	H	0.532644	-0.067103	0.153108
H404	H	1.032644	0.432897	0.653108
H405	H	0.504383	-0.072054	0.103823
H406	H	1.004383	0.427946	0.603823
H407	H	0.532148	-0.117846	0.128898
H408	H	1.032148	0.382154	0.628898
H409	H	0.574525	-0.044151	0.088581
H410	H	1.074525	0.455849	0.588581
H411	H	0.602300	-0.089942	0.113663
H412	H	1.102300	0.410058	0.613663
C413	C	0.471906	0.160335	0.202447
C414	C	0.971906	0.660335	0.702447
C415	C	0.500980	0.131278	0.236393
C416	C	1.000980	0.631278	0.736393
H417	H	0.449421	0.182792	0.220164
H418	H	0.949421	0.682792	0.720164
H419	H	0.491892	0.177587	0.182087
H420	H	0.991892	0.677587	0.682087
H421	H	0.454681	0.140330	0.182072
H422	H	0.954681	0.640330	0.682072
H423	H	0.518208	0.151283	0.256765
H424	H	1.018208	0.651283	0.756765
H425	H	0.480992	0.114025	0.256761
H426	H	0.980992	0.614025	0.756761
H427	H	0.573216	-0.176415	-0.081930
H428	H	1.073216	0.323585	0.418070
C429	C	0.571130	-0.382715	-0.179734
C430	C	1.071130	0.117285	0.320266
C431	C	0.570785	-0.415497	-0.140050
C432	C	1.070785	0.084503	0.359950
H433	H	0.570969	-0.399814	-0.210427
H434	H	1.070969	0.100186	0.289573
H435	H	0.543130	-0.359152	-0.177858
H436	H	1.043130	0.140848	0.322142
H437	H	0.599530	-0.366954	-0.177833
H438	H	1.099530	0.133046	0.322167
H439	H	0.542382	-0.431256	-0.141949
H440	H	1.042382	0.068744	0.358051
H441	H	0.598787	-0.439069	-0.141927
H442	H	1.098787	0.060931	0.358073
C443	C	0.526631	-0.658103	0.097797
C444	C	1.026631	-0.158103	0.597797
C445	C	0.567906	-0.692845	0.095032
C446	C	1.067906	-0.192845	0.595032
H447	H	0.526802	-0.641010	0.128493
H448	H	1.026802	-0.141010	0.628493
H449	H	0.526864	-0.635871	0.070875
H450	H	1.026864	-0.135871	0.570875
H451	H	0.498234	-0.673871	0.095907
H452	H	0.998234	-0.173871	0.595907
H453	H	0.596304	-0.677077	0.096919
H454	H	1.096304	-0.177077	0.596919
H455	H	0.567677	-0.715080	0.121962
H456	H	1.067677	-0.215080	0.621962
H457	H	0.477319	0.154923	0.625796
H458	H	0.977319	0.654923	1.125796
C459	C	0.438813	0.193416	0.557585
C460	C	0.938813	0.693416	1.057585
C461	C	0.467878	0.164363	0.523633
C462	C	0.967878	0.664363	1.023633
H463	H	0.416338	0.215889	0.539872
H464	H	0.916338	0.715889	1.039872
H465	H	0.421582	0.173414	0.577948
H466	H	0.921582	0.673414	1.077948
H467	H	0.458810	0.210654	0.577956
H468	H	0.958810	0.710654	1.077956
H469	H	0.447882	0.147122	0.503265
H470	H	0.947882	0.647122	1.003265
H471	H	0.485111	0.184368	0.503262
H472	H	0.985111	0.684368	1.003262
H473	H	0.332317	0.064452	-0.081963
H474	H	0.832317	0.564452	0.418037
H475	H	0.571719	-0.316867	0.127383
H476	H	1.071719	0.183133	0.627383
C477	C	0.647789	-0.070312	0.506606
C478	C	1.147789	0.429688	1.006606
C479	C	0.673188	-0.040829	0.476580
C480	C	1.173188	0.459171	0.976580
H481	H	0.670274	-0.092781	0.524313
H482	H	1.170274	0.407219	1.024313
H483	H	0.628072	-0.050603	0.529634
H484	H	1.128072	0.449397	1.029634
H485	H	0.627800	-0.087556	0.486232
H486	H	1.127800	0.412444	0.986232
H487	H	0.693174	-0.023582	0.496955
H488	H	1.193174	0.476418	0.996955
H489	H	0.692913	-0.060541	0.453550
H490	H	1.192913	0.439459	0.953550
H491	H	0.510421	0.121855	0.134210
H492	H	1.010421	0.621855	0.634210
C493	C	-0.339468	0.057585	0.085518
C494	C	0.160532	0.557585	0.585518
C495	C	-0.289896	0.058095	0.095070
C496	C	0.210104	0.558095	0.595070
H497	H	-0.356573	0.057406	0.116206
H498	H	0.143427	0.557406	0.616206
H499	H	-0.351633	0.085698	0.066939
H500	H	0.148367	0.585698	0.566939
H501	H	-0.343819	0.029298	0.066937
H502	H	0.156181	0.529298	0.566937
H503	H	-0.285546	0.086384	0.113648
H504	H	0.214454	0.586384	0.613648
H505	H	-0.277728	0.029979	0.113657
H506	H	0.222272	0.529979	0.613657
C507	C	0.015051	0.061197	0.179957
C508	C	0.515051	0.561197	0.679957
C509	C	0.047826	0.061534	0.140269
C510	C	0.547826	0.561534	0.640269
H511	H	0.032155	0.061367	0.210648
H512	H	0.532155	0.561367	0.710648
H513	H	-0.008515	0.089195	0.178073
H514	H	0.491485	0.589195	0.678073
H515	H	-0.000709	0.032794	0.178068
H516	H	0.499291	0.532794	0.678068
H517	H	0.063583	0.089939	0.142155
H518	H	0.563583	0.589939	0.642155
H519	H	0.071401	0.033534	0.142153
H520	H	0.571401	0.533534	0.642153
H521	H	0.100407	0.062062	-0.127167
H522	H	0.600407	0.562062	0.372833
C523	C	-0.257144	0.058407	-0.134490
C524	C	0.242856	0.558407	0.365510
C525	C	-0.289915	0.058079	-0.094797
C526	C	0.210085	0.558079	0.405203
H527	H	-0.274251	0.058225	-0.165179
H528	H	0.225749	0.558225	0.334821
H529	H	-0.241387	0.086806	-0.132614
H530	H	0.258613	0.586806	0.367386
H531	H	-0.233575	0.030406	-0.132600
H532	H	0.266425	0.530406	0.367400
H533	H	-0.313482	0.086082	-0.096685
H534	H	0.186518	0.586082	0.403315
H535	H	-0.305681	0.029677	-0.096674
H536	H	0.194319	0.529677	0.403326
H537	H	0.573196	-0.176436	0.082173
H538	H	1.073196	0.323564	0.582173
C539	C	0.573903	-0.110552	-0.134497
C540	C	1.073903	0.389448	0.365503
C541	C	0.574236	-0.077780	-0.094805
C542	C	1.074236	0.422220	0.405195
H543	H	0.574080	-0.093446	-0.165186
H544	H	1.074080	0.406554	0.334814
H545	H	0.601900	-0.134119	-0.132611
H546	H	1.101900	0.365881	0.367389
H547	H	0.545500	-0.126310	-0.132618
H548	H	1.045500	0.373690	0.367382
H549	H	0.602642	-0.062024	-0.096683
H550	H	1.102642	0.437976	0.403317
H551	H	0.546237	-0.054204	-0.096693
H552	H	1.046237	0.445796	0.403307
H553	H	0.100437	0.062083	0.127371
H554	H	0.600437	0.562083	0.627371
C555	C	0.568712	-0.616313	-0.130499
C556	C	1.068712	-0.116313	0.369501
C557	C	0.569224	-0.566742	-0.140054
C558	C	1.069224	-0.066742	0.359946
H559	H	0.568535	-0.633420	-0.161186
H560	H	1.068535	-0.133420	0.338814
H561	H	0.596823	-0.628477	-0.111916
H562	H	1.096823	-0.128477	0.388084
H563	H	0.540423	-0.620661	-0.111920
H564	H	1.040423	-0.120661	0.388080
H565	H	0.597514	-0.562394	-0.158629
H566	H	1.097514	-0.062394	0.341371
H567	H	0.541109	-0.554575	-0.158644
H568	H	1.041109	-0.054575	0.341356
H569	H	0.567867	-0.700012	-0.081957
H570	H	1.067867	-0.200012	0.418043
C571	C	0.569499	-0.533973	0.179943
C572	C	1.069499	-0.033973	0.679943
C573	C	0.569173	-0.566748	0.140253
C574	C	1.069173	-0.066748	0.640253
H575	H	0.569309	-0.551076	0.210633
H576	H	1.069309	-0.051076	0.710633
H577	H	0.597901	-0.518220	0.178071
H578	H	1.097901	-0.018220	0.678071
H579	H	0.541501	-0.510401	0.178046
H580	H	1.041501	-0.010401	0.678046
H581	H	0.597173	-0.590319	0.142148
H582	H	1.097173	-0.090319	0.642148
H583	H	0.540768	-0.582509	0.142126
H584	H	1.040768	-0.082509	0.642126
H585	H	0.566929	-0.791477	-0.081957
H586	H	1.066929	-0.291477	0.418043
H587	H	0.663749	-0.031400	0.531068
H588	H	1.163749	0.468600	1.031068
H589	H	0.570238	-0.468101	-0.127167
H590	H	1.070238	0.031899	0.372833
H591	H	0.630612	0.001735	0.134211
H592	H	1.130612	0.501735	0.634211
C593	C	0.669122	-0.036762	0.202425
C594	C	1.169122	0.463238	0.702425
C595	C	0.640053	-0.007713	0.236378
C596	C	1.140053	0.492287	0.736378
H597	H	0.691605	-0.059228	0.220138
H598	H	1.191605	0.440772	0.720138
H599	H	0.649132	-0.054003	0.182058
H600	H	1.149132	0.445997	0.682058
H601	H	0.686349	-0.016752	0.182059
H602	H	1.186349	0.483248	0.682059
H603	H	0.622823	-0.027722	0.256742
H604	H	1.122823	0.472278	0.756742
H605	H	0.660045	0.009529	0.256753
H606	H	1.160045	0.509529	0.756753
H607	H	0.570191	-0.468117	0.127371
H608	H	1.070191	0.031883	0.627371
C609	C	0.702246	-0.069882	0.400931
C610	C	1.202246	0.430118	0.900931
C611	C	0.673178	-0.040826	0.366979
C612	C	1.173178	0.459174	0.866979
H613	H	0.724719	-0.092354	0.383218
H614	H	1.224719	0.407646	0.883218
H615	H	0.719479	-0.049883	0.421295
H616	H	1.219479	0.450117	0.921295
H617	H	0.682250	-0.087122	0.421301
H618	H	1.182250	0.412878	0.921301
H619	H	0.693173	-0.023584	0.346611
H620	H	1.193173	0.476416	0.846611
H621	H	0.655944	-0.060829	0.346606
H622	H	1.155944	0.439171	0.846606
C623	C	0.669154	-0.036791	0.797788
C624	C	1.169154	0.463209	1.297788
C625	C	0.640082	-0.007737	0.763838
C626	C	1.140082	0.492263	1.263838
H627	H	0.691628	-0.059261	0.780073
H628	H	1.191628	0.440739	1.280073
H629	H	0.686386	-0.016790	0.818151
H630	H	1.186386	0.483210	1.318151
H631	H	0.649162	-0.054033	0.818159
H632	H	1.149162	0.445967	1.318159
H633	H	0.660074	0.009508	0.743470
H634	H	1.160074	0.509508	1.243470
H635	H	0.622848	-0.027741	0.743467
H636	H	1.122848	0.472259	1.243467
H637	H	0.630647	0.001697	0.866020
H638	H	1.130647	0.501697	1.366020
H639	H	0.477300	0.154929	0.469138
H640	H	0.977300	0.654929	0.969138
