data_functionalizedCrystal
_audit_creation_method	'MofGen! by Chris Wilmer'
_symmetry_space_group_name_H-M	'P1'
_symmetry_Int_Tables_number	1
_symmetry_cell_setting	triclinic
loop_
_symmetry_equiv_pos_as_xyz
  x,y,z
_cell_length_a	19.188925
_cell_length_b	27.731996
_cell_length_c	18.266242
_cell_angle_alpha	89.987663
_cell_angle_beta	89.990012
_cell_angle_gamma	82.881968
loop_
_atom_site_label
_atom_site_type_symbol
_atom_site_fract_x
_atom_site_fract_y
_atom_site_fract_z
O1	O	0.925751	0.060337	-0.060906
O2	O	0.722385	0.068464	-0.060905
O3	O	0.830403	-0.005979	-0.060890
O4	O	0.817733	0.134780	-0.060922
O5	O	0.830385	-0.005983	0.060872
O6	O	0.722367	0.068460	0.060856
O7	O	0.925732	0.060333	0.060856
Zn8	Zn	0.824047	0.064396	0.080188
Zn9	Zn	0.824070	0.064401	-0.080238
O10	O	0.817714	0.134776	0.060840
C11	C	0.696366	0.068199	-0.000024
C12	C	0.618867	0.067410	-0.000023
C13	C	0.056841	0.105810	-0.000034
C14	C	0.129660	0.106555	-0.000038
C15	C	0.174884	0.062874	-0.000026
C16	C	0.147286	0.018445	-0.000030
C17	C	0.074469	0.017701	-0.000033
N18	N	0.295766	0.031250	0.041429
N19	N	0.364938	0.031960	0.041434
C20	C	0.394279	0.065113	-0.000018
N21	N	0.351832	0.097538	-0.041466
N22	N	0.282653	0.096829	-0.041468
C23	C	0.253843	0.063676	-0.000023
C24	C	0.500827	0.110348	-0.000024
C25	C	0.573647	0.111091	-0.000033
C26	C	0.591272	0.022980	-0.000018
C27	C	0.518453	0.022238	-0.000017
C28	C	0.473235	0.065923	-0.000017
C29	C	0.830133	-0.023989	-0.000007
C30	C	0.829349	-0.077648	0.000001
C31	C	0.824427	-0.410377	-0.066407
C32	C	0.821450	-0.612044	-0.066420
O33	O	0.821043	-0.638114	-0.122868
N34	N	0.821070	-0.637265	-0.000048
C35	C	0.821430	-0.612065	0.066331
O36	O	0.821032	-0.638143	0.122784
C37	C	0.824402	-0.410398	0.066344
C38	C	0.824789	-0.385181	-0.000033
C39	C	0.824813	-0.385160	-0.132778
C40	C	0.825561	-0.334746	-0.132774
C41	C	0.825923	-0.309550	-0.066400
C42	C	0.825537	-0.334767	-0.000029
C43	C	0.824757	-0.385198	0.132723
C44	C	0.825499	-0.334778	0.132720
C45	C	0.825885	-0.309561	0.066344
C46	C	0.826647	-0.259158	0.066350
N47	N	0.827027	-0.233937	-0.000022
C48	C	0.826665	-0.259133	-0.066397
C49	C	0.819872	-0.717943	0.066320
C50	C	0.819130	-0.768359	0.066318
C51	C	0.819148	-0.768335	-0.066434
C52	C	0.819895	-0.717918	-0.066431
C53	C	0.820251	-0.692722	-0.000051
C54	C	0.828236	-0.153262	-0.066384
C55	C	0.828987	-0.102844	-0.066374
C56	C	0.828965	-0.102872	0.066378
C57	C	0.828218	-0.153286	0.066368
C58	C	0.827851	-0.178479	-0.000018
O59	O	0.827046	-0.233056	0.122768
O60	O	0.827048	-0.233045	-0.122841
C61	C	0.823679	-0.460790	-0.066411
C62	C	0.823293	-0.486008	-0.000040
C63	C	0.823655	-0.460811	0.066334
C64	C	0.822551	-0.536424	-0.000043
C65	C	0.822189	-0.561620	-0.066418
C66	C	0.822569	-0.536400	-0.132790
C67	C	0.823317	-0.485987	-0.132786
C68	C	0.823275	-0.486032	0.132706
C69	C	0.822528	-0.536445	0.132697
C70	C	0.822166	-0.561641	0.066322
C71	C	0.951751	0.060598	-0.000027
C72	C	1.029250	0.061386	-0.000033
C73	C	0.817984	0.152786	-0.000045
C74	C	0.818768	0.206444	-0.000057
N75	N	0.824035	0.064392	0.189675
N76	N	0.824087	0.064401	-0.189725
C77	C	0.871881	0.031445	0.227991
C78	C	0.871886	0.031443	0.304636
C79	C	0.824051	0.064396	0.342962
C80	C	0.776196	0.097346	0.304637
C81	C	0.776188	0.097344	0.227994
N82	N	0.814691	0.107187	0.463285
N83	N	0.814702	0.107187	0.536093
C84	C	0.824070	0.064403	0.573885
N85	N	0.833440	0.021617	0.536118
N86	N	0.833432	0.021617	0.463303
C87	C	0.824054	0.064401	0.426069
C88	C	0.871924	0.031451	0.695308
C89	C	0.871923	0.031448	0.771954
C90	C	0.776237	0.097355	0.771954
C91	C	0.776234	0.097353	0.695309
C92	C	0.824081	0.064402	0.656990
H93	H	0.184112	-0.017120	-0.000023
H94	H	0.464008	0.145919	-0.000026
H95	H	0.737286	0.124184	0.803158
H96	H	0.818825	-0.788888	0.120368
C97	C	0.880759	-0.666762	-0.143455
C98	C	0.820297	-0.690195	-0.139388
H99	H	0.881001	-0.649649	-0.188499
H100	H	0.881078	-0.644543	-0.103928
H101	H	0.921202	-0.690205	-0.140710
H102	H	0.779854	-0.666751	-0.142128
H103	H	0.819971	-0.712416	-0.178926
C104	C	0.655020	0.125935	0.328267
C105	C	0.723614	0.133567	0.346765
H106	H	0.622557	0.148295	0.354279
H107	H	0.648171	0.130652	0.277144
H108	H	0.647812	0.093685	0.340847
H109	H	0.730824	0.165816	0.334180
H110	H	0.730466	0.128854	0.397900
H111	H	0.737276	0.124184	0.664110
C112	C	0.760301	0.163155	0.141784
C113	C	0.723598	0.133565	0.185872
H114	H	0.727833	0.185515	0.115776
H115	H	0.789163	0.180492	0.171672
H116	H	0.788788	0.143525	0.107995
H117	H	0.695114	0.153195	0.219664
H118	H	0.694723	0.116227	0.155981
C119	C	0.548907	0.198109	-0.000029
C120	C	0.603977	0.159926	-0.000032
H121	H	0.567634	0.228257	-0.000023
H122	H	0.520880	0.195993	-0.042487
H123	H	0.520866	0.195977	0.042436
H124	H	0.632016	0.162056	-0.042499
H125	H	0.632016	0.162043	0.042430
C126	C	0.710717	-0.015002	-0.000007
C127	C	0.640975	-0.025035	-0.000008
H128	H	0.741403	-0.044646	0.000001
H129	H	0.719032	0.003220	-0.042467
H130	H	0.719016	0.003218	0.042455
H131	H	0.632675	-0.043252	-0.042473
H132	H	0.632656	-0.043265	0.042457
C133	C	0.825385	-0.339868	0.263941
C134	C	0.825884	-0.307083	0.205688
H135	H	0.825626	-0.322770	0.308986
H136	H	0.784368	-0.355756	0.261167
H137	H	0.865831	-0.363307	0.261179
H138	H	0.785435	-0.283646	0.208446
H139	H	0.866905	-0.291187	0.208463
C140	C	0.826546	-0.257441	-0.191733
C141	C	0.825866	-0.307020	-0.205737
H142	H	0.826703	-0.240325	-0.236780
H143	H	0.785971	-0.245440	-0.164389
H144	H	0.867434	-0.252934	-0.164540
H145	H	0.784975	-0.311528	-0.232925
H146	H	0.866446	-0.319025	-0.233092
C147	C	0.818007	-0.845613	-0.125372
C148	C	0.818743	-0.796037	-0.139395
H149	H	0.817748	-0.862714	-0.170413
H150	H	0.858614	-0.857650	-0.098111
H151	H	0.777151	-0.850096	-0.098090
H152	H	0.859601	-0.791554	-0.166673
H153	H	0.778131	-0.783996	-0.166668
H154	H	0.495989	-0.013936	-0.000012
H155	H	0.829304	-0.082315	-0.120428
C156	C	0.913875	-0.052298	0.671658
C157	C	0.924507	-0.004756	0.653151
H158	H	0.946335	-0.074645	0.645620
H159	H	0.920746	-0.057029	0.722776
H160	H	0.867334	-0.057465	0.659116
H161	H	0.971047	0.000412	0.665697
H162	H	0.917642	-0.000023	0.602021
C163	C	0.019420	0.180684	-0.062642
C164	C	0.007139	0.153828	-0.000044
H165	H	-0.011268	0.210328	-0.062650
H166	H	0.066731	0.187482	-0.062633
H167	H	0.011113	0.162459	-0.105095
H168	H	0.015451	0.172052	0.042410
H169	H	-0.040184	0.147032	-0.000047
C170	C	0.823255	-0.491042	-0.264001
C171	C	0.823734	-0.458272	-0.205749
H172	H	0.823507	-0.473933	-0.309047
H173	H	0.863694	-0.514480	-0.261238
H174	H	0.782231	-0.506933	-0.261229
H175	H	0.864761	-0.442384	-0.208519
H176	H	0.783291	-0.434825	-0.208514
H177	H	0.827934	-0.173768	-0.120442
H178	H	0.910883	0.004616	0.803151
C179	C	0.819795	-0.723043	0.197539
C180	C	0.820278	-0.690253	0.139292
H181	H	0.820055	-0.705950	0.242588
H182	H	0.778775	-0.738928	0.194779
H183	H	0.860237	-0.746484	0.194759
H184	H	0.779832	-0.666813	0.142069
H185	H	0.861302	-0.674360	0.142053
C186	C	0.099206	-0.069317	-0.000018
C187	C	0.044137	-0.031132	-0.000025
H188	H	0.080478	-0.099464	-0.000007
H189	H	0.127244	-0.067193	-0.042477
H190	H	0.127236	-0.067193	0.042445
H191	H	0.016109	-0.033254	-0.042491
H192	H	0.016087	-0.033258	0.042439
H193	H	0.824515	-0.405669	-0.186831
C194	C	0.201343	0.158515	-0.062620
C195	C	0.159999	0.155388	-0.000031
H196	H	0.220069	0.188664	-0.062615
H197	H	0.238690	0.132608	-0.062614
H198	H	0.173305	0.156403	-0.105079
H199	H	0.188039	0.157497	0.042429
H200	H	0.122647	0.181302	-0.000031
C201	C	0.763819	-0.436309	0.209729
C202	C	0.824303	-0.412898	0.205693
H203	H	0.763534	-0.453409	0.254782
H204	H	0.723396	-0.412860	0.206939
H205	H	0.763516	-0.458543	0.170210
H206	H	0.824603	-0.390662	0.245209
H207	H	0.864737	-0.436351	0.208491
H208	H	0.827910	-0.173819	0.120417
C209	C	0.830089	-0.025592	0.125312
C210	C	0.829358	-0.075169	0.139335
H211	H	0.830324	-0.008489	0.170354
H212	H	0.870947	-0.021106	0.098051
H213	H	0.789484	-0.013559	0.098032
H214	H	0.869966	-0.087204	0.166611
H215	H	0.788496	-0.079659	0.166608
H216	H	0.910849	0.004612	0.335838
H217	H	0.822277	-0.556924	-0.186834
H218	H	0.822219	-0.556973	0.186752
H219	H	0.823571	-0.465522	0.186758
C220	C	0.966461	-0.033701	0.235696
C221	C	0.924467	-0.004780	0.185873
H222	H	0.998921	-0.056067	0.209691
H223	H	0.991354	-0.013621	0.265570
H224	H	0.937588	-0.051036	0.265609
H225	H	0.953339	0.012557	0.155963
H226	H	0.899572	-0.024863	0.155986
