data_functionalizedCrystal
_audit_creation_method	'MofGen! by Chris Wilmer'
_symmetry_space_group_name_H-M	'P1'
_symmetry_Int_Tables_number	1
_symmetry_cell_setting	triclinic
loop_
_symmetry_equiv_pos_as_xyz
  x,y,z
_cell_length_a	13.033293
_cell_length_b	13.897447
_cell_length_c	13.032268
_cell_angle_alpha	97.151637
_cell_angle_beta	90.920818
_cell_angle_gamma	82.808639
loop_
_atom_site_label
_atom_site_type_symbol
_atom_site_fract_x
_atom_site_fract_y
_atom_site_fract_z
Zn1	Zn	1.498440	0.300102	0.781500
Zn2	Zn	1.831773	0.633436	1.114834
Zn3	Zn	2.165106	0.966769	1.448167
Zn4	Zn	1.520172	0.438722	0.609536
Zn5	Zn	1.853505	0.772055	0.942869
Zn6	Zn	2.186839	1.105389	1.276202
Zn7	Zn	1.348300	0.295009	0.587676
Zn8	Zn	1.681634	0.628342	0.921009
Zn9	Zn	2.014967	0.961675	1.254342
Zn10	Zn	1.326420	0.478933	0.759578
Zn11	Zn	1.659753	0.812267	1.092912
Zn12	Zn	1.993086	1.145600	1.426245
O13	O	1.423333	0.378192	0.684573
O14	O	1.756666	0.711525	1.017906
O15	O	2.090000	1.044858	1.351239
O16	O	1.645242	0.303794	0.777012
O17	O	1.978576	0.637127	1.110345
O18	O	2.311909	0.970461	1.443679
O19	O	1.515625	0.400698	0.462726
O20	O	1.848958	0.734031	0.796060
O21	O	2.182292	1.067364	1.129393
O22	O	1.368279	0.160699	0.613413
O23	O	1.701612	0.494032	0.946746
O24	O	2.034945	0.827365	1.280080
O25	O	1.661209	0.405637	0.650670
O26	O	1.994542	0.738970	0.984004
O27	O	2.327876	1.072304	1.317337
O28	O	1.478585	0.164441	0.755815
O29	O	1.811919	0.497774	1.089149
O30	O	2.145252	0.831108	1.422482
O31	O	1.389352	0.295112	0.446666
O32	O	1.722685	0.628446	0.779999
O33	O	2.056018	0.961779	1.113333
O34	O	1.201478	0.334103	0.592156
O35	O	1.534811	0.667437	0.925489
O36	O	1.868145	1.000770	1.258823
O37	O	1.330986	0.474171	0.906396
O38	O	1.664320	0.807505	1.239729
O39	O	1.997653	1.140838	1.573063
O40	O	1.185402	0.469232	0.718452
O41	O	1.518736	0.802565	1.051785
O42	O	1.852069	1.135899	1.385119
O43	O	1.457369	0.342785	0.922502
O44	O	1.790702	0.676118	1.255835
O45	O	2.124035	1.009452	1.589169
O46	O	1.494408	0.579042	0.629413
O47	O	1.827742	0.912375	0.962747
O48	O	2.161075	1.245709	1.296080
O49	O	1.352059	0.608585	0.739649
O50	O	1.685393	0.941918	1.072982
O51	O	2.018726	1.275252	1.406315
C52	C	1.156123	0.405479	0.650554
C53	C	1.489457	0.738813	0.983887
C54	C	1.822790	1.072146	1.317220
C55	C	1.041807	0.417179	0.636025
C56	C	1.375140	0.750513	0.969358
C57	C	1.708473	1.083846	1.302691
C58	C	0.982928	0.372109	0.692155
C59	C	1.316262	0.705443	1.025489
C60	C	1.649595	1.038776	1.358822
C61	C	0.864776	0.384201	0.677140
C62	C	1.198109	0.717534	1.010474
C63	C	1.531443	1.050868	1.343807
C64	C	1.423243	0.628814	0.684550
C65	C	1.756576	0.962147	1.017883
C66	C	2.089910	1.295481	1.351217
C67	C	1.423294	0.736026	0.684587
C68	C	1.756627	1.069359	1.017920
C69	C	2.089961	1.402693	1.351254
C70	C	1.423338	0.823095	0.684621
C71	C	1.756671	1.156428	1.017954
C72	C	2.090004	1.489761	1.351288
C73	C	1.423402	0.932324	0.684662
C74	C	1.756736	1.265658	1.017995
C75	C	2.090069	1.598991	1.351328
C76	C	1.691586	0.350798	0.718725
C77	C	2.024919	0.684132	1.052058
C78	C	2.358253	1.017465	1.385392
C79	C	1.805899	0.339125	0.733279
C80	C	2.139233	0.672458	1.066612
C81	C	2.472566	1.005792	1.399945
C82	C	1.389313	0.413532	0.952806
C83	C	1.722646	0.746865	1.286140
C84	C	2.055979	1.080199	1.619473
C85	C	1.374815	0.428592	1.067112
C86	C	1.708149	0.761925	1.400445
C87	C	2.041482	1.095258	1.733778
C88	C	1.423439	1.126593	0.684633
C89	C	1.756772	1.459927	1.017967
C90	C	2.090106	1.793260	1.351300
C91	C	1.423460	1.019384	0.684690
C92	C	1.756793	1.352717	1.018023
C93	C	2.090127	1.686050	1.351357
C94	C	1.457280	0.342913	0.417390
C95	C	1.790613	0.676246	0.750723
C96	C	2.123947	1.009580	1.084056
C97	C	1.471977	0.327561	0.303110
C98	C	1.805310	0.660895	0.636444
C99	C	2.138643	0.994228	0.969777
C100	C	1.430883	0.370299	1.126042
C101	C	1.764217	0.703632	1.459375
C102	C	2.097550	1.036965	1.792708
C103	C	1.415901	0.385862	1.244182
C104	C	1.749234	0.719196	1.577516
C105	C	2.082567	1.052529	1.910849
H106	H	1.019992	0.324568	0.751323
H107	H	1.353326	0.657901	1.084656
H108	H	1.686659	0.991234	1.417990
H109	H	1.531069	0.266123	1.266105
H110	H	1.864403	0.599456	1.599438
H111	H	2.197736	0.932789	1.932771
H112	H	0.827717	0.431740	0.617962
H113	H	1.161051	0.765073	0.951296
H114	H	1.494384	1.098406	1.284629
H115	H	0.842958	0.291578	0.792449
H116	H	1.176291	0.624911	1.125783
H117	H	1.509624	0.958245	1.459116
F118	F	0.993368	0.479311	0.558676
F119	F	1.326702	0.812644	0.892009
F120	F	1.660035	1.145977	1.225343
H121	H	1.489973	0.308867	1.089030
H122	H	1.823307	0.642200	1.422364
H123	H	2.156640	0.975533	1.755697
F124	F	1.297568	0.508882	1.115481
F125	F	1.630901	0.842215	1.448815
F126	F	1.964235	1.175548	1.782148
F127	F	1.338650	0.466157	1.292547
F128	F	1.671983	0.799490	1.625881
F129	F	2.005316	1.132823	1.959214
