data_functionalizedCrystal
_audit_creation_method	'MofGen! by Chris Wilmer'
_symmetry_space_group_name_H-M	'P1'
_symmetry_Int_Tables_number	1
_symmetry_cell_setting	triclinic
loop_
_symmetry_equiv_pos_as_xyz
  x,y,z
_cell_length_a	14.908993
_cell_length_b	14.908520
_cell_length_c	14.908308
_cell_angle_alpha	83.639235
_cell_angle_beta	83.629285
_cell_angle_gamma	96.420918
loop_
_atom_site_label
_atom_site_type_symbol
_atom_site_fract_x
_atom_site_fract_y
_atom_site_fract_z
Zn1	Zn	1.335364	-0.308039	0.450896
Zn2	Zn	1.335261	-0.450690	0.308273
Zn3	Zn	1.192735	-0.308082	0.308277
Zn4	Zn	1.174095	-0.469240	0.469439
O5	O	1.259364	-0.384013	0.384221
O6	O	1.462490	-0.319180	0.424215
O7	O	1.324112	-0.424028	0.181139
O8	O	1.219499	-0.180931	0.319438
O9	O	1.462414	-0.423986	0.319430
O10	O	1.324288	-0.180899	0.424219
O11	O	1.219399	-0.319254	0.181142
O12	O	1.063123	-0.337241	0.337418
O13	O	1.187731	-0.455601	0.594114
O14	O	1.049429	-0.455643	0.455822
O15	O	1.306214	-0.337167	0.580491
O16	O	1.306038	-0.580296	0.337410
O17	O	1.187631	-0.593925	0.455818
C18	C	1.023310	-0.398460	0.398633
C19	C	0.922323	-0.404664	0.404822
C20	C	0.746765	-0.292865	0.293307
C21	C	0.651879	-0.298691	0.299118
C22	C	0.637662	-0.422146	0.422251
C23	C	0.732548	-0.416320	0.416439
C24	C	0.787097	-0.351677	0.351966
C25	C	0.881985	-0.345847	0.346160
C26	C	0.867766	-0.469305	0.469287
C27	C	0.772880	-0.475131	0.475098
C28	C	1.244824	-0.620077	0.398644
C29	C	1.238685	-0.721064	0.404840
C30	C	1.350561	-0.896574	0.293270
C31	C	1.344796	-0.991459	0.299088
C32	C	1.221395	-1.005721	0.422297
C33	C	1.227160	-0.910836	0.416479
C34	C	1.291744	-0.856265	0.351962
C35	C	1.297504	-0.761378	0.346141
C36	C	1.174108	-0.775642	0.469354
C37	C	1.168344	-0.870527	0.475172
C38	C	1.496339	-0.369509	0.369754
C39	C	1.597324	-0.363329	0.363589
C40	C	1.244905	-0.398449	0.621189
C41	C	1.238743	-0.404600	0.722171
C42	C	1.273984	-0.147026	0.369761
C43	C	1.280215	-0.046036	0.363598
C44	C	1.273823	-0.369564	0.148169
C45	C	1.280177	-0.363145	0.047161
C46	C	1.350540	-0.292814	0.897740
C47	C	1.344754	-0.298591	0.992621
C48	C	1.221380	-0.421926	1.006814
C49	C	1.227166	-0.416149	0.911934
C50	C	1.291750	-0.351592	0.857400
C51	C	1.297540	-0.345820	0.762517
C52	C	1.174162	-0.469150	0.776712
C53	C	1.168376	-0.474927	0.871593
H54	H	0.900614	-0.517189	0.517057
H55	H	1.403130	-0.240253	0.853338
Cl56	Cl	0.601179	-0.224755	0.225370
H57	H	1.403142	-0.852141	0.240732
Cl58	Cl	0.815344	-0.211595	0.212265
H59	H	1.350089	-0.716947	0.293606
H60	H	1.392692	-1.024274	0.251296
H61	H	1.168820	-1.050169	0.474829
H62	H	1.126293	-0.517014	0.743857
H63	H	1.392625	-0.250725	1.025462
H64	H	1.168800	-0.474485	1.051232
H65	H	1.115763	-0.914971	0.527702
H66	H	1.115793	-0.527486	0.916007
Cl67	Cl	1.100152	-0.724964	0.543132
Cl68	Cl	0.704296	-0.556403	0.556135
Cl69	Cl	0.950559	-0.264581	0.265111
Cl70	Cl	1.378730	-0.264666	0.693961
H71	H	0.593232	-0.474783	0.474733
