data_functionalizedCrystal
_audit_creation_method	'MofGen! by Chris Wilmer'
_symmetry_space_group_name_H-M	'P1'
_symmetry_Int_Tables_number	1
_symmetry_cell_setting	triclinic
loop_
_symmetry_equiv_pos_as_xyz
  x,y,z
_cell_length_a	10.540539
_cell_length_b	10.654562
_cell_length_c	9.130313
_cell_angle_alpha	89.996930
_cell_angle_beta	90.000859
_cell_angle_gamma	84.507798
loop_
_atom_site_label
_atom_site_type_symbol
_atom_site_fract_x
_atom_site_fract_y
_atom_site_fract_z
O1	O	0.178372	1.667888	-0.121888
O2	O	0.195342	1.302417	-0.121869
O3	O	0.002148	1.493490	-0.121877
O4	O	0.371566	1.476814	-0.121880
O5	O	0.002153	1.493488	0.121721
O6	O	0.195347	1.302415	0.121730
O7	O	0.178377	1.667885	0.121711
Cu8	Cu	0.186863	1.485150	0.143963
Cu9	Cu	0.186857	1.485153	-0.144121
O10	O	0.371571	1.476812	0.121719
C11	C	0.194095	1.255618	-0.000068
C12	C	0.190357	1.116174	-0.000061
C13	C	0.188617	1.050641	0.132714
C14	C	0.185114	0.919618	0.132689
C15	C	0.185099	0.919671	-0.132896
C16	C	0.188592	1.050693	-0.132870
C17	C	0.188631	1.050609	0.286047
C18	C	0.185128	0.919586	0.286023
C19	C	-0.045152	1.492239	-0.000081
C20	C	-0.186099	1.488497	-0.000088
C21	C	-0.369481	1.345126	-0.000628
C22	C	-0.222864	1.348919	-0.000079
C23	C	-0.247775	1.555667	0.139015
C24	C	-0.394318	1.550903	0.139133
C25	C	-0.394843	1.553745	-0.137885
C26	C	-0.247861	1.555030	-0.139724
C27	C	0.418871	1.478064	-0.000081
C28	C	0.559818	1.481805	-0.000083
C29	C	0.179624	1.714685	-0.000094
C30	C	0.183362	1.854128	-0.000111
N31	N	0.186866	1.485157	0.346585
N32	N	0.186843	1.485155	-0.346744
C33	C	0.101349	1.569786	0.423234
C34	C	0.101334	1.569783	0.576570
C35	C	0.272364	1.400517	0.576597
C36	C	0.272372	1.400515	0.423263
C37	C	0.002610	1.667514	0.423220
C38	C	0.002595	1.667511	0.576556
H39	H	0.281215	1.080216	0.333623
F40	F	-0.117920	1.627577	0.638715
F41	F	0.073967	1.111039	0.363013
H42	H	0.272862	0.873330	0.344887
H43	H	-0.180246	1.296067	-0.099794
H44	H	-0.422499	1.501260	0.243120
H45	H	-0.206990	1.505883	-0.242629
H46	H	-0.442318	1.651285	0.145438
F47	F	-0.406840	1.273056	-0.131014
F48	F	0.190420	1.120436	-0.274186
F49	F	-0.409367	1.273162	0.128678
F50	F	0.043040	1.786704	0.361043
H51	H	0.092548	0.889964	0.333603
F52	F	-0.218601	1.689645	0.145774
H53	H	-0.181089	1.295694	0.099807
F54	F	0.183208	0.849971	-0.274232
F55	F	-0.192076	1.494678	0.274328
F56	F	-0.124924	1.639442	0.368814
H57	H	-0.426384	1.508571	-0.243317
F58	F	-0.216239	1.688041	-0.150720
H59	H	0.024349	1.764029	0.618168
H60	H	-0.442100	1.654561	-0.138826
H61	H	0.341996	1.331593	0.360857
F62	F	0.363360	1.310439	0.658215
