data_functionalizedCrystal
_audit_creation_method	'MofGen! by Chris Wilmer'
_symmetry_space_group_name_H-M	'P1'
_symmetry_Int_Tables_number	1
_symmetry_cell_setting	triclinic
loop_
_symmetry_equiv_pos_as_xyz
  x,y,z
_cell_length_a	15.944551
_cell_length_b	10.723022
_cell_length_c	9.198806
_cell_angle_alpha	89.996352
_cell_angle_beta	89.995864
_cell_angle_gamma	83.982982
loop_
_atom_site_label
_atom_site_type_symbol
_atom_site_fract_x
_atom_site_fract_y
_atom_site_fract_z
O1	O	0.117802	1.655701	-0.120886
O2	O	0.129080	1.292405	-0.120892
O3	O	0.001223	1.483974	-0.120876
O4	O	0.245659	1.464132	-0.120902
O5	O	0.001222	1.483959	0.120909
O6	O	0.129079	1.292390	0.120893
O7	O	0.117801	1.655685	0.120899
Cu8	Cu	0.123440	1.474037	0.142973
Cu9	Cu	0.123441	1.474054	-0.142966
O10	O	0.245659	1.464117	0.120883
C11	C	0.128259	1.245909	0.000000
C12	C	0.125804	1.107385	-0.000001
C13	C	0.194808	0.888335	-0.000012
C14	C	0.197346	1.031506	-0.000010
C15	C	-0.030076	1.483143	0.000017
C16	C	-0.123336	1.480673	0.000018
C17	C	-0.338906	1.356027	-0.000004
C18	C	-0.399592	1.413901	0.119211
C19	C	-0.294088	1.476206	0.000006
C20	C	-0.399575	1.413945	-0.119170
C21	C	-0.459025	1.471881	-0.000011
C22	C	-0.353546	1.534112	0.119320
C23	C	-0.353522	1.534139	-0.119168
C24	C	-0.414191	1.592100	0.000077
C25	C	-0.199071	1.478693	0.000018
C26	C	-0.554040	1.469403	-0.000011
C27	C	0.276957	1.464948	-0.000013
C28	C	0.370218	1.467418	-0.000024
C29	C	0.118622	1.702182	0.000003
C30	C	0.121077	1.840706	-0.000005
N31	N	0.123440	1.474033	0.344087
N32	N	0.123435	1.474068	-0.344080
C33	C	0.069519	1.554470	0.416290
C34	C	0.069516	1.554489	0.583703
H35	H	0.260474	1.072520	-0.000008
C36	C	0.007141	1.647467	0.332371
N37	N	-0.039848	1.717508	0.269164
H38	H	0.062674	1.066379	-0.000033
H39	H	-0.419992	1.363064	0.219997
H40	H	0.059833	0.905922	-0.000006
C41	C	-0.294673	1.221270	0.000157
N42	N	-0.261353	1.119774	0.000287
H43	H	-0.333265	1.584894	0.220218
C44	C	-0.427103	1.345257	-0.255326
N45	N	-0.447833	1.293514	-0.357874
H46	H	-0.446778	1.691941	0.000146
H47	H	0.023356	1.623360	0.645795
H48	H	-0.333101	1.584932	-0.219959
C49	C	0.277549	0.800236	-0.000019
N50	N	0.339872	0.733882	-0.000022
H51	H	0.169604	1.405203	0.593837
H52	H	0.169598	1.405177	0.406209
