data_functionalizedCrystal
_audit_creation_method	'MofGen! by Chris Wilmer'
_symmetry_space_group_name_H-M	'P1'
_symmetry_Int_Tables_number	1
_symmetry_cell_setting	triclinic
loop_
_symmetry_equiv_pos_as_xyz
  x,y,z
_cell_length_a	10.654551
_cell_length_b	13.930277
_cell_length_c	10.654550
_cell_angle_alpha	89.997193
_cell_angle_beta	95.514913
_cell_angle_gamma	90.010625
loop_
_atom_site_label
_atom_site_type_symbol
_atom_site_fract_x
_atom_site_fract_y
_atom_site_fract_z
O1	O	1.667815	-0.079816	-0.176395
O2	O	1.302337	-0.079820	-0.193200
O3	O	1.493479	-0.079814	-0.002058
O4	O	1.476673	-0.079822	-0.367537
O5	O	1.493513	0.079847	-0.002070
O6	O	1.302371	0.079842	-0.193212
O7	O	1.667849	0.079846	-0.176407
Zn8	Zn	1.485116	0.105193	-0.184812
Zn9	Zn	1.485070	-0.105168	-0.184795
O10	O	1.476707	0.079840	-0.367549
C11	C	1.255556	0.000010	-0.191972
C12	C	1.116113	0.000008	-0.188279
C13	C	0.919600	0.087041	-0.183068
C14	C	1.050620	0.087041	-0.186549
C15	C	1.050577	-0.087031	-0.186542
C16	C	0.919558	-0.087030	-0.183071
C17	C	0.854115	0.174080	-0.181325
C18	C	0.919642	0.261119	-0.183064
C19	C	1.050662	0.261120	-0.186545
C20	C	1.116156	0.174081	-0.188286
N21	N	1.485040	-0.248734	-0.184775
C22	C	1.400341	-0.701006	-0.269281
C23	C	1.569946	-0.700970	-0.100353
C24	C	1.569926	-0.600474	-0.100343
C25	C	1.485111	-0.550240	-0.184803
C26	C	1.400315	-0.600501	-0.269272
C27	C	1.654711	-0.550206	-0.015867
C28	C	1.654693	-0.449704	-0.015854
C29	C	1.569883	-0.399467	-0.100321
C30	C	1.485085	-0.449735	-0.184794
C31	C	1.400270	-0.399500	-0.269254
C32	C	1.315477	-0.449765	-0.353734
C33	C	1.315505	-0.550264	-0.353739
C34	C	1.569855	-0.298969	-0.100316
C35	C	1.400245	-0.298995	-0.269244
C36	C	1.714630	0.000013	-0.177635
C37	C	1.854073	0.000009	-0.181327
C38	C	1.492262	0.000015	0.044734
C39	C	1.488570	0.000012	0.184177
N40	N	1.485156	0.248760	-0.184822
C41	C	1.477924	0.000008	-0.414341
C42	C	1.481616	0.000005	-0.553784
C43	C	1.601112	0.000016	0.263662
C44	C	1.597635	0.000009	0.394683
C45	C	1.369066	-0.000002	0.366720
C46	C	1.372544	-0.000002	0.235702
C47	C	1.717138	0.000030	0.212137
C48	C	1.829689	0.000035	0.291624
C49	C	1.826213	0.000029	0.422645
C50	C	1.710185	0.000017	0.474179
H51	H	1.331182	-0.258100	-0.338027
C52	C	1.250261	-0.000156	0.149540
C53	C	1.180440	-0.082289	0.172999
C54	C	1.067778	-0.082463	0.093661
H55	H	1.268777	-0.000207	0.064092
H56	H	1.202670	0.055491	0.165276
H57	H	1.228021	-0.137921	0.157254
H58	H	1.161890	-0.082255	0.258432
H59	H	1.020187	-0.026816	0.109397
H60	H	1.086307	-0.082511	0.008218
H61	H	1.020385	-0.138184	0.109575
H62	H	0.747432	0.174089	-0.178489
H63	H	0.866307	0.331983	-0.181657
C64	C	1.223532	-0.395046	-0.445375
C65	C	1.241683	-0.296276	-0.427292
C66	C	1.157020	-0.245835	-0.511696
H67	H	1.139588	-0.411426	-0.430885
H68	H	1.237753	-0.411438	-0.529397
H69	H	1.227452	-0.279890	-0.343290
H70	H	1.325609	-0.279867	-0.441792
H71	H	1.171240	-0.262227	-0.595718
H72	H	1.073081	-0.262223	-0.497199
H73	H	1.169331	-0.178815	-0.499446
C74	C	1.121772	0.355644	-0.188176
C75	C	1.103133	0.408137	-0.079455
C76	C	1.168630	0.495215	-0.080899
H77	H	1.091428	0.391522	-0.260630
H78	H	1.209202	0.343223	-0.190429
H79	H	1.015722	0.420561	-0.077214
H80	H	1.133482	0.372289	-0.006984
H81	H	1.256060	0.482795	-0.083152
H82	H	1.138281	0.531085	-0.153357
H83	H	1.156002	0.530839	-0.007128
H84	H	1.707364	0.000001	0.580866
C85	C	1.121447	-0.181625	-0.188483
C86	C	1.036013	-0.257847	-0.186250
C87	C	1.101249	-0.345002	-0.188051
H88	H	1.181500	-0.185379	-0.116749
H89	H	1.163585	-0.185294	-0.262975
H90	H	0.993896	-0.254180	-0.111766
H91	H	0.975958	-0.254125	-0.257979
H92	H	1.143387	-0.348671	-0.262543
H93	H	1.161300	-0.348746	-0.116315
H94	H	1.043291	-0.396729	-0.186548
C95	C	0.848303	-0.181490	-0.181435
C96	C	0.759918	-0.186579	-0.287320
C97	C	0.694264	-0.273588	-0.285871
H98	H	0.806016	-0.185198	-0.107057
H99	H	0.906015	-0.233358	-0.183029
H100	H	0.702214	-0.134726	-0.285715
H101	H	0.802171	-0.182888	-0.361716
H102	H	0.751976	-0.325455	-0.287465
H103	H	0.651985	-0.277287	-0.211488
H104	H	0.634295	-0.277056	-0.357718
H105	H	1.924154	0.000021	0.249656
C106	C	1.662033	-0.244568	-0.008539
C107	C	1.736325	-0.310072	0.065415
C108	C	1.821265	-0.259995	0.149971
H109	H	1.616634	-0.205381	0.044370
H110	H	1.714676	-0.205362	-0.054264
H111	H	1.683689	-0.349262	0.111137
H112	H	1.781751	-0.349262	0.012540
H113	H	1.873908	-0.220788	0.104245
H114	H	1.775856	-0.220809	0.202871
H115	H	1.871690	-0.304431	0.200150
H116	H	1.331307	-0.741934	-0.338068
C117	C	1.747136	-0.604494	0.075760
C118	C	1.870558	-0.579835	0.053877
C119	C	1.955803	-0.629764	0.138271
H120	H	1.735340	-0.671585	0.063846
H121	H	1.733047	-0.587981	0.159777
H122	H	1.884641	-0.596354	-0.030120
H123	H	1.882394	-0.512753	0.065801
H124	H	1.941714	-0.613251	0.222287
H125	H	1.943996	-0.696852	0.126349
H126	H	2.039554	-0.613033	0.123442
C127	C	1.223495	-0.605012	-0.445302
C128	C	1.241644	-0.703776	-0.427200
C129	C	1.156893	-0.754243	-0.511507
H130	H	1.237603	-0.588652	-0.529350
H131	H	1.139576	-0.588620	-0.430702
H132	H	1.325544	-0.720161	-0.441810
H133	H	1.227526	-0.720164	-0.343169
H134	H	1.072974	-0.737851	-0.496908
H135	H	1.171009	-0.737875	-0.595550
H136	H	1.169188	-0.821259	-0.499229
C137	C	1.948365	-0.000170	0.509005
C138	C	1.953052	-0.082328	0.585015
C139	C	2.065572	-0.082547	0.664570
H140	H	1.951890	0.055440	0.560816
H141	H	2.017993	-0.000215	0.459592
H142	H	1.883443	-0.082275	0.634424
H143	H	1.949548	-0.137952	0.533238
H144	H	2.135200	-0.082592	0.615157
H145	H	2.069087	-0.026933	0.716373
H146	H	2.068772	-0.138294	0.716144
C147	C	1.661881	-0.755511	-0.008516
C148	C	1.640731	-0.731166	0.115197
C149	C	1.725393	-0.781428	0.199805
H150	H	1.745823	-0.739077	-0.022947
H151	H	1.649697	-0.822562	-0.020598
H152	H	1.652926	-0.664130	0.127274
H153	H	1.556806	-0.747603	0.129668
H154	H	1.713208	-0.848479	0.187722
H155	H	1.809329	-0.764990	0.185362
H156	H	1.711047	-0.764924	0.283753
H157	H	1.222840	0.174088	-0.191135
H158	H	1.723736	-0.408784	0.052933
H159	H	1.719982	0.000038	0.105455
H160	H	1.274602	-0.000010	0.408691
