data_functionalizedCrystal
_audit_creation_method	'MofGen! by Chris Wilmer'
_symmetry_space_group_name_H-M	'P1'
_symmetry_Int_Tables_number	1
_symmetry_cell_setting	triclinic
loop_
_symmetry_equiv_pos_as_xyz
  x,y,z
_cell_length_a	19.288864
_cell_length_b	9.065215
_cell_length_c	18.366186
_cell_angle_alpha	90.004098
_cell_angle_beta	90.022929
_cell_angle_gamma	84.075472
loop_
_atom_site_label
_atom_site_type_symbol
_atom_site_fract_x
_atom_site_fract_y
_atom_site_fract_z
O1	O	0.922781	0.184029	0.060782
O2	O	1.422781	0.684029	0.560782
O3	O	0.720713	0.208855	0.060732
O4	O	1.220713	0.708855	0.560732
O5	O	0.825925	-0.018347	0.060755
O6	O	1.325925	0.481653	0.560755
O7	O	0.817569	0.411231	0.060759
O8	O	1.317569	0.911231	0.560759
O9	O	0.825906	-0.018353	-0.060344
O10	O	1.325906	0.481647	0.439656
O11	O	0.720694	0.208848	-0.060367
O12	O	1.220694	0.708848	0.439633
O13	O	0.922762	0.184023	-0.060317
O14	O	1.422762	0.684023	0.439683
Zn15	Zn	0.821725	0.196435	-0.079569
Zn16	Zn	1.321725	0.696435	0.420431
Zn17	Zn	0.821750	0.196443	0.079984
Zn18	Zn	1.321750	0.696443	0.579984
O19	O	0.817551	0.411225	-0.060340
O20	O	1.317551	0.911225	0.439660
C21	C	0.694821	0.208053	0.000176
C22	C	1.194821	0.708053	0.500176
C23	C	0.617699	0.205655	0.000157
C24	C	1.117699	0.705655	0.500157
C25	C	0.825113	-0.073309	0.000206
C26	C	1.325113	0.426691	0.500206
C27	C	0.822713	-0.237068	0.000208
C28	C	1.322713	0.262932	0.500208
C29	C	0.574037	0.338967	0.000170
C30	C	1.074037	0.838967	0.500170
C31	C	0.501572	0.336714	0.000178
C32	C	1.001572	0.836714	0.500178
C33	C	0.472773	0.201142	0.000188
C34	C	0.972773	0.701142	0.500188
C35	C	0.516444	0.067813	0.000171
C36	C	1.016444	0.567813	0.500171
C37	C	0.588907	0.070069	0.000155
C38	C	1.088907	0.570069	0.500155
C39	C	0.363690	0.094569	0.042638
C40	C	0.863690	0.594569	0.542638
C41	C	0.291228	0.092318	0.042657
C42	C	0.791228	0.592318	0.542657
C43	C	0.249273	0.194176	0.000232
C44	C	0.749273	0.694176	0.500232
C45	C	0.279787	0.298310	-0.042205
C46	C	0.779787	0.798310	0.457795
C47	C	0.352250	0.300567	-0.042220
C48	C	0.852250	0.800567	0.457780
C49	C	0.394200	0.198680	0.000204
C50	C	0.894200	0.698680	0.500204
C51	C	0.127036	0.325054	0.000252
C52	C	0.627036	0.825054	0.500252
C53	C	0.054571	0.322796	0.000256
C54	C	0.554571	0.822796	0.500256
C55	C	0.069445	0.053891	0.000256
C56	C	0.569445	0.553891	0.500256
C57	C	0.141909	0.056153	0.000245
C58	C	0.641909	0.556153	0.500245
C59	C	0.170700	0.191739	0.000247
C60	C	0.670700	0.691739	0.500247
C61	C	0.948654	0.184825	0.000240
C62	C	1.448654	0.684825	0.500240
C63	C	1.025776	0.187223	0.000264
C64	C	1.525776	0.687223	0.500264
C65	C	0.818362	0.466186	0.000211
C66	C	1.318362	0.966186	0.500211
C67	C	0.820762	0.629946	0.000214
C68	C	1.320762	1.129946	0.500214
N69	N	0.821714	0.196428	-0.188461
N70	N	1.321714	0.696428	0.311539
C71	C	0.864394	0.285682	-0.226543
C72	C	1.364394	0.785682	0.273457
C73	C	0.864405	0.285678	-0.302771
C74	C	1.364405	0.785678	0.197229
C75	C	0.821724	0.196437	-0.340913
C76	C	1.321724	0.696437	0.159087
C77	C	0.779041	0.107165	-0.302822
C78	C	1.279041	0.607165	0.197178
C79	C	0.779036	0.107161	-0.226595
C80	C	1.279036	0.607161	0.273405
C81	C	0.759083	0.192706	-0.461710
C82	C	1.259083	0.692706	0.038290
C83	C	0.759086	0.192721	-0.537935
C84	C	1.259086	0.692721	-0.037935
C85	C	0.821739	0.196442	-0.576021
C86	C	1.321739	0.696442	-0.076021
C87	C	0.884390	0.200179	-0.537873
C88	C	1.384390	0.700179	-0.037873
C89	C	0.884385	0.200175	-0.461646
C90	C	1.384385	0.700175	0.038354
C91	C	0.821725	0.196431	-0.423568
C92	C	1.321725	0.696431	0.076432
C93	C	0.864435	0.285696	-0.696758
C94	C	1.364435	0.785696	-0.196758
C95	C	0.864448	0.285681	-0.772987
C96	C	1.364448	0.785681	-0.272987
C97	C	0.779077	0.107177	-0.773037
C98	C	1.279077	0.607177	-0.273037
C99	C	0.779071	0.107183	-0.696809
C100	C	1.279071	0.607183	-0.196809
C101	C	0.821749	0.196451	-0.658674
C102	C	1.321749	0.696451	-0.158674
N103	N	0.821767	0.196438	0.188875
N104	N	1.321767	0.696438	0.688875
H105	H	0.597474	0.449371	0.000172
H106	H	1.097474	0.949371	0.500172
O107	O	0.910429	0.381954	-0.185416
O108	O	1.410429	0.881954	0.314584
H109	H	0.903253	0.366969	-0.126012
H110	H	1.403253	0.866969	0.373988
O111	O	0.910471	0.381952	-0.655618
O112	O	1.410471	0.881952	-0.155618
H113	H	0.940162	0.443998	-0.694909
H114	H	1.440162	0.943998	-0.194909
O115	O	0.234543	0.408172	-0.087972
O116	O	0.734543	0.908172	0.412028
H117	H	0.242148	0.522611	-0.070506
H118	H	0.742148	1.022611	0.429494
H119	H	0.266389	0.007532	0.077214
H120	H	0.766389	0.507532	0.577214
O121	O	0.485389	-0.078417	0.000178
O122	O	0.985389	0.421583	0.500178
H123	H	0.452765	-0.085889	0.049546
H124	H	0.952765	0.414111	0.549546
H125	H	0.466016	0.445276	0.000186
H126	H	0.966016	0.945276	0.500186
H127	H	0.899208	0.358358	-0.803993
H128	H	1.399208	0.858358	-0.303993
H129	H	0.744313	0.034509	-0.665802
H130	H	1.244313	0.534509	-0.165802
H131	H	0.150480	0.435456	0.000243
H132	H	0.650480	0.935456	0.500243
H133	H	0.397845	0.011621	0.077190
H134	H	0.897845	0.511621	0.577190
O135	O	0.007472	0.466588	0.000267
O136	O	0.507472	0.966588	0.500267
H137	H	0.039670	0.561241	0.000271
H138	H	0.539670	1.061241	0.500271
H139	H	0.935408	0.203217	-0.568880
H140	H	1.435408	0.703217	-0.068880
O141	O	0.385169	0.412817	-0.088017
O142	O	0.885169	0.912817	0.411983
H143	H	0.343828	0.483251	-0.117531
H144	H	0.843828	0.983251	0.382469
H145	H	0.744326	0.034514	-0.804092
H146	H	1.244326	0.534514	-0.304092
H147	H	0.899161	0.358363	-0.333784
H148	H	1.399161	0.858363	0.166216
H149	H	0.045997	-0.056494	0.000309
H150	H	0.545997	0.443506	0.500309
H151	H	0.177459	-0.052404	0.000239
H152	H	0.677459	0.447596	0.500239
O153	O	0.951953	0.204173	-0.420497
O154	O	1.451953	0.704173	0.079503
H155	H	0.995525	0.206746	-0.459781
H156	H	1.495525	0.706746	0.040219
O157	O	0.636007	-0.073722	0.000145
O158	O	1.136007	0.426278	0.500145
H159	H	0.603811	-0.168377	0.000155
H160	H	1.103811	0.331623	0.500155
O161	O	0.691535	0.188419	-0.579080
O162	O	1.191535	0.688419	-0.079080
H163	H	0.647976	0.185701	-0.539792
H164	H	1.147976	0.685701	-0.039792
O165	O	0.691503	0.188703	-0.420632
O166	O	1.191503	0.688703	0.079368
H167	H	0.647939	0.186133	-0.459963
H168	H	1.147939	0.686133	0.040037
O169	O	0.733013	0.010884	-0.343951
O170	O	1.233013	0.510884	0.156049
H171	H	0.677701	0.043254	-0.329341
H172	H	1.177701	0.543254	0.170659
O173	O	0.732994	0.010905	-0.185513
O174	O	1.232994	0.510905	0.314487
H175	H	0.703313	-0.051148	-0.224839
H176	H	1.203313	0.448852	0.275161
