data_functionalizedCrystal
_audit_creation_method	'MofGen! by Chris Wilmer'
_symmetry_space_group_name_H-M	'P1'
_symmetry_Int_Tables_number	1
_symmetry_cell_setting	triclinic
loop_
_symmetry_equiv_pos_as_xyz
  x,y,z
_cell_length_a	15.944551
_cell_length_b	12.837932
_cell_length_c	11.295483
_cell_angle_alpha	85.460332
_cell_angle_beta	94.094426
_cell_angle_gamma	89.164220
loop_
_atom_site_label
_atom_site_type_symbol
_atom_site_fract_x
_atom_site_fract_y
_atom_site_fract_z
O1	O	0.213272	1.382453	-0.099033
O2	O	0.713272	1.882453	0.400967
O3	O	0.202483	1.080646	-0.099034
O4	O	0.702483	1.580646	0.400966
O5	O	0.086263	1.239790	-0.099023
O6	O	0.586263	1.739790	0.400977
O7	O	0.329492	1.223309	-0.099045
O8	O	0.829492	1.723309	0.400955
O9	O	0.096453	1.225812	0.099027
O10	O	0.596453	1.725812	0.599027
O11	O	0.212674	1.066668	0.099015
O12	O	0.712674	1.566668	0.599015
O13	O	0.223462	1.368475	0.099017
O14	O	0.723462	1.868475	0.599017
Cu15	Cu	0.218998	1.216295	0.117100
Cu16	Cu	0.718998	1.716295	0.617100
Cu17	Cu	0.206947	1.232826	-0.117117
Cu18	Cu	0.706947	1.732826	0.382883
O19	O	0.339683	1.209331	0.099005
O20	O	0.839683	1.709331	0.599005
C21	C	0.203934	1.035036	-0.000010
C22	C	0.703934	1.535036	0.499990
C23	C	0.193066	0.919958	-0.000010
C24	C	0.693066	1.419958	0.499990
C25	C	0.102226	0.770109	0.000000
C26	C	0.602226	1.270109	0.500000
C27	C	0.112432	0.878236	-0.000001
C28	C	0.612432	1.378236	0.499999
C29	C	0.263498	0.853546	-0.000014
C30	C	0.763498	1.353546	0.499986
C31	C	0.253292	0.745419	-0.000012
C32	C	0.753292	1.245419	0.499988
C33	C	0.172653	0.703705	-0.000007
C34	C	0.672653	1.203705	0.499993
C35	C	0.162447	0.595576	-0.000014
C36	C	0.662447	1.095576	0.499986
C37	C	0.313513	0.570888	-0.000019
C38	C	0.813513	1.070888	0.499981
C39	C	0.323719	0.679014	-0.000020
C40	C	0.823719	1.179014	0.499980
C41	C	0.060009	1.232117	0.000002
C42	C	0.560009	1.732117	0.500002
C43	C	-0.033401	1.230066	0.000003
C44	C	0.466599	1.730066	0.500003
C45	C	-0.256543	1.126518	-0.000014
C46	C	0.243457	1.626518	0.499986
C47	C	-0.308688	1.167710	0.097637
C48	C	0.191312	1.667710	0.597637
C49	C	-0.204424	1.226355	-0.000006
C50	C	0.295576	1.726355	0.499994
C51	C	-0.318717	1.181515	-0.097625
C52	C	0.181283	1.681515	0.402375
C53	C	-0.369625	1.222764	-0.000020
C54	C	0.130375	1.722764	0.499980
C55	C	-0.255336	1.267569	0.097725
C56	C	0.244664	1.767569	0.597725
C57	C	-0.265364	1.281366	-0.097624
C58	C	0.234636	1.781366	0.402376
C59	C	-0.317485	1.322630	0.000050
C60	C	0.182515	1.822630	0.500050
C61	C	-0.109256	1.228421	0.000003
C62	C	0.390744	1.728421	0.500003
C63	C	-0.464791	1.220705	-0.000021
C64	C	0.035209	1.720705	0.499979
C65	C	0.365936	1.217004	-0.000022
C66	C	0.865936	1.717004	0.499978
C67	C	0.459346	1.219056	-0.000031
C68	C	0.959346	1.719056	0.499969
C69	C	0.222011	1.414085	-0.000011
C70	C	0.722011	1.914085	0.499989
C71	C	0.232879	1.529163	-0.000018
C72	C	0.732879	2.029163	0.499982
N73	N	0.227475	1.204676	0.281835
N74	N	0.727475	1.704676	0.781835
N75	N	0.198465	1.244453	-0.281853
N76	N	0.698465	1.744453	0.218147
C77	C	0.137400	1.328094	0.531133
C78	C	0.637400	1.828094	1.031133
C79	C	0.143812	1.319321	0.655796
C80	C	0.643812	1.819321	1.155796
C81	C	0.246707	1.178352	0.655826
C82	C	0.746707	1.678352	1.155826
C83	C	0.240294	1.187125	0.531163
C84	C	0.740294	1.687125	1.031163
C85	C	0.185640	1.262000	0.468821
C86	C	0.685640	1.762000	0.968821
C87	C	0.179233	1.270777	0.344156
C88	C	0.679233	1.770777	0.844156
C89	C	0.282122	1.129804	0.344188
C90	C	0.782122	1.629804	0.844188
C91	C	0.288535	1.121031	0.468851
C92	C	0.788535	1.621031	0.968851
H93	H	0.055083	0.932299	0.000005
H94	H	0.555083	1.432299	0.500005
H95	H	0.291199	1.117384	0.706602
H96	H	0.791199	1.617384	1.206602
H97	H	0.036566	0.736146	-0.000007
H98	H	0.536566	1.236146	0.499993
H99	H	0.333031	1.060066	0.519624
H100	H	0.833031	1.560066	1.019624
H101	H	0.096786	0.561615	-0.000015
H102	H	0.596786	1.061615	0.499985
H103	H	0.329152	0.887528	-0.000007
H104	H	0.829152	1.387528	0.499993
H105	H	-0.246106	1.329384	-0.180184
H106	H	0.253894	1.829384	0.319816
F107	F	-0.333835	1.104903	0.205544
F108	F	0.166165	1.604903	0.705544
H109	H	0.321406	1.075988	0.293439
H110	H	0.821406	1.575988	0.793439
F111	F	0.388471	0.500207	-0.000032
F112	F	0.888471	1.000207	0.499968
F113	F	0.409536	0.723422	-0.000026
F114	F	0.909536	1.223422	0.499974
H115	H	-0.227717	1.303928	0.180372
H116	H	0.272283	1.803928	0.680372
H117	H	-0.344005	1.405568	0.000106
H118	H	0.155995	1.905568	0.500106
F119	F	-0.354946	1.133913	-0.205523
F120	F	0.145054	1.633913	0.294477
F121	F	-0.221667	1.018193	0.000107
F122	F	0.278333	1.518193	0.500107
F123	F	0.121068	1.350468	0.277809
F124	F	0.621068	1.850468	0.777809
F125	F	0.079242	1.407790	0.464784
F126	F	0.579242	1.907790	0.964784
H127	H	0.104529	1.373140	0.706528
H128	H	0.604529	1.873140	1.206528
