data_functionalizedCrystal
_audit_creation_method	'MofGen! by Chris Wilmer'
_symmetry_space_group_name_H-M	'P1'
_symmetry_Int_Tables_number	1
_symmetry_cell_setting	triclinic
loop_
_symmetry_equiv_pos_as_xyz
  x,y,z
_cell_length_a	16.109302
_cell_length_b	16.109301
_cell_length_c	9.730223
_cell_angle_alpha	89.997247
_cell_angle_beta	89.997854
_cell_angle_gamma	83.461631
loop_
_atom_site_label
_atom_site_type_symbol
_atom_site_fract_x
_atom_site_fract_y
_atom_site_fract_z
O1	O	1.103127	0.106866	-0.114356
O2	O	0.861065	0.120165	-0.114346
O3	O	0.988745	-0.007515	-0.114337
O4	O	0.975446	0.234547	-0.114365
O5	O	0.988744	-0.007512	0.114243
O6	O	0.861063	0.120168	0.114234
O7	O	1.103125	0.106870	0.114224
Zn8	Zn	0.982094	0.113520	0.150521
Zn9	Zn	0.982096	0.113515	-0.150643
O10	O	0.975445	0.234550	0.114215
C11	C	0.830089	0.119628	-0.000054
C12	C	0.737794	0.118013	-0.000050
C13	C	0.525452	0.114279	0.124536
C14	C	0.438732	0.112752	0.124531
C15	C	0.438744	0.112753	-0.124679
C16	C	0.525463	0.114274	-0.124673
C17	C	0.568815	0.115041	-0.000062
C18	C	0.395375	0.111994	-0.000072
C19	C	0.301350	0.110338	-0.000078
C20	C	0.662847	0.116695	-0.000055
C21	C	0.988206	-0.038488	-0.000046
C22	C	0.986591	-0.130784	-0.000044
C23	C	1.058599	-0.353056	-0.000069
C24	C	1.057074	-0.439776	-0.000080
C25	C	0.905586	-0.419902	-0.000069
C26	C	0.907111	-0.333184	-0.000067
C27	C	0.983620	-0.299763	-0.000061
C28	C	0.980571	-0.473202	-0.000073
C29	C	0.978918	-0.567228	-0.000085
C30	C	0.985273	-0.205731	-0.000051
C31	C	1.134101	0.107407	-0.000070
C32	C	1.226396	0.109022	-0.000084
C33	C	0.975984	0.265523	-0.000078
C34	C	0.977599	0.357819	-0.000089
N35	N	0.982099	0.113522	0.356057
N36	N	0.982098	0.113506	-0.356179
C37	C	1.038650	0.057004	0.427987
C38	C	1.038648	0.056994	0.571870
C39	C	0.925541	0.170027	0.571881
C40	C	0.925539	0.170032	0.428001
C41	C	1.103954	-0.008252	0.427982
C42	C	1.103952	-0.008262	0.571865
H43	H	0.403437	0.112130	-0.226134
H44	H	1.090332	-0.072033	0.388936
C45	C	1.138392	-0.497776	-0.000159
C46	C	1.120686	-0.580875	-0.000205
C47	C	1.195578	-0.634327	-0.000300
H48	H	1.169825	-0.487761	0.079529
H49	H	1.169767	-0.487688	-0.079903
H50	H	1.089324	-0.590959	0.079532
H51	H	1.089265	-0.590916	-0.079886
H52	H	1.226954	-0.624239	-0.080044
H53	H	1.227005	-0.624304	0.079389
H54	H	1.183575	-0.690715	-0.000344
C55	C	1.184109	0.018214	0.368408
C56	C	1.165145	0.089759	0.287554
C57	C	1.238959	0.114187	0.232680
H58	H	1.210844	-0.025640	0.313351
H59	H	1.220306	0.030123	0.441099
H60	H	1.128962	0.077846	0.214874
H61	H	1.138421	0.133629	0.342581
H62	H	1.275156	0.126096	0.305371
H63	H	1.265689	0.070328	0.177629
H64	H	1.226103	0.162737	0.177825
H65	H	1.120897	-0.325848	-0.000067
C66	C	1.077891	-0.088553	0.631591
C67	C	1.142835	-0.127586	0.712527
C68	C	1.118856	-0.201541	0.767595
H69	H	1.066083	-0.124871	0.559034
H70	H	1.029382	-0.075919	0.686625
H71	H	1.191330	-0.140223	0.657495
H72	H	1.154652	-0.091293	0.785105
H73	H	1.070347	-0.188907	0.822629
H74	H	1.107048	-0.237852	0.695030
H75	H	1.162913	-0.228031	0.822526
C76	C	1.189053	0.009845	0.623758
C77	C	1.250465	-0.051780	0.575577
C78	C	1.328867	-0.035123	0.623339
H79	H	1.189172	0.009814	0.721380
H80	H	1.200467	0.062976	0.591193
H81	H	1.239054	-0.104898	0.608149
H82	H	1.250373	-0.051760	0.477960
H83	H	1.340280	0.018009	0.590774
H84	H	1.328976	-0.035153	0.720961
H85	H	1.370544	-0.076928	0.590645
C86	C	0.822607	-0.456351	0.000009
C87	C	0.837317	-0.543703	0.000047
C88	C	0.760896	-0.577306	0.000143
H89	H	0.791668	-0.438147	-0.079676
H90	H	0.791731	-0.438105	0.079757
H91	H	0.868180	-0.561942	-0.079692
H92	H	0.868243	-0.561930	0.079726
H93	H	0.730020	-0.559059	0.079890
H94	H	0.729963	-0.559096	-0.079543
H95	H	0.770866	-0.636576	0.000181
C96	C	0.572501	0.114928	0.259865
C97	C	0.560795	0.043059	0.335017
C98	C	0.604130	0.043619	0.459684
H99	H	0.551975	0.163075	0.311229
H100	H	0.630372	0.115899	0.242085
H101	H	0.502935	0.042096	0.352801
H102	H	0.581324	-0.005099	0.283695
H103	H	0.662001	0.044590	0.441904
H104	H	0.583601	0.091768	0.511035
H105	H	0.596199	-0.005147	0.510685
C106	C	0.572638	0.115235	-0.259858
C107	C	0.613068	0.187583	-0.267119
C108	C	0.656542	0.188488	-0.391615
H109	H	0.534490	0.114611	-0.334188
H110	H	0.612866	0.067399	-0.265041
H111	H	0.572845	0.235406	-0.261949
H112	H	0.651230	0.188222	-0.192818
H113	H	0.696771	0.140652	-0.396798
H114	H	0.618389	0.187861	-0.465936
H115	H	0.683986	0.237571	-0.396553
H116	H	0.846050	-0.289790	-0.000064
C117	C	0.864097	0.231482	0.350152
C118	C	0.814582	0.280982	0.443957
C119	C	0.757976	0.337607	0.372294
H120	H	0.829424	0.201656	0.294022
H121	H	0.893964	0.266155	0.294051
H122	H	0.784717	0.246313	0.500034
H123	H	0.849232	0.310826	0.500089
H124	H	0.787844	0.372279	0.316193
H125	H	0.723310	0.307774	0.316166
H126	H	0.724380	0.371204	0.435929
H127	H	0.403430	0.112132	0.225991
C128	C	0.864098	0.231248	0.650172
C129	C	0.813237	0.186935	0.732797
C130	C	0.756634	0.243305	0.804949
H131	H	0.830337	0.264934	0.586883
H132	H	0.893970	0.265853	0.706383
H133	H	0.783369	0.152344	0.676591
H134	H	0.846976	0.153252	0.796112
H135	H	0.786505	0.277910	0.861160
H136	H	0.722879	0.276988	0.741650
H137	H	0.722123	0.213246	0.861027
