data_functionalizedCrystal
_audit_creation_method	'MofGen! by Chris Wilmer'
_symmetry_space_group_name_H-M	'P1'
_symmetry_Int_Tables_number	1
_symmetry_cell_setting	triclinic
loop_
_symmetry_equiv_pos_as_xyz
  x,y,z
_cell_length_a	11.169416
_cell_length_b	12.759401
_cell_length_c	12.759393
_cell_angle_alpha	89.981504
_cell_angle_beta	89.971356
_cell_angle_gamma	90.010501
loop_
_atom_site_label
_atom_site_type_symbol
_atom_site_fract_x
_atom_site_fract_y
_atom_site_fract_z
Zn1	Zn	-0.477731	1.606287	-0.594003
Zn2	Zn	-0.678464	1.606195	-0.418332
Zn3	Zn	-0.477794	1.430589	-0.418342
Zn4	Zn	-0.678372	1.430591	-0.593973
O5	O	-0.578090	1.518416	-0.506162
O6	O	-0.504371	1.753296	-0.570708
O7	O	-0.651910	1.582861	-0.271312
O8	O	-0.309836	1.453934	-0.441660
O9	O	-0.651849	1.753228	-0.441643
O10	O	-0.309790	1.583018	-0.570718
O11	O	-0.504478	1.453844	-0.271320
O12	O	-0.504389	1.283568	-0.441632
O13	O	-0.651691	1.453937	-0.740998
O14	O	-0.651752	1.283570	-0.570667
O15	O	-0.504282	1.583020	-0.741020
O16	O	-0.846401	1.582863	-0.441614
O17	O	-0.846333	1.453848	-0.570657
C18	C	-0.578068	1.245448	-0.506148
C19	C	-0.578088	1.128672	-0.506167
C20	C	-0.654943	1.073838	-0.573245
C21	C	-0.654958	0.964114	-0.573256
C22	C	-0.501260	0.964067	-0.439103
C23	C	-0.501239	1.073789	-0.439098
C24	C	-0.743683	1.073864	-0.650694
C25	C	-0.743698	0.964140	-0.650705
C26	C	-0.889915	1.518374	-0.506154
C27	C	-1.023315	1.518452	-0.506186
C28	C	-0.265048	1.518486	-0.506193
C29	C	-0.131648	1.518516	-0.506207
C30	C	-0.578113	1.792449	-0.506177
C31	C	-0.578123	1.909226	-0.506184
C32	C	-0.577969	1.518489	-0.780196
C33	C	-0.577917	1.518521	-0.896973
C34	C	-0.501154	1.585743	-0.951848
C35	C	-0.501111	1.585768	-1.061572
C36	C	-0.654605	1.451345	-1.061536
C37	C	-0.654641	1.451315	-0.951814
C38	C	-0.412539	1.663355	-0.951869
C39	C	-0.412496	1.663380	-1.061593
C40	C	-0.578124	1.518403	-0.233195
C41	C	-0.577838	1.518575	-0.116419
H42	H	-0.718894	1.103671	-0.732099
O43	O	-0.849055	1.114286	-0.615786
C44	C	-1.047021	1.077844	-0.550046
C45	C	-0.927762	1.031926	-0.589586
H46	H	-1.110679	1.011279	-0.528832
H47	H	-1.088880	1.128118	-0.614172
H48	H	-1.029754	1.128143	-0.477787
H49	H	-0.944926	0.981580	-0.661826
H50	H	-0.885939	0.981712	-0.525397
H51	H	-0.319593	1.641580	-0.922109
H52	H	-0.438649	1.118431	-0.384484
O53	O	-0.704307	0.923622	-0.743064
C54	C	-0.734367	0.911961	-0.929696
C55	C	-0.779127	0.957897	-0.825176
H56	H	-0.794822	0.939672	-0.996115
H57	H	-0.736252	0.822723	-0.925522
H58	H	-0.638821	0.939539	-0.944835
H59	H	-0.874685	0.930399	-0.809974
H60	H	-0.777152	1.047130	-0.829402
H61	H	-0.324182	1.634261	-1.095637
H62	H	-0.438691	0.919368	-0.384499
H63	H	-0.836628	0.934351	-0.628777
H64	H	-0.437390	1.744752	-1.091373
H65	H	-0.717145	1.396572	-0.907139
O66	O	-0.452470	1.755457	-0.911208
C67	C	-0.599671	1.841148	-0.802937
C68	C	-0.554590	1.736776	-0.848935
H69	H	-0.682227	1.826078	-0.752562
H70	H	-0.623783	1.896980	-0.869429
H71	H	-0.526311	1.877652	-0.752709
H72	H	-0.627895	1.700182	-0.899152
H73	H	-0.530442	1.681017	-0.782394
O74	O	-0.729098	1.386170	-1.114974
C75	C	-0.797016	1.326592	-1.283990
C76	C	-0.712608	1.400472	-1.223607
H77	H	-0.783696	1.338114	-1.371831
H78	H	-0.893828	1.345016	-1.262481
H79	H	-0.775953	1.241887	-1.262350
H80	H	-0.733563	1.485202	-1.245215
H81	H	-0.615822	1.381958	-1.245121
