data_functionalizedCrystal
_audit_creation_method	'MofGen! by Chris Wilmer'
_symmetry_space_group_name_H-M	'P1'
_symmetry_Int_Tables_number	1
_symmetry_cell_setting	triclinic
loop_
_symmetry_equiv_pos_as_xyz
  x,y,z
_cell_length_a	31.640172
_cell_length_b	17.917603
_cell_length_c	31.640172
_cell_angle_alpha	122.988630
_cell_angle_beta	119.994743
_cell_angle_gamma	90.006111
loop_
_atom_site_label
_atom_site_type_symbol
_atom_site_fract_x
_atom_site_fract_y
_atom_site_fract_z
Zr1	Zr	0.404604	-0.102711	-0.467821
O2	O	0.333900	-0.227848	-0.562445
O3	O	0.426269	-0.064353	-0.377676
O4	O	0.422066	-0.227830	-0.474267
O5	O	0.341429	0.064588	-0.459207
O6	O	0.491624	-0.227813	-0.474258
O7	O	0.338103	-0.064370	-0.465853
O8	O	0.499141	0.064618	-0.301474
O9	O	0.333911	-0.227844	-0.631991
O10	O	0.487430	-0.047977	-0.413088
O11	O	0.438002	0.048250	-0.408135
O12	O	0.433054	-0.144224	-0.521859
O13	O	0.383626	-0.047997	-0.516905
Zr14	Zr	0.520844	0.102989	-0.457205
Zr15	Zr	0.515540	-0.102683	-0.467806
Zr16	Zr	0.409908	0.102962	-0.457220
Zr17	Zr	0.404621	-0.102705	-0.578739
Zr18	Zr	0.520827	0.102983	-0.346287
O19	O	0.499179	0.064631	-0.547350
O20	O	0.491637	-0.227809	-0.562423
O21	O	0.341442	0.064592	-0.547372
O22	O	0.591548	0.228126	-0.362581
O23	O	0.584006	-0.064314	-0.377654
O24	O	0.433811	0.228087	-0.362603
O25	O	0.584019	-0.064309	-0.465819
O26	O	0.503382	0.228109	-0.450758
O27	O	0.433824	0.228092	-0.450768
O28	O	0.587345	0.064648	-0.459173
O29	O	0.422091	-0.227822	-0.631979
O30	O	0.503357	0.228100	-0.293047
O31	O	0.591537	0.228122	-0.293035
O32	O	0.587321	0.064640	-0.301461
O33	O	0.338127	-0.064361	-0.623565
O34	O	0.426307	-0.064340	-0.623552
O35	O	0.492394	0.144502	-0.403167
O36	O	0.541822	0.048275	-0.408120
O37	O	0.487446	-0.047971	-0.516891
O38	O	0.438018	0.048255	-0.511938
C39	C	0.323960	0.000105	-0.462532
C40	C	0.276864	0.000093	-0.462539
C41	C	0.462703	0.000132	-0.323771
C42	C	0.462695	0.000129	-0.276684
C43	C	0.469359	0.257404	-0.449253
C44	C	0.471611	0.344718	-0.444753
C45	C	0.013244	0.050398	-0.405729
C46	C	-0.163741	0.050417	-0.405718
O47	O	-0.162486	0.093180	-0.357429
N48	N	-0.214254	0.000176	-0.462495
C49	C	-0.220521	-0.050068	-0.519278
O50	O	-0.267546	-0.092793	-0.567570
C51	C	-0.043536	-0.050081	-0.519288
C52	C	0.006976	0.000156	-0.462508
C53	C	0.063754	0.100632	-0.348954
C54	C	0.107997	0.100622	-0.348957
C55	C	0.101730	0.050379	-0.405736
C56	C	0.051219	0.000146	-0.462512
C57	C	-0.049803	-0.100319	-0.576071
C58	C	-0.005552	-0.100316	-0.576068
C59	C	0.044961	-0.050079	-0.519288
C60	C	0.089195	-0.050106	-0.519295
N61	N	0.139709	0.000135	-0.462518
C62	C	0.145976	0.050378	-0.405739
C63	C	-0.313438	-0.050059	-0.519269
C64	C	-0.357684	-0.050058	-0.519266
C65	C	-0.300901	0.050429	-0.405706
C66	C	-0.256655	0.050422	-0.405709
C67	C	-0.262925	0.000182	-0.462492
C68	C	0.238888	0.050353	-0.405751
C69	C	0.283132	0.050336	-0.405760
C70	C	0.226345	-0.050147	-0.519320
C71	C	0.182104	-0.050134	-0.519311
C72	C	0.188379	0.000123	-0.462522
O73	O	0.087981	-0.092837	-0.567558
O74	O	0.193006	0.093113	-0.357454
C75	C	-0.030999	0.050408	-0.405726
C76	C	-0.081510	0.000175	-0.462501
C77	C	-0.087777	-0.050068	-0.519280
C78	C	-0.125756	0.000176	-0.462499
C79	C	-0.119488	0.050419	-0.405720
C80	C	-0.068975	0.100660	-0.348943
C81	C	-0.024732	0.100651	-0.348946
C82	C	-0.138291	-0.100309	-0.576057
C83	C	-0.182532	-0.100296	-0.576049
C84	C	-0.176264	-0.050054	-0.519270
C85	C	0.601488	0.000173	-0.462494
C86	C	0.648583	0.000185	-0.462487
C87	C	0.456089	-0.257126	-0.475773
C88	C	0.453837	-0.344439	-0.480273
C89	C	0.475713	0.504562	-0.436532
C90	C	0.449736	0.495723	-0.488491
C91	C	0.452019	0.584666	-0.483917
C92	C	0.473431	0.415613	-0.441105
C93	C	0.488528	-0.050097	0.012768
C94	C	0.488535	-0.050102	0.189760
O95	O	0.510498	-0.092787	0.210468
N96	N	0.462733	0.000124	0.214475
C97	C	0.436931	0.050361	0.194941
O98	O	0.414989	0.093090	0.220028
C99	C	0.436926	0.050371	0.017953
C100	C	0.462726	0.000133	-0.006764
C101	C	0.514325	-0.100330	-0.011948
C102	C	0.514321	-0.100333	-0.056196
C103	C	0.488518	-0.050102	-0.075728
C104	C	0.462721	0.000131	-0.051012
C105	C	0.411127	0.100613	-0.001577
C106	C	0.411129	0.100613	-0.045826
C107	C	0.436929	0.050375	-0.070542
C108	C	0.436914	0.050359	-0.114792
N109	N	0.462716	0.000132	-0.139506
C110	C	0.488518	-0.050098	-0.119974
C111	C	0.436934	0.050351	0.287861
C112	C	0.436934	0.050347	0.332107
C113	C	0.488540	-0.050115	0.326925
C114	C	0.488536	-0.050117	0.282675
C115	C	0.462736	0.000124	0.263147
C116	C	0.488506	-0.050100	-0.212898
C117	C	0.488497	-0.050101	-0.257152
C118	C	0.436894	0.050365	-0.251963
C119	C	0.436901	0.050362	-0.207715
C120	C	0.462710	0.000128	-0.188183
O121	O	0.414968	0.093030	-0.135522
O122	O	0.510466	-0.092803	-0.145058
C123	C	0.488532	-0.050095	0.057016
C124	C	0.462735	0.000138	0.081732
C125	C	0.436933	0.050369	0.062200
C126	C	0.462735	0.000135	0.125978
C127	C	0.488537	-0.050096	0.145510
C128	C	0.514339	-0.100323	0.120796
C129	C	0.514334	-0.100325	0.076548
C130	C	0.411131	0.100596	0.086914
C131	C	0.411137	0.100593	0.131161
C132	C	0.436939	0.050363	0.150693
C133	C	0.462741	0.000138	0.398741
C134	C	0.462736	0.000116	0.351639
C135	C	0.601467	0.000166	-0.323752
C136	C	0.648555	0.000175	-0.276658
C137	C	0.469337	0.257397	-0.310511
C138	C	0.471582	0.344708	-0.258923
C139	C	0.608102	0.257431	-0.310492
C140	C	0.657441	0.344754	-0.258898
C141	C	0.317346	-0.257153	-0.614534
C142	C	0.268007	-0.344475	-0.666128
C143	C	0.323981	0.000112	-0.601274
C144	C	0.276893	0.000103	-0.648368
C145	C	0.456111	-0.257118	-0.614515
C146	C	0.453866	-0.344429	-0.666103
C147	C	0.642276	-0.050072	-0.257136
C148	C	0.686515	-0.050083	-0.212893
C149	C	0.737033	0.000160	-0.188170
C150	C	0.743312	0.050409	-0.207696
C151	C	0.699073	0.050413	-0.251942
C152	C	0.501028	0.435961	-0.232104
C153	C	0.503135	0.518007	-0.183637
C154	C	0.475799	0.508797	-0.161988
C155	C	0.446349	0.417534	-0.188813
C156	C	0.444239	0.335490	-0.237281
C157	C	0.706417	0.335532	-0.237254
C158	C	0.752781	0.417573	-0.188782
C159	C	0.750168	0.508834	-0.161952
C160	C	0.701187	0.518054	-0.183600
C161	C	0.654824	0.436014	-0.232074
C162	C	0.219031	-0.335253	-0.687778
C163	C	0.172666	-0.417294	-0.736263
C164	C	0.175280	-0.508556	-0.763096
C165	C	0.224261	-0.517776	-0.741445
C166	C	0.270624	-0.435736	-0.692963
C167	C	0.283172	0.050342	-0.667895
C168	C	0.238932	0.050330	-0.712152
C169	C	0.188414	0.000084	-0.736876
C170	C	0.182135	-0.050160	-0.717347
C171	C	0.226375	-0.050153	-0.673095
C172	C	0.481209	-0.335189	-0.687736
C173	C	0.479110	-0.417218	-0.736202
C174	C	0.449665	-0.508488	-0.763037
C175	C	0.422322	-0.517727	-0.741399
C176	C	0.424424	-0.435698	-0.692931
H177	H	0.324262	0.091248	-0.359520
H178	H	0.699067	0.592371	-0.161747
H179	H	0.132789	-0.409768	-0.753883
C180	C	0.531100	0.446116	-0.255911
N181	N	0.553749	0.453772	-0.273843
C182	C	0.227127	-0.618173	-0.770962
N183	N	0.229283	-0.693795	-0.793192
C184	C	0.586709	-0.105353	-0.284326
N185	N	0.544857	-0.147000	-0.304808
H186	H	-0.398811	-0.090978	-0.565503
C187	C	0.124274	-0.598794	-0.816422
N188	N	0.085854	-0.666758	-0.856585
H189	H	0.505185	-0.260879	-0.665894
C190	C	0.030829	0.155921	-0.286483
N191	N	0.072677	0.197556	-0.239432
H192	H	0.509524	-0.091004	-0.196999
H193	H	0.424093	0.410049	-0.171179
H194	H	0.447958	-0.575274	-0.802503
H195	H	0.708555	0.261229	-0.259092
C196	C	0.408498	0.105587	-0.180549
N197	N	0.387103	0.147180	-0.160093
H198	H	0.509544	-0.091024	0.262553
H199	H	0.527118	0.592309	-0.161802
C200	C	0.798887	0.105680	-0.180490
N201	N	0.840748	0.147316	-0.159993
C202	C	0.801174	0.599072	-0.108624
N203	N	0.839593	0.667036	-0.068456
H204	H	0.704193	0.091336	-0.267831
C205	C	0.324496	-0.445896	-0.669148
N206	N	0.365072	-0.453556	-0.651211
H207	H	0.324303	0.091264	-0.647767
C208	C	0.126561	-0.105411	-0.744542
N209	N	0.084701	-0.147017	-0.765021
H210	H	0.501376	-0.409677	-0.753814
H211	H	0.221255	-0.091061	-0.657197
C212	C	0.806655	0.407409	-0.164973
N213	N	0.847232	0.399751	-0.147039
C214	C	0.245850	0.105614	-0.733620
N215	N	0.251062	0.147256	-0.749787
H216	H	0.614948	0.443536	-0.249690
C217	C	0.516926	-0.105363	0.348422
N218	N	0.538309	-0.146967	0.364619
C219	C	0.389956	-0.618133	-0.770903
N220	N	0.365584	-0.693761	-0.793122
C221	C	0.245797	0.105631	-0.343280
N222	N	0.251002	0.147259	-0.296227
C223	C	0.163559	0.155896	-0.286494
N224	N	0.205406	0.197535	-0.239442
C225	C	-0.201093	0.105692	-0.343247
N226	N	-0.159244	0.147327	-0.296197
H227	H	0.152395	0.000087	-0.772909
H228	H	0.068867	0.141550	-0.302715
H229	H	-0.223661	-0.141214	-0.622290
C230	C	0.508143	0.605022	-0.371800
N231	N	0.532595	0.680696	-0.323045
C232	C	0.216143	-0.234873	-0.658274
N233	N	0.213964	-0.159268	-0.636058
C234	C	0.411851	0.235113	-0.266772
N235	N	0.387455	0.159510	-0.288981
H236	H	0.402156	-0.443235	-0.675323
H237	H	-0.295804	0.091333	-0.359474
H238	H	0.477521	0.575610	-0.122521
H239	H	-0.318552	-0.090977	-0.565511
H240	H	-0.090926	-0.141226	-0.622307
H241	H	-0.010663	-0.141215	-0.622308
H242	H	0.425781	0.421357	-0.536410
C243	C	0.126538	-0.105400	-0.581772
N244	N	0.084688	-0.147019	-0.628818
H245	H	0.221251	-0.091056	-0.565548
C246	C	0.408559	0.105640	0.266397
N247	N	0.387189	0.147288	0.250235
H248	H	-0.063879	0.141564	-0.302711
H249	H	0.509506	-0.091015	-0.277276
C250	C	-0.145195	-0.155594	-0.638523
N251	N	-0.150400	-0.197245	-0.685576
H252	H	0.535339	-0.141233	0.003952
C253	C	0.408565	0.105633	0.359303
N254	N	0.387205	0.147292	0.379795
C255	C	0.542708	-0.155588	-0.083372
N256	N	0.564094	-0.197204	-0.103836
C257	C	0.382787	0.155954	0.025645
N258	N	0.361455	0.197667	0.046165
H259	H	0.390118	0.141525	-0.061723
H260	H	0.415885	0.091258	-0.267876
C261	C	0.542723	-0.155575	0.142291
N262	N	0.564103	-0.197183	0.158486
C263	C	0.542720	-0.155585	0.049369
N264	N	0.564102	-0.197207	0.028902
H265	H	0.390120	0.141503	0.071017
C266	C	0.382773	0.155897	0.158365
N267	N	0.361421	0.197572	0.178866
H268	H	0.681393	-0.091001	-0.197000
H269	H	0.773051	0.000149	-0.152142
