data_functionalizedCrystal
_audit_creation_method	'MofGen! by Chris Wilmer'
_symmetry_space_group_name_H-M	'P1'
_symmetry_Int_Tables_number	1
_symmetry_cell_setting	triclinic
loop_
_symmetry_equiv_pos_as_xyz
  x,y,z
_cell_length_a	12.759401
_cell_length_b	12.759400
_cell_length_c	12.759386
_cell_angle_alpha	89.943059
_cell_angle_beta	90.042133
_cell_angle_gamma	89.998685
loop_
_atom_site_label
_atom_site_type_symbol
_atom_site_fract_x
_atom_site_fract_y
_atom_site_fract_z
Zn1	Zn	-1.606575	-0.417934	-0.594051
Zn2	Zn	-1.606435	-0.593748	-0.418387
Zn3	Zn	-1.430807	-0.418078	-0.418387
Zn4	Zn	-1.430901	-0.593566	-0.594026
O5	O	-1.518679	-0.505832	-0.506213
O6	O	-1.753577	-0.441272	-0.570759
O7	O	-1.583040	-0.570581	-0.271366
O8	O	-1.454142	-0.271038	-0.441699
O9	O	-1.753475	-0.570442	-0.441700
O10	O	-1.583278	-0.270932	-0.570758
O11	O	-1.454007	-0.441517	-0.271366
O12	O	-1.283799	-0.441341	-0.441675
O13	O	-1.454302	-0.570132	-0.741051
O14	O	-1.283867	-0.570272	-0.570716
O15	O	-1.583369	-0.441096	-0.741069
O16	O	-1.583131	-0.740745	-0.441676
O17	O	-1.454167	-0.740611	-0.570717
C18	C	-1.245712	-0.505803	-0.506194
C19	C	-1.128935	-0.505816	-0.506210
C20	C	-1.074128	-0.438677	-0.573514
C21	C	-0.964403	-0.438683	-0.573519
C22	C	-0.964305	-0.572977	-0.438914
C23	C	-1.074027	-0.572965	-0.438904
C24	C	-0.814473	-0.314819	-0.611274
C25	C	-0.759661	-0.247689	-0.678594
C26	C	-0.795355	-0.231620	-0.781131
C27	C	-0.885859	-0.282697	-0.816370
C28	C	-0.940665	-0.349835	-0.749055
C29	C	-0.904973	-0.365884	-0.646503
C30	C	-1.223959	-0.696830	-0.401161
C31	C	-1.278767	-0.763974	-0.333851
C32	C	-1.243076	-0.780053	-0.231311
C33	C	-1.152568	-0.728995	-0.196077
C34	C	-1.097760	-0.661851	-0.263387
C35	C	-1.133460	-0.645770	-0.365925
C36	C	-1.518672	-0.778799	-0.506217
C37	C	-1.518765	-0.895576	-0.506254
C38	C	-1.518861	-0.505578	-0.780246
C39	C	-1.518939	-0.505470	-0.897023
C40	C	-0.792713	-0.505851	-0.506229
C41	C	-0.909489	-0.505835	-0.506225
C42	C	-1.518715	-0.231798	-0.506231
C43	C	-1.518731	-0.115022	-0.506239
C44	C	-1.451592	-0.060093	-0.573424
C45	C	-1.451612	0.049632	-0.573435
C46	C	-1.585911	0.049488	-0.439066
C47	C	-1.585896	-0.060234	-0.439062
C48	C	-1.414175	0.199704	-0.697343
C49	C	-1.347020	0.254637	-0.764518
C50	C	-1.244511	0.219053	-0.780638
C51	C	-1.209136	0.128539	-0.729567
C52	C	-1.276285	0.073611	-0.662383
C53	C	-1.378808	0.109194	-0.646284
C54	C	-1.623322	-0.210309	-0.315152
C55	C	-1.690467	-0.265238	-0.247963
C56	C	-1.792977	-0.229657	-0.231832
C57	C	-1.828349	-0.139139	-0.282885
C58	C	-1.761204	-0.084209	-0.350075
C59	C	-1.658695	-0.119798	-0.366207
C60	C	-1.518559	-0.506009	-0.233245
C61	C	-1.518685	-0.505821	-0.116469
C62	C	-1.451080	-0.439029	-0.061656
C63	C	-1.451209	-0.438851	0.048068
C64	C	-1.586551	-0.572264	0.048156
C65	C	-1.586427	-0.572436	-0.061565
C66	C	-1.412956	-0.314982	0.197772
C67	C	-1.345335	-0.248200	0.252589
C68	C	-1.242667	-0.232861	0.217130
C69	C	-1.207601	-0.284320	0.126858
C70	C	-1.275217	-0.351110	0.072047
C71	C	-1.377899	-0.366429	0.107503
C72	C	-1.624668	-0.696307	-0.211272
C73	C	-1.692280	-0.763102	-0.266084
C74	C	-1.794949	-0.778452	-0.230628
C75	C	-1.830012	-0.727012	-0.140352
C76	C	-1.762401	-0.660216	-0.085539
C77	C	-1.659732	-0.644865	-0.121003
H78	H	-1.253035	-0.683735	-0.484655
F79	F	-1.382659	-0.193435	0.348659
H80	H	-1.541069	-0.683805	-0.240156
F81	F	-1.657387	0.107805	-0.367573
F82	F	-1.514217	-0.248186	-0.332317
F83	F	-1.237903	-0.405872	-0.024023
H84	H	-1.118831	-0.383997	-0.628316
H85	H	-1.395924	-0.384783	-0.106355
H86	H	-1.123994	-0.271835	0.098001
F87	F	-1.170702	-0.161786	0.275473
F88	F	-1.798852	0.012132	-0.404407
F89	F	-1.522235	-0.331284	0.235504
F90	F	-1.658643	-0.643157	0.106598
H91	H	-1.123503	-0.742093	-0.112583
F92	F	-1.864416	-0.288087	-0.160271
F93	F	-1.652815	-0.361573	-0.193622
F94	F	-1.036979	-0.404194	-0.786552
F95	F	-1.799720	-0.605471	0.010544
H96	H	-1.913613	-0.739512	-0.111481
H97	H	-1.849995	-0.832849	-0.275264
H98	H	-1.189833	0.263788	-0.835334
F99	F	-1.384673	0.350965	-0.818872
H100	H	-0.919585	-0.627648	-0.384117
F101	F	-0.923831	-0.265606	-0.925512
H102	H	-1.287690	-0.834758	-0.176520
H103	H	-0.750720	-0.176961	-0.835944
H104	H	-1.352474	-0.805534	-0.362542
F105	F	-1.523283	0.237572	-0.680207
H106	H	-1.396910	-0.104697	-0.628132
F107	F	-0.663333	-0.193346	-0.641093
F108	F	-0.776488	-0.331901	-0.502134
F109	F	-1.001450	-0.607486	-0.225875
H110	H	-1.663723	-0.804987	-0.339593
H111	H	-1.247483	-0.000084	-0.620803
H112	H	-1.911820	-0.110164	-0.269747
F113	F	-1.100025	0.090683	-0.746715
