data_functionalizedCrystal
_audit_creation_method	'MofGen! by Chris Wilmer'
_symmetry_space_group_name_H-M	'P1'
_symmetry_Int_Tables_number	1
_symmetry_cell_setting	triclinic
loop_
_symmetry_equiv_pos_as_xyz
  x,y,z
_cell_length_a	10.654550
_cell_length_b	18.266242
_cell_length_c	10.654551
_cell_angle_alpha	90.003472
_cell_angle_beta	84.485132
_cell_angle_gamma	90.012545
loop_
_atom_site_label
_atom_site_type_symbol
_atom_site_fract_x
_atom_site_fract_y
_atom_site_fract_z
O1	O	1.667850	0.060936	0.176401
O2	O	1.302372	0.060924	0.193207
O3	O	1.493513	0.060931	0.002065
O4	O	1.476708	0.060929	0.367543
O5	O	1.493480	-0.060831	0.002054
O6	O	1.302339	-0.060838	0.193197
O7	O	1.667817	-0.060826	0.176390
Zn8	Zn	1.485073	-0.080164	0.184792
Zn9	Zn	1.485116	0.080262	0.184805
O10	O	1.476676	-0.060833	0.367533
C11	C	1.255557	0.000041	0.191968
C12	C	1.116114	0.000037	0.188276
C13	C	1.036629	0.000047	0.300817
C14	C	0.905608	0.000060	0.297341
C15	C	0.933570	0.000055	0.068771
C16	C	1.064589	0.000037	0.072249
C17	C	1.088154	0.000047	0.416844
C18	C	1.008667	0.000058	0.529395
C19	C	0.877647	0.000071	0.525918
C20	C	0.826112	0.000072	0.409891
N21	N	1.485052	-0.189651	0.184782
C22	C	1.569718	-0.227957	0.100186
C23	C	1.569726	-0.304602	0.100181
C24	C	1.485081	-0.342938	0.184792
C25	C	1.400399	-0.304623	0.269394
C26	C	1.400385	-0.227980	0.269389
N27	N	1.470063	-0.463271	0.295783
N28	N	1.470084	-0.536079	0.295783
C29	C	1.485116	-0.573860	0.184811
N30	N	1.500151	-0.536083	0.073833
N31	N	1.500137	-0.463268	0.073834
C32	C	1.485086	-0.426045	0.184807
C33	C	1.569795	-0.695273	0.100202
C34	C	1.569794	-0.771920	0.100194
C35	C	1.400473	-0.771939	0.269419
C36	C	1.400467	-0.695294	0.269415
C37	C	1.485135	-0.656966	0.184808
C38	C	1.714632	0.000058	0.177629
C39	C	1.854075	0.000068	0.181321
C40	C	1.492263	0.000051	-0.044739
C41	C	1.488570	0.000056	-0.184182
N42	N	1.485146	0.189749	0.184805
C43	C	1.486856	0.066427	-0.249688
C44	C	1.483376	0.066424	-0.380708
C45	C	1.483329	-0.066328	-0.380705
C46	C	1.486801	-0.066324	-0.249686
C47	C	1.488625	0.132807	-0.184184
C48	C	1.486912	0.199184	-0.249690
C49	C	1.483432	0.199180	-0.380711
C50	C	1.481665	0.132800	-0.446224
C51	C	1.477926	0.000048	0.414336
C52	C	1.481619	0.000048	0.553779
H53	H	1.050636	0.000051	0.623860
H54	H	1.331529	-0.664104	0.338306
C55	C	1.307296	-0.185842	0.362510
N56	N	1.237202	-0.154103	0.432671
C57	C	1.477836	0.132800	-0.590352
N58	N	1.474961	0.132801	-0.698908
H59	H	1.638736	-0.803109	0.031300
H60	H	0.891600	0.000069	-0.025693
C61	C	1.492334	0.132817	-0.040044
N62	N	1.495085	0.132823	0.068527
H63	H	1.129308	0.000031	-0.019392
H64	H	1.488339	0.253228	-0.196339
C65	C	1.307362	-0.814105	0.362494
N66	N	1.237227	-0.845867	0.432600
H67	H	1.638657	-0.196752	0.031291
H68	H	1.481891	-0.120371	-0.434057
H69	H	1.482024	0.253227	-0.434041
H70	H	1.194836	0.000040	0.419687
C71	C	0.790215	0.000073	0.649724
N72	N	0.724364	0.000077	0.742980
C73	C	0.681984	0.000083	0.406073
N74	N	0.573428	0.000096	0.403200
C75	C	1.662882	-0.346747	0.007128
N76	N	1.733052	-0.378488	-0.062955
C77	C	1.307283	-0.346794	0.362462
N78	N	1.237140	-0.378557	0.432559
C79	C	1.488693	-0.139335	-0.177626
N80	N	1.490117	-0.194330	-0.123350
H81	H	1.638733	-0.664065	0.031306
