data_functionalizedCrystal
_audit_creation_method	'MofGen! by Chris Wilmer'
_symmetry_space_group_name_H-M	'P1'
_symmetry_Int_Tables_number	1
_symmetry_cell_setting	triclinic
loop_
_symmetry_equiv_pos_as_xyz
  x,y,z
_cell_length_a	15.995363
_cell_length_b	26.210047
_cell_length_c	15.995292
_cell_angle_alpha	89.992307
_cell_angle_beta	96.516994
_cell_angle_gamma	89.994109
loop_
_atom_site_label
_atom_site_type_symbol
_atom_site_fract_x
_atom_site_fract_y
_atom_site_fract_z
O1	O	-1.110963	0.042388	0.107967
O2	O	-0.867187	0.042397	0.121284
O3	O	-0.995764	0.042393	-0.007266
O4	O	-0.982386	0.042392	0.236516
O5	O	-0.995739	-0.042465	-0.007246
O6	O	-0.867162	-0.042461	0.121304
O7	O	-1.110939	-0.042470	0.107987
Cu8	Cu	-0.989048	-0.050214	0.114647
Cu9	Cu	-0.989077	0.050141	0.114623
O10	O	-0.982361	-0.042466	0.236536
C11	C	-0.835980	-0.000031	0.120741
C12	C	-0.743030	-0.000028	0.119085
C13	C	-0.405286	-0.000040	0.113138
C14	C	-0.452739	-0.000229	0.021586
C15	C	-0.549428	-0.000033	0.023242
C16	C	-0.572845	-0.000034	0.116088
C17	C	-0.531763	0.048422	0.161233
C18	C	-0.435128	0.048458	0.158928
C19	C	-0.434761	-0.048041	0.160843
C20	C	-0.531705	-0.048678	0.160825
C21	C	-0.667542	-0.000029	0.117760
C22	C	-0.310589	-0.000042	0.111469
N23	N	-0.989034	-0.120798	0.114663
C24	C	-1.046006	-0.473314	0.057715
C25	C	-1.046024	-0.686972	0.057703
O26	O	-1.094432	-0.714595	0.009287
N27	N	-0.989082	-0.713692	0.114605
C28	C	-0.932127	-0.686993	0.171510
O29	O	-0.883689	-0.714623	0.219903
C30	C	-0.932105	-0.473336	0.171517
C31	C	-0.989057	-0.446619	0.114617
C32	C	-1.102952	-0.446597	0.000819
C33	C	-1.102950	-0.393185	0.000825
C34	C	-1.046001	-0.366491	0.057728
C35	C	-0.989055	-0.393207	0.114624
C36	C	-0.875148	-0.446638	0.228418
C37	C	-0.875146	-0.393221	0.228413
C38	C	-0.932097	-0.366504	0.171513
C39	C	-0.932104	-0.313101	0.171533
N40	N	-0.989047	-0.286382	0.114631
C41	C	-1.045995	-0.313076	0.057728
C42	C	-0.932144	-0.799167	0.171504
C43	C	-0.932150	-0.852581	0.171503
C44	C	-1.046046	-0.852556	0.057695
C45	C	-1.046043	-0.799141	0.057700
C46	C	-0.989086	-0.772447	0.114602
C47	C	-1.045987	-0.200909	0.057747
C48	C	-1.045982	-0.147492	0.057761
C49	C	-0.932083	-0.147522	0.171566
C50	C	-0.932091	-0.200933	0.171555
C51	C	-0.989046	-0.227625	0.114639
O52	O	-0.883716	-0.285445	0.219917
O53	O	-1.094414	-0.285438	0.009330
C54	C	-1.046008	-0.526725	0.057708
C55	C	-0.989061	-0.553442	0.114604
C56	C	-0.932113	-0.526747	0.171507
C57	C	-0.989068	-0.606856	0.114603
C58	C	-1.046016	-0.633551	0.057701
C59	C	-1.102959	-0.606831	0.000799
C60	C	-1.102956	-0.553420	0.000805
C61	C	-0.875171	-0.553467	0.228408
C62	C	-0.875178	-0.606878	0.228398
C63	C	-0.932127	-0.633573	0.171495
C64	C	-0.142147	-0.000042	0.108518
C65	C	-0.235101	-0.000047	0.110141
C66	C	-0.995207	-0.000035	-0.038451
C67	C	-0.993575	-0.000031	-0.131404
N68	N	-0.989099	0.120725	0.114600
C69	C	-0.987574	-0.000035	-0.469143
C70	C	-1.080378	-0.000228	-0.445826
C71	C	-1.082141	-0.000035	-0.349151
C72	C	-0.990552	-0.000033	-0.301587
C73	C	-0.944168	0.048425	-0.330701
C74	C	-0.943051	0.048464	-0.427492
C75	C	-0.941128	-0.048036	-0.427326
C76	C	-0.944567	-0.048675	-0.330834
C77	C	-0.992230	-0.000031	-0.206891
C78	C	-0.985893	-0.000035	-0.563839
C79	C	-0.982918	-0.000037	0.267721
C80	C	-0.984550	-0.000038	0.360674
H81	H	-0.414221	-0.084770	0.130919
H82	H	-0.416837	0.084681	0.125988
O83	O	-0.564396	-0.091395	0.121438
C84	C	-0.624172	-0.077387	0.053690
H85	H	-0.648989	-0.037516	0.065130
H86	H	-0.593317	-0.077571	-0.007151
C87	C	-0.667147	-0.164666	0.032367
C88	C	-0.697632	-0.115697	0.046422
H89	H	-0.712459	-0.188298	0.027880
H90	H	-0.626873	-0.174104	0.078008
H91	H	-0.641434	-0.164812	-0.018333
H92	H	-0.723335	-0.115550	0.097126
H93	H	-0.737913	-0.106260	0.000789
O94	O	-0.396819	-0.048521	0.241356
C95	C	-0.348696	-0.093426	0.255221
H96	H	-0.374087	-0.123873	0.208146
H97	H	-0.280242	-0.084961	0.246812
C98	C	-0.323113	-0.075389	0.403136
C99	C	-0.354304	-0.112786	0.345321
H100	H	-0.326569	-0.087331	0.458715
H101	H	-0.355532	-0.045135	0.393795
H102	H	-0.266071	-0.068339	0.396118
H103	H	-0.411348	-0.119832	0.352333
H104	H	-0.321895	-0.143042	0.354666
H105	H	-0.978341	-0.084524	-0.312258
H106	H	-0.402867	0.050656	0.226144
O107	O	-0.550056	-0.052082	0.241596
C108	C	-0.600776	-0.010372	0.259496
H109	H	-0.591112	0.022355	0.214638
H110	H	-0.669717	-0.022388	0.251222
C111	C	-0.587975	-0.032984	0.405918
C112	C	-0.576100	0.007214	0.350827
H113	H	-0.572757	-0.022137	0.462256
H114	H	-0.553807	-0.061086	0.393859
H115	H	-0.645427	-0.042993	0.399012
H116	H	-0.518647	0.017218	0.357725
H117	H	-0.610258	0.035318	0.362889
O118	O	-1.101337	-0.121619	0.002402
C119	C	-1.151612	-0.156639	-0.047808
H120	H	-1.117284	-0.194716	-0.048776
H121	H	-1.213801	-0.162320	-0.020581
C122	C	-1.211055	-0.089017	-0.136938
C123	C	-1.168890	-0.135782	-0.138133
H124	H	-1.221717	-0.076151	-0.192654
H125	H	-1.177187	-0.065423	-0.103109
H126	H	-1.262875	-0.093757	-0.114245
H127	H	-1.117067	-0.131041	-0.160816
H128	H	-1.202750	-0.159375	-0.171968
H129	H	-0.885761	-0.777436	0.217842
O130	O	-1.101329	-0.878436	0.002300
C131	C	-1.087714	-0.865390	-0.080596
H132	H	-1.055446	-0.826608	-0.080512
H133	H	-1.046037	-0.895452	-0.106505
C134	C	-1.212366	-0.910550	-0.136364
C135	C	-1.172739	-0.862916	-0.136262
H136	H	-1.264812	-0.909026	-0.170703
H137	H	-1.221537	-0.919341	-0.080516
H138	H	-1.177626	-0.935597	-0.157953
H139	H	-1.207474	-0.837871	-0.114664
H140	H	-1.163576	-0.854120	-0.192108
O141	O	-0.565713	0.091459	0.123931
C142	C	-0.603845	0.120494	0.183405
H143	H	-0.620268	0.094549	0.236370
H144	H	-0.558438	0.151415	0.210390
C145	C	-0.664483	0.177355	0.075318
C146	C	-0.684660	0.145487	0.140367
H147	H	-0.714331	0.192774	0.048771
H148	H	-0.638790	0.157795	0.035250
H149	H	-0.626642	0.203118	0.097816
H150	H	-0.722492	0.119721	0.117868
H151	H	-0.710361	0.165043	0.180431
H152	H	-0.885724	-0.222687	0.217896
H153	H	-1.092364	-0.222635	0.011399
H154	H	-0.828795	-0.531736	0.274745
O155	O	-1.122936	-0.041700	-0.479305
C156	C	-1.069410	-0.071188	-0.524288
H157	H	-1.016732	-0.046079	-0.543745
H158	H	-1.041179	-0.103586	-0.482666
C159	C	-1.184936	-0.124396	-0.579468
C160	C	-1.120240	-0.093555	-0.603372
H161	H	-1.216290	-0.138195	-0.628249
H162	H	-1.220998	-0.104531	-0.549160
H163	H	-1.161401	-0.151390	-0.544782
H164	H	-1.143777	-0.066558	-0.638049
H165	H	-1.084184	-0.113416	-0.633688
O166	O	-0.429318	0.041033	-0.021761
C167	C	-0.370186	0.070060	0.030280
H168	H	-0.377381	0.061822	0.099079
H169	H	-0.303880	0.059450	0.016879
C170	C	-0.376608	0.137347	-0.072208
C171	C	-0.385450	0.127232	0.012292
H172	H	-0.386020	0.172614	-0.083305
H173	H	-0.416444	0.117790	-0.107270
H174	H	-0.321353	0.128502	-0.083365
H175	H	-0.440708	0.136071	0.023445
H176	H	-0.345624	0.146792	0.047356
H177	H	-0.976399	0.084486	-0.310648
H178	H	-1.149323	-0.371436	-0.045510
H179	H	-0.545874	0.050223	0.229443
H180	H	-0.577304	0.034763	-0.012501
O181	O	-0.863786	0.050673	-0.292649
C182	C	-0.852571	0.096008	-0.245266
H183	H	-0.901313	0.125386	-0.271236
H184	H	-0.860621	0.087627	-0.176699
C185	C	-0.703734	0.081086	-0.219154
C186	C	-0.763596	0.117169	-0.251055
H187	H	-0.648850	0.094138	-0.222721
H188	H	-0.711290	0.050541	-0.251074
H189	H	-0.710454	0.074104	-0.162018
H190	H	-0.756883	0.124145	-0.308193
H191	H	-0.756037	0.147715	-0.219145
H192	H	-0.975195	0.084686	-0.454315
O193	O	-0.861876	0.051189	-0.444824
C194	C	-0.824777	0.096398	-0.410248
H195	H	-0.876067	0.125492	-0.401569
H196	H	-0.787819	0.087645	-0.346671
C197	C	-0.701896	0.082572	-0.480744
C198	C	-0.764891	0.118307	-0.470092
H199	H	-0.664952	0.096086	-0.517656
H200	H	-0.726888	0.052113	-0.504037
H201	H	-0.671107	0.075281	-0.427759
H202	H	-0.795684	0.125593	-0.523075
H203	H	-0.739902	0.148769	-0.446809
H204	H	-1.149326	-0.468327	-0.045522
O205	O	-0.819741	-0.472504	0.283721
C206	C	-0.769495	-0.437478	0.333947
H207	H	-0.768570	-0.399401	0.299609
H208	H	-0.796659	-0.431799	0.396170
C209	C	-0.680301	-0.505090	0.393318
C210	C	-0.679159	-0.458325	0.351140
H211	H	-0.624578	-0.517950	0.403928
H212	H	-0.714154	-0.528688	0.359483
H213	H	-0.702942	-0.500351	0.445166
H214	H	-0.656529	-0.463066	0.299290
H215	H	-0.645299	-0.434728	0.384968
O216	O	-0.430610	-0.041626	-0.022189
C217	C	-0.394367	-0.025363	-0.093992
H218	H	-0.416658	0.014969	-0.111415
H219	H	-0.322880	-0.025664	-0.079953
C220	C	-0.393852	-0.111210	-0.146457
C221	C	-0.421237	-0.061675	-0.167860
H222	H	-0.410423	-0.133610	-0.192022
H223	H	-0.418267	-0.122168	-0.098081
H224	H	-0.334281	-0.111454	-0.134757
H225	H	-0.480807	-0.061431	-0.179550
H226	H	-0.396832	-0.050718	-0.216241
O227	O	-1.101224	-0.773149	0.002345
C228	C	-1.056358	-0.742286	-0.049357
H229	H	-0.990855	-0.734275	-0.016010
H230	H	-1.050634	-0.762898	-0.111208
C231	C	-1.184016	-0.701392	-0.108284
C232	C	-1.103567	-0.691549	-0.067324
H233	H	-1.213137	-0.670095	-0.119370
H234	H	-1.214244	-0.722186	-0.073454
H235	H	-1.179234	-0.718569	-0.159822
H236	H	-1.108349	-0.674378	-0.015782
H237	H	-1.073340	-0.670750	-0.102145
H238	H	-0.885784	-0.874330	0.217845
O239	O	-0.819932	-0.367235	0.283727
C240	C	-0.864751	-0.336351	0.335435
H241	H	-0.930275	-0.328337	0.302131
H242	H	-0.870423	-0.356945	0.397321
C243	C	-0.737056	-0.295463	0.394215
C244	C	-0.817532	-0.285617	0.353307
H245	H	-0.707928	-0.264169	0.405243
H246	H	-0.706860	-0.316272	0.359380
H247	H	-0.741794	-0.312626	0.445781
H248	H	-0.812793	-0.268460	0.301737
H249	H	-0.847727	-0.264804	0.388134
O250	O	-0.975669	-0.091869	-0.461096
C251	C	-0.914003	-0.119888	-0.497782
H252	H	-0.862093	-0.093009	-0.513779
H253	H	-0.886061	-0.150133	-0.451553
C254	C	-1.018270	-0.178964	-0.559046
C255	C	-0.954516	-0.145949	-0.578701
H256	H	-1.043260	-0.195041	-0.608959
H257	H	-1.059815	-0.160088	-0.534328
H258	H	-0.994975	-0.204163	-0.520520
H259	H	-0.977813	-0.120747	-0.617218
H260	H	-0.912976	-0.164821	-0.603428
O261	O	-0.876879	-0.121529	0.226870
C262	C	-0.921698	-0.090640	0.278572
H263	H	-0.987227	-0.082635	0.245272
H264	H	-0.927359	-0.111227	0.340467
C265	C	-0.794007	-0.049737	0.337323
C266	C	-0.874488	-0.039901	0.296420
H267	H	-0.764884	-0.018439	0.348336
H268	H	-0.763810	-0.070548	0.302493
H269	H	-0.798735	-0.066893	0.388897
H270	H	-0.869758	-0.022751	0.244842
H271	H	-0.904683	-0.019085	0.331242
H272	H	-1.149332	-0.531671	-0.045528
H273	H	-0.877714	-0.051600	-0.297866
H274	H	-0.872817	-0.048361	-0.441320
H275	H	-1.149331	-0.628574	-0.045531
H276	H	-0.828803	-0.628628	0.274740
O277	O	-1.125589	-0.041446	-0.326510
C278	C	-1.208560	-0.039613	-0.366996
H279	H	-1.225608	0.001499	-0.384896
H280	H	-1.213363	-0.064161	-0.426179
C281	C	-1.248740	-0.110478	-0.285109
C282	C	-1.269680	-0.059983	-0.307088
H283	H	-1.286442	-0.123045	-0.248158
H284	H	-1.192840	-0.111715	-0.257835
H285	H	-1.252742	-0.130929	-0.334434
H286	H	-1.265668	-0.039532	-0.257765
H287	H	-1.325582	-0.058743	-0.334353
O288	O	-1.122750	0.041051	-0.480339
C289	C	-1.082056	0.086039	-0.449269
H290	H	-1.043274	0.077686	-0.386491
H291	H	-1.038860	0.100367	-0.496201
C292	C	-1.195978	0.137371	-0.513836
C293	C	-1.148350	0.127112	-0.436729
H294	H	-1.236870	0.162708	-0.506104
H295	H	-1.223393	0.107062	-0.534772
H296	H	-1.159972	0.149308	-0.552939
H297	H	-1.184355	0.115170	-0.397631
H298	H	-1.120942	0.157420	-0.415786
O299	O	-1.125865	0.041422	-0.327163
C300	C	-1.195543	0.025298	-0.287330
H301	H	-1.212742	-0.015486	-0.307194
H302	H	-1.178888	0.026839	-0.216160
C303	C	-1.249798	0.110785	-0.288730
C304	C	-1.270926	0.060695	-0.313132
H305	H	-1.296297	0.132620	-0.304641
H306	H	-1.202853	0.121649	-0.315562
H307	H	-1.235917	0.112062	-0.229422
H308	H	-1.284795	0.059417	-0.372439
H309	H	-1.317875	0.049832	-0.286310
H310	H	-0.577854	-0.034768	-0.012245
