data_functionalizedCrystal
_audit_creation_method	'MofGen! by Chris Wilmer'
_symmetry_space_group_name_H-M	'P1'
_symmetry_Int_Tables_number	1
_symmetry_cell_setting	triclinic
loop_
_symmetry_equiv_pos_as_xyz
  x,y,z
_cell_length_a	13.033293
_cell_length_b	13.032868
_cell_length_c	13.032268
_cell_angle_alpha	103.285901
_cell_angle_beta	90.920818
_cell_angle_gamma	74.808508
loop_
_atom_site_label
_atom_site_type_symbol
_atom_site_fract_x
_atom_site_fract_y
_atom_site_fract_z
Zn1	Zn	1.451099	0.335779	0.818067
Zn2	Zn	1.784433	0.669112	1.151400
Zn3	Zn	2.117766	1.002445	1.484733
Zn4	Zn	1.450965	0.490877	0.662992
Zn5	Zn	1.784298	0.824210	0.996326
Zn6	Zn	2.117632	1.157544	1.329659
Zn7	Zn	1.301764	0.330079	0.623621
Zn8	Zn	1.635097	0.663412	0.956955
Zn9	Zn	1.968430	0.996746	1.290288
Zn10	Zn	1.250870	0.535869	0.817934
Zn11	Zn	1.584203	0.869202	1.151268
Zn12	Zn	1.917536	1.202535	1.484601
O13	O	1.363675	0.423151	0.730654
O14	O	1.697008	0.756484	1.063987
O15	O	2.030341	1.089818	1.397320
O16	O	1.597320	0.339909	0.814028
O17	O	1.930653	0.673242	1.147361
O18	O	2.263987	1.006575	1.480695
O19	O	1.452416	0.448333	0.511550
O20	O	1.785750	0.781666	0.844883
O21	O	2.119083	1.114999	1.178216
O22	O	1.342929	0.179802	0.632994
O23	O	1.676262	0.513136	0.966327
O24	O	2.009596	0.846469	1.299660
O25	O	1.597221	0.453859	0.700095
O26	O	1.930554	0.787192	1.033429
O27	O	2.263888	1.120526	1.366762
O28	O	1.452645	0.183990	0.775852
O29	O	1.785979	0.517323	1.109185
O30	O	2.119312	0.850656	1.442518
O31	O	1.342799	0.330195	0.482624
O32	O	1.676132	0.663528	0.815958
O33	O	2.009465	0.996862	1.149291
O34	O	1.148774	0.373821	0.632865
O35	O	1.482108	0.707155	0.966198
O36	O	1.815441	1.040488	1.299532
O37	O	1.256188	0.530541	0.964172
O38	O	1.589521	0.863874	1.297505
O39	O	1.922854	1.197207	1.630838
O40	O	1.111383	0.525014	0.775626
O41	O	1.444716	0.858347	1.108959
O42	O	1.778049	1.191681	1.442293
O43	O	1.403295	0.383535	0.964269
O44	O	1.736629	0.716869	1.297602
O45	O	2.069962	1.050202	1.630936
O46	O	1.403067	0.647878	0.699967
O47	O	1.736400	0.981212	1.033300
O48	O	2.069733	1.314545	1.366634
O49	O	1.256057	0.680933	0.813802
O50	O	1.589391	1.014267	1.147136
O51	O	1.922724	1.347600	1.480469
C52	C	1.092160	0.453682	0.699960
C53	C	1.425494	0.787016	1.033293
C54	C	1.758827	1.120349	1.366626
C55	C	0.975998	0.466773	0.686856
C56	C	1.309331	0.800107	1.020190
C57	C	1.642665	1.133440	1.353523
C58	C	0.924229	0.416346	0.737495
C59	C	1.257563	0.749679	1.070829
C60	C	1.590896	1.083012	1.404162
C61	C	0.804170	0.429875	0.723953
C62	C	1.137503	0.763208	1.057287
C63	C	1.470836	1.096541	1.390620
C64	C	1.324050	0.703567	0.761169
C65	C	1.657383	1.036900	1.094502
C66	C	1.990716	1.370234	1.427835
C67	C	1.307189	0.823525	0.774269
C68	C	1.640522	1.156858	1.107602
C69	C	1.973855	1.490191	1.440935
C70	C	1.372458	0.860616	0.723839
C71	C	1.705791	1.193950	1.057173
C72	C	2.039125	1.527283	1.390506
C73	C	1.355033	0.984598	0.737378
C74	C	1.688366	1.317932	1.070711
C75	C	2.021699	1.651265	1.404045
C76	C	1.636249	0.392501	0.761468
C77	C	1.969582	0.725834	1.094802
C78	C	2.302915	1.059168	1.428135
C79	C	1.752404	0.379440	0.774600
C80	C	2.085737	0.712773	1.107933
C81	C	2.419070	1.046107	1.441266
C82	C	1.324079	0.462692	1.003194
C83	C	1.657413	0.796026	1.336527
C84	C	1.990746	1.129359	1.669860
C85	C	1.307206	0.479543	1.119334
C86	C	1.640540	0.812876	1.452667
C87	C	1.973873	1.146209	1.786001
C88	C	1.403446	1.141642	0.700030
C89	C	1.736780	1.474975	1.033364
C90	C	2.070113	1.808309	1.366697
C91	C	1.420311	1.021686	0.686942
C92	C	1.753644	1.355019	1.020275
C93	C	2.086978	1.688352	1.353608
C94	C	1.403187	0.383679	0.459172
C95	C	1.736520	0.717012	0.792506
C96	C	2.069853	1.050345	1.125839
C97	C	1.420305	0.366502	0.343022
C98	C	1.753638	0.699835	0.676356
C99	C	2.086972	1.033168	1.009689
C100	C	1.372470	0.414320	1.171161
C101	C	1.705803	0.747653	1.504494
C102	C	2.039137	1.080986	1.837828
C103	C	1.355032	0.431734	1.291198
C104	C	1.688366	0.765067	1.624531
C105	C	2.021699	1.098400	1.957865
H106	H	0.796962	0.326241	0.827977
H107	H	1.130295	0.659574	1.161310
H108	H	1.463629	0.992907	1.494644
H109	H	1.441251	0.345585	1.126664
H110	H	1.774584	0.678918	1.459998
H111	H	2.107917	1.012251	1.793331
H112	H	1.441242	0.800587	0.670646
H113	H	1.774575	1.133920	1.003980
H114	H	2.107909	1.467254	1.337313
F115	F	1.510223	0.943230	0.617408
F116	F	1.843556	1.276563	0.950742
F117	F	2.176890	1.609896	1.284075
H118	H	1.489089	0.297759	1.298531
H119	H	1.822423	0.631093	1.631864
H120	H	2.155756	0.964426	1.965197
H121	H	1.286252	1.044627	0.790583
H122	H	1.619585	1.377961	1.123917
H123	H	1.952918	1.711294	1.457250
H124	H	0.968793	0.363152	0.790870
H125	H	1.302126	0.696486	1.124204
H126	H	1.635460	1.029819	1.457537
F127	F	1.217291	0.901986	0.843809
F128	F	1.550624	1.235319	1.177142
F129	F	1.883957	1.568652	1.510475
F130	F	1.217294	0.569377	1.177486
F131	F	1.550627	0.902711	1.510820
F132	F	1.883960	1.236044	1.844153
H133	H	0.759612	0.483065	0.670568
H134	H	1.092945	0.816398	1.003901
H135	H	1.426278	1.149732	1.337235
F136	F	0.917759	0.536291	0.617078
F137	F	1.251092	0.869624	0.950411
F138	F	1.584425	1.202958	1.283745
H139	H	1.286238	0.500464	1.335688
H140	H	1.619571	0.833797	1.669022
H141	H	1.952904	1.167131	2.002355
