data_functionalizedCrystal
_audit_creation_method	'MofGen! by Chris Wilmer'
_symmetry_space_group_name_H-M	'P1'
_symmetry_Int_Tables_number	1
_symmetry_cell_setting	triclinic
loop_
_symmetry_equiv_pos_as_xyz
  x,y,z
_cell_length_a	6.817900
_cell_length_b	17.982723
_cell_length_c	11.168136
_cell_angle_alpha	94.265089
_cell_angle_beta	108.508683
_cell_angle_gamma	102.447564
loop_
_atom_site_label
_atom_site_type_symbol
_atom_site_fract_x
_atom_site_fract_y
_atom_site_fract_z
V1	V	-4.079236	-0.105425	-0.394236
O2	O	-4.070936	0.005054	-0.386179
O3	O	-4.025408	-0.209028	-0.392071
O4	O	-4.055997	-0.103808	-0.565934
O5	O	-4.040135	-0.100894	-0.211113
V6	V	-4.560307	-0.092209	-0.372269
O7	O	-4.345873	-0.134413	-0.442424
O8	O	-4.743868	-0.063221	-0.324081
O9	O	-4.390929	0.011394	-0.374434
O10	O	-4.686005	-0.202688	-0.380326
O11	O	-4.716806	-0.096740	-0.555392
O12	O	-4.360340	-0.093826	-0.200571
C13	C	-3.868274	-0.234284	-0.385989
C14	C	-3.905717	-0.318981	-0.385363
C15	C	-4.318457	-0.842746	-0.387771
C16	C	-4.283266	-0.763165	-0.388364
C17	C	-4.082822	-0.719497	-0.382342
C18	C	-3.917552	-0.755413	-0.375713
C19	C	-3.952740	-0.834993	-0.375110
C20	C	-3.775638	-0.434479	-0.378141
C21	C	-3.740464	-0.354895	-0.378748
C22	C	-4.106164	-0.362651	-0.391395
C23	C	-4.141352	-0.442230	-0.390792
C24	C	-3.976077	-0.478139	-0.384157
C25	C	-4.014236	-0.564430	-0.383511
C26	C	-4.044666	-0.633208	-0.382997
C27	C	-3.907292	-0.100065	-0.607766
C28	C	-3.969538	-0.099429	-0.748134
C29	C	-4.171079	-0.102759	-0.816842
C30	C	-4.235418	-0.102101	-0.961919
C31	C	-4.211405	0.036646	-0.380512
C32	C	-4.153201	0.121342	-0.381146
C33	C	-4.172386	-0.097572	-0.158732
C34	C	-4.089378	-0.098204	-0.018363
H35	H	-3.577232	-0.319342	-0.373843
H36	H	-4.408073	-0.104956	-1.020985
F37	F	-3.863702	-0.094484	-0.941175
F38	F	-3.704214	-0.708935	-0.369286
F39	F	-3.776850	-0.873211	-0.368057
F40	F	-4.459142	-0.724946	-0.395384
F41	F	-3.599725	-0.472684	-0.371063
H42	H	-4.295989	-0.106091	-0.768261
F43	F	-4.354691	-0.488701	-0.397208
H44	H	-4.240733	-0.333404	-0.396792
H45	H	-4.481681	-0.878296	-0.392683
F46	F	-3.806254	-0.095060	-0.811623
