data_functionalizedCrystal
_audit_creation_method	'MofGen! by Chris Wilmer'
_symmetry_space_group_name_H-M	'P1'
_symmetry_Int_Tables_number	1
_symmetry_cell_setting	triclinic
loop_
_symmetry_equiv_pos_as_xyz
  x,y,z
_cell_length_a	16.109301
_cell_length_b	23.532407
_cell_length_c	15.186229
_cell_angle_alpha	89.991614
_cell_angle_beta	89.999362
_cell_angle_gamma	83.155079
loop_
_atom_site_label
_atom_site_type_symbol
_atom_site_fract_x
_atom_site_fract_y
_atom_site_fract_z
O1	O	1.102555	0.073202	-0.073182
O2	O	1.602555	0.573202	0.426818
O3	O	0.860421	0.082312	-0.073197
O4	O	1.360421	0.582312	0.426803
O5	O	0.988790	-0.005148	-0.073173
O6	O	1.488790	0.494852	0.426827
O7	O	0.974187	0.160662	-0.073206
O8	O	1.474187	0.660662	0.426794
O9	O	0.988781	-0.005149	0.073284
O10	O	1.488781	0.494851	0.573284
O11	O	0.860413	0.082311	0.073260
O12	O	1.360413	0.582311	0.573260
O13	O	1.102547	0.073201	0.073275
O14	O	1.602547	0.573201	0.573275
Zn15	Zn	0.981478	0.077755	0.096521
Zn16	Zn	1.481478	0.577755	0.596521
Zn17	Zn	0.981490	0.077757	-0.096443
Zn18	Zn	1.481490	0.577757	0.403557
O19	O	0.974178	0.160660	0.073251
O20	O	1.474178	0.660660	0.573251
C21	C	0.829445	0.081942	0.000030
C22	C	1.329445	0.581942	0.500030
C23	C	0.737159	0.080836	0.000025
C24	C	1.237159	0.580836	0.500025
C25	C	0.514498	0.130160	0.000025
C26	C	1.014498	0.630160	0.500025
C27	C	0.427786	0.129116	0.000031
C28	C	0.927786	0.629116	0.500031
C29	C	0.448476	0.025348	0.000048
C30	C	0.948476	0.525348	0.500048
C31	C	0.535187	0.026393	0.000048
C32	C	1.035187	0.526393	0.500048
C33	C	0.568195	0.078801	0.000032
C34	C	1.068195	0.578801	0.500032
C35	C	0.394773	0.076712	0.000038
C36	C	0.894773	0.576712	0.500038
C37	C	0.300755	0.075580	0.000044
C38	C	0.800755	0.575580	0.500044
C39	C	0.662218	0.079933	0.000028
C40	C	1.162218	0.579933	0.500028
C41	C	0.988414	-0.026366	0.000058
C42	C	1.488414	0.473634	0.500058
C43	C	0.987296	-0.089587	0.000064
C44	C	1.487296	0.410413	0.500064
C45	C	1.056249	-0.488436	0.000021
C46	C	1.556249	0.011564	0.500021
C47	C	1.055210	-0.547840	0.000014
C48	C	1.555210	-0.047840	0.500014
O49	O	1.119130	-0.584349	-0.000015
O50	O	1.619130	-0.084349	0.499985
N51	N	0.978895	-0.570748	0.000010
N52	N	1.478895	-0.070748	0.500010
C53	C	0.903614	-0.534248	0.000003
C54	C	1.403614	-0.034248	0.500003
O55	O	0.838607	-0.559187	-0.000002
O56	O	1.338607	-0.059187	0.499998
C57	C	0.904654	-0.474845	0.000004
C58	C	1.404654	0.025155	0.500004
C59	C	0.980973	-0.451941	0.000017
C60	C	1.480973	0.048059	0.500017
C61	C	1.132562	-0.465531	0.000033
C62	C	1.632562	0.034469	0.500033
C63	C	1.133601	-0.406131	0.000041
C64	C	1.633601	0.093869	0.500041
C65	C	1.058325	-0.369636	0.000037
C66	C	1.558325	0.130364	0.500037
C67	C	0.982012	-0.392541	0.000025
C68	C	1.482012	0.107459	0.500025
C69	C	0.829373	-0.438346	-0.000009
C70	C	1.329373	0.061654	0.499991
C71	C	0.830419	-0.378940	-0.000009
C72	C	1.330419	0.121060	0.499991
C73	C	0.906739	-0.356036	0.000004
C74	C	1.406739	0.143964	0.500004
C75	C	0.907774	-0.296645	0.000030
C76	C	1.407774	0.203355	0.500030
N77	N	0.984089	-0.273738	0.000034
N78	N	1.484089	0.226262	0.500034
C79	C	1.059365	-0.310233	0.000038
C80	C	1.559365	0.189767	0.500038
C81	C	0.901437	-0.658998	0.000001
C82	C	1.401437	-0.158998	0.500001
C83	C	0.900396	-0.718400	0.000007
C84	C	1.400396	-0.218400	0.500007
C85	C	1.051993	-0.731988	0.000016
C86	C	1.551993	-0.231988	0.500016
C87	C	1.053032	-0.672585	0.000016
C88	C	1.553032	-0.172585	0.500016
C89	C	0.977752	-0.636091	0.000005
C90	C	1.477752	-0.136091	0.500005
C91	C	1.061539	-0.185488	0.000056
C92	C	1.561539	0.314512	0.500056
C93	C	1.062571	-0.126082	0.000068
C94	C	1.562571	0.373918	0.500068
C95	C	0.910975	-0.112499	0.000055
C96	C	1.410975	0.387501	0.500055
C97	C	0.909943	-0.171900	0.000047
C98	C	1.409943	0.328100	0.500047
C99	C	0.985232	-0.208394	0.000045
C100	C	1.485232	0.291606	0.500045
O101	O	0.843888	-0.260102	0.000055
O102	O	1.343888	0.239898	0.500055
O103	O	1.124361	-0.285285	0.000031
O104	O	1.624361	0.214715	0.500031
C105	C	1.133523	0.073570	0.000046
C106	C	1.633523	0.573570	0.500046
C107	C	1.225809	0.074677	0.000046
C108	C	1.725809	0.574677	0.500046
C109	C	0.974554	0.181878	0.000018
C110	C	1.474554	0.681878	0.500018
C111	C	0.975672	0.245100	0.000006
C112	C	1.475672	0.745100	0.500006
N113	N	0.981477	0.077754	0.228214
N114	N	1.481477	0.577754	0.728214
N115	N	0.981498	0.077754	-0.228136
N116	N	1.481498	0.577754	0.271864
C117	C	1.038337	0.039040	0.453947
C118	C	1.538337	0.539040	0.953947
C119	C	1.038340	0.039039	0.546137
C120	C	1.538340	0.539039	1.046137
C121	C	0.924631	0.116470	0.546124
C122	C	1.424631	0.616470	1.046124
C123	C	0.924625	0.116468	0.453936
C124	C	1.424625	0.616468	0.953936
C125	C	0.981483	0.077754	0.407850
C126	C	1.481483	0.577754	0.907850
C127	C	0.981492	0.077754	0.592228
C128	C	1.481492	0.577754	1.092228
C129	C	0.981494	0.077753	0.692184
C130	C	1.481494	0.577753	1.192184
C131	C	0.981480	0.077754	0.307888
C132	C	1.481480	0.577754	0.807888
H133	H	1.122847	-0.215195	0.000051
H134	H	1.622847	0.284805	0.500051
H135	H	1.084633	0.007515	0.416426
H136	H	1.584633	0.507515	0.916426
C137	C	1.283338	-0.425547	0.000040
C138	C	1.783338	0.074453	0.500040
C139	C	1.217495	-0.380960	0.000044
C140	C	1.717495	0.119040	0.500044
H141	H	1.335132	-0.410009	0.000034
H142	H	1.835132	0.089991	0.500034
H143	H	1.279774	-0.448436	0.051110
H144	H	1.779774	0.051564	0.551110
H145	H	1.279766	-0.448428	-0.051036
H146	H	1.779766	0.051572	0.448964
H147	H	1.221062	-0.358081	0.051124
H148	H	1.721062	0.141919	0.551124
H149	H	1.221060	-0.358061	-0.051031
H150	H	1.721060	0.141939	0.448969
H151	H	0.838249	-0.737043	0.000011
H152	H	1.338249	-0.237043	0.500011
C153	C	0.362972	-0.036022	-0.075238
C154	C	0.862972	0.463978	0.424762
C155	C	0.412191	-0.032256	0.000053
C156	C	0.912191	0.467744	0.500053
H157	H	0.340577	-0.071587	-0.075237
H158	H	0.840577	0.428413	0.424763
H159	H	0.318585	-0.005587	-0.075236
H160	H	0.818585	0.494413	0.424764
H161	H	0.396380	-0.033455	-0.126303
H162	H	0.896380	0.466545	0.373697
H163	H	0.378781	-0.034820	0.051119
H164	H	0.878781	0.465180	0.551119
H165	H	0.456584	-0.062700	0.000060
H166	H	0.956584	0.437300	0.500060
H167	H	1.084635	0.007514	0.583666
H168	H	1.584635	0.507514	1.083666
C169	C	1.219372	-0.540203	-0.075250
C170	C	1.719372	-0.040203	0.424750
C171	C	1.215317	-0.505639	0.000037
C172	C	1.715317	-0.005639	0.500037
H173	H	1.270468	-0.564958	-0.075244
H174	H	1.770468	-0.064958	0.424756
H175	H	1.173788	-0.562354	-0.075249
H176	H	1.673788	-0.062354	0.424751
H177	H	1.216623	-0.516737	-0.126318
H178	H	1.716623	-0.016737	0.373682
H179	H	1.218060	-0.529106	0.051105
H180	H	1.718060	-0.029106	0.551105
H181	H	1.260913	-0.483487	0.000044
H182	H	1.760913	0.016513	0.500044
C183	C	0.546937	-0.076287	0.000055
C184	C	1.046937	0.423713	0.500055
C185	C	0.594218	-0.030066	0.000053
C186	C	1.094218	0.469934	0.500053
H187	H	0.583382	-0.111139	0.000055
H188	H	1.083382	0.388861	0.500055
H189	H	0.512687	-0.074540	0.051124
H190	H	1.012687	0.425460	0.551124
H191	H	0.512684	-0.074531	-0.051022
H192	H	1.012684	0.425469	0.448978
H193	H	0.628466	-0.031819	0.051134
H194	H	1.128466	0.468181	0.551134
H195	H	0.628482	-0.031814	-0.051022
H196	H	1.128482	0.468186	0.448978
H197	H	1.124722	-0.107437	0.000081
H198	H	1.624722	0.392563	0.500081
C199	C	0.874157	0.150859	0.687438
C200	C	1.374157	0.650859	1.187438
C201	C	0.862143	0.159029	0.596786
C202	C	1.362143	0.659029	1.096786
H203	H	0.835583	0.177138	0.718710
H204	H	1.335583	0.677138	1.218710
H205	H	0.865440	0.112854	0.702555
H206	H	1.365440	0.612854	1.202555
H207	H	0.929596	0.157055	0.702527
H208	H	1.429596	0.657055	1.202527
H209	H	0.806706	0.152829	0.581695
H210	H	1.306706	0.652829	1.081695
H211	H	0.870854	0.197043	0.581663
H212	H	1.370854	0.697043	1.081663
C213	C	1.202771	-0.691997	0.000019
C214	C	1.702771	-0.191997	0.500019
C215	C	1.136925	-0.647412	0.000017
C216	C	1.636925	-0.147412	0.500017
H217	H	1.254564	-0.676457	0.000011
H218	H	1.754564	-0.176457	0.500011
H219	H	1.199209	-0.714883	0.051091
H220	H	1.699209	-0.214883	0.551091
H221	H	1.199202	-0.714881	-0.051055
H222	H	1.699202	-0.214881	0.448945
H223	H	1.140490	-0.624530	0.051094
H224	H	1.640490	-0.124530	0.551094
H225	H	1.140488	-0.624516	-0.051061
H226	H	1.640488	-0.124516	0.448939
C227	C	1.138765	-0.806666	-0.075289
C228	C	1.638765	-0.306666	0.424711
C229	C	1.134742	-0.772110	0.000006
C230	C	1.634742	-0.272110	0.500006
H231	H	1.189851	-0.831433	-0.075297
H232	H	1.689851	-0.331433	0.424703
H233	H	1.093169	-0.828804	-0.075284
H234	H	1.593169	-0.328804	0.424716
H235	H	1.136020	-0.783195	-0.126352
H236	H	1.636020	-0.283195	0.373648
H237	H	1.137481	-0.795581	0.051069
H238	H	1.637481	-0.295581	0.551069
H239	H	1.180351	-0.749970	0.000009
H240	H	1.680351	-0.249970	0.500009
C241	C	0.874988	0.215054	0.425520
C242	C	1.374988	0.715054	0.925520
C243	C	0.862129	0.159028	0.403259
C244	C	1.362129	0.659028	0.903259
H245	H	0.836408	0.241325	0.394229
H246	H	1.336408	0.741325	0.894229
H247	H	0.866851	0.220593	0.487011
H248	H	1.366851	0.720593	0.987011
H249	H	0.930423	0.221241	0.410401
H250	H	1.430423	0.721241	0.910401
H251	H	0.806694	0.152839	0.418384
H252	H	1.306694	0.652839	0.918384
H253	H	0.870259	0.153486	0.341754
H254	H	1.370259	0.653486	0.841754
C255	C	0.485334	0.232625	0.000019
C256	C	0.985334	0.732625	0.500019
C257	C	0.550782	0.187766	0.000019
C258	C	1.050782	0.687766	0.500019
H259	H	0.507735	0.268188	0.000023
H260	H	1.007735	0.768188	0.500023
H261	H	0.451947	0.230062	-0.051051
H262	H	0.951947	0.730062	0.448949
H263	H	0.451943	0.230050	0.051096
H264	H	0.951943	0.730050	0.551096
H265	H	0.584170	0.190338	-0.051060
H266	H	1.084170	0.690338	0.448940
H267	H	0.584183	0.190329	0.051095
H268	H	1.084183	0.690329	0.551095
C269	C	0.318270	0.188139	-0.075269
C270	C	0.818270	0.688139	0.424731
C271	C	0.368761	0.185572	0.000017
C272	C	0.868761	0.685572	0.500017
H273	H	0.281827	0.222993	-0.075272
H274	H	0.781827	0.722993	0.424728
H275	H	0.352526	0.186391	-0.126332
H276	H	0.852526	0.686391	0.373668
H277	H	0.286202	0.156778	-0.075250
H278	H	0.786202	0.656778	0.424750
H279	H	0.400833	0.216932	-0.000005
H280	H	0.900833	0.716932	0.499995
H281	H	0.334500	0.187326	0.051094
H282	H	0.834500	0.687326	0.551094
H283	H	0.847797	-0.190549	0.000061
H284	H	1.347797	0.309451	0.500061
H285	H	0.840130	-0.629287	-0.000001
H286	H	1.340130	-0.129287	0.499999
H287	H	0.767225	-0.456984	-0.000025
H288	H	1.267225	0.043016	0.499975
C289	C	0.680466	-0.371480	-0.000028
C290	C	1.180466	0.128520	0.499972
C291	C	0.747666	-0.338825	-0.000018
C292	C	1.247666	0.161175	0.499982
H293	H	0.629380	-0.346715	-0.000026
H294	H	1.129380	0.153285	0.499974
H295	H	0.683222	-0.394923	-0.051100
H296	H	1.183222	0.105077	0.448900
H297	H	0.683217	-0.394940	0.051046
H298	H	1.183217	0.105060	0.551046
H299	H	0.744918	-0.315368	-0.051095
H300	H	1.244918	0.184632	0.448905
H301	H	0.744908	-0.315372	0.051060
H302	H	1.244908	0.184628	0.551060
H303	H	0.849688	-0.082774	0.000055
H304	H	1.349688	0.417226	0.500055
