data_functionalizedCrystal
_audit_creation_method	'MofGen! by Chris Wilmer'
_symmetry_space_group_name_H-M	'P1'
_symmetry_Int_Tables_number	1
_symmetry_cell_setting	triclinic
loop_
_symmetry_equiv_pos_as_xyz
  x,y,z
_cell_length_a	20.875621
_cell_length_b	21.606444
_cell_length_c	21.606444
_cell_angle_alpha	120.008886
_cell_angle_beta	92.969936
_cell_angle_gamma	58.317858
loop_
_atom_site_label
_atom_site_type_symbol
_atom_site_fract_x
_atom_site_fract_y
_atom_site_fract_z
Zr1	Zr	0.617935	0.677517	0.112288
O2	O	0.515509	0.806651	0.206006
O3	O	0.649334	0.548386	0.083544
O4	O	0.649328	0.677521	0.212687
O5	O	0.515520	0.677511	-0.024992
O6	O	0.754887	0.677522	0.217975
O7	O	0.515515	0.677515	0.076862
O8	O	0.754897	0.446522	-0.013040
O9	O	0.515510	0.908511	0.206023
O10	O	0.741503	0.601499	0.075248
O11	O	0.662729	0.601495	-0.004710
O12	O	0.662722	0.753536	0.147340
O13	O	0.583949	0.753532	0.067382
Zr14	Zr	0.786298	0.677511	-0.041724
Zr15	Zr	0.786290	0.677518	0.120721
Zr16	Zr	0.617943	0.677510	-0.050157
Zr17	Zr	0.617936	0.839972	0.112315
Zr18	Zr	0.786297	0.515056	-0.041751
O19	O	0.754899	0.806642	-0.012980
O20	O	0.754887	0.806652	0.217996
O21	O	0.515521	0.806641	-0.024970
O22	O	0.888724	0.548377	-0.135442
O23	O	0.888712	0.548387	0.095534
O24	O	0.649345	0.548376	-0.147432
O25	O	0.888713	0.677517	0.095556
O26	O	0.754905	0.677506	-0.142123
O27	O	0.649346	0.677506	-0.147411
O28	O	0.888718	0.677513	-0.006298
O29	O	0.649329	0.908512	0.212726
O30	O	0.754904	0.446516	-0.142162
O31	O	0.888723	0.446517	-0.135459
O32	O	0.888717	0.446522	-0.006337
O33	O	0.515516	0.908505	0.076901
O34	O	0.649336	0.908506	0.083604
O35	O	0.741511	0.601492	-0.076776
O36	O	0.820284	0.601496	0.003182
O37	O	0.741504	0.753533	0.075274
O38	O	0.662730	0.753529	-0.004684
C39	C	0.702115	0.474307	0.035248
C40	C	0.702115	0.405341	0.035236
C41	C	0.643956	0.429078	0.088451
C42	C	0.643958	0.364288	0.088467
C43	C	0.702116	0.275763	0.035264
C44	C	0.760281	0.252026	-0.017954
C45	C	0.760281	0.316815	-0.017966
C46	C	0.760280	-0.009260	-0.017906
C47	C	0.760274	-0.074049	-0.017891
C48	C	0.643958	0.038213	0.088527
C49	C	0.643958	0.103002	0.088515
C50	C	0.702124	0.079260	0.035300
C51	C	0.702122	0.149512	0.035284
C52	C	0.702116	0.205511	0.035276
C53	C	0.491531	0.677513	0.024734
C54	C	0.420060	0.677512	0.021154
C55	C	0.386479	0.677517	0.075586
C56	C	0.319327	0.677512	0.072218
C57	C	0.285753	0.677509	0.014422
C58	C	0.319340	0.677501	-0.040015
C59	C	0.386494	0.677500	-0.036651
C60	C	0.084914	0.677507	-0.001662
C61	C	0.017754	0.677511	-0.005022
C62	C	0.017746	0.677520	0.107212
C63	C	0.084899	0.677524	0.110574
C64	C	0.118482	0.677512	0.056135
N65	N	0.217112	0.677507	0.010980
N66	N	0.187126	0.677508	0.059575
C67	C	0.912702	0.677515	0.045830
C68	C	0.984173	0.677516	0.049410
C69	C	0.702106	0.677523	0.238476
C70	C	0.702102	0.677526	0.307438
C71	C	0.702118	0.880721	0.035316
C72	C	0.702118	0.949687	0.035328
C73	C	0.660979	0.756887	0.377468
C74	C	0.660986	0.756884	0.442263
C75	C	0.702112	0.677520	0.437027
C76	C	0.743240	0.598153	0.366990
C77	C	0.743237	0.598156	0.302196
C78	C	0.743253	0.598137	0.628293
C79	C	0.743251	0.598140	0.693094
C80	C	0.661002	0.756866	0.768360
C81	C	0.660999	0.756869	0.703567
C82	C	0.702130	0.677502	0.633536
C83	C	0.702124	0.677506	0.563278
C84	C	0.702115	0.677515	0.507283
C85	C	0.702127	0.677505	0.832088
C86	C	0.702132	0.677502	0.763126
C87	C	0.912701	0.474308	0.045796
C88	C	0.984172	0.405342	0.049364
C89	C	0.702126	0.474298	-0.167946
C90	C	0.702129	0.405329	-0.236920
C91	C	0.912712	0.474300	-0.157398
C92	C	0.984186	0.405331	-0.222792
C93	C	0.491521	0.880728	0.227962
C94	C	0.420047	0.949697	0.293356
C95	C	0.491532	0.880719	0.024768
C96	C	0.420061	0.949685	0.021200
C97	C	0.702107	0.880729	0.238510
C98	C	0.702104	0.949699	0.307484
C99	C	0.976612	0.372957	0.088665
C100	C	1.043760	0.308165	0.092033
C101	C	1.118466	0.275755	0.056095
C102	C	1.126025	0.308147	0.016793
C103	C	1.058878	0.372943	0.013430
C104	C	0.743253	0.372939	-0.306935
C105	C	0.743253	0.308144	-0.371750
C106	C	0.702133	0.275736	-0.366547
C107	C	0.661003	0.308132	-0.296524
C108	C	0.660999	0.372931	-0.231712
C109	C	1.058877	0.372944	-0.211764
C110	C	1.126041	0.308149	-0.273202
C111	C	1.118512	0.275738	-0.345667
C112	C	1.043813	0.308131	-0.356694
C113	C	0.976651	0.372929	-0.295257
C114	C	0.345356	0.982092	0.282328
C115	C	0.278192	1.046906	0.343766
C116	C	0.285721	1.079321	0.416231
C117	C	0.360420	1.046924	0.427258
C118	C	0.427582	0.982115	0.365821
C119	C	0.427621	0.982078	-0.018094
C120	C	0.360473	1.046888	-0.021444
C121	C	0.285767	1.079300	0.014496
C122	C	0.278208	1.046904	0.053795
C123	C	0.345355	0.982100	0.057148
C124	C	0.743233	0.982086	0.302257
C125	C	0.743245	1.046882	0.367060
C126	C	0.702124	1.079293	0.437088
C127	C	0.660994	1.046899	0.442314
C128	C	0.660987	0.982100	0.377512
H129	H	0.596600	0.383623	0.131800
H130	H	0.627513	0.821490	0.825390
O131	O	0.783270	0.276526	-0.439802
C132	C	0.840997	0.185727	-0.476780
H133	H	0.823705	0.158238	-0.452921
H134	H	0.845984	0.152157	-0.538896
H135	H	0.899979	0.173363	-0.468427
O136	O	0.621164	0.833955	0.510311
C137	C	0.673953	0.838700	0.552814
H138	H	0.735908	0.793663	0.513863
H139	H	0.656126	0.908895	0.587759
H140	H	0.672512	0.817382	0.591189
H141	H	0.627507	0.821496	0.707838
H142	H	0.627514	1.073298	0.499340
H143	H	0.702143	0.222973	-0.419328
H144	H	0.231098	1.132067	0.011759
O145	O	0.783276	0.520963	0.687876
C146	C	0.819566	0.450910	0.612171
H147	H	0.827708	0.474175	0.578025
H148	H	0.879302	0.395410	0.606129
H149	H	0.781035	0.426499	0.591142
H150	H	0.413808	0.677525	0.122653
H151	H	1.173135	0.222994	0.058838
O152	O	0.587398	0.515081	0.140038
C153	C	0.544860	0.555911	0.103563
H154	H	0.550554	0.504526	0.045654
H155	H	0.480309	0.606285	0.137317
H156	H	0.569318	0.589937	0.098224
O157	O	0.620955	0.950774	0.382726
C158	C	0.584681	0.993268	0.458434
H159	H	0.576557	1.058942	0.492582
H160	H	0.524937	1.004456	0.464489
H161	H	0.623213	0.950772	0.479449
H162	H	0.776745	0.533512	0.571279
H163	H	0.339189	0.955728	0.089143
H164	H	1.065022	0.399324	-0.152764
O165	O	0.702220	1.142133	0.500061
C166	C	0.734897	1.110487	0.545122
H167	H	0.774237	1.035876	0.509048
H168	H	0.771167	1.135939	0.573184
H169	H	0.685713	1.134054	0.589572
O170	O	0.500195	0.950589	0.376407
C171	C	0.557869	0.886425	0.306649
H172	H	0.531714	0.897039	0.262376
H173	H	0.609643	0.891705	0.309969
H174	H	0.578888	0.818647	0.291194
H175	H	0.627513	0.399294	-0.174704
H176	H	0.627524	0.281736	-0.292299
H177	H	0.596597	0.175082	0.131836
H178	H	0.915788	0.399344	0.117940
O179	O	-0.014742	0.677469	-0.061238
C180	C	0.029287	0.677481	-0.108555
H181	H	0.091440	0.649912	-0.102783
H182	H	0.031781	0.635213	-0.168814
H183	H	0.000242	0.747327	-0.092333
O184	O	0.587424	0.061180	0.140122
C185	C	0.544867	0.027066	0.103645
H186	H	0.582352	-0.031393	0.044235
H187	H	0.529012	0.005286	0.135098
H188	H	0.488825	0.079717	0.102109
O189	O	0.816673	0.293867	-0.069684
C190	C	0.781089	0.327951	-0.112543
H191	H	0.717568	0.386386	-0.079567
H192	H	0.814491	0.349759	-0.126151
H193	H	0.782434	0.275272	-0.166567
O194	O	0.783122	0.521134	0.362030
C195	C	0.774279	0.538141	0.434231
H196	H	0.718720	0.606337	0.474398
H197	H	0.769576	0.487436	0.433239
H198	H	0.827387	0.534403	0.453438
O199	O	1.036403	0.276631	-0.427052
C200	C	0.995003	0.239116	-0.437456
H201	H	0.957925	0.268393	-0.380984
H202	H	0.955098	0.253309	-0.473547
H203	H	1.038507	0.165312	-0.466250
H204	H	0.488445	0.955693	-0.047366
O205	O	1.198538	0.276772	-0.018141
C206	C	1.190825	0.319223	-0.053576
H207	H	1.130910	0.384918	-0.025450
H208	H	1.239006	0.330360	-0.049042
H209	H	1.196321	0.276718	-0.114890
O210	O	0.117645	0.677395	0.166622
C211	C	0.195551	0.601975	0.136166
H212	H	0.218640	0.576843	0.076032
H213	H	0.233989	0.618922	0.170324
H214	H	0.197022	0.549173	0.137515
H215	H	0.776724	0.533532	0.245175
O216	O	0.117533	0.677615	-0.054446
C217	C	0.117294	0.753025	-0.020120
H218	H	0.114338	0.778168	0.041023
H219	H	0.173302	0.736058	-0.049559
H220	H	0.064052	0.805825	-0.024067
H221	H	0.217373	1.073304	0.083055
O222	O	0.816852	-0.160007	-0.069606
C223	C	0.868181	-0.167071	-0.116589
H224	H	0.865416	-0.104429	-0.086503
H225	H	0.930755	-0.225040	-0.131566
H226	H	0.849880	-0.177457	-0.169688
H227	H	1.037590	0.281799	0.124036
H228	H	0.807643	-0.028602	-0.061237
H229	H	0.231027	1.132093	0.466251
H230	H	0.776718	0.955707	0.245242
H231	H	0.776736	1.073250	0.362791
O232	O	1.066131	0.404370	-0.024820
C233	C	1.029780	0.388495	-0.082354
H234	H	0.984001	0.380449	-0.067963
H235	H	0.999982	0.446034	-0.088666
H236	H	1.075962	0.326167	-0.136954
O237	O	0.816699	0.165993	-0.069603
C238	C	0.804239	0.113897	-0.058173
H239	H	0.739975	0.153282	-0.026938
H240	H	0.819482	0.053418	-0.114382
H241	H	0.843184	0.092864	-0.023958
H242	H	0.776739	0.399318	-0.311186
H243	H	1.173206	0.222975	-0.395687
O244	O	0.286783	0.677562	0.125176
C245	C	0.330823	0.677551	0.176903
H246	H	0.364413	0.705111	0.175916
H247	H	0.289513	0.719829	0.235220
H248	H	0.374155	0.607707	0.161402
O249	O	1.198538	0.276754	-0.262348
C250	C	1.190772	0.319267	-0.185213
H251	H	1.130841	0.345962	-0.153670
H252	H	1.238927	0.270660	-0.173772
H253	H	1.196269	0.375554	-0.165824
O254	O	0.904038	0.404502	-0.305843
C255	C	0.846364	0.468628	-0.236085
H256	H	0.872511	0.496990	-0.191807
H257	H	0.794579	0.523130	-0.239398
H258	H	0.825364	0.437619	-0.220642
H259	H	0.339211	0.955703	0.223328
H260	H	-0.009602	0.677528	0.151533
O261	O	0.286737	0.677616	-0.096139
C262	C	0.264064	0.753028	-0.093689
H263	H	0.299798	0.778163	-0.063372
H264	H	0.275150	0.736068	-0.152949
H265	H	0.198910	0.805831	-0.062764
O266	O	0.205695	1.078240	0.332912
C267	C	0.213461	1.035734	0.255777
H268	H	0.273391	0.970054	0.224228
H269	H	0.165304	1.024559	0.244327
H270	H	0.207967	1.078217	0.236403
H271	H	0.366541	1.073324	0.486267
O272	O	0.367966	1.078219	-0.059686
C273	C	0.448304	1.035717	-0.090678
H274	H	0.484101	0.970039	-0.096743
H275	H	0.457673	1.024537	-0.147853
H276	H	0.468101	1.078204	-0.052501
H277	H	0.627485	0.821515	0.381741
O278	O	0.419127	0.677618	-0.089422
C279	C	0.418884	0.753031	-0.055077
H280	H	0.415910	0.778171	0.006069
H281	H	0.474899	0.736071	-0.084496
H282	H	0.365650	0.805831	-0.059031
