data_functionalizedCrystal
_audit_creation_method	'MofGen! by Chris Wilmer'
_symmetry_space_group_name_H-M	'P1'
_symmetry_Int_Tables_number	1
_symmetry_cell_setting	triclinic
loop_
_symmetry_equiv_pos_as_xyz
  x,y,z
_cell_length_a	16.959455
_cell_length_b	16.959454
_cell_length_c	12.759393
_cell_angle_alpha	90.029640
_cell_angle_beta	90.021619
_cell_angle_gamma	90.017022
loop_
_atom_site_label
_atom_site_type_symbol
_atom_site_fract_x
_atom_site_fract_y
_atom_site_fract_z
Zn1	Zn	1.208441	-0.314708	0.594045
Zn2	Zn	1.208346	-0.446907	0.418368
Zn3	Zn	1.076252	-0.314739	0.418378
Zn4	Zn	1.076234	-0.446841	0.594003
O5	O	1.142318	-0.380799	0.506199
O6	O	1.319039	-0.332259	0.570755
O7	O	1.190792	-0.429415	0.271348
O8	O	1.093835	-0.204124	0.441703
O9	O	1.318970	-0.429385	0.441685
O10	O	1.190953	-0.204101	0.570765
O11	O	1.093743	-0.332312	0.271356
O12	O	0.965639	-0.332248	0.441662
O13	O	1.093803	-0.429273	0.741030
O14	O	0.965625	-0.429303	0.570693
O15	O	1.190935	-0.332195	0.741061
O16	O	1.190774	-0.557509	0.441645
O17	O	1.093712	-0.557461	0.570683
C18	C	0.936952	-0.380773	0.506175
C19	C	0.849095	-0.380780	0.506189
C20	C	0.477603	-0.330221	0.439153
C21	C	0.477637	-0.431441	0.573305
C22	C	0.560183	-0.431430	0.573299
C23	C	0.601442	-0.380814	0.506217
C24	C	0.560156	-0.330210	0.439142
C25	C	0.601476	-0.482039	0.640365
C26	C	0.684027	-0.482031	0.640360
C27	C	0.725288	-0.431410	0.573283
C28	C	0.683996	-0.380803	0.506206
C29	C	0.725255	-0.330187	0.439125
C30	C	0.683965	-0.279575	0.372053
C31	C	0.601417	-0.279589	0.372065
C32	C	0.807836	-0.431396	0.573271
C33	C	0.807809	-0.330176	0.439114
C34	C	1.142252	-0.586165	0.506181
C35	C	1.142296	-0.674022	0.506208
C36	C	1.091851	-1.045502	0.573382
C37	C	1.193006	-1.045492	0.439123
C38	C	1.192978	-0.962946	0.439113
C39	C	1.142385	-0.921674	0.506238
C40	C	1.091820	-0.962948	0.573372
C41	C	1.243536	-0.921666	0.371972
C42	C	1.243510	-0.839115	0.371959
C43	C	1.192921	-0.797842	0.439090
C44	C	1.142355	-0.839121	0.506228
C45	C	1.091762	-0.797849	0.573353
C46	C	1.041199	-0.839126	0.640497
C47	C	1.041231	-0.921675	0.640503
C48	C	1.192889	-0.715293	0.439084
C49	C	1.091731	-0.715295	0.573343
C50	C	1.348486	-0.380825	0.506224
C51	C	1.436343	-0.380837	0.506234
C52	C	1.142377	-0.380723	0.780232
C53	C	1.142403	-0.380690	0.897009
C54	C	1.142406	-0.174630	0.506240
C55	C	1.142444	-0.086774	0.506257
C56	C	1.142305	-0.380817	0.233231
C57	C	1.142433	-0.380627	0.116455
C58	C	1.192983	-0.330134	0.951889
C59	C	1.192996	-0.330100	1.061613
C60	C	1.091847	-0.431186	1.061568
C61	C	1.091830	-0.431215	0.951846
H62	H	0.841451	-0.472606	0.627877
H63	H	1.234160	-0.288991	0.907244
H64	H	0.567791	-0.238385	0.317457
H65	H	0.567876	-0.523254	0.694971
Br66	Br	0.421570	-0.261530	0.348139
Br67	Br	1.261493	-0.659277	0.347953
H68	H	1.234183	-0.288930	1.106291
H69	H	1.050674	-0.472323	1.106229
Br70	Br	0.740056	-0.550716	0.731385
H71	H	1.284682	-0.805512	0.317289
Br72	Br	1.023173	-0.499826	0.877359
H73	H	0.841397	-0.288953	0.384494
Br74	Br	1.261663	-1.101504	0.348028
Br75	Br	1.023072	-0.659290	0.664455
Br76	Br	0.739970	-0.210892	0.281007
H77	H	0.444039	-0.472655	0.627913
Br78	Br	0.972534	-0.783105	0.731583
H79	H	1.000065	-0.955290	0.695167
Br80	Br	1.023239	-1.101517	0.664509
H81	H	1.284720	-0.955276	0.317315
