data_functionalizedCrystal
_audit_creation_method	'MofGen! by Chris Wilmer'
_symmetry_space_group_name_H-M	'P1'
_symmetry_Int_Tables_number	1
_symmetry_cell_setting	triclinic
loop_
_symmetry_equiv_pos_as_xyz
  x,y,z
_cell_length_a	10.723023
_cell_length_b	15.538191
_cell_length_c	9.798715
_cell_angle_alpha	89.999989
_cell_angle_beta	89.996770
_cell_angle_gamma	65.869821
loop_
_atom_site_label
_atom_site_type_symbol
_atom_site_fract_x
_atom_site_fract_y
_atom_site_fract_z
O1	O	1.596025	0.131731	-0.113463
O2	O	1.227018	0.144341	-0.113467
O3	O	1.483352	0.001370	-0.113471
O4	O	1.339691	0.274701	-0.113460
O5	O	1.483338	0.001370	0.113511
O6	O	1.227004	0.144341	0.113515
O7	O	1.596011	0.131730	0.113519
Zn8	Zn	1.411505	0.138035	0.149555
Zn9	Zn	1.411524	0.138036	-0.149503
O10	O	1.339677	0.274701	0.113523
C11	C	1.180937	0.143423	0.000023
C12	C	1.043658	0.140678	0.000021
C13	C	0.840583	0.136617	-0.117563
C14	C	0.982469	0.139455	-0.117564
C15	C	1.498376	-0.033628	0.000016
C16	C	1.543147	-0.137913	0.000003
C17	C	1.098354	-0.428577	0.000027
C18	C	1.140455	-0.526570	0.000030
C19	C	1.377263	-0.547484	0.000033
C20	C	1.335182	-0.449490	0.000022
C21	C	1.195726	-0.390043	0.000021
C22	C	1.432554	-0.410956	0.000017
C23	C	1.390476	-0.312971	0.000013
C24	C	1.251026	-0.253519	0.000016
C25	C	1.153648	-0.292058	0.000018
C26	C	1.572010	-0.470404	0.000028
C27	C	1.669382	-0.431871	0.000022
C28	C	1.627304	-0.333884	0.000009
C29	C	1.487854	-0.274431	0.000012
C30	C	1.724682	-0.295344	0.000007
C31	C	1.682604	-0.197359	0.000004
C32	C	1.445775	-0.176446	0.000009
C33	C	1.642092	0.132648	0.000026
C34	C	1.779372	0.135393	0.000019
C35	C	1.324654	0.309699	0.000033
C36	C	1.279882	0.413984	0.000037
N37	N	1.411502	0.138034	0.353655
N38	N	1.411540	0.138029	-0.353603
C39	C	1.519253	0.077741	0.421430
C40	C	1.519274	0.077737	0.578593
H41	H	0.991022	0.139631	0.100692
O42	O	1.045680	-0.563846	-0.000037
C43	C	0.913575	-0.490362	-0.000005
H44	H	0.918299	-0.423580	-0.042974
H45	H	0.872681	-0.476725	0.108889
C46	C	0.812329	-0.600746	-0.036250
C47	C	0.818130	-0.518726	-0.089036
H48	H	0.753451	-0.618243	-0.091163
H49	H	0.901330	-0.650255	-0.036267
H50	H	0.778255	-0.589372	0.054494
H51	H	0.852219	-0.530105	-0.179771
H52	H	0.729132	-0.469220	-0.089037
H53	H	0.787949	0.135559	-0.218229
O54	O	1.629469	0.016198	0.352040
C55	C	1.745910	0.032068	0.386845
H56	H	1.729581	0.068209	0.490618
H57	H	1.763335	0.079041	0.306450
C58	C	1.891682	-0.107258	0.265828
C59	C	1.871630	-0.062877	0.393289
H60	H	1.969234	-0.165823	0.269797
H61	H	1.813234	-0.117949	0.242374
H62	H	1.906195	-0.068104	0.198845
H63	H	1.857100	-0.102025	0.460265
H64	H	1.950080	-0.052194	0.416754
H65	H	1.216768	-0.173733	0.000022
H66	H	1.611527	0.026121	0.636877
O67	O	0.841942	0.136770	0.120208
C68	C	0.759615	0.217358	0.195515
H69	H	0.648950	0.242560	0.160468
H70	H	0.796545	0.275669	0.178262
C71	C	0.905211	0.161620	0.391471
C72	C	0.769288	0.192569	0.348434
H73	H	0.911181	0.146332	0.485800
H74	H	0.960680	0.107329	0.340735
H75	H	0.935971	0.210219	0.377083
H76	H	0.738536	0.143967	0.362807
H77	H	0.713814	0.246853	0.399177
O78	O	1.301468	0.199487	0.423377
C79	C	1.247313	0.148775	0.506015
H80	H	1.329956	0.075520	0.527265
H81	H	1.158059	0.141994	0.451049
C82	C	1.095584	0.291467	0.615734
C83	C	1.197091	0.201497	0.641842
H84	H	1.064599	0.323989	0.699516
H85	H	1.132065	0.325634	0.560055
H86	H	1.021219	0.285803	0.569924
H87	H	1.271461	0.207162	0.687635
H88	H	1.160621	0.167332	0.697532
H89	H	1.035105	0.140513	-0.218230
H90	H	1.782927	-0.480285	0.000028
H91	H	0.984795	-0.380172	0.000016
O92	O	1.310268	-0.118785	-0.000187
C93	C	1.248533	-0.136350	-0.117767
H94	H	1.312749	-0.210471	-0.156952
H95	H	1.241290	-0.082658	-0.200084
C96	C	1.025263	-0.036903	-0.033945
C97	C	1.104128	-0.127943	-0.082066
H98	H	0.936186	-0.031714	-0.011927
H99	H	1.066854	-0.025066	0.045269
H100	H	1.019243	0.007830	-0.102551
H101	H	1.110162	-0.172673	-0.013454
H102	H	1.062535	-0.139787	-0.161268
H103	H	1.490809	-0.595898	0.000039
O104	O	1.301630	0.199659	0.576734
C105	C	1.342384	0.257872	0.494099
H106	H	1.456665	0.220926	0.472810
H107	H	1.319610	0.327344	0.549090
C108	C	1.122926	0.322900	0.384456
C109	C	1.263286	0.277519	0.358298
H110	H	1.074131	0.335024	0.300690
H111	H	1.095466	0.283684	0.440132
H112	H	1.103967	0.380789	0.430284
H113	H	1.282245	0.219627	0.312486
H114	H	1.290747	0.316726	0.302611
H115	H	1.606265	-0.550190	0.000018
H116	H	1.040088	-0.243653	0.000007
H117	H	1.838227	-0.343760	0.000022
H118	H	1.761894	-0.165985	0.000001
