data_functionalizedCrystal
_audit_creation_method	'MofGen! by Chris Wilmer'
_symmetry_space_group_name_H-M	'P1'
_symmetry_Int_Tables_number	1
_symmetry_cell_setting	triclinic
loop_
_symmetry_equiv_pos_as_xyz
  x,y,z
_cell_length_a	20.875492
_cell_length_b	27.440280
_cell_length_c	20.875641
_cell_angle_alpha	90.005468
_cell_angle_beta	60.662107
_cell_angle_gamma	58.316170
loop_
_atom_site_label
_atom_site_type_symbol
_atom_site_fract_x
_atom_site_fract_y
_atom_site_fract_z
Zr1	Zr	0.731440	0.443931	-0.117873
O2	O	0.864449	0.363804	-0.223365
O3	O	0.593156	0.472204	-0.080635
O4	O	0.723817	0.470829	-0.216283
O5	O	0.741641	0.362043	0.013710
O6	O	0.723805	0.551032	-0.216269
O7	O	0.733788	0.365179	-0.087717
O8	O	0.490077	0.553492	0.026379
O9	O	0.975369	0.359584	-0.228938
O10	O	0.651980	0.539635	-0.070663
O11	O	0.657849	0.477440	0.005022
O12	O	0.811685	0.475821	-0.154686
O13	O	0.817555	0.413626	-0.079001
Zr14	Zr	0.743945	0.566844	0.043914
Zr15	Zr	0.731421	0.571845	-0.117852
Zr16	Zr	0.743965	0.438930	0.043892
Zr17	Zr	0.908346	0.437200	-0.126762
Zr18	Zr	0.567040	0.573575	0.052802
O19	O	0.882229	0.538571	0.006676
O20	O	0.864421	0.545682	-0.223335
O21	O	0.882257	0.356693	0.006645
O22	O	0.610937	0.646971	0.149405
O23	O	0.593129	0.654082	-0.080605
O24	O	0.610964	0.465093	0.149375
O25	O	0.733745	0.648732	-0.087670
O26	O	0.751568	0.539946	0.142323
O27	O	0.751580	0.459743	0.142310
O28	O	0.741598	0.645596	0.013758
O29	O	0.975354	0.461259	-0.228921
O30	O	0.500032	0.549517	0.154961
O31	O	0.500017	0.651191	0.154978
O32	O	0.490062	0.655167	0.026396
O33	O	0.985324	0.355608	-0.100356
O34	O	0.985309	0.457283	-0.100339
O35	O	0.663700	0.534954	0.080726
O36	O	0.657831	0.597149	0.005041
O37	O	0.817537	0.533335	-0.078981
O38	O	0.823406	0.471141	-0.003297
C39	C	0.516411	0.513807	-0.025862
C40	C	0.441311	0.516665	-0.022088
C41	C	0.462836	0.473223	-0.079284
C42	C	0.392282	0.475910	-0.075765
C43	C	0.300203	0.522037	-0.015048
C44	C	0.278678	0.565483	0.042150
C45	C	0.349231	0.562798	0.038628
C46	C	0.083104	0.534872	0.001805
C47	C	0.012550	0.537552	0.005324
C48	C	0.126159	0.447980	-0.112593
C49	C	0.196708	0.445297	-0.116107
C50	C	0.175177	0.488745	-0.058911
N51	N	0.228084	0.524783	-0.011449
N52	N	0.247295	0.486000	-0.062514
C53	C	0.737717	0.345386	-0.037007
C54	C	0.737725	0.291083	-0.037016
C55	C	0.654314	-0.012304	0.006901
C56	C	0.654309	-0.063323	0.006908
O57	O	0.583413	-0.061382	0.044231
N58	N	0.737673	-0.122149	-0.036952
C59	C	0.821048	-0.129957	-0.080815
O60	O	0.891955	-0.184679	-0.118120
C61	C	0.821052	-0.078940	-0.080817
C62	C	0.737682	-0.020113	-0.036961
C63	C	0.570951	0.046520	0.050754
C64	C	0.570956	0.097534	0.050746
C65	C	0.654324	0.089725	0.006884
C66	C	0.737687	0.030902	-0.036969
C67	C	0.904425	-0.086748	-0.124676
C68	C	0.904422	-0.035724	-0.124674
C69	C	0.821053	0.023102	-0.080817
C70	C	0.821060	0.074108	-0.080839
N71	N	0.737696	0.132934	-0.036980
C72	C	0.654328	0.140743	0.006882
C73	C	0.821033	-0.237096	-0.080807
C74	C	0.821029	-0.288113	-0.080810
C75	C	0.654291	-0.221474	0.006915
C76	C	0.654295	-0.170457	0.006913
C77	C	0.737669	-0.178269	-0.036947
C78	C	0.654345	0.247876	0.006861
C79	C	0.654357	0.298892	0.006846
C80	C	0.821095	0.232250	-0.080875
C81	C	0.821083	0.181237	-0.080863
C82	C	0.737701	0.189055	-0.036990
O83	O	0.891921	0.072214	-0.118141
O84	O	0.583434	0.195466	0.044189
C85	C	0.958974	0.496968	-0.048098
C86	C	1.034075	0.494110	-0.051871
C87	C	0.722027	0.511643	-0.239324
C88	C	0.716710	0.513766	-0.307998
C89	C	0.737669	0.665389	-0.036953
C90	C	0.737661	0.719692	-0.036944
C91	C	0.797575	0.481455	-0.384120
C92	C	0.792574	0.483458	-0.448644
C93	C	0.706707	0.517769	-0.437043
C94	C	0.625836	0.550084	-0.360913
C95	C	0.630838	0.548085	-0.296392
C96	C	0.682807	0.527324	-0.625310
C97	C	0.677811	0.529320	-0.689840
C98	C	0.844549	0.462694	-0.777566
C99	C	0.849544	0.460695	-0.713038
C100	C	0.768673	0.493013	-0.636914
N101	N	0.701593	0.519815	-0.502996
N102	N	0.773788	0.490969	-0.570964
C103	C	0.753359	0.499132	0.165364
C104	C	0.758676	0.497009	0.234038
C105	C	0.516387	0.673808	-0.025835
C106	C	0.441278	0.730969	-0.022053
C107	C	0.532077	0.507551	0.176483
C108	C	0.462293	0.508286	0.248930
C109	C	0.532053	0.667553	0.176509
C110	C	0.462261	0.722590	0.248966
C111	C	0.943332	0.343222	-0.250469
C112	C	1.013125	0.288185	-0.322925
C113	C	0.958998	0.336967	-0.048125
C114	C	1.034107	0.279806	-0.051907
C115	C	0.943308	0.503224	-0.250442
C116	C	1.013092	0.502489	-0.322890
C117	C	0.402951	0.727790	-0.059800
C118	C	0.332387	0.781494	-0.056262
C119	C	0.300147	0.838376	-0.014971
C120	C	0.338481	0.841553	0.022777
C121	C	0.409048	0.787850	0.019234
C122	C	0.432577	0.538652	0.322476
C123	C	0.367018	0.539340	0.390553
C124	C	0.331171	0.509664	0.385083
C125	C	0.360894	0.479293	0.311530
C126	C	0.426457	0.478603	0.243454
C127	C	0.426422	0.780907	0.243485
C128	C	0.360855	0.832625	0.311559
C129	C	0.331122	0.826025	0.385112
C130	C	0.366968	0.767703	0.390591
C131	C	0.432539	0.715986	0.322518
C132	C	1.048972	0.229868	-0.317445
C133	C	1.114562	0.178149	-0.385520
C134	C	1.144298	0.184748	-0.459074
C135	C	1.108448	0.243071	-0.464552
C136	C	1.042864	0.294789	-0.396478
C137	C	1.072441	0.282985	-0.014167
C138	C	1.143024	0.229281	-0.017724
C139	C	1.175267	0.172399	-0.059017
C140	C	1.136929	0.169222	-0.096762
C141	C	1.066353	0.222925	-0.093209
C142	C	1.048918	0.532172	-0.317395
C143	C	1.114479	0.531493	-0.385460
C144	C	1.144217	0.501129	-0.459019
C145	C	1.108384	0.471446	-0.464513
C146	C	1.042820	0.472128	-0.396448
H147	H	-0.062428	0.575115	0.054771
F148	F	0.458058	0.787944	0.165210
F149	F	1.004714	0.356853	-0.402322
H150	H	0.607884	0.557260	-0.680386
H151	H	0.065561	0.570250	0.048378
F152	F	0.909776	-0.245419	-0.127497
H153	H	0.564989	0.574396	-0.234409
H154	H	1.013658	0.447955	-0.400933
H155	H	1.232735	0.128675	-0.061904
F156	F	1.017281	0.564492	-0.239114
F157	F	0.261333	0.881073	0.457556
H158	H	0.429200	0.681480	-0.093433
H159	H	0.888916	-0.336008	-0.116532
H160	H	1.163192	0.122902	-0.130383
H161	H	0.888971	0.225902	-0.116588
H162	H	1.046195	0.329295	0.019464
F163	F	0.458072	0.446284	0.165183
F164	F	0.322713	0.894690	0.305712
F165	F	0.180679	0.614576	0.106769
H166	H	0.342750	0.762338	0.450487
H167	H	0.331699	0.598173	0.085203
H168	H	0.503059	0.052888	0.086476
H169	H	0.301184	0.778895	-0.087001
H170	H	1.143740	0.130665	-0.381044
H171	H	0.409817	0.440535	-0.122340
F172	F	1.025557	0.219533	-0.133376
H173	H	1.143648	0.555664	-0.380972
H174	H	0.910390	0.436383	-0.839551
H175	H	1.174226	0.231879	0.013016
H176	H	0.972314	-0.134640	-0.160387
F177	F	1.214000	0.500407	-0.531454
H178	H	0.461711	0.668504	0.326991
H179	H	1.024765	0.224483	-0.257560
H180	H	0.537809	0.435655	-0.128719
H181	H	1.132608	0.446724	-0.524414
F182	F	0.335395	0.571667	0.468826
F183	F	0.322734	0.447712	0.305721
H184	H	1.197701	0.142632	-0.514498
H185	H	1.132667	0.248437	-0.524448
H186	H	0.271680	0.407744	-0.165560
F187	F	0.225040	0.895527	-0.011206
H188	H	0.143679	0.412608	-0.159160
H189	H	0.586465	0.346791	0.042562
H190	H	0.503068	0.145430	0.086455
F191	F	0.565562	-0.107852	0.053591
F192	F	0.565562	-0.213172	0.053598
F193	F	0.565600	0.256204	0.053555
H194	H	0.972318	-0.042092	-0.160380
F195	F	0.304156	0.902096	0.066722
F196	F	0.909813	0.118629	-0.127554
H197	H	0.858422	0.457147	-0.510624
F198	F	0.888967	0.444934	-0.396475
H199	H	0.616956	0.553640	-0.563335
F200	F	0.534449	0.586603	-0.348569
F201	F	0.449827	0.791242	0.059418
F202	F	0.940935	0.424154	-0.725392
H203	H	0.461757	0.562818	0.326944
H204	H	0.277787	0.510230	0.440522
