data_functionalizedCrystal
_audit_creation_method	'MofGen! by Chris Wilmer'
_symmetry_space_group_name_H-M	'P1'
_symmetry_Int_Tables_number	1
_symmetry_cell_setting	triclinic
loop_
_symmetry_equiv_pos_as_xyz
  x,y,z
_cell_length_a	27.732048
_cell_length_b	23.532407
_cell_length_c	22.610064
_cell_angle_alpha	90.000603
_cell_angle_beta	89.997337
_cell_angle_gamma	97.254333
loop_
_atom_site_label
_atom_site_type_symbol
_atom_site_fract_x
_atom_site_fract_y
_atom_site_fract_z
O1	O	0.641035	-0.067758	-0.049114
O2	O	1.141035	0.432242	0.450886
O3	O	0.500257	-0.078062	-0.049133
O4	O	1.000257	0.421938	0.450867
O5	O	0.574891	0.010031	-0.049112
O6	O	1.074891	0.510031	0.450888
O7	O	0.566401	-0.155851	-0.049135
O8	O	1.066401	0.344149	0.450865
O9	O	0.574878	0.010018	0.049257
O10	O	1.074878	0.510018	0.549257
O11	O	0.500244	-0.078075	0.049236
O12	O	1.000244	0.421925	0.549236
O13	O	0.641022	-0.067771	0.049255
O14	O	1.141022	0.432229	0.549255
Zn15	Zn	0.570631	-0.072925	0.064864
Zn16	Zn	1.070631	0.427075	0.564864
Zn17	Zn	0.570648	-0.072908	-0.064742
Zn18	Zn	1.070648	0.427092	0.435258
O19	O	0.566388	-0.155864	0.049234
O20	O	1.066388	0.344136	0.549234
C21	C	0.482243	-0.077852	0.000049
C22	C	0.982243	0.422148	0.500049
C23	C	0.428587	-0.077201	0.000043
C24	C	0.928587	0.422799	0.500043
N25	N	0.570622	-0.072936	0.153316
N26	N	1.070622	0.427064	0.653316
C27	C	0.574668	0.031240	0.000074
C28	C	1.074668	0.531240	0.500074
C29	C	0.574018	0.094455	0.000078
C30	C	1.074018	0.594455	0.500078
C31	C	0.089846	-0.125158	0.000062
C32	C	0.589846	0.374842	0.500062
C33	C	-0.111817	-0.122741	0.000067
C34	C	0.388183	0.377259	0.500067
O35	O	-0.143005	-0.166594	0.000087
O36	O	0.356995	0.333406	0.500087
N37	N	-0.131021	-0.070506	0.000073
N38	N	0.368979	0.429494	0.500073
C39	C	-0.099806	-0.018871	0.000082
C40	C	0.400194	0.481129	0.500082
O41	O	-0.120768	0.025614	0.000093
O42	O	0.379232	0.525614	0.500093
C43	C	0.101856	-0.021288	0.000081
C44	C	0.601856	0.478712	0.500081
C45	C	0.121057	-0.073527	0.000069
C46	C	0.621057	0.426473	0.500069
C47	C	0.109048	-0.177392	0.000050
C48	C	0.609048	0.322608	0.500050
C49	C	0.159461	-0.177996	0.000046
C50	C	0.659461	0.322004	0.500046
C51	C	0.190672	-0.126365	0.000052
C52	C	0.690672	0.373635	0.500052
C53	C	0.171470	-0.074130	0.000064
C54	C	0.671470	0.425870	0.500064
C55	C	0.133071	0.030346	0.000093
C56	C	0.633071	0.530346	0.500093
C57	C	0.183489	0.029737	0.000095
C58	C	0.683489	0.529737	0.500095
C59	C	0.202690	-0.022501	0.000083
C60	C	0.702690	0.477499	0.500083
C61	C	0.253094	-0.023103	0.000066
C62	C	0.753094	0.476897	0.500066
N63	N	0.272298	-0.075338	0.000060
N64	N	0.772298	0.424662	0.500060
C65	C	0.241087	-0.126969	0.000053
C66	C	0.741087	0.373031	0.500053
C67	C	-0.205682	-0.017606	0.000082
C68	C	0.294318	0.482394	0.500082
C69	C	-0.256097	-0.017001	0.000081
C70	C	0.243903	0.482999	0.500081
C71	C	-0.268105	-0.120872	0.000067
C72	C	0.231895	0.379128	0.500067
C73	C	-0.217689	-0.121476	0.000064
C74	C	0.282311	0.378524	0.500064
C75	C	-0.186478	-0.069841	0.000075
C76	C	0.313522	0.430159	0.500075
C77	C	0.346958	-0.128233	0.000043
C78	C	0.846958	0.371767	0.500043
C79	C	0.397376	-0.128832	0.000036
C80	C	0.897376	0.371168	0.500036
C81	C	0.409379	-0.024962	0.000053
C82	C	0.909379	0.475038	0.500053
C83	C	0.358966	-0.024362	0.000057
C84	C	0.858966	0.475638	0.500057
C85	C	0.327756	-0.076003	0.000054
C86	C	0.827756	0.423997	0.500054
O87	O	0.284311	0.020727	0.000053
O88	O	0.784311	0.520727	0.500053
O89	O	0.262058	-0.171448	0.000055
O90	O	0.762058	0.328552	0.500055
C91	C	0.039433	-0.124554	0.000066
C92	C	0.539433	0.375446	0.500066
C93	C	0.020232	-0.072320	0.000078
C94	C	0.520232	0.427680	0.500078
C95	C	0.051443	-0.020689	0.000085
C96	C	0.551443	0.479311	0.500085
C97	C	-0.030184	-0.071715	0.000077
C98	C	0.469816	0.428285	0.500077
C99	C	-0.061395	-0.123346	0.000070
C100	C	0.438605	0.376654	0.500070
C101	C	-0.042191	-0.175581	0.000064
C102	C	0.457809	0.324419	0.500064
C103	C	0.008222	-0.176185	0.000059
C104	C	0.508222	0.323815	0.500059
C105	C	0.032239	0.031547	0.000091
C106	C	0.532239	0.531547	0.500091
C107	C	-0.018175	0.032146	0.000095
C108	C	0.481825	0.532146	0.500095
C109	C	-0.049386	-0.019485	0.000088
C110	C	0.450614	0.480515	0.500088
C111	C	0.659035	-0.067981	0.000071
C112	C	1.159035	0.432019	0.500071
C113	C	0.712691	-0.068632	0.000074
C114	C	1.212691	0.431368	0.500074
C115	C	0.566610	-0.177073	0.000047
C116	C	1.066610	0.322927	0.500047
C117	C	0.567260	-0.240289	0.000038
C118	C	1.067260	0.259711	0.500038
C119	C	0.614108	0.493644	0.000051
C120	C	1.114108	0.993644	0.500051
C121	C	0.613504	0.553043	0.000047
C122	C	1.113504	1.053043	0.500047
O123	O	0.650668	0.589867	0.000030
O124	O	1.150668	1.089867	0.500030
N125	N	0.569134	0.575574	0.000041
N126	N	1.069134	1.075574	0.500041
C127	C	0.525365	0.538703	0.000034
C128	C	1.025365	1.038703	0.500034
O129	O	0.487570	0.563322	0.000029
O130	O	0.987570	1.063322	0.500029
C131	C	0.525970	0.479306	0.000035
C132	C	1.025970	0.979306	0.500035
C133	C	0.570342	0.456778	0.000046
C134	C	1.070342	0.956778	0.500046
C135	C	0.658477	0.471116	0.000062
C136	C	1.158477	0.971116	0.500062
C137	C	0.659081	0.411721	0.000068
C138	C	1.159081	0.911721	0.500068
C139	C	0.615315	0.374854	0.000063
C140	C	1.115315	0.874854	0.500063
C141	C	0.570946	0.397383	0.000052
C142	C	1.070946	0.897383	0.500052
C143	C	0.482201	0.442436	0.000023
C144	C	0.982201	0.942436	0.500023
C145	C	0.482810	0.383035	0.000023
C146	C	0.982810	0.883035	0.500023
C147	C	0.527182	0.360507	0.000035
C148	C	1.027182	0.860507	0.500035
C149	C	0.527784	0.301122	0.000052
C150	C	1.027784	0.801122	0.500052
N151	N	0.572154	0.278590	0.000058
N152	N	1.072154	0.778590	0.500058
C153	C	0.615920	0.315457	0.000063
C154	C	1.115920	0.815457	0.500063
C155	C	0.524100	0.663443	0.000032
C156	C	1.024100	1.163443	0.500032
C157	C	0.523495	0.722840	0.000036
C158	C	1.023495	1.222840	0.500036
C159	C	0.611634	0.737175	0.000048
C160	C	1.111634	1.237175	0.500048
C161	C	0.612238	0.677778	0.000048
C162	C	1.112238	1.177778	0.500048
C163	C	0.568469	0.640912	0.000038
C164	C	1.068469	1.140912	0.500038
C165	C	0.617184	0.190723	0.000075
C166	C	1.117184	0.690723	0.500075
C167	C	0.617784	0.131322	0.000083
C168	C	1.117784	0.631322	0.500083
C169	C	0.529645	0.116991	0.000069
C170	C	1.029645	0.616991	0.500069
C171	C	0.529045	0.176387	0.000064
C172	C	1.029045	0.676387	0.500064
C173	C	0.572818	0.213252	0.000065
C174	C	1.072818	0.713252	0.500065
O175	O	0.490640	0.264263	0.000067
O176	O	0.990640	0.764263	0.500067
O177	O	0.653709	0.290829	0.000061
O178	O	1.153709	0.790829	0.500061
N179	N	0.570660	-0.072892	-0.153194
N180	N	1.070660	0.427108	0.346806
C181	C	0.603697	-0.033907	0.561967
C182	C	1.103697	0.466093	1.061967
C183	C	0.603700	-0.033902	0.623887
C184	C	1.103700	0.466098	1.123887
O185	O	0.631801	-0.000727	0.655913
O186	O	1.131801	0.499273	1.155913
N187	N	0.570648	-0.072896	0.654853
N188	N	1.070648	0.427104	1.154853
C189	C	0.537588	-0.111893	0.623897
C190	C	1.037588	0.388107	1.123897
O191	O	0.509474	-0.145060	0.655922
O192	O	1.009474	0.354940	1.155922
C193	C	0.537583	-0.111894	0.561978
C194	C	1.037583	0.388106	1.061978
C195	C	0.570641	-0.072901	0.531015
C196	C	1.070641	0.427099	1.031015
C197	C	0.636752	0.005083	0.531003
C198	C	1.136752	0.505083	1.031003
C199	C	0.636750	0.005078	0.469088
C200	C	1.136750	0.505078	0.969088
C201	C	0.603693	-0.033917	0.438136
C202	C	1.103693	0.466083	0.938136
C203	C	0.570639	-0.072906	0.469099
C204	C	1.070639	0.427094	0.969099
C205	C	0.504521	-0.150887	0.531023
C206	C	1.004521	0.349113	1.031023
C207	C	0.504519	-0.150885	0.469100
C208	C	1.004519	0.349115	0.969100
C209	C	0.537577	-0.111892	0.438136
C210	C	1.037577	0.388108	0.938136
C211	C	0.537580	-0.111906	0.376231
C212	C	1.037580	0.388094	0.876231
N213	N	0.570632	-0.072912	0.345265
N214	N	1.070632	0.427088	0.845265
C215	C	0.603689	-0.033918	0.376217
C216	C	1.103689	0.466082	0.876217
C217	C	0.537599	-0.111887	0.753931
C218	C	1.037599	0.388113	1.253931
C219	C	0.537605	-0.111889	0.815848
C220	C	1.037605	0.388111	1.315848
C221	C	0.603717	-0.033898	0.815834
C222	C	1.103717	0.466102	1.315834
C223	C	0.603713	-0.033899	0.753915
C224	C	1.103713	0.466101	1.253915
C225	C	0.570651	-0.072893	0.722964
C226	C	1.070651	0.427107	1.222964
C227	C	0.603683	-0.033931	0.246189
C228	C	1.103683	0.466069	0.746189
C229	C	0.603679	-0.033941	0.184268
C230	C	1.103679	0.466059	0.684268
C231	C	0.537566	-0.111931	0.184288
C232	C	1.037566	0.388069	0.684288
C233	C	0.537571	-0.111923	0.246204
C234	C	1.037571	0.388077	0.746204
C235	C	0.570631	-0.072918	0.277153
C236	C	1.070631	0.427082	0.777153
O237	O	0.509492	-0.145064	0.344165
O238	O	1.009492	0.354936	0.844165
O239	O	0.631794	-0.000752	0.344184
O240	O	1.131794	0.499248	0.844184
H241	H	0.413007	-0.171373	0.000026
H242	H	0.913007	0.328627	0.500026
H243	H	0.446068	0.460767	0.000010
H244	H	0.946068	0.960767	0.500010
H245	H	-0.033803	0.074688	0.000100
H246	H	0.466197	0.574688	0.500100
H247	H	0.648370	0.659440	0.000057
H248	H	1.148370	1.159440	0.500057
N249	N	0.637459	0.005901	0.277798
N250	N	1.137459	0.505901	0.777798
N251	N	0.667379	-0.011923	0.312344
N252	N	1.167379	0.488077	0.812344
H253	H	0.691236	0.016206	0.334668
H254	H	1.191236	0.516206	0.834668
H255	H	-0.180274	0.024444	0.000091
H256	H	0.319726	0.524444	0.500091
N257	N	-0.299986	-0.173616	0.000060
N258	N	0.200014	0.326384	0.500060
N259	N	-0.298382	-0.208461	-0.041404
N260	N	0.201618	0.291539	0.458596
H261	H	-0.320900	-0.245710	-0.041405
H262	H	0.179100	0.254290	0.458595
H263	H	0.487362	0.741176	0.000037
H264	H	0.987362	1.241176	0.500037
H265	H	0.488456	0.633430	0.000029
H266	H	0.988456	1.133430	0.500029
N267	N	0.438095	0.345386	0.000006
N268	N	0.938095	0.845386	0.500006
N269	N	0.398484	0.365513	-0.000008
N270	N	0.898484	0.865513	0.499992
H271	H	0.366904	0.338925	-0.000020
H272	H	0.866904	0.838925	0.499980
H273	H	0.117446	0.072884	0.000104
H274	H	0.617446	0.572884	0.500104
N275	N	0.704411	0.388723	0.000077
N276	N	1.204411	0.888723	0.500077
N277	N	0.743480	0.421655	0.000079
N278	N	1.243480	0.921655	0.500079
H279	H	0.775498	0.405418	0.000084
H280	H	1.275498	0.905418	0.500084
N281	N	0.503806	-0.151760	0.152656
N282	N	1.003806	0.348240	0.652656
N283	N	0.503812	-0.151752	0.097372
N284	N	1.003812	0.348248	0.597372
H285	H	0.479967	-0.179879	0.075029
H286	H	0.979967	0.320121	0.575029
H287	H	0.510692	-0.143647	0.841054
H288	H	1.010692	0.356353	1.341054
N289	N	0.670556	0.044872	0.437473
N290	N	1.170556	0.544872	0.937473
N291	N	0.700088	0.079656	0.465127
N292	N	1.200088	0.579656	0.965127
H293	H	0.723978	0.107748	0.442803
H294	H	1.223978	0.607748	0.942803
N295	N	0.339349	0.028996	0.000075
N296	N	0.839349	0.528996	0.500075
N297	N	0.312560	0.040915	0.041549
N298	N	0.812560	0.540915	0.541549
H299	H	0.298708	0.078600	0.041568
H300	H	0.798708	0.578600	0.541568
H301	H	0.057647	0.073592	0.000098
H302	H	0.557647	0.573592	0.500098
H303	H	0.630631	-0.002148	0.728708
H304	H	1.130631	0.497852	1.228708
H305	H	0.510677	-0.143646	0.728733
H306	H	1.010677	0.356354	1.228733
N307	N	-0.275717	0.036354	0.000082
N308	N	0.224283	0.536354	0.500082
N309	N	-0.302507	0.048288	-0.041379
N310	N	0.197493	0.548288	0.458621
H311	H	-0.316363	0.085971	-0.041376
H312	H	0.183637	0.585971	0.458624
H313	H	0.477603	-0.182638	0.556225
H314	H	0.977603	0.317362	1.056225
H315	H	0.492913	0.194730	0.000071
H316	H	0.992913	0.694730	0.500071
N317	N	0.670523	0.044925	0.562605
N318	N	1.170523	0.544925	1.062605
N319	N	0.700029	0.079733	0.534939
N320	N	1.200029	0.579733	1.034939
H321	H	0.723884	0.107872	0.557254
H322	H	1.223884	0.607872	1.057254
H323	H	0.477595	-0.182638	0.443902
H324	H	0.977595	0.317362	0.943902
H325	H	0.510657	-0.143679	0.271415
H326	H	1.010657	0.356321	0.771415
H327	H	0.630633	-0.002146	0.841046
H328	H	1.130633	0.497854	1.341046
N329	N	0.703191	0.508760	0.000063
N330	N	1.203191	1.008760	0.500063
N331	N	0.742799	0.488626	0.000071
N332	N	1.242799	0.988626	0.500071
H333	H	0.774382	0.515209	0.000075
H334	H	1.274382	1.015209	0.500075
H335	H	0.321553	-0.170283	0.000042
H336	H	0.821553	0.329717	0.500042
H337	H	0.208899	0.071785	0.000105
H338	H	0.708899	0.571785	0.500105
H339	H	-0.202059	-0.164013	0.000057
H340	H	0.297941	0.335987	0.500057
H341	H	0.652829	0.220731	0.000074
H342	H	1.152829	0.720731	0.500074
N343	N	0.179060	-0.231363	0.000046
N344	N	0.679060	0.268637	0.500046
N345	N	0.169398	-0.266069	0.041509
N346	N	0.669398	0.233931	0.541509
H347	H	0.183236	-0.303764	0.041512
H348	H	0.683236	0.196236	0.541512
N349	N	0.077178	-0.230142	0.000047
N350	N	0.577178	0.269858	0.500047
N351	N	0.094339	-0.276771	0.000039
N352	N	0.594339	0.223229	0.500039
H353	H	0.071834	-0.314030	0.000033
H354	H	0.571834	0.185970	0.500033
H355	H	0.434801	0.017075	0.000056
H356	H	0.934801	0.517075	0.500056
H357	H	0.023850	-0.218723	0.000050
H358	H	0.523850	0.281277	0.500050
H359	H	-0.067612	-0.217621	0.000056
H360	H	0.432388	0.282379	0.500056
H361	H	0.653919	0.112983	0.000094
H362	H	1.153919	0.612983	0.500094
H363	H	0.647270	0.767203	0.000050
H364	H	1.147270	1.267203	0.500050
N365	N	0.484943	0.079325	0.000046
N366	N	0.984943	0.579325	0.500046
N367	N	0.455381	0.081154	-0.041432
N368	N	0.955381	0.581154	0.458568
H369	H	0.423810	0.054550	-0.041455
H370	H	0.923810	0.554550	0.458545
H371	H	0.630600	-0.002189	0.159060
H372	H	1.130600	0.497811	0.659060
