data_functionalizedCrystal
_audit_creation_method	'MofGen! by Chris Wilmer'
_symmetry_space_group_name_H-M	'P1'
_symmetry_Int_Tables_number	1
_symmetry_cell_setting	triclinic
loop_
_symmetry_equiv_pos_as_xyz
  x,y,z
_cell_length_a	16.109318
_cell_length_b	9.730223
_cell_length_c	16.109301
_cell_angle_alpha	89.997247
_cell_angle_beta	96.534978
_cell_angle_gamma	89.996622
loop_
_atom_site_label
_atom_site_type_symbol
_atom_site_fract_x
_atom_site_fract_y
_atom_site_fract_z
O1	O	1.103118	0.114180	-0.106932
O2	O	1.603118	0.614180	0.393068
O3	O	0.861058	0.114208	-0.120216
O4	O	1.361058	0.614208	0.379784
O5	O	0.988738	0.114179	0.007456
O6	O	1.488738	0.614179	0.507456
O7	O	0.975438	0.114209	-0.234605
O8	O	1.475438	0.614209	0.265395
O9	O	0.988736	-0.114401	0.007453
O10	O	1.488736	0.385599	0.507453
O11	O	0.861057	-0.114372	-0.120220
O12	O	1.361057	0.385628	0.379780
O13	O	1.103117	-0.114400	-0.106935
O14	O	1.603117	0.385600	0.393065
Zn15	Zn	0.982086	-0.150678	-0.113578
Zn16	Zn	1.482086	0.349322	0.386422
Zn17	Zn	0.982088	0.150486	-0.113574
Zn18	Zn	1.482088	0.650486	0.386426
O19	O	0.975437	-0.114371	-0.234608
O20	O	1.475437	0.385629	0.265392
C21	C	0.830083	-0.000078	-0.119677
C22	C	1.330083	0.499922	0.380323
C23	C	0.737788	-0.000068	-0.118057
C24	C	1.237788	0.499932	0.381943
C25	C	0.438715	0.124506	-0.112820
C26	C	0.938715	0.624506	0.387180
C27	C	0.525437	0.124515	-0.114337
C28	C	1.025437	0.624515	0.385663
C29	C	0.525454	-0.124696	-0.114329
C30	C	1.025454	0.375304	0.385671
C31	C	0.438735	-0.124703	-0.112806
C32	C	0.938735	0.375297	0.387194
C33	C	0.395367	-0.000098	-0.112056
C34	C	0.895367	0.499902	0.387944
C35	C	0.568807	-0.000082	-0.115096
C36	C	1.068807	0.499918	0.384904
C37	C	0.662835	-0.000074	-0.116742
C38	C	1.162835	0.499926	0.383258
C39	C	0.301334	-0.000106	-0.110409
C40	C	0.801334	0.499894	0.389591
N41	N	0.982091	-0.356214	-0.113580
N42	N	1.482091	0.143786	0.386420
C43	C	1.038642	-0.428153	-0.057066
C44	C	1.538642	0.071847	0.442934
C45	C	1.038640	-0.572036	-0.057056
C46	C	1.538640	-0.072036	0.442944
C47	C	0.925533	-0.572029	-0.170082
C48	C	1.425533	-0.072029	0.329918
C49	C	0.925532	-0.428148	-0.170087
C50	C	1.425532	0.071852	0.329913
C51	C	1.095201	-0.356219	-0.000559
C52	C	1.595201	0.143781	0.499441
C53	C	1.151757	-0.428158	0.055960
C54	C	1.651757	0.071842	0.555960
C55	C	1.151755	-0.572041	0.055970
C56	C	1.651755	-0.072041	0.555970
C57	C	1.095197	-0.643985	-0.000539
C58	C	1.595197	-0.143985	0.499461
C59	C	1.134092	-0.000111	-0.107474
C60	C	1.634092	0.499889	0.392526
C61	C	1.226387	-0.000112	-0.109095
C62	C	1.726387	0.499888	0.390905
C63	C	0.988198	-0.000111	0.038430
C64	C	1.488198	0.499889	0.538430
C65	C	0.986583	-0.000113	0.130725
C66	C	1.486583	0.499887	0.630725
N67	N	0.982090	0.356022	-0.113565
N68	N	1.482090	0.856022	0.386435
C69	C	0.975976	-0.000077	-0.265581
C70	C	1.475976	0.499923	0.234419
C71	C	0.977592	-0.000067	-0.357877
C72	C	1.477592	0.499933	0.142123
C73	C	1.058590	-0.000100	0.352993
C74	C	1.558590	0.499900	0.852993
C75	C	1.057066	-0.000088	0.439713
C76	C	1.557066	0.499912	0.939713
C77	C	0.905579	-0.000076	0.419848
C78	C	1.405579	0.499924	0.919848
C79	C	0.907104	-0.000077	0.333130
C80	C	1.407104	0.499923	0.833130
C81	C	0.983612	-0.000096	0.299704
C82	C	1.483612	0.499904	0.799704
C83	C	0.980563	-0.000083	0.473144
C84	C	1.480563	0.499917	0.973144
C85	C	0.978910	-0.000071	0.567170
C86	C	1.478910	0.499929	1.067170
C87	C	0.985265	-0.000106	0.205672
C88	C	1.485265	0.499894	0.705672
H89	H	1.095210	-0.239062	-0.000564
H90	H	1.595210	0.260938	0.499436
Cl91	Cl	0.809402	-0.000053	0.461875
Cl92	Cl	1.309402	0.499947	0.961875
Cl93	Cl	0.384236	-0.281361	-0.111843
Cl94	Cl	0.884236	0.218639	0.388157
H95	H	0.846043	-0.000071	0.289740
H96	H	1.346043	0.499929	0.789740
H97	H	0.560774	-0.226144	-0.114942
H98	H	1.060774	0.273856	0.385058
H99	H	1.197801	-0.369574	0.101972
H100	H	1.697801	0.130426	0.601972
H101	H	1.197800	-0.630612	0.101994
H102	H	1.697800	-0.130612	0.601994
H103	H	1.118121	-0.000088	0.483098
H104	H	1.618121	0.499912	0.983098
Cl105	Cl	1.095191	-0.824868	-0.000515
Cl106	Cl	1.595191	-0.324868	0.499485
Cl107	Cl	0.854439	-0.662472	-0.241119
Cl108	Cl	1.354439	-0.162472	0.258881
H109	H	1.120888	-0.000112	0.325781
H110	H	1.620888	0.499888	0.825781
H111	H	0.403408	0.225968	-0.112208
H112	H	0.903408	0.725968	0.387792
H113	H	0.879482	-0.369575	-0.216106
H114	H	1.379482	0.130425	0.283894
H115	H	0.560727	0.225980	-0.114958
H116	H	1.060727	0.725980	0.385042
