data_functionalizedCrystal
_audit_creation_method	'MofGen! by Chris Wilmer'
_symmetry_space_group_name_H-M	'P1'
_symmetry_Int_Tables_number	1
_symmetry_cell_setting	triclinic
loop_
_symmetry_equiv_pos_as_xyz
  x,y,z
_cell_length_a	14.044220
_cell_length_b	16.992694
_cell_length_c	16.053802
_cell_angle_alpha	92.750953
_cell_angle_beta	92.799619
_cell_angle_gamma	88.071450
loop_
_atom_site_label
_atom_site_type_symbol
_atom_site_fract_x
_atom_site_fract_y
_atom_site_fract_z
O1	O	0.198305	-1.057564	-0.069327
O2	O	0.698305	-0.557564	0.430673
O3	O	0.196087	-0.829125	-0.069352
O4	O	0.696087	-0.329125	0.430648
O5	O	0.058952	-0.939916	-0.069331
O6	O	0.558952	-0.439916	0.430669
O7	O	0.335440	-0.946774	-0.069347
O8	O	0.835440	-0.446774	0.430653
O9	O	0.066468	-0.933815	0.069526
O10	O	0.566468	-0.433815	0.569526
O11	O	0.203602	-0.823025	0.069506
O12	O	0.703602	-0.323025	0.569506
O13	O	0.205821	-1.051464	0.069531
O14	O	0.705821	-0.551464	0.569531
Zn15	Zn	0.205905	-0.936276	0.091565
Zn16	Zn	0.705905	-0.436276	0.591565
Zn17	Zn	0.196003	-0.944313	-0.091386
Zn18	Zn	0.696003	-0.444313	0.408614
O19	O	0.342955	-0.940673	0.069511
O20	O	0.842955	-0.440673	0.569511
C21	C	0.196993	-0.796663	0.000074
C22	C	0.696993	-0.296663	0.500074
C23	C	0.188484	-0.709024	0.000065
C24	C	0.688484	-0.209024	0.500065
C25	C	0.027168	-0.933863	0.000098
C26	C	0.527168	-0.433863	0.500098
C27	C	-0.078736	-0.924909	0.000098
C28	C	0.421264	-0.424909	0.500098
C29	C	0.204915	-1.083926	0.000103
C30	C	0.704915	-0.583926	0.500103
C31	C	0.213424	-1.171565	0.000107
C32	C	0.713424	-0.671565	0.500107
C33	C	-0.272638	-0.908540	0.000084
C34	C	0.227362	-0.408540	0.500084
C35	C	-0.325460	-0.972046	0.000088
C36	C	0.174540	-0.472046	0.500088
C37	C	-0.433354	-0.962938	0.000080
C38	C	0.066646	-0.462938	0.500080
C39	C	-0.164734	-0.917647	0.000091
C40	C	0.335266	-0.417647	0.500091
C41	C	0.374740	-0.946726	0.000080
C42	C	0.874740	-0.446726	0.500080
C43	C	0.480643	-0.955680	0.000074
C44	C	0.980643	-0.455680	0.500074
N45	N	0.212662	-0.930796	0.216425
N46	N	0.712662	-0.430796	0.716425
C47	C	0.270580	-0.664526	0.000061
C48	C	0.770580	-0.164526	0.500061
C49	C	0.262581	-0.582179	0.000073
C50	C	0.762581	-0.082179	0.500073
C51	C	0.172483	-0.544333	0.000083
C52	C	0.672483	-0.044333	0.500083
C53	C	0.090381	-0.588837	0.000090
C54	C	0.590381	-0.088837	0.500090
C55	C	0.098382	-0.671182	0.000084
C56	C	0.598382	-0.171182	0.500084
C57	C	0.139322	-0.298414	0.000107
C58	C	0.639322	0.201586	0.500107
C59	C	0.131327	-0.216063	0.000111
C60	C	0.631327	0.283937	0.500111
C61	C	0.303528	-0.209412	0.000096
C62	C	0.803528	0.290588	0.500096
C63	C	0.311521	-0.291759	0.000085
C64	C	0.811521	0.208241	0.500085
C65	C	0.229419	-0.336255	0.000096
C66	C	0.729419	0.163745	0.500096
N67	N	0.164304	-0.460161	0.000093
N68	N	0.664304	0.039839	0.500093
N69	N	0.237599	-0.420425	0.000092
N70	N	0.737599	0.079575	0.500092
N71	N	0.189239	-0.949799	-0.216245
N72	N	0.689239	-0.449799	0.283755
C73	C	0.154335	-0.977958	0.260127
C74	C	0.654335	-0.477958	0.760127
C75	C	0.159071	-0.974132	0.347533
C76	C	0.659071	-0.474132	0.847533
C77	C	0.222140	-0.923149	0.391235
C78	C	0.722140	-0.423149	0.891235
C79	C	0.280470	-0.875982	0.347526
C80	C	0.780470	-0.375982	0.847526
C81	C	0.275728	-0.879804	0.260122
C82	C	0.775728	-0.379804	0.760122
C83	C	0.242827	-0.906453	0.652642
C84	C	0.742827	-0.406453	1.152642
C85	C	0.247566	-0.902637	0.740052
C86	C	0.747566	-0.402637	1.240052
C87	C	0.126165	-1.000787	0.740053
C88	C	0.626165	-0.500787	1.240053
C89	C	0.121433	-1.004608	0.652647
C90	C	0.621433	-0.504608	1.152647
C91	C	0.179759	-0.957438	0.608946
C92	C	0.679759	-0.457438	1.108946
N93	N	0.226985	-0.919240	0.480578
N94	N	0.726985	-0.419240	0.980578
N95	N	0.174909	-0.961343	0.519604
N96	N	0.674909	-0.461343	1.019604
H97	H	-0.308444	-0.847335	0.000075
H98	H	0.191556	-0.347335	0.500075
O99	O	0.059609	-0.341662	0.000255
O100	O	0.559609	0.158338	0.500255
C101	C	0.062982	-0.386360	0.072157
C102	C	0.562982	0.113640	0.572157
H103	H	0.112146	-0.357456	0.122424
H104	H	0.612146	0.142544	0.622424
H105	H	-0.011773	-0.389182	0.096296
H106	H	0.488227	0.110818	0.596296
H107	H	0.091297	-0.448586	0.055893
H108	H	0.591297	0.051414	0.555893
H109	H	0.102981	-1.019477	0.224551
H110	H	0.602981	-0.519477	0.724551
H111	H	0.343947	-0.695334	0.000052
H112	H	0.843947	-0.195334	0.500052
H113	H	-0.289655	-1.033258	0.000039
H114	H	0.210345	-0.533258	0.500039
O115	O	0.342424	-0.539074	0.000031
O116	O	0.842424	-0.039074	0.500031
C117	C	0.423662	-0.590136	0.000037
C118	C	0.923662	-0.090136	0.500037
H119	H	0.402698	-0.650959	-0.026257
H120	H	0.902698	-0.150959	0.473743
H121	H	0.479384	-0.565779	-0.040280
H122	H	0.979384	-0.065779	0.459720
H123	H	0.454596	-0.594958	0.066650
H124	H	0.954596	-0.094958	0.566650
H125	H	0.070077	-1.046122	0.617066
H126	H	0.570077	-0.546122	1.117066
H127	H	0.384887	-0.322568	0.000067
H128	H	0.884887	0.177432	0.500067
O129	O	0.383183	-0.166067	0.000129
O130	O	0.883183	0.333933	0.500129
C131	C	0.356806	-0.085272	0.000115
C132	C	0.856806	0.414728	0.500115
H133	H	0.283141	-0.075733	0.026408
H134	H	0.783141	0.424267	0.526408
H135	H	0.410935	-0.050088	0.040430
H136	H	0.910935	0.449912	0.540430
H137	H	0.355013	-0.064663	-0.066500
H138	H	0.855013	0.435337	0.433500
O139	O	0.043730	-0.179421	0.000157
O140	O	0.543730	0.320579	0.500157
C141	C	-0.027023	-0.236353	0.000143
C142	C	0.472977	0.263647	0.500143
H143	H	0.005339	-0.292924	0.026432
H144	H	0.505339	0.207076	0.526432
H145	H	-0.087367	-0.213116	0.040460
H146	H	0.412633	0.286884	0.540460
H147	H	-0.056252	-0.249054	-0.066472
H148	H	0.443748	0.250946	0.433528
O149	O	0.002930	-0.551951	0.000064
O150	O	0.502930	-0.051951	0.500064
C151	C	0.013471	-0.469728	0.000087
C152	C	0.513471	0.030272	0.500087
H153	H	0.084949	-0.456772	-0.026207
H154	H	0.584949	0.043228	0.473793
H155	H	-0.046740	-0.442325	-0.040221
H156	H	0.453260	0.057675	0.459779
H157	H	0.010727	-0.443600	0.066705
H158	H	0.510727	0.056400	0.566705
O159	O	0.102386	-1.020034	0.389856
O160	O	0.602386	-0.520034	0.889856
C161	C	0.045696	-1.065846	0.332541
C162	C	0.545696	-0.565846	0.832541
H163	H	0.081452	-1.072181	0.270229
H164	H	0.581452	-0.572181	0.770229
H165	H	0.037359	-1.126682	0.357785
H166	H	0.537359	-0.626682	0.857785
H167	H	-0.027564	-1.035723	0.323264
H168	H	0.472436	-0.535723	0.823264
H169	H	0.298929	-0.861118	0.775630
H170	H	0.798929	-0.361118	1.275630
H171	H	0.290320	-0.868047	0.617067
H172	H	0.790320	-0.368047	1.117067
O173	O	0.018534	-0.714293	0.000046
O174	O	0.518534	-0.214293	0.500046
C175	C	-0.062704	-0.663232	0.000075
C176	C	0.437296	-0.163232	0.500075
H177	H	-0.044590	-0.604709	-0.026211
H178	H	0.455410	-0.104709	0.473789
H179	H	-0.122791	-0.691118	-0.040237
H180	H	0.377209	-0.191118	0.459763
H181	H	-0.086422	-0.652582	0.066694
H182	H	0.413578	-0.152582	0.566694
H183	H	0.078678	-1.039190	0.775642
H184	H	0.578678	-0.539190	1.275642
H185	H	0.331819	-0.834466	0.383114
H186	H	0.831819	-0.334466	0.883114
H187	H	0.323224	-0.841398	0.224540
H188	H	0.823224	-0.341398	0.724540
