data_functionalizedCrystal
_audit_creation_method	'MofGen! by Chris Wilmer'
_symmetry_space_group_name_H-M	'P1'
_symmetry_Int_Tables_number	1
_symmetry_cell_setting	triclinic
loop_
_symmetry_equiv_pos_as_xyz
  x,y,z
_cell_length_a	13.032831
_cell_length_b	18.101395
_cell_length_c	13.032268
_cell_angle_alpha	97.146252
_cell_angle_beta	90.886977
_cell_angle_gamma	82.835691
loop_
_atom_site_label
_atom_site_type_symbol
_atom_site_fract_x
_atom_site_fract_y
_atom_site_fract_z
Zn1	Zn	1.498320	-0.500117	-0.780796
Zn2	Zn	1.520028	-0.610451	-0.608808
Zn3	Zn	1.348189	-0.469181	-0.587040
Zn4	Zn	1.326277	-0.606447	-0.758934
O5	O	1.423203	-0.546549	-0.683894
O6	O	1.645116	-0.529375	-0.776242
O7	O	1.515487	-0.580440	-0.462005
O8	O	1.368189	-0.369663	-0.612782
O9	O	1.661064	-0.610437	-0.649882
O10	O	1.478491	-0.392391	-0.755134
O11	O	1.389238	-0.476650	-0.446012
O12	O	1.201366	-0.472767	-0.591582
O13	O	1.330844	-0.603613	-0.905750
O14	O	1.185268	-0.573616	-0.717872
O15	O	1.457244	-0.525493	-0.921812
O16	O	1.494241	-0.713541	-0.628683
O17	O	1.351893	-0.710600	-0.738979
C18	C	1.156001	-0.519401	-0.649993
C19	C	1.041687	-0.507806	-0.635514
C20	C	0.982797	-0.552600	-0.691451
C21	C	0.864648	-0.540618	-0.676488
C22	C	1.423070	-0.738943	-0.683847
C23	C	1.423102	-0.821262	-0.683873
C24	C	1.423321	-1.120381	-0.683957
C25	C	1.333919	-1.087270	-0.753573
C26	C	1.333573	-1.001594	-0.753276
C27	C	1.423212	-0.971985	-0.683916
C28	C	1.407642	-0.991648	-0.571811
C29	C	1.407070	-1.077279	-0.572223
C30	C	1.528588	-1.101951	-0.725513
C31	C	1.527646	-1.016421	-0.727809
C32	C	1.423153	-0.888117	-0.683886
C33	C	1.423378	-1.204247	-0.683979
C34	C	1.691449	-0.573804	-0.717929
C35	C	1.805759	-0.585418	-0.732432
C36	C	1.389178	-0.567557	-0.952140
C37	C	1.374679	-0.576509	-1.066450
C38	C	1.423363	-0.353408	-0.683968
C39	C	1.423431	-0.271103	-0.684000
C40	C	1.430755	-0.541848	-1.125361
C41	C	1.415770	-0.551100	-1.243507
C42	C	1.457155	-0.525575	-0.416700
C43	C	1.471854	-0.516434	-0.302416
H44	H	1.004636	-0.460583	-0.576551
H45	H	1.356658	-0.587621	-1.280533
O46	O	1.343325	-0.986080	-0.851860
C47	C	1.342981	-0.908139	-0.851637
H48	H	1.367738	-0.882323	-0.772261
H49	H	1.261775	-0.881622	-0.869716
C50	C	1.388451	-0.925400	-1.031688
C51	C	1.418867	-0.893694	-0.934199
H52	H	1.435258	-0.916488	-1.082619
H53	H	1.388679	-0.977910	-1.031840
H54	H	1.320779	-0.903299	-1.046739
H55	H	1.486533	-0.915801	-0.919145
H56	H	1.418653	-0.841186	-0.934047
H57	H	1.595027	-1.123643	-0.674977
O58	O	1.501139	-0.498217	-1.081060
C59	C	1.450450	-0.439598	-1.011526
H60	H	1.374500	-0.456549	-0.985643
H61	H	1.433998	-0.386788	-1.051450
C62	C	1.613184	-0.403188	-0.948395
C63	C	1.519905	-0.424010	-0.916598
H64	H	1.656028	-0.393569	-0.889840
H65	H	1.647335	-0.442678	-0.995244
H66	H	1.599460	-0.359181	-0.981666
H67	H	1.533630	-0.468021	-0.883340
H68	H	1.485759	-0.384527	-0.869741
H69	H	1.530954	-0.479903	-1.265390
H70	H	1.315571	-0.613028	-1.103481
H71	H	1.019848	-0.599818	-0.750422
O72	O	0.820300	-0.484342	-0.606136
C73	C	0.712207	-0.484903	-0.606862
H74	H	0.693361	-0.543248	-0.638586
H75	H	0.674788	-0.442260	-0.657891
C76	C	0.693283	-0.392646	-0.456903
C77	C	0.670137	-0.464308	-0.495859
H78	H	0.667330	-0.379938	-0.388432
H79	H	0.766107	-0.392265	-0.456415
H80	H	0.662099	-0.357119	-0.499437
H81	H	0.701331	-0.499834	-0.453333
H82	H	0.597317	-0.464693	-0.496337
O83	O	0.850049	-0.641669	-0.802855
C84	C	0.903765	-0.611048	-0.877217
H85	H	0.924364	-0.553669	-0.843094
H86	H	0.852772	-0.604805	-0.948251
C87	C	0.978202	-0.734021	-0.950493
C88	C	1.003509	-0.663548	-0.908580
H89	H	1.039726	-0.766406	-0.969844
H90	H	0.942009	-0.754651	-0.900397
H91	H	0.935705	-0.728807	-1.009683
H92	H	1.045993	-0.668761	-0.849384
H93	H	1.039711	-0.642920	-0.958667
O94	O	1.343492	-1.121636	-0.852452
C95	C	1.431229	-1.176122	-0.860188
H96	H	1.450881	-1.194043	-0.780666
H97	H	1.499476	-1.151433	-0.890405
C98	C	1.384196	-1.222770	-1.032912
C99	C	1.408327	-1.244786	-0.935243
H100	H	1.370072	-1.265124	-1.079213
H101	H	1.325087	-1.186060	-1.027702
H102	H	1.441073	-1.202195	-1.058079
H103	H	1.351446	-1.265351	-0.910072
H104	H	1.467425	-1.281501	-0.940450
H105	H	1.596674	-0.997101	-0.681897
O106	O	1.241128	-1.101638	-0.719627
C107	C	1.256655	-1.141530	-0.633263
H108	H	1.333475	-1.130667	-0.594949
H109	H	1.257975	-1.204124	-0.659461
C110	C	1.073706	-1.128570	-0.602343
C111	C	1.168055	-1.115222	-0.555281
H112	H	1.019052	-1.112346	-0.554242
H113	H	1.063244	-1.101696	-0.660531
H114	H	1.074821	-1.180732	-0.624174
H115	H	1.166943	-1.063061	-0.533464
H116	H	1.178514	-1.142087	-0.497088
H117	H	1.330530	-1.087401	-0.538622
O118	O	1.240250	-0.965638	-0.719020
C119	C	1.254386	-0.915823	-0.629253
H120	H	1.336726	-0.900602	-0.627649
H121	H	1.240588	-0.943832	-0.557885
C122	C	1.076109	-0.862830	-0.631742
C123	C	1.177237	-0.844130	-0.629776
H124	H	1.028517	-0.818607	-0.632060
H125	H	1.066583	-0.896393	-0.692217
H126	H	1.064624	-0.886172	-0.572267
H127	H	1.188724	-0.820797	-0.689256
H128	H	1.186763	-0.810561	-0.569310
O129	O	1.482156	-1.103031	-0.507296
C130	C	1.437023	-1.135084	-0.428544
H131	H	1.359346	-1.152836	-0.456267
H132	H	1.424835	-1.092080	-0.356726
C133	C	1.604519	-1.182407	-0.368038
C134	C	1.509119	-1.204216	-0.402091
H135	H	1.648992	-1.225048	-0.351716
H136	H	1.634927	-1.160810	-0.421092
H137	H	1.594348	-1.146569	-0.308193
H138	H	1.519290	-1.240045	-0.461942
H139	H	1.478715	-1.225821	-0.349047
H140	H	1.331997	-0.960395	-0.537896
O141	O	1.483573	-0.968518	-0.507399
C142	C	1.467232	-0.987041	-0.407495
H143	H	1.418279	-1.035369	-0.413075
H144	H	1.425299	-0.936168	-0.358044
C145	C	1.632278	-0.951352	-0.350773
C146	C	1.572161	-1.010715	-0.357628
H147	H	1.697002	-0.965952	-0.320010
H148	H	1.643286	-0.938870	-0.418079
H149	H	1.597322	-0.908964	-0.309566
H150	H	1.607111	-1.053098	-0.398844
H151	H	1.561161	-1.023204	-0.290327
O152	O	1.548912	-1.138140	-0.822225
C153	C	1.643666	-1.120407	-0.857156
H154	H	1.692820	-1.101816	-0.787854
H155	H	1.628250	-1.073063	-0.907579
C156	C	1.641227	-1.212939	-1.005933
C157	C	1.701602	-1.190111	-0.920815
H158	H	1.676963	-1.255934	-1.045205
H159	H	1.577387	-1.224884	-0.982402
H160	H	1.628384	-1.173479	-1.047940
H161	H	1.714433	-1.229567	-0.878803
H162	H	1.765446	-1.178174	-0.944340
O163	O	1.542148	-1.002292	-0.826285
C164	C	1.634494	-0.969824	-0.831625
H165	H	1.687700	-0.985450	-0.765375
H166	H	1.615850	-0.906192	-0.825286
C167	C	1.623332	-0.980015	-1.016883
C168	C	1.688684	-0.999212	-0.935519
H169	H	1.656758	-0.998140	-1.080970
H170	H	1.561115	-1.001887	-1.013286
H171	H	1.607801	-0.926989	-1.011587
H172	H	1.704204	-1.052237	-0.940808
H173	H	1.750905	-0.977350	-0.939119
