data_functionalizedCrystal
_audit_creation_method	'MofGen! by Chris Wilmer'
_symmetry_space_group_name_H-M	'P1'
_symmetry_Int_Tables_number	1
_symmetry_cell_setting	triclinic
loop_
_symmetry_equiv_pos_as_xyz
  x,y,z
_cell_length_a	14.044202
_cell_length_b	14.044202
_cell_length_c	13.101050
_cell_angle_alpha	86.338627
_cell_angle_beta	93.662580
_cell_angle_gamma	93.192702
loop_
_atom_site_label
_atom_site_type_symbol
_atom_site_fract_x
_atom_site_fract_y
_atom_site_fract_z
O1	O	-1.281985	-0.225386	-0.085196
O2	O	-0.781985	0.274614	0.414804
O3	O	-1.005313	-0.217070	-0.085208
O4	O	-0.505313	0.282930	0.414792
O5	O	-1.139490	-0.082894	-0.085174
O6	O	-0.639490	0.417106	0.414826
O7	O	-1.147808	-0.359563	-0.085230
O8	O	-0.647808	0.140437	0.414770
O9	O	-1.129864	-0.092540	0.085253
O10	O	-0.629864	0.407460	0.585253
O11	O	-0.995687	-0.226717	0.085219
O12	O	-0.495687	0.273283	0.585219
O13	O	-1.272359	-0.235032	0.085231
O14	O	-0.772359	0.264968	0.585231
Zn15	Zn	-1.132495	-0.232406	0.112284
Zn16	Zn	-0.632495	0.267594	0.612284
Zn17	Zn	-1.145178	-0.219697	-0.112261
Zn18	Zn	-0.645178	0.280303	0.387739
O19	O	-1.138182	-0.369209	0.085198
O20	O	-0.638182	0.130791	0.585198
C21	C	-0.964878	-0.218257	0.000004
C22	C	-0.464878	0.281743	0.500004
C23	C	-0.858735	-0.207408	0.000001
C24	C	-0.358735	0.292592	0.500001
C25	C	-0.613279	-0.264507	-0.000001
C26	C	-0.113279	0.235493	0.499999
C27	C	-0.664401	-0.187591	0.000013
C28	C	-0.164401	0.312409	0.500013
C29	C	-0.772538	-0.198620	0.000006
C30	C	-0.272538	0.301380	0.500006
C31	C	-0.505131	-0.253480	0.000006
C32	C	-0.005131	0.246520	0.500006
C33	C	-1.131040	-0.052095	0.000044
C34	C	-0.631040	0.447905	0.500044
C35	C	-1.120191	0.054048	0.000058
C36	C	-0.620191	0.554048	0.500058
C37	C	-1.177291	0.299506	0.000035
C38	C	-0.677291	0.799506	0.500035
C39	C	-1.100375	0.248383	0.000035
C40	C	-0.600375	0.748383	0.500035
C41	C	-1.111403	0.140245	0.000048
C42	C	-0.611403	0.640245	0.500048
C43	C	-1.166264	0.407653	0.000022
C44	C	-0.666264	0.907653	0.500022
C45	C	-0.312794	-0.233844	0.000016
C46	C	0.187206	0.266156	0.500016
C47	C	-0.418938	-0.244686	0.000011
C48	C	0.081062	0.255314	0.500011
C49	C	-1.146630	0.599991	-0.000009
C50	C	-0.646630	1.099991	0.499991
C51	C	-1.157471	0.493847	0.000011
C52	C	-0.657471	0.993847	0.500011
N53	N	-1.123846	-0.241079	0.265531
N54	N	-0.623846	0.258921	0.765531
C55	C	-1.112080	-0.252889	0.474570
C56	C	-0.612080	0.247111	0.974570
C57	C	-1.165594	-0.199219	0.525459
C58	C	-0.665594	0.300781	1.025459
C59	C	-1.159047	-0.205790	0.641776
C60	C	-0.659047	0.294210	1.141776
C61	C	-1.118626	-0.246319	0.358243
C62	C	-0.618626	0.253681	0.858243
N63	N	-1.153831	-0.211026	0.734493
N64	N	-0.653831	0.288974	1.234493
H65	H	-0.626958	-0.113455	-0.000044
H66	H	-0.126958	0.386545	0.499956
H67	H	-0.650723	-0.338633	-0.000018
H68	H	-0.150723	0.161367	0.499982
O69	O	-1.275482	0.249908	0.000049
O70	O	-0.775482	0.749908	0.500049
H71	H	-1.330133	0.304037	0.000041
H72	H	-0.830133	0.804037	0.500041
O73	O	-1.002175	0.297979	0.000042
O74	O	-0.502175	0.797979	0.500042
H75	H	-0.966765	0.280898	-0.069419
H76	H	-0.466765	0.780898	0.430581
O77	O	-1.044897	-0.320304	0.532560
O78	O	-0.544897	0.179696	1.032560
H79	H	-0.992319	-0.278976	0.581466
H80	H	-0.492319	0.221024	1.081466
H81	H	-1.216326	-0.148337	0.481670
H82	H	-0.716326	0.351663	0.981670
