data_functionalizedCrystal
_audit_creation_method	'MofGen! by Chris Wilmer'
_symmetry_space_group_name_H-M	'P1'
_symmetry_Int_Tables_number	1
_symmetry_cell_setting	triclinic
loop_
_symmetry_equiv_pos_as_xyz
  x,y,z
_cell_length_a	18.426585
_cell_length_b	14.628931
_cell_length_c	14.628931
_cell_angle_alpha	60.000193
_cell_angle_beta	89.999756
_cell_angle_gamma	60.001164
loop_
_atom_site_label
_atom_site_type_symbol
_atom_site_fract_x
_atom_site_fract_y
_atom_site_fract_z
Zr1	Zr	0.699110	1.000615	-0.119982
O2	O	0.583233	1.191314	-0.265938
O3	O	0.734632	0.809912	-0.075238
O4	O	0.734632	1.000617	-0.265943
O5	O	0.583233	1.000610	0.075199
O6	O	0.854058	1.000623	-0.265947
O7	O	0.583233	1.000609	-0.075233
O8	O	0.854058	0.659487	0.075189
O9	O	0.583233	1.341746	-0.265938
O10	O	0.838908	0.888357	-0.056158
O11	O	0.749782	0.888353	0.056110
O12	O	0.749782	1.112884	-0.168421
O13	O	0.660655	1.112879	-0.056152
Zr14	Zr	0.889580	1.000626	0.119934
Zr15	Zr	0.889580	1.000626	-0.119988
Zr16	Zr	0.699109	1.000616	0.119940
Zr17	Zr	0.699109	1.240537	-0.119981
Zr18	Zr	0.889580	0.760705	0.119933
O19	O	0.854057	1.191330	0.075190
O20	O	0.854058	1.191329	-0.265947
O21	O	0.583233	1.191315	0.075199
O22	O	1.005456	0.809927	0.265890
O23	O	1.005457	0.809926	-0.075247
O24	O	0.734632	0.809913	0.265899
O25	O	1.005456	1.000632	-0.075247
O26	O	0.854057	1.000625	0.265895
O27	O	0.734632	1.000618	0.265899
O28	O	1.005456	1.000632	0.075185
O29	O	0.734632	1.341754	-0.265943
O30	O	0.854058	0.659487	0.265895
O31	O	1.005456	0.659495	0.265890
O32	O	1.005457	0.659495	0.075185
O33	O	0.583233	1.341747	-0.075233
O34	O	0.734632	1.341755	-0.075237
O35	O	0.838908	0.888358	0.168373
O36	O	0.928034	0.888363	0.056104
O37	O	0.838908	1.112889	-0.056158
O38	O	0.749782	1.112884	0.056110
C39	C	0.794345	0.700516	-0.000024
C40	C	0.794345	0.598663	-0.000025
C41	C	0.556095	1.000608	-0.000016
C42	C	0.475236	1.000604	-0.000014
C43	C	0.838557	0.447990	-0.055716
C44	C	0.838558	0.553261	-0.055717
C45	C	0.179121	1.000643	-0.000033
C46	C	0.261507	1.000637	-0.000031
C47	C	0.327175	1.000623	-0.000025
C48	C	0.409567	1.000618	-0.000020
C49	C	1.032594	1.000634	-0.000032
C50	C	1.113454	1.000638	-0.000034
C51	C	0.794345	1.000620	-0.300129
C52	C	0.794345	1.000620	-0.401982
C53	C	0.794344	1.300726	-0.000024
C54	C	0.794344	1.402579	-0.000023
C55	C	0.750133	1.112000	-0.503080
C56	C	0.750132	1.112002	-0.608352
C57	C	0.794344	1.000622	0.300081
C58	C	0.794344	1.000622	0.401934
C59	C	1.032595	0.700528	-0.000032
C60	C	1.113455	0.598680	-0.000035
C61	C	0.794345	0.700516	0.300080
C62	C	0.794345	0.598664	0.401933
C63	C	1.032594	0.700529	0.300073
C64	C	1.113454	0.598681	0.401923
C65	C	0.556095	1.300713	-0.300121
C66	C	0.475236	1.402561	-0.401971
C67	C	0.556095	1.300713	-0.000016
C68	C	0.475235	1.402562	-0.000013
C69	C	0.794345	1.300725	-0.300128
C70	C	0.794345	1.402578	-0.401981
C71	C	1.104904	0.550848	-0.058646
C72	C	1.180873	0.455163	-0.058671
C73	C	1.265392	0.407306	-0.000078
C74	C	1.273940	0.455147	0.058535
C75	C	1.197972	0.550837	0.058553
C76	C	1.197958	0.550854	0.391150
C77	C	1.273941	0.455170	0.486840
C78	C	1.265419	0.407308	0.593301
C79	C	1.180907	0.455144	0.604072
C80	C	1.104925	0.550833	0.508383
C81	C	0.390732	1.450399	-0.391198
C82	C	0.314748	1.546113	-0.486888
C83	C	0.323270	1.593980	-0.593349
C84	C	0.407783	1.546138	-0.604120
C85	C	0.483764	1.450432	-0.508431
C86	C	0.483785	1.450404	0.058588
C87	C	0.407816	1.546115	0.058587
C88	C	0.323298	1.593975	-0.000010
C89	C	0.314749	1.546130	-0.058619
C90	C	0.390717	1.450427	-0.058623
C91	C	0.838557	0.553257	0.503032
C92	C	0.838558	0.447987	0.608303
H93	H	0.876405	0.408941	-0.103402
H94	H	0.261447	1.671902	0.000003
C95	C	0.576717	1.397805	-0.520301
N96	N	0.646728	1.358169	-0.529249
H97	H	0.756490	0.559608	0.393314
C98	C	1.171450	0.402544	-0.123141
N99	N	1.164350	0.362911	-0.171697
C100	C	0.743207	0.455337	0.064393
N101	N	0.704691	0.495072	0.112915
H102	H	0.261394	1.671909	-0.671256
H103	H	1.036121	0.589761	0.517171
C104	C	0.381336	1.397772	-0.274098
N105	N	0.374252	1.358146	-0.185901
H106	H	0.712274	1.207358	-0.695081
C107	C	1.207393	0.603429	0.123047
N108	N	1.214495	0.643035	0.171629
C109	C	1.011941	0.603480	-0.123115
N110	N	0.941922	0.643123	-0.171684
C111	C	1.366920	0.402481	0.122993
N112	N	1.436954	0.362802	0.171550
C113	C	0.845533	0.871789	-0.480903
N114	N	0.884108	0.774752	-0.392649
H115	H	0.383743	1.411477	-0.106340
C116	C	1.366896	0.402556	0.474966
N117	N	1.436908	0.362927	0.466020
C118	C	0.221770	1.598773	-0.123053
N119	N	0.151736	1.638416	-0.171574
H120	H	0.876405	0.592322	0.511651
C121	C	1.349011	0.302038	0.698552
N122	N	1.411975	0.222743	0.777822
H123	H	1.204913	0.589809	0.304472
C124	C	1.348951	0.302036	-0.000100
N125	N	1.411885	0.222742	-0.000116
H126	H	0.414794	1.585055	0.106317
C127	C	0.417142	1.598794	-0.721239
N128	N	0.424189	1.638449	-0.809456
H129	H	0.552598	1.411443	0.106312
H130	H	0.876414	0.592308	-0.103393
C131	C	0.889698	0.395236	0.725470
N132	N	0.928217	0.355502	0.813724
H133	H	0.832199	0.905265	-0.393363
C134	C	0.221793	1.598720	-0.475014
N135	N	0.151782	1.638340	-0.466068
C136	C	0.743220	0.455307	0.480854
N137	N	0.704715	0.495023	0.392600
H138	H	1.173981	0.416161	0.690766
H139	H	0.712285	1.207354	-0.511699
H140	H	0.756493	0.559613	0.047661
