data_functionalizedCrystal
_audit_creation_method	'MofGen! by Chris Wilmer'
_symmetry_space_group_name_H-M	'P1'
_symmetry_Int_Tables_number	1
_symmetry_cell_setting	triclinic
loop_
_symmetry_equiv_pos_as_xyz
  x,y,z
_cell_length_a	18.050591
_cell_length_b	18.050589
_cell_length_c	18.050583
_cell_angle_alpha	89.968291
_cell_angle_beta	90.020859
_cell_angle_gamma	89.968854
loop_
_atom_site_label
_atom_site_type_symbol
_atom_site_fract_x
_atom_site_fract_y
_atom_site_fract_z
Zn1	Zn	1.135267	0.295677	0.420032
Zn2	Zn	1.468601	0.629010	0.753365
Zn3	Zn	1.801934	0.962343	1.086699
Zn4	Zn	1.135161	0.419890	0.295852
Zn5	Zn	1.468495	0.753223	0.629185
Zn6	Zn	1.801828	1.086556	0.962518
Zn7	Zn	1.011084	0.295710	0.295846
Zn8	Zn	1.344417	0.629044	0.629179
Zn9	Zn	1.677751	0.962377	0.962512
Zn10	Zn	1.011020	0.419822	0.419990
Zn11	Zn	1.344354	0.753155	0.753323
Zn12	Zn	1.677687	1.086488	1.086657
O13	O	1.073133	0.357774	0.357930
O14	O	1.406467	0.691108	0.691263
O15	O	1.739800	1.024441	1.024596
O16	O	1.239178	0.312168	0.403579
O17	O	1.572511	0.645501	0.736913
O18	O	1.905844	0.978835	1.070246
O19	O	1.118685	0.403459	0.191926
O20	O	1.452018	0.736793	0.525260
O21	O	1.785351	1.070126	0.858593
O22	O	1.027628	0.191781	0.312334
O23	O	1.360961	0.525114	0.645668
O24	O	1.694295	0.858448	0.979001
O25	O	1.239100	0.403427	0.312345
O26	O	1.572433	0.736760	0.645678
O27	O	1.905767	1.070093	0.979011
O28	O	1.118865	0.191756	0.403573
O29	O	1.452198	0.525090	0.736907
O30	O	1.785532	0.858423	1.070240
O31	O	1.027526	0.312225	0.191922
O32	O	1.360859	0.645559	0.525255
O33	O	1.694192	0.978892	0.858588
O34	O	0.907151	0.312159	0.312293
O35	O	1.240484	0.645493	0.645627
O36	O	1.573818	0.978826	0.978960
O37	O	1.027520	0.403311	0.523920
O38	O	1.360853	0.736644	0.857253
O39	O	1.694186	1.069978	1.190587
O40	O	0.907104	0.403344	0.403502
O41	O	1.240438	0.736677	0.736835
O42	O	1.573771	1.070010	1.070168
O43	O	1.118803	0.312102	0.523951
O44	O	1.452137	0.645435	0.857284
O45	O	1.785470	0.978769	1.190618
O46	O	1.118623	0.523805	0.312304
O47	O	1.451956	0.857138	0.645637
O48	O	1.785290	1.190472	0.978971
O49	O	1.027417	0.523755	0.403508
O50	O	1.360750	0.857089	0.736841
O51	O	1.694084	1.190422	1.070174
C52	C	0.880181	0.357748	0.357893
C53	C	1.213514	0.691082	0.691226
C54	C	1.546848	1.024415	1.024559
C55	C	0.797635	0.357755	0.357894
C56	C	1.130969	0.691088	0.691228
C57	C	1.464302	1.024422	1.024561
C58	C	0.548814	0.308118	0.308413
C59	C	0.882147	0.641451	0.641746
C60	C	1.215480	0.974784	0.975079
C61	C	0.598249	0.290020	0.376187
C62	C	0.931582	0.623354	0.709521
C63	C	1.264916	0.956687	1.042854
C64	C	0.500515	0.357793	0.357955
C65	C	0.833848	0.691126	0.691289
C66	C	1.167182	1.024460	1.024622
C67	C	0.598161	0.375836	0.290154
C68	C	0.931495	0.709170	0.623488
C69	C	1.264828	1.042503	0.956821
C70	C	0.646500	0.357772	0.357922
C71	C	0.979833	0.691106	0.691255
C72	C	1.313167	1.024439	1.024588
C73	C	0.548863	0.339661	0.425766
C74	C	0.882196	0.672994	0.759099
C75	C	1.215530	1.006327	1.092433
C76	C	0.548771	0.425508	0.339687
C77	C	0.882104	0.758842	0.673021
C78	C	1.215438	1.092175	1.006354
C79	C	0.598184	0.407437	0.407509
C80	C	0.931517	0.740770	0.740842
C81	C	1.264851	1.074103	1.074175
C82	C	0.416417	0.357803	0.357973
C83	C	0.749750	0.691136	0.691307
C84	C	1.083083	1.024470	1.024640
C85	C	0.730597	0.357763	0.357911
C86	C	1.063930	0.691096	0.691244
C87	C	1.397263	1.024429	1.024578
C88	C	1.073022	0.550727	0.357918
C89	C	1.406355	0.884060	0.691251
C90	C	1.739688	1.217393	1.024585
C91	C	1.073042	0.633272	0.357938
C92	C	1.406375	0.966606	0.691271
C93	C	1.739709	1.299939	1.024605
C94	C	1.023470	0.832723	0.407518
C95	C	1.356804	1.166056	0.740851
C96	C	1.690137	1.499389	1.074185
C97	C	1.005366	0.882172	0.339749
C98	C	1.338699	1.215505	0.673083
C99	C	1.672032	1.548839	1.006416
C100	C	1.073098	0.784403	0.357948
C101	C	1.406431	1.117736	0.691282
C102	C	1.739765	1.451069	1.024615
C103	C	1.091222	0.882035	0.425725
C104	C	1.424556	1.215369	0.759059
C105	C	1.757889	1.548702	1.092392
C106	C	1.073150	0.930388	0.357964
C107	C	1.406484	1.263721	0.691297
C108	C	1.739817	1.597054	1.024631
C109	C	1.054958	0.832765	0.290144
C110	C	1.388291	1.166098	0.623477
C111	C	1.721624	1.499431	0.956810
C112	C	1.140846	0.832624	0.376165
C113	C	1.474179	1.165957	0.709499
C114	C	1.807513	1.499290	1.042832
C115	C	1.122767	0.882050	0.308350
C116	C	1.456100	1.215384	0.641683
C117	C	1.789434	1.548717	0.975017
C118	C	1.073066	0.700304	0.357940
C119	C	1.406399	1.033638	0.691273
C120	C	1.739732	1.366971	1.024607
C121	C	1.073183	1.014484	0.357965
C122	C	1.406516	1.347818	0.691298
C123	C	1.739849	1.681151	1.024631
C124	C	1.266839	0.357801	0.357968
C125	C	1.600172	0.691135	0.691301
C126	C	1.933505	1.024468	1.024634
C127	C	1.349385	0.357813	0.357984
C128	C	1.682718	0.691146	0.691317
C129	C	2.016051	1.024479	1.024650
C130	C	1.073166	0.357695	0.551636
C131	C	1.406499	0.691029	0.884969
C132	C	1.739833	1.024362	1.218302
C133	C	1.073180	0.357661	0.634181
C134	C	1.406513	0.690995	0.967515
C135	C	1.739847	1.024328	1.300848
C136	C	1.073237	1.164069	0.357959
C137	C	1.406570	1.497402	0.691292
C138	C	1.739904	1.830735	1.024625
C139	C	1.073209	1.081523	0.357973
C140	C	1.406542	1.414856	0.691307
C141	C	1.739875	1.748190	1.024640
C142	C	1.073143	0.357800	0.164978
C143	C	1.406477	0.691133	0.498311
C144	C	1.739810	1.024466	0.831644
C145	C	1.073273	0.357624	0.082432
C146	C	1.406607	0.690958	0.415766
C147	C	1.739940	1.024291	0.749099
C148	C	1.122870	0.308038	0.833649
C149	C	1.456203	0.641371	1.166982
C150	C	1.789536	0.974705	1.500316
C151	C	1.055138	0.289858	0.883037
C152	C	1.388472	0.623191	1.216370
C153	C	1.721805	0.956524	1.549703
C154	C	1.073210	0.357649	0.785312
C155	C	1.406543	0.690982	1.118645
C156	C	1.739877	1.024315	1.451978
C157	C	1.140969	0.375782	0.883006
C158	C	1.474302	0.709115	1.216339
C159	C	1.807635	1.042449	1.549673
C160	C	1.073245	0.357635	0.931297
C161	C	1.406578	0.690968	1.264630
C162	C	1.739911	1.024302	1.597964
C163	C	1.005442	0.339433	0.833612
C164	C	1.338776	0.672767	1.166946
C165	C	1.672109	1.006100	1.500279
C166	C	1.091318	0.425389	0.833577
C167	C	1.424652	0.758722	1.166911
C168	C	1.757985	1.092056	1.500244
C169	C	1.023540	0.407234	0.882943
C170	C	1.356874	0.740568	1.216276
C171	C	1.690207	1.073901	1.549609
C172	C	1.073191	0.357655	0.701213
C173	C	1.406524	0.690988	1.034547
C174	C	1.739857	1.024321	1.367880
C175	C	1.073256	0.357629	1.015394
C176	C	1.406589	0.690962	1.348727
C177	C	1.739923	1.024296	1.682060
H178	H	0.527023	0.482766	0.324226
H179	H	0.860356	0.816099	0.657559
H180	H	1.193689	1.149433	0.990892
H181	H	0.527138	0.266086	0.266582
H182	H	0.860471	0.599419	0.599915
H183	H	1.193804	0.932753	0.933249
H184	H	0.619818	0.391106	0.232830
H185	H	0.953152	0.724439	0.566164
H186	H	1.286485	1.057773	0.899497
H187	H	0.981448	0.811063	0.449378
H188	H	1.314781	1.144397	0.782711
H189	H	1.648114	1.477730	1.116044
H190	H	0.981511	0.449183	0.904450
H191	H	1.314844	0.782516	1.237784
H192	H	1.648178	1.115849	1.571117
H193	H	1.164758	0.903573	0.266389
H194	H	1.498091	1.236906	0.599722
H195	H	1.831424	1.570239	0.933055
H196	H	0.948099	0.903952	0.324355
H197	H	1.281432	1.237285	0.657689
H198	H	1.614765	1.570619	0.991022
H199	H	1.106645	0.482665	0.811837
H200	H	1.439978	0.815999	1.145171
H201	H	1.773311	1.149332	1.478504
H202	H	0.948138	0.324024	0.812007
H203	H	1.281471	0.657357	1.145340
H204	H	1.614804	0.990690	1.478673
H205	H	1.198100	0.810845	0.391592
H206	H	1.531433	1.144179	0.724925
H207	H	1.864767	1.477512	1.058258
H208	H	0.619968	0.232744	0.391638
H209	H	0.953302	0.566077	0.724971
H210	H	1.286635	0.899410	1.058305
H211	H	0.527298	0.324324	0.483107
H212	H	0.860631	0.657657	0.816440
H213	H	1.193965	0.990991	1.149773
H214	H	1.198257	0.391124	0.904705
H215	H	1.531590	0.724457	1.238038
H216	H	1.864923	1.057790	1.571372
H217	H	1.039582	0.811211	0.232816
H218	H	1.372916	1.144544	0.566149
H219	H	1.706249	1.477878	0.899483
H220	H	1.106532	0.903678	0.483037
H221	H	1.439865	1.237012	0.816370
H222	H	1.773198	1.570345	1.149704
H223	H	0.619724	0.449437	0.449439
H224	H	0.953057	0.782770	0.782773
H225	H	1.286391	1.116104	1.116106
H226	H	1.164797	0.266058	0.812002
H227	H	1.498130	0.599391	1.145335
H228	H	1.831463	0.932724	1.478669
H229	H	1.039832	0.232565	0.904762
H230	H	1.373166	0.565899	1.238095
H231	H	1.706499	0.899232	1.571429
