data_functionalizedCrystal
_audit_creation_method	'MofGen! by Chris Wilmer'
_symmetry_space_group_name_H-M	'P1'
_symmetry_Int_Tables_number	1
_symmetry_cell_setting	triclinic
loop_
_symmetry_equiv_pos_as_xyz
  x,y,z
_cell_length_a	10.489741
_cell_length_b	8.965430
_cell_length_c	15.538191
_cell_angle_alpha	89.996784
_cell_angle_beta	65.905634
_cell_angle_gamma	90.001157
loop_
_atom_site_label
_atom_site_type_symbol
_atom_site_fract_x
_atom_site_fract_y
_atom_site_fract_z
O1	O	1.631066	0.123934	0.132480
O2	O	1.253958	0.123956	0.144916
O3	O	1.515920	0.123948	0.002066
O4	O	1.369105	0.123943	0.275329
O5	O	1.515899	-0.124131	0.002076
O6	O	1.253937	-0.124122	0.144925
O7	O	1.631045	-0.124144	0.132489
Cu8	Cu	1.442489	-0.146785	0.138708
Cu9	Cu	1.442514	0.146597	0.138697
O10	O	1.369084	-0.124136	0.275339
C11	C	1.206863	-0.000080	0.143981
C12	C	1.066569	-0.000071	0.141171
C13	C	1.041643	-0.000083	0.050280
C14	C	0.929112	0.122229	0.093212
C15	C	0.929116	-0.122358	0.093243
C16	C	0.955886	0.122342	0.184140
C17	C	0.955905	-0.122354	0.184158
C18	C	0.843371	-0.000013	0.227156
N19	N	1.442482	-0.353134	0.138716
C20	C	1.321316	-0.450436	0.204757
C21	C	1.427778	-0.549858	0.223758
C22	C	1.336064	-0.549840	0.119723
C23	C	1.548982	-0.450366	0.157759
C24	C	1.457210	-0.450341	0.053687
C25	C	1.563772	-0.549717	0.072652
C26	C	1.678141	-0.000105	0.133424
C27	C	1.818434	-0.000104	0.136234
C28	C	1.531270	-0.000087	-0.032920
C29	C	1.577024	-0.000075	-0.137183
N30	N	1.442535	0.352946	0.138682
C31	C	1.122466	-0.000080	-0.428058
C32	C	1.165492	-0.000086	-0.526032
C33	C	1.407499	-0.000100	-0.546833
C34	C	1.364494	-0.000087	-0.448859
C35	C	1.221976	-0.000079	-0.389478
C36	C	1.464003	-0.000085	-0.410279
C37	C	1.421001	-0.000079	-0.312314
C38	C	1.278490	-0.000076	-0.252927
C39	C	1.178974	-0.000073	-0.291513
C40	C	1.606520	-0.000103	-0.469661
C41	C	1.706030	-0.000102	-0.431082
C42	C	1.663028	-0.000086	-0.333115
C43	C	1.520517	-0.000082	-0.273728
C44	C	1.762544	-0.000088	-0.294529
C45	C	1.719542	-0.000083	-0.196564
C46	C	1.477515	-0.000077	-0.175763
C47	C	1.353734	-0.000098	0.310325
C48	C	1.307979	-0.000100	0.414589
H49	H	0.968453	0.225864	0.222564
Br50	Br	1.030426	-0.000105	-0.578386
Br51	Br	0.701717	0.000086	0.351820
Br52	Br	1.407087	-0.622713	0.343581
H53	H	0.968673	-0.225768	0.222589
H54	H	0.916421	-0.225763	0.054772
Br55	Br	1.477834	-0.377422	-0.066103
H56	H	1.218895	-0.406844	0.260657
H57	H	1.822068	-0.000114	-0.479442
Br58	Br	1.186033	-0.622677	0.092970
H59	H	1.638981	-0.406855	0.173895
H60	H	1.666346	-0.593035	0.016787
Br61	Br	1.284095	-0.000044	-0.095166
H62	H	1.243480	-0.000080	-0.173158
H63	H	1.062922	-0.000056	-0.243161
H64	H	1.006414	-0.000063	-0.379706
H65	H	1.523537	-0.000112	-0.595193
H66	H	1.878582	-0.000110	-0.342891
Br67	Br	1.854590	-0.000117	-0.144200
H68	H	1.126857	0.000071	-0.024438
H69	H	0.916392	0.225638	0.054750
H70	H	1.641528	-0.000094	-0.549431
