data_functionalizedCrystal
_audit_creation_method	'MofGen! by Chris Wilmer'
_symmetry_space_group_name_H-M	'P1'
_symmetry_Int_Tables_number	1
_symmetry_cell_setting	triclinic
loop_
_symmetry_equiv_pos_as_xyz
  x,y,z
_cell_length_a	14.044191
_cell_length_b	10.654550
_cell_length_c	9.730223
_cell_angle_alpha	89.999807
_cell_angle_beta	90.002006
_cell_angle_gamma	88.838340
loop_
_atom_site_label
_atom_site_type_symbol
_atom_site_fract_x
_atom_site_fract_y
_atom_site_fract_z
O1	O	1.259695	0.303022	-0.114217
O2	O	0.983653	0.292080	-0.114234
O3	O	1.128021	0.115450	-0.114220
O4	O	1.115328	0.479652	-0.114231
O5	O	1.128019	0.115454	0.114360
O6	O	0.983652	0.292084	0.114346
O7	O	1.259693	0.303027	0.114363
Zn8	Zn	1.121672	0.297556	0.150647
Zn9	Zn	1.121675	0.297550	-0.150517
O10	O	1.115326	0.479657	0.114349
C11	C	1.127088	0.068560	0.000068
C12	C	1.124300	-0.071163	0.000063
C13	C	0.948307	0.287295	0.000054
C14	C	0.842987	0.273016	0.000047
C15	C	1.209301	-0.142104	0.000073
C16	C	1.206675	-0.273389	0.000063
C17	C	1.034039	-0.262779	0.000040
C18	C	1.036666	-0.131497	0.000040
C19	C	1.308971	-0.148231	0.000092
C20	C	1.306345	-0.279515	0.000083
C21	C	0.593195	0.348181	0.000058
C22	C	0.650158	0.246931	0.000059
C23	C	0.757458	0.261448	0.000052
C24	C	0.485885	0.333666	0.000065
C25	C	1.295040	0.307812	0.000073
C26	C	1.400360	0.322091	0.000070
C27	C	1.116259	0.526546	0.000058
C28	C	1.119047	0.666270	0.000054
N29	N	1.121678	0.297561	0.356183
N30	N	1.121677	0.297537	-0.356054
C31	C	1.185620	0.219379	0.428115
C32	C	1.185618	0.219364	0.571998
C33	C	1.057727	0.375721	0.572004
C34	C	1.057726	0.375730	0.428123
C35	C	1.259460	0.129111	0.428113
C36	C	1.259457	0.129096	0.571996
H37	H	0.962691	-0.311920	0.000020
H38	H	0.967450	-0.073741	0.000013
C39	C	1.397624	0.071070	0.704667
C40	C	1.357856	0.168033	0.624737
H41	H	1.458370	0.095108	0.737220
H42	H	1.357127	0.055041	0.780576
H43	H	1.404360	-0.002692	0.650401
H44	H	1.351114	0.241794	0.679006
H45	H	1.398363	0.184079	0.548817
H46	H	0.618341	0.149345	-0.000035
H47	H	1.347956	-0.114956	-0.095559
H48	H	0.625010	0.445759	0.000051
H49	H	1.005651	0.439379	0.369557
H50	H	1.005659	0.439364	0.630593
C51	C	1.432727	-0.026932	0.102106
C52	C	1.351766	-0.095965	0.133433
H53	H	1.459125	0.005294	0.184459
H54	H	1.478458	-0.079898	0.057796
H55	H	1.415500	0.040638	0.042833
H56	H	1.368995	-0.163542	0.192698
H57	H	1.306027	-0.042996	0.177764
H58	H	1.243264	0.030951	0.389061
C59	C	1.331760	0.285535	0.286935
C60	C	1.352422	0.179797	0.367891
H61	H	1.389150	0.316846	0.249773
H62	H	1.290356	0.262962	0.214223
H63	H	1.301774	0.348517	0.341915
H64	H	1.382402	0.116811	0.312909
H65	H	1.393842	0.202366	0.440612
C66	C	1.376408	-0.240954	-0.220619
C67	C	1.347019	-0.337061	-0.133135
H68	H	1.401523	-0.276485	-0.302854
H69	H	1.323520	-0.187519	-0.242047
H70	H	1.424126	-0.193692	-0.176291
H71	H	1.299295	-0.384318	-0.177459
H72	H	1.399913	-0.390517	-0.111708
C73	C	1.207979	-0.080114	0.525059
C74	C	1.228389	0.002809	0.632242
H75	H	1.188813	-0.158080	0.562257
H76	H	1.158065	-0.045541	0.470138
H77	H	1.263224	-0.092971	0.470104
H78	H	1.173141	0.015674	0.687191
H79	H	1.278306	-0.031771	0.687186
H80	H	1.343899	-0.317498	0.095743
