data_functionalizedCrystal
_audit_creation_method	'MofGen! by Chris Wilmer'
_symmetry_space_group_name_H-M	'P1'
_symmetry_Int_Tables_number	1
_symmetry_cell_setting	triclinic
loop_
_symmetry_equiv_pos_as_xyz
  x,y,z
_cell_length_a	6.817900
_cell_length_b	12.908906
_cell_length_c	13.212919
_cell_angle_alpha	90.147275
_cell_angle_beta	73.701710
_cell_angle_gamma	100.860157
loop_
_atom_site_label
_atom_site_type_symbol
_atom_site_fract_x
_atom_site_fract_y
_atom_site_fract_z
V1	V	4.032071	0.114868	-0.325071
O2	O	4.033387	-0.037461	-0.319478
O3	O	3.970180	0.258483	-0.322275
O4	O	3.992087	0.099085	-0.467107
O5	O	4.011329	0.123040	-0.173644
V6	V	4.516357	0.098303	-0.307028
O7	O	4.291657	0.151203	-0.364648
O8	O	4.706969	0.061968	-0.267451
O9	O	4.355041	-0.045312	-0.309825
O10	O	4.632438	0.250632	-0.312621
O11	O	4.654496	0.090131	-0.458455
O12	O	4.333135	0.114086	-0.164992
C13	C	3.811627	0.293931	-0.316999
C14	C	3.842366	0.411249	-0.315659
C15	C	4.176936	-0.080755	-0.315098
C16	C	4.125435	-0.198071	-0.316444
C17	C	3.839570	0.090603	-0.501745
C18	C	3.888073	0.078649	-0.617856
C19	C	3.703795	0.571731	-0.308583
C20	C	3.674899	0.461500	-0.309841
C21	C	4.038748	0.471236	-0.320224
C22	C	4.067644	0.581466	-0.318966
C23	C	3.900158	0.631709	-0.313144
C24	C	3.929054	0.741942	-0.311879
C25	C	4.292903	0.751675	-0.322270
C26	C	4.264007	0.641445	-0.323527
C27	C	4.043500	0.246515	-0.865117
C28	C	4.089075	0.235289	-0.974214
C29	C	4.024811	0.044972	-0.945152
C30	C	3.979236	0.056198	-0.836054
C31	C	3.988581	0.156973	-0.796041
C32	C	3.942991	0.168198	-0.686941
C33	C	3.878743	-0.022118	-0.657881
C34	C	3.924317	-0.033344	-0.766979
C35	C	4.148993	0.122572	-0.130349
C36	C	4.079729	0.134520	-0.014236
H37	H	3.567423	0.612640	-0.303846
C38	C	3.818325	-0.120622	-0.581899
H39	H	3.819272	-0.182244	-0.621359
H40	H	3.915585	-0.117165	-0.542118
H41	H	3.682803	-0.123234	-0.535355
H42	H	3.515005	0.412670	-0.306130
C43	C	4.053782	0.357359	-0.821098
H44	H	4.093029	0.409081	-0.877863
H45	H	3.920956	0.362657	-0.775749
H46	H	4.153750	0.368730	-0.782537
C47	C	4.149480	0.333785	-1.050194
H48	H	4.148503	0.395406	-1.010734
H49	H	4.284981	0.336400	-1.096747
H50	H	4.052189	0.330323	-1.089966
H51	H	3.792679	0.782848	-0.307144
H52	H	4.452792	0.800521	-0.325965
C53	C	3.914032	-0.144187	-0.811000
H54	H	3.949026	-0.138051	-0.885868
H55	H	4.009737	-0.178414	-0.790537
H56	H	3.776951	-0.184477	-0.783762
H57	H	4.400364	0.600522	-0.328272
H58	H	4.175102	0.430309	-0.324976
C59	C	3.953290	0.279044	-0.642926
H60	H	3.992552	0.330764	-0.699695
H61	H	3.820467	0.284351	-0.597581
H62	H	4.053256	0.290410	-0.604364
C63	C	4.014548	-0.065868	-0.989181
H64	H	4.049551	-0.059724	-1.064049
H65	H	4.110261	-0.100090	-0.968718
H66	H	3.877474	-0.106166	-0.961950
