data_functionalizedCrystal
_audit_creation_method	'MofGen! by Chris Wilmer'
_symmetry_space_group_name_H-M	'P1'
_symmetry_Int_Tables_number	1
_symmetry_cell_setting	triclinic
loop_
_symmetry_equiv_pos_as_xyz
  x,y,z
_cell_length_a	10.685972
_cell_length_b	21.395363
_cell_length_c	21.395355
_cell_angle_alpha	89.996048
_cell_angle_beta	94.401025
_cell_angle_gamma	85.632222
loop_
_atom_site_label
_atom_site_type_symbol
_atom_site_fract_x
_atom_site_fract_y
_atom_site_fract_z
Zn1	Zn	-1.929376	-0.176153	-0.427866
Zn2	Zn	-1.929285	-0.280916	-0.323111
Zn3	Zn	-1.718339	-0.184177	-0.315058
Zn4	Zn	-1.718383	-0.288919	-0.419813
O5	O	-1.823846	-0.232542	-0.371462
O6	O	-2.105947	-0.183343	-0.420710
O7	O	-1.901246	-0.268093	-0.234363
O8	O	-1.746354	-0.095434	-0.330022
O9	O	-2.105880	-0.260312	-0.343748
O10	O	-1.901402	-0.089539	-0.412901
O11	O	-1.746266	-0.197019	-0.228447
O12	O	-1.541762	-0.204779	-0.322214
O13	O	-1.746427	-0.273952	-0.508561
O14	O	-1.541794	-0.281732	-0.399176
O15	O	-1.901444	-0.191103	-0.514477
O16	O	-1.901288	-0.369657	-0.335939
O17	O	-1.746339	-0.375536	-0.406985
C18	C	-1.495992	-0.244995	-0.358948
C19	C	-1.355735	-0.250338	-0.353609
C20	C	-1.823843	-0.395329	-0.371477
C21	C	-1.823957	-0.464966	-0.371509
C22	C	-1.823950	-0.232525	-0.534889
C23	C	-1.823995	-0.232518	-0.604532
C24	C	-1.152980	-0.220036	-0.384022
C25	C	-1.293237	-0.214696	-0.389367
C26	C	-1.823883	-0.069117	-0.371462
C27	C	-1.823899	0.000525	-0.371462
C28	C	-1.743189	0.030170	-0.328313
C29	C	-1.743187	0.095606	-0.328320
C30	C	-1.823919	0.131394	-0.371471
C31	C	-1.904635	0.101741	-0.414628
C32	C	-1.904625	0.036307	-0.414624
C33	C	-1.937627	0.239383	-0.380763
C34	C	-1.937639	0.304816	-0.380763
C35	C	-1.823948	0.333216	-0.371489
C36	C	-1.710243	0.296174	-0.362200
C37	C	-1.710233	0.230740	-0.362196
C38	C	-1.823938	0.202347	-0.371481
C39	C	-1.743230	0.433814	-0.328345
C40	C	-1.743226	0.499250	-0.328357
C41	C	-1.904685	0.505385	-0.414662
C42	C	-1.904677	0.439949	-0.414653
C43	C	-1.823951	0.404167	-0.371491
C44	C	-1.904709	-0.189377	-0.640327
C45	C	-1.904707	-0.189350	-0.705762
C46	C	-1.824005	-0.232475	-0.735401
C47	C	-1.743276	-0.275619	-0.699598
C48	C	-1.743271	-0.275640	-0.634163
C49	C	-1.814040	-0.289269	-0.838701
C50	C	-1.814054	-0.289248	-0.904135
C51	C	-1.824013	-0.232408	-0.937222
C52	C	-1.833984	-0.175586	-0.904869
C53	C	-1.833979	-0.175608	-0.839435
C54	C	-1.824001	-0.232456	-0.806353
C55	C	-1.904728	-0.189235	-1.043970
C56	C	-1.904718	-0.189207	-1.109406
C57	C	-1.743294	-0.275481	-1.103240
C58	C	-1.743298	-0.275504	-1.037805
C59	C	-1.824022	-0.232381	-1.008174
C60	C	-1.823814	-0.232510	-0.208673
C61	C	-1.824014	-0.232331	-0.139040
H62	H	-1.347031	-0.180090	-0.424065
H63	H	-1.842095	-0.129342	-0.813096
Cl64	Cl	-1.272680	-0.303764	-0.300027
H65	H	-1.677454	0.001041	-0.293168
Cl66	Cl	-1.567308	0.331869	-0.350534
Cl67	Cl	-1.641723	0.132883	-0.274067
H68	H	-2.030212	0.216266	-0.388324
H69	H	-1.617650	0.200583	-0.354635
H70	H	-1.970439	-0.154262	-0.616205
H71	H	-1.970413	0.534523	-0.449798
Cl72	Cl	-1.641827	-0.329691	-1.140494
H73	H	-1.805593	-0.335556	-0.811754
H74	H	-1.970452	-0.154118	-1.019842
H75	H	-1.842096	-0.129302	-0.931808
H76	H	-1.805942	-0.335516	-0.930472
H77	H	-1.970407	0.415812	-0.449787
H78	H	-1.677564	-0.310730	-0.723734
H79	H	-1.677492	0.404678	-0.293203
Cl80	Cl	-1.641736	0.536518	-0.274114
Cl81	Cl	-1.641795	-0.329880	-0.589162
H82	H	-2.030222	0.334973	-0.388322
H83	H	-1.970366	0.130883	-0.449763
H84	H	-1.970348	0.012170	-0.449763
H85	H	-1.677579	-0.310637	-1.008661
H86	H	-1.970431	-0.154216	-0.734912
H87	H	-1.970442	-0.154073	-1.138549
