data_functionalizedCrystal
_audit_creation_method	'MofGen! by Chris Wilmer'
_symmetry_space_group_name_H-M	'P1'
_symmetry_Int_Tables_number	1
_symmetry_cell_setting	triclinic
loop_
_symmetry_equiv_pos_as_xyz
  x,y,z
_cell_length_a	10.489741
_cell_length_b	8.597304
_cell_length_c	7.681215
_cell_angle_alpha	76.002376
_cell_angle_beta	83.626470
_cell_angle_gamma	84.936993
loop_
_atom_site_label
_atom_site_type_symbol
_atom_site_fract_x
_atom_site_fract_y
_atom_site_fract_z
O1	O	1.708785	0.238111	-0.182443
O2	O	1.337934	0.259193	-0.185668
O3	O	1.528038	0.017059	-0.148915
O4	O	1.518681	0.480244	-0.219196
O5	O	1.505847	-0.010058	0.148068
O6	O	1.315743	0.232075	0.111315
O7	O	1.686594	0.210994	0.114540
Zn8	Zn	1.497646	0.217229	0.160080
Zn9	Zn	1.526883	0.252957	-0.231208
O10	O	1.496490	0.453127	0.077787
C11	C	1.279282	0.244042	-0.036938
C12	C	1.137575	0.239280	-0.036226
C13	C	1.514702	-0.055810	0.008572
C14	C	1.508011	-0.232537	0.035375
C15	C	1.066928	0.085217	-0.012833
C16	C	0.986926	0.171364	-0.170300
C17	C	0.965082	0.144665	0.122496
C18	C	1.059449	0.325501	-0.193824
C19	C	1.037605	0.298769	0.099107
C20	C	0.957635	0.385031	-0.058413
C21	C	1.745247	0.226144	-0.034193
C22	C	1.886954	0.230908	-0.034917
C23	C	1.509827	0.525997	-0.079704
C24	C	1.516519	0.702724	-0.106519
N25	N	1.477701	0.192845	0.427124
N26	N	1.546837	0.277329	-0.498250
H27	H	1.528919	-0.217498	-0.248517
H28	H	1.495591	-0.312320	0.177383
Cl29	Cl	1.140422	-0.110326	0.016621
H30	H	0.964101	0.117481	-0.284203
H31	H	1.100597	0.401953	-0.327637
H32	H	1.617385	0.363557	0.413425
Cl33	Cl	1.368797	0.059702	0.563474
H34	H	0.910279	0.511821	-0.077730
H35	H	1.060460	0.352599	0.213023
H36	H	0.923793	0.068147	0.256182
