data_functionalizedCrystal
_audit_creation_method	'MofGen! by Chris Wilmer'
_symmetry_space_group_name_H-M	'P1'
_symmetry_Int_Tables_number	1
_symmetry_cell_setting	triclinic
loop_
_symmetry_equiv_pos_as_xyz
  x,y,z
_cell_length_a	17.640112
_cell_length_b	18.050589
_cell_length_c	17.640968
_cell_angle_alpha	78.773118
_cell_angle_beta	92.139080
_cell_angle_gamma	101.252307
loop_
_atom_site_label
_atom_site_type_symbol
_atom_site_fract_x
_atom_site_fract_y
_atom_site_fract_z
Zn1	Zn	1.247776	-0.021338	-0.195082
Zn2	Zn	1.221993	-0.174558	-0.068112
Zn3	Zn	1.095104	-0.069647	-0.093732
Zn4	Zn	1.120735	-0.164782	-0.220693
O5	O	1.171402	-0.107581	-0.144405
O6	O	1.350627	-0.025537	-0.156798
O7	O	1.183644	-0.184950	0.034761
O8	O	1.115420	0.040699	-0.107180
O9	O	1.331684	-0.138107	-0.063514
O10	O	1.227588	0.076191	-0.181641
O11	O	1.090420	-0.107872	0.015938
O12	O	0.992234	-0.098393	-0.132014
O13	O	1.159104	-0.121445	-0.323567
O14	O	1.011064	-0.168289	-0.225292
O15	O	1.252441	-0.016058	-0.304750
O16	O	1.208498	-0.277199	-0.088349
O17	O	1.134104	-0.270016	-0.200449
C18	C	0.974094	-0.137523	-0.184213
C19	C	0.889689	-0.150346	-0.201261
C20	C	0.563038	-0.010153	-0.014899
C21	C	0.483728	-0.022215	-0.030928
C22	C	0.503357	-0.095166	-0.127891
C23	C	0.582671	-0.083107	-0.111873
C24	C	0.612505	-0.040601	-0.055375
C25	C	0.632138	-0.113555	-0.152349
C26	C	0.711444	-0.101501	-0.136328
C27	C	0.741283	-0.058998	-0.079832
C28	C	0.691811	-0.028547	-0.039354
C29	C	0.602302	-0.156066	-0.208842
C30	C	0.651768	-0.186514	-0.249318
C31	C	0.731077	-0.174455	-0.233302
C32	C	0.760916	-0.131952	-0.176805
C33	C	0.780549	-0.204906	-0.273779
C34	C	0.859855	-0.192852	-0.257758
C35	C	0.840222	-0.119898	-0.160785
C36	C	1.171308	-0.300550	-0.144411
C37	C	1.171342	-0.383087	-0.144424
C38	C	1.130933	-0.578655	-0.205357
C39	C	1.098407	-0.646737	-0.139793
C40	C	1.171419	-0.534204	-0.144419
C41	C	1.203984	-0.613197	-0.209983
C42	C	1.171493	-0.680174	-0.144421
C43	C	1.138849	-0.601212	-0.078826
C44	C	1.244468	-0.567652	-0.149057
C45	C	1.211958	-0.635718	-0.083440
C46	C	1.171375	-0.450114	-0.144420
C47	C	1.171536	-0.764264	-0.144412
C48	C	1.369481	-0.077524	-0.104442
C49	C	1.453890	-0.064715	-0.087412
C50	C	1.211508	-0.062272	-0.342484
C51	C	1.228598	-0.042964	-0.426893
C52	C	1.171521	0.086148	-0.144411
C53	C	1.171572	0.168704	-0.144414
C54	C	1.041859	-0.253814	-0.753484
C55	C	1.057934	-0.235659	-0.832796
C56	C	1.155117	-0.125928	-0.813194
C57	C	1.139048	-0.144071	-0.733879
C58	C	1.082418	-0.208016	-0.704030
C59	C	1.179607	-0.098273	-0.684425
C60	C	1.163541	-0.116418	-0.605116
C61	C	1.106916	-0.180360	-0.575261
C62	C	1.066352	-0.226160	-0.624721
C63	C	1.236240	-0.034333	-0.714274
C64	C	1.276799	0.011465	-0.664820
C65	C	1.260730	-0.006676	-0.585511
C66	C	1.204105	-0.070618	-0.555656
C67	C	1.301293	0.039124	-0.536051
C68	C	1.285228	0.020980	-0.456742
C69	C	1.188039	-0.088763	-0.476347
C70	C	1.131497	-0.152654	0.052913
C71	C	1.114553	-0.171730	0.137352
H72	H	0.537725	-0.165879	-0.221884
N73	N	1.326237	-0.522249	-0.154293
H74	H	1.338228	-0.498158	-0.107062
H75	H	1.363327	-0.557737	-0.157213
H76	H	1.231497	-0.619082	-0.265429
N77	N	0.619587	-0.232363	-0.310248
H78	H	0.561841	-0.235381	-0.314255
H79	H	0.644450	-0.206363	-0.361702
H80	H	0.995727	-0.305868	-0.729184
N81	N	0.748365	-0.250761	-0.334704
H82	H	0.690618	-0.253782	-0.338707
H83	H	0.773224	-0.224767	-0.386160
N84	N	1.089582	-0.199909	-0.489722
H85	H	1.033625	-0.198524	-0.481146
H86	H	1.099680	-0.253103	-0.467834
H87	H	0.805860	-0.049186	-0.066787
N88	N	1.126956	-0.157728	-0.444149
H89	H	1.141512	-0.205851	-0.455568
H90	H	1.122963	-0.162201	-0.386411
N91	N	1.016617	-0.692100	-0.134589
H92	H	1.004973	-0.717011	-0.181334
H93	H	1.010704	-0.733193	-0.086185
H94	H	1.020221	-0.278215	-0.600421
N95	N	0.913214	-0.225693	-0.301409
H96	H	0.882282	-0.254448	-0.339632
H97	H	0.953263	-0.182461	-0.329952
N98	N	1.014188	-0.285061	-0.886138
H99	H	0.975878	-0.328322	-0.855191
H100	H	0.985727	-0.252635	-0.926139
N101	N	1.216189	-0.056957	-0.845388
H102	H	1.267646	-0.063412	-0.820632
H103	H	1.220147	-0.052446	-0.903133
H104	H	1.096620	-0.553748	-0.256842
N105	N	1.253547	-0.014763	-0.799819
H106	H	1.243486	0.038442	-0.821732
H107	H	1.309498	-0.016184	-0.808363
N108	N	1.337871	0.080432	-0.697024
H109	H	1.323307	0.128552	-0.685605
H110	H	1.389304	0.073908	-0.672258
N111	N	1.102314	-0.593563	-0.005375
H112	H	1.102490	-0.537489	-0.005837
H113	H	1.047332	-0.623220	-0.001767
H114	H	1.246217	-0.660517	-0.031858
H115	H	1.347406	0.091183	-0.560365
H116	H	1.318254	0.058274	-0.416475
H117	H	0.587332	0.024473	0.031096
N118	N	0.872404	-0.074048	-0.099849
H119	H	0.898155	-0.107239	-0.057961
H120	H	0.911553	-0.027609	-0.124186
N121	N	0.723999	0.017307	0.021576
H122	H	0.680630	0.034772	0.044787
H123	H	0.749760	-0.015923	0.063416
H124	H	0.479055	-0.129777	-0.173889
N125	N	0.430372	0.010624	0.012733
H126	H	0.461309	0.039379	0.050954
H127	H	0.403754	0.047032	-0.024880
