data_functionalizedCrystal
_audit_creation_method	'MofGen! by Chris Wilmer'
_symmetry_space_group_name_H-M	'P1'
_symmetry_Int_Tables_number	1
_symmetry_cell_setting	triclinic
loop_
_symmetry_equiv_pos_as_xyz
  x,y,z
_cell_length_a	8.497374
_cell_length_b	21.395361
_cell_length_c	21.395362
_cell_angle_alpha	89.953415
_cell_angle_beta	89.977046
_cell_angle_gamma	90.015691
loop_
_atom_site_label
_atom_site_type_symbol
_atom_site_fract_x
_atom_site_fract_y
_atom_site_fract_z
Zn1	Zn	0.892770	-0.249282	-0.957730
Zn2	Zn	0.628940	-0.354031	-0.957670
Zn3	Zn	0.628900	-0.249300	-0.852983
Zn4	Zn	0.892573	-0.354054	-0.852914
O5	O	0.760796	-0.301667	-0.905324
O6	O	0.857872	-0.263159	-1.045400
O7	O	0.408172	-0.340136	-0.943788
O8	O	0.663969	-0.161620	-0.866931
O9	O	0.664036	-0.340118	-1.045356
O10	O	0.857833	-0.161606	-0.943888
O11	O	0.408143	-0.263191	-0.866874
O12	O	0.663778	-0.263214	-0.765296
O13	O	1.113362	-0.340158	-0.866814
O14	O	0.857497	-0.340176	-0.765245
O15	O	1.113507	-0.263182	-0.943821
O16	O	0.663845	-0.441712	-0.943721
O17	O	0.857536	-0.441729	-0.866756
C18	C	0.760708	-0.464454	-0.905241
C19	C	0.760723	-0.534096	-0.905263
C20	C	0.760613	-0.301700	-0.742537
C21	C	0.760572	-0.301729	-0.672895
C22	C	0.659972	-0.566779	-0.945374
C23	C	0.660007	-0.632214	-0.945403
C24	C	0.760777	-0.664964	-0.905310
C25	C	0.861548	-0.632273	-0.865197
C26	C	0.861521	-0.566839	-0.865173
C27	C	0.773092	-0.768695	-0.848894
C28	C	0.773108	-0.834128	-0.848917
C29	C	0.760870	-0.866785	-0.905383
C30	C	0.748583	-0.834000	-0.961830
C31	C	0.748556	-0.768566	-0.961806
C32	C	0.760819	-0.735916	-0.905332
C33	C	0.660152	-0.970420	-0.945529
C34	C	0.660198	-1.035857	-0.945559
C35	C	0.861731	-1.035914	-0.865347
C36	C	0.861693	-0.970479	-0.865323
C37	C	0.760895	-0.937736	-0.905413
C38	C	1.172276	-0.301668	-0.905320
C39	C	1.350920	-0.301674	-0.905321
C40	C	0.760981	-0.301634	-1.068747
C41	C	0.761059	-0.301620	-1.138389
C42	C	0.760919	-0.138243	-0.905424
C43	C	0.760971	-0.068602	-0.905467
C44	C	0.861291	-0.341857	-0.640172
C45	C	0.861361	-0.341841	-0.574737
C46	C	0.760684	-0.301705	-0.542027
C47	C	0.659959	-0.261570	-0.574758
C48	C	0.659902	-0.261582	-0.640192
C49	C	0.618664	-0.296652	-0.438323
C50	C	0.618717	-0.296644	-0.372890
C51	C	0.760859	-0.301664	-0.340206
C52	C	0.902951	-0.306705	-0.372964
C53	C	0.902895	-0.306717	-0.438398
C54	C	0.760735	-0.301687	-0.471075
C55	C	0.861662	-0.341777	-0.236531
C56	C	0.861735	-0.341757	-0.171094
C57	C	0.660318	-0.261489	-0.171117
C58	C	0.660260	-0.261506	-0.236552
C59	C	0.760929	-0.301653	-0.269255
H60	H	0.577900	-0.540122	-0.978019
H61	H	0.577990	-0.228889	-0.548122
H62	H	0.578157	-1.062467	-0.978226
H63	H	0.578353	-0.228807	-0.144485
H64	H	0.578235	-0.228833	-0.263195
H65	H	0.577964	-0.658830	-0.978069
Cl66	Cl	1.081657	-0.313013	-0.331883
Cl67	Cl	0.733125	-0.727353	-1.032764
Cl68	Cl	0.987854	-0.392325	-0.681281
H69	H	0.738618	-0.860588	-1.007811
H70	H	0.577885	-0.228903	-0.666835
H71	H	0.503017	-0.292543	-0.346224
H72	H	0.943787	-1.062578	-0.832706
H73	H	0.943384	-0.374518	-0.548088
Cl74	Cl	0.533436	-0.929255	-0.995927
Cl75	Cl	0.988352	-0.929389	-0.814892
Cl76	Cl	0.988238	-0.673443	-0.814797
Cl77	Cl	1.081516	-0.313050	-0.479576
H78	H	0.783097	-0.860816	-0.802954
Cl79	Cl	0.788478	-0.727648	-0.777900
Cl80	Cl	0.988189	-0.525749	-0.814743
Cl81	Cl	0.988225	-0.392243	-0.277646
Cl82	Cl	0.439953	-0.290343	-0.479404
Cl83	Cl	0.988374	-0.392205	-0.129956
