data_functionalizedCrystal
_audit_creation_method	'MofGen! by Chris Wilmer'
_symmetry_space_group_name_H-M	'P1'
_symmetry_Int_Tables_number	1
_symmetry_cell_setting	triclinic
loop_
_symmetry_equiv_pos_as_xyz
  x,y,z
_cell_length_a	15.944551
_cell_length_b	15.944551
_cell_length_c	15.021413
_cell_angle_alpha	89.996935
_cell_angle_beta	90.002826
_cell_angle_gamma	83.498738
loop_
_atom_site_label
_atom_site_type_symbol
_atom_site_fract_x
_atom_site_fract_y
_atom_site_fract_z
O1	O	-1.114529	-0.108321	-0.073941
O2	O	-0.614529	0.391679	0.426059
O3	O	-0.869979	-0.121677	-0.073964
O4	O	-0.369979	0.378323	0.426036
O5	O	-0.998932	0.007276	-0.073944
O6	O	-0.498932	0.507276	0.426056
O7	O	-0.985576	-0.237274	-0.073961
O8	O	-0.485576	0.262726	0.426039
O9	O	-0.998912	0.007257	0.074121
O10	O	-0.498912	0.507257	0.574121
O11	O	-0.869959	-0.121695	0.074101
O12	O	-0.369959	0.378305	0.574101
O13	O	-1.114508	-0.108339	0.074123
O14	O	-0.614508	0.391661	0.574123
Zn15	Zn	-0.992230	-0.115020	0.097620
Zn16	Zn	-0.492230	0.384980	0.597620
Zn17	Zn	-0.992257	-0.114996	-0.097461
Zn18	Zn	-0.492257	0.385004	0.402539
O19	O	-0.985555	-0.237292	0.074103
O20	O	-0.485555	0.262708	0.574103
C21	C	-0.838675	-0.121132	0.000066
C22	C	-0.338675	0.378868	0.500066
C23	C	-0.745429	-0.119470	0.000057
C24	C	-0.245429	0.380530	0.500057
C25	C	-0.998367	0.038561	0.000089
C26	C	-0.498367	0.538561	0.500089
C27	C	-0.996705	0.131807	0.000089
C28	C	-0.496705	0.631807	0.500089
C29	C	-1.145813	-0.108885	0.000092
C30	C	-0.645813	0.391115	0.500092
C31	C	-1.239059	-0.110547	0.000094
C32	C	-0.739059	0.389453	0.500094
C33	C	-0.530572	-0.035565	0.000081
C34	C	-0.030572	0.464435	0.500081
C35	C	-0.469562	-0.074518	-0.072926
C36	C	0.030438	0.425482	0.427074
C37	C	-0.574703	-0.116462	0.000068
C38	C	-0.074703	0.383538	0.500068
C39	C	-0.469564	-0.074556	0.073054
C40	C	0.030436	0.425444	0.573054
C41	C	-0.409790	-0.113551	0.000083
C42	C	0.090210	0.386449	0.500083
C43	C	-0.514921	-0.155438	-0.072998
C44	C	-0.014921	0.344562	0.427002
C45	C	-0.514930	-0.155464	0.073047
C46	C	-0.014930	0.344536	0.573047
C47	C	-0.453937	-0.194476	0.000023
C48	C	0.046063	0.305524	0.500023
C49	C	-0.669705	-0.118137	0.000059
C50	C	-0.169705	0.381863	0.500059
C51	C	-0.314789	-0.111883	0.000085
C52	C	0.185211	0.388117	0.500085
C53	C	-0.986120	-0.268577	0.000069
C54	C	-0.486120	0.231423	0.500069
C55	C	-0.987782	-0.361823	0.000063
C56	C	-0.487782	0.138177	0.500063
N57	N	-0.992218	-0.115036	0.230758
N58	N	-0.492218	0.384964	0.730758
C59	C	-0.912801	0.346663	0.000069
C60	C	-0.412801	0.846663	0.500069
C61	C	-0.951753	0.407672	0.073077
C62	C	-0.451753	0.907672	0.573077
C63	C	-0.993698	0.302533	0.000082
C64	C	-0.493698	0.802533	0.500082
C65	C	-0.951792	0.407673	-0.072903
C66	C	-0.451792	0.907673	0.427097
C67	C	-0.990787	0.467445	0.000071
C68	C	-0.490787	0.967445	0.500071
C69	C	-1.032672	0.362313	0.073150
C70	C	-0.532672	0.862313	0.573150
C71	C	-1.032700	0.362308	-0.072895
C72	C	-0.532700	0.862308	0.427105
C73	C	-1.071711	0.423298	0.000131
C74	C	-0.571711	0.923298	0.500131
C75	C	-0.995372	0.207530	0.000089
C76	C	-0.495372	0.707530	0.500089
C77	C	-0.989119	0.562446	0.000070
C78	C	-0.489119	1.062446	0.500070
N79	N	-0.992276	-0.114973	-0.230598
N80	N	-0.492276	0.385027	0.269402
C81	C	-0.932581	-0.174636	0.470432
C82	C	-0.432581	0.325364	0.970432
C83	C	-1.008481	-0.190943	0.529772
C84	C	-0.508481	0.309057	1.029772
C85	C	-0.992239	-0.115015	0.412365
C86	C	-0.492239	0.384985	0.912365
C87	C	-0.916360	-0.098727	0.529766
C88	C	-0.416360	0.401273	1.029766
C89	C	-0.992253	-0.114997	0.587789
C90	C	-0.492253	0.385003	1.087789
C91	C	-1.068178	-0.131360	0.470398
C92	C	-0.568178	0.368640	0.970398
C93	C	-0.976006	-0.039111	0.470387
C94	C	-0.476006	0.460889	0.970387
C95	C	-1.051962	-0.055386	0.529701
C96	C	-0.551962	0.444614	1.029701
C97	C	-0.992230	-0.115028	0.311307
C98	C	-0.492230	0.384972	0.811307
C99	C	-0.992271	-0.114984	0.688844
C100	C	-0.492271	0.385016	1.188844
H101	H	-0.563905	0.031573	-0.000005
H102	H	-0.063905	0.531573	0.499995
H103	H	-0.420779	-0.261683	-0.000023
H104	H	0.079221	0.238317	0.499977
Cl105	Cl	-0.954752	0.059951	0.430079
Cl106	Cl	-0.454752	0.559951	0.930079
H107	H	-1.132368	-0.145206	0.444430
H108	H	-0.632368	0.354794	0.944430
Cl109	Cl	-1.085444	0.331443	0.168550
Cl110	Cl	-0.585444	0.831443	0.668550
Cl111	Cl	-1.029701	-0.290034	0.570046
Cl112	Cl	-0.529701	0.209966	1.070046
Cl113	Cl	-0.854768	-0.252539	0.430247
Cl114	Cl	-0.354768	0.247461	0.930247
Cl115	Cl	-1.129945	0.022473	0.569635
Cl116	Cl	-0.629945	0.522473	1.069635
Cl117	Cl	-0.898915	0.438707	0.168363
Cl118	Cl	-0.398915	0.938707	0.668363
H119	H	-0.449470	-0.040332	0.134773
H120	H	0.050530	0.459668	0.634773
Cl121	Cl	-1.175472	0.474497	0.000200
Cl122	Cl	-0.675472	0.974497	0.500200
H123	H	-0.852184	-0.084959	0.555847
H124	H	-0.352184	0.415041	1.055847
Cl125	Cl	-0.546002	-0.208259	0.168338
Cl126	Cl	-0.046002	0.291741	0.668338
Cl127	Cl	-0.545789	-0.208213	-0.168397
Cl128	Cl	-0.045789	0.291787	0.331603
Cl129	Cl	-0.438528	-0.021683	-0.168214
Cl130	Cl	0.061472	0.478317	0.331786
H131	H	-0.845652	0.313356	0.000136
H132	H	-0.345652	0.813356	0.500136
H133	H	-1.066896	0.342185	-0.134615
H134	H	-0.566896	0.842185	0.365385
H135	H	-0.917574	0.427758	-0.134630
H136	H	-0.417574	0.927758	0.365370
