data_functionalizedCrystal
_audit_creation_method	'MofGen! by Chris Wilmer'
_symmetry_space_group_name_H-M	'P1'
_symmetry_Int_Tables_number	1
_symmetry_cell_setting	triclinic
loop_
_symmetry_equiv_pos_as_xyz
  x,y,z
_cell_length_a	15.944499
_cell_length_b	15.944545
_cell_length_c	13.596369
_cell_angle_alpha	89.991909
_cell_angle_beta	89.992083
_cell_angle_gamma	83.486891
loop_
_atom_site_label
_atom_site_type_symbol
_atom_site_fract_x
_atom_site_fract_y
_atom_site_fract_z
O1	O	1.114550	0.108127	-0.081855
O2	O	1.364550	0.358127	0.168145
O3	O	1.614550	0.608127	0.418145
O4	O	1.864550	0.858127	0.668145
O5	O	0.869994	0.121529	-0.081845
O6	O	1.119994	0.371529	0.168155
O7	O	1.369994	0.621529	0.418155
O8	O	1.619994	0.871529	0.668155
O9	O	0.998953	-0.007449	-0.081838
O10	O	1.248953	0.242551	0.168162
O11	O	1.498953	0.492551	0.418162
O12	O	1.748953	0.742551	0.668162
O13	O	0.985591	0.237104	-0.081861
O14	O	1.235591	0.487104	0.168139
O15	O	1.485591	0.737104	0.418139
O16	O	1.735591	0.987104	0.668139
O17	O	0.998940	-0.007455	0.081745
O18	O	1.248940	0.242545	0.331745
O19	O	1.498940	0.492545	0.581745
O20	O	1.748940	0.742545	0.831745
O21	O	0.869981	0.121522	0.081738
O22	O	1.119981	0.371522	0.331738
O23	O	1.369981	0.621522	0.581738
O24	O	1.619981	0.871522	0.831738
O25	O	1.114537	0.108120	0.081728
O26	O	1.364537	0.358120	0.331728
O27	O	1.614537	0.608120	0.581728
O28	O	1.864537	0.858120	0.831728
Zn29	Zn	0.992257	0.114820	0.107705
Zn30	Zn	1.242257	0.364820	0.357705
Zn31	Zn	1.492257	0.614820	0.607705
Zn32	Zn	1.742257	0.864820	0.857705
Zn33	Zn	0.992274	0.114829	-0.107822
Zn34	Zn	1.242274	0.364829	0.142178
Zn35	Zn	1.492274	0.614829	0.392178
Zn36	Zn	1.742274	0.864829	0.642178
O37	O	0.985578	0.237097	0.081722
O38	O	1.235578	0.487097	0.331722
O39	O	1.485578	0.737097	0.581722
O40	O	1.735578	0.987097	0.831722
C41	C	0.838693	0.120977	-0.000052
C42	C	1.088693	0.370977	0.249948
C43	C	1.338693	0.620977	0.499948
C44	C	1.588693	0.870977	0.749948
C45	C	0.745444	0.119332	-0.000047
C46	C	0.995444	0.369332	0.249953
C47	C	1.245444	0.619332	0.499953
C48	C	1.495444	0.869332	0.749953
C49	C	0.453907	0.194264	-0.000069
C50	C	0.703907	0.444264	0.249931
C51	C	0.953907	0.694264	0.499931
C52	C	1.203907	0.944264	0.749931
C53	C	0.514943	0.155316	-0.080722
C54	C	0.764943	0.405316	0.169278
C55	C	1.014943	0.655316	0.419278
C56	C	1.264943	0.905316	0.669278
C57	C	0.409808	0.113355	-0.000069
C58	C	0.659808	0.363355	0.249931
C59	C	0.909808	0.613355	0.499931
C60	C	1.159808	0.863355	0.749931
C61	C	0.514916	0.155287	0.080558
C62	C	0.764916	0.405287	0.330558
C63	C	1.014916	0.655287	0.580558
C64	C	1.264916	0.905287	0.830558
C65	C	0.574717	0.116296	-0.000057
C66	C	0.824717	0.366296	0.249943
C67	C	1.074717	0.616296	0.499943
C68	C	1.324717	0.866296	0.749943
C69	C	0.469616	0.074385	-0.080789
C70	C	0.719616	0.324385	0.169211
C71	C	0.969616	0.574385	0.419211
C72	C	1.219616	0.824385	0.669211
C73	C	0.469583	0.074367	0.080563
C74	C	0.719583	0.324367	0.330563
C75	C	0.969583	0.574367	0.580563
C76	C	1.219583	0.824367	0.830563
C77	C	0.530602	0.035360	-0.000110
C78	C	0.780602	0.285360	0.249890
C79	C	1.030602	0.535360	0.499890
C80	C	1.280602	0.785360	0.749890
C81	C	0.314808	0.111664	-0.000078
C82	C	0.564808	0.361664	0.249922
C83	C	0.814808	0.611664	0.499922
C84	C	1.064808	0.861664	0.749922
C85	C	0.669716	0.117981	-0.000056
C86	C	0.919716	0.367981	0.249944
C87	C	1.169716	0.617981	0.499944
C88	C	1.419716	0.867981	0.749944
C89	C	0.998393	-0.038746	-0.000046
C90	C	1.248393	0.211254	0.249954
C91	C	1.498393	0.461254	0.499954
C92	C	1.748393	0.711254	0.749954
C93	C	0.996732	-0.131992	-0.000043
C94	C	1.246732	0.118008	0.249957
C95	C	1.496732	0.368008	0.499957
C96	C	1.746732	0.618008	0.749957
C97	C	0.911837	-0.402609	-0.000059
C98	C	1.161837	-0.152609	0.249941
C99	C	1.411837	0.097391	0.499941
C100	C	1.661837	0.347391	0.749941
C101	C	0.952773	-0.352028	-0.080717
C102	C	1.202773	-0.102028	0.169283
C103	C	1.452773	0.147972	0.419283
C104	C	1.702773	0.397972	0.669283
C105	C	0.990811	-0.467635	-0.000071
C106	C	1.240811	-0.217635	0.249929
C107	C	1.490811	0.032365	0.499929
C108	C	1.740811	0.282365	0.749929
C109	C	0.952781	-0.352062	0.080563
C110	C	1.202781	-0.102062	0.330563
C111	C	1.452781	0.147938	0.580563
C112	C	1.702781	0.397938	0.830563
C113	C	0.993716	-0.302722	-0.000056
C114	C	1.243716	-0.052722	0.249944
C115	C	1.493716	0.197278	0.499944
C116	C	1.743716	0.447278	0.749944
C117	C	1.031727	-0.418282	-0.080795
C118	C	1.281727	-0.168282	0.169205
C119	C	1.531727	0.081718	0.419205
C120	C	1.781727	0.331718	0.669205
C121	C	1.031724	-0.418319	0.080558
C122	C	1.281724	-0.168319	0.330558
C123	C	1.531724	0.081681	0.580558
C124	C	1.781724	0.331681	0.830558
C125	C	1.072718	-0.367771	-0.000119
C126	C	1.322718	-0.117771	0.249881
C127	C	1.572718	0.132229	0.499881
C128	C	1.822718	0.382229	0.749881
C129	C	0.989136	-0.562637	-0.000080
C130	C	1.239136	-0.312637	0.249920
C131	C	1.489136	-0.062637	0.499920
C132	C	1.739136	0.187363	0.749920
C133	C	0.995398	-0.207723	-0.000053
C134	C	1.245398	0.042277	0.249947
C135	C	1.495398	0.292277	0.499947
C136	C	1.745398	0.542277	0.749947
C137	C	1.145838	0.108672	-0.000067
C138	C	1.395838	0.358672	0.249933
C139	C	1.645838	0.608672	0.499933
C140	C	1.895838	0.858672	0.749933
C141	C	1.239086	0.110317	-0.000078
C142	C	1.489086	0.360317	0.249922
C143	C	1.739086	0.610317	0.499922
C144	C	1.989086	0.860317	0.749922
C145	C	0.986138	0.268395	-0.000073
C146	C	1.236138	0.518395	0.249927
C147	C	1.486138	0.768395	0.499927
C148	C	1.736138	1.018395	0.749927
C149	C	0.987798	0.361641	-0.000082
C150	C	1.237798	0.611641	0.249918
C151	C	1.487798	0.861641	0.499918
C152	C	1.737798	1.111641	0.749918
N153	N	0.992251	0.114813	0.254797
N154	N	1.242251	0.364813	0.504797
N155	N	1.492251	0.614813	0.754797
N156	N	1.742251	0.864813	1.004797
N157	N	0.992286	0.114829	-0.254914
N158	N	1.242286	0.364829	-0.004914
N159	N	1.492286	0.614829	0.245086
N160	N	1.742286	0.864829	0.495086
C161	C	0.992273	0.114830	0.656088
C162	C	1.242273	0.364830	0.906088
C163	C	1.492273	0.614830	1.156088
C164	C	1.742273	0.864830	1.406088
C165	C	0.992264	0.114828	0.544437
C166	C	1.242264	0.364828	0.794437
C167	C	1.492264	0.614828	1.044437
C168	C	1.742264	0.864828	1.294437
C169	C	0.992262	0.114822	0.455446
C170	C	1.242262	0.364822	0.705446
C171	C	1.492262	0.614822	0.955446
C172	C	1.742262	0.864822	1.205446
C173	C	0.992253	0.114819	0.343788
C174	C	1.242253	0.364819	0.593788
C175	C	1.492253	0.614819	0.843788
C176	C	1.742253	0.864819	1.093788
H177	H	0.449643	0.040198	-0.149051
H178	H	0.699643	0.290198	0.100949
H179	H	0.949643	0.540198	0.350949
H180	H	1.199643	0.790198	0.600949
F181	F	0.443281	0.029670	0.169698
F182	F	0.693281	0.279670	0.419698
F183	F	0.943281	0.529670	0.669698
F184	F	1.193281	0.779670	0.919698
F185	F	1.075297	-0.455934	-0.170022
F186	F	1.325297	-0.205934	0.079978
F187	F	1.575297	0.044066	0.329978
F188	F	1.825297	0.294066	0.579978
F189	F	0.573977	-0.052480	-0.000158
F190	F	0.823977	0.197520	0.249842
F191	F	1.073977	0.447520	0.499842
F192	F	1.323977	0.697520	0.749842
F193	F	0.541151	0.200030	0.169677
F194	F	0.791151	0.450030	0.419677
F195	F	1.041151	0.700030	0.669677
F196	F	1.291151	0.950030	0.919677
H197	H	0.843822	-0.418249	-0.000135
H198	H	1.093822	-0.168249	0.249865
H199	H	1.343822	0.081751	0.499865
H200	H	1.593822	0.331751	0.749865
H201	H	0.919409	-0.323144	0.148751
H202	H	1.169409	-0.073144	0.398751
H203	H	1.419409	0.176856	0.648751
H204	H	1.669409	0.426856	0.898751
H205	H	0.919425	-0.323084	-0.148904
H206	H	1.169425	-0.073084	0.101096
H207	H	1.419425	0.176916	0.351096
H208	H	1.669425	0.426916	0.601096
F209	F	0.410338	0.282027	-0.000176
F210	F	0.660338	0.532027	0.249824
F211	F	0.910338	0.782027	0.499824
F212	F	1.160338	1.032027	0.749824
H213	H	1.140785	-0.352292	-0.000167
H214	H	1.390785	-0.102292	0.249833
H215	H	1.640785	0.147708	0.499833
H216	H	1.890785	0.397708	0.749833
F217	F	1.075274	-0.456173	0.169687
F218	F	1.325274	-0.206173	0.419687
F219	F	1.575274	0.043827	0.669687
F220	F	1.825274	0.293827	0.919687
H221	H	0.535046	0.189542	-0.148910
H222	H	0.785046	0.439542	0.101090
H223	H	1.035046	0.689542	0.351090
H224	H	1.285046	0.939542	0.601090
