data_functionalizedCrystal
_audit_creation_method	'MofGen! by Chris Wilmer'
_symmetry_space_group_name_H-M	'P1'
_symmetry_Int_Tables_number	1
_symmetry_cell_setting	triclinic
loop_
_symmetry_equiv_pos_as_xyz
  x,y,z
_cell_length_a	14.044191
_cell_length_b	14.044220
_cell_length_c	13.101018
_cell_angle_alpha	93.664400
_cell_angle_beta	86.333122
_cell_angle_gamma	93.190327
loop_
_atom_site_label
_atom_site_type_symbol
_atom_site_fract_x
_atom_site_fract_y
_atom_site_fract_z
O1	O	1.281983	0.225382	-0.085170
O2	O	1.005311	0.217069	-0.085182
O3	O	1.139494	0.082890	-0.085166
O4	O	1.147800	0.359561	-0.085186
O5	O	1.129855	0.092525	0.085263
O6	O	0.995672	0.226704	0.085247
O7	O	1.272344	0.235017	0.085260
Zn8	Zn	1.132478	0.232390	0.112313
Zn9	Zn	1.145177	0.219695	-0.112235
O10	O	1.138162	0.369196	0.085243
C11	C	0.964870	0.218250	0.000031
C12	C	0.858727	0.207402	0.000026
C13	C	0.613268	0.264503	0.000032
C14	C	0.664393	0.187587	0.000036
C15	C	0.772531	0.198615	0.000031
C16	C	0.505121	0.253476	0.000038
C17	C	1.131038	0.052086	0.000049
C18	C	1.120194	-0.054057	0.000050
C19	C	1.100368	-0.248396	0.000034
C20	C	1.177283	-0.299524	0.000034
C21	C	1.166252	-0.407661	0.000026
C22	C	1.111398	-0.140250	0.000043
C23	C	1.312785	0.233836	0.000044
C24	C	1.418929	0.244683	0.000042
C25	C	1.146617	0.400000	0.000026
C26	C	1.157462	0.506143	0.000019
N27	N	1.123818	0.241054	0.265560
N28	N	1.153844	0.211025	-0.265483
C29	C	1.165622	0.199233	0.525475
C30	C	1.112043	0.252843	0.474596
C31	C	1.118596	0.246282	0.358278
C32	C	1.159070	0.205793	0.641804
H33	H	0.626954	0.113451	-0.000031
H34	H	0.650710	0.338629	0.000024
H35	H	1.251420	-0.262087	-0.000031
H36	H	1.061253	0.303669	0.518395
C37	C	1.008601	-0.397827	0.000038
C38	C	1.000295	-0.298933	0.000038
H39	H	0.946819	-0.429032	0.000051
H40	H	1.045652	-0.419116	-0.059395
H41	H	1.038953	-0.412402	0.059471
H42	H	0.969949	-0.284357	-0.059398
H43	H	0.963229	-0.277636	0.059477
C44	C	1.227527	0.137369	0.360902
C45	C	1.234215	0.130653	0.466357
H46	H	1.269887	0.095044	0.324399
H47	H	1.163914	0.120614	0.343382
H48	H	1.244263	0.201004	0.343407
H49	H	1.217472	0.067020	0.483853
H50	H	1.297843	0.147403	0.483884
