data_functionalizedCrystal
_audit_creation_method	'MofGen! by Chris Wilmer'
_symmetry_space_group_name_H-M	'P1'
_symmetry_Int_Tables_number	1
_symmetry_cell_setting	triclinic
loop_
_symmetry_equiv_pos_as_xyz
  x,y,z
_cell_length_a	10.723024
_cell_length_b	10.723024
_cell_length_c	9.798715
_cell_angle_alpha	89.994597
_cell_angle_beta	89.999062
_cell_angle_gamma	95.532131
loop_
_atom_site_label
_atom_site_type_symbol
_atom_site_fract_x
_atom_site_fract_y
_atom_site_fract_z
O1	O	1.657180	-0.175031	0.113450
O2	O	1.294028	-0.191785	0.113460
O3	O	1.483981	-0.001832	0.113450
O4	O	1.467228	-0.364984	0.113460
O5	O	1.483980	-0.001818	-0.113532
O6	O	1.294028	-0.191770	-0.113522
O7	O	1.657180	-0.175017	-0.113532
Zn8	Zn	1.475604	-0.183391	-0.149565
Zn9	Zn	1.475604	-0.183410	0.149493
O10	O	1.467227	-0.364970	-0.113522
C11	C	1.247528	-0.190558	-0.000029
C12	C	1.108974	-0.186911	-0.000025
N13	N	1.475612	-0.183378	-0.353665
C14	C	1.482762	0.044675	-0.000040
C15	C	1.479114	0.183229	-0.000035
C16	C	1.703680	-0.176243	-0.000040
C17	C	1.842234	-0.179891	-0.000035
C18	C	1.917217	-0.073603	-0.000036
C19	C	2.060420	-0.077371	-0.000031
C20	C	1.468447	-0.411477	-0.000029
C21	C	1.472094	-0.550031	-0.000025
C22	C	1.585401	0.258212	-0.000036
C23	C	1.581634	0.401415	-0.000031
N24	N	1.475606	-0.183414	0.353593
C25	C	1.555535	-0.103480	0.421365
C26	C	1.555540	-0.103460	0.578528
H27	H	1.875395	0.020182	-0.000062
C28	C	2.021939	-0.309845	-0.000025
N29	N	1.956375	-0.402439	-0.000028
H30	H	1.381099	0.385544	-0.000034
C31	C	1.712107	0.201719	-0.000050
N32	N	1.807545	0.159170	-0.000065
C33	C	1.352408	0.239722	-0.000033
N34	N	1.256970	0.282271	-0.000036
H35	H	1.407173	-0.251812	0.588062
C36	C	2.147462	0.045558	-0.000036
N37	N	2.213027	0.138152	-0.000043
C38	C	1.704563	0.488458	-0.000033
N39	N	1.797157	0.554022	-0.000033
C40	C	1.647981	-0.011043	0.342571
N41	N	1.717611	0.058584	0.283225
C42	C	1.647982	-0.010996	0.657261
N43	N	1.717612	0.058652	0.716567
H44	H	1.884056	-0.273677	-0.000038
C45	C	1.383159	-0.275849	0.432387
N46	N	1.313524	-0.345473	0.491733
