data_functionalizedCrystal
_audit_creation_method	'MofGen! by Chris Wilmer'
_symmetry_space_group_name_H-M	'P1'
_symmetry_Int_Tables_number	1
_symmetry_cell_setting	triclinic
loop_
_symmetry_equiv_pos_as_xyz
  x,y,z
_cell_length_a	19.077105
_cell_length_b	18.101395
_cell_length_c	19.077271
_cell_angle_alpha	87.712642
_cell_angle_beta	89.912562
_cell_angle_gamma	87.727498
loop_
_atom_site_label
_atom_site_type_symbol
_atom_site_fract_x
_atom_site_fract_y
_atom_site_fract_z
Zn1	Zn	1.058149	-0.358390	0.440417
Zn2	Zn	1.558149	0.141610	0.940417
Zn3	Zn	1.062797	-0.477431	0.322913
Zn4	Zn	1.562797	0.022569	0.822913
Zn5	Zn	0.945391	-0.348436	0.318212
Zn6	Zn	1.445391	0.151564	0.818212
Zn7	Zn	0.940598	-0.477014	0.435664
Zn8	Zn	1.440598	0.022986	0.935664
O9	O	1.001734	-0.415318	0.379302
O10	O	1.501734	0.084682	0.879302
O11	O	1.157096	-0.378521	0.428787
O12	O	1.657096	0.121479	0.928787
O13	O	1.051174	-0.456328	0.223959
O14	O	1.551174	0.043672	0.723959
O15	O	0.960408	-0.246127	0.334444
O16	O	1.460408	0.253873	0.834444
O17	O	1.160511	-0.465980	0.342456
O18	O	1.660511	0.034020	0.842456
O19	O	1.043251	-0.253440	0.424228
O20	O	1.543251	0.246560	0.924228
O21	O	0.964916	-0.361556	0.220505
O22	O	1.464916	0.138444	0.720505
O23	O	0.846424	-0.361153	0.329835
O24	O	1.346424	0.138847	0.829835
O25	O	0.952241	-0.465270	0.534625
O26	O	1.452241	0.034730	1.034625
O27	O	0.842903	-0.455618	0.416127
O28	O	1.342903	0.044382	0.916127
O29	O	1.038605	-0.378117	0.538117
O30	O	1.538605	0.121883	1.038117
O31	O	1.046527	-0.581005	0.337848
O32	O	1.546527	-0.081005	0.837848
O33	O	0.956748	-0.580699	0.420686
O34	O	1.456748	-0.080699	0.920686
C35	C	0.819168	-0.407261	0.371956
C36	C	1.319168	0.092739	0.871956
C37	C	0.741065	-0.403833	0.368830
C38	C	1.241065	0.096167	0.868830
C39	C	0.702560	-0.451474	0.412219
C40	C	1.202560	0.048526	0.912219
C41	C	0.629173	-0.448243	0.409285
C42	C	1.129173	0.051757	0.909285
C43	C	0.594293	-0.397374	0.362959
C44	C	1.094293	0.102626	0.862959
C45	C	0.632803	-0.349728	0.319569
C46	C	1.132803	0.150272	0.819569
C47	C	0.706188	-0.352955	0.322506
C48	C	1.206188	0.147045	0.822506
C49	C	0.375010	-0.382435	0.349366
C50	C	0.875010	0.117565	0.849366
C51	C	0.301620	-0.379213	0.346430
C52	C	0.801620	0.120787	0.846430
C53	C	0.297995	-0.477727	0.436148
C54	C	0.797995	0.022273	0.936148
C55	C	0.371382	-0.480954	0.439079
C56	C	0.871382	0.019046	0.939079
C57	C	0.409885	-0.433305	0.395691
C58	C	0.909885	0.066695	0.895691
N59	N	0.519281	-0.394072	0.359958
N60	N	1.019281	0.105928	0.859958
N61	N	0.484896	-0.436604	0.398696
N62	N	0.984896	0.063396	0.898696
C63	C	1.001641	-0.607723	0.379277
C64	C	1.501641	-0.107723	0.879277
C65	C	1.001664	-0.690039	0.379293
C66	C	1.501664	-0.190039	0.879293
C67	C	1.001817	-0.989138	0.379337
C68	C	1.501817	-0.489138	0.879337
C69	C	0.945451	-0.957663	0.431596
C70	C	1.445451	-0.457663	0.931596
C71	C	0.945200	-0.872026	0.431416
C72	C	1.445200	-0.372026	0.931416
C73	C	1.001741	-0.840752	0.379316
C74	C	1.501741	-0.340752	0.879316
C75	C	0.984685	-0.867993	0.304456
C76	C	1.484685	-0.367993	0.804456
C77	C	0.984322	-0.953636	0.304767
C78	C	1.484322	-0.453636	0.804767
C79	C	1.075384	-0.961532	0.401290
C80	C	1.575384	-0.461532	0.901290
C81	C	1.074881	-0.875928	0.402897
C82	C	1.574881	-0.375928	0.902897
C83	C	1.001700	-0.756890	0.379299
C84	C	1.501700	-0.256890	0.879299
C85	C	1.001857	-1.073000	0.379348
C86	C	1.501857	-0.573000	0.879348
C87	C	1.185013	-0.423407	0.386676
C88	C	1.685013	0.076593	0.886676
C89	C	1.263115	-0.426854	0.389819
C90	C	1.763115	0.073146	0.889819
C91	C	0.994370	-0.422757	0.562580
C92	C	1.494370	0.077243	1.062580
C93	C	0.991231	-0.425928	0.640683
C94	C	1.491231	0.074072	1.140683
C95	C	1.001846	-0.222162	0.379342
C96	C	1.501846	0.277838	0.879342
C97	C	1.001894	-0.139851	0.379360
C98	C	1.501894	0.360149	0.879360
C99	C	1.034720	-0.382043	0.679195
C100	C	1.534720	0.117957	1.179195
C101	C	1.031763	-0.385019	0.752580
C102	C	1.531763	0.114981	1.252580
C103	C	0.985320	-0.431883	0.787452
C104	C	1.485320	0.068117	1.287452
C105	C	0.941827	-0.475769	0.748935
C106	C	1.441827	0.024231	1.248935
C107	C	0.944781	-0.472789	0.675551
C108	C	1.444781	0.027211	1.175551
C109	C	0.971660	-0.445658	1.006732
C110	C	1.471660	0.054342	1.506732
C111	C	0.968710	-0.448636	1.080121
C112	C	1.468710	0.051364	1.580121
C113	C	1.058646	-0.357884	1.083761
C114	C	1.558646	0.142116	1.583761
C115	C	1.061599	-0.354912	1.010375
C116	C	1.561599	0.145088	1.510375
C117	C	1.018103	-0.398795	0.971864
C118	C	1.518103	0.101205	1.471864
N119	N	0.982298	-0.434928	0.862464
N120	N	1.482298	0.065072	1.362464
N121	N	1.021122	-0.395746	0.896854
N122	N	1.521122	0.104254	1.396854
C123	C	1.009063	-0.407923	1.196735
C124	C	1.509063	0.092077	1.696735
C125	C	1.012199	-0.404752	1.118633
C126	C	1.512199	0.095248	1.618633
H127	H	0.273223	-0.337781	0.308710
H128	H	0.773223	0.162219	0.808710
O129	O	0.412300	-0.336120	0.307151
O130	O	0.912300	0.163880	0.807151
C131	C	0.365775	-0.290519	0.265647
C132	C	0.865775	0.209481	0.765647
H133	H	0.313552	-0.318453	0.261065
H134	H	0.813552	0.181547	0.761065
H135	H	0.389194	-0.281205	0.211146
H136	H	0.889194	0.218795	0.711146
H137	H	0.356956	-0.235027	0.291166
H138	H	0.856956	0.264973	0.791166
H139	H	0.904010	-0.513925	0.777333
H140	H	1.404010	-0.013925	1.277333
H141	H	0.931584	-0.843571	0.285940
H142	H	1.431584	-0.343571	0.785940
H143	H	1.117342	-0.981939	0.363264
H144	H	1.617342	-0.481939	0.863264
O145	O	0.923629	-0.494259	1.113924
O146	O	1.423629	0.005741	1.613924
C147	C	0.939665	-0.568022	1.096612
C148	C	1.439665	-0.068022	1.596612
H149	H	0.968813	-0.568593	1.044415
H150	H	1.468813	-0.068593	1.544415
H151	H	0.889030	-0.598882	1.092061
H152	H	1.389030	-0.098882	1.592061
H153	H	0.974118	-0.596236	1.139362
H154	H	1.474118	-0.096236	1.639362
H155	H	0.909361	-0.508517	0.644195
H156	H	1.409361	-0.008517	1.144195
H157	H	1.118858	-0.854885	0.367845
H158	H	1.618858	-0.354885	0.867845
O159	O	0.743569	-0.306755	0.280254
O160	O	1.243569	0.193245	0.780254
C161	C	0.728418	-0.319180	0.209475
C162	C	1.228418	0.180820	0.709475
H163	H	0.708361	-0.377299	0.205021
H164	H	1.208361	0.122701	0.705021
H165	H	0.778070	-0.313460	0.176704
H166	H	1.278070	0.186540	0.676704
H167	H	0.686573	-0.276828	0.189467
H168	H	1.186573	0.223172	0.689467
H169	H	1.024580	-0.847603	0.264326
H170	H	1.524580	-0.347603	0.764326
H171	H	0.604398	-0.308306	0.281852
H172	H	1.104398	0.191694	0.781852
H173	H	0.955525	-0.853759	0.486830
H174	H	1.455525	-0.353759	0.986830
H175	H	1.087798	-0.858459	0.458004
H176	H	1.587798	-0.358459	0.958004
O177	O	0.260628	-0.524108	0.478227
O178	O	0.760628	-0.024108	0.978227
C179	C	0.279158	-0.598053	0.463483
C180	C	0.779158	-0.098053	0.963483
H181	H	0.301567	-0.600316	0.408147
H182	H	0.801567	-0.100316	0.908147
H183	H	0.230642	-0.632771	0.467553
H184	H	0.730642	-0.132771	0.967553
H185	H	0.320246	-0.620868	0.502827
H186	H	0.820246	-0.120868	1.002827
H187	H	1.072541	-0.343883	0.650807
H188	H	1.572541	0.156117	1.150807
H189	H	0.955643	-0.981009	0.487184
H190	H	1.455643	-0.481009	0.987184
O191	O	0.880759	-0.979962	0.414060
O192	O	1.380759	-0.479962	0.914060
C193	C	0.886220	-1.023931	0.354785
C194	C	1.386220	-0.523931	0.854785
H195	H	0.935907	-1.010400	0.324415
H196	H	1.435907	-0.510400	0.824415
H197	H	0.838529	-1.012043	0.319592
H198	H	1.338529	-0.512043	0.819592
H199	H	0.888639	-1.084902	0.372414
H200	H	1.388639	-0.584902	0.872414
O201	O	1.074081	-0.342367	0.789884
O202	O	1.574081	0.157633	1.289884
C203	C	1.115697	-0.300356	0.743369
C204	C	1.615697	0.199644	1.243369
H205	H	1.120215	-0.328674	0.691150
H206	H	1.620215	0.171326	1.191150
H207	H	1.170212	-0.295766	0.766805
H208	H	1.670212	0.204234	1.266805
H209	H	1.090317	-0.242658	0.734538
H210	H	1.590317	0.257342	1.234538
H211	H	1.094056	-0.322156	1.115124
H212	H	1.594056	0.177844	1.615124
H213	H	0.399776	-0.522378	0.476801
H214	H	0.899776	-0.022378	0.976801
O215	O	1.106729	-0.309320	0.976612
O216	O	1.606729	0.190680	1.476612
C217	C	1.144493	-0.271237	1.026342
C218	C	1.644493	0.228763	1.526342
H219	H	1.113608	-0.269525	1.077493
H220	H	1.613608	0.230475	1.577493
H221	H	1.152877	-0.212361	1.005452
H222	H	1.652877	0.287639	1.505452
H223	H	1.197529	-0.301029	1.036291
H224	H	1.697529	0.198971	1.536291
H225	H	0.930634	-0.970629	0.286517
H226	H	1.430634	-0.470629	0.786517
O227	O	0.736328	-0.500910	0.457283
O228	O	1.236328	-0.000910	0.957283
C229	C	0.686602	-0.542277	0.494938
C230	C	1.186602	-0.042277	0.994938
H231	H	0.634206	-0.509747	0.495325
H232	H	1.134206	-0.009747	0.995325
H233	H	0.705588	-0.553445	0.551137
H234	H	1.205588	-0.053445	1.051137
H235	H	0.679804	-0.597088	0.468800
H236	H	1.179804	-0.097088	0.968800
H237	H	0.597826	-0.487038	0.444616
H238	H	1.097826	0.012962	0.944616
O239	O	0.880056	-0.844117	0.413905
O240	O	1.380056	-0.344117	0.913905
C241	C	0.852854	-0.802058	0.469083
C242	C	1.352854	-0.302058	0.969083
H243	H	0.880118	-0.820890	0.520225
H244	H	1.380118	-0.320890	1.020225
H245	H	0.794103	-0.810271	0.474227
H246	H	1.294103	-0.310271	0.974227
H247	H	0.862342	-0.741007	0.457416
H248	H	1.362342	-0.241007	0.957416
O249	O	1.031282	-0.978266	0.256449
O250	O	1.531282	-0.478266	0.756449
C251	C	1.012253	-0.948423	0.189453
C252	C	1.512253	-0.448423	0.689453
H253	H	0.953860	-0.932373	0.188825
H254	H	1.453860	-0.432373	0.688825
H255	H	1.023818	-0.991462	0.148526
H256	H	1.523818	-0.491462	0.648526
H257	H	1.043692	-0.897305	0.176831
H258	H	1.543692	-0.397305	0.676831
O259	O	1.094513	-0.990820	0.465512
O260	O	1.594513	-0.490820	0.965512
C261	C	1.041673	-1.036788	0.491587
C262	C	1.541673	-0.536788	0.991587
H263	H	0.989661	-1.019751	0.465112
H264	H	1.489661	-0.519751	0.965112
H265	H	1.036445	-1.030991	0.550669
H266	H	1.536445	-0.530991	1.050669
H267	H	1.056184	-1.096793	0.480067
H268	H	1.556184	-0.596793	0.980067
O269	O	0.929509	-0.488327	0.969262
O270	O	1.429509	0.011673	1.469262
C271	C	0.971184	-0.536220	0.928425
C272	C	1.471184	-0.036220	1.428425
H273	H	1.024892	-0.512009	0.919568
H274	H	1.524892	-0.012009	1.419568
H275	H	0.944621	-0.542791	0.875673
H276	H	1.444621	-0.042791	1.375673
H277	H	0.977738	-0.592585	0.957012
H278	H	1.477738	-0.092585	1.457012
