data_functionalizedCrystal
_audit_creation_method	'MofGen! by Chris Wilmer'
_symmetry_space_group_name_H-M	'P1'
_symmetry_Int_Tables_number	1
_symmetry_cell_setting	triclinic
loop_
_symmetry_equiv_pos_as_xyz
  x,y,z
_cell_length_a	14.971506
_cell_length_b	19.288857
_cell_length_c	14.048226
_cell_angle_alpha	90.009213
_cell_angle_beta	90.001638
_cell_angle_gamma	83.377748
loop_
_atom_site_label
_atom_site_type_symbol
_atom_site_fract_x
_atom_site_fract_y
_atom_site_fract_z
O1	O	1.186436	0.090586	0.079172
O2	O	0.925979	0.101411	0.079173
O3	O	1.063737	-0.005108	0.079161
O4	O	1.048678	0.197104	0.079184
O5	O	1.063734	-0.005116	-0.079160
O6	O	0.925977	0.101402	-0.079148
O7	O	1.186433	0.090577	-0.079149
Zn8	Zn	1.056204	0.095988	-0.104286
Zn9	Zn	1.056208	0.096000	0.104309
O10	O	1.048675	0.197095	-0.079137
C11	C	0.892656	0.100920	0.000012
C12	C	0.793368	0.099461	0.000012
C13	C	0.354775	0.156474	0.000028
C14	C	0.448068	0.157838	0.000033
C15	C	0.505629	0.095255	0.000021
C16	C	0.469892	0.031302	0.000015
C17	C	0.376601	0.029938	0.000018
C18	C	0.664340	0.034150	0.000008
C19	C	0.757637	0.035514	0.000003
C20	C	0.735807	0.162050	0.000022
C21	C	0.642516	0.160686	0.000025
C22	C	0.606786	0.096733	0.000017
C23	C	1.063252	-0.030990	-0.000001
C24	C	1.061801	-0.108099	-0.000003
C25	C	1.061126	-0.144307	0.086298
C26	C	1.059749	-0.216757	0.086305
C27	C	1.059067	-0.252999	0.000006
C28	C	1.059738	-0.216782	-0.086307
C29	C	1.061105	-0.144332	-0.086311
C30	C	1.109289	-0.373068	-0.066104
C31	C	1.107928	-0.445517	-0.066096
C32	C	1.054846	-0.476459	0.000017
C33	C	1.003138	-0.434944	0.066137
C34	C	1.004505	-0.362494	0.066133
C35	C	1.057584	-0.331559	0.000001
C36	C	1.052677	-0.591226	0.086331
C37	C	1.051295	-0.663677	0.086335
C38	C	1.051293	-0.663701	-0.086279
C39	C	1.052665	-0.591250	-0.086280
C40	C	1.053362	-0.555017	0.000028
C41	C	1.219756	0.091068	0.000013
C42	C	1.319045	0.092526	0.000020
C43	C	1.049160	0.222978	0.000026
C44	C	1.050611	0.300086	0.000035
N45	N	1.056211	0.096002	0.246670
N46	N	1.056208	0.095980	-0.246646
C47	C	1.117323	0.048929	0.296483
C48	C	1.117327	0.048927	0.396141
C49	C	1.056214	0.095995	0.445984
C50	C	0.995099	0.143074	0.396164
C51	C	0.995100	0.143079	0.296508
C52	C	0.995099	0.143059	0.603878
C53	C	0.995096	0.143053	0.703541
C54	C	1.117326	0.048907	0.703511
C55	C	1.117327	0.048912	0.603855
C56	C	1.056211	0.095990	0.554042
H57	H	0.347511	-0.022134	0.000013
H58	H	1.053239	-0.561723	0.156608
N59	N	1.183242	-0.001844	0.449868
H60	H	1.221953	-0.031663	0.403171
H61	H	1.149209	-0.032653	0.491207
H62	H	1.167089	0.010575	0.744074
N63	N	0.580430	0.228184	-0.000041
H64	H	0.617218	0.268905	-0.000058
H65	H	0.541217	0.230409	0.058629
H66	H	1.167085	0.010598	0.255907
H67	H	1.167086	0.010582	0.563273
N68	N	1.050641	-0.702742	0.179421
H69	H	1.051319	-0.668795	0.234092
H70	H	1.105536	-0.738364	0.183115
N71	N	0.929181	0.193844	0.242773
H72	H	0.963150	0.224704	0.201439
H73	H	0.890478	0.223613	0.289527
H74	H	1.061690	-0.114810	0.156576
H75	H	0.804502	-0.015447	0.000002
H76	H	0.477155	0.209911	0.000049
N77	N	0.774337	0.231029	0.000027
H78	H	0.842170	0.222399	0.000027
H79	H	0.753265	0.258423	0.058719
N80	N	1.050547	-0.702778	-0.179361
H81	H	1.049575	-0.754170	-0.166265
H82	H	1.106221	-0.695705	-0.217052
N83	N	0.929186	0.193820	0.757304
H84	H	0.890475	0.223649	0.710628
H85	H	0.963227	0.224621	0.798664
N86	N	0.625799	-0.034826	0.000006
H87	H	0.676418	-0.074266	-0.000005
H88	H	0.587564	-0.038148	-0.058685
H89	H	1.059194	-0.246243	0.156584
N90	N	0.531973	-0.036198	-0.000006
H91	H	0.495179	-0.076916	-0.000010
H92	H	0.571162	-0.038389	0.058682
N93	N	0.948738	-0.317716	0.137439
H94	H	0.914901	-0.348305	0.179326
H95	H	0.904557	-0.283155	0.102588
N96	N	0.929175	0.193834	0.550158
H97	H	0.889760	0.167174	0.508801
H98	H	0.963202	0.224685	0.508876
N99	N	0.292695	0.223975	0.000010
H100	H	0.329491	0.264692	0.000011
H101	H	0.253504	0.226179	0.058696
H102	H	0.959914	-0.460135	0.119973
N103	N	1.053404	-0.552192	-0.179362
H104	H	1.052764	-0.586143	-0.234033
H105	H	1.109409	-0.527718	-0.183121
H106	H	1.150035	-0.479314	-0.119932
H107	H	1.152513	-0.347881	-0.119949
H108	H	1.061651	-0.114851	-0.156590
H109	H	1.059179	-0.246294	-0.156572
N110	N	0.929183	0.193837	0.449925
H111	H	0.865773	0.185658	0.432572
H112	H	0.939235	0.243154	0.432582
