data_functionalizedCrystal
_audit_creation_method	'MofGen! by Chris Wilmer'
_symmetry_space_group_name_H-M	'P1'
_symmetry_Int_Tables_number	1
_symmetry_cell_setting	triclinic
loop_
_symmetry_equiv_pos_as_xyz
  x,y,z
_cell_length_a	13.635800
_cell_length_b	17.078472
_cell_length_c	17.284648
_cell_angle_alpha	92.839333
_cell_angle_beta	76.959528
_cell_angle_gamma	80.693980
loop_
_atom_site_label
_atom_site_type_symbol
_atom_site_fract_x
_atom_site_fract_y
_atom_site_fract_z
V1	V	1.996567	-0.094524	-0.245695
O2	O	2.001359	0.020233	-0.241100
O3	O	1.962134	-0.202516	-0.243937
O4	O	1.969735	-0.086185	-0.352887
O5	O	1.993706	-0.096903	-0.131395
V6	V	2.240048	-0.081611	-0.232034
O7	O	2.123424	-0.122849	-0.275663
O8	O	2.338289	-0.053286	-0.202065
O9	O	2.162877	0.026381	-0.233792
O10	O	2.293953	-0.196368	-0.236629
O11	O	2.301607	-0.079232	-0.346334
O12	O	2.155276	-0.089950	-0.124842
V13	V	2.496567	-0.094524	-0.245695
O14	O	2.501359	0.020233	-0.241100
O15	O	2.462134	-0.202516	-0.243937
O16	O	2.469735	-0.086185	-0.352887
O17	O	2.493706	-0.096903	-0.131395
V18	V	2.740048	-0.081611	-0.232034
O19	O	2.623424	-0.122849	-0.275663
O20	O	2.838289	-0.053286	-0.202065
O21	O	2.662877	0.026381	-0.233792
O22	O	2.793953	-0.196368	-0.236629
O23	O	2.801607	-0.079232	-0.346334
O24	O	2.655276	-0.089950	-0.124842
C25	C	1.882230	-0.229057	-0.240040
C26	C	1.894703	-0.317297	-0.239317
C27	C	1.991131	-0.362550	-0.242906
C28	C	2.002846	-0.445462	-0.242231
C29	C	1.918131	-0.483118	-0.237961
C30	C	1.821696	-0.437860	-0.234374
C31	C	1.809983	-0.354950	-0.235055
C32	C	1.943449	-0.730674	-0.235509
C33	C	1.955169	-0.813590	-0.234826
C34	C	2.136320	-0.821186	-0.242684
C35	C	2.124597	-0.738274	-0.243360
C36	C	2.028165	-0.693023	-0.239777
N37	N	1.930103	-0.567867	-0.237268
N38	N	2.016196	-0.608277	-0.240475
C39	C	1.891926	-0.080665	-0.379017
C40	C	1.910562	-0.074561	-0.466646
C41	C	1.932229	-0.143652	-0.519019
C42	C	1.949744	-0.137916	-0.601356
C43	C	1.945584	-0.063088	-0.631319
C44	C	1.923918	0.006008	-0.578939
C45	C	1.906411	0.000271	-0.496604
C46	C	1.996566	-0.038214	-0.876363
C47	C	2.014073	-0.032482	-0.958705
C48	C	2.039899	-0.176406	-0.981116
C49	C	2.022384	-0.182136	-0.898778
C50	C	2.000725	-0.113041	-0.846406
N51	N	1.963484	-0.057223	-0.715480
N52	N	1.982833	-0.118907	-0.762247
C53	C	2.074451	0.052918	-0.237686
C54	C	2.051597	0.141158	-0.238415
C55	C	2.064756	-0.095473	-0.098708
C56	C	2.035739	-0.101573	-0.011078
C57	C	2.382230	-0.229057	-0.240040
C58	C	2.394703	-0.317297	-0.239317
C59	C	2.391926	-0.080665	-0.379017
C60	C	2.410562	-0.074561	-0.466646
C61	C	2.574451	0.052918	-0.237686
C62	C	2.551597	0.141158	-0.238415
C63	C	2.564756	-0.095473	-0.098708
C64	C	2.535739	-0.101573	-0.011078
C65	C	2.491141	-0.362537	-0.242913
C66	C	2.502878	-0.445450	-0.242245
C67	C	2.418174	-0.483121	-0.237976
C68	C	2.321730	-0.437876	-0.234382
C69	C	2.309995	-0.354965	-0.235056
C70	C	2.509898	-0.075401	-0.511813
C71	C	2.527421	-0.069656	-0.594149
C72	C	2.445607	-0.063077	-0.631318
C73	C	2.346263	-0.062234	-0.586145
C74	C	2.328740	-0.067974	-0.503809
C75	C	2.627653	0.186397	-0.234821
C76	C	2.606188	0.269310	-0.235493
C77	C	2.508668	0.306981	-0.239764
C78	C	2.432606	0.261735	-0.243355
C79	C	2.454070	0.178825	-0.242678
C80	C	2.435323	-0.108142	0.026071
C81	C	2.408042	-0.113864	0.108409
C82	C	2.481181	-0.113021	0.153598
C83	C	2.581606	-0.106449	0.116444
C84	C	2.608883	-0.100722	0.034108
H85	H	2.060116	-0.331896	-0.246375
N86	N	2.688240	0.318097	-0.231636
H87	H	2.664935	0.357324	-0.182656
H88	H	2.753243	0.281589	-0.228871
N89	N	2.598148	-0.082481	-0.471735
H90	H	2.571988	-0.085988	-0.412720
H91	H	2.649559	-0.132030	-0.495500
H92	H	2.214832	-0.858038	-0.245601
N93	N	2.063275	-0.250923	-1.037609
H94	H	2.127473	-0.285902	-1.030906
H95	H	2.004224	-0.280798	-1.025425
H96	H	1.731463	-0.318107	-0.232136
H97	H	2.081367	-0.482303	-0.245155
H98	H	2.025777	-0.243069	-0.874390
H99	H	2.353205	0.292420	-0.246832
N100	N	2.215976	-0.697663	-0.247995
H101	H	2.278845	-0.738913	-0.250177
H102	H	2.226714	-0.668100	-0.297545
H103	H	2.458959	-0.117695	0.220639
N104	N	1.863793	-0.854208	-0.230217
H105	H	1.800926	-0.812962	-0.228052
H106	H	1.876390	-0.893106	-0.278849
H107	H	2.459890	-0.058404	-0.698361
H108	H	1.864929	-0.693841	-0.232587
H109	H	2.252769	-0.468560	-0.230906
H110	H	1.752721	-0.468527	-0.230902
N111	N	2.258027	-0.055138	-0.626239
H112	H	2.284213	-0.051634	-0.685251
H113	H	2.224200	-0.103461	-0.617726
N114	N	2.356420	-0.109054	-0.022651
H115	H	2.298345	-0.062732	-0.002455
H116	H	2.389005	-0.104459	-0.080439
N117	N	2.205968	-0.306182	-0.231165
H118	H	2.185385	-0.266960	-0.182180
H119	H	2.208792	-0.276317	-0.280387
N120	N	2.606906	-0.494210	-0.246073
H121	H	2.604110	-0.524104	-0.196869
H122	H	2.627497	-0.533404	-0.295076
H123	H	2.560121	-0.331876	-0.246384
H124	H	1.935611	-0.204585	-0.494631
H125	H	1.978931	0.018049	-0.833731
H126	H	2.491205	0.374492	-0.240314
H127	H	2.247850	-0.067290	-0.467040
H128	H	2.427743	-0.550633	-0.237428
N129	N	2.009589	0.048229	-0.991024
H130	H	1.993215	0.091131	-0.945354
H131	H	2.077891	0.051211	-1.027429
H132	H	1.967390	-0.194177	-0.643996
N133	N	2.372032	0.130035	-0.246557
H134	H	2.307003	0.166486	-0.249367
H135	H	2.395446	0.090814	-0.295537
N136	N	2.634571	-0.070563	-0.642861
H137	H	2.683735	-0.075609	-0.606817
H138	H	2.654574	-0.117278	-0.684824
N139	N	2.732815	0.145633	-0.230309
H140	H	2.748885	0.166265	-0.179644
H141	H	2.734633	0.086269	-0.230498
H142	H	2.326267	-0.119214	0.138648
N143	N	1.919437	0.086716	-0.611251
H144	H	1.933812	0.079868	-0.671357
H145	H	1.849138	0.119661	-0.589234
N146	N	1.883047	0.074789	-0.440112
H147	H	1.883067	0.123063	-0.471585
H148	H	1.813622	0.078069	-0.402731
H149	H	2.641148	-0.105762	0.153249
H150	H	2.690655	-0.095378	0.003868
