data_functionalizedCrystal
_audit_creation_method	'MofGen! by Chris Wilmer'
_symmetry_space_group_name_H-M	'P1'
_symmetry_Int_Tables_number	1
_symmetry_cell_setting	triclinic
loop_
_symmetry_equiv_pos_as_xyz
  x,y,z
_cell_length_a	19.805405
_cell_length_b	21.395362
_cell_length_c	21.395356
_cell_angle_alpha	90.042977
_cell_angle_beta	89.970920
_cell_angle_gamma	89.957712
loop_
_atom_site_label
_atom_site_type_symbol
_atom_site_fract_x
_atom_site_fract_y
_atom_site_fract_z
Zn1	Zn	-0.269193	-0.957872	-0.354580
Zn2	Zn	-0.019193	-0.707872	-0.104580
Zn3	Zn	0.230807	-0.457872	0.145420
Zn4	Zn	0.480807	-0.207872	0.395420
Zn5	Zn	-0.382381	-0.957784	-0.249800
Zn6	Zn	-0.132381	-0.707784	0.000200
Zn7	Zn	0.117619	-0.457784	0.250200
Zn8	Zn	0.367619	-0.207784	0.500200
Zn9	Zn	-0.269243	-0.853089	-0.249781
Zn10	Zn	-0.019243	-0.603089	0.000219
Zn11	Zn	0.230757	-0.353089	0.250219
Zn12	Zn	0.480757	-0.103089	0.500219
Zn13	Zn	-0.382377	-0.853064	-0.354504
Zn14	Zn	-0.132377	-0.603064	-0.104504
Zn15	Zn	0.117623	-0.353064	0.145496
Zn16	Zn	0.367623	-0.103064	0.395496
O17	O	-0.325799	-0.905452	-0.302166
O18	O	-0.075799	-0.655452	-0.052166
O19	O	0.174201	-0.405452	0.197834
O20	O	0.424201	-0.155452	0.447834
O21	O	-0.284189	-1.045539	-0.340720
O22	O	-0.034189	-0.795539	-0.090720
O23	O	0.215811	-0.545539	0.159280
O24	O	0.465811	-0.295539	0.409280
O25	O	-0.367396	-0.943870	-0.162119
O26	O	-0.117396	-0.693870	0.087881
O27	O	0.132604	-0.443870	0.337881
O28	O	0.382604	-0.193870	0.587881
O29	O	-0.174520	-0.867036	-0.263706
O30	O	0.075480	-0.617036	-0.013706
O31	O	0.325480	-0.367036	0.236294
O32	O	0.575480	-0.117036	0.486294
O33	O	-0.367348	-1.045474	-0.263738
O34	O	-0.117348	-0.795474	-0.013738
O35	O	0.132652	-0.545474	0.236262
O36	O	0.382652	-0.295474	0.486262
O37	O	-0.174483	-0.944020	-0.340701
O38	O	0.075517	-0.694020	-0.090701
O39	O	0.325517	-0.444020	0.159299
O40	O	0.575517	-0.194020	0.409299
O41	O	-0.284274	-0.866951	-0.162105
O42	O	-0.034274	-0.616951	0.087895
O43	O	0.215726	-0.366951	0.337895
O44	O	0.465726	-0.116951	0.587895
O45	O	-0.284270	-0.765408	-0.263633
O46	O	-0.034270	-0.515408	-0.013633
O47	O	0.215730	-0.265408	0.236367
O48	O	0.465730	-0.015408	0.486367
O49	O	-0.367341	-0.866994	-0.442192
O50	O	-0.117341	-0.616994	-0.192192
O51	O	0.132659	-0.366994	0.057808
O52	O	0.382659	-0.116994	0.307808
O53	O	-0.367389	-0.765390	-0.340573
O54	O	-0.117389	-0.515390	-0.090573
O55	O	0.132611	-0.265390	0.159427
O56	O	0.382611	-0.015390	0.409427
O57	O	-0.284185	-0.943996	-0.442247
O58	O	-0.034185	-0.693996	-0.192247
O59	O	0.215815	-0.443996	0.057753
O60	O	0.465815	-0.193996	0.307753
O61	O	-0.477097	-0.943846	-0.263665
O62	O	-0.227097	-0.693846	-0.013665
O63	O	0.022903	-0.443846	0.236335
O64	O	0.272903	-0.193846	0.486335
O65	O	-0.477094	-0.866908	-0.340591
O66	O	-0.227094	-0.616908	-0.090591
O67	O	0.022906	-0.366908	0.159409
O68	O	0.272906	-0.116908	0.409409
C69	C	-0.325835	-0.742665	-0.302093
C70	C	-0.075835	-0.492665	-0.052093
C71	C	0.174165	-0.242665	0.197907
C72	C	0.424165	0.007335	0.447907
C73	C	-0.325866	-0.673024	-0.302077
C74	C	-0.075866	-0.423024	-0.052077
C75	C	0.174134	-0.173024	0.197923
C76	C	0.424134	0.076976	0.447923
C77	C	-0.501655	-0.905382	-0.302136
C78	C	-0.251655	-0.655382	-0.052136
C79	C	-0.001655	-0.405382	0.197864
C80	C	0.248345	-0.155382	0.447864
C81	C	-0.576887	-0.905409	-0.302144
C82	C	-0.326887	-0.655409	-0.052144
C83	C	-0.076887	-0.405409	0.197856
C84	C	0.173113	-0.155409	0.447856
C85	C	-0.325757	-0.905502	-0.465589
C86	C	-0.075757	-0.655502	-0.215589
C87	C	0.174243	-0.405502	0.034411
C88	C	0.424243	-0.155502	0.284411
C89	C	-0.325739	-0.905523	-0.535231
C90	C	-0.075739	-0.655523	-0.285231
C91	C	0.174261	-0.405523	-0.035231
C92	C	0.424261	-0.155523	0.214769
C93	C	-0.612210	-0.945509	-0.262130
C94	C	-0.362210	-0.695509	-0.012130
C95	C	-0.112210	-0.445509	0.237870
C96	C	0.137790	-0.195509	0.487870
C97	C	-0.682898	-0.945536	-0.262144
C98	C	-0.432898	-0.695536	-0.012144
C99	C	-0.182898	-0.445536	0.237856
C100	C	0.067102	-0.195536	0.487856
C101	C	-0.718262	-0.905459	-0.302169
C102	C	-0.468262	-0.655459	-0.052169
C103	C	-0.218262	-0.405459	0.197831
C104	C	0.031738	-0.155459	0.447831
C105	C	-0.682934	-0.865357	-0.342187
C106	C	-0.432934	-0.615357	-0.092187
C107	C	-0.182934	-0.365357	0.157813
C108	C	0.067066	-0.115357	0.407813
C109	C	-0.612247	-0.865334	-0.342175
C110	C	-0.362247	-0.615334	-0.092175
C111	C	-0.112247	-0.365334	0.157825
C112	C	0.137753	-0.115334	0.407825
C113	C	-0.968007	-0.865449	-0.342233
C114	C	-0.718007	-0.615449	-0.092233
C115	C	-0.468007	-0.365449	0.157767
C116	C	-0.218007	-0.115449	0.407767
C117	C	-1.038699	-0.865474	-0.342240
C118	C	-0.788699	-0.615474	-0.092240
C119	C	-0.538699	-0.365474	0.157760
C120	C	-0.288699	-0.115474	0.407760
C121	C	-1.038659	-0.945651	-0.262202
C122	C	-0.788659	-0.695651	-0.012202
C123	C	-0.538659	-0.445651	0.237798
C124	C	-0.288659	-0.195651	0.487798
C125	C	-0.967972	-0.945628	-0.262191
C126	C	-0.717972	-0.695628	-0.012191
C127	C	-0.467972	-0.445628	0.237809
C128	C	-0.217972	-0.195628	0.487809
C129	C	-0.932650	-0.905529	-0.302210
C130	C	-0.682650	-0.655529	-0.052210
C131	C	-0.432650	-0.405529	0.197790
C132	C	-0.182650	-0.155529	0.447790
C133	C	-0.856001	-0.905501	-0.302196
C134	C	-0.606001	-0.655501	-0.052196
C135	C	-0.356001	-0.405501	0.197804
C136	C	-0.106001	-0.155501	0.447804
C137	C	-0.794909	-0.905483	-0.302181
C138	C	-0.544909	-0.655483	-0.052181
C139	C	-0.294909	-0.405483	0.197819
C140	C	-0.044909	-0.155483	0.447819
C141	C	-0.149256	-0.905540	-0.302210
C142	C	0.100744	-0.655540	-0.052210
C143	C	0.350744	-0.405540	0.197790
C144	C	0.600744	-0.155540	0.447790
C145	C	-0.074024	-0.905578	-0.302229
C146	C	0.175976	-0.655578	-0.052229
C147	C	0.425976	-0.405578	0.197771
C148	C	0.675976	-0.155578	0.447771
C149	C	-0.325763	-1.068876	-0.302239
C150	C	-0.075763	-0.818876	-0.052239
C151	C	0.174237	-0.568876	0.197761
C152	C	0.424237	-0.318876	0.447761
C153	C	-0.325748	-1.138517	-0.302271
C154	C	-0.075748	-0.888517	-0.052271
C155	C	0.174252	-0.638517	0.197729
C156	C	0.424252	-0.388517	0.447729
C157	C	-0.369204	-0.640317	-0.342080
C158	C	-0.119204	-0.390317	-0.092080
C159	C	0.130796	-0.140317	0.157920
C160	C	0.380796	0.109683	0.407920
C161	C	-0.369187	-0.574882	-0.342108
C162	C	-0.119187	-0.324882	-0.092108
C163	C	0.130813	-0.074882	0.157892
C164	C	0.380813	0.175118	0.407892
C165	C	-0.325840	-0.542155	-0.302122
C166	C	-0.075840	-0.292155	-0.052122
C167	C	0.174160	-0.042155	0.197878
C168	C	0.424160	0.207845	0.447878
C169	C	-0.282494	-0.574869	-0.262116
C170	C	-0.032494	-0.324869	-0.012116
C171	C	0.217506	-0.074869	0.237884
C172	C	0.467506	0.175131	0.487884
C173	C	-0.282507	-0.640303	-0.262094
C174	C	-0.032507	-0.390303	-0.012094
C175	C	0.217493	-0.140303	0.237906
C176	C	0.467493	0.109697	0.487906
C177	C	-0.320397	-0.438431	-0.245717
C178	C	-0.070397	-0.188431	0.004283
C179	C	0.179603	0.061569	0.254283
C180	C	0.429603	0.311569	0.504283
C181	C	-0.320389	-0.372998	-0.245738
C182	C	-0.070389	-0.122998	0.004262
C183	C	0.179611	0.127002	0.254262
C184	C	0.429611	0.377002	0.504262
C185	C	-0.325796	-0.340335	-0.302191
C186	C	-0.075796	-0.090335	-0.052191
C187	C	0.174204	0.159665	0.197809
C188	C	0.424204	0.409665	0.447809
C189	C	-0.331225	-0.373112	-0.358624
C190	C	-0.081225	-0.123112	-0.108624
C191	C	0.168775	0.126888	0.141376
C192	C	0.418775	0.376888	0.391376
C193	C	-0.331239	-0.438546	-0.358602
C194	C	-0.081239	-0.188546	-0.108602
C195	C	0.168761	0.061454	0.141398
C196	C	0.418761	0.311454	0.391398
C197	C	-0.325821	-0.471203	-0.302142
C198	C	-0.075821	-0.221203	-0.052142
C199	C	0.174179	0.028797	0.197858
C200	C	0.424179	0.278797	0.447858
C201	C	-0.369118	-0.236676	-0.342227
C202	C	-0.119118	0.013324	-0.092227
C203	C	0.130882	0.263324	0.157773
C204	C	0.380882	0.513324	0.407773
C205	C	-0.369096	-0.171239	-0.342256
C206	C	-0.119096	0.078761	-0.092256
C207	C	0.130904	0.328761	0.157744
C208	C	0.380904	0.578761	0.407744
C209	C	-0.282407	-0.171228	-0.262259
C210	C	-0.032407	0.078772	-0.012259
C211	C	0.217593	0.328772	0.237741
C212	C	0.467593	0.578772	0.487741
C213	C	-0.282425	-0.236663	-0.262236
C214	C	-0.032425	0.013337	-0.012236
C215	C	0.217575	0.263337	0.237764
C216	C	0.467575	0.513337	0.487764
C217	C	-0.325784	-0.269383	-0.302219
C218	C	-0.075784	-0.019383	-0.052219
C219	C	0.174216	0.230617	0.197781
C220	C	0.424216	0.480617	0.447781
C221	C	-0.282452	-0.865482	-0.567927
C222	C	-0.032452	-0.615482	-0.317927
C223	C	0.217548	-0.365482	-0.067927
C224	C	0.467548	-0.115482	0.182073
C225	C	-0.282440	-0.865479	-0.633362
C226	C	-0.032440	-0.615479	-0.383362
C227	C	0.217560	-0.365479	-0.133362
C228	C	0.467560	-0.115479	0.116638
C229	C	-0.325707	-0.905530	-0.666099
C230	C	-0.075707	-0.655530	-0.416099
C231	C	0.174293	-0.405530	-0.166099
C232	C	0.424293	-0.155530	0.083901
C233	C	-0.369002	-0.945574	-0.633395
C234	C	-0.119002	-0.695574	-0.383395
C235	C	0.130998	-0.445574	-0.133395
C236	C	0.380998	-0.195574	0.116605
C237	C	-0.369018	-0.945570	-0.567961
C238	C	-0.119018	-0.695570	-0.317961
C239	C	0.130982	-0.445570	-0.067961
C240	C	0.380982	-0.195570	0.182039
C241	C	-0.331011	-0.961982	-0.769804
C242	C	-0.081011	-0.711982	-0.519804
C243	C	0.168989	-0.461982	-0.269804
C244	C	0.418989	-0.211982	-0.019804
C245	C	-0.330990	-0.961987	-0.835237
C246	C	-0.080990	-0.711987	-0.585237
C247	C	0.169010	-0.461987	-0.335237
C248	C	0.419010	-0.211987	-0.085237
C249	C	-0.325661	-0.905540	-0.867920
C250	C	-0.075661	-0.655540	-0.617920
C251	C	0.174339	-0.405540	-0.367920
C252	C	0.424339	-0.155540	-0.117920
C253	C	-0.320338	-0.849087	-0.835161
C254	C	-0.070338	-0.599087	-0.585161
C255	C	0.179662	-0.349087	-0.335161
C256	C	0.429662	-0.099087	-0.085161
C257	C	-0.320354	-0.849084	-0.769727
C258	C	-0.070354	-0.599084	-0.519727
C259	C	0.179646	-0.349084	-0.269727
C260	C	0.429646	-0.099084	-0.019727
C261	C	-0.325694	-0.905538	-0.737051
C262	C	-0.075694	-0.655538	-0.487051
C263	C	0.174306	-0.405538	-0.237051
C264	C	0.424306	-0.155538	0.012949
C265	C	-0.282358	-0.865493	-0.971569
C266	C	-0.032358	-0.615493	-0.721569
C267	C	0.217642	-0.365493	-0.471569
C268	C	0.467642	-0.115493	-0.221569
C269	C	-0.282351	-0.865490	-1.037005
C270	C	-0.032351	-0.615490	-0.787005
C271	C	0.217649	-0.365490	-0.537005
C272	C	0.467649	-0.115490	-0.287005
C273	C	-0.368909	-0.945590	-1.037037
C274	C	-0.118909	-0.695590	-0.787037
C275	C	0.131091	-0.445590	-0.537037
C276	C	0.381091	-0.195590	-0.287037
C277	C	-0.368920	-0.945587	-0.971601
C278	C	-0.118920	-0.695587	-0.721601
C279	C	0.131080	-0.445587	-0.471601
C280	C	0.381080	-0.195587	-0.221601
C281	C	-0.325642	-0.905540	-0.938871
C282	C	-0.075642	-0.655540	-0.688871
C283	C	0.174358	-0.405540	-0.438871
C284	C	0.424358	-0.155540	-0.188871
C285	C	-0.325792	-0.905439	-0.139378
C286	C	-0.075792	-0.655439	0.110622
C287	C	0.174208	-0.405439	0.360622
C288	C	0.424208	-0.155439	0.610622
C289	C	-0.325619	-0.905540	-0.069738
C290	C	-0.075619	-0.655540	0.180262
C291	C	0.174381	-0.405540	0.430262
C292	C	0.424381	-0.155540	0.680262
H293	H	-0.583421	-0.978142	-0.229535
H294	H	-0.333421	-0.728142	0.020465
H295	H	-0.083421	-0.478142	0.270465
H296	H	0.166579	-0.228142	0.520465
Br297	Br	-0.313134	-0.772474	-0.725271
Br298	Br	-0.063134	-0.522474	-0.475271
Br299	Br	0.186866	-0.272474	-0.225271
Br300	Br	0.436866	-0.022474	0.024729
H301	H	-0.335345	-1.007951	-0.743200
H302	H	-0.085345	-0.757951	-0.493200
H303	H	0.164655	-0.507951	-0.243200
H304	H	0.414655	-0.257951	0.006800
Br305	Br	-0.338562	-0.328792	-0.435245
Br306	Br	-0.088562	-0.078792	-0.185245
Br307	Br	0.161438	0.171208	0.064755
Br308	Br	0.411438	0.421208	0.314755
H309	H	-0.711733	-0.832728	-0.374778
H310	H	-0.461733	-0.582728	-0.124778
H311	H	-0.211733	-0.332728	0.125222
H312	H	0.038267	-0.082728	0.375222
H313	H	-0.247199	-0.548219	-0.229561
H314	H	0.002801	-0.298219	0.020439
H315	H	0.252801	-0.048219	0.270439
H316	H	0.502801	0.201781	0.520439
H317	H	-0.315994	-0.803123	-0.861770
H318	H	-0.065994	-0.553123	-0.611770
H319	H	0.184006	-0.303123	-0.361770
H320	H	0.434006	-0.053123	-0.111770
H321	H	-0.404477	-0.548247	-0.374685
H322	H	-0.154477	-0.298247	-0.124685
H323	H	0.095523	-0.048247	0.125315
H324	H	0.345523	0.201753	0.375315
Br325	Br	-1.086693	-0.811079	-0.396562
Br326	Br	-0.836693	-0.561079	-0.146562
Br327	Br	-0.586693	-0.311079	0.103438
Br328	Br	-0.336693	-0.061079	0.353438
H329	H	-0.939254	-0.832798	-0.374817
H330	H	-0.689254	-0.582798	-0.124817
H331	H	-0.439254	-0.332798	0.125183
H332	H	-0.189254	-0.082798	0.375183
Br333	Br	-0.427957	-0.281086	-0.396491
Br334	Br	-0.177957	-0.031086	-0.146491
Br335	Br	0.072043	0.218914	0.103509
Br336	Br	0.322043	0.468914	0.353509
Br337	Br	-0.427727	-0.999923	-0.677822
Br338	Br	-0.177727	-0.749923	-0.427822
Br339	Br	0.072273	-0.499923	-0.177822
Br340	Br	0.322273	-0.249923	0.072178
Br341	Br	-0.730835	-0.999964	-0.207841
Br342	Br	-0.480835	-0.749964	0.042159
Br343	Br	-0.230835	-0.499964	0.292159
Br344	Br	0.019165	-0.249964	0.542159
H345	H	-0.583487	-0.832681	-0.374759
H346	H	-0.333487	-0.582681	-0.124759
H347	H	-0.083487	-0.332681	0.125241
H348	H	0.166513	-0.082681	0.375241
H349	H	-0.404509	-0.666954	-0.374638
H350	H	-0.154509	-0.416954	-0.124638
H351	H	0.095491	-0.166954	0.125362
H352	H	0.345491	0.083046	0.375362
H353	H	-0.247104	-0.832879	-1.063625
H354	H	0.002896	-0.582879	-0.813625
H355	H	0.252896	-0.332879	-0.563625
H356	H	0.502896	-0.082879	-0.313625
Br357	Br	-0.223627	-0.811142	-0.927145
Br358	Br	0.026373	-0.561142	-0.677145
Br359	Br	0.276373	-0.311142	-0.427145
Br360	Br	0.526373	-0.061142	-0.177145
H361	H	-0.335657	-0.465231	-0.404552
H362	H	-0.085657	-0.215231	-0.154552
H363	H	0.164343	0.034769	0.095448
H364	H	0.414343	0.284769	0.345448
Br365	Br	-0.223571	-0.126820	-0.207997
Br366	Br	0.026429	0.123180	0.042003
Br367	Br	0.276429	0.373180	0.292003
Br368	Br	0.526429	0.623180	0.542003
Br369	Br	-0.427911	-0.126851	-0.396556
Br370	Br	-0.177911	0.123149	-0.146556
Br371	Br	0.072089	0.373149	0.103444
Br372	Br	0.322089	0.623149	0.353444
Br373	Br	-0.223719	-0.811130	-0.523510
Br374	Br	0.026281	-0.561130	-0.273510
Br375	Br	0.276281	-0.311130	-0.023510
Br376	Br	0.526281	-0.061130	0.226490
H377	H	-0.404168	-0.978195	-0.944980
H378	H	-0.154168	-0.728195	-0.694980
H379	H	0.095832	-0.478195	-0.444980
H380	H	0.345832	-0.228195	-0.194980
H381	H	-0.247138	-0.263293	-0.229658
H382	H	0.002862	-0.013293	0.020342
H383	H	0.252862	0.236707	0.270342
H384	H	0.502862	0.486707	0.520342
Br385	Br	-0.313022	-0.328521	-0.169151
Br386	Br	-0.063022	-0.078521	0.080849
Br387	Br	0.186978	0.171479	0.330849
Br388	Br	0.436978	0.421479	0.580849
Br389	Br	-0.427769	-0.999916	-0.523584
Br390	Br	-0.177769	-0.749916	-0.273584
Br391	Br	0.072231	-0.499916	-0.023584
Br392	Br	0.322231	-0.249916	0.226416
Br393	Br	-0.223686	-0.684694	-0.207802
Br394	Br	0.026314	-0.434694	0.042198
Br395	Br	0.276314	-0.184694	0.292198
Br396	Br	0.526314	0.065306	0.542198
Br397	Br	-0.427637	-0.999939	-1.081458
Br398	Br	-0.177637	-0.749939	-0.831458
Br399	Br	0.072363	-0.499939	-0.581458
Br400	Br	0.322363	-0.249939	-0.331458
Br401	Br	-0.919981	-1.000020	-0.207869
Br402	Br	-0.669981	-0.750020	0.042131
Br403	Br	-0.419981	-0.500020	0.292131
Br404	Br	-0.169981	-0.250020	0.542131
Br405	Br	-1.086599	-1.000075	-0.207890
Br406	Br	-0.836599	-0.750075	0.042110
Br407	Br	-0.586599	-0.500075	0.292110
Br408	Br	-0.336599	-0.250075	0.542110
H409	H	-0.335321	-1.007954	-0.861904
H410	H	-0.085321	-0.757954	-0.611904
H411	H	0.164679	-0.507954	-0.361904
H412	H	0.414679	-0.257954	-0.111904
H413	H	-0.315991	-0.465020	-0.199743
H414	H	-0.065991	-0.215020	0.050257
H415	H	0.184009	0.034980	0.300257
H416	H	0.434009	0.284980	0.550257
Br417	Br	-0.223674	-0.811148	-0.677746
Br418	Br	0.026326	-0.561148	-0.427746
Br419	Br	0.276326	-0.311148	-0.177746
Br420	Br	0.526326	-0.061148	0.072254
