data_functionalizedCrystal
_audit_creation_method	'MofGen! by Chris Wilmer'
_symmetry_space_group_name_H-M	'P1'
_symmetry_Int_Tables_number	1
_symmetry_cell_setting	triclinic
loop_
_symmetry_equiv_pos_as_xyz
  x,y,z
_cell_length_a	14.519709
_cell_length_b	10.868271
_cell_length_c	11.792241
_cell_angle_alpha	89.994719
_cell_angle_beta	96.063220
_cell_angle_gamma	89.998701
loop_
_atom_site_label
_atom_site_type_symbol
_atom_site_fract_x
_atom_site_fract_y
_atom_site_fract_z
O1	O	1.224412	0.102162	-0.148781
O2	O	1.474412	0.352162	0.101219
O3	O	1.724412	0.602162	0.351219
O4	O	1.974412	0.852162	0.601219
O5	O	0.955999	0.102200	-0.166302
O6	O	1.205999	0.352200	0.083698
O7	O	1.455999	0.602200	0.333698
O8	O	1.705999	0.852200	0.583698
O9	O	1.096719	0.102172	0.007665
O10	O	1.346719	0.352172	0.257665
O11	O	1.596719	0.602172	0.507665
O12	O	1.846719	0.852172	0.757665
O13	O	1.083692	0.102191	-0.322748
O14	O	1.333692	0.352191	-0.072748
O15	O	1.583692	0.602191	0.177252
O16	O	1.833692	0.852191	0.427252
O17	O	1.096707	-0.102473	0.007672
O18	O	1.346707	0.147527	0.257672
O19	O	1.596707	0.397527	0.507672
O20	O	1.846707	0.647527	0.757672
O21	O	0.955987	-0.102445	-0.166295
O22	O	1.205987	0.147555	0.083705
O23	O	1.455987	0.397555	0.333705
O24	O	1.705987	0.647555	0.583705
O25	O	1.224400	-0.102482	-0.148774
O26	O	1.474400	0.147518	0.101226
O27	O	1.724400	0.397518	0.351226
O28	O	1.974400	0.647518	0.601226
Zn29	Zn	1.090192	-0.134955	-0.157533
Zn30	Zn	1.340192	0.115045	0.092467
Zn31	Zn	1.590192	0.365045	0.342467
Zn32	Zn	1.840192	0.615045	0.592467
Zn33	Zn	1.090207	0.134673	-0.157542
Zn34	Zn	1.340207	0.384673	0.092458
Zn35	Zn	1.590207	0.634673	0.342458
Zn36	Zn	1.840207	0.884673	0.592458
O37	O	1.083680	-0.102454	-0.322741
O38	O	1.333680	0.147546	-0.072741
O39	O	1.583680	0.397546	0.177259
O40	O	1.833680	0.647546	0.427259
C41	C	0.921630	-0.000117	-0.165482
C42	C	1.171630	0.249883	0.084518
C43	C	1.421630	0.499883	0.334518
C44	C	1.671630	0.749883	0.584518
C45	C	0.819240	-0.000103	-0.163035
C46	C	1.069240	0.249897	0.086965
C47	C	1.319240	0.499897	0.336965
C48	C	1.569240	0.749897	0.586965
N49	N	1.090188	-0.318969	-0.157527
N50	N	1.340188	-0.068969	0.092473
N51	N	1.590188	0.181031	0.342473
N52	N	1.840188	0.431031	0.592473
C53	C	1.090202	-0.569975	-0.157540
C54	C	1.340202	-0.319975	0.092460
C55	C	1.590202	-0.069975	0.342460
C56	C	1.840202	0.180025	0.592460
C57	C	1.090191	-0.430298	-0.157536
C58	C	1.340191	-0.180298	0.092464
C59	C	1.590191	0.069702	0.342464
C60	C	1.840191	0.319702	0.592464
C61	C	0.444311	-0.000160	-0.154027
C62	C	0.694311	0.249840	0.095973
C63	C	0.944311	0.499840	0.345973
C64	C	1.194311	0.749840	0.595973
C65	C	0.548628	-0.000144	-0.156528
C66	C	0.798628	0.249856	0.093472
C67	C	1.048628	0.499856	0.343472
C68	C	1.298628	0.749856	0.593472
C69	C	0.631772	-0.000130	-0.158531
C70	C	0.881772	0.249870	0.091469
C71	C	1.131772	0.499870	0.341469
C72	C	1.381772	0.749870	0.591469
C73	C	0.736096	-0.000117	-0.161033
C74	C	0.986096	0.249883	0.088967
C75	C	1.236096	0.499883	0.338967
C76	C	1.486096	0.749883	0.588967
C77	C	1.258769	-0.000162	-0.149594
C78	C	1.508769	0.249838	0.100406
C79	C	1.758769	0.499838	0.350406
C80	C	2.008769	0.749838	0.600406
C81	C	1.361159	-0.000168	-0.152041
C82	C	1.611159	0.249832	0.097959
C83	C	1.861159	0.499832	0.347959
C84	C	2.111159	0.749832	0.597959
C85	C	1.095895	-0.000150	0.049955
C86	C	1.345895	0.249850	0.299955
C87	C	1.595895	0.499850	0.549955
C88	C	1.845895	0.749850	0.799955
C89	C	1.093446	-0.000149	0.175955
C90	C	1.343446	0.249851	0.425955
C91	C	1.593446	0.499851	0.675955
C92	C	1.843446	0.749851	0.925955
N93	N	1.090218	0.318687	-0.157540
N94	N	1.340218	0.568687	0.092460
N95	N	1.590218	0.818687	0.342460
N96	N	1.840218	1.068687	0.592460
C97	C	1.084504	-0.000129	-0.365031
C98	C	1.334504	0.249871	-0.115031
C99	C	1.584504	0.499871	0.134969
C100	C	1.834504	0.749871	0.384969
C101	C	1.086954	-0.000123	-0.491031
C102	C	1.336954	0.249877	-0.241031
C103	C	1.586954	0.499877	0.008969
C104	C	1.836954	0.749877	0.258969
C105	C	1.088942	-0.000127	0.406642
C106	C	1.338942	0.249873	0.656642
C107	C	1.588942	0.499873	0.906642
C108	C	1.838942	0.749873	1.156642
C109	C	1.091444	-0.000139	0.278271
C110	C	1.341444	0.249861	0.528271
C111	C	1.591444	0.499861	0.778271
C112	C	1.841444	0.749861	1.028271
