data_functionalizedCrystal
_audit_creation_method	'MofGen! by Chris Wilmer'
_symmetry_space_group_name_H-M	'P1'
_symmetry_Int_Tables_number	1
_symmetry_cell_setting	triclinic
loop_
_symmetry_equiv_pos_as_xyz
  x,y,z
_cell_length_a	9.065218
_cell_length_b	16.109301
_cell_length_c	8.140239
_cell_angle_alpha	89.995060
_cell_angle_beta	89.997198
_cell_angle_gamma	84.238683
loop_
_atom_site_label
_atom_site_type_symbol
_atom_site_fract_x
_atom_site_fract_y
_atom_site_fract_z
O1	O	1.957448	0.121905	-0.136624
O2	O	2.457448	0.621905	0.363376
O3	O	1.527922	0.131904	-0.136627
O4	O	2.027922	0.631904	0.363373
O5	O	1.754484	0.005964	-0.136608
O6	O	2.254484	0.505964	0.363392
O7	O	1.730885	0.247845	-0.136642
O8	O	2.230885	0.747845	0.363358
O9	O	1.754472	0.005963	0.136619
O10	O	2.254472	0.505963	0.636619
O11	O	1.527909	0.131903	0.136600
O12	O	2.027909	0.631903	0.636600
O13	O	1.957436	0.121904	0.136603
O14	O	2.457436	0.621904	0.636603
Zn15	Zn	1.742671	0.126903	0.179982
Zn16	Zn	2.242671	0.626903	0.679982
Zn17	Zn	1.742687	0.126905	-0.180006
Zn18	Zn	2.242687	0.626905	0.319994
O19	O	1.730873	0.247843	0.136585
O20	O	2.230873	0.747843	0.636585
C21	C	1.472952	0.130943	-0.000013
C22	C	1.972952	0.630943	0.499987
C23	C	1.309179	0.128069	-0.000014
C24	C	1.809179	0.628069	0.499986
C25	C	1.753522	-0.025019	0.000006
C26	C	2.253522	0.474981	0.500006
C27	C	1.750656	-0.117336	0.000008
C28	C	2.250656	0.382664	0.500008
C29	C	1.878430	-0.338627	-0.000017
C30	C	2.378430	0.161373	0.499983
C31	C	1.875726	-0.425368	-0.000031
C32	C	2.375726	0.074632	0.499969
C33	C	1.606917	-0.407559	-0.000026
C34	C	2.106917	0.092441	0.499974
C35	C	1.609623	-0.320819	-0.000024
C36	C	2.109623	0.179181	0.499976
C37	C	1.745384	-0.286356	-0.000011
C38	C	2.245384	0.213644	0.499989
C39	C	1.739974	-0.459836	-0.000027
C40	C	2.239974	0.040164	0.499973
C41	C	1.737040	-0.553885	-0.000041
C42	C	2.237040	-0.053885	0.499959
C43	C	1.748318	-0.192301	0.000000
C44	C	2.248318	0.307699	0.500000
C45	C	2.012405	0.122865	-0.000014
C46	C	2.512405	0.622865	0.499986
C47	C	2.176179	0.125739	-0.000024
C48	C	2.676179	0.625739	0.499976
C49	C	1.731835	0.278826	-0.000033
C50	C	2.231835	0.778826	0.499967
C51	C	1.734701	0.371144	-0.000046
C52	C	2.234701	0.871144	0.499954
N53	N	1.742670	0.126901	0.425665
N54	N	2.242670	0.626901	0.925665
N55	N	1.742699	0.126900	-0.425689
N56	N	2.242699	0.626900	0.074311
H57	H	1.988976	-0.310570	-0.000010
H58	H	2.488976	0.189430	0.499990
H59	H	1.984066	-0.467924	-0.000039
H60	H	2.484066	0.032076	0.499961
H61	H	1.501274	-0.278258	-0.000024
H62	H	2.001274	0.221742	0.499976
H63	H	1.496385	-0.435630	-0.000033
H64	H	1.996385	0.064370	0.499967
