data_functionalizedCrystal
_audit_creation_method	'MofGen! by Chris Wilmer'
_symmetry_space_group_name_H-M	'P1'
_symmetry_Int_Tables_number	1
_symmetry_cell_setting	triclinic
loop_
_symmetry_equiv_pos_as_xyz
  x,y,z
_cell_length_a	18.215407
_cell_length_b	21.295417
_cell_length_c	18.215399
_cell_angle_alpha	89.967848
_cell_angle_beta	89.980167
_cell_angle_gamma	90.030955
loop_
_atom_site_label
_atom_site_type_symbol
_atom_site_fract_x
_atom_site_fract_y
_atom_site_fract_z
Zn1	Zn	1.125043	-0.250608	-0.416094
Zn2	Zn	1.124940	-0.355879	-0.293019
Zn3	Zn	1.001976	-0.250629	-0.293042
Zn4	Zn	1.001930	-0.355844	-0.416044
O5	O	1.063472	-0.303240	-0.354550
O6	O	1.228014	-0.264579	-0.399780
O7	O	1.108604	-0.341941	-0.190038
O8	O	1.018364	-0.162537	-0.309396
O9	O	1.227938	-0.341921	-0.309357
O10	O	1.108781	-0.162521	-0.399802
O11	O	1.018263	-0.264614	-0.190054
O12	O	0.898985	-0.264580	-0.309347
O13	O	1.018285	-0.341861	-0.519035
O14	O	0.898951	-0.341881	-0.399716
O15	O	1.108736	-0.264545	-0.519072
O16	O	1.108559	-0.443964	-0.309308
O17	O	1.018184	-0.443938	-0.399694
C18	C	0.872266	-0.303229	-0.354529
C19	C	0.790467	-0.303240	-0.354537
C20	C	1.063376	-0.466792	-0.354509
C21	C	1.063402	-0.536760	-0.354516
C22	C	0.602275	-0.343554	-0.401533
C23	C	0.525416	-0.343556	-0.401542
C24	C	0.525422	-0.262938	-0.307582
C25	C	0.602279	-0.262933	-0.307577
C26	C	0.640703	-0.303245	-0.354552
C27	C	0.486987	-0.303251	-0.354566
C28	C	0.403654	-0.303253	-0.354575
C29	C	0.724042	-0.303242	-0.354543
C30	C	1.110502	-0.569619	-0.307500
C31	C	1.110536	-0.635361	-0.307517
C32	C	1.063457	-0.668242	-0.354542
C33	C	1.016354	-0.635375	-0.401566
C34	C	1.016326	-0.569634	-0.401554
N35	N	0.999079	-0.771508	-0.360145
N36	N	0.999107	-0.833960	-0.360153
C37	C	1.063540	-0.866317	-0.354584
N38	N	1.127944	-0.833863	-0.348993
N39	N	1.127915	-0.771406	-0.348981
C40	C	1.063483	-0.739528	-0.354561
C41	C	1.110681	-0.970462	-0.307584
C42	C	1.110717	-1.036205	-0.307605
C43	C	1.016528	-1.036218	-0.401651
C44	C	1.016499	-0.970475	-0.401633
C45	C	1.063575	-0.937601	-0.354595
C46	C	1.255425	-0.303251	-0.354571
C47	C	1.337224	-0.303256	-0.354581
C48	C	1.063517	-0.303197	-0.546503
C49	C	1.063536	-0.303178	-0.628302
C50	C	1.063589	-0.139050	-0.354607
C51	C	1.063639	-0.069082	-0.354631
C52	C	1.110651	-0.262882	-0.816516
C53	C	1.110660	-0.262863	-0.893375
C54	C	1.016473	-0.343377	-0.893325
C55	C	1.016461	-0.343392	-0.816468
C56	C	1.063554	-0.303145	-0.778065
C57	C	1.063575	-0.303112	-0.931781
C58	C	1.063584	-0.303093	-1.015115
C59	C	1.063544	-0.303164	-0.694726
C60	C	1.063470	-0.303238	-0.163344
C61	C	1.063593	-0.303079	-0.081545
H62	H	0.633557	-0.376377	-0.439785
H63	H	1.149015	-0.943694	-0.269285
C64	C	0.891724	-0.655686	-0.437308
C65	C	0.964603	-0.671513	-0.453258
H66	H	0.859778	-0.677993	-0.469227
H67	H	0.880990	-0.666502	-0.387860
H68	H	0.884978	-0.611828	-0.444031
H69	H	0.971351	-0.715370	-0.446530
H70	H	0.975341	-0.660701	-0.502718
H71	H	1.148893	-0.662121	-0.269231
H72	H	1.149076	-1.062958	-0.269321
C73	C	0.533135	-0.423248	-0.494408
C74	C	0.483175	-0.387868	-0.453183
H75	H	0.507056	-0.450608	-0.526287
H76	H	0.563138	-0.395851	-0.522614
H77	H	0.563086	-0.447288	-0.462281
H78	H	0.453228	-0.363824	-0.485311
H79	H	0.453159	-0.415268	-0.424975
H80	H	0.978133	-0.376146	-0.924602
H81	H	1.148995	-0.230109	-0.785251
H82	H	0.494127	-0.230118	-0.269336
H83	H	0.977971	-0.542879	-0.439840
H84	H	0.633569	-0.230104	-0.269319
C85	C	0.974620	-0.379161	-0.698626
C86	C	0.964688	-0.387652	-0.774196
H87	H	0.942654	-0.406480	-0.672531
H88	H	1.024053	-0.388379	-0.686041
H89	H	0.963877	-0.336865	-0.686056
H90	H	0.975437	-0.429947	-0.786767
H91	H	0.915244	-0.378438	-0.786786
C92	C	0.974751	-1.136996	-0.443429
C93	C	0.964780	-1.072353	-0.453344
H94	H	0.942801	-1.159305	-0.475343
H95	H	1.024191	-1.147720	-0.454248
H96	H	0.964011	-1.147805	-0.393973
H97	H	0.975525	-1.061544	-0.502799
H98	H	0.915328	-1.061625	-0.442531
H99	H	0.978143	-0.943720	-0.439914
C100	C	1.203610	-0.576215	-0.214547
C101	C	1.162257	-0.533485	-0.255808
H102	H	1.235565	-0.553905	-0.182640
H103	H	1.171572	-0.601894	-0.186370
H104	H	1.231746	-0.601819	-0.246652
H105	H	1.134116	-0.507884	-0.223704
H106	H	1.194298	-0.507795	-0.283987
C107	C	1.203764	-0.183289	-0.885699
C108	C	1.162433	-0.218608	-0.935640
H109	H	1.235730	-0.155969	-0.911793
H110	H	1.171713	-0.159215	-0.855726
H111	H	1.231887	-0.210731	-0.855716
H112	H	1.134305	-0.191165	-0.965620
H113	H	1.194488	-0.242683	-0.965626
