data_functionalizedCrystal
_audit_creation_method	'MofGen! by Chris Wilmer'
_symmetry_space_group_name_H-M	'P1'
_symmetry_Int_Tables_number	1
_symmetry_cell_setting	triclinic
loop_
_symmetry_equiv_pos_as_xyz
  x,y,z
_cell_length_a	6.817900
_cell_length_b	16.305597
_cell_length_c	19.453114
_cell_angle_alpha	95.862248
_cell_angle_beta	101.709288
_cell_angle_gamma	103.455834
loop_
_atom_site_label
_atom_site_type_symbol
_atom_site_fract_x
_atom_site_fract_y
_atom_site_fract_z
V1	V	-4.006694	-0.117595	-0.219242
O2	O	-3.994747	0.004747	-0.214820
O3	O	-3.958196	-0.232303	-0.217981
O4	O	-3.949610	-0.116183	-0.314752
O5	O	-4.003392	-0.112176	-0.117379
V6	V	-4.491459	-0.102915	-0.207029
O7	O	-4.265226	-0.149798	-0.246031
O8	O	-4.683125	-0.070712	-0.180240
O9	O	-4.316750	0.011792	-0.208290
O10	O	-4.620803	-0.225258	-0.211450
O11	O	-4.612158	-0.108334	-0.308892
O12	O	-4.325337	-0.104327	-0.111519
C13	C	-3.803454	-0.260254	-0.214583
C14	C	-3.845031	-0.354031	-0.214189
C15	C	-3.996283	-0.694784	-0.212789
C16	C	-3.760904	-0.653937	-0.208954
C17	C	-3.717354	-0.556339	-0.209086
C18	C	-3.921244	-0.525732	-0.213484
C19	C	-4.010036	-0.550838	-0.148037
C20	C	-4.051884	-0.648368	-0.147553
C21	C	-4.128164	-0.674239	-0.281883
C22	C	-4.081225	-0.576731	-0.283095
C23	C	-3.878845	-0.430191	-0.213875
C24	C	-4.038685	-0.790324	-0.212394
C25	C	-3.792501	-0.112130	-0.338024
C26	C	-3.827111	-0.111735	-0.416105
C27	C	-4.025150	-0.115783	-0.456371
C28	C	-4.057671	-0.115411	-0.529737
C29	C	-3.892150	-0.111008	-0.562837
C30	C	-3.694081	-0.106954	-0.522561
C31	C	-3.661562	-0.107318	-0.449196
N32	N	-3.832369	-0.155559	-0.681718
N33	N	-3.863274	-0.155216	-0.751413
C34	C	-3.990117	-0.109912	-0.783883
N35	N	-4.084923	-0.064975	-0.744027
N36	N	-4.054023	-0.065322	-0.674327
C37	C	-3.927391	-0.110613	-0.642389
C38	C	-4.223431	-0.113556	-0.903700
C39	C	-4.255942	-0.113179	-0.977067
C40	C	-3.892351	-0.104730	-0.969890
C41	C	-3.859841	-0.105099	-0.896524
C42	C	-4.025390	-0.109516	-0.863434
C43	C	-4.134835	0.039739	-0.211685
C44	C	-4.072496	0.133515	-0.212084
C45	C	-4.145788	-0.108383	-0.088243
C46	C	-4.090416	-0.108774	-0.010161
H47	H	-3.896622	-0.515019	-0.096507
N48	N	-4.469563	-0.117546	-1.020491
H49	H	-4.517803	-0.170145	-1.058020
H50	H	-4.464375	-0.064979	-1.044113
H51	H	-3.500289	-0.104014	-0.416410
H52	H	-3.757576	-0.101138	-0.996839
N53	N	-3.926907	-0.663333	-0.078697
H54	H	-3.845931	-0.606630	-0.048805
H55	H	-3.827713	-0.697543	-0.089323
H56	H	-3.698582	-0.101811	-0.863741
H57	H	-4.358230	-0.117150	-0.876756
N58	N	-3.624095	-0.534170	-0.271029
H59	H	-3.610969	-0.587856	-0.298494
H60	H	-3.482329	-0.493080	-0.252744
N61	N	-3.694724	-0.694480	-0.270696
H62	H	-3.816662	-0.739731	-0.301748
H63	H	-3.579340	-0.721419	-0.252143
N64	N	-4.208659	-0.524534	-0.148971
H65	H	-4.262956	-0.541293	-0.106429
H66	H	-4.315160	-0.554049	-0.194030
N67	N	-3.627622	-0.671539	-0.142944
H68	H	-3.651477	-0.735232	-0.144237
H69	H	-3.665503	-0.646045	-0.099515
N70	N	-3.555236	-0.510454	-0.142901
H71	H	-3.511832	-0.553623	-0.113524
H72	H	-3.614850	-0.471565	-0.114144
N73	N	-4.277218	-0.683969	-0.147689
H74	H	-4.306177	-0.747554	-0.147441
H75	H	-4.367604	-0.672533	-0.191719
H76	H	-4.096063	-0.706950	-0.331516
H77	H	-4.018058	-0.561235	-0.331522
H78	H	-4.232924	-0.556927	-0.290370
H79	H	-4.300485	-0.701250	-0.285376
H80	H	-4.159955	-0.119376	-0.429433
H81	H	-4.218945	-0.118713	-0.562528
H82	H	-3.559314	-0.103367	-0.549515
