data_functionalizedCrystal
_audit_creation_method	'MofGen! by Chris Wilmer'
_symmetry_space_group_name_H-M	'P1'
_symmetry_Int_Tables_number	1
_symmetry_cell_setting	triclinic
loop_
_symmetry_equiv_pos_as_xyz
  x,y,z
_cell_length_a	16.992694
_cell_length_b	15.995350
_cell_length_c	15.455313
_cell_angle_alpha	92.667328
_cell_angle_beta	87.142206
_cell_angle_gamma	87.080299
loop_
_atom_site_label
_atom_site_type_symbol
_atom_site_fract_x
_atom_site_fract_y
_atom_site_fract_z
O1	O	1.043823	0.174116	-0.072015
O2	O	0.815539	0.172167	-0.072041
O3	O	0.935921	0.051671	-0.072026
O4	O	0.923440	0.294611	-0.072029
O5	O	0.929037	0.058531	0.072235
O6	O	0.808655	0.179027	0.072221
O7	O	1.036939	0.180976	0.072246
Cu8	Cu	0.922168	0.180628	0.085406
Cu9	Cu	0.930309	0.172515	-0.085200
O10	O	0.916556	0.301471	0.072232
C11	C	0.782884	0.173091	0.000087
C12	C	0.695840	0.165614	0.000077
C13	C	0.931963	0.023872	0.000103
C14	C	0.930416	-0.069182	0.000098
C15	C	0.645600	0.237750	0.000077
C16	C	0.563813	0.230720	0.000089
C17	C	0.532268	0.151555	0.000095
C18	C	0.582515	0.079414	0.000098
C19	C	0.664300	0.086445	0.000092
C20	C	0.288669	0.122418	0.000118
C21	C	0.206878	0.115393	0.000122
C22	C	0.188181	0.266700	0.000114
C23	C	0.269969	0.273723	0.000103
C24	C	0.320208	0.201582	0.000111
N25	N	0.448669	0.144368	0.000104
N26	N	0.403806	0.208770	0.000107
C27	C	0.924861	-0.407301	0.000100
C28	C	0.839142	-0.365620	-0.000233
C29	C	0.840674	-0.268811	0.000092
C30	C	0.927617	-0.239556	0.000098
C31	C	0.965973	-0.273887	0.082482
C32	C	0.963816	-0.370663	0.082550
C33	C	0.973415	-0.378704	-0.081501
C34	C	0.973447	-0.281812	-0.082590
C35	C	0.929178	-0.144754	0.000100
C36	C	0.923301	-0.502103	0.000104
C37	C	1.069593	0.180052	0.000117
C38	C	1.156637	0.187528	0.000121
C39	C	0.920514	0.329271	0.000101
C40	C	0.922061	0.422324	0.000101
N41	N	0.916448	0.186334	0.205401
N42	N	0.936036	0.166802	-0.205195
C43	C	0.967608	0.135164	0.250801
C44	C	0.963289	0.139488	0.341608
C45	C	0.907813	0.194986	0.387014
C46	C	0.856647	0.246157	0.341607
C47	C	0.860963	0.241829	0.250801
C48	C	0.889185	0.213646	0.658593
C49	C	0.884875	0.217972	0.749405
C50	C	0.991517	0.111301	0.749400
C51	C	0.995831	0.106981	0.658592
C52	C	0.944662	0.158150	0.613194
N53	N	0.903399	0.199408	0.479833
N54	N	0.949073	0.153722	0.520376
H55	H	0.522910	0.289461	0.000087
H56	H	0.807694	-0.389254	-0.059312
H57	H	0.802224	-0.384703	0.058509
H58	H	0.839698	0.263168	0.786370
H59	H	0.181198	0.050923	0.000126
H60	H	0.147268	0.325432	0.000110
O61	O	0.811232	0.291622	0.206831
C62	C	0.761329	0.341521	0.266377
H63	H	0.790399	0.347725	0.331101
H64	H	0.702627	0.310859	0.276047
C65	C	0.711142	0.421446	0.151429
C66	C	0.746850	0.429072	0.230923
H67	H	0.702207	0.475451	0.129560
H68	H	0.744760	0.387827	0.111312
H69	H	0.662228	0.395891	0.159499
H70	H	0.795767	0.454617	0.222851
H71	H	0.713239	0.462698	0.271039
O72	O	0.797288	-0.234974	0.070631
C73	C	0.718835	-0.259130	0.066898
H74	H	0.717431	-0.319146	0.024357
H75	H	0.681338	-0.207237	0.038236
C76	C	0.687411	-0.200833	0.211254
C77	C	0.685687	-0.274550	0.159011
H78	H	0.666961	-0.210341	0.268073
H79	H	0.740265	-0.184555	0.213768
H80	H	0.656164	-0.157595	0.187359
H81	H	0.716941	-0.317782	0.182900
H82	H	0.632837	-0.290835	0.156503
O83	O	0.300477	0.350691	0.000141
C84	C	0.238595	0.412853	0.000122
H85	H	0.181737	0.386965	0.027438
H86	H	0.230315	0.432075	-0.069087
C87	C	0.328825	0.521558	0.023142
C88	C	0.258992	0.489764	0.056699
H89	H	0.341407	0.569002	0.058038
H90	H	0.370517	0.479679	0.023152
H91	H	0.321916	0.537570	-0.034532
H92	H	0.265905	0.473743	0.114368
H93	H	0.217301	0.531642	0.056701
O94	O	0.943645	-0.409085	-0.156018
C95	C	1.002176	-0.460207	-0.203650
H96	H	1.047863	-0.484299	-0.157953
H97	H	1.032191	-0.422094	-0.255070
C98	C	0.907734	-0.505401	-0.304076
C99	C	0.963845	-0.534997	-0.247949
H100	H	0.884091	-0.551533	-0.331405
H101	H	0.868301	-0.470957	-0.271988
H102	H	0.932755	-0.473640	-0.346918
H103	H	0.938822	-0.566748	-0.205102
H104	H	1.003273	-0.569448	-0.280031
O105	O	0.337354	0.052256	0.000083
C106	C	0.291970	-0.019120	0.000109
H107	H	0.232231	-0.003249	-0.027204
H108	H	0.282849	-0.039834	0.069320
C109	C	0.408785	-0.110041	-0.022914
C110	C	0.335415	-0.090549	-0.056467
H111	H	0.435585	-0.154103	-0.057810
H112	H	0.439362	-0.061954	-0.022928
H113	H	0.401174	-0.127298	0.034761
H114	H	0.343028	-0.073283	-0.114137
H115	H	0.304840	-0.138635	-0.056464
O116	O	0.552003	0.002450	0.000139
C117	C	0.613889	-0.059712	0.000116
H118	H	0.668146	-0.031224	0.027428
H119	H	0.628758	-0.085515	-0.069094
C120	C	0.521471	-0.166232	0.023143
C121	C	0.588109	-0.131244	0.056695
H122	H	0.505569	-0.210358	0.058040
H123	H	0.479777	-0.124353	0.023156
H124	H	0.533871	-0.187727	-0.034531
H125	H	0.575706	-0.109740	0.114364
H126	H	0.629801	-0.173121	0.056693
H127	H	0.671277	0.302214	0.000071
H128	H	1.004948	0.097821	0.378573
H129	H	0.705206	0.027704	0.000091
H130	H	0.810251	-0.245421	-0.058964
H131	H	0.945437	-0.259530	-0.143535
O132	O	0.839450	0.263438	0.614635
C133	C	0.789552	0.313336	0.674186
H134	H	0.818627	0.319536	0.738908
H135	H	0.730850	0.282675	0.683860
C136	C	0.739359	0.393268	0.559248
C137	C	0.775072	0.400889	0.638738
H138	H	0.730424	0.447274	0.537381
H139	H	0.772974	0.359650	0.519126
H140	H	0.690444	0.367714	0.567320
H141	H	0.823990	0.426432	0.630663
H142	H	0.741465	0.434514	0.678858
H143	H	0.930041	-0.388100	0.144129
H144	H	1.026582	-0.398522	0.086293
H145	H	1.029701	-0.255341	0.085550
H146	H	1.037086	-0.262444	-0.087560
H147	H	0.933677	-0.244555	0.143784
H148	H	1.036653	-0.406261	-0.082051
H149	H	1.012786	0.089976	0.213838
H150	H	0.811474	0.291342	0.378581
H151	H	1.041003	0.061791	0.621625
O152	O	1.041181	0.061470	0.793408
C153	C	1.029472	-0.023333	0.771244
H154	H	1.002386	-0.028407	0.705316
H155	H	0.988011	-0.049422	0.822357
C156	C	1.142547	-0.067637	0.848023
C157	C	1.109285	-0.073870	0.767045
H158	H	1.191778	-0.098812	0.845436
H159	H	1.150434	-0.010504	0.862958
H160	H	1.107988	-0.089377	0.890608
H161	H	1.143839	-0.052121	0.724464
H162	H	1.101405	-0.131000	0.752103
