data_functionalizedCrystal
_audit_creation_method	'MofGen! by Chris Wilmer'
_symmetry_space_group_name_H-M	'P1'
_symmetry_Int_Tables_number	1
_symmetry_cell_setting	triclinic
loop_
_symmetry_equiv_pos_as_xyz
  x,y,z
_cell_length_a	25.639243
_cell_length_b	25.639240
_cell_length_c	25.639234
_cell_angle_alpha	90.032088
_cell_angle_beta	90.023148
_cell_angle_gamma	90.035481
loop_
_atom_site_label
_atom_site_type_symbol
_atom_site_fract_x
_atom_site_fract_y
_atom_site_fract_z
Zn1	Zn	0.799284	-0.208145	0.295630
Zn2	Zn	1.299284	0.291855	0.795630
Zn3	Zn	0.799205	-0.295573	0.208183
Zn4	Zn	1.299205	0.204427	0.708183
Zn5	Zn	0.711849	-0.208157	0.208203
Zn6	Zn	1.211849	0.291843	0.708203
Zn7	Zn	0.711814	-0.295555	0.295582
Zn8	Zn	1.211814	0.204445	0.795582
O9	O	0.755538	-0.251857	0.251900
O10	O	1.255538	0.248143	0.751900
O11	O	0.872438	-0.219744	0.284041
O12	O	1.372438	0.280256	0.784041
O13	O	0.787599	-0.283990	0.135020
O14	O	1.287599	0.216010	0.635020
O15	O	0.723495	-0.134990	0.219829
O16	O	1.223495	0.365010	0.719829
O17	O	0.872381	-0.283977	0.219794
O18	O	1.372381	0.216023	0.719794
O19	O	0.787733	-0.134981	0.284061
O20	O	1.287733	0.365019	0.784061
O21	O	0.723419	-0.219766	0.135035
O22	O	1.223419	0.280234	0.635035
O23	O	0.638679	-0.219749	0.219783
O24	O	1.138679	0.280251	0.719783
O25	O	0.723435	-0.283947	0.368754
O26	O	1.223435	0.216053	0.868754
O27	O	0.638654	-0.283959	0.283980
O28	O	1.138654	0.216041	0.783980
O29	O	0.787699	-0.219727	0.368789
O30	O	1.287699	0.280273	0.868789
O31	O	0.787565	-0.368736	0.219749
O32	O	1.287565	0.131264	0.719749
O33	O	0.723359	-0.368723	0.283960
O34	O	1.223359	0.131277	0.783960
C35	C	0.619695	-0.251854	0.251879
C36	C	1.119695	0.248146	0.751879
C37	C	0.561581	-0.251865	0.251882
C38	C	1.061581	0.248135	0.751882
C39	C	0.201243	-0.218464	0.285409
C40	C	0.701243	0.281536	0.785409
C41	C	0.146638	-0.218463	0.285412
C42	C	0.646638	0.281537	0.785412
O43	O	0.118423	-0.190055	0.313891
O44	O	0.618423	0.309945	0.813891
N45	N	0.119299	-0.251856	0.251914
N46	N	0.619299	0.248144	0.751914
C47	C	0.146567	-0.285247	0.218407
C48	C	0.646567	0.214753	0.718407
O49	O	0.118298	-0.313650	0.189914
O50	O	0.618298	0.186350	0.689914
C51	C	0.201170	-0.285245	0.218401
C52	C	0.701170	0.214755	0.718401
C53	C	0.228507	-0.251854	0.251905
C54	C	0.728507	0.248146	0.751905
C55	C	0.228580	-0.185075	0.318909
C56	C	0.728580	0.314925	0.818909
C57	C	0.283180	-0.185076	0.318907
C58	C	0.783180	0.314924	0.818907
C59	C	0.310444	-0.218466	0.285403
C60	C	0.810444	0.281534	0.785403
C61	C	0.283107	-0.251855	0.251903
C62	C	0.783107	0.248145	0.751903
C63	C	0.228437	-0.318633	0.184892
C64	C	0.728437	0.181367	0.684892
C65	C	0.283044	-0.318627	0.184889
C66	C	0.783044	0.181373	0.684889
C67	C	0.310380	-0.285236	0.218393
C68	C	0.810380	0.214764	0.718393
C69	C	0.364971	-0.285246	0.218396
C70	C	0.864971	0.214754	0.718396
N71	N	0.392311	-0.251854	0.251894
N72	N	0.892311	0.248146	0.751894
C73	C	0.365047	-0.218464	0.285398
C74	C	0.865047	0.281536	0.785398
C75	C	0.031896	-0.285250	0.218420
C76	C	0.531896	0.214750	0.718420
C77	C	-0.022706	-0.285255	0.218428
C78	C	0.477294	0.214745	0.718428
C79	C	-0.022631	-0.218470	0.285432
C80	C	0.477369	0.281530	0.785432
C81	C	0.031973	-0.218468	0.285427
C82	C	0.531973	0.281532	0.785427
C83	C	0.059235	-0.251857	0.251918
C84	C	0.559235	0.248143	0.751918
C85	C	0.479712	-0.218469	0.285390
C86	C	0.979712	0.281531	0.785390
C87	C	0.534318	-0.218475	0.285386
C88	C	1.034318	0.281525	0.785386
C89	C	0.534237	-0.285258	0.218380
C90	C	1.034237	0.214742	0.718380
C91	C	0.479637	-0.285254	0.218386
C92	C	0.979637	0.214746	0.718386
C93	C	0.452375	-0.251856	0.251892
C94	C	0.952375	0.248144	0.751892
O95	O	0.393222	-0.313639	0.189930
O96	O	0.893222	0.186361	0.689930
O97	O	0.393322	-0.190061	0.313881
O98	O	0.893322	0.309939	0.813881
C99	C	0.755464	-0.387700	0.251859
C100	C	1.255464	0.112300	0.751859
C101	C	0.755480	-0.445814	0.251859
C102	C	1.255480	0.054186	0.751859
C103	C	0.789003	-0.806134	0.285405
C104	C	1.289003	-0.306134	0.785405
C105	C	0.789019	-0.860738	0.285416
C106	C	1.289019	-0.360738	0.785416
O107	O	0.817433	-0.888938	0.313897
O108	O	1.317433	-0.388938	0.813897
N109	N	0.755611	-0.888096	0.251950
N110	N	1.255611	-0.388096	0.751950
C111	C	0.722181	-0.860848	0.218475
C112	C	1.222181	-0.360848	0.718475
O113	O	0.693766	-0.889132	0.190011
O114	O	1.193766	-0.389132	0.690011
C115	C	0.722163	-0.806244	0.218468
C116	C	1.222163	-0.306244	0.718468
C117	C	0.755578	-0.778889	0.251932
C118	C	1.255578	-0.278889	0.751932
C119	C	0.822414	-0.778778	0.318868
C120	C	1.322414	-0.278778	0.818868
C121	C	0.822399	-0.724178	0.318856
C122	C	1.322399	-0.224178	0.818856
C123	C	0.788974	-0.696933	0.285383
C124	C	1.288974	-0.196933	0.785383
C125	C	0.755563	-0.724288	0.251920
C126	C	1.255563	-0.224288	0.751920
C127	C	0.688732	-0.778997	0.184996
C128	C	1.188732	-0.278997	0.684996
C129	C	0.688717	-0.724390	0.184991
C130	C	1.188717	-0.224390	0.684991
C131	C	0.722131	-0.697034	0.218455
C132	C	1.222131	-0.197034	0.718455
C133	C	0.722122	-0.642443	0.218435
C134	C	1.222122	-0.142443	0.718435
N135	N	0.755530	-0.615084	0.251901
N136	N	1.255530	-0.115084	0.751901
C137	C	0.788956	-0.642329	0.285375
C138	C	1.288956	-0.142329	0.785375
C139	C	0.722220	-0.975518	0.218494
C140	C	1.222220	-0.475518	0.718494
C141	C	0.722240	-1.030121	0.218499
C142	C	1.222240	-0.530121	0.718499
C143	C	0.789077	-1.030007	0.285441
C144	C	1.289077	-0.530007	0.785441
C145	C	0.789059	-0.975404	0.285433
C146	C	1.289059	-0.475404	0.785433
C147	C	0.755628	-0.948160	0.251960
C148	C	1.255628	-0.448160	0.751960
C149	C	0.788922	-0.527664	0.285348
C150	C	1.288922	-0.027664	0.785348
C151	C	0.788906	-0.473059	0.285332
C152	C	1.288906	0.026941	0.785332
C153	C	0.722067	-0.473177	0.218393
C154	C	1.222067	0.026823	0.718393
C155	C	0.722085	-0.527778	0.218406
C156	C	1.222085	-0.027778	0.718406
C157	C	0.755515	-0.555020	0.251888
C158	C	1.255515	-0.055020	0.751888
O159	O	0.693720	-0.614208	0.189971
O160	O	1.193720	-0.114208	0.689971
O161	O	0.817361	-0.614038	0.313839
O162	O	1.317361	-0.114038	0.813839
C163	C	0.891911	-0.251861	0.251921
C164	C	1.391911	0.248139	0.751921
C165	C	0.950025	-0.251863	0.251930
C166	C	1.450025	0.248137	0.751930
C167	C	0.755572	-0.251834	0.388273
C168	C	1.255572	0.248166	0.888273
C169	C	0.755587	-0.251823	0.446387
C170	C	1.255587	0.248177	0.946387
C171	C	0.755626	-0.115484	0.251952
C172	C	1.255626	0.384516	0.751952
C173	C	0.755664	-0.057370	0.251975
C174	C	1.255664	0.442630	0.751975
C175	C	0.755534	-0.251843	0.116057
C176	C	1.255534	0.248157	0.616057
C177	C	0.755621	-0.251706	0.057943
C178	C	1.255621	0.248294	0.557943
C179	C	0.722183	-0.218320	0.806763
C180	C	1.222183	0.281680	1.306763
C181	C	0.722185	-0.218310	0.861367
C182	C	1.222185	0.281690	1.361367
O183	O	0.693758	-0.189882	0.889615
O184	O	1.193758	0.310118	1.389615
N185	N	0.755604	-0.251741	0.888669
N186	N	1.255604	0.248259	1.388669
C187	C	0.789018	-0.285188	0.861364
C188	C	1.289018	0.214812	1.361364
O189	O	0.817443	-0.313623	0.889601
O190	O	1.317443	0.186377	1.389601
C191	C	0.789012	-0.285200	0.806761
C192	C	1.289012	0.214800	1.306761
C193	C	0.755595	-0.251763	0.779462
C194	C	1.255595	0.248237	1.279462
C195	C	0.688768	-0.184886	0.779464
C196	C	1.188768	0.315114	1.279464
C197	C	0.688766	-0.184895	0.724863
C198	C	1.188766	0.315105	1.224863
C199	C	0.722179	-0.218338	0.697562
C200	C	1.222179	0.281662	1.197562
C201	C	0.755593	-0.251772	0.724861
C202	C	1.255593	0.248228	1.224861
C203	C	0.822423	-0.318648	0.779457
C204	C	1.322423	0.181352	1.279457
C205	C	0.822414	-0.318657	0.724849
C206	C	1.322414	0.181343	1.224849
C207	C	0.788997	-0.285220	0.697550
C208	C	1.288997	0.214780	1.197550
C209	C	0.789004	-0.285223	0.642959
C210	C	1.289004	0.214777	1.142959
N211	N	0.755585	-0.251792	0.615657
N212	N	1.255585	0.248208	1.115657
C213	C	0.722173	-0.218349	0.642959
C214	C	1.222173	0.281651	1.142959
C215	C	0.789027	-0.285161	0.976035
C216	C	1.289027	0.214839	1.476035
C217	C	0.789036	-0.285147	1.030637
C218	C	1.289036	0.214853	1.530637
C219	C	0.722202	-0.218270	1.030637
C220	C	1.222202	0.281730	1.530637
C221	C	0.722197	-0.218282	0.976033
C222	C	1.222197	0.281718	1.476033
C223	C	0.755609	-0.251730	0.948733
C224	C	1.255609	0.248270	1.448733
C225	C	0.722171	-0.218370	0.528294
C226	C	1.222171	0.281630	1.028294
C227	C	0.722174	-0.218381	0.473688
C228	C	1.222174	0.281619	0.973688
C229	C	0.789005	-0.285259	0.473693
C230	C	1.289005	0.214741	0.973693
C231	C	0.789005	-0.285247	0.528294
C232	C	1.289005	0.214753	1.028294
C233	C	0.755584	-0.251801	0.555593
C234	C	1.255584	0.248199	1.055593
O235	O	0.817415	-0.313639	0.614676
O236	O	1.317415	0.186361	1.114676
O237	O	0.693748	-0.189924	0.614716
O238	O	1.193748	0.310076	1.114716
H239	H	0.457378	-0.312450	0.191110
H240	H	0.957378	0.187550	0.691110
H241	H	0.661557	-0.157653	0.801687
H242	H	1.161557	0.342347	1.301687
C243	C	0.685299	-0.443197	0.181576
C244	C	1.185299	0.056803	0.681576
N245	N	0.657601	-0.420615	0.153848
N246	N	1.157601	0.079385	0.653848
C247	C	0.651969	-0.809076	0.148185
C248	C	1.151969	-0.309076	0.648185
N249	N	0.624276	-0.831730	0.120458
N250	N	1.124276	-0.331730	0.620458
C251	C	0.198378	-0.355360	0.148028
C252	C	0.698378	0.144640	0.648028
N253	N	0.175739	-0.383021	0.120256
N254	N	0.675739	0.116979	0.620256
H255	H	0.849606	-0.701908	0.346107
H256	H	1.349606	-0.201908	0.846107
H257	H	-0.044839	-0.191281	0.312711
H258	H	0.455161	0.308719	0.812711
H259	H	0.694962	-0.191150	0.451464
H260	H	1.194962	0.308850	0.951464
C261	C	0.651939	-0.694425	0.148167
C262	C	1.151939	-0.194425	0.648167
N263	N	0.624240	-0.671856	0.120429
N264	N	1.124240	-0.171856	0.620429
H265	H	0.849633	-0.800955	0.346129
H266	H	1.349633	-0.300955	0.846129
H267	H	0.694881	-0.550052	0.191153
H268	H	1.194881	-0.050052	0.691153
C269	C	0.685410	-0.181574	0.558314
C270	C	1.185410	0.318426	1.058314
N271	N	0.657724	-0.153857	0.580925
N272	N	1.157724	0.346143	1.080925
C273	C	0.825768	-0.322026	0.558324
C274	C	1.325768	0.177974	1.058324
N275	N	0.853455	-0.349733	0.580939
N276	N	1.353455	0.150267	1.080939
H277	H	0.816268	-0.953134	0.312683
H278	H	1.316268	-0.453134	0.812683
H279	H	0.849635	-0.345877	0.801674
H280	H	1.349635	0.154123	1.301674
C281	C	0.313029	-0.355361	0.148028
C282	C	0.813029	0.144639	0.648028
N283	N	0.335613	-0.383030	0.120265
N284	N	0.835613	0.116970	0.620265
C285	C	0.564385	-0.181738	0.322242
C286	C	1.064385	0.318262	0.822242
N287	N	0.587029	-0.154067	0.349999
N288	N	1.087029	0.345933	0.849999
H289	H	0.661552	-0.157669	0.702641
H290	H	1.161552	0.342331	1.202641
H291	H	0.054227	-0.191277	0.312708
H292	H	0.554227	0.308723	0.812708
H293	H	0.694986	-0.191054	0.953810
H294	H	1.194986	0.308946	1.453810
C295	C	0.685444	-0.181486	1.060679
C296	C	1.185444	0.318514	1.560679
N297	N	0.657758	-0.153783	1.083308
N298	N	1.157758	0.346217	1.583308
C299	C	0.825801	-0.321927	1.060660
C300	C	1.325801	0.178073	1.560660
N301	N	0.853492	-0.349633	1.083271
N302	N	1.353492	0.150367	1.583271
C303	C	0.825799	-0.321946	0.946009
C304	C	1.325799	0.178054	1.446009
N305	N	0.853498	-0.349649	0.923397
N306	N	1.353498	0.150351	1.423397
C307	C	-0.052771	-0.321991	0.181574
C308	C	0.447229	0.178009	0.681574
N309	N	-0.075413	-0.349658	0.153811
N310	N	0.424587	0.150342	0.653811
H311	H	0.206387	-0.157882	0.346192
H312	H	0.706387	0.342118	0.846192
H313	H	0.849626	-0.345892	0.702624
H314	H	1.349626	0.154108	1.202624
C315	C	0.825756	-0.322046	0.443651
C316	C	1.325756	0.177954	0.943651
N317	N	0.853433	-0.349758	0.421022
N318	N	1.353433	0.150242	0.921022
H319	H	0.054090	-0.312444	0.191135
H320	H	0.554090	0.187556	0.691135
H321	H	0.457523	-0.191272	0.312673
H322	H	0.957523	0.308728	0.812673
H323	H	0.694998	-0.953339	0.191232
H324	H	1.194998	-0.453339	0.691232
C325	C	0.564238	-0.321981	0.181524
C326	C	1.064238	0.178019	0.681524
N327	N	0.586836	-0.349637	0.153759
N328	N	1.086836	0.150363	0.653759
C329	C	0.313243	-0.148336	0.355757
C330	C	0.813243	0.351664	0.855757
N331	N	0.335884	-0.120659	0.383511
N332	N	0.835884	0.379341	0.883511
H333	H	0.816118	-0.450788	0.312583
H334	H	1.316118	0.049212	0.812583
C335	C	0.825700	-0.557623	0.322176
C336	C	1.325700	-0.057623	0.822176
N337	N	0.853404	-0.580187	0.349913
N338	N	1.353404	-0.080187	0.849913
H339	H	0.816293	-1.052200	0.312698
H340	H	1.316293	-0.552200	0.812698
C341	C	0.685486	-1.060206	0.181681
C342	C	1.185486	-0.560206	0.681681
N343	N	0.657799	-1.082864	0.153951
N344	N	1.157799	-0.582864	0.653951
