data_functionalizedCrystal
_audit_creation_method	'MofGen! by Chris Wilmer'
_symmetry_space_group_name_H-M	'P1'
_symmetry_Int_Tables_number	1
_symmetry_cell_setting	triclinic
loop_
_symmetry_equiv_pos_as_xyz
  x,y,z
_cell_length_a	18.050591
_cell_length_b	18.050589
_cell_length_c	18.050582
_cell_angle_alpha	89.981795
_cell_angle_beta	90.020922
_cell_angle_gamma	89.975773
loop_
_atom_site_label
_atom_site_type_symbol
_atom_site_fract_x
_atom_site_fract_y
_atom_site_fract_z
Zn1	Zn	1.135293	0.295786	0.420054
Zn2	Zn	1.135203	0.419969	0.295873
Zn3	Zn	1.011112	0.295789	0.295865
Zn4	Zn	1.011060	0.419930	0.420009
O5	O	1.073167	0.357868	0.357950
O6	O	1.239205	0.312274	0.403603
O7	O	1.118727	0.403514	0.191948
O8	O	1.027644	0.191864	0.312354
O9	O	1.239140	0.403511	0.312369
O10	O	1.118879	0.191862	0.403595
O11	O	1.027557	0.312279	0.191942
O12	O	0.907180	0.312241	0.312311
O13	O	1.027555	0.403444	0.523940
O14	O	0.907142	0.403447	0.403519
O15	O	1.118828	0.312236	0.523973
O16	O	1.118676	0.523888	0.312325
O17	O	1.027468	0.523860	0.403527
C18	C	0.880215	0.357841	0.357909
C19	C	0.797669	0.357847	0.357909
C20	C	1.073077	0.550820	0.357938
C21	C	1.073107	0.633366	0.357958
C22	C	0.598217	0.308191	0.308425
C23	C	0.548798	0.375927	0.290154
C24	C	0.646539	0.357869	0.357943
C25	C	0.548877	0.290157	0.376212
C26	C	0.500553	0.357885	0.357974
C27	C	0.598206	0.425641	0.339637
C28	C	0.598289	0.339825	0.425726
C29	C	0.548892	0.407607	0.407481
C30	C	0.730637	0.357859	0.357923
C31	C	0.416457	0.357903	0.357994
C32	C	1.073196	0.357835	0.551656
C33	C	1.073208	0.357821	0.634202
C34	C	1.266872	0.357897	0.357992
C35	C	1.349418	0.357909	0.358010
C36	C	1.073277	0.164163	0.357979
C37	C	1.073324	0.081617	0.357991
C38	C	1.023557	0.832828	0.407536
C39	C	1.005459	0.882261	0.339767
C40	C	1.073180	0.784497	0.357967
C41	C	1.091314	0.882146	0.425744
C42	C	1.073249	0.930482	0.357983
C43	C	1.055046	0.832842	0.290162
C44	C	1.140933	0.832722	0.376186
C45	C	1.122861	0.882133	0.308370
C46	C	1.073138	0.700398	0.357959
C47	C	1.073291	1.014578	0.357983
C48	C	1.073181	0.357848	0.164998
C49	C	1.073312	0.357652	0.082453
C50	C	1.023612	0.407353	0.833635
C51	C	1.091367	0.425511	0.883034
C52	C	1.073245	0.357765	0.785332
C53	C	1.005527	0.339586	0.883014
C54	C	1.073274	0.357711	0.931317
C55	C	1.141036	0.375958	0.833645
C56	C	1.055150	0.290002	0.833620
C57	C	1.122952	0.308134	0.882998
C58	C	1.073227	0.357797	0.701234
C59	C	1.073300	0.357679	1.015414
H60	H	0.619875	0.266226	0.266503
O61	O	0.624288	0.321710	0.494094
C62	C	0.667253	0.380620	0.522068
H63	H	0.650339	0.434389	0.493547
H64	H	0.728377	0.369211	0.510998
C65	C	0.675236	0.321710	0.641139
C66	C	0.654458	0.387751	0.606113
H67	H	0.667347	0.326107	0.692982
H68	H	0.646292	0.282019	0.622292
H69	H	0.726172	0.312209	0.631906
H70	H	0.603521	0.397245	0.615338
H71	H	0.683393	0.427443	0.624963
O72	O	0.973481	0.806870	0.457466
C73	C	0.974571	0.728767	0.457240
H74	H	1.030197	0.708539	0.435220
H75	H	0.928162	0.707197	0.420229
C76	C	0.894988	0.724757	0.563780
C77	C	0.963312	0.699913	0.536740
H78	H	0.888040	0.706957	0.612818
H79	H	0.894251	0.777376	0.563931
H80	H	0.856322	0.706779	0.532930
H81	H	1.001977	0.717898	0.567584
H82	H	0.964055	0.647296	0.536596
H83	H	1.198184	0.810948	0.391613
H84	H	0.981678	0.449342	0.811961
O85	O	1.109498	0.907895	0.494171
C86	C	1.056985	0.882789	0.546238
H87	H	1.028685	0.830823	0.524199
H88	H	1.013748	0.927812	0.555912
C89	C	1.131013	0.928568	0.646887
C90	C	1.096260	0.864739	0.619820
H91	H	1.155239	0.917437	0.692277
H92	H	1.166391	0.945486	0.611808
H93	H	1.094977	0.966081	0.654942
H94	H	1.132297	0.827231	0.611756
H95	H	1.060889	0.847815	0.654899
O96	O	1.036979	0.221664	0.807664
C97	C	1.095864	0.193604	0.764708
H98	H	1.149656	0.222044	0.781595
H99	H	1.084457	0.204696	0.703578
C100	C	1.036861	0.074623	0.756807
C101	C	1.102931	0.109548	0.777553
H102	H	1.041220	0.022773	0.764728
H103	H	0.997188	0.093528	0.785746
H104	H	1.027363	0.083874	0.705867
H105	H	1.112424	0.100305	0.828495
H106	H	1.142606	0.090640	0.748624
H107	H	1.106690	0.482794	0.904739
O108	O	1.209338	0.394380	0.807764
C109	C	1.208494	0.394199	0.729658
H110	H	1.149305	0.402456	0.709205
H111	H	1.230580	0.338936	0.708513
C112	C	1.330391	0.447357	0.725655
C113	C	1.257694	0.457505	0.700533
H114	H	1.360742	0.486404	0.707688
H115	H	1.330962	0.447477	0.778276
H116	H	1.348786	0.401302	0.708032
H117	H	1.239297	0.503554	0.718164
H118	H	1.257122	0.457394	0.647914
H119	H	0.527370	0.449673	0.449370
H120	H	0.948195	0.904037	0.324371
O121	O	1.173195	0.258163	0.908665
C122	C	1.244484	0.277566	0.883357
H123	H	1.245858	0.339187	0.869571
H124	H	1.258286	0.244111	0.831608
C125	C	1.300168	0.185032	0.961172
C126	C	1.301857	0.260717	0.944246
H127	H	1.335560	0.174636	0.998729
H128	H	1.252140	0.171957	0.978220
H129	H	1.311668	0.157161	0.918043
H130	H	1.290349	0.288585	0.987372
H131	H	1.349886	0.273795	0.927206
O132	O	0.937174	0.321392	0.908924
C133	C	0.909658	0.379710	0.952992
H134	H	0.938379	0.433601	0.936918
H135	H	0.920910	0.367189	1.013874
C136	C	0.790331	0.321340	0.960342
C137	C	0.825601	0.387531	0.940595
H138	H	0.738480	0.326164	0.952699
H139	H	0.808869	0.282049	0.930655
H140	H	0.799715	0.310913	1.011077
H141	H	0.816224	0.397952	0.889860
H142	H	0.807059	0.426825	0.970273
O143	O	0.522893	0.394028	0.221741
C144	C	0.548034	0.341518	0.169681
H145	H	0.561928	0.287481	0.199304
H146	H	0.599683	0.363559	0.140803
C147	C	0.469893	0.393748	0.075424
C148	C	0.486953	0.327377	0.111806
H149	H	0.432218	0.385027	0.039721
H150	H	0.452957	0.429127	0.110496
H151	H	0.512939	0.412109	0.051365
H152	H	0.443910	0.309023	0.135871
H153	H	0.503881	0.291995	0.076735
O154	O	0.522936	0.221894	0.394724
C155	C	0.480037	0.227097	0.459776
H156	H	0.458730	0.286200	0.466261
H157	H	0.515603	0.211903	0.509731
C158	C	0.440085	0.100873	0.446630
C159	C	0.413910	0.173463	0.454592
H160	H	0.399297	0.067787	0.443435
H161	H	0.468989	0.097366	0.402805
H162	H	0.469723	0.088222	0.488261
H163	H	0.384281	0.186116	0.412958
H164	H	0.385000	0.176971	0.498411
H165	H	1.039669	0.811275	0.232834
H166	H	0.619785	0.482928	0.324134
H167	H	1.164855	0.903645	0.266409
