data_functionalizedCrystal
_audit_creation_method	'MofGen! by Chris Wilmer'
_symmetry_space_group_name_H-M	'P1'
_symmetry_Int_Tables_number	1
_symmetry_cell_setting	triclinic
loop_
_symmetry_equiv_pos_as_xyz
  x,y,z
_cell_length_a	18.215407
_cell_length_b	12.827892
_cell_length_c	18.215399
_cell_angle_alpha	89.975972
_cell_angle_beta	89.982187
_cell_angle_gamma	90.009715
loop_
_atom_site_label
_atom_site_type_symbol
_atom_site_fract_x
_atom_site_fract_y
_atom_site_fract_z
Zn1	Zn	1.125121	-0.416197	-0.416096
Zn2	Zn	1.458455	-0.082863	-0.082763
Zn3	Zn	1.791788	0.250470	0.250570
Zn4	Zn	1.125051	-0.590956	-0.293038
Zn5	Zn	1.458384	-0.257623	0.040295
Zn6	Zn	1.791717	0.075711	0.373628
Zn7	Zn	1.002054	-0.416213	-0.293048
Zn8	Zn	1.335387	-0.082880	0.040285
Zn9	Zn	1.668721	0.250454	0.373619
Zn10	Zn	1.002041	-0.590880	-0.416068
Zn11	Zn	1.335374	-0.257546	-0.082734
Zn12	Zn	1.668707	0.075787	0.250599
O13	O	1.063567	-0.503561	-0.354563
O14	O	1.396900	-0.170228	-0.021229
O15	O	1.730233	0.163105	0.312104
O16	O	1.228096	-0.439404	-0.399780
O17	O	1.561430	-0.106071	-0.066447
O18	O	1.894763	0.227263	0.266886
O19	O	1.108711	-0.567815	-0.190055
O20	O	1.442044	-0.234481	0.143278
O21	O	1.775378	0.098852	0.476611
O22	O	1.018414	-0.269975	-0.309387
O23	O	1.351748	0.063359	0.023947
O24	O	1.685081	0.396692	0.357280
O25	O	1.228044	-0.567799	-0.309370
O26	O	1.561378	-0.234466	0.023963
O27	O	1.894711	0.098868	0.357296
O28	O	1.108831	-0.269963	-0.399790
O29	O	1.442165	0.063370	-0.066456
O30	O	1.775498	0.396704	0.266877
O31	O	1.018346	-0.439432	-0.190062
O32	O	1.351679	-0.106098	0.143271
O33	O	1.685012	0.227235	0.476604
O34	O	0.899068	-0.439358	-0.309359
O35	O	1.232401	-0.106024	0.023975
O36	O	1.565735	0.227309	0.357308
O37	O	1.018392	-0.567669	-0.519056
O38	O	1.351725	-0.234336	-0.185722
O39	O	1.685058	0.098998	0.147611
O40	O	0.899058	-0.567685	-0.399741
O41	O	1.232392	-0.234351	-0.066407
O42	O	1.565725	0.098982	0.266926
O43	O	1.108819	-0.439330	-0.519077
O44	O	1.442152	-0.105997	-0.185743
O45	O	1.775485	0.227336	0.147590
O46	O	1.108698	-0.737182	-0.309342
O47	O	1.442031	-0.403849	0.023991
O48	O	1.775365	-0.070515	0.357324
O49	O	1.018323	-0.737126	-0.399732
O50	O	1.351656	-0.403793	-0.066398
O51	O	1.684990	-0.070459	0.266935
C52	C	0.872360	-0.503515	-0.354548
C53	C	1.205694	-0.170182	-0.021215
C54	C	1.539027	0.163151	0.312118
C55	C	0.790562	-0.503521	-0.354559
C56	C	1.123895	-0.170187	-0.021226
C57	C	1.457228	0.163146	0.312107
C58	C	0.525525	-0.436835	-0.401714
C59	C	0.858859	-0.103502	-0.068381
C60	C	1.192192	0.229832	0.264953
C61	C	0.602384	-0.436818	-0.401712
C62	C	0.935718	-0.103485	-0.068378
C63	C	1.269051	0.229849	0.264955
C64	C	0.602349	-0.570322	-0.307427
C65	C	0.935683	-0.236988	0.025906
C66	C	1.269016	0.096345	0.359240
C67	C	0.525492	-0.570343	-0.307434
C68	C	0.858825	-0.237010	0.025900
C69	C	1.192159	0.096324	0.359233
C70	C	0.487082	-0.503594	-0.354576
C71	C	0.820415	-0.170260	-0.021243
C72	C	1.153749	0.163073	0.312091
C73	C	0.640798	-0.503555	-0.354567
C74	C	0.974131	-0.170222	-0.021234
C75	C	1.307465	0.163111	0.312100
C76	C	0.724132	-0.503538	-0.354564
C77	C	1.057465	-0.170204	-0.021231
C78	C	1.390798	0.163129	0.312102
C79	C	0.403743	-0.503613	-0.354580
C80	C	0.737076	-0.170279	-0.021247
C81	C	1.070410	0.163054	0.312087
C82	C	1.063521	-0.775071	-0.354549
C83	C	1.396855	-0.441738	-0.021216
C84	C	1.730188	-0.108405	0.312118
C85	C	1.063569	-0.891224	-0.354568
C86	C	1.396903	-0.557891	-0.021234
C87	C	1.730236	-0.224558	0.312099
C88	C	1.018838	-0.943016	-0.399262
C89	C	1.352172	-0.609683	-0.065929
C90	C	1.685505	-0.276349	0.267404
C91	C	1.018887	-1.063066	-0.399283
C92	C	1.352220	-0.729733	-0.065949
C93	C	1.685554	-0.396400	0.267384
C94	C	1.255520	-0.503608	-0.354577
C95	C	1.588853	-0.170275	-0.021244
C96	C	1.922186	0.163058	0.312089
C97	C	1.337318	-0.503628	-0.354584
C98	C	1.670652	-0.170295	-0.021250
C99	C	2.003985	0.163038	0.312083
C100	C	1.063612	-0.503489	-0.546516
C101	C	1.396945	-0.170156	-0.213182
C102	C	1.730278	0.163177	0.120151
C103	C	1.063631	-0.503459	-0.628314
C104	C	1.396964	-0.170125	-0.294981
C105	C	1.730297	0.163208	0.038352
C106	C	1.063632	-0.230991	-0.354592
C107	C	1.396966	0.102342	-0.021259
C108	C	1.730299	0.435675	0.312074
C109	C	1.063660	-0.114838	-0.354605
C110	C	1.396994	0.218495	-0.021272
C111	C	1.730327	0.551829	0.312062
C112	C	1.110733	-0.436570	-0.816521
C113	C	1.444066	-0.103237	-0.483187
C114	C	1.777400	0.230097	-0.149854
C115	C	1.110742	-0.436540	-0.893379
C116	C	1.444075	-0.103206	-0.560046
C117	C	1.777408	0.230127	-0.226713
C118	C	1.016580	-0.570186	-0.893346
C119	C	1.349914	-0.236852	-0.560013
C120	C	1.683247	0.096481	-0.226680
C121	C	1.016569	-0.570210	-0.816489
C122	C	1.349902	-0.236877	-0.483156
C123	C	1.683235	0.096457	-0.149822
C124	C	1.063649	-0.503404	-0.778078
C125	C	1.396982	-0.170070	-0.444745
C126	C	1.730316	0.163263	-0.111411
C127	C	1.063670	-0.503349	-0.931794
C128	C	1.397003	-0.170016	-0.598461
C129	C	1.730336	0.163318	-0.265128
C130	C	1.063679	-0.503316	-1.015128
C131	C	1.397012	-0.169983	-0.681795
C132	C	1.730345	0.163350	-0.348461
C133	C	1.063639	-0.503435	-0.694739
C134	C	1.396972	-0.170101	-0.361406
C135	C	1.730306	0.163232	-0.028072
C136	C	1.063564	-0.503558	-0.163356
C137	C	1.396898	-0.170224	0.169977
C138	C	1.730231	0.163109	0.503310
C139	C	1.063688	-0.503294	-0.081558
C140	C	1.397021	-0.169961	0.251776
C141	C	1.730355	0.163373	0.585109
H142	H	0.633632	-0.624664	-0.269044
H143	H	0.966965	-0.291331	0.064289
H144	H	1.300299	0.042002	0.397623
Br145	Br	0.954944	-0.868797	-0.463016
Br146	Br	1.288277	-0.535464	-0.129683
Br147	Br	1.621610	-0.202131	0.203651
H148	H	0.980594	-1.107606	-0.437550
H149	H	1.313928	-0.774272	-0.104217
H150	H	1.647261	-0.440939	0.229116
Br151	Br	1.127501	-1.040617	-0.290828
Br152	Br	1.460835	-0.707284	0.042505
Br153	Br	1.794168	-0.373950	0.375839
Br154	Br	0.952657	-0.660910	-0.764312
Br155	Br	1.285991	-0.327577	-0.430978
Br156	Br	1.619324	0.005756	-0.097645
Br157	Br	1.174649	-0.345840	-0.945549
Br158	Br	1.507983	-0.012507	-0.612216
Br159	Br	1.841316	0.320826	-0.278882
H160	H	0.494254	-0.382483	-0.440100
H161	H	0.827588	-0.049150	-0.106767
H162	H	1.160921	0.284184	0.226566
Br163	Br	0.473314	-0.660953	-0.243457
Br164	Br	0.806647	-0.327620	0.089876
Br165	Br	1.139980	0.005713	0.423209
H166	H	0.633681	-0.382457	-0.440097
H167	H	0.967015	-0.049124	-0.106764
H168	H	1.300348	0.284209	0.226570
Br169	Br	1.174626	-0.345903	-0.764394
Br170	Br	1.507959	-0.012570	-0.431060
Br171	Br	1.841292	0.320763	-0.097727
H172	H	1.101899	-0.935760	-0.316316
H173	H	1.435232	-0.602427	0.017017
H174	H	1.768565	-0.269094	0.350351
Br175	Br	0.952691	-0.660850	-0.945480
Br176	Br	1.286025	-0.327517	-0.612146
Br177	Br	1.619358	0.005816	-0.278813
