data_functionalizedCrystal
_audit_creation_method	'MofGen! by Chris Wilmer'
_symmetry_space_group_name_H-M	'P1'
_symmetry_Int_Tables_number	1
_symmetry_cell_setting	triclinic
loop_
_symmetry_equiv_pos_as_xyz
  x,y,z
_cell_length_a	12.645331
_cell_length_b	12.645330
_cell_length_c	12.645324
_cell_angle_alpha	90.031659
_cell_angle_beta	90.021980
_cell_angle_gamma	90.016671
loop_
_atom_site_label
_atom_site_type_symbol
_atom_site_fract_x
_atom_site_fract_y
_atom_site_fract_z
Zn1	Zn	1.620724	-0.421989	0.599446
Zn2	Zn	2.120724	0.078011	1.099446
Zn3	Zn	1.620608	-0.599298	0.422186
Zn4	Zn	2.120608	-0.099298	0.922186
Zn5	Zn	1.443441	-0.422046	0.422191
Zn6	Zn	1.943441	0.077954	0.922191
Zn7	Zn	1.443420	-0.599208	0.599402
Zn8	Zn	1.943420	-0.099208	1.099402
O9	O	1.532048	-0.510635	0.510806
O10	O	2.032048	-0.010635	1.010806
O11	O	1.769056	-0.445523	0.575949
O12	O	2.269056	0.054477	1.075949
O13	O	1.597066	-0.575846	0.273840
O14	O	2.097066	-0.075846	0.773840
O15	O	1.467015	-0.273691	0.445724
O16	O	1.967015	0.226309	0.945724
O17	O	1.768970	-0.575791	0.445717
O18	O	2.268970	-0.075791	0.945717
O19	O	1.597264	-0.273649	0.575953
O20	O	2.097264	0.226351	1.075953
O21	O	1.466902	-0.445620	0.273843
O22	O	1.966902	0.054380	0.773843
O23	O	1.295091	-0.445533	0.445681
O24	O	1.795091	0.054467	0.945681
O25	O	1.466980	-0.575638	0.747755
O26	O	1.966980	-0.075638	1.247755
O27	O	1.295076	-0.575693	0.575877
O28	O	1.795076	-0.075693	1.075877
O29	O	1.597244	-0.445436	0.747788
O30	O	2.097244	0.054564	1.247788
O31	O	1.597046	-0.747633	0.445674
O32	O	2.097046	-0.247633	0.945674
O33	O	1.466867	-0.747567	0.575873
O34	O	1.966867	-0.247567	1.075873
C35	C	1.256618	-0.510610	0.510776
C36	C	1.756618	-0.010610	1.010776
C37	C	1.138788	-0.510625	0.510788
C38	C	1.638788	-0.010625	1.010788
C39	C	1.531971	-0.786065	0.510791
C40	C	2.031971	-0.286065	1.010791
C41	C	1.532035	-0.903895	0.510821
C42	C	2.032035	-0.403895	1.010821
C43	C	0.971198	-0.428364	0.429333
C44	C	1.471198	0.071636	0.929333
C45	C	1.093758	-0.428577	0.428974
C46	C	1.593758	0.071423	0.928974
C47	C	1.094269	-0.622302	0.480273
C48	C	1.594269	-0.122302	0.980273
C49	C	0.971670	-0.621853	0.479717
C50	C	1.471670	-0.121853	0.979717
C51	C	0.971638	-0.482270	0.623072
C52	C	1.471638	0.017730	1.123072
C53	C	1.094244	-0.479775	0.622448
C54	C	1.594244	0.020225	1.122448
C55	C	1.450477	-1.071461	0.592982
C56	C	1.950477	-0.571461	1.092982
C57	C	1.450060	-0.948902	0.592717
C58	C	1.950060	-0.448902	1.092717
C59	C	1.501791	-0.948501	0.399099
C60	C	2.001791	-0.448501	0.899099
C61	C	1.501293	-1.071100	0.399597
C62	C	2.001293	-0.571100	0.899597
C63	C	1.644335	-1.070983	0.539475
C64	C	2.144335	-0.570983	1.039475
C65	C	1.643647	-0.948375	0.541918
C66	C	2.143647	-0.448375	1.041918
C67	C	1.808553	-0.510661	0.510838
C68	C	2.308553	-0.010661	1.010838
C69	C	1.926383	-0.510672	0.510851
C70	C	2.426383	-0.010672	1.010851
C71	C	1.532123	-0.510520	0.787312
C72	C	2.032123	-0.010520	1.287312
C73	C	1.532155	-0.510471	0.905142
C74	C	2.032155	-0.010471	1.405142
C75	C	1.532155	-0.234130	0.510844
C76	C	2.032155	0.265870	1.010844
C77	C	1.532200	-0.116300	0.510861
C78	C	2.032200	0.383700	1.010861
C79	C	1.532035	-0.510673	0.235377
C80	C	2.032035	-0.010673	0.735377
C81	C	1.532208	-0.510423	0.117547
C82	C	2.032208	-0.010423	0.617547
C83	C	1.614122	-0.428544	0.950044
C84	C	2.114122	0.071456	1.450044
C85	C	1.614474	-0.428758	1.072604
C86	C	2.114474	0.071242	1.572604
C87	C	1.562111	-0.622241	1.073023
C88	C	2.062111	-0.122241	1.573023
C89	C	1.562675	-0.621795	0.950425
C90	C	2.062675	-0.121795	1.450425
C91	C	1.420090	-0.481547	0.950312
C92	C	1.920090	0.018453	1.450312
C93	C	1.420721	-0.479055	1.072919
C94	C	1.920721	0.020945	1.572919
H95	H	1.123859	-0.345764	0.448100
H96	H	1.623859	0.154236	0.948100
H97	H	1.356430	-0.534332	1.103509
H98	H	1.856430	-0.034332	1.603509
H99	H	1.504254	-0.684938	1.102130
H100	H	2.004254	-0.184938	1.602130
H101	H	1.367864	-1.102363	0.574266
H102	H	1.867864	-0.602363	1.074266
H103	H	1.123037	-0.447350	0.345814
H104	H	1.623037	0.052650	0.845814
H105	H	0.940352	-0.446929	0.346662
H106	H	1.440352	0.053071	0.846662
H107	H	1.398163	-0.396765	1.102023
H108	H	1.898163	0.103235	1.602023
H109	H	1.420673	-0.917892	0.374420
H110	H	1.920673	-0.417892	0.874420
H111	H	1.419321	-1.099793	0.375357
H112	H	1.919321	-0.599793	0.875357
H113	H	0.941734	-0.345302	0.448254
H114	H	1.441734	0.154698	0.948254
H115	H	0.943025	-0.645937	0.397678
H116	H	1.443025	-0.145937	0.897678
H117	H	1.366928	-0.919668	0.573760
H118	H	1.866928	-0.419668	1.073760
H119	H	0.942025	-0.685255	0.536502
H120	H	1.442025	-0.185255	1.036502
H121	H	1.359024	-0.541214	0.921269
H122	H	1.859024	-0.041214	1.421269
H123	H	1.123437	-0.685267	0.537783
H124	H	1.623437	-0.185267	1.037783
H125	H	1.124925	-0.646800	0.399115
H126	H	1.624925	-0.146800	0.899115
H127	H	1.124900	-0.535351	0.686433
H128	H	1.624900	-0.035351	1.186433
H129	H	1.392770	-0.401415	0.919395
H130	H	1.892770	0.098585	1.419395
H131	H	0.940741	-0.402256	0.650823
H132	H	1.440741	0.097744	1.150823
H133	H	1.644582	-0.646259	0.921841
H134	H	2.144582	-0.146259	1.421841
H135	H	1.666455	-0.919216	0.624140
H136	H	2.166455	-0.419216	1.124140
H137	H	1.558234	-1.100766	0.336324
H138	H	2.058234	-0.600766	0.836324
H139	H	1.707742	-0.917733	0.486462
H140	H	2.207742	-0.417733	0.986462
H141	H	1.705221	-1.099979	0.479663
H142	H	2.205221	-0.599979	0.979663
H143	H	1.559427	-0.919352	0.336240
H144	H	2.059427	-0.419352	0.836240
H145	H	1.671924	-1.101817	0.619558
H146	H	2.171924	-0.601817	1.119558
H147	H	1.697528	-0.447919	1.101946
H148	H	2.197528	0.052081	1.601946
H149	H	1.595658	-0.345394	0.920588
H150	H	2.095658	0.154606	1.420588
H151	H	1.505525	-0.684917	0.920717
H152	H	2.005525	-0.184917	1.420717
H153	H	1.123347	-0.397593	0.645458
H154	H	1.623347	0.102407	1.145458
H155	H	1.595790	-0.345859	1.102711
H156	H	2.095790	0.154141	1.602711
H157	H	1.643118	-0.647130	1.103763
H158	H	2.143118	-0.147130	1.603763
H159	H	1.696689	-0.447486	0.919250
H160	H	2.196689	0.052514	1.419250
H161	H	1.468982	-0.918738	0.675558
H162	H	1.968982	-0.418738	1.175558
H163	H	1.469226	-1.100863	0.676094
H164	H	1.969226	-0.600863	1.176094
H165	H	0.942658	-0.542220	0.683810
H166	H	1.442658	-0.042220	1.183810
