data_functionalizedCrystal
_audit_creation_method	'MofGen! by Chris Wilmer'
_symmetry_space_group_name_H-M	'P1'
_symmetry_Int_Tables_number	1
_symmetry_cell_setting	triclinic
loop_
_symmetry_equiv_pos_as_xyz
  x,y,z
_cell_length_a	17.917559
_cell_length_b	17.917559
_cell_length_c	14.560438
_cell_angle_alpha	57.014365
_cell_angle_beta	89.999254
_cell_angle_gamma	60.141025
loop_
_atom_site_label
_atom_site_type_symbol
_atom_site_fract_x
_atom_site_fract_y
_atom_site_fract_z
Zr1	Zr	0.790706	0.746384	-0.117920
O2	O	0.673571	0.913077	-0.280439
O3	O	0.821450	0.587574	-0.062372
O4	O	0.828897	0.742902	-0.262235
O5	O	0.666124	0.757746	0.070564
O6	O	0.957295	0.731189	-0.254388
O7	O	0.666124	0.757749	-0.080577
O8	O	0.943973	0.453335	0.103129
O9	O	0.679446	1.035601	-0.286953
O10	O	0.936623	0.641234	-0.039745
O11	O	0.840801	0.649974	0.067194
O12	O	0.849569	0.832853	-0.168118
O13	O	0.753747	0.841593	-0.061178
Zr14	Zr	0.995486	0.727700	0.135647
Zr15	Zr	0.995486	0.727703	-0.105406
Zr16	Zr	0.790706	0.746381	0.123133
Zr17	Zr	0.800075	0.941795	-0.128308
Zr18	Zr	0.986117	0.532289	0.146035
O19	O	0.964742	0.886510	0.080100
O20	O	0.964742	0.886515	-0.262646
O21	O	0.673571	0.913072	0.062306
O22	O	1.112620	0.561007	0.298166
O23	O	1.112620	0.561012	-0.044579
O24	O	0.821450	0.587569	0.280373
O25	O	1.120067	0.716338	-0.052837
O26	O	0.957295	0.731182	0.279962
O27	O	0.828897	0.742895	0.272115
O28	O	1.120067	0.716335	0.098304
O29	O	0.842218	1.020752	-0.277006
O30	O	0.943973	0.453332	0.294733
O31	O	1.106746	0.438483	0.304680
O32	O	1.106746	0.438486	0.113075
O33	O	0.679446	1.035598	-0.095348
O34	O	0.842218	1.020749	-0.085401
O35	O	0.936623	0.641231	0.185845
O36	O	1.032445	0.632491	0.078906
O37	O	0.945391	0.824110	-0.049467
O38	O	0.849569	0.832850	0.057472
C39	C	0.881376	0.492613	0.021858
C40	C	0.877399	0.409655	0.026268
C41	C	0.636947	0.760409	-0.006790
C42	C	0.550013	0.768340	-0.012102
C43	C	0.915989	0.216384	-0.016674
C44	C	0.870205	0.257704	0.034398
C45	C	0.874209	0.342258	0.029873
C46	C	0.911986	0.131823	-0.012150
C47	C	0.395325	0.691271	0.039527
C48	C	0.390873	0.782808	-0.021797
C49	C	0.479427	0.774755	-0.016401
C50	C	0.306764	0.699322	0.034133
C51	C	1.149244	0.713675	0.024517
C52	C	1.236179	0.705744	0.029829
C53	C	0.893096	0.737046	-0.292656
C54	C	0.893096	0.737048	-0.394989
C55	C	0.904815	0.981471	-0.004131
C56	C	0.908792	1.064429	-0.008541
C57	C	0.847650	0.837069	-0.510075
C58	C	0.847653	0.837064	-0.606223
C59	C	0.938547	0.637007	-0.472186
C60	C	0.938549	0.637013	-0.376040
C61	C	0.795170	0.952571	-0.587461
C62	C	0.795173	0.952566	-0.683610
C63	C	0.893096	0.737038	0.310383
C64	C	0.893096	0.737036	0.412716
C65	C	1.137525	0.469245	0.037511
C66	C	1.220482	0.378358	0.047234
C67	C	0.881377	0.492608	0.323378
C68	C	0.877399	0.409650	0.430121
C69	C	1.137525	0.469241	0.339031
C70	C	1.220482	0.378352	0.451087
C71	C	0.648666	1.004843	-0.321304
C72	C	0.565709	1.095732	-0.433360
C73	C	0.648666	1.004839	-0.019784
C74	C	0.565709	1.095726	-0.029507
C75	C	0.904815	0.981476	-0.305651
C76	C	0.908792	1.064434	-0.412394
C77	C	1.209421	0.340240	-0.010144
C78	C	1.287361	0.254852	-0.001032
C79	C	1.376360	0.207580	0.065466
C80	C	1.387419	0.245706	0.122845
C81	C	1.309481	0.331097	0.113726
C82	C	0.925549	0.366128	0.542193
C83	C	0.921809	0.288191	0.642499
C84	C	0.869923	0.253771	0.630729
C85	C	0.821767	0.297301	0.518645
C86	C	0.825503	0.375243	0.418342
C87	C	1.309466	0.331107	0.447889
C88	C	1.387422	0.245717	0.553168
C89	C	1.376390	0.207569	0.661644
C90	C	1.287397	0.254823	0.664839
C91	C	1.209444	0.340216	0.559561
C92	C	0.476726	1.142987	-0.430162
C93	C	0.398771	1.228401	-0.535443
C94	C	0.409803	1.266553	-0.643919
C95	C	0.498796	1.219294	-0.647113
C96	C	0.576748	1.133887	-0.541835
C97	C	0.576770	1.133853	0.027861
C98	C	0.498832	1.219261	0.018721
C99	C	0.409833	1.266537	-0.047780
C100	C	0.398774	1.228407	-0.105155
C101	C	0.476712	1.143005	-0.096022
C102	C	0.960687	1.098828	-0.400587
C103	C	0.964442	1.176764	-0.500873
C104	C	0.916297	1.220311	-0.612965
C105	C	0.864401	1.185910	-0.624770
C106	C	0.860652	1.107969	-0.524484
H107	H	0.827995	0.229583	0.081514
Br108	Br	0.986326	0.263267	-0.095216
H109	H	1.318466	0.362154	0.359573
Br110	Br	0.790209	1.061311	-0.540531
H111	H	1.459893	0.207204	0.176987
H112	H	0.649201	1.095413	-0.544452
Br113	Br	0.273674	0.923509	-0.116062
H114	H	0.465639	0.606862	0.096075
H115	H	0.975566	0.555564	-0.282334
Br116	Br	1.272442	0.203038	0.812067
H117	H	0.346378	1.336076	-0.055207
Br118	Br	1.000232	0.501252	-0.446479
Br119	Br	0.513862	1.270987	0.096598
Br120	Br	0.697546	1.069714	0.118117
Br121	Br	0.852094	1.018238	-0.587968
Br122	Br	0.303999	1.382466	-0.786789
Br123	Br	0.277982	1.292576	-0.195400
H124	H	0.999893	1.063384	-0.309325
H125	H	0.467692	1.111966	-0.142736
Br126	Br	1.034872	1.223440	-0.484825
H127	H	0.722859	0.993525	-0.585071
H128	H	0.834922	0.983293	-0.734022
Br129	Br	0.671085	1.034727	-0.782153
Br130	Br	1.088646	0.404380	-0.100404
Br131	Br	0.921394	1.326090	-0.749057
H132	H	1.278338	0.223821	-0.047759
Br133	Br	0.513751	1.271083	-0.794342
H134	H	1.318499	0.362121	0.160458
Br135	Br	0.799057	1.245030	-0.776906
H136	H	1.439815	0.138049	0.072883
H137	H	0.961027	0.252757	0.733753
Br138	Br	0.995978	0.412817	0.558199
H139	H	0.866889	0.190306	0.712412
H140	H	0.786296	0.410668	0.327092
Br141	Br	0.751355	0.250577	0.502693
H142	H	1.439873	0.138035	0.747359
H143	H	1.136992	0.378673	0.562181
Br144	Br	1.508186	0.181602	0.548804
H145	H	0.467726	1.111929	-0.341846
Br146	Br	0.278007	1.292518	-0.531079
