data_functionalizedCrystal
_audit_creation_method	'MofGen! by Chris Wilmer'
_symmetry_space_group_name_H-M	'P1'
_symmetry_Int_Tables_number	1
_symmetry_cell_setting	triclinic
loop_
_symmetry_equiv_pos_as_xyz
  x,y,z
_cell_length_a	16.109301
_cell_length_b	7.088929
_cell_length_c	16.109301
_cell_angle_alpha	96.223316
_cell_angle_beta	83.461481
_cell_angle_gamma	83.795408
loop_
_atom_site_label
_atom_site_type_symbol
_atom_site_fract_x
_atom_site_fract_y
_atom_site_fract_z
O1	O	1.094601	0.158875	0.115410
O2	O	0.852537	0.158906	0.128711
O3	O	0.980220	0.158870	0.001028
O4	O	0.966918	0.158911	0.243093
O5	O	0.997283	-0.159110	-0.016074
O6	O	0.869601	-0.159074	0.111609
O7	O	1.111664	-0.159105	0.098308
Cu8	Cu	0.992190	-0.188123	0.103397
Cu9	Cu	0.972011	0.187925	0.123622
O10	O	0.983982	-0.159069	0.225991
C11	C	0.830094	-0.000080	0.119621
C12	C	0.737798	-0.000069	0.118007
N13	N	1.006390	-0.452615	0.089171
C14	C	0.515526	-0.000079	0.190014
C15	C	0.428806	-0.000091	0.188489
C16	C	0.448682	-0.000109	0.037000
C17	C	0.535400	-0.000110	0.038525
C18	C	0.568820	-0.000085	0.115035
C19	C	0.395381	-0.000097	0.111985
C20	C	0.301356	-0.000110	0.110331
C21	C	0.662851	-0.000075	0.116689
C22	C	1.134107	-0.000114	0.107398
C23	C	1.226403	-0.000113	0.109013
C24	C	0.988213	-0.000121	-0.038498
C25	C	0.986598	-0.000123	-0.130793
N26	N	0.957818	0.452417	0.137841
C27	C	1.058604	-0.000102	-0.353064
C28	C	1.057079	-0.000086	-0.439784
C29	C	0.905590	-0.000074	-0.419909
C30	C	0.907115	-0.000076	-0.333190
C31	C	0.983625	-0.000100	-0.299771
C32	C	0.980575	-0.000082	-0.473209
C33	C	0.978921	-0.000065	-0.567234
C34	C	0.985279	-0.000114	-0.205740
C35	C	0.975988	-0.000074	0.265517
C36	C	0.977603	-0.000059	0.357813
H37	H	0.385418	-0.000090	0.249545
H38	H	0.542733	-0.000073	0.252313
O39	O	0.897846	-0.450262	0.198120
C40	C	0.914039	-0.499057	0.277791
H41	H	0.983551	-0.554191	0.275183
H42	H	0.897496	-0.367325	0.326553
H43	H	0.874166	-0.615108	0.296063
H44	H	0.846054	-0.000069	-0.289796
O45	O	0.831350	-0.000154	-0.452518
C46	C	0.846078	-0.000111	-0.540484
H47	H	0.914196	-0.060312	-0.564108
H48	H	0.802081	-0.092431	-0.572063
H49	H	0.833864	0.152439	-0.556414
H50	H	1.056738	-0.534285	0.038737
H51	H	1.120904	-0.000117	-0.325857
H52	H	1.118135	-0.000084	-0.483172
H53	H	0.578795	-0.000121	-0.022537
O54	O	0.416073	-0.000032	-0.037240
C55	C	0.328106	-0.000073	-0.022513
H56	H	0.304490	0.060133	0.045613
H57	H	0.296540	0.092244	-0.066499
H58	H	0.312156	-0.152623	-0.034744
