data_functionalizedCrystal
_audit_creation_method	'MofGen! by Chris Wilmer'
_symmetry_space_group_name_H-M	'P1'
_symmetry_Int_Tables_number	1
_symmetry_cell_setting	triclinic
loop_
_symmetry_equiv_pos_as_xyz
  x,y,z
_cell_length_a	22.610064
_cell_length_b	27.732066
_cell_length_c	23.532357
_cell_angle_alpha	97.260802
_cell_angle_beta	90.016169
_cell_angle_gamma	90.015866
loop_
_atom_site_label
_atom_site_type_symbol
_atom_site_fract_x
_atom_site_fract_y
_atom_site_fract_z
O1	O	0.049072	-0.641006	0.067823
O2	O	0.549072	-0.141006	0.567823
O3	O	0.049101	-0.500229	0.078117
O4	O	0.549101	-0.000229	0.578117
O5	O	0.049073	-0.574875	-0.009973
O6	O	0.549073	-0.074875	0.490027
O7	O	0.049099	-0.566360	0.155912
O8	O	0.549099	-0.066360	0.655912
O9	O	-0.049296	-0.574887	-0.009988
O10	O	0.450704	-0.074887	0.490012
O11	O	-0.049269	-0.500240	0.078102
O12	O	0.450731	-0.000240	0.578102
O13	O	-0.049297	-0.641018	0.067808
O14	O	0.450703	-0.141018	0.567808
Zn15	Zn	-0.064901	-0.570631	0.072953
Zn16	Zn	0.435099	-0.070631	0.572953
Zn17	Zn	0.064705	-0.570616	0.072972
Zn18	Zn	0.564705	-0.070616	0.572972
O19	O	-0.049270	-0.566371	0.155897
O20	O	0.450730	-0.066371	0.655897
C21	C	-0.000081	-0.482227	0.077891
C22	C	0.499919	0.017773	0.577891
C23	C	-0.000070	-0.428572	0.077236
C24	C	0.499930	0.071428	0.577236
N25	N	-0.153353	-0.570644	0.072939
N26	N	0.346647	-0.070644	0.572939
N27	N	0.153157	-0.570606	0.072982
N28	N	0.653157	-0.070606	0.572982
C29	C	-0.000105	-0.051421	0.020717
C30	C	0.499895	0.448579	0.520717
C31	C	-0.000093	-0.253085	0.023130
C32	C	0.499907	0.246915	0.523130
O33	O	-0.000123	-0.284276	-0.020725
O34	O	0.499877	0.215724	0.479275
N35	N	-0.000083	-0.272284	0.075365
N36	N	0.499917	0.227716	0.575365
C37	C	-0.000079	-0.241065	0.127002
C38	C	0.499921	0.258935	0.627002
O39	O	-0.000076	-0.262023	0.171487
O40	O	0.499924	0.237977	0.671487
C41	C	-0.000095	-0.039402	0.124589
C42	C	0.499905	0.460598	0.624589
C43	C	-0.000099	-0.020206	0.072350
C44	C	0.499901	0.479794	0.572350
C45	C	-0.000110	-0.032224	-0.031517
C46	C	0.499890	0.467776	0.468483
C47	C	-0.000109	0.018189	-0.032120
C48	C	0.499891	0.518189	0.467880
C49	C	-0.000104	0.049405	0.019512
C50	C	0.499896	0.549405	0.519512
C51	C	-0.000099	0.030207	0.071747
C52	C	0.499901	0.530207	0.571747
C53	C	-0.000095	-0.008184	0.176224
C54	C	0.499905	0.491816	0.676224
C55	C	-0.000101	0.042234	0.175616
C56	C	0.499899	0.542234	0.675616
C57	C	-0.000105	0.061431	0.123377
C58	C	0.499895	0.561431	0.623377
C59	C	-0.000093	0.111836	0.122777
C60	C	0.499907	0.611836	0.622777
N61	N	-0.000103	0.131036	0.070541
N62	N	0.499897	0.631036	0.570541
C63	C	-0.000109	0.099820	0.018909
C64	C	0.499891	0.599820	0.518909
C65	C	-0.000070	-0.346941	0.128265
C66	C	0.499930	0.153059	0.628265
C67	C	-0.000065	-0.397356	0.128868
C68	C	0.499935	0.102644	0.628868
C69	C	-0.000080	-0.409373	0.024996
C70	C	0.499920	0.090627	0.524996
C71	C	-0.000081	-0.358956	0.024393
C72	C	0.499919	0.141044	0.524393
C73	C	-0.000080	-0.327741	0.076029
C74	C	0.499920	0.172259	0.576029
C75	C	-0.000108	0.205691	0.017648
C76	C	0.499892	0.705691	0.517648
C77	C	-0.000105	0.256109	0.017050
C78	C	0.499895	0.756109	0.517050
C79	C	-0.000093	0.268121	0.120921
C80	C	0.499907	0.768121	0.620921
C81	C	-0.000092	0.217707	0.121520
C82	C	0.499908	0.717707	0.621520
C83	C	-0.000102	0.186493	0.069878
C84	C	0.499898	0.686493	0.569878
O85	O	-0.000070	0.143056	0.166608
O86	O	0.499930	0.643056	0.666608
O87	O	-0.000125	0.120787	-0.025570
O88	O	0.499875	0.620787	0.474430
C89	C	-0.000105	-0.101834	0.021320
C90	C	0.499895	0.398166	0.521320
C91	C	-0.000100	-0.121031	0.073555
C92	C	0.499900	0.378969	0.573555
C93	C	-0.000095	-0.089816	0.125187
C94	C	0.499905	0.410184	0.625187
C95	C	-0.000095	-0.171447	0.074158
C96	C	0.499905	0.328553	0.574158
C97	C	-0.000100	-0.202662	0.022526
C98	C	0.499900	0.297338	0.522526
C99	C	-0.000111	-0.183462	-0.029710
C100	C	0.499889	0.316538	0.470290
C101	C	-0.000110	-0.133050	-0.030312
C102	C	0.499890	0.366950	0.469688
C103	C	-0.000084	-0.109016	0.177423
C104	C	0.499916	0.390984	0.677423
C105	C	-0.000084	-0.159429	0.178021
C106	C	0.499916	0.340571	0.678021
C107	C	-0.000089	-0.190645	0.126389
C108	C	0.499911	0.309355	0.626389
C109	C	0.561787	-0.603752	0.034031
C110	C	1.061787	-0.103752	0.534031
C111	C	0.623706	-0.603756	0.034029
C112	C	1.123706	-0.103756	0.534029
O113	O	0.655715	-0.631931	0.000935
O114	O	1.155715	-0.131931	0.500935
N115	N	0.654694	-0.570641	0.072953
N116	N	1.154694	-0.070641	0.572953
C117	C	0.623759	-0.537523	0.111886
C118	C	1.123759	-0.037523	0.611886
O119	O	0.655802	-0.509356	0.144995
O120	O	1.155802	-0.009356	0.644995
C121	C	0.561840	-0.537522	0.111891
C122	C	1.061840	-0.037522	0.611891
C123	C	0.530856	-0.570636	0.072961
C124	C	1.030856	-0.070636	0.572961
C125	C	0.530802	-0.636864	-0.004896
C126	C	1.030802	-0.136864	0.495104
C127	C	0.468886	-0.636860	-0.004894
C128	C	0.968886	-0.136860	0.495106
C129	C	0.437955	-0.603744	0.034036
C130	C	0.937955	-0.103744	0.534036
C131	C	0.468940	-0.570632	0.072963
C132	C	0.968940	-0.070632	0.572963
C133	C	0.530906	-0.504407	0.150827
C134	C	1.030906	-0.004407	0.650827
C135	C	0.468983	-0.504409	0.150829
C136	C	0.968983	-0.004409	0.650829
C137	C	0.437998	-0.537523	0.111898
C138	C	0.937998	-0.037523	0.611898
C139	C	0.376093	-0.537511	0.111895
C140	C	0.876093	-0.037511	0.611895
N141	N	0.345106	-0.570626	0.072970
N142	N	0.845106	-0.070626	0.572970
C143	C	0.376036	-0.603743	0.034041
C144	C	0.876036	-0.103743	0.534041
C145	C	0.753793	-0.537528	0.111874
C146	C	1.253793	-0.037528	0.611874
C147	C	0.815710	-0.537526	0.111866
C148	C	1.315710	-0.037526	0.611866
C149	C	0.815653	-0.603760	0.034009
C150	C	1.315653	-0.103760	0.534009
C151	C	0.753735	-0.603759	0.034014
C152	C	1.253735	-0.103759	0.534014
C153	C	0.722805	-0.570643	0.072949
C154	C	1.222805	-0.070643	0.572949
C155	C	0.246009	-0.603731	0.034048
C156	C	0.746009	-0.103731	0.534048
C157	C	0.184088	-0.603722	0.034052
C158	C	0.684088	-0.103722	0.534052
C159	C	0.184150	-0.537490	0.111911
C160	C	0.684150	-0.037490	0.611911
C161	C	0.246066	-0.537497	0.111905
C162	C	0.746066	-0.037497	0.611905
C163	C	0.276994	-0.570621	0.072972
C164	C	0.776994	-0.070621	0.572972
O165	O	0.344046	-0.509352	0.144973
O166	O	0.844046	-0.009352	0.644973
O167	O	0.343986	-0.631909	0.000943
O168	O	0.843986	-0.131909	0.500943
C169	C	-0.000113	-0.574668	-0.031196
C170	C	0.499887	-0.074668	0.468804
C171	C	-0.000118	-0.574028	-0.094413
C172	C	0.499882	-0.074028	0.405587
C173	C	-0.000109	0.340981	0.068032
C174	C	0.499891	0.840981	0.568032
C175	C	-0.000099	0.287325	0.068682
C176	C	0.499901	0.787325	0.568682
C177	C	0.053535	-0.570001	-0.486408
C178	C	0.553535	-0.070001	0.013592
C179	C	0.053539	-0.569392	-0.545806
C180	C	0.553539	-0.069392	-0.045806
O181	O	0.099142	-0.569056	-0.576515
O182	O	0.599142	-0.069056	-0.076515
N183	N	-0.000081	-0.569097	-0.575525
N184	N	0.499919	-0.069097	-0.075525
C185	C	-0.053709	-0.569405	-0.545842
C186	C	0.446291	-0.069405	-0.045842
O187	O	-0.099316	-0.569097	-0.576574
O188	O	0.400684	-0.069097	-0.076574
C189	C	-0.053711	-0.570010	-0.486444
C190	C	0.446289	-0.070010	0.013556
C191	C	-0.000088	-0.570311	-0.456729
C192	C	0.499912	-0.070311	0.043271
C193	C	0.107155	-0.570301	-0.456693
C194	C	0.607155	-0.070301	0.043307
C195	C	0.107151	-0.570911	-0.397299
C196	C	0.607151	-0.070911	0.102701
C197	C	0.053528	-0.571220	-0.367620
C198	C	0.553528	-0.071220	0.132380
C199	C	-0.000091	-0.570920	-0.397335
C200	C	0.499909	-0.070920	0.102665
C201	C	-0.107338	-0.570315	-0.456761
C202	C	0.392662	-0.070315	0.043239
C203	C	-0.107336	-0.570920	-0.397360
C204	C	0.392664	-0.070920	0.102640
C205	C	-0.053713	-0.571220	-0.367645
C206	C	0.446287	-0.071220	0.132355
C207	C	-0.053718	-0.571839	-0.308263
C208	C	0.446282	-0.071839	0.191737
N209	N	-0.000098	-0.572135	-0.278544
N210	N	0.499902	-0.072135	0.221456
C211	C	0.053525	-0.571826	-0.308223
C212	C	0.553525	-0.071826	0.191777
C213	C	-0.053698	-0.568133	-0.670581
C214	C	0.446302	-0.068133	-0.170581
C215	C	-0.053696	-0.567531	-0.729978
C216	C	0.446304	-0.067531	-0.229978
C217	C	0.053552	-0.567518	-0.729938
C218	C	0.553552	-0.067518	-0.229938
C219	C	0.053549	-0.568123	-0.670541
C220	C	0.553549	-0.068123	-0.170541
C221	C	-0.000078	-0.568428	-0.640862
C222	C	0.499922	-0.068428	-0.140862
C223	C	0.053513	-0.573106	-0.183491
C224	C	0.553513	-0.073106	0.316509
C225	C	0.053505	-0.573718	-0.124092
C226	C	0.553505	-0.073718	0.375908
C227	C	-0.053743	-0.573729	-0.124137
C228	C	0.446257	-0.073729	0.375863
C229	C	-0.053735	-0.573120	-0.183531
C230	C	0.446265	-0.073120	0.316469
C231	C	-0.000102	-0.572807	-0.213206
C232	C	0.499898	-0.072807	0.286794
O233	O	-0.099298	-0.572174	-0.277516
O234	O	0.400702	-0.072174	0.222484
O235	O	0.099125	-0.572127	-0.277482
O236	O	0.599125	-0.072127	0.222518
C237	C	-0.000082	-0.566578	0.177121
C238	C	0.499918	-0.066578	0.677121
C239	C	-0.000073	-0.567219	0.240338
C240	C	0.499927	-0.067219	0.740338
H241	H	-0.000107	0.271736	-0.025491
H242	H	0.499893	0.771736	0.474509
H243	H	-0.000053	-0.412982	0.171406
H244	H	0.499947	0.087018	0.671406
C245	C	-0.000209	-0.217303	-0.085812
C246	C	0.499791	0.282697	0.414188
C247	C	-0.050815	-0.208673	-0.117308
C248	C	0.449185	0.291327	0.382692
C249	C	-0.050925	-0.239835	-0.168992
C250	C	0.449075	0.260165	0.331008
H251	H	-0.000238	-0.250093	-0.078047
H252	H	0.499762	0.249907	0.421953
H253	H	0.034073	-0.211497	-0.107278
H254	H	0.534073	0.288503	0.392722
H255	H	-0.085089	-0.214483	-0.095847
H256	H	0.414911	0.285517	0.404153
H257	H	-0.050797	-0.175889	-0.125088
H258	H	0.449203	0.324111	0.374912
H259	H	-0.016642	-0.234029	-0.190458
H260	H	0.483358	0.265971	0.309542
H261	H	-0.050952	-0.272623	-0.161222
H262	H	0.449048	0.227377	0.338778
H263	H	-0.085257	-0.233981	-0.190371
H264	H	0.414743	0.266019	0.309629
C265	C	-0.000112	0.196956	0.178294
C266	C	0.499888	0.696956	0.678294
C267	C	-0.000118	0.235087	0.223382
C268	C	0.499882	0.735087	0.723382
C269	C	-0.000149	0.215993	0.275691
C270	C	0.499851	0.715993	0.775691
H271	H	0.034180	0.177552	0.180777
H272	H	0.534180	0.677552	0.680777
H273	H	-0.034431	0.177547	0.180713
H274	H	0.465569	0.677547	0.680713
H275	H	0.034198	0.254487	0.220964
H276	H	0.534198	0.754487	0.720964
H277	H	-0.034408	0.254494	0.220918
H278	H	0.465592	0.754494	0.720918
H279	H	-0.034469	0.196584	0.278110
H280	H	0.465531	0.696584	0.778110
H281	H	0.034143	0.196590	0.278168
H282	H	0.534143	0.696590	0.778168
H283	H	-0.000159	0.241861	0.306289
H284	H	0.499841	0.741861	0.806289
C285	C	0.165442	-0.569993	-0.488811
C286	C	0.665442	-0.069993	0.011189
C287	C	0.212391	-0.570398	-0.450065
C288	C	0.712391	-0.070398	0.049935
C289	C	0.266097	-0.570125	-0.479629
C290	C	0.766097	-0.070125	0.020371
H291	H	0.167772	-0.541574	-0.507396
H292	H	0.667772	-0.041574	-0.007396
H293	H	0.167700	-0.597962	-0.516560
H294	H	0.667700	-0.097962	-0.016560
H295	H	0.210134	-0.542432	-0.422327
H296	H	0.710134	-0.042432	0.077673
H297	H	0.210081	-0.598815	-0.431480
H298	H	0.710081	-0.098815	0.068520
H299	H	0.268356	-0.598093	-0.507377
H300	H	0.768356	-0.098093	-0.007377
H301	H	0.268421	-0.541705	-0.498212
H302	H	0.768421	-0.041705	0.001788
H303	H	0.297959	-0.570404	-0.453345
H304	H	0.797959	-0.070404	0.046655
C305	C	0.150590	-0.501459	0.154109
C306	C	0.650590	-0.001459	0.654109
C307	C	0.165650	-0.454032	0.145141
C308	C	0.665650	0.045968	0.645141
C309	C	0.134737	-0.420830	0.184000
C310	C	0.634737	0.079170	0.684000
H311	H	0.160719	-0.506392	0.192125
H312	H	0.660719	-0.006392	0.692125
H313	H	0.109271	-0.506172	0.148529
H314	H	0.609271	-0.006172	0.648529
H315	H	0.206959	-0.449321	0.150726
H316	H	0.706959	0.050679	0.650726
H317	H	0.155519	-0.449084	0.107133
H318	H	0.655519	0.050916	0.607133
H319	H	0.093419	-0.425543	0.178419
H320	H	0.593419	0.074457	0.678419
H321	H	0.144868	-0.425767	0.222013
H322	H	0.644868	0.074233	0.722013
H323	H	0.144947	-0.388647	0.177916
H324	H	0.644947	0.111353	0.677916
H325	H	0.097214	-0.568367	-0.646351
H326	H	0.597214	-0.068367	-0.146351
C327	C	0.000003	-0.443326	-0.031020
C328	C	0.500003	0.056674	0.468980
C329	C	0.050604	-0.472616	-0.033695
C330	C	0.550604	0.027384	0.466305
C331	C	0.050692	-0.503905	-0.085281
C332	C	0.550692	-0.003905	0.414719
H333	H	0.000024	-0.424737	-0.062268
H334	H	0.500024	0.075263	0.437732
H335	H	-0.034283	-0.463280	-0.032947
H336	H	0.465717	0.036720	0.467053
H337	H	0.084881	-0.452664	-0.031774
H338	H	0.584881	0.047336	0.468226
H339	H	0.050594	-0.491215	-0.002459
H340	H	0.550594	0.008785	0.497541
H341	H	0.016407	-0.523860	-0.087208
H342	H	0.516407	-0.023860	0.412792
H343	H	0.050712	-0.485312	-0.116525
H344	H	0.550712	0.014688	0.383475
H345	H	0.085022	-0.523785	-0.087100
H346	H	0.585022	-0.023785	0.412900
C347	C	0.849240	-0.501547	0.154194
C348	C	1.349240	-0.001547	0.654194
C349	C	0.808891	-0.472555	0.188293
C350	C	1.308891	0.027445	0.688293
C351	C	0.839754	-0.439411	0.227301
C352	C	1.339754	0.060589	0.727301
H353	H	0.873399	-0.481520	0.133886
H354	H	1.373399	0.018480	0.633886
H355	H	0.873381	-0.518762	0.177841
H356	H	1.373381	-0.018762	0.677841
H357	H	0.784760	-0.455342	0.164650
H358	H	1.284760	0.044658	0.664650
H359	H	0.784731	-0.492569	0.208614
H360	H	1.284731	0.007431	0.708614
H361	H	0.863896	-0.456626	0.250947
H362	H	1.363896	0.043374	0.750947
H363	H	0.863912	-0.419387	0.206988
H364	H	1.363912	0.080613	0.706988
H365	H	0.812383	-0.419739	0.250445
H366	H	1.312383	0.080261	0.750445
H367	H	0.728613	-0.510557	0.143578
H368	H	1.228613	-0.010557	0.643578
C369	C	0.564570	-0.468404	0.193011
C370	C	1.064570	0.031596	0.693011
C371	C	0.600112	-0.439007	0.162851
C372	C	1.100112	0.060993	0.662851
C373	C	0.631125	-0.405833	0.201695
C374	C	1.131125	0.094167	0.701695
H375	H	0.588770	-0.485580	0.216636
H376	H	1.088770	0.014420	0.716636
H377	H	0.537293	-0.448658	0.216189
H378	H	1.037293	0.051342	0.716189
H379	H	0.627386	-0.458751	0.139682
H380	H	1.127386	0.041249	0.639682
H381	H	0.575926	-0.421821	0.139227
H382	H	1.075926	0.078179	0.639227
H383	H	0.603849	-0.386087	0.224874
H384	H	1.103849	0.113913	0.724874
H385	H	0.655323	-0.423013	0.225319
H386	H	1.155323	0.076987	0.725319
H387	H	0.655240	-0.385881	0.181237
H388	H	1.155240	0.114119	0.681237
H389	H	-0.097362	-0.567294	-0.754168
H390	H	0.402638	-0.067294	-0.254168
C391	C	0.279628	-0.639725	-0.008147
C392	C	0.779628	-0.139725	0.491853
C393	C	0.315180	-0.669125	0.021997
C394	C	0.815180	-0.169125	0.521997
C395	C	0.346158	-0.702281	-0.016861
C396	C	0.846158	-0.202281	0.483139
H397	H	0.303819	-0.622535	-0.031764
H398	H	0.803819	-0.122535	0.468236
H399	H	0.252330	-0.659471	-0.031333
H400	H	0.752330	-0.159471	0.468667
H401	H	0.342475	-0.649382	0.045174
H402	H	0.842475	-0.149382	0.545174
H403	H	0.291004	-0.686327	0.045612
H404	H	0.791004	-0.186327	0.545612
H405	H	0.318861	-0.722026	-0.040048
H406	H	0.818861	-0.222026	0.459952
H407	H	0.370346	-0.685086	-0.040476
H408	H	0.870346	-0.185086	0.459524
H409	H	0.370280	-0.722235	0.003586
H410	H	0.870280	-0.222235	0.503586
H411	H	0.097214	-0.567264	-0.754113
H412	H	0.597214	-0.067264	-0.254113
C413	C	0.165349	-0.571098	-0.364980
C414	C	0.665349	-0.071098	0.135020
C415	C	0.168448	-0.529833	-0.324133
C416	C	0.668448	-0.029833	0.175867
C417	C	0.222059	-0.529964	-0.294359
C418	C	0.722059	-0.029964	0.205641
H419	H	0.197306	-0.570782	-0.391124
H420	H	0.697306	-0.070782	0.108876
H421	H	0.167650	-0.599494	-0.346338
H422	H	0.667650	-0.099494	0.153662
H423	H	0.166152	-0.501444	-0.342774
H424	H	0.666152	-0.001444	0.157226
H425	H	0.136503	-0.530139	-0.297977
H426	H	0.636503	-0.030139	0.202023
H427	H	0.224361	-0.558359	-0.275717
H428	H	0.724361	-0.058359	0.224283
H429	H	0.254013	-0.529649	-0.320508
H430	H	0.754013	-0.029649	0.179492
H431	H	0.224167	-0.501968	-0.266638
H432	H	0.724167	-0.001968	0.233362
H433	H	0.097174	-0.573964	-0.099901
H434	H	0.597174	-0.073964	0.400099
C435	C	0.150555	-0.639732	-0.008243
C436	C	0.650555	-0.139732	0.491757
C437	C	0.190901	-0.668743	-0.042323
C438	C	0.690901	-0.168743	0.457677
C439	C	0.160035	-0.701923	-0.081285
C440	C	0.660035	-0.201923	0.418715
H441	H	0.126399	-0.622561	-0.031911
H442	H	0.626399	-0.122561	0.468089
H443	H	0.126411	-0.659739	0.012119
H444	H	0.626411	-0.159739	0.512119
H445	H	0.215035	-0.648738	-0.062683
H446	H	0.715035	-0.148738	0.437317
H447	H	0.215059	-0.685924	-0.018671
H448	H	0.715059	-0.185924	0.481329
H449	H	0.135891	-0.721930	-0.060923
H450	H	0.635891	-0.221930	0.439077
H451	H	0.135880	-0.684748	-0.104949
H452	H	0.635880	-0.184748	0.395051
H453	H	0.187405	-0.721614	-0.104410
H454	H	0.687405	-0.221614	0.395590
H455	H	-0.000069	-0.321529	0.170315
H456	H	0.499931	0.178471	0.670315
H457	H	0.555980	-0.663834	-0.036597
H458	H	1.055980	-0.163834	0.463403
C459	C	0.111804	-0.572783	-0.215604
C460	C	0.611804	-0.072783	0.284396
C461	C	0.158755	-0.573184	-0.176860
C462	C	0.658755	-0.073184	0.323140
C463	C	0.212460	-0.572891	-0.206422
C464	C	0.712460	-0.072891	0.293578
H465	H	0.114122	-0.544358	-0.234179
H466	H	0.614122	-0.044358	0.265821
H467	H	0.114072	-0.600745	-0.243361
H468	H	0.614072	-0.100745	0.256639
H469	H	0.156488	-0.545225	-0.149113
H470	H	0.656488	-0.045225	0.350887
H471	H	0.156456	-0.601607	-0.158283
H472	H	0.656456	-0.101607	0.341717
H473	H	0.214728	-0.600853	-0.234178
H474	H	0.714728	-0.100853	0.265822
H475	H	0.214772	-0.544466	-0.224995
H476	H	0.714772	-0.044466	0.275005
H477	H	0.244322	-0.573168	-0.180139
H478	H	0.744322	-0.073168	0.319861
C479	C	0.435510	-0.468395	0.193126
C480	C	0.935510	0.031605	0.693126
C481	C	0.475903	-0.439390	0.227204
C482	C	0.975903	0.060610	0.727204
C483	C	0.445091	-0.406205	0.266166
C484	C	0.945091	0.093795	0.766166
H485	H	0.411353	-0.485562	0.216796
H486	H	0.911353	0.014438	0.716796
H487	H	0.411372	-0.448385	0.172765
H488	H	0.911372	0.051615	0.672765
H489	H	0.500031	-0.459398	0.247563
H490	H	1.000031	0.040602	0.747563
H491	H	0.500062	-0.422213	0.203550
H492	H	1.000062	0.077787	0.703550
H493	H	0.420953	-0.386194	0.245805
H494	H	0.920953	0.113806	0.745805
H495	H	0.420935	-0.423375	0.289832
H496	H	0.920935	0.076625	0.789832
H497	H	0.472493	-0.386518	0.289289
H498	H	0.972493	0.113482	0.789289
H499	H	0.443662	-0.663826	-0.036593
H500	H	0.943662	-0.163826	0.463407
H501	H	-0.151007	-0.571161	-0.373197
H502	H	0.348993	-0.071161	0.126803
C503	C	-0.000082	0.171887	-0.038481
C504	C	0.499918	0.671887	0.461519
C505	C	-0.000069	0.199499	-0.084349
C506	C	0.499931	0.699499	0.415651
C507	C	-0.000032	0.168375	-0.136062
C508	C	0.499968	0.668375	0.363938
H509	H	-0.034374	0.151948	-0.040501
H510	H	0.465626	0.651948	0.459499
H511	H	0.034237	0.151987	-0.040429
H512	H	0.534237	0.651987	0.459571
H513	H	-0.034384	0.219390	-0.082401
H514	H	0.465616	0.719390	0.417599
H515	H	0.034221	0.219437	-0.082348
H516	H	0.534221	0.719437	0.417652
H517	H	0.034287	0.148476	-0.138011
H518	H	0.534287	0.648476	0.361989
H519	H	-0.034325	0.148438	-0.138076
H520	H	0.465675	0.648438	0.361924
H521	H	-0.000017	0.187105	-0.167189
H522	H	0.499983	0.687105	0.332811
H523	H	-0.000089	-0.023805	0.218763
H524	H	0.499911	0.476195	0.718763
H525	H	0.271294	-0.510527	0.143601
H526	H	0.771294	-0.010527	0.643601
H527	H	-0.000115	0.033814	-0.074658
H528	H	0.499885	0.533814	0.425342
C529	C	-0.111884	-0.568549	-0.638303
C530	C	0.388116	-0.068549	-0.138303
C531	C	-0.115025	-0.610483	-0.610967
C532	C	0.384975	-0.110483	-0.110967
C533	C	-0.168612	-0.610878	-0.581225
C534	C	0.331388	-0.110878	-0.081225
H535	H	-0.143863	-0.568312	-0.664453
H536	H	0.356137	-0.068312	-0.164453
H537	H	-0.114119	-0.540608	-0.610511
H538	H	0.385881	-0.040608	-0.110511
H539	H	-0.112795	-0.638416	-0.638756
H540	H	0.387205	-0.138416	-0.138756
H541	H	-0.083058	-0.610729	-0.584808
H542	H	0.416942	-0.110729	-0.084808
H543	H	-0.170847	-0.582938	-0.553433
H544	H	0.329153	-0.082938	-0.053433
H545	H	-0.200587	-0.610640	-0.607379
H546	H	0.299413	-0.110640	-0.107379
H547	H	-0.170748	-0.639328	-0.562669
H548	H	0.329252	-0.139328	-0.062669
H549	H	-0.151004	-0.570071	-0.480945
H550	H	0.348996	-0.070071	0.019055
C551	C	-0.112015	-0.572774	-0.215691
C552	C	0.387985	-0.072774	0.284309
C553	C	-0.158976	-0.573166	-0.176981
C554	C	0.341024	-0.073166	0.323019
C555	C	-0.212674	-0.572836	-0.206579
C556	C	0.287326	-0.072836	0.293421
H557	H	-0.114335	-0.600718	-0.243460
H558	H	0.385665	-0.100718	0.256540
H559	H	-0.114269	-0.544331	-0.234251
H560	H	0.385731	-0.044331	0.265749
H561	H	-0.156724	-0.601605	-0.158430
H562	H	0.343276	-0.101605	0.341570
H563	H	-0.156676	-0.545223	-0.149211
H564	H	0.343324	-0.045223	0.350789
H565	H	-0.214927	-0.544393	-0.225139
H566	H	0.285073	-0.044393	0.274861
H567	H	-0.214987	-0.600781	-0.234347
H568	H	0.285013	-0.100781	0.265653
H569	H	-0.244543	-0.573097	-0.180318
H570	H	0.255457	-0.073097	0.319682
H571	H	-0.000116	-0.057635	-0.073565
H572	H	0.499884	0.442365	0.426435
C573	C	-0.000120	-0.338210	-0.032382
C574	C	0.499880	0.161790	0.467618
C575	C	-0.000136	-0.376344	-0.077466
C576	C	0.499864	0.123656	0.422534
C577	C	-0.000180	-0.357255	-0.129778
C578	C	0.499820	0.142745	0.370222
H579	H	0.034171	-0.318789	-0.034854
H580	H	0.534171	0.181211	0.465146
H581	H	-0.034440	-0.318819	-0.034817
H582	H	0.465560	0.181181	0.465183
H583	H	0.034181	-0.395727	-0.075033
H584	H	0.534181	0.104273	0.424967
H585	H	-0.034424	-0.395768	-0.075013
H586	H	0.465576	0.104232	0.424987
H587	H	-0.034501	-0.337864	-0.132213
H588	H	0.465499	0.162136	0.367787
H589	H	0.034111	-0.337834	-0.132244
H590	H	0.534111	0.162166	0.367756
H591	H	-0.000197	-0.383125	-0.160374
H592	H	0.499803	0.116875	0.339626
C593	C	-0.111939	-0.573960	-0.091854
C594	C	0.388061	-0.073960	0.408146
C595	C	-0.115052	-0.532708	-0.050993
C596	C	0.384948	-0.032708	0.449007
C597	C	-0.168655	-0.532896	-0.021244
C598	C	0.331345	-0.032896	0.478756
H599	H	-0.114232	-0.602355	-0.073221
H600	H	0.385768	-0.102355	0.426779
H601	H	-0.143898	-0.573667	-0.118028
H602	H	0.356102	-0.073667	0.381972
H603	H	-0.083101	-0.533006	-0.024822
H604	H	0.416899	-0.033006	0.475178
H605	H	-0.112768	-0.504307	-0.069610
H606	H	0.387232	-0.004307	0.430390
H607	H	-0.200614	-0.532602	-0.047418
H608	H	0.299386	-0.032602	0.452582
H609	H	-0.170944	-0.561292	-0.002614
H610	H	0.329056	-0.061292	0.497386
H611	H	-0.170776	-0.504905	0.006481
H612	H	0.329224	-0.004905	0.506481
C613	C	-0.000067	0.076044	0.231742
C614	C	0.499933	0.576044	0.731742
C615	C	-0.000047	0.048437	0.277614
C616	C	0.499953	0.548437	0.777614
C617	C	-0.000005	0.079564	0.329324
C618	C	0.499995	0.579564	0.829324
H619	H	-0.034360	0.095965	0.233742
H620	H	0.465640	0.595965	0.733742
H621	H	0.034251	0.095962	0.233705
H622	H	0.534251	0.595962	0.733705
H623	H	-0.034361	0.028527	0.275651
H624	H	0.465639	0.528527	0.775651
H625	H	0.034244	0.028518	0.275633
H626	H	0.534244	0.528518	0.775633
H627	H	0.034313	0.099483	0.331287
H628	H	0.534313	0.599483	0.831287
H629	H	-0.034299	0.099483	0.331318
H630	H	0.465701	0.599483	0.831318
H631	H	0.000014	0.060837	0.360454
H632	H	0.500014	0.560837	0.860454
H633	H	-0.000085	0.293546	0.162959
H634	H	0.499915	0.793546	0.662959
C635	C	-0.000210	-0.112144	-0.086988
C636	C	0.499790	0.387856	0.413012
C637	C	-0.050813	-0.083557	-0.090378
C638	C	0.449187	0.416443	0.409622
C639	C	-0.050922	-0.064290	-0.142579
C640	C	0.449078	0.435710	0.357421
H641	H	-0.000244	-0.137911	-0.117697
H642	H	0.499756	0.362089	0.382303
H643	H	0.034074	-0.092691	-0.089385
H644	H	0.534074	0.407309	0.410615
H645	H	-0.085089	-0.103009	-0.087987
H646	H	0.414911	0.396991	0.412013
H647	H	-0.050790	-0.057783	-0.059681
H648	H	0.449210	0.442217	0.440319
H649	H	-0.016637	-0.044837	-0.144975
H650	H	0.483363	0.455163	0.355025
H651	H	-0.050954	-0.090059	-0.173283
H652	H	0.449046	0.409941	0.326717
H653	H	-0.085252	-0.044887	-0.144883
H654	H	0.414748	0.455113	0.355117
C655	C	0.000015	-0.180198	0.234786
C656	C	0.500015	0.319802	0.734786
C657	C	0.050618	-0.164282	0.265989
C658	C	0.550618	0.335718	0.765989
C659	C	0.050721	-0.183396	0.318285
C660	C	0.550721	0.316604	0.818285
H661	H	0.000044	-0.214692	0.227841
H662	H	0.500044	0.285308	0.727841
H663	H	-0.034269	-0.169456	0.256046
H664	H	0.465731	0.330544	0.756046
H665	H	0.084894	-0.175027	0.244733
H666	H	0.584894	0.324973	0.744733
H667	H	0.050601	-0.129790	0.272949
H668	H	0.550601	0.370210	0.772949
H669	H	0.016437	-0.172654	0.339545
H670	H	0.516437	0.327346	0.839545
H671	H	0.050748	-0.217890	0.311335
H672	H	0.550748	0.282110	0.811335
H673	H	0.085052	-0.172597	0.339465
H674	H	0.585052	0.327403	0.839465
C675	C	0.720204	-0.639767	-0.008279
C676	C	1.220204	-0.139767	0.491721
C677	C	0.760553	-0.668772	-0.042362
C678	C	1.260553	-0.168772	0.457638
C679	C	0.729689	-0.701954	-0.081325
C680	C	1.229689	-0.201954	0.418675
H681	H	0.696044	-0.622597	-0.031945
H682	H	1.196044	-0.122597	0.468055
H683	H	0.696063	-0.659777	0.012081
H684	H	1.196063	-0.159777	0.512081
H685	H	0.784683	-0.648765	-0.062721
H686	H	1.284683	-0.148765	0.437279
H687	H	0.784713	-0.685953	-0.018712
H688	H	1.284713	-0.185953	0.481288
H689	H	0.705549	-0.721964	-0.060966
H690	H	1.205549	-0.221964	0.439034
H691	H	0.705531	-0.684779	-0.104988
H692	H	1.205531	-0.184779	0.395012
H693	H	0.757061	-0.721641	-0.104452
H694	H	1.257061	-0.221641	0.395548
H695	H	-0.000081	-0.083604	0.219469
H696	H	0.499919	0.416396	0.719469
H697	H	0.840849	-0.630726	0.002311
H698	H	1.340849	-0.130726	0.502311
