data_functionalizedCrystal
_audit_creation_method	'MofGen! by Chris Wilmer'
_symmetry_space_group_name_H-M	'P1'
_symmetry_Int_Tables_number	1
_symmetry_cell_setting	triclinic
loop_
_symmetry_equiv_pos_as_xyz
  x,y,z
_cell_length_a	16.120530
_cell_length_b	16.120444
_cell_length_c	21.395355
_cell_angle_alpha	87.118536
_cell_angle_beta	92.920957
_cell_angle_gamma	90.168401
loop_
_atom_site_label
_atom_site_type_symbol
_atom_site_fract_x
_atom_site_fract_y
_atom_site_fract_z
Zn1	Zn	1.254507	-0.395721	0.417087
Zn2	Zn	1.754507	0.104279	0.917087
Zn3	Zn	1.247338	-0.534754	0.317334
Zn4	Zn	1.747338	-0.034754	0.817334
Zn5	Zn	1.115436	-0.388658	0.306761
Zn6	Zn	1.615436	0.111342	0.806761
Zn7	Zn	1.108356	-0.527674	0.416515
Zn8	Zn	1.608356	-0.027674	0.916515
O9	O	1.181409	-0.461702	0.364424
O10	O	1.681409	0.038298	0.864424
O11	O	1.369921	-0.420083	0.408518
O12	O	1.869921	0.079917	0.908518
O13	O	1.229803	-0.515381	0.228252
O14	O	1.729803	-0.015381	0.728252
O15	O	1.139847	-0.273230	0.317211
O16	O	1.639847	0.226770	0.817211
O17	O	1.364655	-0.522230	0.335230
O18	O	1.864655	-0.022230	0.835230
O19	O	1.242021	-0.278419	0.398266
O20	O	1.742021	0.221581	0.898266
O21	O	1.132895	-0.408045	0.220485
O22	O	1.632895	0.091955	0.720485
O23	O	0.998131	-0.401180	0.316656
O24	O	1.498131	0.098820	0.816656
O25	O	1.127781	-0.510163	0.504270
O26	O	1.627781	-0.010163	1.004270
O27	O	0.992930	-0.503315	0.397291
O28	O	1.492930	-0.003315	0.897291
O29	O	1.235157	-0.413218	0.504690
O30	O	1.735157	0.086782	1.004690
O31	O	1.222939	-0.650180	0.334676
O32	O	1.722939	-0.150180	0.834676
O33	O	1.120830	-0.644978	0.407543
O34	O	1.620830	-0.144978	0.907543
C35	C	0.965358	-0.450713	0.355765
C36	C	1.465358	0.049287	0.855765
C37	C	0.872929	-0.446032	0.352076
C38	C	1.372929	0.053968	0.852076
C39	C	0.703701	-0.437467	0.345346
C40	C	1.203701	0.062533	0.845346
C41	C	0.659954	-0.485998	0.383550
C42	C	1.159954	0.014002	0.883550
C43	C	0.565790	-0.481232	0.379806
C44	C	1.065790	0.018768	0.879806
C45	C	0.797874	-0.442232	0.349089
C46	C	1.297874	0.057768	0.849089
C47	C	1.170361	-0.677752	0.372209
C48	C	1.670361	-0.177752	0.872209
C49	C	1.165710	-0.770183	0.375564
C50	C	1.665710	-0.270183	0.875564
C51	C	1.205738	-0.983149	0.347165
C52	C	1.705738	-0.483149	0.847165
C53	C	1.157235	-0.939411	0.381696
C54	C	1.657235	-0.439411	0.881696
C55	C	1.161952	-0.845244	0.378283
C56	C	1.661952	-0.345244	0.878283
C57	C	1.201022	-1.077325	0.350577
C58	C	1.701022	-0.577325	0.850577
C59	C	1.398304	-0.472734	0.373118
C60	C	1.898304	0.027266	0.873118
C61	C	1.490732	-0.477435	0.376822
C62	C	1.990732	0.022565	0.876822
C63	C	1.181479	-0.461688	0.527850
C64	C	1.681479	0.038312	1.027850
C65	C	1.181509	-0.461683	0.597492
C66	C	1.681509	0.038317	1.097492
C67	C	1.192523	-0.244809	0.356623
C68	C	1.692523	0.255191	0.856623
C69	C	1.197260	-0.152382	0.353299
C70	C	1.697260	0.347618	0.853299
C71	C	1.181390	-0.461657	0.201634
C72	C	1.681390	0.038343	0.701634
C73	C	1.181534	-0.461437	0.131990
C74	C	1.681534	0.038563	0.631990
C75	C	1.237417	-0.411201	0.630425
C76	C	1.737417	0.088799	1.130425
C77	C	1.237418	-0.411165	0.695859
C78	C	1.737418	0.088835	1.195859
C79	C	1.181518	-0.461626	0.728358
C80	C	1.681518	0.038374	1.228358
C81	C	1.125599	-0.512112	0.695417
C82	C	1.625599	-0.012112	1.195417
C83	C	1.125594	-0.512140	0.629984
C84	C	1.625594	-0.012140	1.129984
C85	C	1.171123	-0.536167	0.834468
C86	C	1.671123	-0.036167	1.334468
C87	C	1.171134	-0.536140	0.899901
C88	C	1.671134	-0.036140	1.399901
C89	C	1.181528	-0.461539	0.930176
C90	C	1.681528	0.038461	1.430176
C91	C	1.191929	-0.386962	0.895012
C92	C	1.691929	0.113038	1.395012
C93	C	1.191924	-0.386991	0.829579
C94	C	1.691924	0.113009	1.329579
C95	C	1.181517	-0.461601	0.799310
C96	C	1.681517	0.038399	1.299310
C97	C	1.237440	-0.411014	1.034060
C98	C	1.737440	0.088986	1.534060
C99	C	1.237435	-0.410976	1.099495
C100	C	1.737435	0.089024	1.599495
C101	C	1.125620	-0.511930	1.099053
C102	C	1.625620	-0.011930	1.599053
C103	C	1.125621	-0.511960	1.033619
C104	C	1.625621	-0.011960	1.533619
C105	C	1.181536	-0.461503	1.001127
C106	C	1.681536	0.038497	1.501127
H107	H	0.670437	-0.392343	0.309827
H108	H	1.170437	0.107657	0.809827
C109	C	1.096344	-0.984365	0.425092
C110	C	1.596344	-0.484365	0.925092
N111	N	1.050481	-1.018228	0.457774
N112	N	1.550481	-0.518228	0.957774
H113	H	1.080063	-0.553247	0.603170
H114	H	1.580063	-0.053247	1.103170
H115	H	1.250801	-0.949875	0.315041
H116	H	1.750801	-0.449875	0.815041
H117	H	0.693220	-0.531125	0.419072
H118	H	1.193220	-0.031125	0.919072
C119	C	1.159691	-0.618175	0.938575
C120	C	1.659691	-0.118175	1.438575
N121	N	1.151071	-0.679966	0.967703
N122	N	1.651071	-0.179966	1.467703
C123	C	1.064106	-0.567615	0.731168
C124	C	1.564106	-0.067615	1.231168
N125	N	1.017784	-0.609419	0.758095
N126	N	1.517784	-0.109419	1.258095
H127	H	1.282946	-0.370114	0.603973
H128	H	1.782946	0.129886	1.103973
C129	C	1.064130	-0.567440	1.134799
C130	C	1.564130	-0.067440	1.634799
N131	N	1.017813	-0.609250	1.161726
N132	N	1.517813	-0.109250	1.661726
C133	C	1.298929	-0.355634	0.732092
C134	C	1.798929	0.144366	1.232092
N135	N	1.345261	-0.313810	0.759382
N136	N	1.845261	0.186190	1.259382
H137	H	1.200391	-0.326268	0.800950
H138	H	1.700391	0.173732	1.300950
H139	H	1.200394	-0.326215	0.919660
H140	H	1.700394	0.173785	1.419660
H141	H	1.080099	-0.553073	1.006805
H142	H	1.580099	-0.053073	1.506805
H143	H	1.282964	-0.369924	1.007603
H144	H	1.782964	0.130076	1.507603
H145	H	1.282961	-0.369863	1.126308
H146	H	1.782961	0.130137	1.626308
C147	C	1.159704	-0.618242	0.801173
C148	C	1.659704	-0.118242	1.301173
N149	N	1.151109	-0.680060	0.776096
N150	N	1.651109	-0.180060	1.276096
