data_functionalizedCrystal
_audit_creation_method	'MofGen! by Chris Wilmer'
_symmetry_space_group_name_H-M	'P1'
_symmetry_Int_Tables_number	1
_symmetry_cell_setting	triclinic
loop_
_symmetry_equiv_pos_as_xyz
  x,y,z
_cell_length_a	25.639239
_cell_length_b	21.395362
_cell_length_c	21.395355
_cell_angle_alpha	89.956060
_cell_angle_beta	90.019334
_cell_angle_gamma	89.945436
loop_
_atom_site_label
_atom_site_type_symbol
_atom_site_fract_x
_atom_site_fract_y
_atom_site_fract_z
Zn1	Zn	-0.207990	-0.957825	0.354582
Zn2	Zn	0.125344	-0.624491	0.687915
Zn3	Zn	0.458677	-0.291158	1.021249
Zn4	Zn	-0.295409	-0.957713	0.249803
Zn5	Zn	0.037924	-0.624379	0.583136
Zn6	Zn	0.371257	-0.291046	0.916470
Zn7	Zn	-0.208014	-0.853040	0.249783
Zn8	Zn	0.125319	-0.519706	0.583117
Zn9	Zn	0.458653	-0.186373	0.916450
Zn10	Zn	-0.295420	-0.852994	0.354508
Zn11	Zn	0.037913	-0.519661	0.687841
Zn12	Zn	0.371246	-0.186328	1.021174
O13	O	-0.251708	-0.905393	0.302169
O14	O	0.081625	-0.572060	0.635502
O15	O	0.414958	-0.238726	0.968836
O16	O	-0.219571	-1.045488	0.340722
O17	O	0.113762	-0.712154	0.674056
O18	O	0.447095	-0.378821	1.007389
O19	O	-0.283822	-0.943800	0.162122
O20	O	0.049511	-0.610466	0.495456
O21	O	0.382845	-0.277133	0.828789
O22	O	-0.134846	-0.867006	0.263708
O23	O	0.198488	-0.533672	0.597041
O24	O	0.531821	-0.200339	0.930375
O25	O	-0.283798	-1.045405	0.263742
O26	O	0.049535	-0.712072	0.597075
O27	O	0.382868	-0.378739	0.930408
O28	O	-0.134828	-0.943991	0.340703
O29	O	0.198506	-0.610657	0.674036
O30	O	0.531839	-0.277324	1.007370
O31	O	-0.219613	-0.866897	0.162108
O32	O	0.113720	-0.533564	0.495441
O33	O	0.447054	-0.200230	0.828775
O34	O	-0.219623	-0.765356	0.263636
O35	O	0.113710	-0.432022	0.596969
O36	O	0.447043	-0.098689	0.930303
O37	O	-0.283817	-0.866928	0.442196
O38	O	0.049517	-0.533595	0.775529
O39	O	0.382850	-0.200262	1.108862
O40	O	-0.283840	-0.765322	0.340576
O41	O	0.049493	-0.431989	0.673910
O42	O	0.382826	-0.098656	1.007243
O43	O	-0.219582	-0.943947	0.442250
O44	O	0.113751	-0.610613	0.775583
O45	O	0.447085	-0.277280	1.108917
O46	O	-0.368576	-0.943756	0.263669
O47	O	-0.035243	-0.610422	0.597003
O48	O	0.298091	-0.277089	0.930336
O49	O	-0.368584	-0.866820	0.340596
O50	O	-0.035251	-0.533486	0.673929
O51	O	0.298083	-0.200153	1.007262
C52	C	-0.251736	-0.742605	0.302096
C53	C	0.081597	-0.409272	0.635430
C54	C	0.414931	-0.075939	0.968763
C55	C	-0.251760	-0.672964	0.302080
C56	C	0.081573	-0.339631	0.635413
C57	C	0.414906	-0.006297	0.968747
C58	C	-0.251698	-0.905445	0.465592
C59	C	0.081636	-0.572112	0.798926
C60	C	0.414969	-0.238778	1.132259
C61	C	-0.251693	-0.905467	0.535234
C62	C	0.081640	-0.572134	0.868567
C63	C	0.414973	-0.238800	1.201900
C64	C	-0.387551	-0.905288	0.302140
C65	C	-0.054218	-0.571954	0.635474
C66	C	0.279116	-0.238621	0.968807
C67	C	-0.445665	-0.905300	0.302149
C68	C	-0.112332	-0.571966	0.635482
C69	C	0.221002	-0.238633	0.968816
C70	C	-0.806011	-0.945558	0.262182
C71	C	-0.472678	-0.612225	0.595515
C72	C	-0.139345	-0.278891	0.928849
C73	C	-0.860616	-0.945582	0.262190
C74	C	-0.527282	-0.612249	0.595524
C75	C	-0.193949	-0.278916	0.928857
O76	O	-0.888838	-0.979702	0.228177
O77	O	-0.555505	-0.646369	0.561511
O78	O	-0.222171	-0.313035	0.894844
N79	N	-0.887947	-0.905503	0.302211
N80	N	-0.554614	-0.572170	0.635544
N81	N	-0.221281	-0.238836	0.968877
C82	C	-0.860672	-0.865401	0.342230
C83	C	-0.527339	-0.532068	0.675563
C84	C	-0.194005	-0.198735	1.008896
O85	O	-0.888934	-0.831313	0.376271
O86	O	-0.555601	-0.497980	0.709604
O87	O	-0.222267	-0.164647	1.042938
C88	C	-0.806069	-0.865381	0.342224
C89	C	-0.472735	-0.532047	0.675557
C90	C	-0.139402	-0.198714	1.008891
C91	C	-0.778740	-0.905458	0.302196
C92	C	-0.445406	-0.572125	0.635530
C93	C	-0.112073	-0.238791	0.968863
C94	C	-0.778682	-0.985633	0.222158
C95	C	-0.445349	-0.652299	0.555492
C96	C	-0.112016	-0.318966	0.888825
C97	C	-0.724082	-0.985608	0.222149
C98	C	-0.390748	-0.652274	0.555483
C99	C	-0.057415	-0.318941	0.888816
C100	C	-0.696810	-0.945508	0.262164
C101	C	-0.363477	-0.612174	0.595497
C102	C	-0.030144	-0.278841	0.928830
C103	C	-0.724139	-0.905433	0.302187
C104	C	-0.390806	-0.572099	0.635521
C105	C	-0.057473	-0.238766	0.968854
C106	C	-0.778794	-0.825282	0.382246
C107	C	-0.445461	-0.491949	0.715579
C108	C	-0.112128	-0.158616	1.048912
C109	C	-0.724187	-0.825266	0.382237
C110	C	-0.390854	-0.491932	0.715570
C111	C	-0.057521	-0.158599	1.048903
C112	C	-0.696858	-0.865343	0.342209
C113	C	-0.363525	-0.532010	0.675543
C114	C	-0.030192	-0.198676	1.008876
C115	C	-0.642267	-0.865308	0.342193
C116	C	-0.308934	-0.531974	0.675526
C117	C	0.024399	-0.198641	1.008860
N118	N	-0.614935	-0.905387	0.302173
N119	N	-0.281602	-0.572054	0.635506
N120	N	0.051731	-0.238720	0.968839
C121	C	-0.642207	-0.945487	0.262158
C122	C	-0.308874	-0.612154	0.595491
C123	C	0.024460	-0.278820	0.928825
C124	C	-0.975343	-0.865448	0.342239
C125	C	-0.642009	-0.532115	0.675573
C126	C	-0.308676	-0.198782	1.008906
C127	C	-1.029945	-0.865465	0.342242
C128	C	-0.696612	-0.532132	0.675576
C129	C	-0.363278	-0.198799	1.008909
C130	C	-1.029885	-0.945648	0.262204
C131	C	-0.696551	-0.612314	0.595537
C132	C	-0.363218	-0.278981	0.928870
C133	C	-0.975281	-0.945627	0.262198
C134	C	-0.641948	-0.612294	0.595531
C135	C	-0.308615	-0.278960	0.928865
C136	C	-0.948011	-0.905528	0.302219
C137	C	-0.614678	-0.572194	0.635552
C138	C	-0.281344	-0.238861	0.968886
C139	C	-0.527542	-0.945430	0.262142
C140	C	-0.194209	-0.612097	0.595475
C141	C	0.139125	-0.278764	0.928808
C142	C	-0.472937	-0.945400	0.262134
C143	C	-0.139603	-0.612066	0.595468
C144	C	0.193730	-0.278733	0.928801
C145	C	-0.473002	-0.865220	0.342175
C146	C	-0.139668	-0.531887	0.675508
C147	C	0.193665	-0.198554	1.008842
C148	C	-0.527602	-0.865248	0.342180
C149	C	-0.194269	-0.531915	0.675514
C150	C	0.139065	-0.198582	1.008847
C151	C	-0.554871	-0.905358	0.302162
C152	C	-0.221538	-0.572025	0.635495
C153	C	0.111796	-0.238692	0.968828
O154	O	-0.614010	-0.831207	0.376190
O155	O	-0.280677	-0.497874	0.709524
O156	O	0.052657	-0.164540	1.042857
O157	O	-0.613939	-0.979575	0.228128
O158	O	-0.280605	-0.646242	0.561461
O159	O	0.052728	-0.312908	0.894795
C160	C	-0.115335	-0.905516	0.302212
C161	C	0.217998	-0.572182	0.635545
C162	C	0.551331	-0.238849	0.968878
C163	C	-0.057221	-0.905568	0.302230
C164	C	0.276112	-0.572235	0.635563
C165	C	0.609445	-0.238901	0.968896
C166	C	-0.251681	-1.068816	0.302242
C167	C	0.081652	-0.735483	0.635576
C168	C	0.414986	-0.402150	0.968909
C169	C	-0.251669	-1.138458	0.302274
C170	C	0.081664	-0.805124	0.635607
C171	C	0.414997	-0.471791	0.968940
C172	C	-0.285243	-0.640250	0.342083
C173	C	0.048091	-0.306916	0.675416
C174	C	0.381424	0.026417	1.008750
C175	C	-0.285230	-0.574814	0.342111
C176	C	0.048104	-0.241481	0.675444
C177	C	0.381437	0.091852	1.008778
C178	C	-0.251740	-0.542096	0.302125
C179	C	0.081593	-0.208762	0.635458
C180	C	0.414926	0.124571	0.968791
C181	C	-0.218252	-0.574818	0.262119
C182	C	0.115082	-0.241484	0.595452
C183	C	0.448415	0.091849	0.928786
C184	C	-0.218262	-0.640252	0.262097
C185	C	0.115071	-0.306918	0.595430
C186	C	0.448405	0.026415	0.928763
C187	C	-0.247528	-0.438372	0.245720
C188	C	0.085805	-0.105038	0.579053
C189	C	0.419138	0.228295	0.912386
C190	C	-0.247522	-0.372939	0.245741
C191	C	0.085811	-0.039605	0.579074
C192	C	0.419145	0.293728	0.912407
C193	C	-0.251706	-0.340275	0.302194
C194	C	0.081627	-0.006942	0.635527
C195	C	0.414960	0.326392	0.968861
C196	C	-0.255908	-0.373052	0.358627
C197	C	0.077425	-0.039719	0.691961
C198	C	0.410759	0.293614	1.025294
C199	C	-0.255918	-0.438486	0.358605
C200	C	0.077415	-0.105153	0.691938
C201	C	0.410749	0.228180	1.025272
C202	C	-0.251725	-0.471143	0.302145
C203	C	0.081608	-0.137810	0.635478
C204	C	0.414941	0.195523	0.968811
C205	C	-0.285176	-0.236608	0.342231
C206	C	0.048157	0.096725	0.675564
C207	C	0.381490	0.430058	1.008897
C208	C	-0.285160	-0.171172	0.342260
C209	C	0.048174	0.162162	0.675593
C210	C	0.381507	0.495495	1.008926
C211	C	-0.218185	-0.171176	0.262262
C212	C	0.115149	0.162157	0.595595
C213	C	0.448482	0.495490	0.928929
C214	C	-0.218198	-0.236612	0.262239
C215	C	0.115135	0.096722	0.595572
C216	C	0.448468	0.430055	0.928905
C217	C	-0.251697	-0.269324	0.302222
C218	C	0.081636	0.064010	0.635555
C219	C	0.414970	0.397343	0.968889
C220	C	-0.251681	-0.905377	0.139381
C221	C	0.081652	-0.572044	0.472715
C222	C	0.414985	-0.238710	0.806048
C223	C	-0.251538	-0.905476	0.069741
C224	C	0.081795	-0.572143	0.403074
C225	C	0.415128	-0.238810	0.736407
C226	C	-0.218245	-0.945569	0.567976
C227	C	0.115089	-0.612236	0.901310
C228	C	0.448422	-0.278902	1.234643
C229	C	-0.218222	-0.945568	0.633412
C230	C	0.115111	-0.612235	0.966745
C231	C	0.448444	-0.278901	1.300078
C232	C	-0.251658	-0.905472	0.666102
C233	C	0.081676	-0.572139	0.999435
C234	C	0.415009	-0.238805	1.332769
C235	C	-0.285108	-0.865362	0.633352
C236	C	0.048225	-0.532029	0.966685
C237	C	0.381558	-0.198696	1.300018
C238	C	-0.285126	-0.865360	0.567917
C239	C	0.048207	-0.532027	0.901251
C240	C	0.381540	-0.198693	1.234584
C241	C	-0.298736	-0.900488	0.769765
C242	C	0.034597	-0.567155	1.103098
C243	C	0.367931	-0.233821	1.436432
C244	C	-0.298719	-0.900495	0.835198
C245	C	0.034614	-0.567162	1.168531
C246	C	0.367947	-0.233828	1.501865
C247	C	-0.251602	-0.905476	0.867923
C248	C	0.081731	-0.572143	1.201256
C249	C	0.415064	-0.238809	1.534590
C250	C	-0.204501	-0.910463	0.835207
C251	C	0.128832	-0.577130	1.168540
C252	C	0.462166	-0.243796	1.501873
C253	C	-0.204519	-0.910461	0.769773
C254	C	0.128814	-0.577127	1.103106
C255	C	0.462148	-0.243794	1.436439
C256	C	-0.251642	-0.905470	0.737054
C257	C	0.081691	-0.572137	1.070388
C258	C	0.415025	-0.238803	1.403721
C259	C	-0.218127	-0.945579	0.971618
C260	C	0.115207	-0.612246	1.304951
C261	C	0.448540	-0.278912	1.638285
C262	C	-0.218103	-0.945574	1.037055
C263	C	0.115230	-0.612240	1.370388
C264	C	0.448563	-0.278907	1.703721
C265	C	-0.284994	-0.865371	1.036993
C266	C	0.048339	-0.532038	1.370327
C267	C	0.381672	-0.198705	1.703660
C268	C	-0.285013	-0.865373	0.971558
C269	C	0.048320	-0.532040	1.304891
C270	C	0.381654	-0.198707	1.638225
C271	C	-0.251580	-0.905480	0.938874
C272	C	0.081753	-0.572147	1.272208
C273	C	0.415087	-0.238814	1.605541
H274	H	-0.450687	-0.978036	0.229537
H275	H	-0.117354	-0.644702	0.562870
H276	H	0.215980	-0.311369	0.896204
Br277	Br	-0.172713	-1.000012	1.081493
Br278	Br	0.160621	-0.666679	1.414826
Br279	Br	0.493954	-0.333345	1.748159
Br280	Br	-0.564541	-0.999866	0.207830
Br281	Br	-0.231208	-0.666533	0.541164
Br282	Br	0.102125	-0.333199	0.874497
Br283	Br	-0.362642	-0.893735	0.879592
Br284	Br	-0.029308	-0.560402	1.212925
Br285	Br	0.304025	-0.227069	1.546259
H286	H	-0.191020	-0.978227	0.541369
H287	H	0.142313	-0.644893	0.874702
H288	H	0.475646	-0.311560	1.208036
H289	H	-0.801036	-0.792644	0.414837
H290	H	-0.467703	-0.459311	0.748171
H291	H	-0.134370	-0.125977	1.081504
Br292	Br	-0.564693	-0.810842	0.396488
Br293	Br	-0.231359	-0.477509	0.729822
Br294	Br	0.101974	-0.144175	1.063155
Br295	Br	-0.435980	-0.810804	0.396480
Br296	Br	-0.102646	-0.477471	0.729814
Br297	Br	0.230687	-0.144137	1.063147
Br298	Br	-0.172812	-0.999980	0.677858
Br299	Br	0.160522	-0.666647	1.011191
Br300	Br	0.493855	-0.333314	1.344525
Br301	Br	-0.330703	-0.684642	0.396348
Br302	Br	0.002630	-0.351309	0.729681
Br303	Br	0.335963	-0.017975	1.063014
Br304	Br	-0.938198	-1.000019	0.207873
Br305	Br	-0.604865	-0.666686	0.541206
Br306	Br	-0.271531	-0.333352	0.874539
Br307	Br	-0.687180	-0.770844	0.436557
Br308	Br	-0.353847	-0.437511	0.769890
Br309	Br	-0.020514	-0.104178	1.103223
Br310	Br	-0.261618	-0.482968	0.435189
Br311	Br	0.071715	-0.149635	0.768522
Br312	Br	0.405049	0.183698	1.101856
Br313	Br	-0.362688	-0.893747	0.725360
Br314	Br	-0.029354	-0.560413	1.058693
Br315	Br	0.303979	-0.227080	1.392026
H316	H	-0.166167	-0.914520	0.743138
H317	H	0.167166	-0.581186	1.076471
H318	H	0.500499	-0.247853	1.409804
H319	H	-1.052099	-0.978301	0.229624
H320	H	-0.718766	-0.644968	0.562957
H321	H	-0.385432	-0.311635	0.896290
Br322	Br	-0.938338	-0.811019	0.396555
Br323	Br	-0.605005	-0.477686	0.729888
Br324	Br	-0.271671	-0.144352	1.063221
H325	H	-0.190984	-0.548174	0.229563
H326	H	0.142350	-0.214840	0.562896
H327	H	0.475683	0.118493	0.896230
H328	H	-0.312330	-0.832714	0.659972
H329	H	0.021003	-0.499381	0.993306
H330	H	0.354337	-0.166047	1.326639
H331	H	-0.312450	-0.263244	0.374791
H332	H	0.020883	0.070089	0.708124
H333	H	0.354217	0.403423	1.041457
Br334	Br	-0.140552	-0.917228	0.879610
Br335	Br	0.192781	-0.583895	1.212943
Br336	Br	0.526114	-0.250562	1.546277
H337	H	-0.312253	-0.832722	0.944899
H338	H	0.021080	-0.499388	1.278232
H339	H	0.354413	-0.166055	1.611565
H340	H	-0.312495	-0.548173	0.374689
H341	H	0.020839	-0.214840	0.708022
H342	H	0.354172	0.118493	1.041355
Br343	Br	-0.330599	-0.126772	0.396560
Br344	Br	0.002734	0.206561	0.729893
Br345	Br	0.336067	0.539894	1.063226
H346	H	-0.800881	-1.018290	0.189573
H347	H	-0.467548	-0.684957	0.522907
H348	H	-0.134214	-0.351624	0.856240
Br349	Br	-0.330365	-0.810946	1.081352
Br350	Br	0.002968	-0.477613	1.414685
Br351	Br	0.336302	-0.144279	1.748018
Br352	Br	-0.261585	-0.328732	0.435248
Br353	Br	0.071748	0.004602	0.768582
Br354	Br	0.405081	0.337935	1.101915
H355	H	-0.701834	-1.018244	0.189557
H356	H	-0.368500	-0.684910	0.522891
H357	H	-0.035167	-0.351577	0.856224
H358	H	-0.312363	-0.832701	0.541259
H359	H	0.020970	-0.499368	0.874592
H360	H	0.354303	-0.166035	1.207925
H361	H	-0.190914	-0.144537	0.229707
H362	H	0.142419	0.188796	0.563041
H363	H	0.475752	0.522129	0.896374
Br364	Br	-0.241821	-0.328462	0.169154
Br365	Br	0.091512	0.004872	0.502487
Br366	Br	0.424846	0.338205	0.835821
H367	H	-0.190936	-0.263248	0.229661
H368	H	0.142397	0.070086	0.562994
H369	H	0.475731	0.403419	0.896327
H370	H	-0.244119	-0.464961	0.199746
H371	H	0.089215	-0.131628	0.533079
H372	H	0.422548	0.201706	0.866412
Br373	Br	-1.067027	-0.811063	0.396558
Br374	Br	-0.733694	-0.477730	0.729891
Br375	Br	-0.400361	-0.144397	1.063225
H376	H	-0.190995	-0.666887	0.229521
H377	H	0.142338	-0.333554	0.562855
H378	H	0.475672	-0.000221	0.896188
H379	H	-0.190901	-0.978233	0.945006
H380	H	0.142433	-0.644900	1.278339
H381	H	0.475766	-0.311566	1.611672
