data_functionalizedCrystal
_audit_creation_method	'MofGen! by Chris Wilmer'
_symmetry_space_group_name_H-M	'P1'
_symmetry_Int_Tables_number	1
_symmetry_cell_setting	triclinic
loop_
_symmetry_equiv_pos_as_xyz
  x,y,z
_cell_length_a	11.792254
_cell_length_b	10.268362
_cell_length_c	10.654541
_cell_angle_alpha	89.994950
_cell_angle_beta	95.658737
_cell_angle_gamma	90.004525
loop_
_atom_site_label
_atom_site_type_symbol
_atom_site_fract_x
_atom_site_fract_y
_atom_site_fract_z
O1	O	1.507297	0.108299	-0.172212
O2	O	2.007297	0.608299	0.327788
O3	O	1.176998	0.108301	-0.189936
O4	O	1.676998	0.608301	0.310064
O5	O	1.349743	0.108292	0.001686
O6	O	1.849743	0.608292	0.501686
O7	O	1.334552	0.108308	-0.363835
O8	O	1.834552	0.608308	0.136165
O9	O	1.349728	-0.108309	0.001694
O10	O	1.849728	0.391691	0.501694
O11	O	1.176983	-0.108299	-0.189928
O12	O	1.676983	0.391701	0.310072
O13	O	1.507282	-0.108302	-0.172204
O14	O	2.007282	0.391698	0.327796
Cu15	Cu	1.342131	-0.128078	-0.181066
Cu16	Cu	1.842131	0.371922	0.318934
Cu17	Cu	1.342149	0.128077	-0.181075
Cu18	Cu	1.842149	0.628077	0.318925
O19	O	1.334537	-0.108293	-0.363827
O20	O	1.834537	0.391707	0.136173
C21	C	1.134697	0.000001	-0.188816
C22	C	1.634697	0.500001	0.311184
C23	C	1.008677	0.000002	-0.185474
C24	C	1.508677	0.500002	0.314526
C25	C	0.906334	0.000008	-0.182759
C26	C	1.406334	0.500008	0.317241
C27	C	0.777940	0.000008	-0.179364
C28	C	1.277940	0.500008	0.320636
N29	N	1.342127	-0.308244	-0.181058
N30	N	1.842127	0.191756	0.318942
C31	C	1.342143	-0.573914	-0.181072
C32	C	1.842143	-0.073914	0.318928
C33	C	1.342130	-0.426077	-0.181068
C34	C	1.842130	0.073923	0.318932
C35	C	1.549582	0.000001	-0.173325
C36	C	2.049582	0.500001	0.326675
C37	C	1.675603	0.000008	-0.176667
C38	C	2.175603	0.500008	0.323333
C39	C	1.348621	-0.000008	0.048485
C40	C	1.848621	0.499992	0.548485
C41	C	1.345285	-0.000005	0.187919
C42	C	1.845285	0.499995	0.687919
N43	N	1.342162	0.308243	-0.181073
N44	N	1.842162	0.808243	0.318927
C45	C	1.335659	0.000010	-0.410626
C46	C	1.835659	0.500010	0.089374
C47	C	1.338995	0.000016	-0.550060
C48	C	1.838995	0.500016	-0.050060
C49	C	1.551849	-0.000024	0.216464
C50	C	2.051849	0.499976	0.716464
C51	C	1.653558	-0.000035	0.296241
C52	C	2.153558	0.499965	0.796241
C53	C	1.650418	-0.000031	0.427250
C54	C	2.150418	0.499969	0.927250
C55	C	1.545555	-0.000012	0.478484
C56	C	2.045555	0.499988	0.978484
C57	C	1.443845	0.000000	0.398707
C58	C	1.943845	0.500000	0.898707
C59	C	1.446998	-0.000008	0.267697
C60	C	1.946998	0.499992	0.767697
C61	C	1.237285	0.000028	0.370163
C62	C	1.737285	0.500028	0.870163
C63	C	1.240423	0.000014	0.239153
C64	C	1.740423	0.500014	0.739153
C65	C	1.132423	0.000048	0.421397
C66	C	1.632423	0.500048	0.921397
C67	C	1.030710	0.000050	0.341620
C68	C	1.530710	0.500050	0.841620
C69	C	1.033856	0.000044	0.210603
C70	C	1.533856	0.500044	0.710603
C71	C	1.138713	0.000026	0.159377
C72	C	1.638713	0.500026	0.659377
H73	H	1.554416	-0.000045	0.109791
H74	H	2.054416	0.499955	0.609791
H75	H	1.141284	0.000014	0.052704
H76	H	1.641284	0.500014	0.552704
H77	H	1.543007	0.000008	0.585160
H78	H	2.043007	0.500008	1.085160
H79	H	0.951030	0.000060	0.145655
H80	H	1.451030	0.500060	0.645655
H81	H	1.738935	-0.000063	0.254512
H82	H	2.238935	0.499937	0.754512
Br83	Br	1.788452	-0.000030	0.535525
Br84	Br	2.288452	0.499970	1.035525
H85	H	1.129872	0.000059	0.528073
H86	H	1.629872	0.500059	1.028073
H87	H	0.945340	0.000074	0.383346
H88	H	1.445340	0.500074	0.883346
