data_functionalizedCrystal
_audit_creation_method	'MofGen! by Chris Wilmer'
_symmetry_space_group_name_H-M	'P1'
_symmetry_Int_Tables_number	1
_symmetry_cell_setting	triclinic
loop_
_symmetry_equiv_pos_as_xyz
  x,y,z
_cell_length_a	10.723024
_cell_length_b	12.996460
_cell_length_c	10.723024
_cell_angle_alpha	90.000903
_cell_angle_beta	95.532131
_cell_angle_gamma	90.005942
loop_
_atom_site_label
_atom_site_type_symbol
_atom_site_fract_x
_atom_site_fract_y
_atom_site_fract_z
O1	O	1.657192	0.085557	-0.175019
O2	O	1.990526	0.418891	0.158315
O3	O	2.323859	0.752224	0.491648
O4	O	1.294040	0.085561	-0.191772
O5	O	1.627373	0.418894	0.141561
O6	O	1.960707	0.752227	0.474895
O7	O	1.483993	0.085555	-0.001819
O8	O	1.817326	0.418888	0.331514
O9	O	2.150660	0.752222	0.664847
O10	O	1.467240	0.085563	-0.364972
O11	O	1.800573	0.418896	-0.031638
O12	O	2.133906	0.752230	0.301695
O13	O	1.483968	-0.085579	-0.001830
O14	O	1.817302	0.247755	0.331503
O15	O	2.150635	0.581088	0.664837
O16	O	1.294016	-0.085573	-0.191783
O17	O	1.627349	0.247760	0.141550
O18	O	1.960682	0.581093	0.474884
O19	O	1.657168	-0.085576	-0.175030
O20	O	1.990501	0.247757	0.158304
O21	O	2.323835	0.581090	0.491637
Cu22	Cu	1.475589	-0.101201	-0.183407
Cu23	Cu	1.808923	0.232133	0.149926
Cu24	Cu	2.142256	0.565466	0.483259
Cu25	Cu	1.475619	0.101185	-0.183394
Cu26	Cu	1.808952	0.434518	0.149939
Cu27	Cu	2.142285	0.767852	0.483272
O28	O	1.467215	-0.085571	-0.364983
O29	O	1.800548	0.247762	-0.031649
O30	O	2.133882	0.581096	0.301684
C31	C	1.247528	-0.000006	-0.190558
C32	C	1.580862	0.333327	0.142775
C33	C	1.914195	0.666661	0.476108
C34	C	1.108974	-0.000005	-0.186911
C35	C	1.442307	0.333329	0.146423
C36	C	1.775641	0.666662	0.479756
C37	C	1.033991	-0.000002	-0.293198
C38	C	1.367325	0.333332	0.040135
C39	C	1.700658	0.666665	0.373468
C40	C	0.890788	-0.000000	-0.289431
C41	C	1.224121	0.333333	0.043903
C42	C	1.557455	0.666666	0.377236
N43	N	1.475578	-0.243548	-0.183416
N44	N	1.808911	0.089786	0.149918
N45	N	2.142245	0.423119	0.483251
C46	C	1.475584	-0.336654	-0.183419
C47	C	1.808917	-0.003320	0.149915
C48	C	2.142251	0.330013	0.483248
C49	C	1.475595	-0.453459	-0.183411
C50	C	1.808929	-0.120126	0.149923
C51	C	2.142262	0.213208	0.483256
C52	C	1.475611	-0.546557	-0.183397
C53	C	1.808944	-0.213224	0.149936
C54	C	2.142277	0.120109	0.483270
C55	C	1.475624	-0.663370	-0.183390
C56	C	1.808957	-0.330036	0.149943
C57	C	2.142291	0.003297	0.483277
C58	C	1.703680	-0.000008	-0.176243
C59	C	2.037013	0.333326	0.157090
C60	C	2.370346	0.666659	0.490423
C61	C	1.842234	-0.000002	-0.179891
C62	C	2.175567	0.333331	0.153442
C63	C	2.508901	0.666664	0.486776
C64	C	1.482762	-0.000011	0.044675
C65	C	1.816095	0.333323	0.378008
C66	C	2.149428	0.666656	0.711342
C67	C	1.479114	-0.000007	0.183229
C68	C	1.812447	0.333326	0.516563
C69	C	2.145780	0.666660	0.849896
N70	N	1.475640	0.243532	-0.183376
N71	N	1.808973	0.576865	0.149957
N72	N	2.142306	0.910199	0.483290
C73	C	1.468447	-0.000003	-0.411477
C74	C	1.801780	0.333330	-0.078143
C75	C	2.135113	0.666664	0.255190
C76	C	1.472094	0.000000	-0.550031
C77	C	1.805428	0.333333	-0.216698
C78	C	2.138761	0.666667	0.116636
C79	C	1.585401	-0.000006	0.258212
C80	C	1.918735	0.333327	0.591545
C81	C	2.252068	0.666660	0.924878
C82	C	1.581634	-0.000003	0.401415
C83	C	1.914967	0.333331	0.734749
C84	C	2.248301	0.666664	1.068082
H85	H	0.906659	0.000002	-0.088896
H86	H	1.239993	0.333335	0.244438
H87	H	1.573326	0.666668	0.577771
H88	H	1.679187	-0.000014	0.216390
H89	H	2.012521	0.333320	0.549723
H90	H	2.345854	0.666653	0.883056
C91	C	0.803760	0.000008	-0.412360
C92	C	1.137093	0.333341	-0.079026
C93	C	1.470426	0.666674	0.254307
H94	H	0.852799	0.000017	-0.481572
H95	H	1.186133	0.333350	-0.148238
H96	H	1.519466	0.666683	0.185095
H97	H	0.752385	-0.059667	-0.415687
H98	H	1.085718	0.273667	-0.082353
H99	H	1.419051	0.607000	0.250980
H100	H	0.752414	0.059697	-0.415671
H101	H	1.085748	0.393030	-0.082338
H102	H	1.419081	0.726364	0.250996
H103	H	1.075814	-0.000006	-0.386984
H104	H	1.409147	0.333328	-0.053651
H105	H	1.742480	0.666661	0.279682
H106	H	1.067152	0.000020	-0.093125
H107	H	1.400485	0.333353	0.240209
H108	H	1.733818	0.666686	0.573542
H109	H	1.672624	-0.000007	0.465848
H110	H	2.005958	0.333326	0.799181
H111	H	2.339291	0.666660	1.132514
H112	H	1.381099	-0.000007	0.385544
H113	H	1.714432	0.333326	0.718877
H114	H	2.047765	0.666659	1.052211
C115	C	1.352409	0.000001	0.239708
C116	C	1.685743	0.333335	0.573042
C117	C	2.019076	0.666668	0.906375
H118	H	1.286214	0.000009	0.174095
H119	H	1.619547	0.333342	0.507428
H120	H	1.952880	0.666675	0.840762
H121	H	1.346405	-0.059672	0.289935
H122	H	1.679738	0.273661	0.623268
H123	H	2.013071	0.606994	0.956601
H124	H	1.346431	0.059692	0.289923
H125	H	1.679765	0.393025	0.623257
H126	H	2.013098	0.726358	0.956590
