data_functionalizedCrystal
_audit_creation_method	'MofGen! by Chris Wilmer'
_symmetry_space_group_name_H-M	'P1'
_symmetry_Int_Tables_number	1
_symmetry_cell_setting	triclinic
loop_
_symmetry_equiv_pos_as_xyz
  x,y,z
_cell_length_a	27.732048
_cell_length_b	27.732048
_cell_length_c	26.809956
_cell_angle_alpha	89.999364
_cell_angle_beta	89.996742
_cell_angle_gamma	82.642655
loop_
_atom_site_label
_atom_site_type_symbol
_atom_site_fract_x
_atom_site_fract_y
_atom_site_fract_z
O1	O	0.640931	0.057510	-0.041421
O2	O	0.500138	0.066256	-0.041436
O3	O	0.574907	-0.008514	-0.041419
O4	O	0.566162	0.132280	-0.041439
O5	O	0.574893	-0.008502	0.041541
O6	O	0.500123	0.066267	0.041523
O7	O	0.640917	0.057522	0.041539
Zn8	Zn	0.570518	0.061896	0.054702
Zn9	Zn	0.570536	0.061881	-0.054600
O10	O	0.566147	0.132291	0.041521
C11	C	0.482124	0.066078	0.000041
C12	C	0.428469	0.065525	0.000036
C13	C	0.089654	0.106229	0.000051
C14	C	-0.112006	0.104178	0.000056
O15	O	-0.143262	0.141398	0.000073
N16	N	-0.131130	0.059843	0.000062
C17	C	-0.099835	0.016017	0.000069
O18	O	-0.120728	-0.021740	0.000079
C19	C	0.101824	0.018068	0.000068
C20	C	0.120944	0.062407	0.000057
C21	C	0.108775	0.150563	0.000042
C22	C	0.159187	0.151076	0.000038
C23	C	0.190477	0.107253	0.000044
C24	C	0.171356	0.062919	0.000054
C25	C	0.133117	-0.025757	0.000079
C26	C	0.183535	-0.025240	0.000080
C27	C	0.202655	0.019098	0.000069
C28	C	0.253059	0.019609	0.000056
N29	N	0.272183	0.063944	0.000050
C30	C	0.240892	0.107766	0.000044
C31	C	-0.205709	0.014943	0.000069
C32	C	-0.256124	0.014430	0.000068
C33	C	-0.268291	0.102591	0.000056
C34	C	-0.217876	0.103104	0.000053
C35	C	-0.186585	0.059278	0.000063
C36	C	0.346761	0.108839	0.000036
C37	C	0.397178	0.109347	0.000030
C38	C	0.409341	0.021186	0.000044
C39	C	0.358929	0.020678	0.000048
C40	C	0.327639	0.064508	0.000045
O41	O	0.284343	-0.017592	0.000045
O42	O	0.261794	0.145518	0.000045
C43	C	0.039242	0.105716	0.000055
C44	C	0.020120	0.061382	0.000065
C45	C	0.051411	0.017560	0.000071
C46	C	-0.030294	0.060869	0.000065
C47	C	-0.061585	0.104691	0.000059
C48	C	-0.042461	0.149026	0.000053
C49	C	0.007951	0.149539	0.000049
C50	C	0.032287	-0.026775	0.000077
C51	C	-0.018125	-0.027284	0.000080
C52	C	-0.049416	0.016538	0.000074
C53	C	0.574716	-0.026515	0.000062
C54	C	0.574164	-0.080170	0.000066
C55	C	0.614867	-0.418985	0.000045
C56	C	0.612816	-0.620645	0.000038
O57	O	0.650037	-0.651900	0.000021
N58	N	0.568481	-0.639768	0.000034
C59	C	0.524656	-0.608474	0.000028
O60	O	0.486899	-0.629367	0.000019
C61	C	0.526707	-0.406815	0.000031
C62	C	0.571045	-0.387694	0.000041
C63	C	0.659202	-0.399864	0.000054
C64	C	0.659714	-0.349452	0.000059
C65	C	0.615892	-0.318161	0.000054
C66	C	0.571557	-0.337282	0.000045
C67	C	0.482882	-0.375521	0.000022
C68	C	0.483399	-0.325104	0.000021
C69	C	0.527737	-0.305983	0.000031
C70	C	0.528247	-0.255580	0.000045
N71	N	0.572583	-0.236456	0.000050
C72	C	0.616405	-0.267747	0.000054
C73	C	0.523582	-0.714348	0.000027
C74	C	0.523069	-0.764762	0.000027
C75	C	0.611230	-0.776930	0.000036
C76	C	0.611742	-0.726514	0.000040
C77	C	0.567917	-0.695224	0.000031
C78	C	0.617477	-0.161878	0.000064
C79	C	0.617986	-0.111461	0.000071
C80	C	0.529825	-0.099298	0.000059
C81	C	0.529316	-0.149710	0.000055
C82	C	0.573147	-0.180999	0.000056
O83	O	0.491047	-0.224296	0.000057
O84	O	0.654156	-0.246844	0.000053
C85	C	0.614355	-0.469397	0.000041
C86	C	0.570021	-0.488518	0.000032
C87	C	0.526198	-0.457228	0.000027
C88	C	0.569508	-0.538933	0.000032
C89	C	0.613330	-0.570223	0.000036
C90	C	0.657665	-0.551100	0.000041
C91	C	0.658177	-0.500688	0.000045
C92	C	0.481863	-0.476351	0.000023
C93	C	0.481355	-0.526764	0.000019
C94	C	0.525177	-0.558054	0.000023
C95	C	0.658931	0.057699	0.000060
C96	C	0.712586	0.058252	0.000062
C97	C	0.566338	0.150292	0.000039
C98	C	0.566891	0.203947	0.000031
N99	N	0.570509	0.061906	0.129298
N100	N	0.570549	0.061867	-0.129196
C101	C	0.603640	0.028781	0.473932
C102	C	0.603652	0.028774	0.682810
O103	O	0.631801	0.000613	0.709820
N104	N	0.570539	0.061870	0.708925
C105	C	0.537419	0.094969	0.682818
O106	O	0.509252	0.123116	0.709824
C107	C	0.537406	0.094974	0.473941
C108	C	0.570524	0.061878	0.447829
C109	C	0.636755	-0.004312	0.447819
C110	C	0.636754	-0.004308	0.395603
C111	C	0.603637	0.028789	0.369500
C112	C	0.570522	0.061882	0.395612
C113	C	0.504284	0.128070	0.447835
C114	C	0.504283	0.128067	0.395613
C115	C	0.537401	0.094972	0.369500
C116	C	0.537405	0.094983	0.317293
N117	N	0.570517	0.061887	0.291177
C118	C	0.603633	0.028790	0.317281
C119	C	0.537429	0.094965	0.792481
C120	C	0.537433	0.094964	0.844700
C121	C	0.603665	0.028768	0.844689
C122	C	0.603663	0.028772	0.792469
C123	C	0.570542	0.061868	0.766366
C124	C	0.603628	0.028801	0.207623
C125	C	0.603625	0.028809	0.155402
C126	C	0.537392	0.095003	0.155418
C127	C	0.537396	0.094997	0.207635
C128	C	0.570516	0.061892	0.233735
O129	O	0.509266	0.123126	0.290250
O130	O	0.631789	0.000640	0.290266
C131	C	0.603642	0.028777	0.526149
C132	C	0.570527	0.061870	0.552261
C133	C	0.537410	0.094968	0.526158
C134	C	0.570531	0.061870	0.604480
C135	C	0.603647	0.028773	0.630584
C136	C	0.636759	-0.004324	0.604468
C137	C	0.636758	-0.004320	0.552252
C138	C	0.504298	0.128064	0.552273
C139	C	0.504303	0.128058	0.604489
C140	C	0.537419	0.094961	0.630593
H141	H	-0.202311	0.139207	0.000047
O142	O	-0.274614	-0.028683	0.000094
C143	C	-0.236179	-0.067248	0.000088
H144	H	-0.202029	-0.053953	0.015792
H145	H	-0.246487	-0.098223	0.024179
H146	H	-0.228943	-0.080752	-0.039709
O147	O	0.316322	0.151383	-0.000037
C148	C	0.286807	0.153725	-0.043008
H149	H	0.284532	0.115375	-0.057323
H150	H	0.248782	0.172029	-0.033349
H151	H	0.303240	0.175665	-0.073100
H152	H	0.646911	-0.802415	0.000040
H153	H	0.694889	-0.425336	0.000056
O154	O	0.505157	0.127132	0.130112
C155	C	0.457369	0.119591	0.142865
H156	H	0.457570	0.100959	0.180781
H157	H	0.433287	0.156088	0.144650
H158	H	0.442606	0.095628	0.113478
O159	O	-0.298623	0.145205	0.000031
C160	C	-0.270941	0.184452	0.000043
H161	H	-0.233218	0.171901	-0.015664
H162	H	-0.289767	0.215131	-0.024041
H163	H	-0.267453	0.198060	0.039843
H164	H	0.663722	-0.031266	0.469068
H165	H	0.510457	0.121917	0.771232
H166	H	0.510433	0.121951	0.228896
H167	H	0.630630	0.001822	0.771211
H168	H	0.663725	-0.031269	0.530995
H169	H	0.654093	-0.095896	0.000080
H170	H	0.117558	-0.061861	0.000088
H171	H	0.057760	-0.062462	0.000083
H172	H	0.630630	0.001820	0.865951
O173	O	0.487214	-0.068966	0.000073
C174	C	0.447968	-0.096648	0.000049
H175	H	0.460514	-0.134370	0.015760
H176	H	0.417280	-0.077821	0.024124
H177	H	0.434373	-0.100139	-0.039755
O178	O	0.700247	-0.581481	0.000132
C179	C	0.727192	-0.572864	0.043093
H180	H	0.701542	-0.555443	0.073124
H181	H	0.746843	-0.608783	0.057512
H182	H	0.754981	-0.547399	0.033383
O183	O	0.213861	-0.067857	0.000065
C184	C	0.186168	-0.107096	0.000086
H185	H	0.148448	-0.094539	-0.015618
H186	H	0.204988	-0.137782	-0.023995
H187	H	0.182677	-0.120698	0.039889
O188	O	0.479956	-0.783252	0.000001
C189	C	0.441391	-0.744818	0.000008
H190	H	0.454686	-0.710667	-0.015695
H191	H	0.410417	-0.755124	-0.024082
H192	H	0.427885	-0.737584	0.039806
O193	O	-0.175269	-0.027601	0.000007
C194	C	-0.145749	-0.029956	-0.042965
H195	H	-0.143471	0.008390	-0.057292
H196	H	-0.107726	-0.048258	-0.033302
H197	H	-0.162180	-0.051903	-0.073050
H198	H	0.446177	-0.450879	0.000018
H199	H	0.663726	-0.031271	0.625730
H200	H	0.412743	0.145454	0.000021
H201	H	0.477335	0.155012	0.625747
O202	O	0.438268	-0.545310	-0.000078
C203	C	0.411587	-0.529271	-0.043042
H204	H	0.437529	-0.518973	-0.073064
H205	H	0.391254	-0.559660	-0.057474
H206	H	0.384401	-0.496211	-0.033330
H207	H	0.653168	-0.187348	0.000063
H208	H	0.343360	-0.015426	0.000049
H209	H	0.477330	0.155015	0.531024
H210	H	0.174750	0.187180	0.000029
O211	O	0.439810	-0.021336	0.000074
C212	C	0.488406	-0.011371	0.000059
H213	H	0.490055	0.026587	0.015754
H214	H	0.511453	-0.039318	0.024152
H215	H	0.503004	-0.013323	-0.039740
H216	H	0.083302	0.186251	0.000038
H217	H	0.510471	0.121919	0.865958
H218	H	0.647846	-0.710950	0.000047
H219	H	0.630595	0.001859	0.134142
O220	O	0.635847	-0.003376	0.232895
C221	C	0.665062	-0.032589	0.198641
H222	H	0.665453	-0.012766	0.161421
H223	H	0.703721	-0.040233	0.213720
H224	H	0.649636	-0.068390	0.193083
O225	O	0.668939	-0.036508	0.370318
C226	C	0.698172	-0.065710	0.404564
H227	H	0.678356	-0.066113	0.441789
H228	H	0.705833	-0.104367	0.389482
H229	H	0.733962	-0.050263	0.410115
O230	O	0.472065	0.160237	0.473115
C231	C	0.442846	0.189450	0.438868
H232	H	0.442456	0.169631	0.401646
H233	H	0.404187	0.197089	0.453953
H234	H	0.458268	0.225254	0.433311
O235	O	0.026441	0.192652	0.000065
C236	C	-0.011996	0.231215	0.000048
H237	H	-0.046147	0.217922	0.015756
H238	H	-0.001693	0.262197	0.024129
H239	H	-0.019229	0.244708	-0.039754
H240	H	0.487892	-0.688875	0.000020
H241	H	-0.067947	0.184708	0.000046
O242	O	-0.036615	-0.070400	0.000111
C243	C	0.001820	-0.108965	0.000105
H244	H	0.035971	-0.095669	0.015802
H245	H	-0.008486	-0.139938	0.024200
H246	H	0.009052	-0.122473	-0.039692
O247	O	0.702827	-0.330962	0.000042
C248	C	0.741390	-0.369399	0.000057
H249	H	0.728098	-0.403549	-0.015651
H250	H	0.772373	-0.359094	-0.024026
H251	H	0.754883	-0.376634	0.039858
O252	O	0.439769	-0.394007	-0.000012
C253	C	0.401207	-0.355569	-0.000007
H254	H	0.414507	-0.321419	-0.015707
H255	H	0.370233	-0.365871	-0.024101
H256	H	0.387697	-0.348335	0.039790
H257	H	0.447710	-0.299629	0.000014
O258	O	0.472175	0.160239	0.370202
C259	C	0.497833	0.189897	0.340006
H260	H	0.535801	0.170386	0.332176
H261	H	0.477597	0.197687	0.303289
H262	H	0.500848	0.225599	0.360135
H263	H	0.493213	-0.165279	0.000061
H264	H	0.694282	-0.485125	0.000053
