data_functionalizedCrystal
_audit_creation_method	'MofGen! by Chris Wilmer'
_symmetry_space_group_name_H-M	'P1'
_symmetry_Int_Tables_number	1
_symmetry_cell_setting	triclinic
loop_
_symmetry_equiv_pos_as_xyz
  x,y,z
_cell_length_a	8.634740
_cell_length_b	16.776229
_cell_length_c	17.699083
_cell_angle_alpha	89.995692
_cell_angle_beta	91.926661
_cell_angle_gamma	89.993544
loop_
_atom_site_label
_atom_site_type_symbol
_atom_site_fract_x
_atom_site_fract_y
_atom_site_fract_z
O1	O	-2.045140	0.066314	-0.246696
O2	O	-1.545140	0.566314	0.253304
O3	O	-1.596265	0.066310	-0.226010
O4	O	-1.096265	0.566310	0.273990
O5	O	-1.833384	0.066305	-0.127100
O6	O	-1.333384	0.566305	0.372900
O7	O	-1.808021	0.066319	-0.345606
O8	O	-1.308021	0.566319	0.154394
O9	O	-1.833358	-0.066271	-0.127098
O10	O	-1.333358	0.433729	0.372902
O11	O	-1.596239	-0.066266	-0.226007
O12	O	-1.096239	0.433734	0.273993
O13	O	-2.045113	-0.066263	-0.246694
O14	O	-1.545113	0.433737	0.253306
Zn15	Zn	-1.820671	-0.087314	-0.236350
Zn16	Zn	-1.320671	0.412686	0.263650
Zn17	Zn	-1.820707	0.087361	-0.236353
Zn18	Zn	-1.320707	0.587361	0.263647
O19	O	-1.807994	-0.066258	-0.345604
O20	O	-1.307994	0.433742	0.154396
C21	C	-1.538819	0.000021	-0.221322
C22	C	-1.038819	0.500021	0.278678
C23	C	-1.367688	0.000020	-0.207349
C24	C	-0.867688	0.500020	0.292651
N25	N	-1.820659	-0.206525	-0.236349
N26	N	-1.320659	0.293475	0.263651
C27	C	-1.913976	-0.248235	-0.289087
C28	C	-1.413976	0.251765	0.210913
C29	C	-1.913993	-0.331687	-0.289085
C30	C	-1.413993	0.168313	0.210915
C31	C	-1.820684	-0.373428	-0.236348
C32	C	-1.320684	0.126572	0.263652
C33	C	-1.727362	-0.331712	-0.183605
C34	C	-1.227362	0.168288	0.316395
C35	C	-1.727354	-0.248262	-0.183603
C36	C	-1.227354	0.251738	0.316397
C37	C	-1.727393	-0.668260	-0.183608
C38	C	-1.227393	-0.168260	0.316392
C39	C	-1.727405	-0.751716	-0.183615
C40	C	-1.227405	-0.251716	0.316385
C41	C	-1.914032	-0.751685	-0.289089
C42	C	-1.414032	-0.251685	0.210911
C43	C	-1.914024	-0.668234	-0.289088
C44	C	-1.414024	-0.168234	0.210912
C45	C	-1.820710	-0.626526	-0.236343
C46	C	-1.320710	-0.126526	0.263657
C47	C	-1.820695	-0.536038	-0.236344
C48	C	-1.320695	-0.036038	0.263656
C49	C	-1.820690	-0.463915	-0.236350
C50	C	-1.320690	0.036085	0.263650
C51	C	-1.102559	0.000025	-0.251381
C52	C	-0.602559	0.500025	0.248619
C53	C	-1.273690	0.000024	-0.265354
C54	C	-0.773690	0.500024	0.234646
C55	C	-1.832462	0.000017	-0.098835
C56	C	-1.332462	0.500017	0.401165
C57	C	-1.829736	0.000016	-0.014615
C58	C	-1.329736	0.500016	0.485385
N59	N	-1.820732	0.206573	-0.236350
N60	N	-1.320732	0.706573	0.263650
C61	C	-1.808916	0.000032	-0.373869
C62	C	-1.308916	0.500032	0.126131
C63	C	-1.811643	0.000038	-0.458088
C64	C	-1.311643	0.500038	0.041912
C65	C	-1.968919	0.000016	0.023730
C66	C	-1.468919	0.500016	0.523730
C67	C	-1.966348	0.000023	0.102863
C68	C	-1.466348	0.500023	0.602863
C69	C	-1.824592	0.000025	0.143649
C70	C	-1.324592	0.500025	0.643649
C71	C	-1.685397	0.000027	0.105299
C72	C	-1.185397	0.500027	0.605299
C73	C	-1.687970	0.000026	0.026167
C74	C	-1.187970	0.500026	0.526167
C75	C	-1.675019	0.000033	0.424428
C76	C	-1.175019	0.500033	0.924428
C77	C	-1.672457	0.000032	0.503565
C78	C	-1.172457	0.500032	1.003565
C79	C	-1.953398	0.000031	0.501124
C80	C	-1.453398	0.500031	1.001124
C81	C	-1.955970	0.000030	0.421992
C82	C	-1.455970	0.500030	0.921992
C83	C	-1.816777	0.000036	0.383648
C84	C	-1.316777	0.500036	0.883648
C85	C	-1.819566	0.000030	0.297843
C86	C	-1.319566	0.500030	0.797843
C87	C	-1.821801	0.000025	0.229453
C88	C	-1.321801	0.500025	0.729453
H89	H	-1.317244	0.000036	-0.147000
H90	H	-0.817244	0.500036	0.353000
H91	H	-1.324141	0.000023	-0.325708
H92	H	-0.824141	0.500023	0.174292
H93	H	-2.084354	0.000010	-0.009473
H94	H	-1.584354	0.500010	0.490527
N95	N	-1.532497	0.000023	0.149283
N96	N	-1.032497	0.500023	0.649283
H97	H	-1.471541	0.049169	0.136042
H98	H	-0.971541	0.549169	0.636042
H99	H	-1.552109	-0.000010	0.205217
H100	H	-1.052109	0.499990	0.705217
H101	H	-1.990001	-0.634253	-0.332034
H102	H	-1.490001	-0.134253	0.167966
N103	N	-1.626779	-0.796741	-0.126725
N104	N	-1.126779	-0.296741	0.373275
H105	H	-1.514557	-0.782228	-0.133426
H106	H	-1.014557	-0.282228	0.366574
H107	H	-1.657551	-0.782204	-0.073927
H108	H	-1.157551	-0.282204	0.426073
N109	N	-2.014612	-0.203217	-0.345971
N110	N	-1.514612	0.296783	0.154029
H111	H	-2.073733	-0.242307	-0.379378
H112	H	-1.573733	0.257693	0.120622
H113	H	-2.090094	-0.168589	-0.318496
H114	H	-1.590094	0.331411	0.181504
H115	H	-1.990018	-0.785654	-0.332036
H116	H	-1.490018	-0.285654	0.167964
H117	H	-1.989985	-0.365644	-0.332028
H118	H	-1.489985	0.134356	0.167972
N119	N	-1.626753	-0.623280	-0.126721
N120	N	-1.126753	-0.123280	0.373279
H121	H	-1.567641	-0.662388	-0.093316
H122	H	-1.067641	-0.162388	0.406684
H123	H	-1.551261	-0.588657	-0.154190
H124	H	-1.051261	-0.088657	0.345810
H125	H	-2.079686	0.000021	0.134080
H126	H	-1.579686	0.500021	0.634080
H127	H	-1.651396	-0.365704	-0.140662
H128	H	-1.151396	0.134296	0.359338
H129	H	-1.651365	-0.214303	-0.140659
H130	H	-1.151365	0.285697	0.359341
H131	H	-2.066736	0.000030	0.532353
H132	H	-1.566736	0.500030	1.032353
N133	N	-2.108863	0.000022	0.378001
N134	N	-1.608863	0.500022	0.878001
H135	H	-2.196648	0.000024	0.414301
H136	H	-1.696648	0.500024	0.914301
H137	H	-2.116058	0.049169	0.345111
H138	H	-1.616058	0.549169	0.845111
N139	N	-1.537852	0.000031	-0.015195
N140	N	-1.037852	0.500031	0.484805
H141	H	-1.447658	0.000031	0.022649
H142	H	-0.947658	0.500031	0.522649
H143	H	-1.532784	-0.049116	-0.047972
H144	H	-1.032784	0.450884	0.452028
H145	H	-1.557015	0.000032	0.536771
H146	H	-1.057015	0.500032	1.036771
H147	H	-1.561679	0.000039	0.393218
H148	H	-1.061679	0.500039	0.893218
