data_functionalizedCrystal
_audit_creation_method	'MofGen! by Chris Wilmer'
_symmetry_space_group_name_H-M	'P1'
_symmetry_Int_Tables_number	1
_symmetry_cell_setting	triclinic
loop_
_symmetry_equiv_pos_as_xyz
  x,y,z
_cell_length_a	14.971486
_cell_length_b	15.995350
_cell_length_c	13.448316
_cell_angle_alpha	90.004373
_cell_angle_beta	90.001801
_cell_angle_gamma	83.553252
loop_
_atom_site_label
_atom_site_type_symbol
_atom_site_fract_x
_atom_site_fract_y
_atom_site_fract_z
O1	O	1.186823	0.109116	0.082572
O2	O	1.686823	0.609116	0.582572
O3	O	0.926408	0.122183	0.082599
O4	O	1.426408	0.622183	0.582599
O5	O	1.063734	-0.006231	0.082584
O6	O	1.563734	0.493769	0.582584
O7	O	1.049497	0.237530	0.082587
O8	O	1.549497	0.737530	0.582587
O9	O	1.063717	-0.006239	-0.082800
O10	O	1.563717	0.493761	0.417200
O11	O	0.926390	0.122175	-0.082785
O12	O	1.426390	0.622175	0.417215
O13	O	1.186805	0.109109	-0.082811
O14	O	1.686805	0.609109	0.417189
Cu15	Cu	1.056596	0.115641	-0.097899
Cu16	Cu	1.556596	0.615641	0.402101
Cu17	Cu	1.056617	0.115651	0.097687
Cu18	Cu	1.556617	0.615651	0.597687
O19	O	1.049479	0.237523	-0.082796
O20	O	1.549479	0.737523	0.417204
C21	C	0.893075	0.121595	-0.000090
C22	C	1.393075	0.621595	0.499910
C23	C	0.793780	0.119844	-0.000079
C24	C	1.293780	0.619844	0.499921
C25	C	1.063137	-0.037430	-0.000106
C26	C	1.563137	0.462570	0.499894
C27	C	1.061372	-0.130382	-0.000100
C28	C	1.561372	0.369618	0.499900
C29	C	0.736468	0.195284	-0.000080
C30	C	1.236468	0.695284	0.499920
C31	C	0.643171	0.193633	-0.000095
C32	C	1.143171	0.693633	0.499905
C33	C	0.607187	0.116542	-0.000102
C34	C	1.107187	0.616542	0.499898
C35	C	0.664505	0.041097	-0.000104
C36	C	1.164505	0.541097	0.499896
C37	C	0.757801	0.042748	-0.000097
C38	C	1.257801	0.542748	0.499903
C39	C	0.470047	0.037660	-0.000118
C40	C	0.970047	0.537660	0.499882
C41	C	0.376745	0.036008	-0.000124
C42	C	0.876745	0.536008	0.499876
C43	C	0.355417	0.188545	-0.000116
C44	C	0.855417	0.688545	0.499884
C45	C	0.448712	0.190197	-0.000108
C46	C	0.948712	0.690197	0.499892
C47	C	0.506025	0.114751	-0.000109
C48	C	1.006025	0.614751	0.499891
C49	C	1.055035	-0.468136	-0.000103
C50	C	1.555035	0.031864	0.499897
C51	C	0.957234	-0.420800	0.000278
C52	C	1.457234	0.079200	0.500278
C53	C	0.958999	-0.324108	-0.000095
C54	C	1.458999	0.175892	0.499905
C55	C	1.058178	-0.300572	-0.000101
C56	C	1.558178	0.199428	0.499899
C57	C	1.106407	-0.341606	-0.094546
C58	C	1.606407	0.158394	0.405454
C59	C	1.103951	-0.438244	-0.094625
C60	C	1.603951	0.061756	0.405375
C61	C	1.105990	-0.438591	0.093447
C62	C	1.605990	0.061409	0.593447
C63	C	1.105967	-0.341646	0.094695
C64	C	1.605967	0.158354	0.594695
C65	C	1.059960	-0.205873	-0.000103
C66	C	1.559960	0.294127	0.499897
C67	C	1.053256	-0.562835	-0.000107
C68	C	1.553256	-0.062835	0.499893
C69	C	1.220138	0.109697	-0.000121
C70	C	1.720138	0.609697	0.499879
C71	C	1.319433	0.111448	-0.000124
C72	C	1.819433	0.611448	0.499876
C73	C	1.050077	0.268722	-0.000104
C74	C	1.550077	0.768722	0.499896
C75	C	1.051841	0.361674	-0.000104
C76	C	1.551841	0.861674	0.499896
N77	N	1.056589	0.115634	-0.235463
N78	N	1.556589	0.615634	0.264537
C79	C	1.117415	0.058796	-0.287510
C80	C	1.617415	0.558796	0.212490
C81	C	1.117421	0.058795	-0.391613
C82	C	1.617421	0.558795	0.108387
C83	C	1.056603	0.115637	-0.443668
C84	C	1.556603	0.615637	0.056332
C85	C	0.995770	0.172478	-0.391614
C86	C	1.495770	0.672478	0.108386
C87	C	0.995761	0.172474	-0.287512
C88	C	1.495761	0.672474	0.212488
C89	C	0.995795	0.172484	-0.608594
C90	C	1.495795	0.672484	-0.108594
C91	C	0.995805	0.172489	-0.712702
C92	C	1.495805	0.672489	-0.212702
C93	C	1.117455	0.058805	-0.712695
C94	C	1.617455	0.558805	-0.212695
C95	C	1.117446	0.058801	-0.608594
C96	C	1.617446	0.558801	-0.108594
C97	C	1.056613	0.115643	-0.556546
C98	C	1.556613	0.615643	-0.056546
N99	N	1.056632	0.115651	0.235251
N100	N	1.556632	0.615651	0.735251
H101	H	0.765759	0.258060	-0.000073
H102	H	1.265759	0.758060	0.499927
N103	N	0.819615	-0.038622	-0.000102
N104	N	1.319615	0.461378	0.499898
H105	H	0.808043	-0.072252	0.061203
H106	H	1.308043	0.427748	0.561203
H107	H	0.884152	-0.025812	-0.000138
H108	H	1.384152	0.474188	0.499862
H109	H	0.596511	0.255064	-0.000094
H110	H	1.096511	0.755064	0.499906
N111	N	0.487528	0.273342	-0.000081
N112	N	0.987528	0.773342	0.499919
H113	H	0.437066	0.320886	-0.000081
H114	H	0.937066	0.820886	0.499919
H115	H	0.525779	0.277351	-0.061384
H116	H	1.025779	0.777351	0.438616
N117	N	1.183076	-0.002490	-0.768835
N118	N	1.683076	0.497510	-0.268835
H119	H	1.246546	0.007273	-0.750706
H120	H	1.746546	0.507273	-0.250706
H121	H	1.173770	0.006177	-0.842661
H122	H	1.673770	0.506177	-0.342661
N123	N	0.337918	-0.047132	-0.000140
N124	N	0.837918	0.452868	0.499860
H125	H	0.358811	-0.080195	0.061162
H126	H	0.858811	0.419805	0.561162
H127	H	0.358821	-0.080119	-0.061494
H128	H	0.858821	0.419881	0.438506
N129	N	0.293608	0.269921	-0.000112
N130	N	0.793608	0.769921	0.499888
H131	H	0.229045	0.257180	-0.000122
H132	H	0.729045	0.757180	0.499878
H133	H	0.305262	0.303516	-0.061415
H134	H	0.805262	0.803516	0.438585
H135	H	0.635200	-0.021672	-0.000125
H136	H	1.135200	0.478328	0.499875
H137	H	0.921087	-0.295720	0.067608
H138	H	1.421087	0.204280	0.567608
H139	H	1.178099	-0.470280	0.094077
H140	H	1.678099	0.029720	0.594077
N141	N	0.531865	-0.043712	-0.000126
N142	N	1.031865	0.456288	0.499874
H143	H	0.494914	-0.092800	-0.000128
H144	H	0.994914	0.407200	0.499872
H145	H	0.571036	-0.046345	0.061187
H146	H	1.071036	0.453655	0.561187
N147	N	0.905453	-0.445392	0.089987
N148	N	1.405453	0.054608	0.589987
H149	H	0.944885	-0.487458	0.131253
H150	H	1.444885	0.012542	0.631253
H151	H	0.850463	-0.471386	0.067371
H152	H	1.350463	0.028614	0.567371
N153	N	0.905667	-0.446801	-0.088924
N154	N	1.405667	0.053199	0.411076
H155	H	0.945384	-0.489111	-0.129580
H156	H	1.445384	0.010889	0.370420
H157	H	0.886160	-0.395713	-0.131019
H158	H	1.386160	0.104287	0.368981
N159	N	0.908435	-0.287241	-0.089919
N160	N	1.408435	0.212759	0.410081
H161	H	0.844155	-0.300656	-0.087011
H162	H	1.344155	0.199344	0.412989
H163	H	0.937972	-0.312180	-0.152353
H164	H	1.437972	0.187820	0.347647
H165	H	1.070706	-0.314429	0.164563
H166	H	1.570706	0.185571	0.664563
H167	H	1.068767	-0.456584	-0.165220
H168	H	1.568767	0.043416	0.334780
N169	N	1.199057	-0.480874	-0.100314
N170	N	1.699057	0.019126	0.399686
H171	H	1.242390	-0.436864	-0.102764
H172	H	1.742390	0.063136	0.397236
H173	H	1.206208	-0.516754	-0.162216
H174	H	1.706208	-0.016754	0.337784
H175	H	1.179272	-0.327407	-0.098063
H176	H	1.679272	0.172593	0.401937
H177	H	1.072896	-0.313261	-0.164825
H178	H	1.572896	0.186739	0.335175
N179	N	1.183035	-0.002493	-0.447762
N180	N	1.683035	0.497507	0.052238
H181	H	1.222622	0.029586	-0.490941
H182	H	1.722622	0.529586	0.009059
H183	H	1.148804	-0.039605	-0.490911
H184	H	1.648804	0.460395	0.009089
N185	N	1.183041	-0.002502	-0.552441
N186	N	1.683041	0.497498	-0.052441
H187	H	1.246522	0.007240	-0.570544
H188	H	1.746522	0.507240	-0.070544
H189	H	1.172670	-0.061919	-0.570585
H190	H	1.672670	0.438081	-0.070585
N191	N	1.063653	-0.465835	0.188272
N192	N	1.563653	0.034165	0.688272
H193	H	1.011008	-0.497611	0.171545
H194	H	1.511008	0.002389	0.671545
H195	H	1.042112	-0.414600	0.229255
H196	H	1.542112	0.085400	0.729255
H197	H	1.178294	-0.326211	0.100393
H198	H	1.678294	0.173789	0.600393
N199	N	1.183018	-0.002508	-0.231369
N200	N	1.683018	0.497492	0.268631
H201	H	1.221550	-0.038516	-0.280142
H202	H	1.721550	0.461484	0.219858
H203	H	1.148776	-0.039580	-0.188187
H204	H	1.648776	0.460420	0.311813
N205	N	0.930219	0.233804	-0.768851
N206	N	1.430219	0.733804	-0.268851
H207	H	0.891679	0.269811	-0.720085
H208	H	1.391679	0.769811	-0.220085
H209	H	0.890688	0.201691	-0.812062
H210	H	1.390688	0.701691	-0.312062
H211	H	0.946255	0.218769	-0.566220
H212	H	1.446255	0.718769	-0.066220
N213	N	0.930171	0.233781	-0.447760
N214	N	1.430171	0.733781	0.052240
H215	H	0.964351	0.270911	-0.490939
H216	H	1.464351	0.770911	0.009061
H217	H	0.891648	0.269731	-0.398930
H218	H	1.391648	0.769731	0.101070
N219	N	0.930151	0.233774	-0.231371
N220	N	1.430151	0.733774	0.268629
H221	H	0.891624	0.269785	-0.280141
H222	H	1.391624	0.769785	0.219859
H223	H	0.964381	0.270843	-0.188164
H224	H	1.464381	0.770843	0.311836
