data_functionalizedCrystal
_audit_creation_method	'MofGen! by Chris Wilmer'
_symmetry_space_group_name_H-M	'P1'
_symmetry_Int_Tables_number	1
_symmetry_cell_setting	triclinic
loop_
_symmetry_equiv_pos_as_xyz
  x,y,z
_cell_length_a	20.875641
_cell_length_b	14.560438
_cell_length_c	14.560438
_cell_angle_alpha	60.000069
_cell_angle_beta	89.998537
_cell_angle_gamma	57.589171
loop_
_atom_site_label
_atom_site_type_symbol
_atom_site_fract_x
_atom_site_fract_y
_atom_site_fract_z
Zr1	Zr	0.641477	0.937870	-0.086821
O2	O	0.535154	1.140646	-0.239049
O3	O	0.674071	0.742844	-0.040157
O4	O	0.674071	0.934448	-0.231758
O5	O	0.535154	0.949039	0.103692
O6	O	0.783651	0.922933	-0.226004
O7	O	0.535154	0.949042	-0.047449
O8	O	0.783651	0.580189	0.116735
O9	O	0.535154	1.291784	-0.239047
O10	O	0.769751	0.811598	-0.015958
O11	O	0.687972	0.820189	0.092542
O12	O	0.687972	1.045778	-0.133043
O13	O	0.606194	1.054369	-0.024543
Zr14	Zr	0.816246	0.919501	0.163409
Zr15	Zr	0.816245	0.919506	-0.077643
Zr16	Zr	0.641478	0.937866	0.154231
Zr17	Zr	0.641478	1.178918	-0.086816
Zr18	Zr	0.816245	0.678454	0.163404
O19	O	0.783652	1.114528	0.116745
O20	O	0.783652	1.114534	-0.226000
O21	O	0.535154	1.140640	0.103696
O22	O	0.922569	0.716726	0.315637
O23	O	0.922569	0.716732	-0.027108
O24	O	0.674071	0.742838	0.302588
O25	O	0.922569	0.908332	-0.027104
O26	O	0.783652	0.922924	0.308346
O27	O	0.674072	0.934439	0.302592
O28	O	0.922569	0.908330	0.124037
O29	O	0.674072	1.277187	-0.231752
O30	O	0.783652	0.580185	0.308340
O31	O	0.922569	0.565588	0.315635
O32	O	0.922569	0.565591	0.124030
O33	O	0.535154	1.291781	-0.047442
O34	O	0.674072	1.277183	-0.040147
O35	O	0.769751	0.811594	0.209631
O36	O	0.851529	0.803002	0.101131
O37	O	0.769751	1.037183	-0.015954
O38	O	0.687972	1.045774	0.092546
C39	C	0.728861	0.627172	0.038288
C40	C	0.728861	0.524841	0.038286
C41	C	0.771547	0.472281	-0.018350
C42	C	0.771550	0.376121	-0.018339
C43	C	0.686175	0.385095	0.094945
C44	C	0.686177	0.481246	0.094941
C45	C	0.510253	0.951657	0.026814
C46	C	0.436060	0.959454	0.022918
C47	C	0.443889	0.840880	0.082199
C48	C	0.374173	0.848213	0.078535
C49	C	0.296629	0.974122	0.015584
C50	C	0.288802	1.092705	-0.043699
C51	C	0.358517	1.085370	-0.040028
C52	C	0.083551	1.009166	-0.001942
C53	C	0.013834	1.016492	-0.005611
C54	C	0.099211	0.772000	0.116626
C55	C	0.168923	0.764676	0.120285
C56	C	0.161090	0.883259	0.061007
N57	N	0.225368	0.981621	0.011835
N58	N	0.232351	0.875758	0.064764
C59	C	0.947470	0.905715	0.049774
C60	C	1.021663	0.897918	0.053670
C61	C	0.728861	0.928691	-0.263226
C62	C	0.728861	0.928693	-0.365559
C63	C	0.728862	1.230200	0.038300
C64	C	0.728862	1.332531	0.038302
C65	C	0.789230	0.922351	-0.410464
C66	C	0.789232	0.922339	-0.506610
C67	C	0.668490	0.935018	-0.512939
C68	C	0.668492	0.935020	-0.416790
C69	C	0.728862	0.928681	0.339814
C70	C	0.728862	0.928679	0.442147
C71	C	0.947469	0.604201	0.049768
C72	C	1.021663	0.494074	0.053662
C73	C	0.728861	0.627167	0.339808
C74	C	0.728861	0.524834	0.442139
C75	C	0.947470	0.604195	0.351288
C76	C	1.021663	0.494066	0.457515
C77	C	0.510253	1.253176	-0.274700
C78	C	0.436060	1.363306	-0.380927
C79	C	0.510254	1.253171	0.026820
C80	C	0.436060	1.363298	0.022926
C81	C	0.728862	1.230205	-0.263220
C82	C	0.728862	1.332538	-0.365551
C83	C	1.013817	0.446843	-0.005638
C84	C	1.083523	0.343381	-0.002002
C85	C	1.161074	0.287144	0.060942
C86	C	1.168918	0.334384	0.120244
C87	C	1.099213	0.437851	0.116601
C88	C	1.099200	0.437863	0.450765
C89	C	1.168920	0.334398	0.550568
C90	C	1.161100	0.287131	0.657120
C91	C	1.083555	0.343345	0.663867
C92	C	1.013838	0.446814	0.564066
C93	C	0.358523	1.419520	-0.374177
C94	C	0.288803	1.523016	-0.473980
C95	C	0.296623	1.570287	-0.580532
C96	C	0.374168	1.514068	-0.587279
C97	C	0.443885	1.410581	-0.487478
C98	C	0.443906	1.410539	0.082216
C99	C	0.374200	1.514028	0.078553
C100	C	0.296649	1.570268	0.015606
C101	C	0.288805	1.523023	-0.043692
C102	C	0.358510	1.419543	-0.040035
C103	C	0.771548	0.472269	0.551334
C104	C	0.771539	0.376127	0.647480
C105	C	0.686155	0.385118	0.525224
C106	C	0.686160	0.481266	0.429079
H107	H	0.651416	0.524040	0.141066
H108	H	0.507025	0.738351	0.133466
C109	C	0.219931	1.684115	-0.690307
H110	H	0.235687	1.704230	-0.754738
H111	H	0.188395	1.655908	-0.691958
H112	H	0.188401	1.762444	-0.691954
H113	H	0.619332	0.940180	-0.380224
C114	C	0.639217	0.337151	0.157246
H115	H	0.645322	0.272370	0.149128
H116	H	0.660296	0.297427	0.235814
H117	H	0.583053	0.412090	0.125211
C118	C	0.203508	1.231204	-0.112940
H119	H	0.208832	1.300772	-0.147710
H120	H	0.174536	1.239156	-0.170184
H121	H	0.174540	1.239140	-0.063633
C122	C	1.074965	0.291329	0.781078
H123	H	1.127595	0.221646	0.839541
H124	H	1.046001	0.363378	0.788017
H125	H	1.046010	0.256840	0.787995
C126	C	1.237745	0.173324	0.064954
H127	H	1.285059	0.146592	0.110929
H128	H	1.237738	0.098316	0.096469
H129	H	1.237742	0.204856	-0.010069
H130	H	1.077121	0.304932	-0.050294
C131	C	-0.071465	1.154998	-0.074847
H132	H	-0.066146	1.224572	-0.109615
H133	H	-0.100438	1.162952	-0.132092
H134	H	-0.100429	1.162920	-0.025533
H135	H	0.950678	0.492630	-0.056908
C136	C	0.254217	0.626177	0.189532
H137	H	0.248895	0.556606	0.224320
H138	H	0.283187	0.618239	0.140233
H139	H	0.283186	0.618231	0.246780
H140	H	0.806298	0.333334	0.736388
H141	H	0.380555	0.751658	0.126810
C142	C	0.855635	0.915370	-0.556007
H143	H	0.891582	0.911612	-0.511726
H144	H	0.885458	0.836903	-0.554281
H145	H	0.830828	0.993317	-0.632488
H146	H	0.619338	0.940172	-0.554663
C147	C	0.639198	0.539097	0.308958
H148	H	0.613773	0.499369	0.314949
H149	H	0.598807	0.634118	0.266890
H150	H	0.676048	0.519462	0.270935
C151	C	0.529172	1.348740	-0.494917
H152	H	0.523836	1.391711	-0.572671
H153	H	0.558158	1.361434	-0.458337
H154	H	0.558132	1.254919	-0.458351
H155	H	1.232069	0.288581	0.171492
C156	C	0.818510	0.520205	0.565692
H157	H	0.812407	0.584987	0.492795
H158	H	0.797430	0.559928	0.604537
H159	H	0.874674	0.445266	0.608593
H160	H	1.105612	0.476293	0.164898
C161	C	1.107818	0.489842	0.333571
H162	H	1.163986	0.441549	0.343861
H163	H	1.082403	0.476751	0.292275
H164	H	1.082395	0.583296	0.292285
C165	C	1.254210	0.272539	0.543131
H166	H	1.294617	0.204147	0.617824
H167	H	1.260301	0.234390	0.503506
H168	H	1.260334	0.340917	0.503487
C169	C	1.237792	0.173318	0.766895
H170	H	1.222036	0.153218	0.831326
H171	H	1.269331	0.094991	0.768549
H172	H	1.269318	0.201549	0.768539
C173	C	0.928551	0.508613	0.571505
H174	H	0.933887	0.465626	0.649259
H175	H	0.899566	0.602435	0.534929
H176	H	0.899589	0.495872	0.534935
H177	H	0.352141	1.381039	-0.287426
C178	C	0.107822	0.641571	0.181838
H179	H	0.055198	0.663967	0.170647
H180	H	0.136789	0.590136	0.154290
H181	H	0.136782	0.590151	0.260825
H182	H	0.225670	1.568773	-0.468464
H183	H	0.806304	0.507771	-0.064479
C184	C	0.382758	1.566066	-0.704490
H185	H	0.330128	1.635737	-0.762953
H186	H	0.411724	1.600536	-0.711424
H187	H	0.411712	1.493996	-0.711412
C188	C	0.074928	1.139602	-0.067157
H189	H	0.018760	1.215635	-0.105184
H190	H	0.100344	1.141833	-0.015004
H191	H	0.100350	1.141821	-0.121541
C192	C	0.219981	1.684089	0.011596
H193	H	0.235767	1.704153	0.055935
H194	H	0.188440	1.762431	-0.065068
H195	H	0.188444	1.655885	0.041477
H196	H	0.507045	1.364756	0.133482
H197	H	0.380602	1.552476	0.126846
C198	C	0.818508	0.318297	-0.080631
H199	H	0.812404	0.254775	-0.072504
H200	H	0.797430	0.389529	-0.159200
H201	H	0.874672	0.274884	-0.048596
H202	H	0.225654	1.568830	-0.094943
C203	C	0.349870	1.367573	-0.105243
H204	H	0.293699	1.415885	-0.143241
H205	H	0.375286	1.380647	-0.159631
H206	H	0.375281	1.274124	-0.053077
H207	H	0.651390	0.349632	0.514604
H208	H	0.352137	1.181925	-0.088287
H209	H	0.838387	0.917196	-0.368752
