data_functionalizedCrystal
_audit_creation_method	'MofGen! by Chris Wilmer'
_symmetry_space_group_name_H-M	'P1'
_symmetry_Int_Tables_number	1
_symmetry_cell_setting	triclinic
loop_
_symmetry_equiv_pos_as_xyz
  x,y,z
_cell_length_a	14.044191
_cell_length_b	14.044190
_cell_length_c	16.176319
_cell_angle_alpha	89.988653
_cell_angle_beta	89.995217
_cell_angle_gamma	93.191777
loop_
_atom_site_label
_atom_site_type_symbol
_atom_site_fract_x
_atom_site_fract_y
_atom_site_fract_z
O1	O	1.277182	0.230203	-0.068724
O2	O	1.000510	0.221891	-0.068734
O3	O	1.134690	0.087711	-0.068713
O4	O	1.143002	0.364383	-0.068745
O5	O	1.134669	0.087700	0.068781
O6	O	1.000489	0.221880	0.068760
O7	O	1.277161	0.230192	0.068769
Cu8	Cu	1.138823	0.226035	0.081319
Cu9	Cu	1.138848	0.226048	-0.081283
O10	O	1.142981	0.364372	0.068748
C11	C	0.964877	0.218249	0.000012
C12	C	0.858734	0.207401	0.000009
C13	C	1.131043	0.052083	0.000036
C14	C	1.120195	-0.054060	0.000043
C15	C	0.613277	0.264502	0.000011
C16	C	0.664400	0.187585	0.000018
C17	C	0.772537	0.198614	0.000013
C18	C	0.505130	0.253475	0.000016
C19	C	1.177296	-0.299517	0.000013
C20	C	1.100379	-0.248394	0.000016
C21	C	1.111408	-0.140257	0.000031
C22	C	1.166269	-0.407664	-0.000002
C23	C	1.312794	0.233834	0.000022
C24	C	1.418937	0.244682	0.000020
C25	C	1.146628	0.400000	-0.000002
C26	C	1.157476	0.506143	-0.000015
N27	N	1.138813	0.226026	0.195684
N28	N	1.138865	0.226050	-0.195648
C29	C	1.198249	0.166639	0.238957
C30	C	1.198254	0.166638	0.325505
C31	C	1.138826	0.226030	0.368777
C32	C	1.079383	0.285419	0.325497
C33	C	1.079374	0.285414	0.238951
C34	C	1.079417	0.285440	0.674525
C35	C	1.079433	0.285443	0.761077
C36	C	1.198297	0.166664	0.761078
C37	C	1.198288	0.166659	0.674533
C38	C	1.138842	0.226044	0.631261
C39	C	1.138836	0.226043	0.537417
C40	C	1.138836	0.226037	0.462619
H41	H	0.626955	0.113453	-0.000031
H42	H	0.650720	0.338629	-0.000001
H43	H	1.026247	-0.285839	0.000008
H44	H	1.031016	0.333795	0.639300
C45	C	1.277440	-0.248932	0.000037
N46	N	1.352867	-0.210821	0.000062
H47	H	1.246646	0.118280	0.203731
C48	C	1.263614	0.101284	0.373101
N49	N	1.312837	0.052046	0.408951
C50	C	1.013997	0.350753	0.191351
N51	N	0.964754	0.399968	0.155500
C52	C	1.263661	0.101322	0.626938
N53	N	1.312897	0.052104	0.591092
C54	C	1.263682	0.101330	0.808685
N55	N	1.312928	0.052122	0.844541
H56	H	1.031036	0.333808	0.796307
C57	C	1.014002	0.350741	0.373099
N58	N	0.964755	0.399943	0.408953
