data_functionalizedCrystal
_audit_creation_method	'MofGen! by Chris Wilmer'
_symmetry_space_group_name_H-M	'P1'
_symmetry_Int_Tables_number	1
_symmetry_cell_setting	triclinic
loop_
_symmetry_equiv_pos_as_xyz
  x,y,z
_cell_length_a	14.971482
_cell_length_b	10.654550
_cell_length_c	9.730223
_cell_angle_alpha	89.995747
_cell_angle_beta	89.997266
_cell_angle_gamma	84.048769
loop_
_atom_site_label
_atom_site_type_symbol
_atom_site_fract_x
_atom_site_fract_y
_atom_site_fract_z
O1	O	1.187836	0.163634	-0.114272
O2	O	0.927542	0.183237	-0.114278
O3	O	1.063673	-0.009368	-0.114266
O4	O	1.051704	0.356239	-0.114284
O5	O	1.063665	-0.009373	0.114314
O6	O	0.927533	0.183232	0.114302
O7	O	1.187827	0.163628	0.114308
Zn8	Zn	1.057678	0.173429	0.150597
Zn9	Zn	1.057690	0.173436	-0.150567
O10	O	1.051695	0.356234	0.114296
C11	C	1.062790	-0.056159	0.000023
C12	C	1.060161	-0.195574	0.000021
C13	C	0.894208	0.182359	0.000011
C14	C	0.794896	0.179734	0.000008
C15	C	1.140313	-0.275921	0.000022
C16	C	1.137837	-0.406916	0.000006
C17	C	0.975050	-0.377203	-0.000009
C18	C	0.977526	-0.246211	-0.000002
C19	C	0.748240	0.178495	0.124609
C20	C	0.654928	0.176009	0.124611
C21	C	0.608273	0.174770	0.000010
C22	C	0.654936	0.176006	-0.124600
C23	C	0.748247	0.178483	-0.124600
C24	C	0.460446	0.170846	-0.124591
C25	C	0.367128	0.168371	-0.124591
C26	C	0.367127	0.168371	0.124620
C27	C	0.460438	0.170848	0.124620
C28	C	0.507094	0.172086	0.000009
C29	C	1.221161	0.164507	0.000016
C30	C	1.320472	0.167132	0.000009
C31	C	1.052578	0.403025	0.000004
C32	C	1.055208	0.542440	-0.000003
N33	N	1.057677	0.173424	0.356133
N34	N	1.057699	0.173432	-0.356103
C35	C	1.117977	0.088174	0.428065
C36	C	1.117986	0.088174	0.571948
C37	C	0.997392	0.258685	0.571955
C38	C	0.997380	0.258678	0.428075
H39	H	1.207599	-0.234698	0.000038
N40	N	0.604603	0.174667	0.258998
H41	H	0.648389	0.174944	0.337931
H42	H	0.559547	0.251883	0.264838
N43	N	0.604614	0.174659	-0.258986
H44	H	0.559128	0.251422	-0.264547
H45	H	0.648389	0.175769	-0.337847
H46	H	0.907772	-0.418448	-0.000024
N47	N	0.891067	-0.159552	0.000007
H48	H	0.888464	-0.104550	0.084745
H49	H	0.888520	-0.104614	-0.084781
H50	H	0.948301	0.328099	0.630544
N51	N	1.224286	-0.493577	0.000006
H52	H	1.277006	-0.441617	0.000022
H53	H	1.226797	-0.548584	0.084740
H54	H	0.498421	0.171864	0.226080
N55	N	1.182996	-0.003778	0.350450
H56	H	1.246570	0.010825	0.375463
H57	H	1.172067	-0.092893	0.375532
N58	N	0.798557	0.179843	0.259001
H59	H	0.754837	0.178679	0.337934
H60	H	0.844046	0.103081	0.264436
H61	H	0.948272	0.328099	0.369505
N62	N	1.183036	-0.003756	0.649532
H63	H	1.221233	-0.057755	0.582120
H64	H	1.222869	0.044441	0.709201
H65	H	0.329135	0.167364	0.226082
H66	H	0.329144	0.167363	-0.226052
H67	H	0.786233	0.179494	-0.226063
H68	H	0.498431	0.171854	-0.226062
