data_functionalizedCrystal
_audit_creation_method	'MofGen! by Chris Wilmer'
_symmetry_space_group_name_H-M	'P1'
_symmetry_Int_Tables_number	1
_symmetry_cell_setting	triclinic
loop_
_symmetry_equiv_pos_as_xyz
  x,y,z
_cell_length_a	10.489741
_cell_length_b	10.489716
_cell_length_c	7.540329
_cell_angle_alpha	90.000441
_cell_angle_beta	89.999730
_cell_angle_gamma	84.534155
loop_
_atom_site_label
_atom_site_type_symbol
_atom_site_fract_x
_atom_site_fract_y
_atom_site_fract_z
O1	O	1.694035	0.179968	-0.147355
O2	O	1.322838	0.196861	-0.147381
O3	O	1.516899	0.002815	-0.147374
O4	O	1.499974	0.374014	-0.147363
O5	O	1.516888	0.002812	0.147591
O6	O	1.322826	0.196859	0.147584
O7	O	1.694024	0.179966	0.147610
Cu8	Cu	1.508424	0.188412	0.174529
Cu9	Cu	1.508438	0.188415	-0.174301
O10	O	1.499962	0.374012	0.147603
C11	C	1.275301	0.195584	0.000098
C12	C	1.133672	0.191767	0.000087
C13	C	1.065542	0.068301	0.000100
C14	C	0.973416	0.126626	-0.145328
C15	C	0.973439	0.126653	0.145485
C16	C	1.043411	0.250143	-0.145461
C17	C	1.043443	0.250153	0.145482
C18	C	0.951344	0.308568	0.000019
C19	C	1.515622	-0.044719	0.000103
C20	C	1.511817	-0.186350	0.000087
C21	C	1.630822	-0.284024	0.000111
C22	C	1.567943	-0.361383	-0.145322
C23	C	1.567904	-0.361349	0.145490
C24	C	1.448988	-0.261844	-0.145466
C25	C	1.448966	-0.261805	0.145477
C26	C	1.386000	-0.339115	0.000008
C27	C	1.741561	0.181243	0.000127
C28	C	1.883190	0.185060	0.000126
C29	C	1.501240	0.421545	0.000122
C30	C	1.505044	0.563176	0.000126
N31	N	1.508424	0.188409	0.419878
N32	N	1.508448	0.188407	-0.419649
H33	H	0.942411	0.074386	-0.268282
H34	H	1.074239	0.302344	-0.268547
C35	C	1.770661	-0.250681	-0.000076
N36	N	1.875986	-0.225565	-0.000226
H37	H	0.942460	0.074388	0.268433
H38	H	0.901911	0.410172	-0.000057
H39	H	1.074479	0.302350	0.268442
H40	H	1.618184	-0.404877	-0.268270
H41	H	1.398783	-0.218539	-0.268555
H42	H	1.282408	-0.363546	-0.000077
C43	C	1.381146	-0.203022	0.311585
N44	N	1.330070	-0.158751	0.436713
H45	H	1.618161	-0.404823	0.268440
H46	H	1.115241	-0.033196	-0.000085
