data_functionalizedCrystal
_audit_creation_method	'MofGen! by Chris Wilmer'
_symmetry_space_group_name_H-M	'P1'
_symmetry_Int_Tables_number	1
_symmetry_cell_setting	triclinic
loop_
_symmetry_equiv_pos_as_xyz
  x,y,z
_cell_length_a	13.033293
_cell_length_b	15.299816
_cell_length_c	13.033109
_cell_angle_alpha	105.397713
_cell_angle_beta	74.800007
_cell_angle_gamma	88.701182
loop_
_atom_site_label
_atom_site_type_symbol
_atom_site_fract_x
_atom_site_fract_y
_atom_site_fract_z
Zn1	Zn	1.760275	-0.261340	-0.867254
Zn2	Zn	2.260275	0.238660	-0.367254
Zn3	Zn	1.768333	-0.395198	-0.720397
Zn4	Zn	2.268333	0.104802	-0.220397
Zn5	Zn	1.560083	-0.261357	-0.667061
Zn6	Zn	2.060083	0.238643	-0.167061
Zn7	Zn	1.621114	-0.429097	-0.883163
Zn8	Zn	2.121114	0.070903	-0.383163
O9	O	1.677451	-0.336748	-0.784469
O10	O	2.177451	0.163252	-0.284469
O11	O	1.906737	-0.264903	-0.863437
O12	O	2.406737	0.235097	-0.363437
O13	O	1.718538	-0.363263	-0.561422
O14	O	2.218538	0.136737	-0.061422
O15	O	1.557726	-0.135135	-0.664637
O16	O	2.057726	0.364865	-0.164637
O17	O	1.912657	-0.363247	-0.755542
O18	O	2.412657	0.136753	-0.255542
O19	O	1.704806	-0.135123	-0.811719
O20	O	2.204806	0.364877	-0.311719
O21	O	1.565539	-0.264931	-0.522236
O22	O	2.065539	0.235069	-0.022236
O23	O	1.422787	-0.297802	-0.680064
O24	O	1.922787	0.202198	-0.180064
O25	O	1.661743	-0.421024	-1.032953
O26	O	2.161743	0.078976	-0.532953
O27	O	1.467625	-0.421040	-0.838833
O28	O	1.967625	0.078960	-0.338833
O29	O	1.763985	-0.297774	-1.021265
O30	O	2.263985	0.202226	-0.521265
O31	O	1.777717	-0.525914	-0.770968
O32	O	2.277717	-0.025914	-0.270968
O33	O	1.669556	-0.550820	-0.890552
O34	O	2.169556	-0.050820	-0.390552
C35	C	1.407507	-0.363102	-0.755388
C36	C	1.907507	0.136898	-0.255388
C37	C	1.292033	-0.374401	-0.742978
C38	C	1.792033	0.125599	-0.242978
C39	C	1.237656	-0.330874	-0.790951
C40	C	1.737656	0.169126	-0.290951
C41	C	1.118307	-0.342550	-0.778126
C42	C	1.618307	0.157450	-0.278126
C43	C	1.731165	-0.571094	-0.838301
C44	C	2.231165	-0.071094	-0.338301
C45	C	1.754244	-0.671342	-0.861376
C46	C	2.254244	-0.171342	-0.361376
C47	C	1.513235	-0.954209	-0.619984
C48	C	2.013235	-0.454209	-0.119984
C49	C	1.491546	-0.860021	-0.598305
C50	C	1.991546	-0.360021	-0.098305
C51	C	1.557219	-0.812847	-0.664070
C52	C	2.057219	-0.312847	-0.164070
C53	C	1.644584	-0.859869	-0.751520
C54	C	2.144584	-0.359869	-0.251520
C55	C	1.666271	-0.954067	-0.773206
C56	C	2.166271	-0.454067	-0.273206
C57	C	1.710254	-0.812705	-0.817293
C58	C	2.210254	-0.312705	-0.317293
C59	C	1.797620	-0.859727	-0.904742
C60	C	2.297620	-0.359727	-0.404742
C61	C	1.819303	-0.953916	-0.926424
C62	C	2.319303	-0.453916	-0.426424
C63	C	1.753630	-1.001090	-0.860658
C64	C	2.253630	-0.501090	-0.360658
C65	C	1.688568	-0.718507	-0.795606
C66	C	2.188568	-0.218507	-0.295606
C67	C	1.841604	-0.718365	-0.948829
C68	C	2.341604	-0.218365	-0.448829
C69	C	1.863293	-0.812553	-0.970507
C70	C	2.363293	-0.312553	-0.470507
C71	C	1.948450	-0.310292	-0.813664
C72	C	2.448450	0.189708	-0.313664
C73	C	2.063933	-0.299017	-0.826106
C74	C	2.563933	0.200983	-0.326106
C75	C	1.718773	-0.363179	-1.067596
C76	C	2.218773	0.136821	-0.567596
C77	C	1.736382	-0.374442	-1.188248
C78	C	2.236382	0.125558	-0.688248
C79	C	1.623560	-0.101487	-0.730454
C80	C	2.123560	0.398513	-0.230454
C81	C	1.600594	-0.001232	-0.707436
C82	C	2.100594	0.498768	-0.207436
C83	C	1.668531	-0.330810	-1.222650
C84	C	2.168531	0.169190	-0.722650
C85	C	1.686729	-0.342450	-1.347350
C86	C	2.186729	0.157550	-0.847350
C87	C	1.636335	-0.310349	-0.502435
C88	C	2.136335	0.189651	-0.002435
C89	C	1.618869	-0.298813	-0.381746
C90	C	2.118869	0.201187	0.118254
H91	H	1.250229	-0.420308	-0.692408
H92	H	1.750229	0.079692	-0.192408
Cl93	Cl	1.846868	-0.445427	-1.285301
Cl94	Cl	2.346868	0.054573	-0.785301
H95	H	1.596966	-0.284843	-1.159784
H96	H	2.096966	0.215157	-0.659784
Cl97	Cl	1.797220	-0.413438	-1.444400
Cl98	Cl	2.297220	0.086562	-0.944400
H99	H	1.539555	-0.736155	-0.646413
H100	H	2.039555	-0.236155	-0.146413
Cl101	Cl	1.973119	-0.871678	-1.080441
Cl102	Cl	2.473119	-0.371678	-0.580441
Cl103	Cl	1.302187	-0.259988	-0.869021
Cl104	Cl	1.802187	0.240012	-0.369021
H105	H	1.771287	-1.077785	-0.878301
H106	H	2.271287	-0.577785	-0.378301
H107	H	1.459769	-0.992628	-0.566451
H108	H	1.959769	-0.492628	-0.066451
Cl109	Cl	1.924168	-0.659068	-1.031512
Cl110	Cl	2.424168	-0.159068	-0.531512
Cl111	Cl	1.508352	-0.227854	-1.284702
Cl112	Cl	2.008352	0.272146	-0.784702
Cl113	Cl	1.929117	-1.013032	-1.036379
Cl114	Cl	2.429117	-0.513032	-0.536379
Cl115	Cl	1.128455	-0.228122	-0.904173
Cl116	Cl	1.628455	0.271878	-0.404173
H117	H	1.617434	-0.680230	-0.724405
H118	H	2.117434	-0.180230	-0.224405
Cl119	Cl	1.053777	-0.413432	-0.700041
Cl120	Cl	1.553777	0.086568	-0.200041
Cl121	Cl	1.381711	-0.800917	-0.488384
Cl122	Cl	1.881711	-0.300917	0.011616
