data_functionalizedCrystal
_audit_creation_method	'MofGen! by Chris Wilmer'
_symmetry_space_group_name_H-M	'P1'
_symmetry_Int_Tables_number	1
_symmetry_cell_setting	triclinic
loop_
_symmetry_equiv_pos_as_xyz
  x,y,z
_cell_length_a	14.908571
_cell_length_b	14.909383
_cell_length_c	14.908854
_cell_angle_alpha	90.161788
_cell_angle_beta	89.795614
_cell_angle_gamma	83.623926
loop_
_atom_site_label
_atom_site_type_symbol
_atom_site_fract_x
_atom_site_fract_y
_atom_site_fract_z
Zn1	Zn	1.367132	-0.402785	-0.612125
Zn2	Zn	1.867132	0.097215	-0.112125
Zn3	Zn	1.384372	-0.562757	-0.471503
Zn4	Zn	1.884372	-0.062757	0.028497
Zn5	Zn	1.225498	-0.403809	-0.453181
Zn6	Zn	1.725498	0.096191	0.046819
Zn7	Zn	1.224462	-0.545345	-0.612098
Zn8	Zn	1.724462	-0.045345	-0.112098
O9	O	1.300366	-0.478674	-0.537227
O10	O	1.800366	0.021326	-0.037227
O11	O	1.495617	-0.430865	-0.601150
O12	O	1.995617	0.069135	-0.101150
O13	O	1.370946	-0.549388	-0.343715
O14	O	1.870946	-0.049388	0.156285
O15	O	1.237504	-0.277490	-0.466608
O16	O	1.737504	0.222510	0.033392
O17	O	1.508283	-0.548396	-0.497836
O18	O	2.008283	-0.048396	0.002164
O19	O	1.341563	-0.276739	-0.583384
O20	O	1.841563	0.223261	-0.083384
O21	O	1.254221	-0.432609	-0.330254
O22	O	1.754221	0.067391	0.169746
O23	O	1.099162	-0.415725	-0.466582
O24	O	1.599162	0.084275	0.033418
O25	O	1.235739	-0.518718	-0.737459
O26	O	1.735739	-0.018718	-0.237459
O27	O	1.098401	-0.519711	-0.583338
O28	O	1.598401	-0.019711	-0.083338
O29	O	1.340558	-0.413981	-0.737479
O30	O	1.840558	0.086019	-0.237479
O31	O	1.369941	-0.686630	-0.497810
O32	O	1.869941	-0.186630	0.002190
O33	O	1.252456	-0.673837	-0.601104
O34	O	1.752456	-0.173837	-0.101104
C35	C	1.066060	-0.465940	-0.522970
C36	C	1.566060	0.034060	-0.022970
C37	C	0.965823	-0.460512	-0.516893
C38	C	1.465823	0.039488	-0.016893
C39	C	0.776742	-0.558783	-0.626909
C40	C	1.276742	-0.058783	-0.126909
C41	C	0.682560	-0.553686	-0.621203
C42	C	1.182560	-0.053686	-0.121203
C43	C	0.683275	-0.445218	-0.499779
C44	C	1.183275	0.054782	0.000221
C45	C	0.777457	-0.450315	-0.505486
C46	C	1.277457	0.049685	-0.005486
C47	C	0.824187	-0.507100	-0.569052
C48	C	1.324187	-0.007100	-0.069052
C49	C	0.918371	-0.512201	-0.574753
C50	C	1.418371	-0.012201	-0.074753
C51	C	0.919084	-0.403728	-0.453334
C52	C	1.419084	0.096272	0.046666
C53	C	0.824903	-0.398632	-0.447628
C54	C	1.324903	0.101368	0.052372
C55	C	1.312980	-0.712951	-0.551464
C56	C	1.812980	-0.212951	-0.051464
C57	C	1.318457	-0.813178	-0.557589
C58	C	1.818457	-0.313178	-0.057589
C59	C	1.220505	-1.002465	-0.447403
C60	C	1.720505	-0.502465	0.052597
C61	C	1.225649	-1.096637	-0.453156
C62	C	1.725649	-0.596637	0.046844
C63	C	1.333892	-1.095698	-0.574842
C64	C	1.833892	-0.595698	-0.074842
C65	C	1.328749	-1.001526	-0.569089
C66	C	1.828749	-0.501526	-0.069089
C67	C	1.272052	-0.954912	-0.505369
C68	C	1.772052	-0.454912	-0.005369
C69	C	1.266904	-0.860737	-0.499621
C70	C	1.766904	-0.360737	0.000379
C71	C	1.375152	-0.859801	-0.621302
C72	C	1.875152	-0.359801	-0.121302
C73	C	1.380296	-0.953973	-0.627055
C74	C	1.880296	-0.453973	-0.127055
C75	C	1.535587	-0.491458	-0.551540
C76	C	2.035587	0.008542	-0.051540
C77	C	1.635824	-0.496906	-0.557639
C78	C	2.135824	0.003094	-0.057639
C79	C	1.286110	-0.464293	-0.770882
C80	C	1.786110	0.035707	-0.270882
C81	C	1.280035	-0.458165	-0.870452
C82	C	1.780035	0.041835	-0.370452
C83	C	1.287726	-0.243482	-0.522955
C84	C	1.787726	0.256518	-0.022955
C85	C	1.282339	-0.143257	-0.516874
C86	C	1.782339	0.356743	-0.016874
C87	C	1.390185	-0.568249	-1.071574
C88	C	1.890185	-0.068249	-0.571574
C89	C	1.384480	-0.562494	-1.165130
C90	C	1.884480	-0.062494	-0.665130
C91	C	1.262925	-0.440896	-1.151119
C92	C	1.762925	0.059104	-0.651119
C93	C	1.268630	-0.446651	-1.057564
C94	C	1.768630	0.053349	-0.557564
C95	C	1.332261	-0.510331	-1.017795
C96	C	1.832261	-0.010331	-0.517795
C97	C	1.337961	-0.516089	-0.924238
C98	C	1.837961	-0.016089	-0.424238
C99	C	1.216411	-0.394487	-0.910229
C100	C	1.716411	0.105513	-0.410229
C101	C	1.210706	-0.388732	-1.003785
C102	C	1.710706	0.111268	-0.503785
C103	C	1.314615	-0.492937	-0.304480
C104	C	1.814615	0.007063	0.195520
C105	C	1.320851	-0.498820	-0.204905
C106	C	1.820851	0.001180	0.295095
H107	H	0.814791	-0.605025	-0.678663
H108	H	1.314791	-0.105025	-0.178663
F109	F	0.632068	-0.608692	-0.682784
F110	F	1.132068	-0.108692	-0.182784
F111	F	0.633526	-0.384775	-0.432144
F112	F	1.133526	0.115225	0.067856
H113	H	1.183674	-1.135351	-0.405953
H114	H	1.683674	-0.635351	0.094047
F115	F	0.775159	-0.338196	-0.379984
F116	F	1.275159	0.161804	0.120016
H117	H	0.957725	-0.361646	-0.406221
H118	H	1.457725	0.138354	0.093779
H119	H	1.220737	-0.822785	-0.447739
H120	H	1.720737	-0.322785	0.052261
H121	H	0.956418	-0.558440	-0.626510
H122	H	1.456418	-0.058440	-0.126510
F123	F	1.457896	-0.636030	-1.029247
F124	F	1.957896	-0.136030	-0.529247
H125	H	1.431649	-0.609656	-1.208914
H126	H	1.931649	-0.109656	-0.708914
H127	H	1.174334	-0.964511	-0.395525
H128	H	1.674334	-0.464511	0.104475
F129	F	1.394235	-1.145324	-0.642646
F130	F	1.894235	-0.645324	-0.142646
H131	H	1.158901	-0.336884	-1.036177
H132	H	1.658901	0.163116	-0.536177
F133	F	1.154738	-0.332864	-0.852987
F134	F	1.654738	0.167136	-0.352987
F135	F	1.440635	-1.003593	-0.694865
F136	F	1.940635	-0.503593	-0.194865
F137	F	1.430016	-0.809185	-0.682997
F138	F	1.930016	-0.309185	-0.182997
F139	F	1.405680	-0.583865	-0.881915
F140	F	1.905680	-0.083865	-0.381915
F141	F	1.195217	-0.373121	-1.193459
F142	F	1.695217	0.126879	-0.693459
