data_functionalizedCrystal
_audit_creation_method	'MofGen! by Chris Wilmer'
_symmetry_space_group_name_H-M	'P1'
_symmetry_Int_Tables_number	1
_symmetry_cell_setting	triclinic
loop_
_symmetry_equiv_pos_as_xyz
  x,y,z
_cell_length_a	29.839133
_cell_length_b	21.395362
_cell_length_c	21.395355
_cell_angle_alpha	89.956060
_cell_angle_beta	89.990124
_cell_angle_gamma	90.045483
loop_
_atom_site_label
_atom_site_type_symbol
_atom_site_fract_x
_atom_site_fract_y
_atom_site_fract_z
Zn1	Zn	-0.178715	0.957864	-0.354623
Zn2	Zn	-0.253830	0.957769	-0.249861
Zn3	Zn	-0.178736	0.853079	-0.249824
Zn4	Zn	-0.253839	0.853050	-0.354566
O5	O	-0.216280	0.905441	-0.302219
O6	O	-0.188667	1.045530	-0.340766
O7	O	-0.243874	0.943854	-0.162179
O8	O	-0.115866	0.867031	-0.263735
O9	O	-0.243853	1.045459	-0.263798
O10	O	-0.115851	0.944016	-0.340730
O11	O	-0.188702	0.866939	-0.162151
O12	O	-0.188711	0.765398	-0.263679
O13	O	-0.243869	0.866982	-0.442252
O14	O	-0.243889	0.765376	-0.340633
O15	O	-0.188675	0.943988	-0.442294
O16	O	-0.316699	0.943826	-0.263742
O17	O	-0.316705	0.866890	-0.340669
C18	C	-0.216304	0.742653	-0.302146
C19	C	-0.216325	0.673012	-0.302130
C20	C	-0.245094	0.640304	-0.342140
C21	C	-0.245083	0.574869	-0.342167
C22	C	-0.216308	0.542143	-0.302175
C23	C	-0.187533	0.574859	-0.262162
C24	C	-0.187541	0.640293	-0.262140
C25	C	-0.212688	0.438419	-0.245769
C26	C	-0.212683	0.372986	-0.245790
C27	C	-0.216278	0.340323	-0.302244
C28	C	-0.219889	0.373101	-0.358678
C29	C	-0.219897	0.438535	-0.358656
C30	C	-0.216295	0.471191	-0.302195
C31	C	-0.245037	0.236663	-0.342287
C32	C	-0.245023	0.171226	-0.342316
C33	C	-0.187475	0.171218	-0.262305
C34	C	-0.187487	0.236653	-0.262282
C35	C	-0.216270	0.269372	-0.302272
C36	C	-0.333003	0.905361	-0.302217
C37	C	-0.382937	0.905384	-0.302237
C38	C	-0.739481	0.945550	-0.342356
C39	C	-0.551808	0.945491	-0.342355
O40	O	-0.527507	0.979560	-0.376457
N41	N	-0.528382	0.905434	-0.302236
C42	C	-0.551877	0.865392	-0.262110
O43	O	-0.527646	0.831325	-0.227982
C44	C	-0.739550	0.865455	-0.262109
C45	C	-0.762973	0.905510	-0.302235
C46	C	-0.762905	0.985602	-0.382479
C47	C	-0.809820	0.985614	-0.382481
C48	C	-0.833312	0.945574	-0.342361
C49	C	-0.809889	0.905522	-0.302238
C50	C	-0.763044	0.825417	-0.221981
C51	C	-0.809965	0.825437	-0.221983
C52	C	-0.833388	0.865492	-0.262109
C53	C	-0.880296	0.865494	-0.262119
N54	N	-0.903722	0.905551	-0.302239
C55	C	-0.880230	0.945591	-0.342359
C56	C	-0.453347	0.865361	-0.262115
C57	C	-0.406429	0.865344	-0.262116
C58	C	-0.406363	0.945444	-0.342361
C59	C	-0.453282	0.945457	-0.342362
C60	C	-0.476773	0.905418	-0.302235
C61	C	-0.978756	0.945612	-0.342361
C62	C	-1.025675	0.945619	-0.342362
C63	C	-1.025737	0.865522	-0.262116
C64	C	-0.978822	0.865513	-0.262117
C65	C	-0.955332	0.905563	-0.302242
O66	O	-0.904626	0.831448	-0.228031
O67	O	-0.904470	0.979663	-0.376473
C68	C	-0.692566	0.945538	-0.342354
C69	C	-0.669142	0.905486	-0.302231
C70	C	-0.692634	0.865446	-0.262110
C71	C	-0.622224	0.905469	-0.302232
C72	C	-0.598733	0.945509	-0.342353
C73	C	-0.622159	0.985566	-0.382473
C74	C	-0.669074	0.985578	-0.382475
C75	C	-0.669208	0.825389	-0.221990
C76	C	-0.622293	0.825380	-0.221992
C77	C	-0.598801	0.865420	-0.262113
C78	C	-0.099102	0.905538	-0.302234
C79	C	-0.049167	0.905579	-0.302241
C80	C	-0.216271	0.905493	-0.465642
C81	C	-0.216267	0.905515	-0.535283
C82	C	-0.216257	1.068864	-0.302292
C83	C	-0.216247	1.138505	-0.302323
C84	C	-0.187527	0.945610	-0.568019
C85	C	-0.187507	0.945610	-0.633455
C86	C	-0.216237	0.905520	-0.666152
C87	C	-0.244979	0.865417	-0.633408
C88	C	-0.244994	0.865414	-0.567974
C89	C	-0.256689	0.900545	-0.769824
C90	C	-0.256674	0.900552	-0.835257
C91	C	-0.216189	0.905524	-0.867973
C92	C	-0.175717	0.910502	-0.835247
C93	C	-0.175733	0.910499	-0.769813
C94	C	-0.216223	0.905518	-0.737104
C95	C	-0.187425	0.945620	-0.971661
C96	C	-0.187405	0.945615	-1.037098
C97	C	-0.244881	0.865425	-1.037050
C98	C	-0.244897	0.865427	-0.971614
C99	C	-0.216170	0.905528	-0.938924
C100	C	-0.216257	0.905425	-0.139431
C101	C	-0.216134	0.905524	-0.069790
H102	H	-0.268450	0.144596	-0.374900
H103	H	-1.044873	0.832921	-0.229452
C104	C	-0.380668	0.821270	-0.217985
N105	N	-0.361267	0.788072	-0.184743
C106	C	-0.276579	0.821315	-0.669376
N107	N	-0.300380	0.788094	-0.696467
H108	H	-0.688330	0.792784	-0.189318
C109	C	-0.276735	0.538883	-0.386181
N110	N	-0.300575	0.511780	-0.419331
H111	H	-0.688141	1.018194	-0.415151
H112	H	-0.959750	0.832890	-0.229449
H113	H	-0.289648	0.896329	-0.743193
H114	H	-0.829089	0.792833	-0.189305
H115	H	-0.268398	0.832761	-0.541321
H116	H	-0.164031	0.978269	-0.945043
C117	C	-0.155821	0.135224	-0.218313
N118	N	-0.131977	0.108110	-0.185177
C119	C	-0.131214	0.915967	-0.733817
N120	N	-0.097682	0.920081	-0.706706
C121	C	-1.051439	0.989688	-0.386502
N122	N	-1.070842	1.022883	-0.419746
H123	H	-0.603024	1.018166	-0.415143
H124	H	-0.222835	0.465220	-0.404607
C125	C	-0.276756	0.676291	-0.386132
N126	N	-0.300603	0.703397	-0.419268
H127	H	-0.222815	0.346508	-0.404648
C128	C	-0.155786	0.989725	-1.073107
N129	N	-0.131970	1.022949	-1.100230
C130	C	-0.276484	0.821326	-1.073013
N131	N	-0.300288	0.788110	-1.100103
C132	C	-0.276694	0.272655	-0.386284
N133	N	-0.300538	0.299763	-0.419424
H134	H	-0.268303	0.832781	-0.944961
H135	H	-0.603224	0.792757	-0.189317
C136	C	-0.301193	0.895075	-0.871249
N137	N	-0.334727	0.890949	-0.898357
H138	H	-0.959636	0.978226	-0.375034
H139	H	-0.164101	0.978259	-0.660114
C140	C	-0.479181	0.821307	-0.217974
N141	N	-0.498637	0.788123	-0.184729
C142	C	-0.155842	0.272633	-0.218262
N143	N	-0.132005	0.299733	-0.185104
C144	C	-0.155894	0.676273	-0.218121
N145	N	-0.132057	0.703374	-0.184963
H146	H	-0.164134	0.978263	-0.541407
C147	C	-0.208708	0.336936	-0.183712
N148	N	-0.205712	0.309785	-0.136953
C149	C	-0.208735	0.474341	-0.183660
N150	N	-0.205758	0.501397	-0.136882
H151	H	-0.164102	0.548210	-0.229601
H152	H	-0.142751	0.914551	-0.861883
H153	H	-0.828888	1.018235	-0.415152
H154	H	-0.743782	1.018210	-0.415150
H155	H	-0.472350	0.978070	-0.375040
C156	C	-0.380513	0.989492	-0.386490
N157	N	-0.361041	1.022671	-0.419723
H158	H	-0.743979	0.792801	-0.189306
