data_functionalizedCrystal
_audit_creation_method	'MofGen! by Chris Wilmer'
_symmetry_space_group_name_H-M	'P1'
_symmetry_Int_Tables_number	1
_symmetry_cell_setting	triclinic
loop_
_symmetry_equiv_pos_as_xyz
  x,y,z
_cell_length_a	16.625546
_cell_length_b	19.077142
_cell_length_c	19.076919
_cell_angle_alpha	90.074357
_cell_angle_beta	87.730083
_cell_angle_gamma	92.282081
loop_
_atom_site_label
_atom_site_type_symbol
_atom_site_fract_x
_atom_site_fract_y
_atom_site_fract_z
Zn1	Zn	-0.390096	-1.058281	0.440442
Zn2	Zn	-0.519739	-1.062925	0.322932
Zn3	Zn	-0.379293	-0.945499	0.318232
Zn4	Zn	-0.519251	-0.940747	0.435680
O5	O	-0.452095	-1.001863	0.379321
O6	O	-0.412019	-1.157229	0.428814
O7	O	-0.496792	-1.051280	0.223977
O8	O	-0.267897	-0.960505	0.334469
O9	O	-0.507268	-1.160641	0.342479
O10	O	-0.275834	-1.043365	0.424256
O11	O	-0.393606	-0.965008	0.220524
O12	O	-0.393133	-0.846537	0.329852
O13	O	-0.506435	-0.952406	0.534643
O14	O	-0.495959	-0.843046	0.416141
O15	O	-0.411546	-1.038758	0.538141
O16	O	-0.632504	-1.046673	0.337862
O17	O	-0.632145	-0.956909	0.420698
C18	C	-0.443321	-0.819295	0.371970
C19	C	-0.439588	-0.741191	0.368842
C20	C	-0.661581	-1.001798	0.379289
C21	C	-0.751205	-1.001833	0.379302
C22	C	-0.491445	-0.702701	0.412227
C23	C	-0.487927	-0.629313	0.409291
C24	C	-0.432555	-0.594417	0.362966
C25	C	-0.380693	-0.632913	0.319578
C26	C	-0.384207	-0.706298	0.322518
C27	C	-0.416291	-0.375130	0.349366
C28	C	-0.412781	-0.301739	0.346428
C29	C	-0.520015	-0.298145	0.436142
C30	C	-0.523528	-0.371532	0.439075
C31	C	-0.471663	-0.410021	0.395691
N32	N	-0.428960	-0.519404	0.359962
N33	N	-0.475255	-0.485033	0.398698
C34	C	-1.079389	-1.001953	0.379380
C35	C	-0.988078	-1.001917	0.379360
C36	C	-0.915300	-1.001892	0.379340
C37	C	-0.823983	-1.001858	0.379321
C38	C	-0.241792	-1.001947	0.379370
C39	C	-0.152173	-1.001983	0.379390
C40	C	-0.460141	-0.994534	0.562601
C41	C	-0.463570	-0.991411	0.640704
C42	C	-0.460899	-0.185145	0.386693
C43	C	-0.464638	-0.263249	0.389814
C44	C	-0.444024	-1.009204	0.196756
C45	C	-0.440374	-1.012464	0.118659
C46	C	-0.415779	-1.034900	0.679219
C47	C	-0.418997	-1.031957	0.752605
C48	C	-0.470011	-0.985527	0.787474
C49	C	-0.517804	-0.942033	0.748953
C50	C	-0.514581	-0.944973	0.675569
C51	C	-0.484944	-0.971910	1.006754
C52	C	-0.488165	-0.968974	1.080144
C53	C	-0.389357	-1.058897	1.083791
C54	C	-0.386142	-1.061836	1.010405
C55	C	-0.433932	-1.018340	0.971890
N56	N	-0.473304	-0.982519	0.862486
N57	N	-0.430634	-1.021344	0.896880
H58	H	-0.530156	-0.597978	0.444620
H59	H	-0.350449	-1.094308	1.115157
C60	C	-0.359245	-0.417454	0.301632
C61	C	-0.299739	-0.466704	0.334185
C62	C	-0.242692	-0.509028	0.286443
C63	C	-0.245150	-0.502101	0.206148
C64	C	-0.304659	-0.452848	0.173591
C65	C	-0.361706	-0.410524	0.221333
H66	H	-0.297917	-0.471834	0.393628
H67	H	-0.198640	-0.545488	0.310545
H68	H	-0.202920	-0.533431	0.170807
H69	H	-0.306481	-0.447718	0.114148
H70	H	-0.405758	-0.374064	0.197231
H71	H	-0.380083	-1.067372	0.783961
C72	C	-0.327164	-0.748642	0.274795
C73	C	-0.235289	-0.738342	0.280273
C74	C	-0.178240	-0.780685	0.232552
C75	C	-0.213066	-0.833328	0.179353
C76	C	-0.304946	-0.843630	0.173872
C77	C	-0.361995	-0.801287	0.221593
H78	H	-0.209504	-0.699371	0.319657
H79	H	-0.110224	-0.773059	0.236609
H80	H	-0.170835	-0.864673	0.144027
H81	H	-0.330730	-0.882602	0.134489
H82	H	-0.430010	-0.808913	0.217536
C83	C	-0.330025	-1.112909	0.972051
C84	C	-0.277454	-1.160747	1.014417
C85	C	-0.221341	-1.211824	0.976063
C86	C	-0.217798	-1.215062	0.895343
C87	C	-0.270371	-1.167222	0.852972
C88	C	-0.326485	-1.116145	0.891326
H89	H	-0.280075	-1.158352	1.074174
H90	H	-0.182423	-1.247238	1.007429
H91	H	-0.176260	-1.252872	0.866951
H92	H	-0.267751	-1.169617	0.793215
H93	H	-0.365403	-1.080731	0.859961
C94	C	-0.552356	-0.741083	0.463187
C95	C	-0.643265	-0.731198	0.456907
C96	C	-0.704176	-0.769578	0.507870
C97	C	-0.674177	-0.817843	0.565113
C98	C	-0.583264	-0.827731	0.571395
C99	C	-0.522353	-0.789351	0.520432
H100	H	-0.665476	-0.695467	0.414530
H101	H	-0.771476	-0.762258	0.503218
H102	H	-0.719267	-0.846255	0.602838
H103	H	-0.561053	-0.863462	0.613772
H104	H	-0.455053	-0.796670	0.525083
C105	C	-0.359662	-1.085973	0.640866
C106	C	-0.268170	-1.079869	0.650747
C107	C	-0.212050	-1.130942	0.612396
C108	C	-0.247421	-1.188119	0.564165
C109	C	-0.338918	-1.194226	0.554282
C110	C	-0.395038	-1.143153	0.592633
H111	H	-0.241982	-1.037541	0.686453
H112	H	-0.144318	-1.126421	0.619712
H113	H	-0.205877	-1.225926	0.535775
H114	H	-0.365106	-1.236554	0.518577
H115	H	-0.462770	-1.147674	0.585317
H116	H	-0.568620	-0.399939	0.476797
C117	C	-0.577058	-0.255806	0.483870
C118	C	-0.573195	-0.175084	0.480643
C119	C	-0.630237	-0.132746	0.528375
C120	C	-0.691142	-0.171130	0.579334
C121	C	-0.695008	-0.251856	0.582563
C122	C	-0.637965	-0.294194	0.534830
H123	H	-0.528107	-0.146667	0.442919
H124	H	-0.627375	-0.072987	0.525985
H125	H	-0.733368	-0.139789	0.614669
H126	H	-0.740096	-0.280274	0.620287
H127	H	-0.640827	-0.353954	0.537221
H128	H	-0.523870	-0.936502	0.975405
C129	C	-0.351851	-0.263351	0.295482
C130	C	-0.294789	-0.305684	0.247770
C131	C	-0.233858	-0.267296	0.196832
C132	C	-0.229989	-0.186574	0.193605
C133	C	-0.287054	-0.144236	0.241318
C134	C	-0.347985	-0.182625	0.292257
H135	H	-0.297651	-0.365444	0.250157
H136	H	-0.191615	-0.298638	0.161511
H137	H	-0.184885	-0.158156	0.155897
H138	H	-0.284192	-0.084477	0.238931
H139	H	-0.390227	-0.151283	0.327577
C140	C	-0.544310	-0.917921	1.118502
C141	C	-0.596897	-0.870092	1.076141
C142	C	-0.653054	-0.819055	1.114501
C143	C	-0.656623	-0.815846	1.195222
C144	C	-0.604034	-0.863676	1.237588
C145	C	-0.547877	-0.914713	1.199228
H146	H	-0.594257	-0.872467	1.016382
H147	H	-0.691984	-0.783648	1.083138
H148	H	-0.698194	-0.778065	1.223618
H149	H	-0.606675	-0.861301	1.297346
H150	H	-0.508947	-0.950120	1.230591
H151	H	-0.553489	-0.909553	0.644210
C152	C	-0.573920	-0.890960	0.787307
C153	C	-0.577472	-0.887726	0.868027
C154	C	-0.633592	-0.836653	0.906378
C155	C	-0.686160	-0.788814	0.864010
C156	C	-0.682610	-0.792046	0.783286
C157	C	-0.626490	-0.843119	0.744934
H158	H	-0.538557	-0.923141	0.899394
H159	H	-0.636220	-0.834261	0.966136
H160	H	-0.727703	-0.751007	0.892400
H161	H	-0.721525	-0.756632	0.751918
H162	H	-0.623862	-0.845512	0.685176
H163	H	-0.335604	-0.604494	0.281862
