data_functionalizedCrystal
_audit_creation_method	'MofGen! by Chris Wilmer'
_symmetry_space_group_name_H-M	'P1'
_symmetry_Int_Tables_number	1
_symmetry_cell_setting	triclinic
loop_
_symmetry_equiv_pos_as_xyz
  x,y,z
_cell_length_a	14.519731
_cell_length_b	19.188924
_cell_length_c	12.996460
_cell_angle_alpha	89.991787
_cell_angle_beta	89.994327
_cell_angle_gamma	83.415409
loop_
_atom_site_label
_atom_site_type_symbol
_atom_site_fract_x
_atom_site_fract_y
_atom_site_fract_z
O1	O	1.223285	0.091596	-0.085574
O2	O	1.723285	0.591596	0.414426
O3	O	0.954743	0.102358	-0.085576
O4	O	1.454743	0.602358	0.414424
O5	O	1.096767	-0.004651	-0.085563
O6	O	1.596767	0.495349	0.414437
O7	O	1.081261	0.198605	-0.085587
O8	O	1.581261	0.698605	0.414413
O9	O	1.096752	-0.004657	0.085571
O10	O	1.596752	0.495343	0.585571
O11	O	0.954729	0.102352	0.085558
O12	O	1.454729	0.602352	0.585558
O13	O	1.223270	0.091590	0.085560
O14	O	1.723270	0.591590	0.585560
Cu15	Cu	1.088998	0.096970	0.101185
Cu16	Cu	1.588998	0.596970	0.601185
Cu17	Cu	1.089015	0.096977	-0.101201
Cu18	Cu	1.589015	0.596977	0.398799
O19	O	1.081246	0.198599	0.085547
O20	O	1.581246	0.698599	0.585547
C21	C	0.920380	0.101851	-0.000009
C22	C	1.420380	0.601851	0.499991
C23	C	0.818009	0.100340	-0.000010
C24	C	1.318009	0.600340	0.499990
C25	C	0.734872	0.099112	-0.000014
C26	C	1.234872	0.599112	0.499986
C27	C	0.630573	0.097578	-0.000014
C28	C	1.130573	0.597578	0.499986
C29	C	0.547442	0.096360	-0.000014
C30	C	1.047442	0.596360	0.499986
C31	C	0.443136	0.094826	-0.000016
C32	C	0.943136	0.594826	0.499984
C33	C	1.096258	-0.030667	0.000005
C34	C	1.596258	0.469333	0.500005
C35	C	1.094754	-0.108177	0.000008
C36	C	1.594754	0.391823	0.500008
C37	C	1.094060	-0.144575	-0.093277
C38	C	1.594060	0.355425	0.406723
C39	C	1.092634	-0.217403	-0.093285
C40	C	1.592634	0.282597	0.406715
C41	C	1.091920	-0.253832	-0.000003
C42	C	1.591920	0.246168	0.499997
C43	C	1.092609	-0.217424	0.093295
C44	C	1.592609	0.282576	0.593295
C45	C	1.094026	-0.144597	0.093300
C46	C	1.594026	0.355403	0.593300
N47	N	1.142169	-0.373316	0.069426
N48	N	1.642169	0.126684	0.569426
N49	N	1.140825	-0.442499	0.069415
N50	N	1.640825	0.057501	0.569415
C51	C	1.087648	-0.473256	-0.000013
C52	C	1.587648	0.026744	0.499987
N53	N	1.035879	-0.432219	-0.069444
N54	N	1.535879	0.067781	0.430556
N55	N	1.037227	-0.363029	-0.069435
N56	N	1.537227	0.136971	0.430565
C57	C	1.090383	-0.332801	0.000002
C58	C	1.590383	0.167199	0.500002
C59	C	1.085406	-0.588623	-0.093313
C60	C	1.585406	-0.088623	0.406687
C61	C	1.083974	-0.661451	-0.093317
C62	C	1.583974	-0.161451	0.406683
C63	C	1.083959	-0.661472	0.093266
C64	C	1.583959	-0.161472	0.593266
C65	C	1.085381	-0.588644	0.093268
C66	C	1.585381	-0.088644	0.593268
C67	C	1.086110	-0.552224	-0.000025
C68	C	1.586110	-0.052224	0.499975
C69	C	1.257634	0.092097	-0.000009
C70	C	1.757634	0.592097	0.499991
C71	C	1.360004	0.093608	-0.000016
C72	C	1.860004	0.593608	0.499984
C73	C	1.081755	0.224615	-0.000023
C74	C	1.581755	0.724615	0.499977
C75	C	1.083259	0.302125	-0.000033
C76	C	1.583259	0.802125	0.499967
N77	N	1.088992	0.096965	0.243532
N78	N	1.588992	0.596965	0.743532
N79	N	1.089028	0.096977	-0.243548
N80	N	1.589028	0.596977	0.256452
C81	C	1.089014	0.096978	0.663346
C82	C	1.589014	0.596978	1.163346
C83	C	1.089005	0.096977	0.546541
C84	C	1.589005	0.596977	1.046541
C85	C	1.089004	0.096972	0.453443
C86	C	1.589004	0.596972	0.953443
C87	C	1.088994	0.096970	0.336630
C88	C	1.588994	0.596970	0.836630
H89	H	1.094650	-0.114926	-0.169244
H90	H	1.594650	0.385074	0.330756
H91	H	1.094587	-0.114962	0.169267
H92	H	1.594587	0.385038	0.669267
H93	H	1.085994	-0.558968	-0.169277
H94	H	1.585994	-0.058968	0.330723
H95	H	1.092025	-0.247089	0.169246
H96	H	1.592025	0.252911	0.669246
H97	H	1.083405	-0.691085	-0.169284
H98	H	1.583405	-0.191085	0.330716
Br99	Br	1.086319	-0.539242	0.219876
Br100	Br	1.586319	-0.039242	0.719876
Br101	Br	1.091688	-0.266812	-0.219896
Br102	Br	1.591688	0.233188	0.280104
Br103	Br	1.082980	-0.710902	0.219867
Br104	Br	1.582980	-0.210902	0.719867
