data_functionalizedCrystal
_audit_creation_method	'MofGen! by Chris Wilmer'
_symmetry_space_group_name_H-M	'P1'
_symmetry_Int_Tables_number	1
_symmetry_cell_setting	triclinic
loop_
_symmetry_equiv_pos_as_xyz
  x,y,z
_cell_length_a	18.050591
_cell_length_b	12.759399
_cell_length_c	12.759393
_cell_angle_alpha	89.972549
_cell_angle_beta	90.026377
_cell_angle_gamma	89.988462
loop_
_atom_site_label
_atom_site_type_symbol
_atom_site_fract_x
_atom_site_fract_y
_atom_site_fract_z
Zn1	Zn	1.135398	0.418326	0.594263
Zn2	Zn	1.635398	0.918326	1.094263
Zn3	Zn	1.135324	0.594042	0.418593
Zn4	Zn	1.635324	1.094042	0.918593
Zn5	Zn	1.011205	0.418365	0.418574
Zn6	Zn	1.511205	0.918365	0.918574
Zn7	Zn	1.011193	0.593951	0.594206
Zn8	Zn	1.511193	1.093951	1.094206
O9	O	1.073280	0.506171	0.506409
O10	O	1.573280	1.006171	1.006409
O11	O	1.239313	0.441656	0.570991
O12	O	1.739313	0.941656	1.070991
O13	O	1.118834	0.570792	0.271569
O14	O	1.618834	1.070792	0.771569
O15	O	1.027716	0.271339	0.441895
O16	O	1.527716	0.771339	0.941895
O17	O	1.239259	0.570754	0.441927
O18	O	1.739259	1.070754	0.941927
O19	O	1.118960	0.271310	0.570973
O20	O	1.618960	0.771310	1.070973
O21	O	1.027645	0.441724	0.271555
O22	O	1.527645	0.941724	0.771555
O23	O	0.907279	0.441635	0.441840
O24	O	1.407279	0.941635	0.941840
O25	O	1.027694	0.570599	0.741234
O26	O	1.527694	1.070599	1.241234
O27	O	0.907270	0.570638	0.570876
O28	O	1.407270	1.070638	1.070876
O29	O	1.118947	0.441568	0.741276
O30	O	1.618947	0.941568	1.241276
O31	O	1.118822	0.741051	0.441872
O32	O	1.618822	1.241051	0.941872
O33	O	1.027623	0.740984	0.570894
O34	O	1.527623	1.240984	1.070894
C35	C	1.073233	0.779138	0.506402
C36	C	1.573233	1.279138	1.006402
C37	C	1.073281	0.895915	0.506434
C38	C	1.573281	1.395915	1.006434
C39	C	0.880328	0.506132	0.506351
C40	C	1.380328	1.006132	1.006351
C41	C	0.797782	0.506140	0.506351
C42	C	1.297782	1.006140	1.006351
C43	C	1.120821	0.950777	0.439330
C44	C	1.620821	1.450777	0.939330
C45	C	1.120865	1.060501	0.439368
C46	C	1.620865	1.560501	0.939368
C47	C	1.025824	1.060491	0.573619
C48	C	1.525824	1.560491	1.073619
C49	C	1.025784	0.950769	0.573585
C50	C	1.525784	1.450769	1.073585
C51	C	1.168318	0.895922	0.372179
C52	C	1.668318	1.395922	0.872179
C53	C	1.215860	0.950784	0.305068
C54	C	1.715860	1.450784	0.805068
C55	C	1.215905	1.060508	0.305107
C56	C	1.715905	1.560508	0.805107
C57	C	1.168407	1.115370	0.372256
C58	C	1.668407	1.615370	0.872256
C59	C	0.598315	0.435908	0.436342
C60	C	1.098315	0.935908	0.936342
C61	C	0.548909	0.531738	0.410499
C62	C	1.048909	1.031738	0.910499
C63	C	0.646652	0.506172	0.506398
C64	C	1.146652	1.006172	1.006398
C65	C	0.548977	0.410375	0.532239
C66	C	1.048977	0.910375	1.032239
C67	C	0.500667	0.506194	0.506442
C68	C	1.000667	1.006194	1.006442
C69	C	0.598333	0.602053	0.480504
C70	C	1.098333	1.102053	0.980504
C71	C	0.598405	0.480625	0.602290
C72	C	1.098405	0.980625	1.102290
C73	C	0.549021	0.576522	0.576482
C74	C	1.049021	1.076522	1.076482
C75	C	0.730750	0.506158	0.506370
C76	C	1.230750	1.006158	1.006370
C77	C	0.416570	0.506220	0.506470
C78	C	0.916570	1.006220	1.006470
C79	C	1.266986	0.506211	0.506468
C80	C	1.766986	1.006211	1.006468
C81	C	1.349532	0.506228	0.506493
C82	C	1.849532	1.006228	1.006493
C83	C	1.073328	0.506069	0.780442
C84	C	1.573328	1.006069	1.280442
C85	C	1.073348	0.506026	0.897219
C86	C	1.573348	1.006026	1.397219
C87	C	1.073345	1.232138	0.506452
C88	C	1.573345	1.732138	1.006452
C89	C	1.073366	1.115361	0.506507
C90	C	1.573366	1.615361	1.006507
C91	C	1.073276	0.506196	0.233441
C92	C	1.573276	1.006196	0.733441
C93	C	1.073399	0.505944	0.116665
C94	C	1.573399	1.005944	0.616665
C95	C	1.025848	0.573181	0.952061
C96	C	1.525848	1.073181	1.452061
C97	C	1.025876	0.573143	1.061785
C98	C	1.525876	1.073143	1.561785
C99	C	1.120904	0.438786	1.061816
C100	C	1.620904	0.938786	1.561816
C101	C	1.120880	0.438830	0.952093
C102	C	1.620880	0.938830	1.452093
C103	C	0.978316	0.640377	0.897186
C104	C	1.478316	1.140377	1.397186
C105	C	0.930812	0.707536	0.952029
C106	C	1.430812	1.207536	1.452029
C107	C	0.930839	0.707498	1.061753
C108	C	1.430839	1.207498	1.561753
C109	C	0.978371	0.640301	1.116635
C110	C	1.478371	1.140301	1.616635
H111	H	1.168285	0.806579	0.372137
H112	H	1.668285	1.306579	0.872137
Br113	Br	0.961269	0.876307	0.664662
Br114	Br	1.461269	1.376307	1.164662
H115	H	0.892118	0.762252	0.907336
H116	H	1.392118	1.262252	1.407336
H117	H	1.254536	0.906110	0.250403
H118	H	1.754536	1.406110	0.750403
H119	H	0.619922	0.683101	0.458576
H120	H	1.119922	1.183101	0.958576
H121	H	0.527258	0.329362	0.554041
H122	H	1.027258	0.829362	1.054041
Br123	Br	0.978270	0.640422	0.748276
Br124	Br	1.478270	1.140422	1.248276
Br125	Br	1.280434	1.134962	0.214043
Br126	Br	1.780434	1.634962	0.714043
Br127	Br	0.866381	0.798654	1.136180
Br128	Br	1.366381	1.298654	1.636180
Br129	Br	1.185405	0.347594	1.136298
Br130	Br	1.685405	0.847594	1.636298
Br131	Br	1.185350	0.347697	0.877658
Br132	Br	1.685350	0.847697	1.377658
Br133	Br	0.513169	0.675684	0.675261
Br134	Br	1.013169	1.175684	1.175261
H135	H	0.978394	0.640282	1.205980
H136	H	1.478394	1.140282	1.705980
H137	H	1.168452	1.204715	0.372291
H138	H	1.668452	1.704715	0.872291
Br139	Br	0.634668	0.444539	0.737385
Br140	Br	1.134668	0.944539	1.237385
H141	H	0.619960	0.376551	0.377034
H142	H	1.119960	0.876551	0.877034
H143	H	0.987153	1.105169	0.628288
H144	H	1.487153	1.605169	1.128288
H145	H	0.527169	0.553362	0.329424
H146	H	1.027169	1.053362	0.829424
