data_functionalizedCrystal
_audit_creation_method	'MofGen! by Chris Wilmer'
_symmetry_space_group_name_H-M	'P1'
_symmetry_Int_Tables_number	1
_symmetry_cell_setting	triclinic
loop_
_symmetry_equiv_pos_as_xyz
  x,y,z
_cell_length_a	16.625546
_cell_length_b	19.805407
_cell_length_c	19.805399
_cell_angle_alpha	90.019573
_cell_angle_beta	89.972133
_cell_angle_gamma	89.977532
loop_
_atom_site_label
_atom_site_type_symbol
_atom_site_fract_x
_atom_site_fract_y
_atom_site_fract_z
Zn1	Zn	-0.321020	-1.034754	-0.382718
Zn2	Zn	0.178980	-0.534754	0.117282
Zn3	Zn	-0.455857	-1.034677	-0.269529
Zn4	Zn	0.044143	-0.534677	0.230471
Zn5	Zn	-0.321043	-0.921569	-0.269543
Zn6	Zn	0.178957	-0.421569	0.230457
Zn7	Zn	-0.455815	-0.921540	-0.382676
Zn8	Zn	0.044185	-0.421540	0.117324
O9	O	-0.388434	-0.978135	-0.326117
O10	O	0.111566	-0.478135	0.173883
O11	O	-0.338915	-1.129461	-0.367716
O12	O	0.161085	-0.629461	0.132284
O13	O	-0.438001	-1.019652	-0.174815
O14	O	0.061999	-0.519652	0.325185
O15	O	-0.208207	-0.936628	-0.284579
O16	O	0.291793	-0.436628	0.215421
O17	O	-0.437980	-1.129404	-0.284556
O18	O	0.062020	-0.629404	0.215444
O19	O	-0.208191	-1.019784	-0.367729
O20	O	0.291809	-0.519784	0.132271
O21	O	-0.338953	-0.936553	-0.174825
O22	O	0.161047	-0.436553	0.325175
O23	O	-0.338912	-0.826848	-0.284538
O24	O	0.161088	-0.326848	0.215462
O25	O	-0.437907	-0.936579	-0.477398
O26	O	0.062093	-0.436579	0.022602
O27	O	-0.437928	-0.826827	-0.367657
O28	O	0.062072	-0.326827	0.132343
O29	O	-0.338874	-1.019756	-0.477429
O30	O	0.161126	-0.519756	0.022571
O31	O	-0.568684	-1.019625	-0.284515
O32	O	-0.068684	-0.519625	0.215485
O33	O	-0.568653	-0.936504	-0.367644
O34	O	-0.068653	-0.436504	0.132356
C35	C	-0.388418	-0.802279	-0.326095
C36	C	0.111582	-0.302279	0.173905
C37	C	-0.388431	-0.727047	-0.326102
C38	C	0.111569	-0.227047	0.173898
C39	C	-0.597925	-0.978071	-0.326088
C40	C	-0.097925	-0.478071	0.173912
C41	C	-0.687546	-0.978105	-0.326099
C42	C	-0.187546	-0.478105	0.173901
C43	C	-0.388383	-0.978173	-0.502660
C44	C	0.111617	-0.478173	-0.002660
C45	C	-0.388361	-0.978189	-0.577892
C46	C	0.111639	-0.478189	-0.077892
C47	C	-1.015721	-0.978224	-0.326169
C48	C	-0.515721	-0.478224	0.173831
C49	C	-0.924413	-0.978189	-0.326152
C50	C	-0.424413	-0.478189	0.173848
C51	C	-0.851636	-0.978164	-0.326134
C52	C	-0.351636	-0.478164	0.173866
C53	C	-0.760322	-0.978130	-0.326117
C54	C	-0.260322	-0.478130	0.173883
C55	C	-0.178125	-0.978218	-0.326160
C56	C	0.321875	-0.478218	0.173840
C57	C	-0.088504	-0.978253	-0.326178
C58	C	0.411496	-0.478253	0.173822
C59	C	-0.388450	-1.154678	-0.326139
C60	C	0.111550	-0.654678	0.173861
C61	C	-0.388457	-1.229910	-0.326149
C62	C	0.111543	-0.729910	0.173851
C63	C	-0.440067	-0.691710	-0.369311
C64	C	0.059933	-0.191710	0.130689
C65	C	-0.440068	-0.621021	-0.369321
C66	C	0.059932	-0.121021	0.130679
C67	C	-0.388437	-0.585671	-0.326117
C68	C	0.111563	-0.085671	0.173883
C69	C	-0.336796	-0.621014	-0.282905
C70	C	0.163204	-0.121014	0.217095
C71	C	-0.336791	-0.691701	-0.282899
C72	C	0.163209	-0.191701	0.217101
C73	C	-0.336814	-0.335941	-0.282927
C74	C	0.163186	0.164059	0.217073
C75	C	-0.336825	-0.265248	-0.282935
C76	C	0.163175	0.234752	0.217065
C77	C	-0.440091	-0.265261	-0.369349
C78	C	0.059909	0.234739	0.130651
C79	C	-0.440086	-0.335948	-0.369343
C80	C	0.059914	0.164052	0.130657
C81	C	-0.388442	-0.371284	-0.326134
C82	C	0.111558	0.128716	0.173866
C83	C	-0.388440	-0.447932	-0.326125
C84	C	0.111560	0.052068	0.173875
C85	C	-0.388443	-0.509024	-0.326122
C86	C	0.111557	-0.009024	0.173878
C87	C	-0.336792	-1.021501	-0.613253
C88	C	0.163208	-0.521501	-0.113253
C89	C	-0.336769	-1.021508	-0.683941
C90	C	0.163231	-0.521508	-0.183941
C91	C	-0.388319	-0.978206	-0.719267
C92	C	0.111681	-0.478206	-0.219267
C93	C	-0.439890	-0.934889	-0.683901
C94	C	0.060110	-0.434889	-0.183901
C95	C	-0.439909	-0.934880	-0.613214
C96	C	0.060091	-0.434880	-0.113214
C97	C	-0.439815	-0.934928	-0.968974
C98	C	0.060185	-0.434928	-0.468974
C99	C	-0.439794	-0.934942	-1.039667
C100	C	0.060206	-0.434942	-0.539667
C101	C	-0.336675	-1.021556	-1.039702
C102	C	0.163325	-0.521556	-0.539702
C103	C	-0.336694	-1.021546	-0.969015
C104	C	0.163306	-0.521546	-0.469015
C105	C	-0.388262	-0.978227	-0.933655
C106	C	0.111738	-0.478227	-0.433655
C107	C	-0.388285	-0.978219	-0.857006
C108	C	0.111715	-0.478219	-0.357006
C109	C	-0.388300	-0.978217	-0.795914
C110	C	0.111700	-0.478217	-0.295914
C111	C	-0.388426	-0.978136	-0.150261
C112	C	0.111574	-0.478136	0.349739
C113	C	-0.388221	-0.978251	-0.075029
C114	C	0.111779	-0.478251	0.424971
H115	H	-0.482116	-0.592253	-0.404506
H116	H	0.017884	-0.092253	0.095494
N117	N	-0.281094	-0.729819	-0.236300
N118	N	0.218906	-0.229819	0.263700
H119	H	-0.248386	-0.696700	-0.208930
H120	H	0.251614	-0.196700	0.291070
H121	H	-0.313859	-0.759128	-0.204924
H122	H	0.186141	-0.259128	0.295076
N123	N	-0.495767	-0.374078	-0.415944
N124	N	0.004233	0.125922	0.084056
H125	H	-0.533088	-0.403384	-0.388379
H126	H	-0.033088	0.096616	0.111621
H127	H	-0.528425	-0.340925	-0.443313
H128	H	-0.028425	0.159075	0.056687
H129	H	-0.294769	-0.364703	-0.247739
H130	H	0.205231	0.135297	0.252261
N131	N	-0.495794	-0.227148	-0.415956
N132	N	0.004206	0.272852	0.084044
H133	H	-0.487964	-0.177004	-0.409408
H134	H	0.012036	0.322996	0.090592
H135	H	-0.483323	-0.239530	-0.464314
H136	H	0.016677	0.260470	0.035686
N137	N	-0.281136	-0.227119	-0.236334
N138	N	0.218864	0.272881	0.263666
H139	H	-0.248417	-0.260229	-0.208961
H140	H	0.251583	0.239771	0.291039
H141	H	-0.243873	-0.197809	-0.263947
H142	H	0.256127	0.302191	0.236053
N143	N	-0.281051	-1.068278	-1.077840
N144	N	0.218949	-0.568278	-0.577840
H145	H	-0.288856	-1.061715	-1.127981
H146	H	0.211144	-0.561715	-0.627981
H147	H	-0.223468	-1.057768	-1.065492
H148	H	0.276532	-0.557768	-0.565492
H149	H	-0.294719	-1.056809	-0.940256
H150	H	0.205281	-0.556809	-0.440256
H151	H	-0.294754	-0.592226	-0.247730
H152	H	0.205246	-0.092226	0.252270
H153	H	-0.294817	-1.056764	-0.584496
H154	H	0.205183	-0.556764	-0.084496
H155	H	-0.294778	-1.056778	-0.712729
H156	H	0.205222	-0.556778	-0.212729
H157	H	-0.481774	-0.899678	-1.068427
H158	H	0.018226	-0.399678	-0.568427
H159	H	-0.482113	-0.720486	-0.404491
H160	H	0.017887	-0.220486	0.095509
N161	N	-0.495406	-0.888186	-0.930841
N162	N	0.004594	-0.388186	-0.430841
H163	H	-0.528051	-0.860752	-0.963948
H164	H	-0.028051	-0.360752	-0.463948
H165	H	-0.532741	-0.915692	-0.901495
H166	H	-0.032741	-0.415692	-0.401495
N167	N	-0.495474	-0.888169	-0.721998
N168	N	0.004526	-0.388169	-0.221998
H169	H	-0.487635	-0.894744	-0.772145
H170	H	0.012365	-0.394744	-0.272145
H171	H	-0.553069	-0.898666	-0.709637
H172	H	-0.053069	-0.398666	-0.209637
H173	H	-0.481894	-0.899604	-0.584423
H174	H	0.018106	-0.399604	-0.084423
