data_functionalizedCrystal
_audit_creation_method	'MofGen! by Chris Wilmer'
_symmetry_space_group_name_H-M	'P1'
_symmetry_Int_Tables_number	1
_symmetry_cell_setting	triclinic
loop_
_symmetry_equiv_pos_as_xyz
  x,y,z
_cell_length_a	19.077105
_cell_length_b	12.759400
_cell_length_c	19.076919
_cell_angle_alpha	87.725144
_cell_angle_beta	89.923776
_cell_angle_gamma	87.711168
loop_
_atom_site_label
_atom_site_type_symbol
_atom_site_fract_x
_atom_site_fract_y
_atom_site_fract_z
Zn1	Zn	1.058328	-0.508276	0.440436
Zn2	Zn	1.062987	-0.677203	0.322935
Zn3	Zn	0.945544	-0.494202	0.318229
Zn4	Zn	0.940808	-0.676569	0.435688
O5	O	1.001917	-0.589062	0.379322
O6	O	1.157278	-0.536840	0.428806
O7	O	1.051339	-0.647302	0.223980
O8	O	0.960537	-0.349051	0.334457
O9	O	1.160701	-0.660950	0.342479
O10	O	1.043399	-0.359391	0.424243
O11	O	0.965055	-0.512852	0.220522
O12	O	0.846583	-0.512238	0.329853
O13	O	0.952466	-0.659870	0.534649
O14	O	0.843104	-0.646223	0.416150
O15	O	1.038807	-0.536225	0.538138
O16	O	1.046747	-0.824137	0.337875
O17	O	0.956983	-0.823671	0.420714
C18	C	0.819347	-0.577635	0.371976
C19	C	0.741242	-0.572772	0.368850
C20	C	0.702758	-0.640344	0.412241
C21	C	0.629371	-0.635761	0.409307
C22	C	0.594468	-0.563612	0.362979
C23	C	0.632957	-0.496033	0.319586
C24	C	0.706344	-0.500611	0.322524
C25	C	0.375179	-0.542424	0.349385
C26	C	0.301787	-0.537853	0.346449
C27	C	0.298205	-0.677581	0.436172
C28	C	0.371593	-0.682157	0.439102
C29	C	0.410076	-0.614574	0.395712
N30	N	0.519454	-0.558928	0.359977
N31	N	0.485088	-0.619253	0.398718
C32	C	1.001876	-0.862026	0.379306
C33	C	1.001921	-0.978807	0.379325
C34	C	1.048709	-1.033882	0.336242
C35	C	1.048751	-1.143610	0.336266
C36	C	0.955212	-1.143177	0.422456
C37	C	0.955173	-1.033452	0.422436
C38	C	1.095457	-0.979237	0.293132
C39	C	1.142248	-1.034313	0.250045
C40	C	1.142290	-1.144041	0.250068
C41	C	1.095542	-1.198693	0.293178
C42	C	1.185199	-0.600535	0.386697
C43	C	1.263303	-0.605424	0.389840
C44	C	0.994588	-0.599547	0.562603
C45	C	0.991465	-0.604015	0.640706
C46	C	1.001976	-0.315035	0.379355
C47	C	1.002002	-0.198260	0.379368
C48	C	1.009257	-0.578545	0.196756
C49	C	1.012516	-0.573790	0.118659
C50	C	1.034949	-0.541742	0.679216
C51	C	1.032006	-0.545935	0.752602
C52	C	0.985583	-0.612408	0.787477
C53	C	0.942094	-0.674683	0.748961
C54	C	0.945034	-0.670484	0.675576
C55	C	0.971967	-0.631866	1.006758
C56	C	0.969032	-0.636063	1.080148
C57	C	1.058943	-0.507313	1.083785
C58	C	1.061882	-0.503124	1.010398
C59	C	1.018391	-0.565395	0.971889
N60	N	0.982575	-0.616698	0.862489
N61	N	1.021396	-0.561099	0.896878
H62	H	0.598040	-0.690786	0.444640
H63	H	1.072754	-0.487616	0.650827
H64	H	0.731171	-0.699099	0.449965
C65	C	0.409355	-0.760528	0.489475
C66	C	0.359944	-0.818708	0.526860
C67	C	0.394704	-0.890908	0.573274
H68	H	0.439047	-0.806582	0.463764
H69	H	0.436754	-0.723977	0.521322
H70	H	0.332558	-0.855258	0.495018
H71	H	0.330250	-0.772682	0.552586
H72	H	0.422102	-0.854357	0.605121
H73	H	0.424395	-0.936955	0.547557
H74	H	0.361184	-0.930385	0.598650
H75	H	1.180314	-0.989810	0.214950
H76	H	1.180395	-1.188881	0.214990
C77	C	1.095674	-1.317826	0.293083
C78	C	1.146647	-1.354365	0.246116
C79	C	1.146781	-1.464100	0.246001
H80	H	1.106011	-1.346082	0.338890
H81	H	1.050848	-1.339222	0.279042
H82	H	1.191462	-1.332979	0.260161
H83	H	1.136320	-1.326138	0.200302
H84	H	1.101955	-1.485496	0.231960
H85	H	1.157117	-1.492345	0.291811
H86	H	1.181361	-1.488905	0.214130
C87	C	0.918736	-0.708364	1.118059
C88	C	0.956818	-0.780624	1.161772
C89	C	0.910512	-0.847245	1.196702
H90	H	0.886973	-0.668007	1.145515
H91	H	0.893261	-0.744912	1.084641
H92	H	0.982281	-0.744079	1.195186
H93	H	0.988578	-0.821004	1.134334
H94	H	0.885038	-0.883794	1.163283
H95	H	0.878752	-0.806880	1.224154
H96	H	0.936345	-0.896287	1.226360
C97	C	0.416830	-0.468998	0.302196
C98	C	0.370554	-0.404854	0.260983
C99	C	0.408901	-0.337205	0.217497
H100	H	0.444394	-0.426511	0.330200
H101	H	0.446662	-0.509112	0.272638
H102	H	0.340734	-0.364744	0.290538
H103	H	0.342989	-0.447312	0.232965
H104	H	0.438734	-0.377320	0.187939
H105	H	0.436464	-0.294726	0.245507
H106	H	0.377509	-0.293683	0.189525
H107	H	0.936564	-0.682588	0.975413
C108	C	0.748006	-0.427201	0.275327
C109	C	0.701735	-0.363057	0.234109
C110	C	0.740088	-0.295425	0.190616
H111	H	0.775575	-0.384716	0.303325
H112	H	0.777834	-0.467328	0.245772
H113	H	0.671920	-0.322933	0.263661
H114	H	0.674165	-0.405514	0.206096
H115	H	0.769916	-0.335552	0.161062
H116	H	0.767656	-0.252947	0.218621
H117	H	0.708700	-0.251902	0.162641
C118	C	1.095544	-0.860108	0.293033
C119	C	1.146508	-0.824039	0.246072
C120	C	1.146613	-0.714305	0.245970
H121	H	1.050728	-0.831692	0.278997
H122	H	1.105876	-0.838555	0.338860
H123	H	1.136172	-0.845581	0.200256
H124	H	1.191332	-0.852426	0.260098
H125	H	1.156944	-0.692752	0.291796
H126	H	1.101794	-0.685899	0.231934
H127	H	1.181195	-0.689819	0.214112
C128	C	0.891620	-0.746884	0.786692
C129	C	0.854154	-0.800501	0.737256
C130	C	0.807645	-0.867016	0.771986
H131	H	0.917266	-0.796071	0.816395
H132	H	0.859828	-0.706439	0.814076
H133	H	0.885942	-0.840945	0.709885
H134	H	0.828494	-0.751342	0.707551
H135	H	0.775853	-0.826570	0.799369
H136	H	0.833297	-0.916195	0.801688
H137	H	0.782215	-0.903395	0.738449
H138	H	0.604534	-0.437283	0.281867
H139	H	1.067417	-0.495228	0.783954
C140	C	0.897946	-0.738161	0.633672
C141	C	0.939410	-0.805554	0.593123
C142	C	0.896055	-0.867901	0.554504
H143	H	0.869863	-0.778452	0.664865
H144	H	0.868499	-0.694441	0.603775
H145	H	0.968845	-0.849268	0.623017
H146	H	0.967492	-0.765291	0.561917
H147	H	0.866608	-0.824181	0.524607
H148	H	0.867974	-0.908185	0.585703
H149	H	0.924182	-0.913627	0.526982
H150	H	0.266865	-0.732601	0.471498
H151	H	1.099687	-0.448998	0.982009
H152	H	0.273372	-0.479088	0.308727
C153	C	0.904484	-1.202697	0.469178
C154	C	0.914519	-1.310577	0.459959
C155	C	0.867793	-1.365436	0.502980
H156	H	0.912789	-1.188143	0.516835
H157	H	0.857671	-1.181296	0.456945
H158	H	0.961322	-1.331971	0.472197
H159	H	0.906209	-1.325162	0.412311
H160	H	0.820979	-1.344035	0.490747
H161	H	0.876101	-1.350874	0.550635
H162	H	0.874591	-1.438637	0.496726
H163	H	0.917075	-0.988609	0.457518
H164	H	1.094350	-0.456614	1.115147
