data_functionalizedCrystal
_audit_creation_method	'MofGen! by Chris Wilmer'
_symmetry_space_group_name_H-M	'P1'
_symmetry_Int_Tables_number	1
_symmetry_cell_setting	triclinic
loop_
_symmetry_equiv_pos_as_xyz
  x,y,z
_cell_length_a	17.019282
_cell_length_b	16.098538
_cell_length_c	12.837942
_cell_angle_alpha	86.987046
_cell_angle_beta	89.095764
_cell_angle_gamma	88.859428
loop_
_atom_site_label
_atom_site_type_symbol
_atom_site_fract_x
_atom_site_fract_y
_atom_site_fract_z
O1	O	1.056301	-0.006527	0.132415
O2	O	0.828654	0.009807	0.148176
O3	O	0.937429	0.001997	-0.010623
O4	O	0.947526	0.001283	0.291214
O5	O	0.931073	-0.136060	-0.001384
O6	O	0.822297	-0.128250	0.157416
O7	O	1.049944	-0.144584	0.141655
Zn8	Zn	0.935111	-0.158336	0.151002
Zn9	Zn	0.943487	0.023559	0.138828
O10	O	0.941169	-0.136774	0.300454
C11	C	0.796135	-0.057116	0.152018
C12	C	0.708710	-0.050844	0.149690
N13	N	0.929401	-0.282475	0.159310
C14	C	0.664176	-0.123153	0.153630
C15	C	0.582031	-0.117262	0.151425
C16	C	0.544420	-0.039060	0.145288
C17	C	0.588960	0.033255	0.141344
C18	C	0.671104	0.027363	0.143541
C19	C	0.296572	-0.017504	0.138395
C20	C	0.214422	-0.011617	0.136201
C21	C	0.207499	-0.162134	0.146280
C22	C	0.289645	-0.168020	0.148483
C23	C	0.334177	-0.095705	0.144534
C24	C	0.460455	-0.033036	0.143037
C25	C	0.418141	-0.101730	0.146777
C26	C	0.975590	-0.329377	0.091933
C27	C	0.971604	-0.416280	0.097755
C28	C	0.921431	-0.456280	0.170959
C29	C	0.875237	-0.409372	0.238338
C30	C	0.879220	-0.322470	0.232511
C31	C	0.906991	-0.718493	0.192065
C32	C	0.903013	-0.805401	0.197889
C33	C	0.999380	-0.812302	0.057304
C34	C	1.003362	-0.725399	0.051487
C35	C	0.957164	-0.678499	0.118863
C36	C	0.917357	-0.545108	0.176913
C37	C	0.961235	-0.589672	0.112903
C38	C	1.082463	-0.077659	0.137812
C39	C	1.169889	-0.083926	0.140141
C40	C	0.930841	-0.066786	-0.044635
C41	C	0.920669	-0.066055	-0.159745
N42	N	0.949203	0.147698	0.130512
C43	C	1.042952	-0.074812	-0.400308
C44	C	1.033398	-0.074125	-0.508465
C45	C	0.892010	-0.063989	-0.484219
C46	C	0.901563	-0.064675	-0.376062
C47	C	0.977036	-0.070088	-0.334111
C48	C	0.986589	-0.070781	-0.225951
C49	C	0.845201	-0.060639	-0.201708
C50	C	0.835648	-0.059952	-0.309864
C51	C	0.947758	-0.067989	0.334466
C52	C	0.957930	-0.068715	0.449576
H53	H	0.694792	-0.186834	0.158636
H54	H	0.332821	0.041381	0.135176
C55	C	0.547585	0.119279	0.134590
N56	N	0.516423	0.184073	0.129506
C57	C	0.720090	0.106909	0.139209
N58	N	0.756986	0.166827	0.135943
C59	C	0.808995	-0.058043	-0.530385
N60	N	0.746467	-0.053570	-0.565157
H61	H	1.104404	-0.079227	-0.366150
C62	C	0.459515	-0.187749	0.153556
N63	N	0.490684	-0.252540	0.158677
C64	C	1.105910	-0.079326	-0.581279
N65	N	1.160529	-0.083246	-0.636122
H66	H	0.545776	-0.176144	0.154616
C67	C	0.772690	-0.055444	-0.128881
N68	N	0.718076	-0.051533	-0.074027
H69	H	0.320261	-0.231700	0.153475
C70	C	0.158507	-0.241675	0.150612
N71	N	0.121607	-0.301589	0.153871
C72	C	0.419075	0.052985	0.136292
N73	N	0.387905	0.117775	0.131210
C74	C	1.030784	-0.285385	0.011402
N75	N	1.072354	-0.252253	-0.049260
C76	C	0.856284	-0.666922	0.266316
N77	N	0.818129	-0.628078	0.322294
C78	C	0.173053	0.074415	0.129448
N79	N	0.141893	0.139211	0.124364
C80	C	0.752631	-0.054008	-0.356023
N81	N	0.690100	-0.049537	-0.390788
H82	H	1.009214	-0.454466	0.042891
C83	C	1.058551	-0.681406	-0.029048
N84	N	1.100120	-0.648270	-0.089708
H85	H	1.048043	-0.075192	-0.191796
H86	H	1.036991	-0.850496	0.002448
C87	C	0.847815	-0.849398	0.278420
N88	N	0.806242	-0.882538	0.339073
C89	C	0.828415	-0.270880	0.306640
N90	N	0.790147	-0.232022	0.362476
C91	C	1.016415	-0.545668	0.032372
N92	N	1.057978	-0.512517	-0.028284
C93	C	0.820039	-0.453374	0.318854
N94	N	0.778462	-0.486516	0.379500
H95	H	0.876507	-0.577683	0.236519
