data_functionalizedCrystal
_audit_creation_method	'MofGen! by Chris Wilmer'
_symmetry_space_group_name_H-M	'P1'
_symmetry_Int_Tables_number	1
_symmetry_cell_setting	triclinic
loop_
_symmetry_equiv_pos_as_xyz
  x,y,z
_cell_length_a	18.050590
_cell_length_b	18.050590
_cell_length_c	18.050582
_cell_angle_alpha	89.976663
_cell_angle_beta	90.000767
_cell_angle_gamma	90.007719
loop_
_atom_site_label
_atom_site_type_symbol
_atom_site_fract_x
_atom_site_fract_y
_atom_site_fract_z
Zn1	Zn	1.135342	-0.295921	-0.419598
Zn2	Zn	1.135274	-0.420105	-0.295406
Zn3	Zn	1.011162	-0.295910	-0.295456
Zn4	Zn	1.011131	-0.420051	-0.419589
O5	O	1.073227	-0.357997	-0.357512
O6	O	1.239258	-0.312422	-0.403106
O7	O	1.118795	-0.403648	-0.191488
O8	O	1.027676	-0.191987	-0.311948
O9	O	1.239208	-0.403659	-0.311863
O10	O	1.118911	-0.191995	-0.403155
O11	O	1.027610	-0.312402	-0.191525
O12	O	0.907233	-0.312350	-0.311939
O13	O	1.027623	-0.403567	-0.523514
O14	O	0.907210	-0.403555	-0.403139
O15	O	1.118881	-0.312370	-0.523521
O16	O	1.118765	-0.524022	-0.311854
O17	O	1.027557	-0.523982	-0.403091
C18	C	0.880275	-0.357946	-0.357544
C19	C	0.797729	-0.357942	-0.357575
C20	C	1.073170	-0.550949	-0.357482
C21	C	1.073214	-0.633494	-0.357495
C22	C	0.598288	-0.407682	-0.407052
C23	C	0.548883	-0.339967	-0.425328
C24	C	0.646599	-0.357984	-0.357539
C25	C	0.548922	-0.425737	-0.339262
C26	C	0.500614	-0.358030	-0.357505
C27	C	0.598282	-0.290233	-0.375850
C28	C	0.598324	-0.376049	-0.289753
C29	C	0.548942	-0.308287	-0.308004
C30	C	0.730697	-0.357958	-0.357560
C31	C	0.416517	-0.358047	-0.357484
C32	C	1.122915	-0.832940	-0.307949
C33	C	1.141051	-0.882282	-0.375725
C34	C	1.073256	-0.784625	-0.357524
C35	C	1.055196	-0.882364	-0.289779
C36	C	1.073298	-0.930610	-0.357547
C37	C	1.091426	-0.832880	-0.425335
C38	C	1.005539	-0.832958	-0.339344
C39	C	1.023649	-0.882278	-0.407166
C40	C	1.073233	-0.700527	-0.357510
C41	C	1.073320	-1.014706	-0.357568
C42	C	1.266933	-0.358048	-0.357480
C43	C	1.349478	-0.358070	-0.357467
C44	C	1.073256	-0.357964	-0.551218
C45	C	1.073269	-0.357950	-0.633763
C46	C	1.073305	-0.164291	-0.357558
C47	C	1.073338	-0.081745	-0.357578
C48	C	1.023680	-0.407475	-0.833211
C49	C	1.091439	-0.425641	-0.882583
C50	C	1.073305	-0.357893	-0.784894
C51	C	1.005584	-0.339706	-0.882603
C52	C	1.073335	-0.357840	-0.930879
C53	C	1.141099	-0.376095	-0.833179
C54	C	1.055199	-0.290128	-0.833195
C55	C	1.123004	-0.308269	-0.882545
C56	C	1.073287	-0.357926	-0.700796
C57	C	1.073360	-0.357807	-1.014976
C58	C	1.073241	-0.357976	-0.164560
C59	C	1.073372	-0.357781	-0.082014
H60	H	0.619957	-0.449636	-0.448970
O61	O	1.109748	-0.493925	-0.908598
C62	C	1.110144	-0.492767	-0.986699
H63	H	1.118823	-0.433537	-1.006852
H64	H	1.054937	-0.514496	-1.008355
C65	C	1.162768	-0.614908	-0.990783
C66	C	1.173434	-0.542161	-1.015536
H67	H	1.201806	-0.645378	-1.008572
H68	H	1.162499	-0.615689	-0.938165
H69	H	1.116760	-0.633005	-1.008832
H70	H	1.219437	-0.524062	-0.997479
H71	H	1.173713	-0.541377	-1.068152
H72	H	1.106662	-0.811235	-0.482685
O73	O	1.209463	-0.394607	-0.807485
C74	C	1.228557	-0.465819	-0.833246
H75	H	1.195440	-0.478899	-0.885403
H76	H	1.215393	-0.508590	-0.788660
C77	C	1.352609	-0.452095	-0.787101
C78	C	1.311938	-0.468158	-0.851165
H79	H	1.404043	-0.453540	-0.798151
H80	H	1.339745	-0.404120	-0.769742
H81	H	1.341630	-0.487740	-0.749952
H82	H	1.322910	-0.432508	-0.888309
H83	H	1.324807	-0.516128	-0.868530
O84	O	1.173238	-0.258303	-0.908197
C85	C	1.244531	-0.277715	-0.882861
H86	H	1.245915	-0.339335	-0.869069
H87	H	1.258327	-0.244261	-0.831110
C88	C	1.300199	-0.185187	-0.960663
C89	C	1.301901	-0.260872	-0.943730
H90	H	1.335590	-0.174795	-0.998208
H91	H	1.252169	-0.172107	-0.977731
H92	H	1.311694	-0.157318	-0.917532
H93	H	1.290398	-0.288740	-0.986858
H94	H	1.349932	-0.273957	-0.926670
H95	H	1.039903	-0.904100	-0.232479
H96	H	1.039846	-0.232860	-0.811484
H97	H	1.198335	-0.903949	-0.391116
H98	H	0.981672	-0.903805	-0.449148
O99	O	0.522967	-0.494012	-0.320742
C100	C	0.480049	-0.488827	-0.255689
H101	H	0.458746	-0.429733	-0.249210
H102	H	0.515597	-0.504003	-0.205734
C103	C	0.440089	-0.615070	-0.268819
C104	C	0.413919	-0.542491	-0.260865
H105	H	0.399299	-0.648175	-0.272009
H106	H	0.469006	-0.618565	-0.312645
H107	H	0.469713	-0.627706	-0.227188
H108	H	0.384304	-0.529853	-0.302499
H109	H	0.384995	-0.538996	-0.217045
O110	O	0.523000	-0.321880	-0.493741
C111	C	0.548149	-0.374380	-0.545796
H112	H	0.562031	-0.428409	-0.516168
H113	H	0.599807	-0.352317	-0.574682
C114	C	0.470037	-0.322191	-0.640053
C115	C	0.487081	-0.388552	-0.603664
H116	H	0.432370	-0.330931	-0.675751
H117	H	0.453095	-0.286818	-0.604984
H118	H	0.513091	-0.303811	-0.664118
H119	H	0.444031	-0.406926	-0.579592
H120	H	0.504014	-0.423928	-0.638731
O121	O	0.624157	-0.221931	-0.394379
C122	C	0.702263	-0.222734	-0.394185
H123	H	0.722716	-0.281920	-0.402344
H124	H	0.723418	-0.200594	-0.338955
C125	C	0.706255	-0.100877	-0.447540
C126	C	0.731376	-0.173569	-0.457567
H127	H	0.724214	-0.070547	-0.486634
H128	H	0.653633	-0.100334	-0.447668
H129	H	0.723886	-0.082437	-0.401513
H130	H	0.713737	-0.192011	-0.503589
H131	H	0.783995	-0.174114	-0.457448
H132	H	0.948301	-0.324346	-0.904313
H133	H	0.948271	-0.811275	-0.323932
O134	O	0.523285	-0.258017	-0.258118
C135	C	0.548587	-0.186730	-0.277635
H136	H	0.562361	-0.185399	-0.339255
H137	H	0.600343	-0.172875	-0.244195
C138	C	0.470790	-0.131011	-0.185202
C139	C	0.487701	-0.129374	-0.260887
H140	H	0.433235	-0.095630	-0.174869
H141	H	0.453745	-0.179038	-0.172051
H142	H	0.513925	-0.119467	-0.157344
H143	H	0.444569	-0.140928	-0.288743
H144	H	0.504738	-0.081348	-0.274042
H145	H	0.620058	-0.391334	-0.232459
H146	H	1.164925	-0.811275	-0.266069
O147	O	0.973746	-0.457659	-0.807397
C148	C	0.993124	-0.529001	-0.832579
H149	H	1.054727	-0.530414	-0.846419
H150	H	0.959606	-0.542897	-0.884270
C151	C	0.900691	-0.584515	-0.754570
C152	C	0.976355	-0.586252	-0.771561
H153	H	0.890345	-0.619831	-0.716933
H154	H	0.887633	-0.536451	-0.737605
H155	H	0.872768	-0.596093	-0.797651
H156	H	1.004276	-0.574665	-0.728483
H157	H	0.989417	-0.634316	-0.788517
