data_functionalizedCrystal
_audit_creation_method	'MofGen! by Chris Wilmer'
_symmetry_space_group_name_H-M	'P1'
_symmetry_Int_Tables_number	1
_symmetry_cell_setting	triclinic
loop_
_symmetry_equiv_pos_as_xyz
  x,y,z
_cell_length_a	17.000371
_cell_length_b	16.109301
_cell_length_c	14.586319
_cell_angle_alpha	89.994786
_cell_angle_beta	89.996083
_cell_angle_gamma	79.530364
loop_
_atom_site_label
_atom_site_type_symbol
_atom_site_fract_x
_atom_site_fract_y
_atom_site_fract_z
O1	O	1.056094	0.029958	-0.076245
O2	O	1.556094	0.529958	0.423755
O3	O	0.824353	0.060134	-0.076247
O4	O	1.324353	0.560134	0.423753
O5	O	0.946590	-0.076449	-0.076237
O6	O	1.446590	0.423551	0.423763
O7	O	0.933857	0.166540	-0.076255
O8	O	1.433857	0.666540	0.423745
O9	O	0.946581	-0.076450	0.076244
O10	O	1.446581	0.423550	0.576244
O11	O	0.824345	0.060132	0.076234
O12	O	1.324345	0.560132	0.576234
O13	O	1.056085	0.029957	0.076236
O14	O	1.556085	0.529957	0.576236
Cu15	Cu	0.940214	0.045045	0.090158
Cu16	Cu	1.440214	0.545045	0.590158
Cu17	Cu	0.940224	0.045046	-0.090169
Cu18	Cu	1.440224	0.545046	0.409831
O19	O	0.933849	0.166539	0.076225
O20	O	1.433849	0.666539	0.576225
C21	C	0.794695	0.061754	-0.000007
C22	C	1.294695	0.561754	0.499993
C23	C	0.706335	0.066573	-0.000007
C24	C	1.206335	0.566573	0.499993
C25	C	0.946070	-0.107387	0.000004
C26	C	1.446070	0.392613	0.500004
C27	C	0.944523	-0.199569	0.000006
C28	C	1.444523	0.300431	0.500006
C29	C	1.013461	-0.426862	-0.000008
C30	C	1.513461	0.073138	0.499992
C31	C	1.012002	-0.513476	-0.000016
C32	C	1.512002	-0.013476	0.499984
C33	C	0.866972	-0.483040	-0.000013
C34	C	1.366972	0.016960	0.499987
C35	C	0.868432	-0.396428	-0.000012
C36	C	1.368432	0.103572	0.499988
C37	C	0.941679	-0.368341	-0.000005
C38	C	1.441679	0.131659	0.499995
C39	C	0.938760	-0.541568	-0.000014
C40	C	1.438760	-0.041568	0.499986
C41	C	0.937177	-0.635479	-0.000022
C42	C	1.437177	-0.135479	0.499978
C43	C	0.943262	-0.274425	0.000001
C44	C	1.443262	0.225575	0.500001
C45	C	0.674329	-0.007593	0.000000
C46	C	1.174329	0.492407	0.500000
C47	C	0.591305	-0.003060	-0.000007
C48	C	1.091305	0.496940	0.499993
C49	C	0.540288	0.075641	-0.000014
C50	C	1.040288	0.575641	0.499986
C51	C	0.572300	0.149813	-0.000024
C52	C	1.072300	0.649813	0.499976
C53	C	0.655322	0.145279	-0.000024
C54	C	1.155322	0.645279	0.499976
C55	C	0.289138	0.093155	-0.000022
C56	C	0.789138	0.593155	0.499978
C57	C	0.206110	0.097684	-0.000020
C58	C	0.706110	0.597684	0.499980
C59	C	0.225121	-0.055190	-0.000003
C60	C	0.725121	0.444810	0.499997
C61	C	0.308144	-0.059717	0.000003
C62	C	0.808144	0.440283	0.500003
C63	C	0.340148	0.014455	-0.000012
C64	C	0.840148	0.514455	0.499988
C65	C	0.455424	0.080277	-0.000019
C66	C	0.955424	0.580277	0.499981
C67	C	0.425011	0.009818	-0.000015
C68	C	0.925011	0.509818	0.499985
C69	C	1.085744	0.028337	-0.000006
C70	C	1.585744	0.528337	0.499994
C71	C	1.174104	0.023517	-0.000012
C72	C	1.674104	0.523517	0.499988
C73	C	0.934369	0.197477	-0.000017
C74	C	1.434369	0.697477	0.499983
C75	C	0.935915	0.289660	-0.000025
C76	C	1.435915	0.789660	0.499975
N77	N	0.940213	0.045043	0.216989
N78	N	1.440213	0.545043	0.716989
N79	N	0.940232	0.045041	-0.217000
N80	N	1.440232	0.545041	0.283000
C81	C	0.994357	-0.015418	0.452000
C82	C	1.494357	0.484582	0.952000
C83	C	0.994359	-0.015421	0.547982
C84	C	1.494359	0.484579	1.047982
C85	C	0.886082	0.105505	0.547982
C86	C	1.386082	0.605505	1.047982
C87	C	0.886076	0.105503	0.452002
C88	C	1.386076	0.605503	0.952002
C89	C	0.940219	0.045042	0.404014
C90	C	1.440219	0.545042	0.904014
C91	C	0.940226	0.045042	0.595975
C92	C	1.440226	0.545042	1.095975
C93	C	0.940228	0.045040	0.700042
C94	C	1.440228	0.545040	1.200042
C95	C	0.940216	0.045042	0.299940
C96	C	1.440216	0.545042	0.799940
H97	H	1.073103	-0.403998	-0.000004
H98	H	1.573103	0.096002	0.499996
C99	C	1.090962	-0.577845	-0.000014
C100	C	1.590962	-0.077845	0.499986
H101	H	1.134790	-0.548710	-0.000002
H102	H	1.634790	-0.048710	0.499998
H103	H	1.093413	-0.612261	-0.053187
H104	H	1.593413	-0.112261	0.446813
H105	H	1.093402	-0.612269	0.053166
H106	H	1.593402	-0.112269	0.553166
H107	H	0.807337	-0.505919	-0.000018
H108	H	1.307337	-0.005919	0.499982
C109	C	0.364257	-0.146288	0.000012
C110	C	0.864257	0.353712	0.500012
H111	H	0.333303	-0.189811	0.000009
H112	H	0.833303	0.310189	0.500009
H113	H	0.397034	-0.151231	0.053187
H114	H	0.897034	0.348769	0.553187
H115	H	0.397042	-0.151236	-0.053167
H116	H	0.897042	0.348764	0.446833
H117	H	0.715861	-0.071680	0.000011
H118	H	1.215861	0.428320	0.500011
C119	C	0.189914	-0.136771	0.000000
C120	C	0.689914	0.363229	0.500000
H121	H	0.133162	-0.122803	-0.000010
H122	H	0.633162	0.377197	0.499990
H123	H	0.207421	-0.168925	0.053173
H124	H	0.707421	0.331075	0.553173
H125	H	0.207429	-0.168914	-0.053180
H126	H	0.707429	0.331086	0.446820
H127	H	0.413877	0.144355	-0.000024
H128	H	0.913877	0.644355	0.499976
H129	H	0.809975	-0.348777	-0.000013
H130	H	1.309975	0.151223	0.499987
H131	H	0.842002	0.154732	0.587064
H132	H	1.342002	0.654732	1.087064
C133	C	0.149992	0.184259	-0.000043
C134	C	0.649992	0.684259	0.499957
H135	H	0.180943	0.227784	-0.000063
H136	H	0.680943	0.727784	0.499937
H137	H	0.117205	0.189212	0.053129
H138	H	0.617205	0.689212	0.553129
H139	H	0.117217	0.189192	-0.053225
H140	H	0.617217	0.689192	0.446775
H141	H	0.565250	-0.063454	-0.000001
H142	H	1.065250	0.436546	0.499999
C143	C	0.324332	0.174741	-0.000021
C144	C	0.824332	0.674741	0.499979
H145	H	0.282056	0.222259	-0.000012
H146	H	0.782056	0.722259	0.499988
H147	H	0.356329	0.176160	-0.053192
H148	H	0.856329	0.676160	0.446808
H149	H	0.356319	0.176146	0.053162
H150	H	0.856319	0.676146	0.553162
C151	C	0.516184	0.236382	-0.000030
C152	C	1.016184	0.736382	0.499970
H153	H	0.462154	0.228462	-0.000019
H154	H	0.962154	0.728462	0.499981
H155	H	0.525886	0.267048	-0.053205
H156	H	1.025886	0.767048	0.446795
H157	H	0.525886	0.267041	0.053148
H158	H	1.025886	0.767041	0.553148
H159	H	0.681380	0.205673	-0.000026
H160	H	1.181380	0.705673	0.499974
C161	C	1.053915	-0.081924	0.600763
C162	C	1.553915	0.418076	1.100763
H163	H	1.086161	-0.117926	0.558433
H164	H	1.586161	0.382074	1.058433
H165	H	1.025299	-0.114460	0.638213
H166	H	1.525299	0.385540	1.138213
H167	H	1.087042	-0.054411	0.638195
H168	H	1.587042	0.445589	1.138195
C169	C	0.481122	-0.076749	-0.000011
C170	C	0.981122	0.423251	0.499989
H171	H	0.450174	-0.120276	-0.000011
H172	H	0.950174	0.379724	0.499989
H173	H	0.513905	-0.081692	0.053161
H174	H	1.013905	0.418308	0.553161
H175	H	0.513903	-0.081691	-0.053193
H176	H	1.013903	0.418309	0.446807
C177	C	1.053903	-0.081929	0.399216
C178	C	1.553903	0.418071	0.899216
H179	H	1.086141	-0.117942	0.441545
H180	H	1.586141	0.382058	0.941545
H181	H	1.087027	-0.054429	0.361763
H182	H	1.587027	0.445571	0.861763
H183	H	1.025272	-0.114465	0.361786
H184	H	1.525272	0.385535	0.861786
C185	C	0.826523	0.172014	0.399214
C186	C	1.326523	0.672014	0.899214
H187	H	0.794287	0.208030	0.441539
H188	H	1.294287	0.708030	0.941539
H189	H	0.793399	0.144507	0.361780
H190	H	1.293399	0.644507	0.861780
H191	H	0.855149	0.204548	0.361764
H192	H	1.355149	0.704548	0.861764
