data_functionalizedCrystal
_audit_creation_method	'MofGen! by Chris Wilmer'
_symmetry_space_group_name_H-M	'P1'
_symmetry_Int_Tables_number	1
_symmetry_cell_setting	triclinic
loop_
_symmetry_equiv_pos_as_xyz
  x,y,z
_cell_length_a	12.811438
_cell_length_b	12.837942
_cell_length_c	9.798715
_cell_angle_alpha	89.997407
_cell_angle_beta	84.564853
_cell_angle_gamma	89.411773
loop_
_atom_site_label
_atom_site_type_symbol
_atom_site_fract_x
_atom_site_fract_y
_atom_site_fract_z
O1	O	1.406646	0.139683	-0.287574
O2	O	1.102581	0.154871	-0.249946
O3	O	1.247871	-0.003655	-0.267917
O4	O	1.261356	0.298209	-0.269603
O5	O	1.247859	-0.003655	-0.040934
O6	O	1.102569	0.154871	-0.022962
O7	O	1.406634	0.139682	-0.060590
Zn8	Zn	1.254600	0.147276	-0.005738
Zn9	Zn	1.254616	0.147277	-0.304798
O10	O	1.261344	0.298208	-0.042619
C11	C	1.063386	0.154020	-0.131605
C12	C	0.946613	0.151471	-0.117154
C13	C	1.243310	-0.042295	-0.153862
C14	C	1.229724	-0.157431	-0.152183
C15	C	0.782020	0.147879	0.026935
C16	C	0.891739	0.150274	0.013363
C17	C	0.891760	0.150276	-0.234108
C18	C	0.782042	0.147880	-0.220536
C19	C	0.727175	0.146681	-0.090011
C20	C	0.617455	0.144278	-0.076440
C21	C	0.617478	0.144286	-0.323910
C22	C	0.727197	0.146682	-0.337482
C23	C	1.393054	-0.397685	-0.172424
C24	C	1.380293	-0.505866	-0.170847
C25	C	1.191443	-0.481976	-0.147463
C26	C	1.204204	-0.373795	-0.149040
C27	C	1.305012	-0.331654	-0.161518
C28	C	1.317772	-0.223471	-0.163085
C29	C	1.128923	-0.199583	-0.139711
C30	C	1.116162	-0.307764	-0.138134
C31	C	1.445830	0.140534	-0.178935
C32	C	1.562603	0.143082	-0.193394
C33	C	1.265905	0.336849	-0.156677
C34	C	1.279491	0.451985	-0.158365
N35	N	1.254597	0.147276	0.198362
N36	N	1.254626	0.147270	-0.508900
C37	C	1.315573	0.080423	0.258597
C38	C	1.315590	0.080419	0.415758
H39	H	0.572784	0.143308	0.029840
H40	H	1.367799	0.023187	0.467585
H41	H	1.399855	-0.189162	-0.173241
H42	H	0.737347	0.146908	0.133214
H43	H	1.202423	0.204512	0.439281
H44	H	0.936389	0.151254	0.108593
C45	C	1.032071	-0.126939	-0.127713
N46	N	0.959124	-0.072222	-0.118673
H47	H	1.367762	0.023185	0.193819
H48	H	0.572812	0.143314	-0.419136
H49	H	1.475136	-0.363373	-0.182571
H50	H	1.034087	-0.342090	-0.127980
C51	C	1.184080	0.224593	0.285874
N52	N	1.130965	0.282831	0.351786
H53	H	0.936451	0.151262	-0.340376
C54	C	1.080562	-0.528351	-0.133724
N55	N	0.997046	-0.563282	-0.123366
H56	H	0.771884	0.147663	-0.443752
C57	C	1.477147	-0.578497	-0.182834
N58	N	1.550101	-0.633204	-0.191862
