data_functionalizedCrystal
_audit_creation_method	'MofGen! by Chris Wilmer'
_symmetry_space_group_name_H-M	'P1'
_symmetry_Int_Tables_number	1
_symmetry_cell_setting	triclinic
loop_
_symmetry_equiv_pos_as_xyz
  x,y,z
_cell_length_a	16.109318
_cell_length_b	15.186229
_cell_length_c	16.109301
_cell_angle_alpha	90.005167
_cell_angle_beta	83.465022
_cell_angle_gamma	89.999776
loop_
_atom_site_label
_atom_site_type_symbol
_atom_site_fract_x
_atom_site_fract_y
_atom_site_fract_z
O1	O	1.103122	0.073158	0.106935
O2	O	0.861062	0.073176	0.120219
O3	O	0.988741	0.073158	-0.007454
O4	O	0.975442	0.073177	0.234607
O5	O	0.988733	-0.073300	-0.007456
O6	O	0.861053	-0.073281	0.120217
O7	O	1.103113	-0.073299	0.106933
Zn8	Zn	0.982082	-0.096543	0.113575
Zn9	Zn	0.982093	0.096420	0.113577
O10	O	0.975433	-0.073281	0.234606
C11	C	0.830083	-0.000050	0.119677
C12	C	0.737788	-0.000043	0.118057
N13	N	0.982080	-0.228236	0.113573
C14	C	0.438719	0.079774	0.112823
C15	C	0.525440	0.079780	0.114340
C16	C	0.525450	-0.079896	0.114327
C17	C	0.438731	-0.079900	0.112803
C18	C	0.395367	-0.000063	0.112056
C19	C	0.568807	-0.000052	0.115096
C20	C	0.662835	-0.000047	0.116742
C21	C	0.301334	-0.000068	0.110409
C22	C	1.038636	-0.453967	0.057058
C23	C	1.038639	-0.546157	0.057056
C24	C	0.925539	-0.546149	0.170090
C25	C	0.925533	-0.453961	0.170087
C26	C	0.982086	-0.407873	0.113572
C27	C	0.982095	-0.592250	0.113573
C28	C	0.982097	-0.692206	0.113571
C29	C	0.982083	-0.307910	0.113573
C30	C	1.134092	-0.000071	0.107474
C31	C	1.226387	-0.000072	0.109095
N32	N	0.982101	0.228113	0.113573
C33	C	0.988198	-0.000071	-0.038430
C34	C	0.986583	-0.000072	-0.130725
C35	C	1.058590	-0.000064	-0.352993
C36	C	1.057066	-0.000057	-0.439713
C37	C	0.905579	-0.000049	-0.419848
C38	C	0.907104	-0.000050	-0.333130
C39	C	0.983612	-0.000062	-0.299704
C40	C	0.980563	-0.000053	-0.473144
C41	C	0.978910	-0.000045	-0.567170
C42	C	0.985265	-0.000068	-0.205672
C43	C	0.975976	-0.000050	0.265581
C44	C	0.977592	-0.000043	0.357877
H45	H	0.560734	0.144791	0.114963
H46	H	0.843288	-0.000040	-0.447074
N47	N	1.099608	-0.404246	-0.003907
H48	H	1.136409	-0.365985	0.027867
H49	H	1.135375	-0.447486	-0.039703
H50	H	0.846043	-0.000045	-0.289740
N51	N	0.391952	0.165882	0.111997
H52	H	0.330437	0.153768	0.110916
H53	H	0.400354	0.200752	0.163773
H54	H	0.560767	-0.144897	0.114937
H55	H	1.084685	-0.583684	0.011036
N56	N	0.391967	-0.166015	0.111969
H57	H	0.432667	-0.216589	0.112109
H58	H	0.349619	-0.169756	0.163135
N59	N	0.864546	-0.595859	0.231043
H60	H	0.873130	-0.661255	0.222472
H61	H	0.874130	-0.579736	0.290027
N62	N	1.137934	-0.000070	-0.497192
H63	H	1.140685	0.054223	-0.533608
H64	H	1.186583	-0.000112	-0.462798
H65	H	0.879480	-0.416429	0.216108
N66	N	1.141105	-0.000076	-0.316939
H67	H	1.188372	-0.000074	-0.363859
H68	H	1.145039	0.054216	-0.281385
