data_functionalizedCrystal
_audit_creation_method	'MofGen! by Chris Wilmer'
_symmetry_space_group_name_H-M	'P1'
_symmetry_Int_Tables_number	1
_symmetry_cell_setting	triclinic
loop_
_symmetry_equiv_pos_as_xyz
  x,y,z
_cell_length_a	14.908571
_cell_length_b	21.295417
_cell_length_c	14.908308
_cell_angle_alpha	93.260635
_cell_angle_beta	90.175053
_cell_angle_gamma	86.726349
loop_
_atom_site_label
_atom_site_type_symbol
_atom_site_fract_x
_atom_site_fract_y
_atom_site_fract_z
Zn1	Zn	1.345216	-0.328502	-0.587528
Zn2	Zn	1.353772	-0.428068	-0.437153
Zn3	Zn	1.203534	-0.316411	-0.428528
Zn4	Zn	1.194800	-0.427320	-0.578804
O5	O	1.274330	-0.375075	-0.508003
O6	O	1.472175	-0.347082	-0.574841
O7	O	1.341079	-0.408509	-0.310185
O8	O	1.222403	-0.229930	-0.449662
O9	O	1.478462	-0.420233	-0.464361
O10	O	1.326496	-0.238813	-0.566479
O11	O	1.230699	-0.326476	-0.303848
O12	O	1.076551	-0.325750	-0.441202
O13	O	1.207517	-0.418959	-0.705785
O14	O	1.070134	-0.407235	-0.551609
O15	O	1.318027	-0.346357	-0.712195
O16	O	1.332609	-0.516054	-0.455901
O17	O	1.215813	-0.515504	-0.559972
C18	C	1.040717	-0.365100	-0.494524
C19	C	0.940775	-0.360848	-0.488779
C20	C	1.274215	-0.538620	-0.507947
C21	C	1.274247	-0.608590	-0.507957
C22	C	0.746349	-0.437828	-0.592795
C23	C	0.652444	-0.433836	-0.587400
C24	C	0.659060	-0.348868	-0.472599
C25	C	0.752964	-0.352861	-0.477994
C26	C	0.796605	-0.397343	-0.538093
C27	C	0.890512	-0.401338	-0.543483
C28	C	0.897125	-0.316368	-0.428687
C29	C	0.803221	-0.312375	-0.423292
C30	C	1.335110	-0.641726	-0.453830
C31	C	1.335151	-0.707471	-0.453852
C32	C	1.274313	-0.740076	-0.507992
C33	C	1.213445	-0.706932	-0.562131
C34	C	1.213412	-0.641189	-0.562114
N35	N	1.195260	-0.840247	-0.510308
N36	N	1.195295	-0.902701	-0.510320
C37	C	1.274411	-0.938157	-0.508050
N38	N	1.353494	-0.908801	-0.505750
N39	N	1.353459	-0.846341	-0.505734
C40	C	1.274343	-0.811364	-0.508018
C41	C	1.335324	-1.042582	-0.453944
C42	C	1.335366	-1.108328	-0.453973
C43	C	1.213652	-1.107788	-0.562246
C44	C	1.213618	-1.042043	-0.562223
C45	C	1.274453	-1.009444	-0.508066
C46	C	1.508856	-0.385090	-0.521536
C47	C	1.608796	-0.389358	-0.527303
C48	C	1.260843	-0.383923	-0.742527
C49	C	1.255096	-0.387694	-0.842467
C50	C	1.274469	-0.210894	-0.508081
C51	C	1.274528	-0.140929	-0.508114
C52	C	1.359367	-0.319164	-1.036941
C53	C	1.353969	-0.322705	-1.130844
C54	C	1.238899	-0.398312	-1.124177
C55	C	1.244297	-0.394771	-1.030274
C56	C	1.304533	-0.355197	-0.986660
C57	C	1.309935	-0.351660	-0.892756
C58	C	1.194861	-0.427263	-0.886090
C59	C	1.189463	-0.430804	-0.979993
C60	C	1.287817	-0.366218	-0.274395
C61	C	1.293739	-0.362278	-0.174465
H62	H	0.781883	-0.474051	-0.641725
H63	H	0.611529	-0.466802	-0.631946
H64	H	1.358984	-0.319437	-0.857246
H65	H	1.163912	-0.733484	-0.606214
H66	H	0.623510	-0.312649	-0.423674
H67	H	0.938054	-0.283403	-0.384142
H68	H	1.140419	-0.463023	-1.015517
C69	C	1.413613	-0.283559	-1.185280
C70	C	1.467533	-0.248157	-1.126982
C71	C	1.522497	-0.212093	-1.177096
H72	H	1.377234	-0.255995	-1.219949
H73	H	1.450717	-0.310678	-1.224143
H74	H	1.430433	-0.221041	-1.088134
H75	H	1.503931	-0.275705	-1.092312
H76	H	1.559601	-0.239212	-1.215960
H77	H	1.486111	-0.184533	-1.211764
H78	H	1.559094	-0.188073	-1.137549
H79	H	1.408418	-0.286944	-1.001430
C80	C	1.147742	-1.143267	-0.621093
C81	C	1.195312	-1.185314	-0.681696
C82	C	1.134628	-1.218017	-0.735918
H83	H	1.111461	-1.114187	-0.653410
H84	H	1.110598	-1.166021	-0.584443
H85	H	1.232441	-1.162562	-0.718342
H86	H	1.231590	-1.214407	-0.649404
H87	H	1.097483	-1.240770	-0.699267
H88	H	1.098350	-1.188932	-0.768229
H89	H	1.166895	-1.246553	-0.777037
H90	H	1.150214	-0.456605	-0.845141
C91	C	1.173577	-0.441250	-1.171707
C92	C	1.180597	-0.436640	-1.264705
C93	C	1.120439	-0.476188	-1.308518
H94	H	1.114017	-0.428915	-1.152936
H95	H	1.187581	-0.483545	-1.157124
H96	H	1.166588	-0.394355	-1.279281
H97	H	1.240144	-0.448980	-1.283501
H98	H	1.134443	-0.518482	-1.293935
H99	H	1.060883	-0.463849	-1.289740
H100	H	1.125200	-0.473070	-1.371621
C101	C	1.147224	-0.605319	-0.620909
C102	C	1.093939	-0.647940	-0.668317
C103	C	1.032948	-0.614918	-0.722478
H104	H	1.179216	-0.582577	-0.662161
H105	H	1.109991	-0.576754	-0.584232
H106	H	1.131167	-0.676494	-0.704992
H107	H	1.061928	-0.670683	-0.627088
H108	H	0.995715	-0.586352	-0.685801
H109	H	1.064947	-0.592177	-0.763724
H110	H	0.996781	-0.643830	-0.754645
H111	H	1.384862	-1.016039	-0.409849
C112	C	0.755670	-0.264144	-0.358072
C113	C	0.662676	-0.269319	-0.365041
C114	C	0.618846	-0.224904	-0.304965
H115	H	0.770220	-0.222987	-0.372161
H116	H	0.774461	-0.271670	-0.298494
H117	H	0.643891	-0.261788	-0.424604
H118	H	0.648099	-0.310467	-0.350943
H119	H	0.637638	-0.232430	-0.245387
H120	H	0.633403	-0.183749	-0.319059
H121	H	0.555746	-0.228413	-0.309679
C122	C	0.938009	-0.449534	-0.608793
C123	C	0.988651	-0.418421	-0.669596
C124	C	1.032424	-0.462798	-0.729769
H125	H	0.894724	-0.473094	-0.640692
H126	H	0.976651	-0.477177	-0.576461
H127	H	0.950012	-0.390789	-0.701924
H128	H	1.031952	-0.394864	-0.637723
H129	H	1.071066	-0.490442	-0.697437
H130	H	0.989132	-0.486356	-0.761661
H131	H	1.066796	-0.441695	-0.771026
C132	C	1.401268	-0.606450	-0.395016
C133	C	1.454597	-0.649549	-0.347637
C134	C	1.515562	-0.617076	-0.293462
H135	H	1.369256	-0.577890	-0.353747
H136	H	1.438475	-0.583755	-0.431682
H137	H	1.417395	-0.672234	-0.310974
H138	H	1.486628	-0.678110	-0.388883
H139	H	1.552768	-0.594380	-0.330127
H140	H	1.483542	-0.588516	-0.252198
H141	H	1.551758	-0.646313	-0.261315
H142	H	1.164053	-1.015062	-0.606295
C143	C	1.401169	-0.743571	-0.395149
C144	C	1.388179	-0.808124	-0.406761
C145	C	1.448975	-0.841397	-0.352696
H146	H	1.391559	-0.730054	-0.333940
H147	H	1.460839	-0.735878	-0.411821
H148	H	1.328524	-0.815814	-0.390084
H149	H	1.397796	-0.821660	-0.467958
H150	H	1.508644	-0.833703	-0.369367
H151	H	1.439360	-0.827874	-0.291491
H152	H	1.440175	-0.885199	-0.360573
C153	C	1.401636	-1.144204	-0.395268
C154	C	1.489419	-1.132629	-0.420065
C155	C	1.550509	-1.165646	-0.365999
H156	H	1.393117	-1.188048	-0.402959
H157	H	1.392055	-1.130598	-0.334075
H158	H	1.498996	-1.146238	-0.481243
H159	H	1.497966	-1.088792	-0.412369
H160	H	1.540929	-1.152041	-0.304806
H161	H	1.541982	-1.209488	-0.373695
H162	H	1.610076	-1.157792	-0.382811
