data_functionalizedCrystal
_audit_creation_method	'MofGen! by Chris Wilmer'
_symmetry_space_group_name_H-M	'P1'
_symmetry_Int_Tables_number	1
_symmetry_cell_setting	triclinic
loop_
_symmetry_equiv_pos_as_xyz
  x,y,z
_cell_length_a	16.109301
_cell_length_b	10.540495
_cell_length_c	15.186229
_cell_angle_alpha	90.002857
_cell_angle_beta	89.997109
_cell_angle_gamma	83.984496
loop_
_atom_site_label
_atom_site_type_symbol
_atom_site_fract_x
_atom_site_fract_y
_atom_site_fract_z
O1	O	-1.104115	-0.163155	0.073167
O2	O	-0.862175	-0.183460	0.073180
O3	O	-0.988684	0.011481	0.073174
O4	O	-0.977606	-0.358097	0.073173
O5	O	-0.988669	0.011470	-0.073283
O6	O	-0.862160	-0.183472	-0.073277
O7	O	-1.104100	-0.163166	-0.073291
Zn8	Zn	-0.983127	-0.173321	-0.096537
Zn9	Zn	-0.983147	-0.173306	0.096427
O10	O	-0.977591	-0.358108	-0.073285
C11	C	-0.831188	-0.182644	-0.000047
C12	C	-0.738877	-0.180178	-0.000042
C13	C	-0.987853	0.058768	-0.000052
C14	C	-0.985391	0.199683	-0.000046
N15	N	-0.983120	-0.173330	-0.228230
C16	C	-1.135087	-0.163983	-0.000062
C17	C	-1.227397	-0.166449	-0.000061
C18	C	-0.517266	-0.290118	-0.000052
C19	C	-0.430532	-0.287791	-0.000058
C20	C	-0.449015	-0.056500	-0.000053
C21	C	-0.535748	-0.058828	-0.000054
C22	C	-0.569871	-0.175641	-0.000049
C23	C	-0.396404	-0.170986	-0.000054
C24	C	-0.302363	-0.168462	-0.000060
C25	C	-0.663918	-0.178165	-0.000044
C26	C	-1.075865	0.271679	-0.000053
C27	C	-1.073334	0.418258	-0.000391
C28	C	-0.936188	0.391313	-0.083522
C29	C	-0.939360	0.244818	-0.083586
C30	C	-0.938039	0.244413	0.082969
C31	C	-0.937172	0.391381	0.084060
C32	C	-0.978433	0.594608	-0.000056
C33	C	-0.980928	0.453699	-0.000058
C34	C	-1.034007	-0.250323	-0.453956
C35	C	-1.034016	-0.250314	-0.546146
C36	C	-0.932272	-0.096285	-0.546148
C37	C	-0.932268	-0.096288	-0.453960
C38	C	-0.983134	-0.173315	-0.407866
C39	C	-0.983147	-0.173302	-0.592244
C40	C	-0.983156	-0.173292	-0.692200
C41	C	-0.983126	-0.173323	-0.307904
N42	N	-0.983161	-0.173287	0.228119
H43	H	-0.545045	-0.385235	-0.000055
H44	H	-1.075425	-0.313043	-0.416429
O45	O	-0.846286	0.419589	-0.087322
H46	H	-0.816107	0.374451	-0.146872
O47	O	-0.373790	-0.411262	-0.000059
H48	H	-0.412093	-0.492874	-0.000050
O49	O	-0.412213	0.069489	-0.000052
H50	H	-0.343064	0.051878	-0.000044
O51	O	-0.877403	-0.013192	-0.404259
H52	H	-0.916876	0.055019	-0.362270
O53	O	-1.088885	-0.333370	-0.595862
H54	H	-1.071378	-0.434824	-0.578185
H55	H	-0.578582	0.034399	-0.000054
H56	H	-0.871300	0.196220	0.083772
H57	H	-0.969868	0.432849	0.145808
H58	H	-0.890858	-0.033574	-0.583689
H59	H	-0.966872	0.434303	-0.145877
H60	H	-1.108524	0.461430	0.059425
O61	O	-1.124498	0.234584	0.079214
H62	H	-1.084710	0.164429	0.119462
O63	O	-1.123771	0.232317	-0.079215
H64	H	-1.083421	0.161704	-0.118558
H65	H	-1.108360	0.460483	-0.060578
H66	H	-0.872900	0.195863	-0.087142
O67	O	-0.982635	0.208025	-0.166539
H68	H	-1.001107	0.294827	-0.206230
O69	O	-0.977898	0.203016	0.166748
H70	H	-1.043844	0.245618	0.169516
H71	H	-0.869820	0.414616	0.089357
