data_functionalizedCrystal
_audit_creation_method	'MofGen! by Chris Wilmer'
_symmetry_space_group_name_H-M	'P1'
_symmetry_Int_Tables_number	1
_symmetry_cell_setting	triclinic
loop_
_symmetry_equiv_pos_as_xyz
  x,y,z
_cell_length_a	10.654550
_cell_length_b	9.482900
_cell_length_c	10.654550
_cell_angle_alpha	80.574654
_cell_angle_beta	84.484931
_cell_angle_gamma	99.377450
loop_
_atom_site_label
_atom_site_type_symbol
_atom_site_fract_x
_atom_site_fract_y
_atom_site_fract_z
O1	O	1.687227	0.120785	0.156923
O2	O	1.321753	0.120812	0.173724
O3	O	1.512891	0.120788	-0.017414
O4	O	1.496088	0.120808	0.348061
O5	O	1.474068	-0.120999	0.021568
O6	O	1.282930	-0.120976	0.212706
O7	O	1.648404	-0.121003	0.195904
Cu8	Cu	1.462122	-0.143067	0.207865
Cu9	Cu	1.508035	0.142875	0.161764
O10	O	1.457265	-0.120980	0.387043
C11	C	1.255544	-0.000079	0.191981
C12	C	1.116102	-0.000069	0.188287
N13	N	1.429838	-0.344183	0.240289
C14	C	1.036617	-0.000067	0.300829
C15	C	0.905592	-0.000093	0.297356
C16	C	0.933551	-0.000116	0.068790
C17	C	1.064572	-0.000101	0.072266
C18	C	1.498504	-0.416390	0.171321
C19	C	1.471653	-0.583805	0.198308
C20	C	1.714613	-0.000109	0.177648
C21	C	1.854056	-0.000110	0.181340
C22	C	1.492246	-0.000105	-0.044721
C23	C	1.488554	-0.000102	-0.184165
N24	N	1.540328	0.343992	0.129331
C25	C	1.601095	-0.000110	-0.263649
C26	C	1.597621	-0.000092	-0.394673
C27	C	1.369056	-0.000065	-0.366714
C28	C	1.372533	-0.000072	-0.235695
C29	C	1.477911	-0.000084	0.414350
C30	C	1.481604	-0.000077	0.553792
H31	H	1.078566	-0.000052	0.395302
C32	C	1.746281	0.124207	-0.578248
C33	C	1.721332	-0.000099	-0.482040
H34	H	1.822664	0.124207	-0.632178
H35	H	1.676700	0.124211	-0.627688
H36	H	1.756421	0.208507	-0.540120
H37	H	1.711182	-0.084399	-0.520167
H38	H	1.790930	-0.000116	-0.432593
H39	H	1.351168	-0.406303	0.319309
C40	C	1.277835	-0.000092	-0.023892
C41	C	1.151955	-0.000102	-0.051449
H42	H	1.331777	-0.000105	-0.100263
H43	H	1.307082	0.084226	0.010030
H44	H	1.280017	-0.084408	0.037234
H45	H	1.149772	0.084220	-0.112567
H46	H	1.122701	-0.084429	-0.085389
H47	H	0.891578	-0.000150	-0.025669
C48	C	0.861365	0.124232	0.471047
C49	C	0.818222	-0.000080	0.421063
H50	H	0.807420	0.124240	0.547418
H51	H	0.946760	0.124237	0.489716
H52	H	0.859152	0.208527	0.409910
H53	H	0.820443	-0.084376	0.482197
H54	H	0.732805	-0.000098	0.402399
C55	C	1.577348	-0.369149	-0.053123
C56	C	1.604708	-0.332504	0.064658
H57	H	1.642915	-0.317344	-0.118966
H58	H	1.573267	-0.470635	-0.049008
H59	H	1.497313	-0.344297	-0.071282
H60	H	1.684739	-0.357366	0.082821
H61	H	1.608803	-0.230995	0.060544
C62	C	1.764497	-0.608449	0.049223
C63	C	1.646426	-0.571995	0.022607
H64	H	1.829961	-0.556535	-0.016677
H65	H	1.783097	-0.583613	0.129114
H66	H	1.760513	-0.709924	0.053261
H67	H	1.650407	-0.470522	0.018579
H68	H	1.627823	-0.596821	-0.057305
H69	H	1.392977	-0.645920	0.277334
C70	C	1.757553	0.124161	-0.152549
C71	C	1.728623	-0.000125	-0.207003
H72	H	1.836283	0.124148	-0.117575
H73	H	1.764987	0.208465	-0.216666
H74	H	1.691016	0.124145	-0.086458
H75	H	1.795157	-0.000103	-0.273100
H76	H	1.721199	-0.084451	-0.142880
C77	C	1.262235	-0.000059	-0.555142
C78	C	1.241526	-0.000053	-0.423358
H79	H	1.183497	-0.000065	-0.590104
H80	H	1.322148	0.084250	-0.595939
H81	H	1.295085	-0.084384	-0.568753
H82	H	1.208684	0.084278	-0.409746
H83	H	1.181591	-0.084371	-0.382548
C84	C	1.146244	-0.000059	-0.221205
C85	C	1.248817	-0.000069	-0.148313
H86	H	1.069873	-0.000062	-0.167256
H87	H	1.163178	0.084254	-0.286473
H88	H	1.136107	-0.084380	-0.259303
H89	H	1.258961	0.084258	-0.110223
H90	H	1.231881	-0.084391	-0.083023
