data_functionalizedCrystal
_audit_creation_method	'MofGen! by Chris Wilmer'
_symmetry_space_group_name_H-M	'P1'
_symmetry_Int_Tables_number	1
_symmetry_cell_setting	triclinic
loop_
_symmetry_equiv_pos_as_xyz
  x,y,z
_cell_length_a	12.827893
_cell_length_b	12.594510
_cell_length_c	12.827892
_cell_angle_alpha	90.034053
_cell_angle_beta	89.984447
_cell_angle_gamma	89.981177
loop_
_atom_site_label
_atom_site_type_symbol
_atom_site_fract_x
_atom_site_fract_y
_atom_site_fract_z
Zn1	Zn	1.597665	-0.601797	0.415934
Zn2	Zn	1.930998	-0.268464	0.749267
Zn3	Zn	2.264332	0.064870	1.082601
Zn4	Zn	1.597560	-0.423819	0.590724
Zn5	Zn	1.930894	-0.090486	0.924058
Zn6	Zn	2.264227	0.242847	1.257391
Zn7	Zn	1.422908	-0.423833	0.415998
Zn8	Zn	1.756241	-0.090500	0.749332
Zn9	Zn	2.089574	0.242834	1.082665
Zn10	Zn	1.422892	-0.601757	0.590634
Zn11	Zn	1.756225	-0.268423	0.923967
Zn12	Zn	2.089558	0.064910	1.257301
O13	O	1.510256	-0.512802	0.503323
O14	O	1.843590	-0.179468	0.836656
O15	O	2.176923	0.153865	1.169989
O16	O	1.743887	-0.578199	0.439131
O17	O	2.077220	-0.244866	0.772464
O18	O	2.410554	0.088467	1.105798
O19	O	1.574355	-0.274875	0.567611
O20	O	1.907689	0.058458	0.900945
O21	O	2.241022	0.391791	1.234278
O22	O	1.446140	-0.447463	0.269754
O23	O	1.779473	-0.114130	0.603087
O24	O	2.112807	0.219204	0.936420
O25	O	1.743810	-0.447440	0.567549
O26	O	2.077144	-0.114107	0.900882
O27	O	2.410477	0.219227	1.234215
O28	O	1.574534	-0.578212	0.269706
O29	O	1.907867	-0.244879	0.603040
O30	O	2.241200	0.088454	0.936373
O31	O	1.446039	-0.274885	0.439241
O32	O	1.779372	0.058448	0.772574
O33	O	2.112705	0.391781	1.105908
O34	O	1.276670	-0.447424	0.439153
O35	O	1.610003	-0.114090	0.772487
O36	O	1.943336	0.219243	1.105820
O37	O	1.446113	-0.750708	0.567395
O38	O	1.779446	-0.417375	0.900728
O39	O	2.112779	-0.084041	1.234062
O40	O	1.276658	-0.578143	0.567458
O41	O	1.609991	-0.244810	0.900791
O42	O	1.943324	0.088523	1.234124
O43	O	1.574518	-0.750738	0.439044
O44	O	1.907851	-0.417404	0.772377
O45	O	2.241185	-0.084071	1.105710
O46	O	1.574340	-0.447401	0.736948
O47	O	1.907673	-0.114067	1.070282
O48	O	2.241006	0.219266	1.403615
O49	O	1.446011	-0.578130	0.736882
O50	O	1.779345	-0.244797	1.070215
O51	O	2.112678	0.088536	1.403549
C52	C	1.238746	-0.512781	0.503303
C53	C	1.572080	-0.179448	0.836637
C54	C	1.905413	0.153885	1.169970
C55	C	1.122593	-0.512798	0.503320
C56	C	1.455927	-0.179465	0.836654
C57	C	1.789260	0.153869	1.169987
C58	C	0.950726	-0.448027	0.566784
C59	C	1.284060	-0.114693	0.900117
C60	C	1.617393	0.218640	1.233451
C61	C	1.070777	-0.448008	0.566768
C62	C	1.404110	-0.114675	0.900101
C63	C	1.737443	0.218659	1.233434
C64	C	1.510325	-0.790423	0.503202
C65	C	1.843659	-0.457089	0.836535
C66	C	2.176992	-0.123756	1.169869
C67	C	1.510355	-0.908728	0.503151
C68	C	1.843688	-0.575395	0.836484
C69	C	2.177021	-0.242061	1.169817
C70	C	1.580215	-0.977998	0.433335
C71	C	1.913548	-0.644664	0.766669
C72	C	2.246882	-0.311331	1.100002
C73	C	1.484905	-1.048792	0.407757
C74	C	1.818238	-0.715459	0.741090
C75	C	2.151571	-0.382126	1.074423
C76	C	1.605721	-1.048733	0.528656
C77	C	1.939054	-0.715399	0.861989
C78	C	2.272387	-0.382066	1.195323
C79	C	1.414994	-0.977965	0.477523
C80	C	1.748327	-0.644631	0.810856
C81	C	2.081660	-0.311298	1.144190
C82	C	1.535874	-0.977899	0.598467
C83	C	1.869207	-0.644565	0.931800
C84	C	2.202540	-0.311232	1.265133
C85	C	1.440498	-1.048662	0.572924
C86	C	1.773831	-0.715328	0.906258
C87	C	2.107164	-0.381995	1.239591
C88	C	1.782826	-0.512823	0.503343
C89	C	2.116160	-0.179489	0.836676
C90	C	2.449493	0.153844	1.170009
C91	C	1.898979	-0.512831	0.503351
C92	C	2.232313	-0.179498	0.836685
C93	C	2.565646	0.153835	1.170018
C94	C	1.510191	-0.512783	0.774833
C95	C	1.843524	-0.179449	1.108166
C96	C	2.176858	0.153884	1.441499
C97	C	1.510259	-0.512810	0.890986
C98	C	1.843592	-0.179477	1.224319
C99	C	2.176925	0.153856	1.557652
C100	C	1.510248	-0.236261	0.503367
C101	C	1.843581	0.097073	0.836701
C102	C	2.176914	0.430406	1.170034
C103	C	1.510421	-0.117956	0.503125
C104	C	1.843754	0.215378	0.836458
C105	C	2.177087	0.548711	1.169791
C106	C	1.510350	-0.512844	0.230753
C107	C	1.843684	-0.179510	0.564086
C108	C	2.177017	0.153823	0.897419
C109	C	1.510390	-0.512862	0.114599
C110	C	1.843724	-0.179528	0.447933
C111	C	2.177057	0.153805	0.781266
C112	C	1.573835	-0.448193	0.942769
C113	C	1.907168	-0.114860	1.276102
C114	C	2.240502	0.218474	1.609435
C115	C	1.573906	-0.448220	1.062819
C116	C	1.907240	-0.114887	1.396152
C117	C	2.240573	0.218447	1.729486
H118	H	1.639190	-0.946966	0.374260
H119	H	1.972523	-0.613633	0.707593
H120	H	2.305856	-0.280300	1.040927
O121	O	0.958006	-0.586308	0.431388
O122	O	1.291339	-0.252975	0.764721
O123	O	1.624672	0.080359	1.098055
H124	H	1.007749	-0.640333	0.478254
H125	H	1.341082	-0.307000	0.811587
H126	H	1.674416	0.026333	1.144920
O127	O	1.646013	-0.374931	1.121788
O128	O	1.979346	-0.041598	1.455121
O129	O	2.312680	0.291736	1.788455
H130	H	1.728023	-0.393237	1.100800
H131	H	2.061356	-0.059903	1.434134
H132	H	2.394689	0.273430	1.767467
H133	H	1.334348	-0.947009	0.455846
H134	H	1.667682	-0.613676	0.789179
H135	H	2.001015	-0.280343	1.122513
O136	O	1.564482	-0.936609	0.705218
O137	O	1.897816	-0.603276	1.038552
O138	O	2.231149	-0.269942	1.371885
H139	H	1.507304	-0.966152	0.763311
H140	H	1.840637	-0.632818	1.096645
H141	H	2.173971	-0.299485	1.429978
H142	H	1.628217	-0.392855	0.898228
H143	H	1.961550	-0.059521	1.231561
H144	H	2.294884	0.273812	1.564894
O145	O	1.129715	-0.374511	0.638708
O146	O	1.463048	-0.041178	0.972041
O147	O	1.796381	0.292155	1.305375
H148	H	1.108782	-0.290992	0.620717
H149	H	1.442115	0.042342	0.954050
H150	H	1.775448	0.375675	1.287383
H151	H	1.686342	-1.079822	0.550238
H152	H	2.019676	-0.746489	0.883571
H153	H	2.353009	-0.413155	1.216904
H154	H	0.906152	-0.392554	0.621098
H155	H	1.239485	-0.059221	0.954431
H156	H	1.572819	0.274112	1.287765
O157	O	1.438275	-0.586149	1.055638
O158	O	1.771609	-0.252815	1.388971
O159	O	2.104942	0.080518	1.722305
H160	H	1.485027	-0.640296	1.005831
H161	H	1.818361	-0.306963	1.339164
H162	H	2.151694	0.026370	1.672497
O163	O	1.063657	-0.586291	0.431374
O164	O	1.396990	-0.252957	0.764708
O165	O	1.730324	0.080376	1.098041
H166	H	1.084574	-0.669814	0.449368
H167	H	1.417907	-0.336481	0.782701
H168	H	1.751241	-0.003147	1.116034
O169	O	1.456336	-1.090054	0.300977
O170	O	1.789670	-0.756720	0.634310
O171	O	2.123003	-0.423387	0.967643
H172	H	1.514410	-1.061763	0.243171
H173	H	1.847744	-0.728430	0.576504
H174	H	2.181077	-0.395096	0.909837
O175	O	1.362198	-1.089521	0.651116
O176	O	1.695532	-0.756188	0.984449
O177	O	2.028865	-0.422854	1.317782
H178	H	1.283176	-1.061026	0.629686
H179	H	1.616509	-0.727693	0.963019
H180	H	1.949842	-0.394359	1.296353
O181	O	1.438224	-0.586114	0.949985
O182	O	1.771557	-0.252780	1.283318
O183	O	2.104891	0.080553	1.616652
H184	H	1.456071	-0.669683	0.929024
H185	H	1.789404	-0.336350	1.262357
H186	H	2.122738	-0.003017	1.595691
