data_functionalizedCrystal
_audit_creation_method	'MofGen! by Chris Wilmer'
_symmetry_space_group_name_H-M	'P1'
_symmetry_Int_Tables_number	1
_symmetry_cell_setting	triclinic
loop_
_symmetry_equiv_pos_as_xyz
  x,y,z
_cell_length_a	18.101395
_cell_length_b	18.101398
_cell_length_c	12.759387
_cell_angle_alpha	89.988053
_cell_angle_beta	89.966033
_cell_angle_gamma	90.026661
loop_
_atom_site_label
_atom_site_type_symbol
_atom_site_fract_x
_atom_site_fract_y
_atom_site_fract_z
Zn1	Zn	-0.294870	1.132137	-0.593798
Zn2	Zn	-0.418733	1.132028	-0.418112
Zn3	Zn	-0.294900	1.008291	-0.418156
Zn4	Zn	-0.418665	1.008247	-0.593772
O5	O	-0.356792	1.070176	-0.505959
O6	O	-0.311317	1.235755	-0.570485
O7	O	-0.402347	1.115587	-0.271097
O8	O	-0.191263	1.024784	-0.441484
O9	O	-0.402318	1.235675	-0.441410
O10	O	-0.191241	1.115773	-0.570527
O11	O	-0.311368	1.024678	-0.271129
O12	O	-0.311302	0.904652	-0.441459
O13	O	-0.402202	1.024708	-0.740797
O14	O	-0.402231	0.904620	-0.570484
O15	O	-0.311251	1.115730	-0.740816
O16	O	-0.522357	1.115544	-0.441385
O17	O	-0.522307	1.024602	-0.570441
C18	C	-0.356763	0.877765	-0.505974
C19	C	-0.356768	0.795451	-0.506005
C20	C	-0.549202	1.070077	-0.505929
C21	C	-0.631516	1.070102	-0.505950
C22	C	-0.356812	0.496360	-0.505961
C23	C	-0.414299	0.527690	-0.586739
C24	C	-0.414119	0.613308	-0.587071
C25	C	-0.356791	0.644743	-0.505983
C26	C	-0.278786	0.613689	-0.536237
C27	C	-0.279131	0.528044	-0.536812
C28	C	-0.376642	0.527905	-0.394734
C29	C	-0.378353	0.613555	-0.395329
C30	C	-0.356774	0.728602	-0.505994
C31	C	-0.356823	0.412501	-0.505953
C32	C	-0.930607	1.070265	-0.506007
C33	C	-0.899282	1.013179	-0.587407
C34	C	-0.813664	1.012908	-0.587153
C35	C	-0.782225	1.070184	-0.505980
C36	C	-0.813384	1.049052	-0.395258
C37	C	-0.899029	1.048684	-0.395745
C38	C	-0.898955	1.148607	-0.534354
C39	C	-0.813304	1.148146	-0.536782
C40	C	-0.698365	1.070140	-0.505958
C41	C	-1.014467	1.070307	-0.506022
C42	C	-0.163630	1.070295	-0.506013
C43	C	-0.081316	1.070346	-0.506036
C44	C	-0.356715	1.070226	-0.779993
C45	C	-0.356683	1.070247	-0.896770
C46	C	-0.356822	1.263338	-0.505945
C47	C	-0.356834	1.345652	-0.505939
C48	C	-0.261939	0.975590	-0.896822
C49	C	-0.214553	0.928275	-0.951709
C50	C	-0.214526	0.928297	-1.061431
C51	C	-0.261893	0.975638	-1.116268
C52	C	-0.309279	1.022953	-1.061381
C53	C	-0.309299	1.022927	-0.951657
C54	C	-0.404025	1.117606	-1.061329
C55	C	-0.404049	1.117588	-0.951607
C56	C	-0.451391	1.164946	-1.116166
C57	C	-0.498775	1.212266	-1.061279
C58	C	-0.498799	1.212243	-0.951551
C59	C	-0.451435	1.164903	-0.896720
C60	C	-0.356815	1.070168	-0.232992
C61	C	-0.356639	1.070290	-0.116216
H62	H	-0.471963	0.634302	-0.568110
H63	H	-0.451448	1.164882	-0.807379
N64	N	-0.321179	0.501067	-0.315009
H65	H	-0.322044	0.445307	-0.312372
H66	H	-0.334228	0.521559	-0.243751
N67	N	-0.927859	0.936723	-0.562855
H68	H	-0.956824	0.917358	-0.624659
H69	H	-0.960979	0.938962	-0.499208
N70	N	-0.261963	0.975568	-0.778480
H71	H	-0.299168	1.012725	-0.752031
H72	H	-0.211144	0.989192	-0.752160
H73	H	-0.175990	0.889729	-0.907048
H74	H	-0.175941	0.889768	-1.106120
H75	H	-0.791899	1.192928	-0.481814
N76	N	-0.261863	0.975653	-1.234610
H77	H	-0.248257	1.026469	-1.261045
H78	H	-0.312668	0.961978	-1.260934
H79	H	-0.472332	0.507074	-0.567990
H80	H	-0.919069	0.991416	-0.371731
H81	H	-0.261664	0.635156	-0.616665
N82	N	-0.785747	1.030410	-0.695903
H83	H	-0.754595	1.076687	-0.693640
H84	H	-0.829115	1.038336	-0.744376
N85	N	-0.926493	1.030508	-0.696514
H86	H	-0.959393	1.075529	-0.694240
H87	H	-0.955380	0.987022	-0.724446
H88	H	-0.262313	0.508085	-0.618123
N89	N	-0.454377	0.640441	-0.365046
H90	H	-0.451113	0.669955	-0.298039
H91	H	-0.488104	0.596648	-0.354097
N92	N	-0.786598	0.935993	-0.562276
H93	H	-0.830303	0.902132	-0.551426
H94	H	-0.755749	0.937322	-0.496374
H95	H	-0.451370	1.164958	-1.205507
N96	N	-0.926490	1.101364	-0.312671
H97	H	-0.882958	1.124719	-0.275892
H98	H	-0.957476	1.073422	-0.260070
N99	N	-0.450692	0.499263	-0.358305
H100	H	-0.490215	0.514847	-0.409580
H101	H	-0.462261	0.520197	-0.286792
H102	H	-0.537385	1.250775	-0.906868
N103	N	-0.397146	0.499205	-0.695276
H104	H	-0.352298	0.466095	-0.692348
H105	H	-0.386929	0.542258	-0.743521
N106	N	-0.549866	1.263313	-1.120421
H107	H	-0.542664	1.256142	-1.198257
H108	H	-0.538360	1.316211	-1.101252
N109	N	-0.396733	0.640468	-0.696235
H110	H	-0.346569	0.621623	-0.718287
H111	H	-0.396585	0.696261	-0.696836
H112	H	-0.793022	1.089322	-0.332955
H113	H	-0.234792	0.634052	-0.479237
N114	N	-0.220472	0.500585	-0.462286
H115	H	-0.194502	0.544119	-0.429210
H116	H	-0.183449	0.469669	-0.502068
H117	H	-0.791996	0.992390	-0.370813
N118	N	-0.927507	1.174130	-0.639466
H119	H	-0.955840	1.221761	-0.630428
H120	H	-0.961217	1.135113	-0.669704
N121	N	-0.326922	0.641894	-0.311316
H122	H	-0.288743	0.675499	-0.343941
H123	H	-0.301420	0.598806	-0.276427
N124	N	-0.786317	1.169256	-0.644714
H125	H	-0.730547	1.171001	-0.644992
H126	H	-0.806532	1.219435	-0.664037
N127	N	-0.925783	1.204948	-0.455826
H128	H	-0.958281	1.179889	-0.402144
H129	H	-0.955001	1.244455	-0.493279
