data_functionalizedCrystal
_audit_creation_method	'MofGen! by Chris Wilmer'
_symmetry_space_group_name_H-M	'P1'
_symmetry_Int_Tables_number	1
_symmetry_cell_setting	triclinic
loop_
_symmetry_equiv_pos_as_xyz
  x,y,z
_cell_length_a	19.121424
_cell_length_b	19.121063
_cell_length_c	12.827885
_cell_angle_alpha	92.403967
_cell_angle_beta	92.412384
_cell_angle_gamma	94.804615
loop_
_atom_site_label
_atom_site_type_symbol
_atom_site_fract_x
_atom_site_fract_y
_atom_site_fract_z
Zn1	Zn	1.063722	-0.234165	-0.538428
Zn2	Zn	1.058605	-0.351851	-0.371458
Zn3	Zn	0.946053	-0.239223	-0.371459
Zn4	Zn	0.941002	-0.356819	-0.553906
O5	O	1.002345	-0.295515	-0.458813
O6	O	1.161505	-0.245581	-0.509801
O7	O	1.043648	-0.336948	-0.225226
O8	O	0.965917	-0.140087	-0.387131
O9	O	1.157746	-0.332043	-0.387129
O10	O	1.052368	-0.136371	-0.509802
O11	O	0.960956	-0.254201	-0.225227
O12	O	0.846921	-0.259019	-0.402139
O13	O	0.957308	-0.340512	-0.698085
O14	O	0.843210	-0.345416	-0.536182
O15	O	1.047470	-0.250398	-0.686713
O16	O	1.038750	-0.450976	-0.402137
O17	O	0.952347	-0.454626	-0.536181
C18	C	0.819535	-0.303306	-0.470841
C19	C	0.741328	-0.306656	-0.476013
C20	C	0.298905	-0.327840	-0.508840
C21	C	0.372389	-0.324698	-0.503962
C22	C	0.411044	-0.278072	-0.431840
C23	C	0.376210	-0.234591	-0.364585
C24	C	0.302727	-0.237737	-0.369459
C25	C	0.633011	-0.266321	-0.413632
C26	C	0.706499	-0.263176	-0.408765
C27	C	0.702673	-0.353285	-0.548141
C28	C	0.629189	-0.356424	-0.553013
C29	C	0.594361	-0.312946	-0.485755
C30	C	0.486157	-0.274857	-0.426854
C31	C	0.519250	-0.316164	-0.490737
C32	C	0.994464	-0.478331	-0.470860
C33	C	0.991157	-0.556538	-0.476045
C34	C	1.034623	-0.591354	-0.408744
C35	C	1.031517	-0.664838	-0.413626
C36	C	0.984940	-0.703504	-0.485804
C37	C	0.941471	-0.668683	-0.553112
C38	C	0.944582	-0.595200	-0.548234
C39	C	0.973299	-0.925470	-0.504025
C40	C	0.970190	-0.998957	-0.508896
C41	C	1.060237	-0.995107	-0.369410
C42	C	1.063340	-0.921624	-0.364535
C43	C	1.019875	-0.886809	-0.431846
C44	C	0.981762	-0.778616	-0.490794
C45	C	1.023057	-0.811698	-0.426861
C46	C	1.185869	-0.287693	-0.446738
C47	C	1.264076	-0.284361	-0.441592
C48	C	1.002396	-0.295445	-0.731375
C49	C	1.002418	-0.295415	-0.847525
C50	C	1.010277	-0.111984	-0.446740
C51	C	1.013657	-0.033774	-0.441595
C52	C	1.047038	-0.250816	-0.893682
C53	C	1.047061	-0.250784	-1.013729
C54	C	1.002338	-0.295531	-0.187304
C55	C	1.002461	-0.295357	-0.071133
H56	H	0.597721	-0.394394	-0.611741
F57	F	1.096998	-0.200877	-1.065636
F58	F	0.595955	-0.220041	-0.342057
H59	H	0.517637	-0.236893	-0.368133
H60	H	1.085219	-0.212654	-0.844324
F61	F	0.891905	-0.709836	-0.629936
F62	F	1.084193	-0.550209	-0.331915
H63	H	0.964230	-0.333571	-0.896883
F64	F	1.077782	-0.701889	-0.341998
H65	H	0.932270	-1.030437	-0.567690
F66	F	0.257773	-0.377463	-0.585608
H67	H	0.731037	-0.388683	-0.602899
H68	H	0.964260	-0.333545	-1.031425
H69	H	0.737970	-0.225199	-0.350042
F70	F	0.409453	-0.370976	-0.575535
F71	F	0.927038	-0.888426	-0.575664
F72	F	0.265660	-0.191463	-0.297880
F73	F	0.417351	-0.184970	-0.287823
H74	H	0.487774	-0.354129	-0.549455
H75	H	1.101267	-0.890143	-0.305762
H76	H	1.095625	-1.023462	-0.314611
H77	H	0.909188	-0.566853	-0.603039
F78	F	1.072628	-0.770545	-0.350050
H79	H	0.943837	-0.810106	-0.549560
