data_functionalizedCrystal
_audit_creation_method	'MofGen! by Chris Wilmer'
_symmetry_space_group_name_H-M	'P1'
_symmetry_Int_Tables_number	1
_symmetry_cell_setting	triclinic
loop_
_symmetry_equiv_pos_as_xyz
  x,y,z
_cell_length_a	17.038272
_cell_length_b	16.992695
_cell_length_c	15.455301
_cell_angle_alpha	87.173129
_cell_angle_beta	87.189812
_cell_angle_gamma	90.889890
loop_
_atom_site_label
_atom_site_type_symbol
_atom_site_fract_x
_atom_site_fract_y
_atom_site_fract_z
O1	O	-1.051350	-0.174258	0.072023
O2	O	-0.718017	0.159075	0.405357
O3	O	-0.384683	0.492408	0.738690
O4	O	-0.823550	-0.171544	0.072049
O5	O	-0.490217	0.161789	0.405382
O6	O	-0.156883	0.495122	0.738716
O7	O	-0.936536	-0.058698	0.072029
O8	O	-0.603203	0.274636	0.405363
O9	O	-0.269870	0.607969	0.738696
O10	O	-0.938363	-0.287105	0.072043
O11	O	-0.605030	0.046228	0.405376
O12	O	-0.271697	0.379561	0.738710
O13	O	-0.930006	-0.052132	-0.072233
O14	O	-0.596672	0.281201	0.261100
O15	O	-0.263339	0.614535	0.594434
O16	O	-0.817019	-0.164979	-0.072213
O17	O	-0.483686	0.168354	0.261120
O18	O	-0.150353	0.501688	0.594453
O19	O	-1.044819	-0.167693	-0.072239
O20	O	-0.711486	0.165641	0.261094
O21	O	-0.378153	0.498974	0.594428
Cu22	Cu	-0.930323	-0.165736	-0.085398
Cu23	Cu	-0.596990	0.167597	0.247935
Cu24	Cu	-0.263656	0.500930	0.581268
Cu25	Cu	-0.938046	-0.173501	0.085208
Cu26	Cu	-0.604713	0.159832	0.418542
Cu27	Cu	-0.271380	0.493166	0.751875
O28	O	-0.931833	-0.280540	-0.072219
O29	O	-0.598499	0.052794	0.261114
O30	O	-0.265166	0.386127	0.594447
C31	C	-0.791002	-0.165793	-0.000079
C32	C	-0.457668	0.167541	0.333254
C33	C	-0.124335	0.500874	0.666588
C34	C	-0.703747	-0.158426	-0.000069
C35	C	-0.370414	0.174908	0.333264
C36	C	-0.037080	0.508241	0.666597
C37	C	-0.930922	-0.026045	-0.000101
C38	C	-0.597588	0.307288	0.333232
C39	C	-0.264255	0.640621	0.666565
C40	C	-0.923911	0.061466	-0.000100
C41	C	-0.590578	0.394800	0.333233
C42	C	-0.257245	0.728133	0.666566
C43	C	-1.077368	-0.173445	-0.000109
C44	C	-0.744034	0.159889	0.333224
C45	C	-0.410701	0.493222	0.666558
C46	C	-1.164623	-0.180812	-0.000113
C47	C	-0.831289	0.152521	0.333220
C48	C	-0.497956	0.485855	0.666554
C49	C	-0.657877	-0.226066	-0.000066
C50	C	-0.324543	0.107267	0.333267
C51	C	0.008790	0.440601	0.666601
C52	C	-0.575891	-0.219138	-0.000078
C53	C	-0.242558	0.114195	0.333255
C54	C	0.090776	0.447528	0.666588
C55	C	-0.539777	-0.144570	-0.000088
C56	C	-0.206444	0.188763	0.333245
C57	C	0.126889	0.522097	0.666579
C58	C	-0.585653	-0.076925	-0.000094
C59	C	-0.252320	0.256409	0.333239
C60	C	0.081013	0.589742	0.666573
C61	C	-0.667637	-0.083853	-0.000088
C62	C	-0.334304	0.249481	0.333246
C63	C	-0.000971	0.582814	0.666579
C64	C	-0.292483	-0.120095	-0.000113
C65	C	0.040851	0.213239	0.333221
C66	C	0.374184	0.546572	0.666554
C67	C	-0.210493	-0.113172	-0.000116
C68	C	0.122841	0.220162	0.333217
C69	C	0.456174	0.553495	0.666550
C70	C	-0.200736	-0.255386	-0.000102
C71	C	0.132597	0.077947	0.333231
C72	C	0.465931	0.411281	0.666564
C73	C	-0.282722	-0.262308	-0.000091
C74	C	0.050611	0.071026	0.333242
C75	C	0.383945	0.404359	0.666576
C76	C	-0.328591	-0.194662	-0.000102
C77	C	0.004742	0.138671	0.333232
C78	C	0.338076	0.472005	0.666565
C79	C	-0.455975	-0.137487	-0.000098
C80	C	-0.122642	0.195846	0.333235
C81	C	0.210692	0.529179	0.666569
C82	C	-0.412391	-0.201745	-0.000098
C83	C	-0.079058	0.131588	0.333236
C84	C	0.254275	0.464921	0.666569
C85	C	-0.937448	-0.313192	-0.000087
C86	C	-0.604114	0.020141	0.333247
C87	C	-0.270781	0.353475	0.666580
C88	C	-0.944458	-0.400704	-0.000082
C89	C	-0.611125	-0.067371	0.333251
C90	C	-0.277792	0.265963	0.666585
N91	N	-0.924896	-0.160275	-0.205394
N92	N	-0.591563	0.173058	0.127939
N93	N	-0.258230	0.506392	0.461273
C94	C	-0.991551	0.107195	-0.000109
C95	C	-0.658218	0.440528	0.333224
C96	C	-0.324884	0.773862	0.666558
C97	C	-0.984960	0.189421	-0.000100
C98	C	-0.651626	0.522754	0.333233
C99	C	-0.318293	0.856088	0.666567
C100	C	-0.910728	0.225917	-0.000089
C101	C	-0.577394	0.559250	0.333245
C102	C	-0.244061	0.892583	0.666578
C103	C	-0.843083	0.180182	-0.000078
C104	C	-0.509750	0.513515	0.333256
C105	C	-0.176416	0.846848	0.666589
C106	C	-0.849675	0.097957	-0.000080
C107	C	-0.516342	0.431290	0.333253
C108	C	-0.183009	0.764624	0.666586
C109	C	-0.883406	0.471336	-0.000074
C110	C	-0.550072	0.804670	0.333260
C111	C	-0.216739	1.138003	0.666593
C112	C	-0.876819	0.553567	-0.000073
C113	C	-0.543485	0.886901	0.333260
C114	C	-0.210152	1.220234	0.666593
C115	C	-1.018696	0.562801	-0.000094
C116	C	-0.685363	0.896134	0.333239
C117	C	-0.352029	1.229468	0.666572
C118	C	-1.025281	0.480574	-0.000102
C119	C	-0.691948	0.813908	0.333231
C120	C	-0.358615	1.147241	0.666565
C121	C	-0.957637	0.434846	-0.000086
C122	C	-0.624304	0.768180	0.333247
C123	C	-0.290970	1.101513	0.666580
N124	N	-0.903989	0.309965	-0.000082
N125	N	-0.570655	0.643298	0.333251
N126	N	-0.237322	0.976632	0.666584
N127	N	-0.964377	0.350800	-0.000087
N128	N	-0.631044	0.684133	0.333247
N129	N	-0.297710	1.017466	0.666580
C130	C	-0.973445	-0.209171	-0.250787
C131	C	-0.640112	0.124163	0.082546
C132	C	-0.306778	0.457496	0.415880
C133	C	-0.969351	-0.205036	-0.341595
C134	C	-0.636018	0.128297	-0.008262
C135	C	-0.302685	0.461630	0.325072
C136	C	-0.916705	-0.152010	-0.387008
C137	C	-0.583371	0.181324	-0.053675
C138	C	-0.250038	0.514657	0.279658
C139	C	-0.868154	-0.103109	-0.341609
C140	C	-0.534821	0.230225	-0.008276
C141	C	-0.201488	0.563558	0.325058
C142	C	-0.872252	-0.107240	-0.250803
C143	C	-0.538919	0.226094	0.082531
C144	C	-0.205586	0.559427	0.415864
C145	C	-0.899026	-0.134186	-0.658590
C146	C	-0.565693	0.199147	-0.325257
C147	C	-0.232360	0.532480	0.008076
C148	C	-0.894930	-0.130061	-0.749403
C149	C	-0.561597	0.203273	-0.416070
C150	C	-0.228263	0.536606	-0.082736
C151	C	-0.996129	-0.231988	-0.749383
C152	C	-0.662795	0.101346	-0.416049
C153	C	-0.329462	0.434679	-0.082716
C154	C	-1.000219	-0.236117	-0.658575
C155	C	-0.666885	0.097216	-0.325241
C156	C	-0.333552	0.430549	0.008092
C157	C	-0.951671	-0.187214	-0.613183
C158	C	-0.618338	0.146120	-0.279850
C159	C	-0.285005	0.479453	0.053483
N160	N	-0.912517	-0.147784	-0.479829
N161	N	-0.579184	0.185549	-0.146495
N162	N	-0.245851	0.518883	0.186838
N163	N	-0.955863	-0.191436	-0.520364
N164	N	-0.622530	0.141898	-0.187031
N165	N	-0.289196	0.475231	0.146302
N166	N	-0.943478	-0.178956	0.205204
N167	N	-0.610145	0.154377	0.538537
N168	N	-0.276812	0.487710	0.871871
H169	H	-0.687274	-0.286787	-0.000058
H170	H	-0.353941	0.046546	0.333276
H171	H	-0.020608	0.379879	0.666609
Cl172	Cl	-1.057157	-0.293461	-0.806451
Cl173	Cl	-0.723824	0.039872	-0.473118
Cl174	Cl	-0.390490	0.373206	-0.139785
Cl175	Cl	-0.837965	-0.072736	-0.601538
Cl176	Cl	-0.504632	0.260598	-0.268205
Cl177	Cl	-0.171299	0.593931	0.065128
Cl178	Cl	-1.066374	-0.302814	-0.601490
Cl179	Cl	-0.733041	0.030520	-0.268157
Cl180	Cl	-0.399707	0.363853	0.065176
Cl181	Cl	-0.764639	0.040469	-0.000066
Cl182	Cl	-0.431305	0.373802	0.333267
Cl183	Cl	-0.097972	0.707135	0.666600
H184	H	-0.852055	-0.086880	-0.786376
H185	H	-0.518721	0.246453	-0.453043
H186	H	-0.185388	0.579787	-0.119709
H187	H	-1.073768	0.600041	-0.000105
H188	H	-0.740435	0.933375	0.333228
H189	H	-0.407101	1.266708	0.666561
H190	H	-0.828324	0.434114	-0.000061
H191	H	-0.494991	0.767448	0.333272
H192	H	-0.161658	1.100781	0.666606
Cl193	Cl	-1.030385	-0.266510	-0.398657
Cl194	Cl	-0.697052	0.066824	-0.065323
Cl195	Cl	-0.363719	0.400157	0.268010
Cl196	Cl	-0.749763	0.226062	-0.000053
Cl197	Cl	-0.416429	0.559395	0.333281
Cl198	Cl	-0.083096	0.892728	0.666614
H199	H	-0.825292	-0.059929	-0.378592
H200	H	-0.491959	0.273404	-0.045258
H201	H	-0.158625	0.606737	0.288075
Cl202	Cl	-0.165093	-0.019421	-0.000148
Cl203	Cl	0.168240	0.313912	0.333186
Cl204	Cl	0.501574	0.647246	0.666519
H205	H	-0.538547	-0.274218	-0.000075
H206	H	-0.205213	0.059115	0.333259
H207	H	0.128120	0.392448	0.666592
H208	H	-1.016311	-0.252355	-0.213818
H209	H	-0.682978	0.080978	0.119515
H210	H	-0.349644	0.414312	0.452849
H211	H	-0.832719	-0.067424	-0.213845
H212	H	-0.499385	0.265910	0.119489
H213	H	-0.166052	0.599243	0.452822
H214	H	-0.163381	-0.310459	-0.000096
H215	H	0.169952	0.022875	0.333238
H216	H	0.503286	0.356208	0.666571
Cl217	Cl	-0.328116	-0.356055	-0.000073
Cl218	Cl	0.005217	-0.022721	0.333260
Cl219	Cl	0.338550	0.310612	0.666593
Cl220	Cl	-0.350136	-0.035053	-0.000125
Cl221	Cl	-0.016802	0.298280	0.333208
Cl222	Cl	0.316531	0.631613	0.666542
H223	H	-0.704984	-0.028773	-0.000090
H224	H	-0.371651	0.304561	0.333243
H225	H	-0.038318	0.637894	0.666577
Cl226	Cl	-0.457793	-0.295485	-0.000089
Cl227	Cl	-0.124459	0.037849	0.333245
Cl228	Cl	0.208874	0.371182	0.666578
Cl229	Cl	-0.540253	0.016819	-0.000111
Cl230	Cl	-0.206919	0.350152	0.333222
Cl231	Cl	0.126414	0.683486	0.666555
H232	H	-1.040039	0.226650	-0.000109
H233	H	-0.706706	0.559984	0.333225
H234	H	-0.373373	0.893317	0.666558
H235	H	-0.426561	-0.076772	-0.000130
H236	H	-0.093227	0.256561	0.333203
H237	H	0.240106	0.589894	0.666536
H238	H	-1.085729	0.450866	-0.000111
H239	H	-0.752395	0.784199	0.333222
H240	H	-0.419062	1.117532	0.666555
Cl241	Cl	-0.783491	0.599447	-0.000065
Cl242	Cl	-0.450158	0.932780	0.333269
Cl243	Cl	-0.116824	1.266113	0.666602
Cl244	Cl	-1.084876	0.061324	-0.000132
Cl245	Cl	-0.751542	0.394657	0.333201
Cl246	Cl	-0.418209	0.727990	0.666535
