data_functionalizedCrystal
_audit_creation_method	'MofGen! by Chris Wilmer'
_symmetry_space_group_name_H-M	'P1'
_symmetry_Int_Tables_number	1
_symmetry_cell_setting	triclinic
loop_
_symmetry_equiv_pos_as_xyz
  x,y,z
_cell_length_a	17.699077
_cell_length_b	14.853567
_cell_length_c	16.176319
_cell_angle_alpha	89.999649
_cell_angle_beta	90.005422
_cell_angle_gamma	83.457753
loop_
_atom_site_label
_atom_site_type_symbol
_atom_site_fract_x
_atom_site_fract_y
_atom_site_fract_z
O1	O	1.004376	0.113978	0.068729
O2	O	1.504376	0.613978	0.568729
O3	O	0.784036	0.128817	0.068732
O4	O	1.284036	0.628817	0.568732
O5	O	0.900092	-0.009854	0.068733
O6	O	1.400092	0.490146	0.568733
O7	O	0.888320	0.252649	0.068728
O8	O	1.388320	0.752649	0.568728
O9	O	0.900078	-0.009854	-0.068761
O10	O	1.400078	0.490146	0.431239
O11	O	0.784022	0.128816	-0.068761
O12	O	1.284022	0.628816	0.431239
O13	O	1.004363	0.113978	-0.068765
O14	O	1.504363	0.613978	0.431235
Cu15	Cu	0.894191	0.121397	-0.081317
Cu16	Cu	1.394191	0.621397	0.418683
Cu17	Cu	0.894207	0.121398	0.081284
Cu18	Cu	1.394207	0.621398	0.581284
O19	O	0.888307	0.252649	-0.068765
O20	O	1.388307	0.752649	0.431235
C21	C	0.755830	0.128286	-0.000014
C22	C	1.255830	0.628286	0.499986
C23	C	0.671808	0.126694	-0.000013
C24	C	1.171808	0.626694	0.499987
C25	C	0.632331	0.125943	-0.074961
C26	C	1.132331	0.625943	0.425039
C27	C	0.553385	0.124432	-0.074962
C28	C	1.053385	0.624432	0.425038
C29	C	0.513916	0.123679	-0.000014
C30	C	1.013916	0.623679	0.499986
C31	C	0.553398	0.124427	0.074941
C32	C	1.053398	0.624427	0.574941
C33	C	0.632344	0.125931	0.074941
C34	C	1.132344	0.625931	0.574941
C35	C	0.235019	0.118360	0.074942
C36	C	0.735019	0.618360	0.574942
C37	C	0.156068	0.116858	0.074937
C38	C	0.656068	0.616858	0.574937
C39	C	0.156060	0.116861	-0.074960
C40	C	0.656060	0.616861	0.425040
C41	C	0.235006	0.118365	-0.074960
C42	C	0.735006	0.618365	0.425040
C43	C	0.274482	0.119108	-0.000007
C44	C	0.774482	0.619108	0.499993
C45	C	0.360085	0.120745	-0.000007
C46	C	0.860085	0.620745	0.499993
C47	C	0.428314	0.122049	-0.000013
C48	C	0.928314	0.622049	0.499987
C49	C	0.899551	-0.043441	-0.000012
C50	C	1.399551	0.456559	0.499988
C51	C	0.897953	-0.143519	-0.000004
C52	C	1.397953	0.356481	0.499996
C53	C	0.822257	-0.555772	-0.000019
C54	C	1.322257	-0.055772	0.499981
C55	C	0.960134	-0.577564	-0.000021
C56	C	1.460134	-0.077564	0.499979
C57	C	0.961637	-0.483536	-0.000016
C58	C	1.461637	0.016464	0.499984
C59	C	0.893449	-0.425621	-0.000014
C60	C	1.393449	0.074379	0.499986
C61	C	0.823758	-0.461735	-0.000017
C62	C	1.323758	0.038265	0.499983
C63	C	1.031327	-0.447415	-0.000022
C64	C	1.531327	0.052585	0.499978
C65	C	1.032832	-0.353382	-0.000018
C66	C	1.532832	0.146618	0.499982
C67	C	0.964643	-0.295465	-0.000010
C68	C	1.464643	0.204535	0.499990
C69	C	0.894950	-0.331584	-0.000012
C70	C	1.394950	0.168416	0.499988
C71	C	0.826761	-0.273669	-0.000009
C72	C	1.326761	0.226331	0.499991
C73	C	0.757067	-0.309786	-0.000005
C74	C	1.257067	0.190214	0.499995
C75	C	0.755569	-0.403818	-0.000009
C76	C	1.255569	0.096182	0.499991
C77	C	0.966141	-0.201433	-0.000006
C78	C	1.466141	0.298567	0.499994
C79	C	0.828262	-0.179632	-0.000007
C80	C	1.328262	0.320368	0.499993
C81	C	1.032568	0.114509	-0.000017
C82	C	1.532568	0.614509	0.499983
C83	C	1.116590	0.116101	-0.000013
C84	C	1.616590	0.616101	0.499987
C85	C	0.888847	0.286236	-0.000019
C86	C	1.388847	0.786236	0.499981
C87	C	0.890445	0.386313	-0.000021
C88	C	1.390445	0.886313	0.499979
N89	N	0.894185	0.121396	-0.195682
N90	N	1.394185	0.621396	0.304318
C91	C	0.940142	0.176008	-0.238945
C92	C	1.440142	0.676008	0.261055
C93	C	0.940150	0.176004	-0.325492
C94	C	1.440150	0.676004	0.174508
C95	C	0.894197	0.121394	-0.368775
C96	C	1.394197	0.621394	0.131225
C97	C	0.848238	0.066776	-0.325507
C98	C	1.348238	0.566776	0.174493
C99	C	0.848235	0.066775	-0.238961
C100	C	1.348235	0.566775	0.261039
C101	C	0.848252	0.066777	-0.674535
C102	C	1.348252	0.566777	-0.174535
C103	C	0.848258	0.066784	-0.761086
C104	C	1.348258	0.566784	-0.261086
C105	C	0.940168	0.176006	-0.761066
C106	C	1.440168	0.676006	-0.261066
C107	C	0.940164	0.176005	-0.674520
C108	C	1.440164	0.676005	-0.174520
C109	C	0.894209	0.121385	-0.631259
C110	C	1.394209	0.621385	-0.131259
C111	C	0.894202	0.121388	-0.537415
C112	C	1.394202	0.621388	-0.037415
C113	C	0.894200	0.121395	-0.462618
C114	C	1.394200	0.621395	0.037382
N115	N	0.894219	0.121391	0.195650
N116	N	1.394219	0.621391	0.695650
H117	H	0.521257	0.123807	0.135965
H118	H	1.021257	0.623807	0.635965
N119	N	0.798702	0.007868	-0.807773
N120	N	1.298702	0.507868	-0.307773
H121	H	0.761695	0.047170	-0.843685
H122	H	1.261695	0.547170	-0.343685
H123	H	0.769643	-0.026729	-0.767183
H124	H	1.269643	0.473271	-0.267183
H125	H	0.977581	0.220478	-0.639283
H126	H	1.477581	0.720478	-0.139283
N127	N	0.674898	0.126765	-0.155799
N128	N	1.174898	0.626765	0.344201
H129	H	0.637907	0.126059	-0.203278
H130	H	1.137907	0.626059	0.296722
H131	H	0.713734	0.071524	-0.159066
H132	H	1.213734	0.571524	0.340934
H133	H	0.521248	0.123806	-0.135993
H134	H	1.021248	0.623806	0.364007
N135	N	1.033671	-0.640033	-0.000023
N136	N	1.533671	-0.140033	0.499977
H137	H	1.064076	-0.628441	0.050948
H138	H	1.564076	-0.128441	0.550948
H139	H	1.064009	-0.628403	-0.051024
H140	H	1.564009	-0.128403	0.448976
N141	N	0.277575	0.119188	-0.155797
N142	N	0.777575	0.619188	0.344203
H143	H	0.240587	0.118482	-0.203278
H144	H	0.740587	0.618482	0.296722
H145	H	0.316411	0.063946	-0.159061
H146	H	0.816411	0.563946	0.340939
N147	N	0.798669	0.007889	-0.627884
N148	N	1.298669	0.507889	-0.127884
H149	H	0.805635	0.016172	-0.566490
H150	H	1.305635	0.516172	-0.066490
H151	H	0.813547	-0.057705	-0.643009
H152	H	1.313547	0.442295	-0.143009
H153	H	0.698827	-0.433234	-0.000006
H154	H	1.198827	0.066766	0.499994
H155	H	1.086842	-0.494576	-0.000031
H156	H	1.586842	0.005424	0.499969
H157	H	1.022885	-0.172031	-0.000015
H158	H	1.522885	0.327969	0.499985
H159	H	0.977589	0.220479	-0.796299
H160	H	1.477589	0.720479	-0.296299
N161	N	0.683522	-0.247318	-0.000024
N162	N	1.183522	0.252682	0.499976
H163	H	0.695054	-0.182271	-0.000032
H164	H	1.195054	0.317729	0.499968
H165	H	0.653151	-0.258981	0.050944
H166	H	1.153151	0.241019	0.550944
N167	N	0.754719	-0.117161	-0.000005
N168	N	1.254719	0.382839	0.499995
H169	H	0.724324	-0.128758	0.050965
H170	H	1.224324	0.371242	0.550965
H171	H	0.724373	-0.128788	-0.051007
H172	H	1.224373	0.371212	0.448993
N173	N	0.113482	0.116058	-0.155806
N174	N	0.613482	0.616058	0.344194
H175	H	0.057353	0.116246	-0.144442
H176	H	0.557353	0.616246	0.355558
H177	H	0.132638	0.059823	-0.188038
H178	H	0.632638	0.559823	0.311962
H179	H	0.810826	0.022307	-0.360755
H180	H	1.310826	0.522307	0.139245
H181	H	0.123935	0.116244	0.135972
H182	H	0.623935	0.616244	0.635972
N183	N	0.747089	-0.594718	-0.000010
N184	N	1.247089	-0.094718	0.499990
H185	H	0.756481	-0.663075	-0.000010
H186	H	1.256481	-0.163075	0.499990
H187	H	0.717242	-0.573521	-0.050980
H188	H	1.217242	-0.073521	0.449020
N189	N	0.798670	0.007868	-0.192298
N190	N	1.298670	0.507868	0.307702
H191	H	0.743622	0.025731	-0.207363
H192	H	1.243622	0.525731	0.292637
H193	H	0.805708	0.016175	-0.130920
H194	H	1.305708	0.516175	0.369080
H195	H	1.089582	-0.323984	-0.000020
H196	H	1.589582	0.176016	0.499980
N197	N	0.277582	0.119159	0.155787
N198	N	0.777582	0.619159	0.655787
H199	H	0.257764	0.174762	0.188553
H200	H	0.757764	0.674762	0.688553
H201	H	0.333575	0.120186	0.144360
H202	H	0.833575	0.620186	0.644360
N203	N	0.674927	0.126733	0.155777
N204	N	1.174927	0.626733	0.655777
H205	H	0.637946	0.126028	0.203258
H206	H	1.137946	0.626028	0.703258
H207	H	0.701605	0.183221	0.159045
H208	H	1.201605	0.683221	0.659045
H209	H	0.977558	0.220483	-0.203710
H210	H	1.477558	0.720483	0.296290
H211	H	0.977574	0.220472	-0.360712
H212	H	1.477574	0.720472	0.139288
