data_functionalizedCrystal
_audit_creation_method	'MofGen! by Chris Wilmer'
_symmetry_space_group_name_H-M	'P1'
_symmetry_Int_Tables_number	1
_symmetry_cell_setting	triclinic
loop_
_symmetry_equiv_pos_as_xyz
  x,y,z
_cell_length_a	14.971486
_cell_length_b	11.792241
_cell_length_c	14.048226
_cell_angle_alpha	89.993434
_cell_angle_beta	89.998499
_cell_angle_gamma	83.903772
loop_
_atom_site_label
_atom_site_type_symbol
_atom_site_fract_x
_atom_site_fract_y
_atom_site_fract_z
O1	O	1.187540	0.147909	-0.079051
O2	O	1.687540	0.647909	0.420949
O3	O	0.927210	0.165622	-0.079077
O4	O	1.427210	0.665622	0.420923
O5	O	1.063692	-0.008446	-0.079057
O6	O	1.563692	0.491554	0.420943
O7	O	1.051058	0.321977	-0.079072
O8	O	1.551058	0.821977	0.420928
O9	O	1.063676	-0.008456	0.079264
O10	O	1.563676	0.491544	0.579264
O11	O	0.927194	0.165611	0.079244
O12	O	1.427194	0.665611	0.579244
O13	O	1.187523	0.147899	0.079270
O14	O	1.687523	0.647899	0.579270
Zn15	Zn	1.057356	0.156753	0.104394
Zn16	Zn	1.557356	0.656753	0.604394
Zn17	Zn	1.057378	0.156767	-0.104201
Zn18	Zn	1.557378	0.656767	0.395799
O19	O	1.051041	0.321966	0.079250
O20	O	1.551041	0.821966	0.579250
C21	C	0.893874	0.164824	0.000080
C22	C	1.393874	0.664824	0.500080
C23	C	0.794568	0.162451	0.000070
C24	C	1.294568	0.662451	0.500070
C25	C	0.737752	0.264710	0.000067
C26	C	1.237752	0.764710	0.500067
C27	C	0.644444	0.262473	0.000081
C28	C	1.144444	0.762473	0.500081
C29	C	0.607953	0.157975	0.000092
C30	C	1.107953	0.657975	0.500092
C31	C	0.664776	0.055707	0.000098
C32	C	1.164776	0.555707	0.500098
C33	C	0.758082	0.057946	0.000091
C34	C	1.258082	0.557946	0.500091
C35	C	0.470294	0.051049	0.000111
C36	C	0.970294	0.551049	0.500111
C37	C	0.376981	0.048810	0.000117
C38	C	0.876981	0.548810	0.500117
C39	C	0.356656	0.255577	0.000102
C40	C	0.856656	0.755577	0.500102
C41	C	0.449963	0.257815	0.000095
C42	C	0.949963	0.757815	0.500095
C43	C	0.506779	0.155547	0.000099
C44	C	1.006779	0.655547	0.500099
C45	C	1.062891	-0.050737	0.000103
C46	C	1.562891	0.449263	0.500103
C47	C	1.060515	-0.176735	0.000102
C48	C	1.560515	0.323265	0.500102
C49	C	1.056147	-0.407419	0.000086
C50	C	1.556147	0.092581	0.500086
C51	C	1.058574	-0.279050	0.000095
C52	C	1.558574	0.220950	0.500095
C53	C	1.220859	0.148696	0.000110
C54	C	1.720859	0.648696	0.500110
C55	C	1.320166	0.151070	0.000114
C56	C	1.820166	0.651070	0.500114
C57	C	1.051843	0.364257	0.000087
C58	C	1.551843	0.864257	0.500087
C59	C	1.054218	0.490256	0.000082
C60	C	1.554218	0.990256	0.500082
N61	N	1.057347	0.156744	0.246754
N62	N	1.557347	0.656744	0.746754
N63	N	1.057393	0.156768	-0.246562
N64	N	1.557393	0.656768	0.253438
C65	C	1.117801	0.079698	0.296582
C66	C	1.617801	0.579698	0.796582
C67	C	1.117807	0.079698	0.396239
C68	C	1.617807	0.579698	0.896239
C69	C	1.057363	0.156749	0.446068
C70	C	1.557363	0.656749	0.946068
C71	C	0.996903	0.233797	0.396234
C72	C	1.496903	0.733797	0.896234
C73	C	0.996894	0.233792	0.296578
C74	C	1.496894	0.733792	0.796578
C75	C	0.996929	0.233806	0.603948
C76	C	1.496929	0.733806	1.103948
C77	C	0.996940	0.233813	0.703611
C78	C	1.496940	0.733813	1.203611
C79	C	1.117843	0.079712	0.703609
C80	C	1.617843	0.579712	1.203609
C81	C	1.117833	0.079706	0.603953
C82	C	1.617833	0.579706	1.103953
C83	C	1.057374	0.156757	0.554126
C84	C	1.557374	0.656757	1.054126
H85	H	0.479670	0.342907	0.000077
H86	H	0.979670	0.842907	0.500077
H87	H	1.167032	0.016961	0.436808
H88	H	1.667032	0.516961	0.936808
H89	H	1.167055	0.016971	0.563383
H90	H	1.667055	0.516971	1.063383
H91	H	1.167070	0.016974	0.744184
H92	H	1.667070	0.516974	1.244184
H93	H	0.947665	0.296528	0.256010
H94	H	1.447665	0.796528	0.756010
H95	H	0.947694	0.296545	0.563382
H96	H	1.447694	0.796545	1.063382
H97	H	1.167025	0.016959	0.256017
H98	H	1.667025	0.516959	0.756017
H99	H	0.598187	0.345744	0.000078
H100	H	1.098187	0.845744	0.500078
C101	C	0.930443	0.318566	0.758421
C102	C	1.430443	0.818566	1.258421
N103	N	0.880356	0.382402	0.799703
N104	N	1.380356	0.882402	1.299703
C105	C	0.336844	-0.066143	0.000131
C106	C	0.836844	0.433857	0.500131
N107	N	0.306612	-0.152728	0.000140
N108	N	0.806612	0.347272	0.500140
C109	C	0.532791	-0.061452	0.000112
C110	C	1.032791	0.438548	0.500112
N111	N	0.579863	-0.146187	0.000107
N112	N	1.079863	0.353813	0.500107
H113	H	0.947684	0.296530	0.436810
H114	H	1.447684	0.796530	0.936810
H115	H	0.635057	-0.029377	0.000120
H116	H	1.135057	0.470623	0.500120
C117	C	0.777883	0.379669	0.000057
C118	C	1.277883	0.879669	0.500057
N119	N	0.808106	0.466259	0.000054
N120	N	1.308106	0.966259	0.500054
H121	H	0.310391	0.338847	0.000103
H122	H	0.810391	0.838847	0.500103
C123	C	0.820580	-0.054548	0.000091
C124	C	1.320580	0.445452	0.500091
N125	N	0.867652	-0.139283	0.000094
N126	N	1.367652	0.360717	0.500094
