data_functionalizedCrystal
_audit_creation_method	'MofGen! by Chris Wilmer'
_symmetry_space_group_name_H-M	'P1'
_symmetry_Int_Tables_number	1
_symmetry_cell_setting	triclinic
loop_
_symmetry_equiv_pos_as_xyz
  x,y,z
_cell_length_a	19.188925
_cell_length_b	19.188930
_cell_length_c	9.730217
_cell_angle_alpha	89.991643
_cell_angle_beta	89.997646
_cell_angle_gamma	83.143665
loop_
_atom_site_label
_atom_site_type_symbol
_atom_site_fract_x
_atom_site_fract_y
_atom_site_fract_z
O1	O	0.926144	0.087148	-0.114335
O2	O	0.722832	0.098887	-0.114333
O3	O	0.830355	-0.008638	-0.114307
O4	O	0.818621	0.194673	-0.114361
O5	O	0.830352	-0.008639	0.114273
O6	O	0.722829	0.098886	0.114247
O7	O	0.926141	0.087147	0.114245
Zn8	Zn	0.824485	0.093016	0.150538
Zn9	Zn	0.824489	0.093018	-0.150626
O10	O	0.818618	0.194672	0.114219
C11	C	0.696820	0.098507	-0.000043
C12	C	0.619315	0.097367	-0.000041
C13	C	0.057545	0.152831	-0.000059
C14	C	0.130368	0.153908	-0.000066
C15	C	0.175302	0.090816	-0.000047
C16	C	0.147408	0.026642	-0.000056
C17	C	0.074586	0.025568	-0.000062
N18	N	0.295978	0.045139	0.077775
N19	N	0.365156	0.046164	0.077784
C20	C	0.394712	0.094050	-0.000032
N21	N	0.352475	0.140882	-0.077839
N22	N	0.283291	0.139859	-0.077842
C23	C	0.254267	0.091974	-0.000041
C24	C	0.501561	0.159386	-0.000041
C25	C	0.574385	0.160460	-0.000058
C26	C	0.591425	0.033193	-0.000033
C27	C	0.518601	0.032121	-0.000031
C28	C	0.473673	0.095220	-0.000028
C29	C	0.829974	-0.034650	-0.000013
C30	C	0.828833	-0.112154	-0.000001
C31	C	0.891924	-0.157079	0.000005
C32	C	0.890852	-0.229903	-0.000017
C33	C	0.826686	-0.257799	-0.000018
C34	C	0.763587	-0.212864	-0.000032
C35	C	0.764660	-0.140041	-0.000023
N36	N	0.777638	-0.365803	0.077773
N37	N	0.776622	-0.434982	0.077768
C38	C	0.823448	-0.477207	-0.000046
N39	N	0.871338	-0.447642	-0.077837
N40	N	0.872356	-0.378458	-0.077826
C41	C	0.825515	-0.336761	-0.000028
C42	C	0.885381	-0.601097	-0.000065
C43	C	0.884307	-0.673922	-0.000096
C44	C	0.757040	-0.656880	-0.000096
C45	C	0.758116	-0.584057	-0.000080
C46	C	0.822289	-0.556170	-0.000058
C47	C	0.952154	0.087527	-0.000049
C48	C	1.029658	0.088666	-0.000059
C49	C	0.819000	0.220684	-0.000078
C50	C	0.820140	0.298188	-0.000099
N51	N	0.824487	0.093015	0.356075
N52	N	0.824492	0.093013	-0.356163
C53	C	0.919737	-0.002171	0.356088
C54	C	0.967366	-0.049762	0.428035
C55	C	0.967374	-0.049763	0.571915
C56	C	0.919744	-0.002168	0.643851
C57	C	0.872115	0.045423	0.571904
C58	C	0.872114	0.045419	0.428021
C59	C	0.776862	0.140604	0.571891
C60	C	0.776858	0.140609	0.428011
C61	C	0.729233	0.188199	0.643827
C62	C	0.681606	0.235794	0.571880
C63	C	0.681601	0.235793	0.427992
C64	C	0.729228	0.188200	0.356064
H65	H	0.183999	-0.024728	-0.000044
H66	H	1.006145	-0.088514	0.369452
O67	O	0.919753	-0.002169	0.799036
H68	H	0.908758	-0.054303	0.836991
H69	H	0.937635	-0.578390	-0.000054
O70	O	0.009085	0.220884	-0.000067
H71	H	0.040716	0.265684	-0.000078
O72	O	0.958905	-0.278368	0.000003
H73	H	0.961444	-0.311961	0.093166
H74	H	1.006155	-0.088518	0.630494
H75	H	0.706740	-0.547478	-0.000077
O76	O	0.952358	-0.722383	-0.000078
H77	H	0.997158	-0.690753	-0.000044
O78	O	0.729241	0.188207	0.799012
H79	H	0.770367	0.147125	0.836959
O80	O	0.160459	0.223116	-0.000045
H81	H	0.116984	0.266811	-0.000033
H82	H	0.711342	-0.235581	-0.000035
O83	O	0.630215	0.287116	0.350403
H84	H	0.638203	0.279117	0.238267
H85	H	0.642827	0.274539	0.630460
O86	O	0.687828	-0.686955	-0.000091
H87	H	0.697680	-0.745141	-0.000086
O88	O	0.729216	0.188196	0.200879
H89	H	0.770331	0.147102	0.162951
O90	O	0.696610	-0.091579	-0.000006
H91	H	0.651809	-0.123207	-0.000000
H92	H	0.464978	0.210765	-0.000042
O93	O	0.044506	-0.043643	-0.000037
H94	H	0.062573	-0.073953	-0.093189
O95	O	0.604468	0.229670	-0.000039
H96	H	0.560990	0.273362	-0.000019
O97	O	0.639878	-0.034860	-0.000007
H98	H	0.695202	-0.023335	0.000007
O99	O	0.488516	-0.037086	0.000002
H100	H	0.531994	-0.080779	0.000030
H101	H	0.919742	-0.002170	0.238934
H102	H	0.944179	-0.134379	0.000018
