data_functionalizedCrystal
_audit_creation_method	'MofGen! by Chris Wilmer'
_symmetry_space_group_name_H-M	'P1'
_symmetry_Int_Tables_number	1
_symmetry_cell_setting	triclinic
loop_
_symmetry_equiv_pos_as_xyz
  x,y,z
_cell_length_a	20.453700
_cell_length_b	19.453067
_cell_length_c	17.329378
_cell_angle_alpha	87.724588
_cell_angle_beta	76.974442
_cell_angle_gamma	101.708464
loop_
_atom_site_label
_atom_site_type_symbol
_atom_site_fract_x
_atom_site_fract_y
_atom_site_fract_z
V1	V	-1.334264	-0.082806	0.245338
O2	O	-1.333266	0.018749	0.240295
O3	O	-1.315260	-0.178396	0.244019
O4	O	-1.315967	-0.075052	0.352175
O5	O	-1.332554	-0.085311	0.131390
V6	V	-1.496125	-0.071425	0.231665
O7	O	-1.419842	-0.107772	0.275330
O8	O	-1.560612	-0.046459	0.201673
O9	O	-1.440727	0.024165	0.232984
O10	O	-1.536255	-0.172980	0.236709
O11	O	-1.536967	-0.068920	0.345613
O12	O	-1.440020	-0.079179	0.124829
V13	V	-1.000930	-0.082806	0.245338
O14	O	-0.999933	0.018749	0.240295
O15	O	-0.981927	-0.178396	0.244019
O16	O	-0.982634	-0.075052	0.352175
O17	O	-0.999221	-0.085311	0.131390
V18	V	-1.162792	-0.071425	0.231665
O19	O	-1.086509	-0.107772	0.275330
O20	O	-1.227279	-0.046459	0.201673
O21	O	-1.107393	0.024165	0.232984
O22	O	-1.202922	-0.172980	0.236709
O23	O	-1.203634	-0.068920	0.345613
O24	O	-1.106686	-0.079179	0.124829
C25	C	-1.262965	-0.201901	0.240241
C26	C	-1.274509	-0.280005	0.239875
V27	V	-0.667597	-0.082806	0.245338
O28	O	-0.666600	0.018749	0.240295
O29	O	-0.648593	-0.178396	0.244019
O30	O	-0.649301	-0.075052	0.352175
O31	O	-0.665887	-0.085311	0.131390
V32	V	-0.829459	-0.071425	0.231665
O33	O	-0.753176	-0.107772	0.275330
O34	O	-0.893946	-0.046459	0.201673
O35	O	-0.774060	0.024165	0.232984
O36	O	-0.869588	-0.172980	0.236709
O37	O	-0.870301	-0.068920	0.345613
O38	O	-0.773353	-0.079179	0.124829
C39	C	-1.345921	-0.831769	0.165358
C40	C	-1.335069	-0.758381	0.165694
C41	C	-1.340648	-0.727458	0.237809
C42	C	-1.357064	-0.769928	0.309592
C43	C	-1.367909	-0.843314	0.309254
N44	N	-1.369669	-0.618660	0.294814
N45	N	-1.359367	-0.548946	0.295131
C46	C	-1.307972	-0.506350	0.238834
N47	N	-1.267273	-0.536101	0.182197
N48	N	-1.277579	-0.605821	0.181878
C49	C	-1.328889	-0.647883	0.238185
C50	C	-1.279786	-0.384313	0.167420
C51	C	-1.268930	-0.310923	0.167759
C52	C	-1.290932	-0.322472	0.311660
C53	C	-1.301781	-0.395860	0.311318
C54	C	-1.296210	-0.426776	0.239196
C55	C	-1.263867	-0.070074	0.378204
C56	C	-1.275983	-0.064367	0.465546
C57	C	-1.380802	0.047666	0.236760
C58	C	-1.362338	0.125770	0.237132
C59	C	-1.379900	-0.084159	0.098796
C60	C	-1.360864	-0.089863	0.011453
C61	C	-1.292904	-0.125336	0.518039
C62	C	-1.304291	-0.119972	0.600106
C63	C	-1.298752	-0.053637	0.629678
C64	C	-1.281832	0.007337	0.577177
C65	C	-1.270450	0.001971	0.495112
C66	C	-1.332561	-0.034254	0.876888
C67	C	-1.343943	-0.028894	0.958959
C68	C	-1.366403	-0.156203	0.981883
C69	C	-1.355015	-0.161562	0.899815
C70	C	-1.338100	-0.100588	0.847322
C71	C	-1.310390	-0.048153	0.713563
C72	C	-1.326468	-0.106074	0.763439
C73	C	-0.929632	-0.201901	0.240241
C74	C	-0.941175	-0.280005	0.239875
C75	C	-0.930534	-0.070074	0.378204
C76	C	-0.942650	-0.064367	0.465546
C77	C	-1.047469	0.047666	0.236760
C78	C	-1.029005	0.125770	0.237132
C79	C	-1.046567	-0.084159	0.098796
C80	C	-1.027530	-0.089863	0.011453
C81	C	-0.596299	-0.201901	0.240241
C82	C	-0.607842	-0.280005	0.239875
C83	C	-0.597201	-0.070074	0.378204
C84	C	-0.609317	-0.064367	0.465546
C85	C	-0.714135	0.047666	0.236760
C86	C	-0.695671	0.125770	0.237132
C87	C	-0.713234	-0.084159	0.098796
C88	C	-0.694197	-0.089863	0.011453
C89	C	-1.007118	-0.320034	0.243642
C90	C	-1.017975	-0.393423	0.243310
C91	C	-0.962888	-0.426780	0.239205
C92	C	-0.896941	-0.386746	0.235440
C93	C	-0.886085	-0.313359	0.235778
C94	C	-1.008861	-0.064953	0.510580
C95	C	-1.020253	-0.059581	0.592646
C96	C	-0.965434	-0.053627	0.629677
C97	C	-0.899218	-0.053039	0.584636
C98	C	-0.887825	-0.058406	0.502570
C99	C	-1.078058	0.165799	0.233367
C100	C	-1.060715	0.239187	0.233703
C101	C	-0.994320	0.272545	0.237809
C102	C	-0.945263	0.232511	0.241572
C103	C	-0.962605	0.159124	0.241230
C104	C	-0.960862	-0.095807	-0.025557
C105	C	-0.942964	-0.101159	-0.107626
C106	C	-0.991736	-0.100571	-0.152682
C107	C	-1.058410	-0.094624	-0.115667
C108	C	-1.076306	-0.089268	-0.033600
C109	C	-0.673785	-0.320034	0.243642
C110	C	-0.684642	-0.393423	0.243310
C111	C	-0.629555	-0.426780	0.239205
C112	C	-0.563607	-0.386746	0.235440
C113	C	-0.552752	-0.313359	0.235778
C114	C	-0.675528	-0.064953	0.510580
C115	C	-0.686920	-0.059581	0.592646
C116	C	-0.632101	-0.053627	0.629677
C117	C	-0.565884	-0.053039	0.584636
C118	C	-0.554492	-0.058406	0.502570
C119	C	-0.744724	0.165799	0.233367
C120	C	-0.727381	0.239187	0.233703
C121	C	-0.660986	0.272545	0.237809
C122	C	-0.611929	0.232511	0.241572
C123	C	-0.629271	0.159124	0.241230
C124	C	-0.627529	-0.095807	-0.025557
C125	C	-0.609630	-0.101159	-0.107626
C126	C	-0.658403	-0.100571	-0.152682
C127	C	-0.725076	-0.094624	-0.115667
C128	C	-0.742972	-0.089268	-0.033600
H129	H	-1.321697	-0.723802	0.107245
C130	C	-0.813545	-0.269330	0.231622
H131	H	-0.814961	-0.220845	0.232414
H132	H	-0.783028	-0.276277	0.183893
H133	H	-0.797895	-0.283703	0.276008
C134	C	-0.781352	0.283211	0.229572
H135	H	-0.823379	0.252828	0.227091
H136	H	-0.765410	0.315695	0.183486
H137	H	-0.788572	0.308259	0.275603
H138	H	-0.643824	-0.104941	-0.219504
H139	H	-0.720172	-0.069801	0.480442
C140	C	-0.641920	0.353268	0.238192
H141	H	-0.680650	0.372325	0.235370
H142	H	-0.605091	0.372364	0.193671
H143	H	-0.628271	0.364916	0.285786
H144	H	-1.071677	-0.426009	0.246373
H145	H	-0.638404	-0.486537	0.238930
H146	H	-0.797262	-0.084432	-0.003472
C147	C	-0.757183	-0.437447	0.247441
H148	H	-0.788430	-0.407064	0.249919
H149	H	-0.771382	-0.469930	0.293527
H150	H	-0.756491	-0.462496	0.201410
C151	C	-0.974834	-0.507504	0.238829
H152	H	-0.932584	-0.521643	0.235849
H153	H	-0.992205	-0.521618	0.194151
H154	H	-1.007078	-0.529053	0.286266
H155	H	-0.740841	-0.060063	0.629308
C156	C	-1.297029	-0.288463	0.390983
H157	H	-1.288210	-0.238675	0.380905
H158	H	-1.264524	-0.300696	0.417466
H159	H	-1.342111	-0.305028	0.423510
C160	C	-1.339783	-0.865772	0.086026
H161	H	-1.328444	-0.829968	0.043327
H162	H	-1.382342	-0.896343	0.085892
H163	H	-1.304759	-0.891976	0.079911
H164	H	-1.100668	0.271773	0.230640
H165	H	-0.852092	-0.413917	0.232098
C166	C	-1.385974	-0.890023	0.388209
H167	H	-1.387747	-0.861099	0.431209
H168	H	-1.351877	-0.916716	0.388076
H169	H	-1.429458	-0.921067	0.394058
C170	C	-0.573870	-0.096448	0.023988
H171	H	-0.531601	-0.100746	-0.009819
H172	H	-0.589771	-0.135213	0.063501
H173	H	-0.567119	-0.053766	0.048835
C174	C	-0.778721	-0.093986	-0.165234
H175	H	-0.758510	-0.098037	-0.219406
H176	H	-0.794047	-0.051049	-0.160774
H177	H	-0.816698	-0.132496	-0.146106
H178	H	-0.557869	0.259682	0.244915
H179	H	-0.589324	0.126537	0.244303
C180	C	-0.814993	-0.057773	0.453043
H181	H	-0.783983	-0.053466	0.486857
H182	H	-0.800837	-0.019014	0.413522
H183	H	-0.815223	-0.100459	0.428206
C184	C	-1.149644	-0.082739	0.007108
H185	H	-1.153324	-0.079629	0.062437
H186	H	-1.181754	-0.122997	-0.000672
H187	H	-1.159096	-0.041550	-0.015324
H188	H	-1.053506	-0.069801	0.480442
H189	H	-0.974720	-0.049258	0.696500
C190	C	-1.250869	-0.264216	0.088803
H191	H	-1.249112	-0.293142	0.045805
H192	H	-1.207391	-0.233169	0.082946
H193	H	-1.284975	-0.237527	0.088942
H194	H	-1.098115	-0.094144	-0.152364
H195	H	-0.854588	-0.048192	0.614799
C196	C	-0.536295	-0.107713	-0.148329
H197	H	-0.532614	-0.110813	-0.203660
H198	H	-0.526855	-0.148902	-0.125894
H199	H	-0.504174	-0.067457	-0.140554
C200	C	-0.503018	-0.423446	0.230917
H201	H	-0.518933	-0.472883	0.231246
H202	H	-0.483802	-0.413770	0.275406
H203	H	-0.468940	-0.406332	0.183292
H204	H	-1.074174	-0.060063	0.629308
C205	C	-0.481659	-0.057773	0.453043
H206	H	-0.450650	-0.053466	0.486857
H207	H	-0.467503	-0.019014	0.413522
H208	H	-0.481890	-0.100459	0.428206
C209	C	-0.480210	-0.269333	0.231620
H210	H	-0.448960	-0.299715	0.229118
H211	H	-0.480884	-0.244277	0.277638
H212	H	-0.466024	-0.236856	0.185524
C213	C	-1.304332	0.024811	0.746093
H214	H	-1.292638	0.060358	0.703079
H215	H	-1.269603	0.031665	0.775078
H216	H	-1.347040	0.027427	0.780185
H217	H	-0.521254	-0.048192	0.614799
C218	C	-0.644637	-0.047726	0.719947
H219	H	-0.602508	-0.044091	0.735557
H220	H	-0.676753	-0.088439	0.747323
H221	H	-0.662378	-0.006994	0.732651
H222	H	-1.361604	-0.744746	0.368309
C223	C	-1.151092	0.129120	0.228843
H224	H	-1.177813	0.163479	0.226639
H225	H	-1.171854	0.096912	0.274597
H226	H	-1.148666	0.104352	0.182482
H227	H	-0.798790	0.138649	0.230024
C228	C	-0.975254	0.353268	0.238192
H229	H	-1.013984	0.372325	0.235370
H230	H	-0.938425	0.372364	0.193671
H231	H	-0.961605	0.364916	0.285786
C232	C	-0.972049	-0.106471	-0.242952
H233	H	-1.010641	-0.105267	-0.264491
H234	H	-0.958013	-0.149611	-0.252694
H235	H	-0.935349	-0.068165	-0.267362
H236	H	-0.921140	-0.096287	0.011117
C237	C	-1.273650	-0.418323	0.088090
H238	H	-1.262308	-0.382520	0.045390
H239	H	-1.316213	-0.448889	0.087957
H240	H	-1.238631	-0.444531	0.081977
C241	C	-0.908644	0.115099	0.245385
H242	H	-0.866623	0.145480	0.247888
H243	H	-0.901415	0.090045	0.199365
H244	H	-0.924599	0.082619	0.291480
H245	H	-1.297411	-0.179353	0.493969
C246	C	-1.319851	-0.442570	0.390272
H247	H	-1.321625	-0.413645	0.433271
H248	H	-1.285752	-0.469260	0.390141
H249	H	-1.363333	-0.473615	0.396120
H250	H	-1.318072	-0.169620	0.642844
H251	H	-1.359529	-0.215579	0.875745
H252	H	-1.380177	-0.205844	1.024630
H253	H	-1.339446	0.025126	0.983033
H254	H	-1.318788	0.015395	0.834157
H255	H	-0.888672	-0.106000	-0.137752
H256	H	-0.891203	0.259682	0.244915
H257	H	-1.277327	0.061347	0.601261
H258	H	-0.718647	-0.292884	0.246979
H259	H	-1.256673	0.051619	0.452372
C260	C	-1.067720	-0.283354	0.248156
H261	H	-1.108546	-0.317714	0.250358
H262	H	-1.058571	-0.251150	0.202397
H263	H	-1.073442	-0.258582	0.294512
C264	C	-1.332564	-0.179039	0.730916
H265	H	-1.344276	-0.214587	0.773931
H266	H	-1.289877	-0.181683	0.696806
H267	H	-1.367313	-0.185866	0.701952
