data_functionalizedCrystal
_audit_creation_method	'MofGen! by Chris Wilmer'
_symmetry_space_group_name_H-M	'P1'
_symmetry_Int_Tables_number	1
_symmetry_cell_setting	triclinic
loop_
_symmetry_equiv_pos_as_xyz
  x,y,z
_cell_length_a	19.805407
_cell_length_b	25.639240
_cell_length_c	19.805399
_cell_angle_alpha	90.035908
_cell_angle_beta	90.017803
_cell_angle_gamma	90.030074
loop_
_atom_site_label
_atom_site_type_symbol
_atom_site_fract_x
_atom_site_fract_y
_atom_site_fract_z
Zn1	Zn	1.034706	-0.208200	0.382648
Zn2	Zn	1.034608	-0.295634	0.269444
Zn3	Zn	0.921520	-0.208211	0.269477
Zn4	Zn	0.921471	-0.295602	0.382594
O5	O	0.978076	-0.251912	0.326041
O6	O	1.129409	-0.219808	0.367641
O7	O	1.019586	-0.284055	0.174732
O8	O	0.936596	-0.135044	0.284526
O9	O	1.129338	-0.284045	0.284470
O10	O	1.019753	-0.135037	0.367672
O11	O	0.936501	-0.219825	0.174756
O12	O	0.826797	-0.219794	0.284473
O13	O	0.936513	-0.283991	0.477318
O14	O	0.826761	-0.284001	0.367580
O15	O	1.019705	-0.219777	0.477358
O16	O	1.019539	-0.368795	0.284417
O17	O	0.936418	-0.368772	0.367548
C18	C	0.802220	-0.251896	0.326024
C19	C	0.726988	-0.251901	0.326033
C20	C	0.691682	-0.218512	0.369406
C21	C	0.620994	-0.218515	0.369409
C22	C	0.585613	-0.251910	0.326041
C23	C	0.620924	-0.285300	0.282664
C24	C	0.691611	-0.285295	0.282658
C25	C	0.335851	-0.285324	0.282684
C26	C	0.265159	-0.285328	0.282695
C27	C	0.265233	-0.218544	0.369435
C28	C	0.335921	-0.218538	0.369430
C29	C	0.371225	-0.251927	0.326050
C30	C	0.447874	-0.251923	0.326046
C31	C	0.508966	-0.251917	0.326048
C32	C	0.977981	-0.387755	0.325988
C33	C	0.978002	-0.445869	0.325988
C34	C	1.021398	-0.806189	0.369413
C35	C	1.021418	-0.860793	0.369427
O36	O	1.058201	-0.888994	0.406295
N37	N	0.978170	-0.888151	0.326106
C38	C	0.934895	-0.860901	0.282773
O39	O	0.898112	-0.889185	0.245927
C40	C	0.934873	-0.806298	0.282764
C41	C	0.978128	-0.778943	0.326083
C42	C	1.064649	-0.778834	0.412729
C43	C	1.064629	-0.724234	0.412715
C44	C	1.021359	-0.696988	0.369384
C45	C	0.978108	-0.724343	0.326068
C46	C	0.891595	-0.779049	0.239435
C47	C	0.891575	-0.724442	0.239429
C48	C	0.934830	-0.697088	0.282748
C49	C	0.934819	-0.642497	0.282722
N50	N	0.978066	-0.615139	0.326043
C51	C	1.021336	-0.642385	0.369374
C52	C	0.934946	-0.975572	0.282798
C53	C	0.934972	-1.030174	0.282804
C54	C	1.021493	-1.030063	0.369459
C55	C	1.021470	-0.975459	0.369449
C56	C	0.978193	-0.948214	0.326119
C57	C	1.021293	-0.527720	0.369339
C58	C	1.021272	-0.473114	0.369318
C59	C	0.934748	-0.473231	0.282666
C60	C	0.934772	-0.527831	0.282684
C61	C	0.978046	-0.555075	0.326026
O62	O	0.898053	-0.614261	0.245875
O63	O	1.058108	-0.614095	0.406220
C64	C	1.154619	-0.251929	0.326058
C65	C	1.229851	-0.251936	0.326065
C66	C	0.978114	-0.251879	0.502584
C67	C	0.978131	-0.251865	0.577816
C68	C	0.978191	-0.115539	0.326109
C69	C	0.978240	-0.057425	0.326138
C70	C	0.978078	-0.251907	0.150185
C71	C	0.978193	-0.251774	0.074953
C72	C	1.021450	-0.218427	0.613182
C73	C	1.021457	-0.218412	0.683870
C74	C	0.978147	-0.251838	0.719191
C75	C	0.934823	-0.285277	0.683820
C76	C	0.934813	-0.285289	0.613133
C77	C	0.934861	-0.285228	0.968894
C78	C	0.934876	-0.285215	1.039586
C79	C	1.021505	-0.218351	1.039631
C80	C	1.021495	-0.218363	0.968944
C81	C	0.978169	-0.251800	0.933579
C82	C	0.978161	-0.251816	0.856930
C83	C	0.978158	-0.251825	0.795838
H84	H	0.236353	-0.312524	0.247377
H85	H	0.856332	-0.702262	0.204145
H86	H	0.364587	-0.312511	0.247362
C87	C	1.069160	-0.181564	1.078534
C88	C	1.122286	-0.204216	1.127130
C89	C	1.169941	-0.167432	1.166031
C90	C	1.164471	-0.107996	1.156336
C91	C	1.111344	-0.085341	1.107738
C92	C	1.063688	-0.122125	1.068837
H93	H	1.126337	-0.248217	1.134308
H94	H	1.209269	-0.184203	1.202006
H95	H	1.199748	-0.080766	1.185133
H96	H	1.107293	-0.041340	1.100560
H97	H	1.024360	-0.105354	1.032862
H98	H	0.720484	-0.191319	0.404723
C99	C	0.374837	-0.181802	0.417135
C100	C	0.365144	-0.186145	0.494070
C101	C	0.404058	-0.149407	0.541775
C102	C	0.452665	-0.108326	0.512545
C103	C	0.462360	-0.103981	0.435605
C104	C	0.423446	-0.140719	0.387901
H105	H	0.329160	-0.216558	0.515712
H106	H	0.396881	-0.152624	0.598731
H107	H	0.481472	-0.081130	0.547859
H108	H	0.498344	-0.073568	0.413964
H109	H	0.430623	-0.137503	0.330945
C110	C	0.226396	-0.181810	0.417148
C111	C	0.177804	-0.204521	0.470232
C112	C	0.138969	-0.167789	0.517944
C113	C	0.148724	-0.108346	0.512572
C114	C	0.197317	-0.085631	0.459486
C115	C	0.236153	-0.122363	0.411773
H116	H	0.170581	-0.248528	0.474211
H117	H	0.102996	-0.184604	0.557243
H118	H	0.119975	-0.081155	0.547891
H119	H	0.204540	-0.041625	0.455507
H120	H	0.272125	-0.105548	0.372475
H121	H	0.592111	-0.312489	0.247350
C122	C	0.730451	-0.322024	0.234948
C123	C	0.691536	-0.358759	0.187244
C124	C	0.730375	-0.395487	0.139530
C125	C	0.808128	-0.395480	0.139518
C126	C	0.847047	-0.358744	0.187223
C127	C	0.808208	-0.322016	0.234938
H128	H	0.633975	-0.358766	0.187251
H129	H	0.701565	-0.422682	0.104215
H130	H	0.836879	-0.422668	0.104197
H131	H	0.904608	-0.358737	0.187216
H132	H	0.837019	-0.294821	0.270253
H133	H	1.056765	-0.191146	0.940189
H134	H	1.056498	-0.450844	0.404594
H135	H	0.899557	-0.312491	0.712584
C136	C	1.068898	-0.557682	0.417011
C137	C	1.145842	-0.550123	0.411548
C138	C	1.193451	-0.580086	0.459215
C139	C	1.164115	-0.617607	0.512346
C140	C	1.087167	-0.625168	0.517811
C141	C	1.039558	-0.595205	0.470144
H142	H	1.167562	-0.522347	0.372215
H143	H	1.250413	-0.574489	0.455169
H144	H	1.199357	-0.639787	0.547632
H145	H	1.065447	-0.652945	0.557144
H146	H	0.982596	-0.600802	0.474190
C147	C	1.069108	-0.181628	0.722773
C148	C	1.116749	-0.144862	0.683922
C149	C	1.164400	-0.108075	0.722825
C150	C	1.164408	-0.108054	0.800578
C151	C	1.116765	-0.144821	0.839433
C152	C	1.069115	-0.181608	0.800530
H153	H	1.116744	-0.144877	0.626361
H154	H	1.199668	-0.080857	0.694061
H155	H	1.199682	-0.080821	0.829376
H156	H	1.116770	-0.144806	0.896994
H157	H	1.033846	-0.208826	0.829294
H158	H	0.899706	-0.953392	0.247508
H159	H	1.056692	-0.953190	0.404723
C160	C	0.887195	-0.557922	0.235028
C161	C	0.834046	-0.595471	0.264318
C162	C	0.786463	-0.625556	0.216665
C163	C	0.792030	-0.618093	0.139723
C164	C	0.845181	-0.580543	0.110430
C165	C	0.892764	-0.550458	0.158082
H166	H	0.829923	-0.600997	0.321278
H167	H	0.747117	-0.653353	0.238350
H168	H	0.756806	-0.640364	0.104448
H169	H	0.849304	-0.575017	0.053469
H170	H	0.932110	-0.522661	0.136397
C171	C	0.887183	-0.322001	0.930013
C172	C	0.834043	-0.299334	0.881445
C173	C	0.786350	-0.336104	0.842568
C174	C	0.791797	-0.395542	0.852259
C175	C	0.844939	-0.418213	0.900829
C176	C	0.892631	-0.381442	0.939706
H177	H	0.830009	-0.255332	0.874269
H178	H	0.747011	-0.319322	0.806613
H179	H	0.756492	-0.422762	0.823479
H180	H	0.848972	-0.462215	0.908004
H181	H	0.931970	-0.398225	0.975661
C182	C	0.887395	-1.060260	0.235147
C183	C	0.892960	-1.052793	0.158206
C184	C	0.845377	-1.082876	0.110551
C185	C	0.792230	-1.120427	0.139838
C186	C	0.786662	-1.127896	0.216783
C187	C	0.834245	-1.097813	0.264438
H188	H	0.932305	-1.024994	0.136523
H189	H	0.849499	-1.077346	0.053591
H190	H	0.757006	-1.142696	0.104561
H191	H	0.747317	-1.155695	0.238466
H192	H	0.830123	-1.103342	0.321398
H193	H	1.099849	-0.701965	0.447991
C194	C	1.112254	-0.808798	0.460396
C195	C	1.189197	-0.801232	0.454931
C196	C	1.236812	-0.831190	0.502596
C197	C	1.207483	-0.868715	0.555727
C198	C	1.130537	-0.876283	0.561194
C199	C	1.082922	-0.846324	0.513529
H200	H	1.210911	-0.773452	0.415598
H201	H	1.293773	-0.825587	0.498548
H202	H	1.242730	-0.890892	0.591012
H203	H	1.108822	-0.904062	0.600527
H204	H	1.025961	-0.851927	0.517577
H205	H	0.856372	-0.801312	0.204159
H206	H	0.899531	-0.312512	0.584339
H207	H	0.899520	-0.451039	0.247385
H208	H	0.592251	-0.191327	0.404729
H209	H	1.056720	-0.191210	0.584428
H210	H	1.056725	-1.052256	0.404743
H211	H	0.899605	-0.312435	1.068342
