data_functionalizedCrystal
_audit_creation_method	'MofGen! by Chris Wilmer'
_symmetry_space_group_name_H-M	'P1'
_symmetry_Int_Tables_number	1
_symmetry_cell_setting	triclinic
loop_
_symmetry_equiv_pos_as_xyz
  x,y,z
_cell_length_a	10.654550
_cell_length_b	16.109301
_cell_length_c	15.186229
_cell_angle_alpha	90.005167
_cell_angle_beta	89.997242
_cell_angle_gamma	96.026794
loop_
_atom_site_label
_atom_site_type_symbol
_atom_site_fract_x
_atom_site_fract_y
_atom_site_fract_z
O1	O	1.666255	-0.116773	-0.073220
O2	O	1.916255	0.133227	0.176780
O3	O	2.166255	0.383227	0.426780
O4	O	2.416255	0.633227	0.676780
O5	O	1.300626	-0.127898	-0.073225
O6	O	1.550626	0.122102	0.176775
O7	O	1.800626	0.372102	0.426775
O8	O	2.050626	0.622102	0.676775
O9	O	1.493485	-0.001364	-0.073213
O10	O	1.743485	0.248636	0.176787
O11	O	1.993485	0.498636	0.426787
O12	O	2.243485	0.748636	0.676787
O13	O	1.473396	-0.243307	-0.073231
O14	O	1.723396	0.006693	0.176769
O15	O	1.973396	0.256693	0.426769
O16	O	2.223396	0.506693	0.676769
O17	O	1.493472	-0.001363	0.073244
O18	O	1.743472	0.248637	0.323244
O19	O	1.993472	0.498637	0.573244
O20	O	2.243472	0.748637	0.823244
O21	O	1.300613	-0.127897	0.073233
O22	O	1.550613	0.122103	0.323233
O23	O	1.800613	0.372103	0.573233
O24	O	2.050613	0.622103	0.823233
O25	O	1.666242	-0.116771	0.073237
O26	O	1.916242	0.133229	0.323237
O27	O	2.166242	0.383229	0.573237
O28	O	2.416242	0.633229	0.823237
Zn29	Zn	1.483425	-0.122334	0.096488
Zn30	Zn	1.733425	0.127666	0.346488
Zn31	Zn	1.983425	0.377666	0.596488
Zn32	Zn	2.233425	0.627666	0.846488
Zn33	Zn	1.483442	-0.122336	-0.096475
Zn34	Zn	1.733442	0.127664	0.153525
Zn35	Zn	1.983442	0.377664	0.403525
Zn36	Zn	2.233442	0.627664	0.653525
O37	O	1.473383	-0.243305	0.073226
O38	O	1.723383	0.006695	0.323226
O39	O	1.973383	0.256695	0.573226
O40	O	2.223383	0.506695	0.823226
C41	C	1.253832	-0.127081	0.000004
C42	C	1.503832	0.122919	0.250004
C43	C	1.753832	0.372919	0.500004
C44	C	2.003832	0.622919	0.750004
C45	C	1.114422	-0.124637	0.000002
C46	C	1.364422	0.125363	0.250002
C47	C	1.614422	0.375363	0.500002
C48	C	1.864422	0.625363	0.750002
C49	C	1.492664	0.029616	0.000016
C50	C	1.742664	0.279616	0.250016
C51	C	1.992664	0.529616	0.500016
C52	C	2.242664	0.779616	0.750016
C53	C	1.490225	0.121926	0.000017
C54	C	1.740225	0.371926	0.250017
C55	C	1.990225	0.621926	0.500017
C56	C	2.240225	0.871926	0.750017
C57	C	1.713036	-0.117589	0.000007
C58	C	1.963036	0.132411	0.250007
C59	C	2.213036	0.382411	0.500007
C60	C	2.463036	0.632411	0.750007
C61	C	1.852446	-0.120033	0.000003
C62	C	2.102446	0.129967	0.250003
C63	C	2.352446	0.379967	0.500003
C64	C	2.602446	0.629967	0.750003
C65	C	1.932942	-0.045532	0.000005
C66	C	2.182942	0.204468	0.250005
C67	C	2.432942	0.454468	0.500005
C68	C	2.682942	0.704468	0.750005
C69	C	2.063932	-0.047833	0.000008
C70	C	2.313932	0.202167	0.250008
C71	C	2.563932	0.452167	0.500008
C72	C	2.813932	0.702167	0.750008
C73	C	2.033916	-0.199144	0.000002
C74	C	2.283916	0.050856	0.250002
C75	C	2.533916	0.300856	0.500002
C76	C	2.783916	0.550856	0.750002
C77	C	1.902929	-0.196841	0.000006
C78	C	2.152929	0.053159	0.250006
C79	C	2.402929	0.303159	0.500006
C80	C	2.652929	0.553159	0.750006
C81	C	2.260973	0.039912	0.051320
C82	C	2.510973	0.289912	0.301320
C83	C	2.760973	0.539912	0.551320
C84	C	3.010973	0.789912	0.801320
C85	C	2.341474	0.114417	0.051307
C86	C	2.591474	0.364417	0.301307
C87	C	2.841474	0.614417	0.551307
C88	C	3.091474	0.864417	0.801307
C89	C	2.312213	0.181958	-0.000009
C90	C	2.562213	0.431958	0.249991
C91	C	2.812213	0.681958	0.499991
C92	C	3.062213	0.931958	0.749991
C93	C	2.202452	0.174996	-0.051335
C94	C	2.452452	0.424996	0.198665
C95	C	2.702452	0.674996	0.448665
C96	C	2.952452	0.924996	0.698665
C97	C	2.121957	0.100490	-0.051330
C98	C	2.371957	0.350490	0.198670
C99	C	2.621957	0.600490	0.448670
C100	C	2.871957	0.850490	0.698670
C101	C	2.151217	0.032952	0.000007
C102	C	2.401217	0.282952	0.250007
C103	C	2.651217	0.532952	0.500007
C104	C	2.901217	0.782952	0.750007
C105	C	1.705886	-0.284581	-0.051313
C106	C	1.955886	-0.034581	0.198687
C107	C	2.205886	0.215419	0.448687
C108	C	2.455886	0.465419	0.698687
C109	C	1.625389	-0.359088	-0.051315
C110	C	1.875389	-0.109088	0.198685
C111	C	2.125389	0.140912	0.448685
C112	C	2.375389	0.390912	0.698685
C113	C	1.654646	-0.426636	-0.000003
C114	C	1.904646	-0.176636	0.249997
C115	C	2.154646	0.073364	0.499997
C116	C	2.404646	0.323364	0.749997
C117	C	1.764409	-0.419683	0.051308
C118	C	2.014409	-0.169683	0.301308
C119	C	2.264409	0.080317	0.551308
C120	C	2.514409	0.330317	0.801308
C121	C	1.844907	-0.345175	0.051310
C122	C	2.094907	-0.095175	0.301310
C123	C	2.344907	0.154825	0.551310
C124	C	2.594907	0.404825	0.801310
C125	C	1.815640	-0.277627	0.000000
C126	C	2.065640	-0.027627	0.250000
C127	C	2.315640	0.222373	0.500000
C128	C	2.565640	0.472373	0.750000
C129	C	1.474203	-0.274286	-0.000005
C130	C	1.724203	-0.024286	0.249995
C131	C	1.974203	0.225714	0.499995
C132	C	2.224203	0.475714	0.749995
C133	C	1.476643	-0.366596	-0.000012
C134	C	1.726643	-0.116596	0.249988
C135	C	1.976643	0.133404	0.499988
C136	C	2.226643	0.383404	0.749988
N137	N	1.483423	-0.122331	0.228181
N138	N	1.733423	0.127669	0.478181
N139	N	1.983423	0.377669	0.728181
N140	N	2.233423	0.627669	0.978181
C141	C	1.598991	0.343552	0.000005
C142	C	1.848991	0.593552	0.250005
C143	C	2.098991	0.843552	0.500005
C144	C	2.348991	1.093552	0.750005
C145	C	1.596689	0.430286	-0.000003
C146	C	1.846689	0.680286	0.249997
C147	C	2.096689	0.930286	0.499997
C148	C	2.346689	1.180286	0.749997
C149	C	1.367868	0.411772	-0.000002
C150	C	1.617868	0.661772	0.249998
C151	C	1.867868	0.911772	0.499998
C152	C	2.117868	1.161772	0.749998
C153	C	1.370172	0.325039	-0.000001
C154	C	1.620172	0.575039	0.249999
C155	C	1.870172	0.825039	0.499999
C156	C	2.120172	1.075039	0.749999
C157	C	1.485737	0.290932	0.000007
C158	C	1.735737	0.540932	0.250007
C159	C	1.985737	0.790932	0.500007
C160	C	2.235737	1.040932	0.750007
C161	C	1.481131	0.464398	-0.000002
C162	C	1.731131	0.714398	0.249998
C163	C	1.981131	0.964398	0.499998
C164	C	2.231131	1.214398	0.749998
C165	C	1.478634	0.558439	-0.000009
C166	C	1.728634	0.808439	0.249991
C167	C	1.978634	1.058439	0.499991
C168	C	2.228634	1.308439	0.749991
C169	C	1.488234	0.196885	0.000013
C170	C	1.738234	0.446885	0.250013
C171	C	1.988234	0.696885	0.500013
C172	C	2.238234	0.946885	0.750013
N173	N	1.483455	-0.122332	-0.228168
N174	N	1.733455	0.127668	0.021832
N175	N	1.983455	0.377668	0.271832
N176	N	2.233455	0.627668	0.521832
C177	C	1.568850	-0.066321	0.453909
C178	C	1.818850	0.183679	0.703909
C179	C	2.068850	0.433679	0.953909
C180	C	2.318850	0.683679	1.203909
C181	C	1.568854	-0.066319	0.546099
C182	C	1.818854	0.183681	0.796099
C183	C	2.068854	0.433681	1.046099
C184	C	2.318854	0.683681	1.296099
C185	C	1.398019	-0.178344	0.546097
C186	C	1.648019	0.071656	0.796097
C187	C	1.898019	0.321656	1.046097
C188	C	2.148019	0.571656	1.296097
C189	C	1.398010	-0.178342	0.453910
C190	C	1.648010	0.071658	0.703910
C191	C	1.898010	0.321658	0.953910
C192	C	2.148010	0.571658	1.203910
C193	C	1.483432	-0.122331	0.407818
C194	C	1.733432	0.127669	0.657818
C195	C	1.983432	0.377669	0.907818
C196	C	2.233432	0.627669	1.157818
C197	C	1.483445	-0.122332	0.592195
C198	C	1.733445	0.127668	0.842195
C199	C	1.983445	0.377668	1.092195
C200	C	2.233445	0.627668	1.342195
C201	C	1.483449	-0.122330	0.692151
C202	C	1.733449	0.127670	0.942151
C203	C	1.983449	0.377670	1.192151
C204	C	2.233449	0.627670	1.442151
C205	C	1.483428	-0.122332	0.307855
C206	C	1.733428	0.127668	0.557855
C207	C	1.983428	0.377668	0.807855
C208	C	2.233428	0.627668	1.057855
H209	H	1.891844	0.017010	0.000005
H210	H	2.141844	0.267010	0.250005
H211	H	2.391844	0.517010	0.500005
H212	H	2.641844	0.767010	0.750005
H213	H	2.430841	0.120079	0.093101
H214	H	2.680841	0.370079	0.343101
H215	H	2.930841	0.620079	0.593101
H216	H	3.180841	0.870079	0.843101
Cl217	Cl	1.744272	0.300676	0.000012
Cl218	Cl	1.994272	0.550676	0.250012
Cl219	Cl	2.244272	0.800676	0.500012
Cl220	Cl	2.494272	1.050676	0.750012
H221	H	1.277941	0.282194	-0.000002
H222	H	1.527941	0.532194	0.249998
H223	H	1.777941	0.782194	0.499998
H224	H	2.027941	1.032194	0.749998
H225	H	1.638407	-0.020710	0.583624
H226	H	1.888407	0.229290	0.833624
H227	H	2.138407	0.479290	1.083624
H228	H	2.388407	0.729290	1.333624
H229	H	2.075035	-0.261678	0.000003
H230	H	2.325035	-0.011678	0.250003
H231	H	2.575035	0.238322	0.500003
H232	H	2.825035	0.488322	0.750003
Cl233	Cl	1.801201	-0.504603	0.115813
Cl234	Cl	2.051201	-0.254603	0.365813
Cl235	Cl	2.301201	-0.004603	0.615813
Cl236	Cl	2.551201	0.245397	0.865813
Cl237	Cl	1.982897	-0.336434	0.115818
Cl238	Cl	2.232897	-0.086434	0.365818
Cl239	Cl	2.482897	0.163566	0.615818
Cl240	Cl	2.732897	0.413566	0.865818
H241	H	1.638405	-0.020713	0.416383
H242	H	1.888405	0.229287	0.666383
H243	H	2.138405	0.479287	0.916383
H244	H	2.388405	0.729287	1.166383
H245	H	1.328471	-0.223948	0.583635
H246	H	1.578471	0.026052	0.833635
H247	H	1.828471	0.276052	1.083635
H248	H	2.078471	0.526052	1.333635
H249	H	1.536017	-0.364747	-0.093103
H250	H	1.786017	-0.114747	0.156897
H251	H	2.036017	0.135253	0.406897
H252	H	2.286017	0.385253	0.656897
H253	H	1.688912	0.473126	-0.000006
H254	H	1.938912	0.723126	0.249994
H255	H	2.188912	0.973126	0.499994
H256	H	2.438912	1.223126	0.749994
Cl257	Cl	1.290613	-0.248755	0.395960
Cl258	Cl	1.540613	0.001245	0.645960
Cl259	Cl	1.790613	0.251245	0.895960
Cl260	Cl	2.040613	0.501245	1.145960
H261	H	1.273779	0.439553	-0.000007
H262	H	1.523779	0.689553	0.249993
H263	H	1.773779	0.939553	0.499993
H264	H	2.023779	1.189553	0.749993
H265	H	2.032594	0.094821	-0.093119
H266	H	2.282594	0.344821	0.156881
H267	H	2.532594	0.594821	0.406881
H268	H	2.782594	0.844821	0.656881
H269	H	2.178645	0.229994	-0.093128
H270	H	2.428645	0.479994	0.156872
H271	H	2.678645	0.729994	0.406872
H272	H	2.928645	0.979994	0.656872
Cl273	Cl	2.297767	-0.044996	0.115839
Cl274	Cl	2.547767	0.205004	0.365839
Cl275	Cl	2.797767	0.455004	0.615839
Cl276	Cl	3.047767	0.705004	0.865839
H277	H	1.589097	-0.487305	-0.000015
H278	H	1.839097	-0.237305	0.249985
H279	H	2.089097	0.012695	0.499985
H280	H	2.339097	0.262695	0.749985
Cl281	Cl	1.669090	-0.199659	-0.115817
Cl282	Cl	1.919090	0.050341	0.134183
Cl283	Cl	2.169090	0.300341	0.384183
Cl284	Cl	2.419090	0.550341	0.634183
H285	H	2.377767	0.242621	-0.000019
H286	H	2.627767	0.492621	0.249981
H287	H	2.877767	0.742621	0.499981
H288	H	3.127767	0.992621	0.749981
