data_functionalizedCrystal
_audit_creation_method	'MofGen! by Chris Wilmer'
_symmetry_space_group_name_H-M	'P1'
_symmetry_Int_Tables_number	1
_symmetry_cell_setting	triclinic
loop_
_symmetry_equiv_pos_as_xyz
  x,y,z
_cell_length_a	16.992694
_cell_length_b	14.044220
_cell_length_c	16.053802
_cell_angle_alpha	92.799619
_cell_angle_beta	87.249047
_cell_angle_gamma	91.928550
loop_
_atom_site_label
_atom_site_type_symbol
_atom_site_fract_x
_atom_site_fract_y
_atom_site_fract_z
O1	O	1.057564	0.198305	-0.069327
O2	O	1.557564	0.698305	0.430673
O3	O	0.829125	0.196087	-0.069352
O4	O	1.329125	0.696087	0.430648
O5	O	0.939916	0.058952	-0.069331
O6	O	1.439916	0.558952	0.430669
O7	O	0.946774	0.335440	-0.069347
O8	O	1.446774	0.835440	0.430653
O9	O	0.933815	0.066468	0.069526
O10	O	1.433815	0.566468	0.569526
O11	O	0.823025	0.203602	0.069506
O12	O	1.323025	0.703602	0.569506
O13	O	1.051464	0.205821	0.069531
O14	O	1.551464	0.705821	0.569531
Zn15	Zn	0.936276	0.205905	0.091565
Zn16	Zn	1.436276	0.705905	0.591565
Zn17	Zn	0.944313	0.196003	-0.091386
Zn18	Zn	1.444313	0.696003	0.408614
O19	O	0.940673	0.342955	0.069511
O20	O	1.440673	0.842955	0.569511
C21	C	0.796663	0.196993	0.000074
C22	C	1.296663	0.696993	0.500074
C23	C	0.709024	0.188484	0.000065
C24	C	1.209024	0.688484	0.500065
C25	C	0.933863	0.027168	0.000098
C26	C	1.433863	0.527168	0.500098
C27	C	0.924909	-0.078736	0.000098
C28	C	1.424909	0.421264	0.500098
C29	C	0.664526	0.270580	0.000061
C30	C	1.164526	0.770580	0.500061
C31	C	0.582179	0.262581	0.000073
C32	C	1.082179	0.762581	0.500073
C33	C	0.544333	0.172483	0.000083
C34	C	1.044333	0.672483	0.500083
C35	C	0.588837	0.090381	0.000090
C36	C	1.088837	0.590381	0.500090
C37	C	0.671182	0.098382	0.000084
C38	C	1.171182	0.598382	0.500084
C39	C	0.298414	0.139322	0.000107
C40	C	0.798414	0.639322	0.500107
C41	C	0.216063	0.131327	0.000111
C42	C	0.716063	0.631327	0.500111
C43	C	0.209412	0.303528	0.000096
C44	C	0.709412	0.803528	0.500096
C45	C	0.291759	0.311521	0.000085
C46	C	0.791759	0.811521	0.500085
C47	C	0.336255	0.229419	0.000096
C48	C	0.836255	0.729419	0.500096
N49	N	0.460161	0.164304	0.000093
N50	N	0.960161	0.664304	0.500093
N51	N	0.420425	0.237599	0.000092
N52	N	0.920425	0.737599	0.500092
C53	C	0.908540	-0.272638	0.000084
C54	C	1.408540	0.227362	0.500084
C55	C	0.972046	-0.325460	0.000088
C56	C	1.472046	0.174540	0.500088
C57	C	0.962938	-0.433354	0.000080
C58	C	1.462938	0.066646	0.500080
C59	C	0.917647	-0.164734	0.000091
C60	C	1.417647	0.335266	0.500091
C61	C	1.083926	0.204915	0.000103
C62	C	1.583926	0.704915	0.500103
C63	C	1.171565	0.213424	0.000107
C64	C	1.671565	0.713424	0.500107
C65	C	0.946726	0.374740	0.000080
C66	C	1.446726	0.874740	0.500080
C67	C	0.955680	0.480643	0.000074
C68	C	1.455680	0.980643	0.500074
N69	N	0.930796	0.212662	0.216425
N70	N	1.430796	0.712662	0.716425
N71	N	0.949799	0.189239	-0.216245
N72	N	1.449799	0.689239	0.283755
C73	C	0.977958	0.154335	0.260127
C74	C	1.477958	0.654335	0.760127
C75	C	0.974132	0.159071	0.347533
C76	C	1.474132	0.659071	0.847533
C77	C	0.923149	0.222140	0.391235
C78	C	1.423149	0.722140	0.891235
C79	C	0.875982	0.280470	0.347526
C80	C	1.375982	0.780470	0.847526
C81	C	0.879804	0.275728	0.260122
C82	C	1.379804	0.775728	0.760122
C83	C	0.906453	0.242827	0.652642
C84	C	1.406453	0.742827	1.152642
C85	C	0.902637	0.247566	0.740052
C86	C	1.402637	0.747566	1.240052
C87	C	1.000787	0.126165	0.740053
C88	C	1.500787	0.626165	1.240053
C89	C	1.004608	0.121433	0.652647
C90	C	1.504608	0.621433	1.152647
C91	C	0.957438	0.179759	0.608946
C92	C	1.457438	0.679759	1.108946
N93	N	0.919240	0.226985	0.480578
N94	N	1.419240	0.726985	0.980578
N95	N	0.961343	0.174909	0.519604
N96	N	1.461343	0.674909	1.019604
H97	H	0.695334	0.343947	0.000052
H98	H	1.195334	0.843947	0.500052
H99	H	0.868047	0.290320	0.617067
H100	H	1.368047	0.790320	1.117067
H101	H	0.545952	0.329433	0.000069
H102	H	1.045952	0.829433	0.500069
N103	N	1.053123	-0.278028	0.000112
N104	N	1.553123	0.221972	0.500112
H105	H	1.080465	-0.295100	0.051592
H106	H	1.580465	0.204900	0.551592
H107	H	1.084942	-0.300665	-0.051391
H108	H	1.584942	0.199335	0.448609
N109	N	1.051652	0.063253	0.787190
N110	N	1.551652	0.563253	1.287190
H111	H	1.084530	0.022580	0.746241
H112	H	1.584530	0.522580	1.246241
H113	H	1.087467	0.104367	0.823443
H114	H	1.587467	0.604367	1.323443
H115	H	1.019477	0.102981	0.224551
H116	H	1.519477	0.602981	0.724551
N117	N	0.827464	-0.320059	0.000074
N118	N	1.327464	0.179941	0.500074
H119	H	0.832369	-0.391530	0.000073
H120	H	1.332369	0.108470	0.500073
H121	H	0.795637	-0.297362	0.051551
H122	H	1.295637	0.202638	0.551551
N123	N	1.025029	0.096196	0.394670
N124	N	1.525029	0.596196	0.894670
H125	H	1.057920	0.055539	0.353723
H126	H	1.557920	0.555539	0.853723
H127	H	1.060830	0.137347	0.430908
H128	H	1.560830	0.637347	0.930908
H129	H	0.185251	0.057955	0.000118
H130	H	0.685251	0.557955	0.500118
H131	H	1.046122	0.070077	0.617066
H132	H	1.546122	0.570077	1.117066
N133	N	0.847654	0.315604	0.787191
N134	N	1.347654	0.815604	1.287191
H135	H	0.818352	0.351836	0.746245
H136	H	1.318352	0.851836	1.246245
H137	H	0.808672	0.278430	0.823474
H138	H	1.308672	0.778430	1.323474
N139	N	0.820986	0.348489	0.394657
N140	N	1.320986	0.848489	0.894657
H141	H	0.825721	0.342646	0.456660
H142	H	1.325721	0.842646	0.956660
H143	H	0.835483	0.415959	0.379366
H144	H	1.335483	0.915959	0.879366
H145	H	0.841398	0.323224	0.224540
H146	H	1.341398	0.823224	0.724540
H147	H	0.173174	0.370371	0.000089
H148	H	0.673174	0.870371	0.500089
N149	N	0.332566	0.408704	0.000064
N150	N	0.832566	0.908704	0.500064
H151	H	0.314528	0.447745	0.051535
H152	H	0.814528	0.947745	0.551535
H153	H	0.391475	0.401243	0.000024
H154	H	0.891475	0.901243	0.500024
N155	N	0.346401	0.050773	0.000125
N156	N	0.846401	0.550773	0.500125
H157	H	0.309928	-0.007514	0.000130
H158	H	0.809928	0.492486	0.500130
H159	H	0.382969	0.047547	-0.051350
H160	H	0.882969	0.547547	0.448650
H161	H	0.707411	0.031530	0.000086
H162	H	1.207411	0.531530	0.500086
N163	N	0.548020	-0.006797	0.000114
N164	N	1.048020	0.493203	0.500114
H165	H	0.489103	0.000590	0.000117
H166	H	0.989103	0.500590	0.500117
H167	H	0.566120	-0.045790	-0.051358
H168	H	1.066120	0.454210	0.448642
