data_functionalizedCrystal
_audit_creation_method	'MofGen! by Chris Wilmer'
_symmetry_space_group_name_H-M	'P1'
_symmetry_Int_Tables_number	1
_symmetry_cell_setting	triclinic
loop_
_symmetry_equiv_pos_as_xyz
  x,y,z
_cell_length_a	10.654550
_cell_length_b	16.098538
_cell_length_c	10.654550
_cell_angle_alpha	87.249505
_cell_angle_beta	84.484903
_cell_angle_gamma	92.768616
loop_
_atom_site_label
_atom_site_type_symbol
_atom_site_fract_x
_atom_site_fract_y
_atom_site_fract_z
O1	O	1.673421	0.069323	0.170830
O2	O	1.307942	0.069309	0.187637
O3	O	1.499084	0.069313	-0.003506
O4	O	1.482279	0.069319	0.361972
O5	O	1.487918	-0.069200	0.007616
O6	O	1.296776	-0.069204	0.198758
O7	O	1.662255	-0.069190	0.181951
Zn8	Zn	1.477743	-0.091189	0.192120
Zn9	Zn	1.492454	0.091308	0.177467
O10	O	1.471113	-0.069194	0.373094
C11	C	1.255561	0.000051	0.191964
C12	C	1.116117	0.000046	0.188272
N13	N	1.467711	-0.215739	0.202120
C14	C	1.036632	0.000060	0.300813
C15	C	0.905613	0.000074	0.297335
C16	C	0.933575	0.000064	0.068766
C17	C	1.064592	0.000044	0.072246
C18	C	1.020487	0.000069	0.432775
C19	C	0.889468	0.000083	0.429297
C20	C	1.548870	-0.259322	0.121021
C21	C	1.541865	-0.346511	0.128028
C22	C	1.453706	-0.390115	0.216141
C23	C	1.372538	-0.346526	0.297244
C24	C	1.379538	-0.259338	0.290230
C25	C	1.428328	-0.653366	0.241547
C26	C	1.421337	-0.740559	0.248557
C27	C	1.590662	-0.740539	0.079339
C28	C	1.597660	-0.653349	0.072337
C29	C	1.516488	-0.609768	0.153436
C30	C	1.446545	-0.479236	0.223309
C31	C	1.523643	-0.520648	0.146261
C32	C	1.714636	0.000070	0.177624
C33	C	1.854081	0.000080	0.181315
C34	C	1.492267	0.000058	-0.044743
C35	C	1.488576	0.000060	-0.184187
N36	N	1.502495	0.215857	0.167458
C37	C	1.601117	0.000062	-0.263673
C38	C	1.597641	0.000068	-0.394694
C39	C	1.369072	0.000067	-0.366730
C40	C	1.372550	0.000067	-0.235712
C41	C	1.733080	0.000059	-0.279818
C42	C	1.729604	0.000065	-0.410839
C43	C	1.477930	0.000063	0.414331
C44	C	1.481622	0.000066	0.553774
H45	H	1.129304	0.000021	-0.019395
Cl46	Cl	1.692696	-0.795331	-0.022612
Cl47	Cl	1.335721	-0.534057	0.334081
H48	H	1.774306	0.059872	-0.461284
H49	H	0.891608	0.000075	-0.025700
Cl50	Cl	1.231064	0.000086	-0.135792
H51	H	1.313449	-0.223853	0.356268
Cl52	Cl	1.058568	-0.089427	0.519647
Cl53	Cl	1.082990	0.092397	0.490234
H54	H	1.770281	-0.059747	-0.239389
H55	H	1.349543	-0.776058	0.320315
H56	H	0.838976	-0.059716	0.473979
H57	H	0.852409	0.058056	0.474364
H58	H	1.789368	0.058024	-0.255114
Cl59	Cl	1.223218	0.000077	-0.431515
Cl60	Cl	1.326291	-0.598583	0.343501
H61	H	1.620664	-0.223825	0.049275
Cl62	Cl	1.643893	-0.401303	0.026071
Cl63	Cl	1.708491	-0.598533	-0.038433
H64	H	1.300751	-0.382033	0.368984
H65	H	1.595418	-0.485143	0.074515
H66	H	1.774653	-0.057900	-0.447945
