data_functionalizedCrystal
_audit_creation_method	'MofGen! by Chris Wilmer'
_symmetry_space_group_name_H-M	'P1'
_symmetry_Int_Tables_number	1
_symmetry_cell_setting	triclinic
loop_
_symmetry_equiv_pos_as_xyz
  x,y,z
_cell_length_a	11.792241
_cell_length_b	10.540539
_cell_length_c	10.868271
_cell_angle_alpha	89.997005
_cell_angle_beta	89.999893
_cell_angle_gamma	84.359454
loop_
_atom_site_label
_atom_site_type_symbol
_atom_site_fract_x
_atom_site_fract_y
_atom_site_fract_z
O1	O	1.507361	0.173992	-0.102197
O2	O	2.007361	0.673992	0.397803
O3	O	1.177067	0.191924	-0.102225
O4	O	1.677067	0.691924	0.397775
O5	O	1.349750	-0.001773	-0.102208
O6	O	1.849750	0.498227	0.397792
O7	O	1.334679	0.367689	-0.102213
O8	O	1.834679	0.867689	0.397787
O9	O	1.349735	-0.001781	0.102436
O10	O	1.849735	0.498219	0.602436
O11	O	1.177053	0.191916	0.102420
O12	O	1.677053	0.691916	0.602420
O13	O	1.507347	0.173984	0.102448
O14	O	2.007347	0.673984	0.602448
Zn15	Zn	1.342198	0.182949	0.134926
Zn16	Zn	1.842198	0.682949	0.634926
Zn17	Zn	1.342216	0.182959	-0.134702
Zn18	Zn	1.842216	0.682959	0.365298
O19	O	1.334664	0.367681	0.102432
O20	O	1.834664	0.867681	0.602432
C21	C	1.134766	0.190793	0.000094
C22	C	1.634766	0.690793	0.500094
C23	C	1.008743	0.187422	0.000083
C24	C	1.508743	0.687422	0.500083
C25	C	1.348612	-0.049076	0.000112
C26	C	1.848612	0.450924	0.500112
C27	C	1.345231	-0.190014	0.000105
C28	C	1.845231	0.309986	0.500105
C29	C	0.778015	0.181223	0.000119
C30	C	1.278015	0.681223	0.500119
C31	C	0.906409	0.184667	0.000099
C32	C	1.406409	0.684667	0.500099
C33	C	1.215660	-0.373018	-0.000366
C34	C	1.715660	0.126982	0.499634
C35	C	1.219087	-0.226411	0.000095
C36	C	1.719087	0.273589	0.500095
C37	C	1.405929	-0.251873	0.116972
C38	C	1.905929	0.248127	0.616972
C39	C	1.401623	-0.398404	0.117070
C40	C	1.901623	0.101596	0.617070
C41	C	1.404205	-0.398922	-0.115649
C42	C	1.904205	0.101078	0.384351
C43	C	1.405367	-0.251943	-0.117194
C44	C	1.905367	0.248057	0.382806
C45	C	1.549648	0.175114	0.000127
C46	C	2.049648	0.675114	0.500127
C47	C	1.675671	0.178486	0.000130
C48	C	2.175671	0.678486	0.500130
C49	C	1.335802	0.414984	0.000109
C50	C	1.835802	0.914984	0.500109
C51	C	1.339183	0.555921	0.000108
C52	C	1.839183	1.055921	0.500108
N53	N	1.342193	0.182941	0.318940
N54	N	1.842193	0.682941	0.818940
N55	N	1.342230	0.182957	-0.318716
N56	N	1.842230	0.682957	0.181284
C57	C	1.342211	0.182956	0.569946
C58	C	1.842211	0.682956	1.069946
C59	C	1.342197	0.182952	0.430268
C60	C	1.842197	0.682952	0.930268
H61	H	1.171327	-0.183649	-0.083680
H62	H	1.671327	0.316351	0.416320
H63	H	1.165836	-0.401453	-0.084174
H64	H	1.665836	0.098547	0.415826
O65	O	1.149918	-0.412809	0.110022
O66	O	1.649918	0.087191	0.610022
H67	H	1.073254	-0.456812	0.078535
H68	H	1.573254	0.043188	0.578535
H69	H	1.363753	-0.209140	0.203933
H70	H	1.863753	0.290860	0.703933
O71	O	1.524897	-0.461861	-0.116700
O72	O	2.024897	0.038139	0.383300
H73	H	1.523464	-0.566931	-0.120220
H74	H	2.023464	-0.066931	0.379780
O75	O	1.155391	-0.170882	0.111252
O76	O	1.655391	0.329118	0.611252
H77	H	1.122025	-0.248761	0.164894
H78	H	1.622025	0.251239	0.664894
O79	O	1.521784	-0.462351	0.124133
O80	O	2.021784	0.037649	0.624133
H81	H	1.582707	-0.388576	0.127473
H82	H	2.082707	0.111424	0.627473
O83	O	1.342177	-0.435583	0.232767
O84	O	1.842177	0.064417	0.732767
H85	H	1.316764	-0.348941	0.288117
H86	H	1.816764	0.151059	0.788117
O87	O	1.346628	-0.197518	-0.231721
O88	O	1.846628	0.302482	0.268279
H89	H	1.313450	-0.275570	-0.285272
H90	H	1.813450	0.224430	0.214728
O91	O	1.528633	-0.222657	0.122764
O92	O	2.028633	0.277343	0.622764
H93	H	1.547701	-0.163591	0.042216
H94	H	2.047701	0.336409	0.542216
H95	H	1.363385	-0.430338	-0.204226
H96	H	1.863385	0.069662	0.295774
H97	H	1.497336	-0.228021	-0.124243
H98	H	1.997336	0.271979	0.375757
