data_functionalizedCrystal
_audit_creation_method	'MofGen! by Chris Wilmer'
_symmetry_space_group_name_H-M	'P1'
_symmetry_Int_Tables_number	1
_symmetry_cell_setting	triclinic
loop_
_symmetry_equiv_pos_as_xyz
  x,y,z
_cell_length_a	34.408637
_cell_length_b	34.407814
_cell_length_c	34.404193
_cell_angle_alpha	60.004510
_cell_angle_beta	60.009006
_cell_angle_gamma	59.994604
loop_
_atom_site_label
_atom_site_type_symbol
_atom_site_fract_x
_atom_site_fract_y
_atom_site_fract_z
O1	O	0.053973	-0.567860	0.474801
O2	O	0.553973	-0.067860	0.974801
O3	O	0.020377	-0.442124	0.382567
O4	O	0.520377	0.057876	0.882567
O5	O	0.100004	-0.521670	0.382483
O6	O	0.600004	-0.021670	0.882483
O7	O	-0.025653	-0.488314	0.474886
O8	O	0.474347	0.011686	0.974886
O9	O	0.126426	-0.495253	0.408816
O10	O	0.626426	0.004747	0.908816
O11	O	0.046800	-0.415707	0.408900
O12	O	0.546800	0.084293	0.908900
O13	O	0.080396	-0.541443	0.501134
O14	O	0.580396	-0.041443	1.001134
Zn15	Zn	0.067793	-0.474381	0.459198
Zn16	Zn	0.567793	0.025619	0.959198
Zn17	Zn	0.032980	-0.509186	0.424503
Zn18	Zn	0.532980	-0.009186	0.924503
O19	O	0.000769	-0.461897	0.501219
O20	O	0.500769	0.038103	1.001219
N21	N	0.091552	-0.450631	0.482879
N22	N	0.591552	0.049369	0.982879
N23	N	0.009225	-0.532940	0.400823
N24	N	0.509225	-0.032940	0.900823
C25	C	0.142848	-0.268847	0.534081
C26	C	0.642848	0.231153	1.034081
C27	C	0.142979	-0.399386	0.664559
C28	C	0.642979	0.100614	1.164559
C29	C	0.142862	-0.399365	0.534081
C30	C	0.642862	0.100635	1.034081
C31	C	0.273409	-0.399338	0.533986
C32	C	0.773409	0.100662	1.033986
C33	C	0.157225	-0.311914	0.548422
C34	C	0.657225	0.188086	1.048422
C35	C	0.157300	-0.385019	0.621491
C36	C	0.657300	0.114981	1.121491
C37	C	0.230339	-0.384991	0.548370
C38	C	0.730339	0.115009	1.048370
C39	C	0.157235	-0.385007	0.548422
C40	C	0.657235	0.114993	1.048422
C41	C	0.124548	-0.214028	0.515827
C42	C	0.624548	0.285972	1.015827
C43	C	0.124571	-0.417639	0.515827
C44	C	0.624571	0.082361	1.015827
C45	C	0.175526	-0.366733	0.566676
C46	C	0.675526	0.133267	1.066676
C47	C	0.353121	-0.385580	0.491988
C48	C	0.853121	0.114420	0.991988
C49	C	0.402952	-0.402180	0.475348
C50	C	0.902952	0.097820	0.975348
C51	C	0.402981	-0.482812	0.506096
C52	C	0.902981	0.017188	1.006096
C53	C	0.353151	-0.466211	0.522737
C54	C	0.853151	0.033789	1.022737
C55	C	0.136544	-0.189099	0.466839
C56	C	0.636544	0.310901	0.966839
C57	C	0.119905	-0.139265	0.450247
C58	C	0.619905	0.360735	0.950247
C59	C	0.079280	-0.139291	0.531632
C60	C	0.579280	0.360709	1.031632
C61	C	0.095918	-0.189125	0.548224
C62	C	0.595918	0.310875	1.048224
C63	C	0.075577	-0.405615	0.527900
C64	C	0.575577	0.094385	1.027900
C65	C	0.058953	-0.422228	0.511301
C66	C	0.558953	0.077772	1.011301
C67	C	0.140315	-0.462889	0.470566
C68	C	0.640315	0.037111	0.970566
C69	C	0.156941	-0.446276	0.487159
C70	C	0.656941	0.053724	0.987159
C71	C	0.075772	-0.405653	0.744326
C72	C	0.575772	0.094347	1.244326
C73	C	0.059206	-0.422280	0.794159
C74	C	0.559206	0.077720	1.294159
C75	C	0.140607	-0.462951	0.794094
C76	C	0.640607	0.037049	1.294094
C77	C	0.157172	-0.446325	0.744260
C78	C	0.657172	0.053675	1.244260
C79	C	0.124753	-0.417674	0.719377
C80	C	0.624753	0.082326	1.219377
C81	C	0.328223	-0.417595	0.515681
C82	C	0.828223	0.082405	1.015681
C83	C	-0.172390	-0.583988	0.349141
C84	C	0.327610	-0.083988	0.849141
C85	C	-0.041751	-0.584138	0.218783
C86	C	0.458249	-0.084138	0.718783
C87	C	-0.041941	-0.584130	0.349402
C88	C	0.458059	-0.084130	0.849402
C89	C	-0.041957	-0.714607	0.349338
C90	C	0.458043	-0.214607	0.849338
C91	C	-0.129326	-0.598388	0.334853
C92	C	0.370674	-0.098388	0.834853
C93	C	-0.056165	-0.598473	0.261852
C94	C	0.443835	-0.098473	0.761852
C95	C	-0.056282	-0.671535	0.334962
C96	C	0.443718	-0.171535	0.834962
C97	C	-0.056272	-0.598469	0.334999
C98	C	0.443728	-0.098469	0.834999
C99	C	-0.227205	-0.565659	0.367327
C100	C	0.272795	-0.065659	0.867327
C101	C	-0.023703	-0.565882	0.367734
C102	C	0.476297	-0.065882	0.867734
C103	C	-0.074511	-0.616717	0.316667
C104	C	0.425489	-0.116717	0.816667
C105	C	-0.055754	-0.794298	0.391257
C106	C	0.444246	-0.294298	0.891257
C107	C	-0.039181	-0.844132	0.407888
C108	C	0.460819	-0.344132	0.907888
C109	C	0.041447	-0.844215	0.377269
C110	C	0.541447	-0.344215	0.877269
C111	C	0.024873	-0.794381	0.360637
C112	C	0.524873	-0.294381	0.860637
C113	C	-0.252183	-0.577666	0.416302
C114	C	0.247817	-0.077666	0.916302
C115	C	-0.302014	-0.561001	0.432833
C116	C	0.197986	-0.061001	0.932833
C117	C	-0.301886	-0.520329	0.351410
C118	C	0.198114	-0.020329	0.851410
C119	C	-0.252055	-0.536994	0.334880
C120	C	0.247945	-0.036994	0.834880
C121	C	-0.035709	-0.516892	0.355682
C122	C	0.464291	-0.016892	0.855682
C123	C	-0.019129	-0.500308	0.372353
C124	C	0.480871	-0.000308	0.872353
C125	C	0.021465	-0.581700	0.413115
C126	C	0.521465	-0.081700	0.913115
C127	C	0.004884	-0.598286	0.396450
C128	C	0.504884	-0.098286	0.896450
C129	C	-0.035389	-0.516907	0.139026
C130	C	0.464611	-0.016907	0.639026
C131	C	-0.018707	-0.500324	0.089193
C132	C	0.481293	-0.000324	0.589193
C133	C	0.021949	-0.581721	0.089240
C134	C	0.521949	-0.081721	0.589240
C135	C	0.005268	-0.598303	0.139074
C136	C	0.505268	-0.098303	0.639074
C137	C	-0.023402	-0.565894	0.163965
C138	C	0.476598	-0.065894	0.663965
C139	C	-0.023728	-0.769425	0.367633
C140	C	0.476272	-0.269425	0.867633
N141	N	0.427173	-0.450553	0.482630
N142	N	0.927173	0.049447	0.982630
O143	O	0.589997	-0.458460	0.365361
O144	O	1.089997	0.041540	0.865361
O145	O	0.590185	-0.550997	0.490963
O146	O	1.090185	-0.050997	0.990963
O147	O	0.590104	-0.550786	0.411309
O148	O	1.090104	-0.050786	0.911309
O149	O	0.590077	-0.458671	0.445016
O150	O	1.090077	0.041329	0.945016
O151	O	0.510940	-0.524462	0.437777
O152	O	1.010940	-0.024462	0.937777
O153	O	0.511020	-0.524674	0.517432
O154	O	1.011020	-0.024674	1.017432
O155	O	0.510832	-0.432136	0.391830
O156	O	1.010832	0.067864	0.891830
Zn157	Zn	0.498357	-0.474225	0.458833
Zn158	Zn	0.998357	0.025775	0.958833
Zn159	Zn	0.602660	-0.508908	0.423960
Zn160	Zn	1.102660	-0.008908	0.923960
O161	O	0.510913	-0.432348	0.471484
O162	O	1.010913	0.067652	0.971484
N163	N	0.673844	-0.532580	0.400158
N164	N	1.173844	-0.032580	0.900158
N165	N	0.091520	-0.115070	0.482873
N166	N	0.591520	0.384930	0.982873
O167	O	-0.025663	0.047841	0.474857
O168	O	0.474337	0.547841	0.974857
O169	O	0.099940	0.047877	0.382299
O170	O	0.599940	0.547877	0.882299
O171	O	0.020247	0.047844	0.382560
O172	O	0.520247	0.547844	0.882560
O173	O	0.054030	0.047874	0.474596
O174	O	0.554030	0.547874	0.974596
O175	O	0.046674	-0.031326	0.408942
O176	O	0.546674	0.468674	0.908942
O177	O	0.126367	-0.031293	0.408680
O178	O	0.626367	0.468707	0.908680
O179	O	0.000764	-0.031329	0.501238
O180	O	0.500764	0.468671	1.001238
Zn181	Zn	0.067761	-0.043881	0.459148
Zn182	Zn	0.567761	0.456119	0.959148
Zn183	Zn	0.032943	0.060429	0.424389
Zn184	Zn	0.532943	0.560429	0.924389
O185	O	0.080457	-0.031296	0.500977
O186	O	0.580457	0.468704	1.000977
N187	N	0.009178	0.131618	0.400665
N188	N	0.509178	0.631618	0.900665
N189	N	0.091852	-0.450680	0.818332
N190	N	0.591852	0.049320	1.318332
O191	O	0.083862	-0.567845	0.981235
O192	O	0.583862	-0.067845	1.481235
O193	O	-0.008657	-0.442198	0.981276
O194	O	0.491343	0.057802	1.481276
O195	O	-0.008441	-0.521875	0.981252
O196	O	0.491559	-0.021875	1.481252
O197	O	0.083646	-0.488168	0.981258
O198	O	0.583646	0.011832	1.481258
O199	O	0.017919	-0.495468	0.902085
O200	O	0.517919	0.004532	1.402085
O201	O	0.017703	-0.415791	0.902109
O202	O	0.517703	0.084209	1.402109
O203	O	0.110222	-0.541438	0.902067
O204	O	0.610222	-0.041438	1.402067
Zn205	Zn	0.068148	-0.474422	0.889518
Zn206	Zn	0.568148	0.025578	1.389518
Zn207	Zn	0.033417	-0.509214	0.993825
Zn208	Zn	0.533417	-0.009214	1.493825
O209	O	0.110006	-0.461761	0.902091
O210	O	0.610006	0.038239	1.402091
N211	N	0.009712	-0.532961	1.065011
N212	N	0.509712	-0.032961	1.565011
C213	C	0.030439	-0.413071	0.383027
C214	C	0.530439	0.086929	0.883027
C215	C	0.129046	-0.511580	0.382922
C216	C	0.629046	-0.011580	0.882922
C217	C	0.070334	-0.570496	0.500675
C218	C	0.570334	-0.070496	1.000675
C219	C	-0.028274	-0.471987	0.500780
C220	C	0.471726	0.028013	1.000780
C221	C	0.550625	-0.550579	0.520021
C222	C	1.050625	-0.050579	1.020021
C223	C	0.550527	-0.550317	0.421379
C224	C	1.050527	-0.050317	0.921379
C225	C	0.550389	-0.432554	0.362773
C226	C	1.050389	0.067446	0.862773
C227	C	0.550491	-0.432816	0.461414
C228	C	1.050491	0.067184	0.961414
C229	C	0.128944	0.008394	0.382712
C230	C	0.628944	0.508394	0.882712
C231	C	0.030287	0.008256	0.383068
C232	C	0.530287	0.508256	0.883068
C233	C	-0.028273	0.008252	0.500793
C234	C	0.471727	0.508252	1.000793
C235	C	0.070417	0.008292	0.500470
C236	C	0.570417	0.508292	1.000470
C237	C	-0.008218	-0.413165	0.941698
C238	C	0.491782	0.086835	1.441698
C239	C	-0.007945	-0.511830	0.941653
C240	C	0.492055	-0.011830	1.441653
C241	C	0.109783	-0.570471	0.941646
C242	C	0.609783	-0.070471	1.441646
C243	C	0.109516	-0.471800	0.941673
C244	C	0.609516	0.028200	1.441673
H245	H	0.049370	-0.382321	0.724071
H246	H	0.549370	0.117679	1.224071
C247	C	0.149026	-0.619218	0.941629
C248	C	0.649026	-0.119218	1.441629
C249	C	0.169524	-0.649877	0.982732
C250	C	0.669524	-0.149877	1.482732
C251	C	0.208767	-0.698625	0.982715
C252	C	0.708767	-0.198625	1.482715
C253	C	0.227511	-0.716714	0.941596
C254	C	0.727511	-0.216714	1.441596
C255	C	0.207013	-0.686055	0.900491
C256	C	0.707013	-0.186055	1.400491
C257	C	0.167771	-0.637307	0.900507
C258	C	0.667771	-0.137307	1.400507
H259	H	0.155648	-0.636486	1.013173
H260	H	0.655648	-0.136486	1.513173
H261	H	0.223941	-0.721320	1.013145
H262	H	0.723941	-0.221320	1.513145
H263	H	0.256561	-0.752800	0.941584
H264	H	0.756561	-0.252800	1.441584
H265	H	0.220889	-0.699446	0.870049
H266	H	0.720889	-0.199446	1.370049
H267	H	0.152597	-0.614612	0.870078
H268	H	0.652597	-0.114612	1.370078
C269	C	0.020744	-0.364278	0.343888
C270	C	0.520744	0.135722	0.843888
C271	C	0.059848	-0.354621	0.295074
C272	C	0.559848	0.145379	0.795074
C273	C	0.050154	-0.305827	0.255935
C274	C	0.550154	0.194173	0.755935
C275	C	0.001356	-0.266692	0.265610
C276	C	0.501356	0.233308	0.765610
C277	C	-0.037751	-0.276349	0.314427
C278	C	0.462249	0.223651	0.814427
C279	C	-0.028057	-0.325142	0.353565
C280	C	0.471943	0.174858	0.853565
H281	H	0.095975	-0.383592	0.287909
H282	H	0.595975	0.116408	0.787909
H283	H	0.079104	-0.298679	0.219798
H284	H	0.579104	0.201321	0.719798
H285	H	-0.005821	-0.230573	0.236638
H286	H	0.494179	0.269427	0.736638
H287	H	-0.073878	-0.247378	0.321591
H288	H	0.426122	0.252622	0.821591
H289	H	-0.057007	-0.332290	0.389703
H290	H	0.442993	0.167710	0.889703
H291	H	0.081021	-0.864532	0.371574
H292	H	0.581021	-0.364532	0.871574
H293	H	0.165136	-0.518689	0.353905
H294	H	0.665136	-0.018689	0.853905
C295	C	-0.047461	-0.364417	0.941714
C296	C	0.452539	0.135583	1.441714
C297	C	-0.067959	-0.333759	0.900612
C298	C	0.432041	0.166241	1.400612
C299	C	-0.107202	-0.285011	0.900628
C300	C	0.392798	0.214989	1.400628
C301	C	-0.125947	-0.266922	0.941748
C302	C	0.374053	0.233078	1.441748
C303	C	-0.105448	-0.297581	0.982853
C304	C	0.394552	0.202419	1.482853
C305	C	-0.066205	-0.346329	0.982837
C306	C	0.433795	0.153671	1.482837
H307	H	-0.054083	-0.347149	0.870170
H308	H	0.445917	0.152851	1.370170
H309	H	-0.122376	-0.262316	0.870199
H310	H	0.377624	0.237684	1.370199
H311	H	-0.154996	-0.230836	0.941760
H312	H	0.345004	0.269164	1.441760
H313	H	-0.119324	-0.284191	1.013295
H314	H	0.380676	0.215809	1.513295
H315	H	-0.051031	-0.369024	1.013266
H316	H	0.448969	0.130976	1.513266
H317	H	-0.095331	-0.773979	0.396956
H318	H	0.404669	-0.273979	0.896956
C319	C	0.550695	-0.589828	0.568753
C320	C	1.050695	-0.089828	1.068753
C321	C	0.509624	-0.610349	0.599432
C322	C	1.009624	-0.110349	1.099432
C323	C	0.509694	-0.649598	0.648163
C324	C	1.009694	-0.149598	1.148163
C325	C	0.550835	-0.668326	0.666216
C326	C	1.050835	-0.168326	1.166216
C327	C	0.591909	-0.647804	0.635537
C328	C	1.091909	-0.147804	1.135537
C329	C	0.591839	-0.608555	0.586805
C330	C	1.091839	-0.108555	1.086805
H331	H	0.479167	-0.596486	0.586068
H332	H	0.979167	-0.096486	1.086068
H333	H	0.479288	-0.664789	0.670874
H334	H	0.979288	-0.164789	1.170874
H335	H	0.550887	-0.697380	0.702290
H336	H	1.050887	-0.197380	1.202290
H337	H	0.622367	-0.661667	0.648900
H338	H	1.122367	-0.161667	1.148900
H339	H	0.622245	-0.593364	0.564094
H340	H	1.122245	-0.093364	1.064094
H341	H	0.550540	-0.579254	0.414165
H342	H	1.050540	-0.079254	0.914165
C343	C	0.080188	0.008299	0.539536
C344	C	0.580188	0.508299	1.039536
C345	C	0.093320	0.049421	0.530719
C346	C	0.593320	0.549421	1.030719
C347	C	0.103090	0.049429	0.569785
C348	C	0.603090	0.549429	1.069785
C349	C	0.099729	0.008315	0.617667
C350	C	0.599729	0.508315	1.117667
C351	C	0.086597	-0.032809	0.626485
C352	C	0.586597	0.467191	1.126485
C353	C	0.076826	-0.032817	0.587420
C354	C	0.576826	0.467183	1.087420
H355	H	0.095808	0.079858	0.495272
H356	H	0.595808	0.579858	0.995272
H357	H	0.112812	0.079872	0.563257
H358	H	0.612812	0.579872	1.063257
H359	H	0.106962	0.008321	0.646586
H360	H	0.606962	0.508321	1.146586
H361	H	0.084108	-0.063247	0.661932
H362	H	0.584108	0.436753	1.161932
H363	H	0.067105	-0.063260	0.593948
H364	H	0.567105	0.436740	1.093948
H365	H	-0.064365	-0.464880	0.529794
H366	H	0.435635	0.035120	1.029794
H367	H	0.550329	-0.403500	0.326702
H368	H	1.050329	0.096500	0.826702
H369	H	0.138447	-0.464586	0.941669
H370	H	0.638447	0.035414	1.441669
H371	H	0.077514	-0.606615	0.529644
H372	H	0.577514	-0.106615	1.029644
H373	H	0.550485	-0.403881	0.468626
H374	H	1.050485	0.096119	0.968626
H375	H	0.164941	0.008624	0.353583
H376	H	0.664941	0.508624	0.853583
H377	H	0.023050	0.008252	0.354152
H378	H	0.523050	0.508252	0.854152
H379	H	-0.036863	-0.519031	0.941619
H380	H	0.463137	-0.019031	1.441619
C381	C	-0.077002	0.008240	0.540049
C382	C	0.422998	0.508240	1.040049
C383	C	-0.116247	0.008223	0.530567
C384	C	0.383753	0.508223	1.030567
C385	C	-0.164976	0.008211	0.569823
C386	C	0.335024	0.508211	1.069823
C387	C	-0.174459	0.008216	0.618561
C388	C	0.325541	0.508216	1.118561
C389	C	-0.135212	0.008234	0.628046
C390	C	0.364788	0.508234	1.128046
C391	C	-0.086484	0.008246	0.588790
C392	C	0.413516	0.508246	1.088790
H393	H	-0.109228	0.008219	0.494486
H394	H	0.390772	0.508219	0.994486
H395	H	-0.194029	0.008198	0.562802
H396	H	0.305971	0.508198	1.062802
H397	H	-0.210531	0.008208	0.647621
H398	H	0.289469	0.508208	1.147621
H399	H	-0.142231	0.008238	0.664127
H400	H	0.357769	0.508238	1.164127
H401	H	-0.057431	0.008258	0.595811
H402	H	0.442569	0.508258	1.095811
H403	H	0.019320	-0.412483	0.814467
H404	H	0.519320	0.087517	1.314467
H405	H	0.197059	-0.456117	0.723950
H406	H	0.697059	0.043883	1.223950
C407	C	0.176266	-0.494457	0.821467
C408	C	0.676266	0.005543	1.321467
C409	C	0.212114	-0.475376	0.814591
C410	C	0.712114	0.024624	1.314591
C411	C	0.247772	-0.506885	0.841964
C412	C	0.747772	-0.006885	1.341964
C413	C	0.247582	-0.557475	0.876215
C414	C	0.747582	-0.057475	1.376215
C415	C	0.211733	-0.576559	0.883093
C416	C	0.711733	-0.076559	1.383093
C417	C	0.176075	-0.545050	0.855719
C418	C	0.676075	-0.045050	1.355719
H419	H	0.212255	-0.437923	0.789235
H420	H	0.712255	0.062077	1.289235
H421	H	0.274310	-0.492757	0.836873
H422	H	0.774310	0.007243	1.336873
H423	H	0.273978	-0.580800	0.896478
H424	H	0.773978	-0.080800	1.396478
H425	H	0.211592	-0.614011	0.908448
H426	H	0.711592	-0.114011	1.408448
H427	H	0.149537	-0.559177	0.860811
H428	H	0.649537	-0.059177	1.360811
C429	C	0.039968	-0.374111	0.559428
C430	C	0.539968	0.125889	1.059428
C431	C	0.004149	-0.393191	0.607505
C432	C	0.504149	0.106809	1.107505
C433	C	-0.031461	-0.361685	0.639033
C434	C	0.468539	0.138315	1.139033
C435	C	-0.031251	-0.311099	0.622486
C436	C	0.468749	0.188901	1.122486
C437	C	0.004570	-0.292016	0.574407
C438	C	0.504570	0.207984	1.074407
C439	C	0.040180	-0.323522	0.542879
C440	C	0.540180	0.176478	1.042879
H441	H	0.003992	-0.430640	0.619756
H442	H	0.503992	0.069360	1.119756
H443	H	-0.057978	-0.375812	0.674625
H444	H	0.442022	0.124188	1.174625
H445	H	-0.057611	-0.287777	0.645825
H446	H	0.442389	0.212223	1.145825
H447	H	0.004727	-0.254567	0.562156
H448	H	0.504727	0.245433	1.062156
H449	H	0.066697	-0.309395	0.507287
H450	H	0.566697	0.190605	1.007287
C451	C	0.005059	-0.409006	0.524577
C452	C	0.505059	0.090994	1.024577
C453	C	-0.026184	-0.423532	0.577218
C454	C	0.473816	0.076468	1.077218
C455	C	-0.080077	-0.410311	0.590492
C456	C	0.419923	0.089689	1.090492
C457	C	-0.102726	-0.382565	0.551125
C458	C	0.397274	0.117435	1.051125
C459	C	-0.071483	-0.368038	0.498481
C460	C	0.428517	0.131962	0.998481
C461	C	-0.017590	-0.381259	0.485206
C462	C	0.482410	0.118741	0.985206
H463	H	-0.009418	-0.444072	0.606362
H464	H	0.490582	0.055928	1.106362
H465	H	-0.103205	-0.421065	0.629463
H466	H	0.396795	0.078935	1.129463
H467	H	-0.142621	-0.372778	0.560952
H468	H	0.357379	0.127222	1.060952
H469	H	-0.088249	-0.347497	0.469336
H470	H	0.411751	0.152503	0.969336
H471	H	0.005539	-0.370505	0.446235
H472	H	0.505539	0.129495	0.946235
H473	H	0.196836	-0.456064	0.477324
H474	H	0.696836	0.043936	0.977324
C475	C	0.175925	-0.494393	0.439034
C476	C	0.675925	0.005607	0.939034
C477	C	0.211805	-0.542456	0.458071
C478	C	0.711805	-0.042456	0.958071
C479	C	0.247413	-0.573958	0.426538
C480	C	0.747413	-0.073958	0.926538
C481	C	0.247140	-0.557398	0.375970
C482	C	0.747140	-0.057398	0.875970
C483	C	0.211258	-0.509333	0.356930
C484	C	0.711258	-0.009333	0.856930
C485	C	0.175651	-0.477831	0.388462
C486	C	0.675651	0.022169	0.888462
H487	H	0.212009	-0.554717	0.495507
H488	H	0.712009	-0.054717	0.995507
H489	H	0.273975	-0.609539	0.440633
H490	H	0.773975	-0.109539	0.940633
H491	H	0.273498	-0.580718	0.352628
H492	H	0.773498	-0.080718	0.852628
H493	H	0.211055	-0.497072	0.319494
H494	H	0.711055	0.002928	0.819494
H495	H	0.149089	-0.442250	0.374368
H496	H	0.649089	0.057750	0.874368
H497	H	0.332881	-0.492283	0.542031
H498	H	0.832881	0.007717	1.042031
H499	H	0.423275	-0.522397	0.511838
H500	H	0.923275	-0.022397	1.011838
H501	H	0.423225	-0.376108	0.456057
H502	H	0.923225	0.123892	0.956057
H503	H	0.159856	-0.209371	0.440456
H504	H	0.659856	0.290629	0.940456
C505	C	0.325698	-0.332101	0.484229
C506	C	0.825698	0.167899	0.984229
C507	C	0.332509	-0.295861	0.433382
C508	C	0.832509	0.204139	0.933382
C509	C	0.305088	-0.242383	0.425621
C510	C	0.805088	0.257617	0.925621
C511	C	0.270856	-0.225144	0.468707
C512	C	0.770856	0.274856	0.968707
C513	C	0.264043	-0.261384	0.519557
C514	C	0.764043	0.238616	1.019557
C515	C	0.291464	-0.314863	0.527319
C516	C	0.791464	0.185137	1.027319
H517	H	0.357851	-0.308622	0.401484
H518	H	0.857851	0.191378	0.901484
H519	H	0.310132	-0.215555	0.387977
H520	H	0.810132	0.284445	0.887977
H521	H	0.250557	-0.185556	0.462962
H522	H	0.750557	0.314444	0.962962
H523	H	0.238700	-0.248624	0.551456
H524	H	0.738700	0.251376	1.051456
H525	H	0.286420	-0.341690	0.564962
H526	H	0.786420	0.158310	1.064962
C527	C	0.133100	-0.111838	0.396359
C528	C	0.633100	0.388162	0.896359
C529	C	0.185717	-0.118666	0.365045
C530	C	0.685717	0.381334	0.865045
C531	C	0.198911	-0.091241	0.311156
C532	C	0.698911	0.408759	0.811156
C533	C	0.159487	-0.056988	0.288581
C534	C	0.659487	0.443012	0.788581
C535	C	0.106867	-0.050158	0.319895
C536	C	0.606867	0.449842	0.819895
C537	C	0.093673	-0.077584	0.373784
C538	C	0.593673	0.422416	0.873784
H539	H	0.214903	-0.144024	0.381756
H540	H	0.714903	0.355976	0.881756
H541	H	0.237864	-0.096297	0.287976
H542	H	0.737864	0.403703	0.787976
H543	H	0.169254	-0.036686	0.248690
H544	H	0.669254	0.463314	0.748690
H545	H	0.077680	-0.024801	0.303184
H546	H	0.577680	0.475199	0.803184
H547	H	0.054719	-0.072528	0.396965
H548	H	0.554719	0.427472	0.896965
C549	C	0.047791	-0.111896	0.567268
C550	C	0.547791	0.388104	1.067268
C551	C	0.029489	-0.057080	0.549019
C552	C	0.529489	0.442920	1.049019
C553	C	-0.002000	-0.029687	0.584656
C554	C	0.498000	0.470313	1.084656
C555	C	-0.015187	-0.057108	0.638543
C556	C	0.484813	0.442892	1.138543
C557	C	0.003115	-0.111927	0.656795
C558	C	0.503115	0.388073	1.156795
C559	C	0.034604	-0.139320	0.621158
C560	C	0.534604	0.360680	1.121158
H561	H	0.039251	-0.036778	0.509126
H562	H	0.539251	0.463222	1.009126
H563	H	-0.015548	0.010894	0.571144
H564	H	0.484452	0.510894	1.071144
H565	H	-0.038497	-0.036830	0.664924
H566	H	0.461503	0.463170	1.164924
H567	H	-0.006647	-0.132229	0.696688
H568	H	0.493353	0.367771	1.196688
H569	H	0.048153	-0.179901	0.634670
H570	H	0.548153	0.320099	1.134670
C571	C	0.082723	-0.216544	0.602112
C572	C	0.582723	0.283456	1.102112
C573	C	0.122144	-0.250798	0.624689
C574	C	0.622144	0.249202	1.124689
C575	C	0.108947	-0.278217	0.678579
C576	C	0.608947	0.221783	1.178579
C577	C	0.056329	-0.271383	0.709891
C578	C	0.556329	0.228617	1.209891
C579	C	0.016904	-0.237128	0.687314
C580	C	0.516904	0.262872	1.187314
C581	C	0.030101	-0.209709	0.633424
C582	C	0.530101	0.290291	1.133424
H583	H	0.161099	-0.255858	0.601510
H584	H	0.661099	0.244142	1.101510
H585	H	0.138132	-0.303575	0.695292
H586	H	0.638132	0.196425	1.195292
H587	H	0.046560	-0.291681	0.749784
H588	H	0.546560	0.208319	1.249784
H589	H	-0.022050	-0.232068	0.710494
H590	H	0.477950	0.267932	1.210494
H591	H	0.000916	-0.184351	0.616711
H592	H	0.500916	0.315649	1.116711
C593	C	-0.066927	-0.481254	0.166402
C594	C	0.433073	0.018746	0.666402
C595	C	-0.047853	-0.445433	0.159594
C596	C	0.452147	0.054567	0.659594
C597	C	-0.079387	-0.409780	0.186970
C598	C	0.420613	0.090220	0.686970
C599	C	-0.129996	-0.409947	0.221154
C600	C	0.370004	0.090053	0.721154
C601	C	-0.149073	-0.445768	0.227962
C602	C	0.350927	0.054232	0.727962
C603	C	-0.117538	-0.481422	0.200587
C604	C	0.382462	0.018578	0.700587
H605	H	-0.010387	-0.445309	0.134289
H606	H	0.489613	0.054691	0.634289
H607	H	-0.065265	-0.383263	0.181930
H608	H	0.434735	0.116737	0.681930
H609	H	-0.153340	-0.383554	0.241419
H610	H	0.346660	0.116446	0.741419
H611	H	-0.186539	-0.445893	0.253268
H612	H	0.313461	0.054107	0.753268
H613	H	-0.131661	-0.507939	0.205627
H614	H	0.368339	-0.007939	0.705627
C615	C	0.053477	-0.617372	0.061861
C616	C	0.553477	-0.117372	0.561861
C617	C	0.036984	-0.617128	0.027542
C618	C	0.536984	-0.117128	0.527542
C619	C	0.068516	-0.652779	0.000164
C620	C	0.568516	-0.152779	0.500164
C621	C	0.116541	-0.688674	0.007104
C622	C	0.616541	-0.188674	0.507104
C623	C	0.133036	-0.688919	0.041424
C624	C	0.633036	-0.188919	0.541424
C625	C	0.101505	-0.653268	0.068802
C626	C	0.601505	-0.153268	0.568802
H627	H	0.001431	-0.590556	0.022404
H628	H	0.501431	-0.090556	0.522404
H629	H	0.056304	-0.652597	-0.025242
H630	H	0.556304	-0.152597	0.474758
H631	H	0.139882	-0.715065	-0.013164
H632	H	0.639882	-0.215065	0.486836
H633	H	0.168589	-0.715492	0.046562
H634	H	0.668589	-0.215492	0.546562
H635	H	0.113716	-0.653450	0.094208
H636	H	0.613716	-0.153450	0.594208
C637	C	0.018453	-0.652193	0.166507
C638	C	0.518453	-0.152193	0.666507
C639	C	0.049983	-0.687839	0.139126
C640	C	0.549983	-0.187839	0.639126
C641	C	0.063167	-0.741728	0.166557
C642	C	0.563167	-0.241728	0.666557
C643	C	0.044821	-0.759971	0.221370
C644	C	0.544821	-0.259971	0.721370
C645	C	0.013289	-0.724325	0.248755
C646	C	0.513289	-0.224325	0.748755
C647	C	0.000105	-0.670436	0.221323
C648	C	0.500105	-0.170436	0.721323
H649	H	0.063565	-0.674334	0.098547
H650	H	0.563565	-0.174334	0.598547
H651	H	0.086509	-0.768115	0.146285
H652	H	0.586509	-0.268115	0.646285
H653	H	0.054580	-0.799863	0.241677
H654	H	0.554580	-0.299863	0.741677
H655	H	-0.000294	-0.737829	0.289334
H656	H	0.499706	-0.237829	0.789334
H657	H	-0.023237	-0.644048	0.241596
H658	H	0.476763	-0.144048	0.741596
H659	H	-0.028474	-0.460433	0.068892
H660	H	0.471526	0.039567	0.568892
H661	H	-0.058984	-0.490504	0.332300
H662	H	0.441016	0.009496	0.832300
H663	H	0.044746	-0.608091	0.436494
H664	H	0.544746	-0.108091	0.936494
C665	C	-0.032333	-0.446418	0.359104
C666	C	0.467667	0.053582	0.859104
C667	C	0.007085	-0.423865	0.331440
C668	C	0.507085	0.076135	0.831440
C669	C	-0.006120	-0.369977	0.318193
C670	C	0.493880	0.130023	0.818193
C671	C	-0.058744	-0.338642	0.332610
C672	C	0.441256	0.161358	0.832610
C673	C	-0.098166	-0.361195	0.360275
C674	C	0.401834	0.138805	0.860275
C675	C	-0.084961	-0.415083	0.373522
C676	C	0.415039	0.084917	0.873522
H677	H	0.046043	-0.447061	0.320767
H678	H	0.546043	0.052939	0.820767
H679	H	0.023063	-0.353281	0.297714
H680	H	0.523063	0.146719	0.797714
H681	H	-0.068519	-0.298751	0.322804
H682	H	0.431481	0.201249	0.822804
H683	H	-0.137124	-0.337999	0.370949
H684	H	0.362876	0.162001	0.870949
H685	H	-0.114144	-0.431779	0.394002
H686	H	0.385856	0.068221	0.894002
C687	C	0.018097	-0.652177	0.409697
C688	C	0.518097	-0.152177	0.909697
C689	C	0.049547	-0.687820	0.441278
C690	C	0.549547	-0.187820	0.941278
C691	C	0.062764	-0.741710	0.454521
C692	C	0.562764	-0.241710	0.954521
C693	C	0.044531	-0.759956	0.436184
C694	C	0.544531	-0.259956	0.936184
C695	C	0.013079	-0.724312	0.404601
C696	C	0.513079	-0.224312	0.904601
C697	C	-0.000138	-0.670422	0.391357
C698	C	0.499862	-0.170422	0.891357
H699	H	0.063046	-0.674314	0.454854
H700	H	0.563046	-0.174314	0.954854
H701	H	0.086047	-0.768096	0.477901
H702	H	0.586047	-0.268096	0.977901
H703	H	0.054315	-0.799848	0.445988
H704	H	0.554315	-0.299848	0.945988
H705	H	-0.000419	-0.737818	0.391025
H706	H	0.499581	-0.237818	0.891025
H707	H	-0.023420	-0.644036	0.367978
H708	H	0.476580	-0.144036	0.867978
H709	H	-0.065262	-0.864385	0.427124
H710	H	0.434738	-0.364385	0.927124
C711	C	0.060105	-0.767022	0.334648
C712	C	0.560105	-0.267022	0.834648
C713	C	0.113564	-0.794479	0.326957
C714	C	0.613564	-0.294479	0.826957
C715	C	0.148798	-0.767120	0.300968
C716	C	0.648798	-0.267120	0.800968
C717	C	0.130574	-0.712304	0.282670
C718	C	0.630574	-0.212304	0.782670
C719	C	0.077112	-0.684845	0.290361
C720	C	0.577112	-0.184845	0.790361
C721	C	0.041878	-0.712204	0.316350
C722	C	0.541878	-0.212204	0.816350
H723	H	0.127058	-0.835059	0.340503
H724	H	0.627058	-0.335059	0.840503
H725	H	0.188374	-0.787448	0.295275
H726	H	0.688374	-0.287448	0.795275
H727	H	0.156656	-0.692052	0.263431
H728	H	0.656656	-0.192052	0.763431
H729	H	0.063618	-0.644264	0.276815
H730	H	0.563618	-0.144264	0.776815
H731	H	0.002302	-0.691876	0.322043
H732	H	0.502302	-0.191876	0.822043
H733	H	-0.231954	-0.601008	0.442726
H734	H	0.268046	-0.101008	0.942726
H735	H	-0.322352	-0.570775	0.472713
H736	H	0.177648	-0.070775	0.972713
H737	H	-0.322118	-0.496994	0.324987
H738	H	0.177882	0.003006	0.824987
H739	H	-0.231721	-0.527215	0.295000
H740	H	0.268279	-0.027215	0.795000
