data_functionalizedCrystal
_audit_creation_method	'MofGen! by Chris Wilmer'
_symmetry_space_group_name_H-M	'P1'
_symmetry_Int_Tables_number	1
_symmetry_cell_setting	triclinic
loop_
_symmetry_equiv_pos_as_xyz
  x,y,z
_cell_length_a	19.077068
_cell_length_b	19.077148
_cell_length_c	19.076919
_cell_angle_alpha	89.924853
_cell_angle_beta	94.470751
_cell_angle_gamma	89.885327
loop_
_atom_site_label
_atom_site_type_symbol
_atom_site_fract_x
_atom_site_fract_y
_atom_site_fract_z
Zn1	Zn	-0.340464	-1.044046	-0.453520
Zn2	Zn	-0.007130	-0.710713	-0.120187
Zn3	Zn	0.326203	-0.377379	0.213146
Zn4	Zn	-0.453614	-1.043959	-0.340361
Zn5	Zn	-0.120280	-0.710626	-0.007028
Zn6	Zn	0.213053	-0.377293	0.326306
Zn7	Zn	-0.331035	-0.931658	-0.330949
Zn8	Zn	0.002298	-0.598325	0.002384
Zn9	Zn	0.335632	-0.264991	0.335718
Zn10	Zn	-0.453188	-0.921799	-0.453095
Zn11	Zn	-0.119854	-0.588466	-0.119762
Zn12	Zn	0.213479	-0.255132	0.213572
O13	O	-0.394575	-0.985366	-0.394481
O14	O	-0.061242	-0.652032	-0.061148
O15	O	0.272092	-0.318699	0.272185
O16	O	-0.359598	-1.142194	-0.442626
O17	O	-0.026264	-0.808861	-0.109293
O18	O	0.307069	-0.475527	0.224040
O19	O	-0.433586	-1.033152	-0.240637
O20	O	-0.100252	-0.699819	0.092697
O21	O	0.233081	-0.366485	0.426030
O22	O	-0.233811	-0.950729	-0.343447
O23	O	0.099522	-0.617395	-0.010114
O24	O	0.432856	-0.284062	0.323219
O25	O	-0.442728	-1.142130	-0.359489
O26	O	-0.109395	-0.808797	-0.026155
O27	O	0.223939	-0.475463	0.307178
O28	O	-0.240738	-1.033300	-0.433500
O29	O	0.092595	-0.699966	-0.100166
O30	O	0.425928	-0.366633	0.233167
O31	O	-0.343528	-0.950645	-0.233722
O32	O	-0.010194	-0.617311	0.099612
O33	O	0.323139	-0.283978	0.432945
O34	O	-0.343115	-0.832191	-0.343035
O35	O	-0.009781	-0.498857	-0.009702
O36	O	0.323552	-0.165524	0.323632
O37	O	-0.442002	-0.933926	-0.551627
O38	O	-0.108669	-0.600592	-0.218294
O39	O	0.224665	-0.267259	0.115039
O40	O	-0.432860	-0.824947	-0.432775
O41	O	-0.099526	-0.491614	-0.099442
O42	O	0.233807	-0.158281	0.233891
O43	O	-0.359185	-1.023740	-0.551940
O44	O	-0.025851	-0.690407	-0.218606
O45	O	0.307482	-0.357073	0.114727
O46	O	-0.552032	-1.023592	-0.359077
O47	O	-0.218698	-0.690259	-0.025743
O48	O	0.114635	-0.356925	0.307590
O49	O	-0.551719	-0.933841	-0.441902
O50	O	-0.218385	-0.600508	-0.108568
O51	O	0.114948	-0.267175	0.224765
C52	C	-0.386918	-0.803117	-0.386838
C53	C	-0.053585	-0.469784	-0.053505
C54	C	0.279748	-0.136451	0.279829
C55	C	-0.383660	-0.725150	-0.383586
C56	C	-0.050327	-0.391816	-0.050252
C57	C	0.283006	-0.058483	0.283081
C58	C	-0.360265	-0.286677	-0.360268
C59	C	-0.026932	0.046657	-0.026934
C60	C	0.306402	0.379990	0.306399
C61	C	-0.363330	-0.359936	-0.363328
C62	C	-0.029997	-0.026602	-0.029994
C63	C	0.303337	0.306731	0.303339
C64	C	-0.411659	-0.392810	-0.411510
C65	C	-0.078326	-0.059476	-0.078177
C66	C	0.255007	0.273857	0.255156
C67	C	-0.456921	-0.352421	-0.456641
C68	C	-0.123588	-0.019088	-0.123307
C69	C	0.209745	0.314245	0.210026
C70	C	-0.453852	-0.279164	-0.453584
C71	C	-0.120519	0.054170	-0.120250
C72	C	0.212815	0.387503	0.213083
C73	C	-0.425853	-0.611503	-0.425659
C74	C	-0.092520	-0.278170	-0.092326
C75	C	0.240814	0.055163	0.241008
C76	C	-0.428920	-0.684766	-0.428711
C77	C	-0.095587	-0.351433	-0.095378
C78	C	0.237746	-0.018100	0.237955
C79	C	-0.335328	-0.692276	-0.335399
C80	C	-0.001995	-0.358942	-0.002065
C81	C	0.331339	-0.025609	0.331268
C82	C	-0.332266	-0.619016	-0.332343
C83	C	0.001067	-0.285683	0.000990
C84	C	0.334401	0.047650	0.334324
C85	C	-0.377525	-0.578634	-0.377476
C86	C	-0.044192	-0.245301	-0.044143
C87	C	0.289141	0.088032	0.289191
N88	N	-0.414795	-0.467692	-0.414638
N89	N	-0.081462	-0.134359	-0.081304
N90	N	0.251872	0.198975	0.252029
N91	N	-0.374386	-0.503753	-0.374351
N92	N	-0.041052	-0.170420	-0.041018
N93	N	0.292281	0.162913	0.292315
C94	C	-0.577410	-0.977656	-0.401480
C95	C	-0.244077	-0.644323	-0.068147
C96	C	0.089257	-0.310989	0.265186
C97	C	-0.655631	-0.974421	-0.404501
C98	C	-0.322298	-0.641088	-0.071168
C99	C	0.011035	-0.307754	0.262166
C100	C	-0.692522	-1.019663	-0.362836
C101	C	-0.359189	-0.686329	-0.029503
C102	C	-0.025856	-0.352996	0.303831
C103	C	-0.766020	-1.016624	-0.365681
C104	C	-0.432686	-0.683291	-0.032348
C105	C	-0.099353	-0.349957	0.300985
C106	C	-0.802625	-0.968340	-0.410188
C107	C	-0.469291	-0.635006	-0.076855
C108	C	-0.135958	-0.301673	0.256479
C109	C	-0.765729	-0.923096	-0.451858
C110	C	-0.432395	-0.589763	-0.118524
C111	C	-0.099062	-0.256429	0.214809
C112	C	-0.692233	-0.926138	-0.449016
C113	C	-0.358899	-0.592805	-0.115682
C114	C	-0.025566	-0.259472	0.217651
C115	C	-1.022419	-0.954229	-0.423311
C116	C	-0.689085	-0.620895	-0.089978
C117	C	-0.355752	-0.287562	0.243355
C118	C	-1.095919	-0.951188	-0.426149
C119	C	-0.762586	-0.617855	-0.092815
C120	C	-0.429253	-0.284521	0.240518
C121	C	-1.096206	-1.044717	-0.339973
C122	C	-0.762872	-0.711384	-0.006640
C123	C	-0.429539	-0.378051	0.326694
C124	C	-1.022708	-1.047753	-0.337132
C125	C	-0.689375	-0.714420	-0.003798
C126	C	-0.356041	-0.381086	0.329535
C127	C	-0.985819	-1.002512	-0.378804
C128	C	-0.652485	-0.669178	-0.045471
C129	C	-0.319152	-0.335845	0.287863
N130	N	-0.877751	-0.965231	-0.413096
N131	N	-0.544417	-0.631898	-0.079762
N132	N	-0.211084	-0.298564	0.253571
N133	N	-0.910694	-1.005624	-0.375899
N134	N	-0.577361	-0.672291	-0.042566
N135	N	-0.244028	-0.338958	0.290767
C136	C	-0.211027	-0.993124	-0.387471
C137	C	0.122306	-0.659790	-0.054138
C138	C	0.455639	-0.326457	0.279196
C139	C	-0.132810	-0.996430	-0.384484
C140	C	0.200523	-0.663096	-0.051150
C141	C	0.533856	-0.329763	0.282183
C142	C	-0.401598	-0.977743	-0.578031
C143	C	-0.068264	-0.644409	-0.244698
C144	C	0.265069	-0.311076	0.088635
C145	C	-0.404590	-0.974494	-0.656249
C146	C	-0.071257	-0.641161	-0.322916
C147	C	0.262077	-0.307828	0.010417
C148	C	-0.402259	-0.168326	-0.402147
C149	C	-0.068925	0.165008	-0.068814
C150	C	0.264408	0.498341	0.264520
C151	C	-0.405525	-0.246294	-0.405393
C152	C	-0.072191	0.087040	-0.072060
C153	C	0.261142	0.420373	0.261273
C154	C	-0.362879	-1.019727	-0.693160
C155	C	-0.029546	-0.686394	-0.359827
C156	C	0.303787	-0.353061	-0.026493
C157	C	-0.365688	-1.016667	-0.766654
C158	C	-0.032355	-0.683333	-0.433320
C159	C	0.300979	-0.350000	-0.099987
C160	C	-0.410212	-0.968376	-0.803236
C161	C	-0.076879	-0.635043	-0.469902
C162	C	0.256455	-0.301709	-0.136569
C163	C	-0.451924	-0.923138	-0.766320
C164	C	-0.118591	-0.589805	-0.432986
C165	C	0.214742	-0.256471	-0.099653
C166	C	-0.449111	-0.926196	-0.692827
C167	C	-0.115778	-0.592863	-0.359494
C168	C	0.217555	-0.259529	-0.026160
C169	C	-0.423245	-0.954214	-1.023017
C170	C	-0.089912	-0.620880	-0.689684
C171	C	0.243422	-0.287547	-0.356350
C172	C	-0.426056	-0.951161	-1.096515
C173	C	-0.092723	-0.617827	-0.763182
C174	C	0.240610	-0.284494	-0.429848
C175	C	-0.339819	-1.044689	-1.096844
C176	C	-0.006485	-0.711356	-0.763511
C177	C	0.326848	-0.378022	-0.430177
C178	C	-0.337013	-1.047745	-1.023350
C179	C	-0.003680	-0.714412	-0.690017
C180	C	0.329654	-0.381078	-0.356684
C181	C	-0.378723	-1.002505	-0.986440
C182	C	-0.045389	-0.669172	-0.653107
C183	C	0.287944	-0.335838	-0.319774
N184	N	-0.413086	-0.965248	-0.878358
N185	N	-0.079752	-0.631915	-0.545025
N186	N	0.253581	-0.298581	-0.211691
N187	N	-0.375845	-1.005630	-0.911319
N188	N	-0.042511	-0.672297	-0.577986
N189	N	0.290822	-0.338963	-0.244652
C190	C	-0.387531	-0.993001	-0.211645
C191	C	-0.054197	-0.659668	0.121688
C192	C	0.279136	-0.326335	0.455021
C193	C	-0.384346	-0.996394	-0.133426
C194	C	-0.051012	-0.663060	0.199908
C195	C	0.282321	-0.329727	0.533241
H196	H	-0.496269	-0.379193	-0.495875
H197	H	-0.162936	-0.045860	-0.162542
H198	H	0.170398	0.287474	0.170792
H199	H	-0.992906	-1.087070	-0.300891
H200	H	-0.659573	-0.753737	0.032442
H201	H	-0.326239	-0.420403	0.365776
H202	H	-0.796053	-1.053464	-0.331753
H203	H	-0.462720	-0.720131	0.001580
H204	H	-0.129386	-0.386798	0.334914
C205	C	-0.462706	-0.495877	-0.462416
C206	C	-0.129373	-0.162544	-0.129083
C207	C	0.203961	0.170790	0.204251
C208	C	-0.475604	-0.567121	-0.475265
C209	C	-0.142271	-0.233787	-0.141932
C210	C	0.191062	0.099546	0.191402
H211	H	-0.493420	-0.468476	-0.493046
H212	H	-0.160087	-0.135143	-0.159712
H213	H	0.173247	0.198191	0.173621
H214	H	-0.470618	-0.485395	-0.415013
H215	H	-0.137285	-0.152061	-0.081680
H216	H	0.196049	0.181272	0.251653
H217	H	-0.415333	-0.485442	-0.470487
H218	H	-0.082000	-0.152109	-0.137154
H219	H	0.251333	0.181225	0.196179
H220	H	-0.522976	-0.577557	-0.467189
H221	H	-0.189643	-0.244223	-0.133855
H222	H	0.143691	0.089110	0.199478
H223	H	-0.467698	-0.577607	-0.522679
H224	H	-0.134365	-0.244274	-0.189346
H225	H	0.198969	0.089060	0.143988
C226	C	-0.277915	-1.111862	-0.700874
C227	C	0.055419	-0.778529	-0.367541
C228	C	0.388752	-0.445195	-0.034208
C229	C	-0.313935	-1.072809	-0.652953
C230	C	0.019398	-0.739476	-0.319619
C231	C	0.352732	-0.406143	0.013714
H232	H	-0.247694	-1.144629	-0.676051
H233	H	0.085640	-0.811295	-0.342718
H234	H	0.418973	-0.477962	-0.009385
H235	H	-0.310799	-1.136205	-0.731834
H236	H	0.022535	-0.802871	-0.398501
H237	H	0.355868	-0.469538	-0.065168
H238	H	-0.250813	-1.081236	-0.727229
H239	H	0.082520	-0.747903	-0.393896
H240	H	0.415853	-0.414569	-0.060562
H241	H	-0.341040	-1.103435	-0.626601
H242	H	-0.007707	-0.770102	-0.293268
H243	H	0.325626	-0.436768	0.040065
H244	H	-0.281046	-1.048465	-0.621980
H245	H	0.052287	-0.715132	-0.288647
H246	H	0.385620	-0.381799	0.044687
H247	H	-1.126249	-1.081551	-0.306047
H248	H	-0.792916	-0.748218	0.027286
H249	H	-0.459582	-0.414885	0.360620
H250	H	-0.320911	-0.259916	-0.321031
H251	H	0.012423	0.073417	0.012302
H252	H	0.345756	0.406750	0.345635
H253	H	-1.125722	-0.911877	-0.462404
H254	H	-0.792389	-0.578544	-0.129071
H255	H	-0.459055	-0.245210	0.204263
H256	H	-0.292916	-0.592256	-0.293103
H257	H	0.040417	-0.258922	0.040231
H258	H	0.373751	0.074411	0.373564
C259	C	-0.298469	-0.807908	-0.298654
C260	C	0.034864	-0.474575	0.034679
C261	C	0.368197	-0.141242	0.368012
C262	C	-0.285575	-0.736665	-0.285797
C263	C	0.047759	-0.403332	0.047536
C264	C	0.381092	-0.069999	0.380869
H265	H	-0.267747	-0.835311	-0.268035
H266	H	0.065586	-0.501978	0.065299
H267	H	0.398920	-0.168644	0.398632
H268	H	-0.345833	-0.818348	-0.290581
H269	H	-0.012500	-0.485015	0.042753
H270	H	0.320833	-0.151682	0.376086
H271	H	-0.290560	-0.818383	-0.346066
H272	H	0.042773	-0.485050	-0.012733
H273	H	0.376106	-0.151716	0.320600
H274	H	-0.293489	-0.726190	-0.238386
H275	H	0.039845	-0.392856	0.094947
H276	H	0.373178	-0.059523	0.428280
H277	H	-0.238199	-0.726221	-0.293865
H278	H	0.095134	-0.392888	0.039468
H279	H	0.428467	-0.059554	0.372801
H280	H	-0.331724	-1.053502	-0.796703
H281	H	0.001609	-0.720169	-0.463370
H282	H	0.334942	-0.386835	-0.130037
H283	H	-0.490706	-0.246284	-0.490332
H284	H	-0.157372	0.087049	-0.156998
H285	H	0.175961	0.420382	0.176335
C286	C	-0.700195	-1.111809	-0.277945
C287	C	-0.366862	-0.778475	0.055388
C288	C	-0.033529	-0.445142	0.388722
C289	C	-0.652290	-1.072739	-0.313912
C290	C	-0.318956	-0.739406	0.019422
C291	C	0.014377	-0.406072	0.352755
H292	H	-0.675357	-1.144580	-0.247745
H293	H	-0.342024	-0.811246	0.085588
H294	H	-0.008691	-0.477913	0.418922
H295	H	-0.726585	-1.081199	-0.250833
H296	H	-0.393252	-0.747866	0.082500
H297	H	-0.059918	-0.414532	0.415833
H298	H	-0.731125	-1.136154	-0.310867
H299	H	-0.397792	-0.802820	0.022466
H300	H	-0.064458	-0.469487	0.355799
H301	H	-0.621363	-1.048390	-0.280990
H302	H	-0.288030	-0.715056	0.052344
H303	H	0.045304	-0.381723	0.385677
H304	H	-0.625888	-1.103353	-0.341025
H305	H	-0.292555	-0.770019	-0.007692
H306	H	0.040779	-0.436686	0.325641
H307	H	-0.483069	-0.889355	-0.662775
H308	H	-0.149736	-0.556022	-0.329441
H309	H	0.183597	-0.222689	0.003892
H310	H	-0.326478	-0.392813	-0.326579
H311	H	0.006856	-0.059479	0.006755
H312	H	0.340189	0.273854	0.340088
H313	H	-0.468276	-0.711530	-0.467951
H314	H	-0.134943	-0.378196	-0.134618
H315	H	0.198390	-0.044863	0.198716
H316	H	-0.992389	-0.917390	-0.457241
H317	H	-0.659055	-0.584057	-0.123908
H318	H	-0.325722	-0.250723	0.209426
H319	H	-0.305860	-1.081520	-1.126904
H320	H	0.027473	-0.748187	-0.793570
H321	H	0.360806	-0.414853	-0.460237
C322	C	-0.252046	-1.139880	-1.031060
C323	C	0.081288	-0.806547	-0.697727
C324	C	0.414621	-0.473214	-0.364393
C325	C	-0.288067	-1.100825	-0.983141
C326	C	0.045267	-0.767491	-0.649808
C327	C	0.378600	-0.434158	-0.316475
H328	H	-0.221827	-1.172647	-1.006235
H329	H	0.111507	-0.839314	-0.672901
H330	H	0.444840	-0.505980	-0.339568
H331	H	-0.284929	-1.164223	-1.062021
H332	H	0.048404	-0.830889	-0.728687
H333	H	0.381737	-0.497556	-0.395354
H334	H	-0.224942	-1.109256	-1.057414
H335	H	0.108391	-0.775923	-0.724081
H336	H	0.441725	-0.442590	-0.390748
H337	H	-0.315175	-1.131448	-0.956790
H338	H	0.018159	-0.798115	-0.623457
H339	H	0.351492	-0.464782	-0.290124
H340	H	-0.255179	-1.076481	-0.952168
H341	H	0.078155	-0.743147	-0.618835
H342	H	0.411488	-0.409814	-0.285502
H343	H	-0.457219	-0.917386	-0.992975
H344	H	-0.123885	-0.584052	-0.659641
H345	H	0.209448	-0.250719	-0.326308
H346	H	-0.795538	-0.883785	-0.488099
H347	H	-0.462205	-0.550451	-0.154766
H348	H	-0.128872	-0.217118	0.178568
C349	C	-0.468651	-0.904942	-1.209029
C350	C	-0.135318	-0.571608	-0.875696
C351	C	0.198015	-0.238275	-0.542362
C352	C	-0.474992	-0.898068	-1.136728
C353	C	-0.141658	-0.564734	-0.803395
C354	C	0.191675	-0.231401	-0.470061
H355	H	-0.498862	-0.872168	-1.233854
H356	H	-0.165529	-0.538834	-0.900520
H357	H	0.167804	-0.205501	-0.567187
H358	H	-0.421402	-0.896183	-1.218830
H359	H	-0.088069	-0.562849	-0.885497
H360	H	0.245265	-0.229516	-0.552163
H361	H	-0.481402	-0.951136	-1.223438
H362	H	-0.148069	-0.617802	-0.890105
H363	H	0.185265	-0.284469	-0.556772
H364	H	-0.462236	-0.851875	-1.122317
H365	H	-0.128903	-0.518542	-0.788984
H366	H	0.204431	-0.185208	-0.455651
H367	H	-0.522251	-0.906821	-1.126922
H368	H	-0.188918	-0.573488	-0.793589
H369	H	0.144415	-0.240155	-0.460256
C370	C	-0.699327	-0.833384	-0.534481
C371	C	-0.365994	-0.500051	-0.201148
C372	C	-0.032661	-0.166717	0.132186
C373	C	-0.651679	-0.876408	-0.494816
C374	C	-0.318346	-0.543075	-0.161483
C375	C	0.014987	-0.209742	0.171851
H376	H	-0.674290	-0.802682	-0.562756
H377	H	-0.340957	-0.469349	-0.229423
H378	H	-0.007624	-0.136016	0.103910
H379	H	-0.730269	-0.861621	-0.563806
H380	H	-0.396936	-0.528288	-0.230473
H381	H	-0.063602	-0.194954	0.102860
H382	H	-0.725729	-0.806661	-0.503778
H383	H	-0.392396	-0.473327	-0.170444
H384	H	-0.059062	-0.139994	0.162889
H385	H	-0.625281	-0.903136	-0.525520
H386	H	-0.291948	-0.569802	-0.192186
H387	H	0.041385	-0.236469	0.141147
H388	H	-0.620725	-0.848168	-0.465488
H389	H	-0.287392	-0.514835	-0.132155
H390	H	0.045941	-0.181501	0.201178
C391	C	-0.494531	-0.876925	-0.878831
C392	C	-0.161198	-0.543592	-0.545498
C393	C	0.172135	-0.210258	-0.212165
C394	C	-0.500866	-0.870055	-0.806529
C395	C	-0.167533	-0.536722	-0.473196
C396	C	0.165800	-0.203389	-0.139862
H397	H	-0.524751	-0.844156	-0.903652
H398	H	-0.191418	-0.510823	-0.570319
H399	H	0.141915	-0.177490	-0.236986
H400	H	-0.447285	-0.868156	-0.888636
H401	H	-0.113952	-0.534823	-0.555303
H402	H	0.219381	-0.201489	-0.221970
H403	H	-0.507274	-0.923121	-0.893241
H404	H	-0.173940	-0.589788	-0.559907
H405	H	0.159393	-0.256455	-0.226574
H406	H	-0.488119	-0.823861	-0.792118
H407	H	-0.154786	-0.490527	-0.458785
H408	H	0.178548	-0.157194	-0.125452
H409	H	-0.548123	-0.878819	-0.796719
H410	H	-0.214790	-0.545486	-0.463386
H411	H	0.118544	-0.212153	-0.130052
