data_functionalizedCrystal
_audit_creation_method	'MofGen! by Chris Wilmer'
_symmetry_space_group_name_H-M	'P1'
_symmetry_Int_Tables_number	1
_symmetry_cell_setting	triclinic
loop_
_symmetry_equiv_pos_as_xyz
  x,y,z
_cell_length_a	11.169417
_cell_length_b	21.295417
_cell_length_c	11.169417
_cell_angle_alpha	90.016676
_cell_angle_beta	90.000863
_cell_angle_gamma	90.031386
loop_
_atom_site_label
_atom_site_type_symbol
_atom_site_fract_x
_atom_site_fract_y
_atom_site_fract_z
Zn1	Zn	1.834569	-0.250697	0.678466
Zn2	Zn	1.834455	-0.355940	0.477752
Zn3	Zn	1.633922	-0.250690	0.477801
Zn4	Zn	1.633792	-0.355934	0.678396
O5	O	1.734185	-0.303315	0.578104
O6	O	2.002504	-0.264663	0.651850
O7	O	1.807860	-0.341978	0.309809
O8	O	1.660640	-0.162602	0.504470
O9	O	2.002420	-0.341985	0.504386
O10	O	1.808055	-0.162607	0.651898
O11	O	1.660529	-0.264651	0.309845
O12	O	1.465955	-0.264645	0.504402
O13	O	1.660420	-0.341975	0.846355
O14	O	1.465860	-0.341968	0.651778
O15	O	1.807930	-0.264658	0.846407
O16	O	1.807734	-0.444028	0.504318
O17	O	1.660308	-0.444024	0.651731
C18	C	1.422360	-0.303306	0.578089
C19	C	1.288960	-0.303317	0.578110
C20	C	1.734027	-0.466867	0.578038
C21	C	1.734070	-0.536835	0.578049
C22	C	1.810902	-0.569683	0.501370
C23	C	1.810959	-0.635425	0.501397
C24	C	1.734161	-0.668317	0.578091
C25	C	1.657323	-0.635462	0.654785
C26	C	1.657277	-0.569720	0.654764
N27	N	1.629168	-0.771585	0.587235
N28	N	1.629214	-0.834037	0.587248
C29	C	1.734295	-0.866392	0.578159
N30	N	1.839330	-0.833937	0.569035
N31	N	1.839282	-0.771480	0.569016
C32	C	1.734202	-0.739603	0.578122
C33	C	1.811195	-0.970526	0.501505
C34	C	1.811254	-1.036269	0.501541
C35	C	1.657607	-1.036304	0.654922
C36	C	1.657559	-0.970562	0.654893
C37	C	1.734352	-0.937676	0.578178
C38	C	2.047227	-0.303325	0.578120
C39	C	2.180627	-0.303330	0.578127
C40	C	1.734173	-0.303316	0.891146
C41	C	1.734168	-0.303317	1.024546
C42	C	1.734375	-0.139125	0.578197
C43	C	1.734456	-0.069157	0.578237
C44	C	1.734182	-0.303326	1.266279
C45	C	1.734171	-0.303318	1.132879
H46	H	1.873434	-0.542910	0.438907
Cl47	Cl	1.907554	-0.676729	0.404991
Cl48	Cl	1.907862	-1.077565	0.405143
H49	H	1.595082	-1.063084	0.717373
H50	H	1.594990	-0.943815	0.717327
Cl51	Cl	1.907732	-0.929181	0.405066
Cl52	Cl	1.560782	-0.676811	0.751205
H53	H	1.594709	-0.542975	0.717207
