data_functionalizedCrystal
_audit_creation_method	'MofGen! by Chris Wilmer'
_symmetry_space_group_name_H-M	'P1'
_symmetry_Int_Tables_number	1
_symmetry_cell_setting	triclinic
loop_
_symmetry_equiv_pos_as_xyz
  x,y,z
_cell_length_a	18.215407
_cell_length_b	15.297327
_cell_length_c	18.215399
_cell_angle_alpha	80.354579
_cell_angle_beta	90.016824
_cell_angle_gamma	99.707397
loop_
_atom_site_label
_atom_site_type_symbol
_atom_site_fract_x
_atom_site_fract_y
_atom_site_fract_z
Zn1	Zn	1.074338	-0.359142	0.466791
Zn2	Zn	1.052949	-0.510019	0.365013
Zn3	Zn	0.951272	-0.359178	0.343743
Zn4	Zn	0.929941	-0.509963	0.488030
O5	O	1.002125	-0.434575	0.415894
O6	O	1.174484	-0.379165	0.453303
O7	O	1.039437	-0.490049	0.259213
O8	O	0.985476	-0.232926	0.342275
O9	O	1.158769	-0.490014	0.378527
O10	O	1.075892	-0.232900	0.432678
O11	O	0.964736	-0.379226	0.243586
O12	O	0.845460	-0.379171	0.362870
O13	O	0.949119	-0.489917	0.588192
O14	O	0.829787	-0.489952	0.468877
O15	O	1.055208	-0.379110	0.572587
O16	O	1.018753	-0.636259	0.399122
O17	O	0.928379	-0.636217	0.489502
C18	C	0.810921	-0.434560	0.415871
C19	C	0.729120	-0.434575	0.415882
C20	C	0.532772	-0.492350	0.471033
C21	C	0.455913	-0.492352	0.471043
C22	C	0.472228	-0.376818	0.360774
C23	C	0.549086	-0.376811	0.360768
C24	C	0.579356	-0.434582	0.415897
C25	C	0.425638	-0.434592	0.415913
C26	C	0.342304	-0.434594	0.415923
C27	C	0.662695	-0.434578	0.415888
C28	C	0.968950	-0.668972	0.448941
C29	C	0.954825	-0.769248	0.463103
C30	C	1.103383	-1.051871	0.314927
C31	C	1.116654	-0.957656	0.301617
C32	C	1.076198	-0.910550	0.341987
C33	C	1.022468	-0.957666	0.395670
C34	C	1.009192	-1.051890	0.408977
C35	C	0.982007	-0.910569	0.436037
C36	C	0.928278	-0.957686	0.489720
C37	C	0.915004	-1.051900	0.503025
C38	C	0.955460	-1.099007	0.462654
C39	C	0.995284	-0.816346	0.422730
C40	C	0.901093	-0.816365	0.516781
C41	C	0.887822	-0.910579	0.530090
C42	C	1.194076	-0.434592	0.415918
C43	C	1.275874	-0.434598	0.415928
C44	C	1.002170	-0.434503	0.607837
C45	C	1.002189	-0.434473	0.689632
C46	C	1.035450	-0.199263	0.382735
C47	C	1.049651	-0.098987	0.368604
C48	C	1.002132	-0.434582	0.224689
C49	C	1.002291	-0.434359	0.142859
C50	C	0.963337	-0.376728	0.869684
C51	C	0.963353	-0.376710	0.946540
C52	C	1.041144	-0.492109	0.962802
C53	C	1.041124	-0.492131	0.885948
C54	C	1.002222	-0.434436	0.839390
C55	C	1.002258	-0.434396	0.993101
C56	C	1.002275	-0.434376	1.076432
C57	C	1.002204	-0.434456	0.756054
H58	H	1.039030	-0.777991	0.379022
C59	C	1.055342	-0.644907	0.883806
C60	C	1.083871	-0.555569	0.852645
H61	H	1.081733	-0.684068	0.863249
H62	H	1.004029	-0.658104	0.873064
H63	H	1.060927	-0.653139	0.936240
H64	H	1.078280	-0.547335	0.800211
H65	H	1.135196	-0.542367	0.863381
H66	H	0.557415	-0.539388	0.515925
H67	H	1.087006	-0.833836	0.331147
C68	C	0.928767	-0.325516	0.744651
C69	C	0.920572	-0.313317	0.818507
H70	H	0.902367	-0.286364	0.713059
H71	H	0.909412	-0.386128	0.740595
H72	H	0.980082	-0.312314	0.730206
H73	H	0.869258	-0.326525	0.832953
H74	H	0.939925	-0.252691	0.822566
H75	H	0.587017	-0.329764	0.315869
C76	C	0.387554	-0.364141	0.260016
C77	C	0.438952	-0.313323	0.300175
H78	H	0.367016	-0.324940	0.222602
H79	H	0.348815	-0.398540	0.292853
H80	H	0.411980	-0.403399	0.237348
H81	H	0.414524	-0.274070	0.322848
H82	H	0.477697	-0.278909	0.267333
H83	H	1.072817	-0.539082	1.000718
C84	C	1.208428	-0.967108	0.210000
C85	C	1.175717	-0.905868	0.242620
H86	H	1.244897	-0.935134	0.173580
H87	H	1.171197	-1.003909	0.187016
H88	H	1.231383	-1.003805	0.247281
H89	H	1.152756	-0.869176	0.205339
H90	H	1.212954	-0.869052	0.265604
H91	H	1.136312	-1.090233	0.282058
C92	C	0.447510	-0.606560	0.580030
C93	C	0.404707	-0.555856	0.531647
H94	H	0.415896	-0.645769	0.617444
H95	H	0.483053	-0.567294	0.602693
H96	H	0.472600	-0.641015	0.552766
H97	H	0.379621	-0.521396	0.558911
H98	H	0.369151	-0.595127	0.508983
C99	C	0.875005	-1.080844	0.631698
C100	C	0.855942	-1.103692	0.562029
H101	H	0.838544	-1.112821	0.668125
H102	H	0.877118	-1.017998	0.629547
H103	H	0.922279	-1.096232	0.644676
H104	H	0.808670	-1.088298	0.549049
H105	H	0.853821	-1.166552	0.564179
C106	C	0.928826	-0.325451	1.057132
C107	C	0.920604	-0.313283	0.979841
H108	H	0.902426	-0.286298	1.077689
H109	H	0.980138	-0.312239	1.067872
H110	H	0.909478	-0.386068	1.078253
H111	H	0.939957	-0.252667	0.958720
H112	H	0.869281	-0.326488	0.969095
C113	C	0.955190	-1.233886	0.551735
C114	C	0.940882	-1.202572	0.477286
H115	H	0.946198	-1.297824	0.560764
H116	H	0.923399	-1.212588	0.583451
H117	H	1.005684	-1.212494	0.561475
H118	H	0.890386	-1.223959	0.467547
H119	H	0.972673	-1.223880	0.445560
H120	H	0.844075	-0.948955	0.573799
H121	H	0.868149	-0.778011	0.549652
