data_functionalizedCrystal
_audit_creation_method	'MofGen! by Chris Wilmer'
_symmetry_space_group_name_H-M	'P1'
_symmetry_Int_Tables_number	1
_symmetry_cell_setting	triclinic
loop_
_symmetry_equiv_pos_as_xyz
  x,y,z
_cell_length_a	16.992694
_cell_length_b	9.065218
_cell_length_c	8.140239
_cell_angle_alpha	90.001686
_cell_angle_beta	89.997102
_cell_angle_gamma	87.842054
loop_
_atom_site_label
_atom_site_type_symbol
_atom_site_fract_x
_atom_site_fract_y
_atom_site_fract_z
O1	O	-1.042613	-0.313082	-0.136397
O2	O	-0.542613	0.186918	0.363603
O3	O	-0.814303	-0.309648	-0.136445
O4	O	-0.314303	0.190352	0.363555
O5	O	-0.933177	-0.097160	-0.136417
O6	O	-0.433177	0.402840	0.363583
O7	O	-0.923739	-0.525570	-0.136425
O8	O	-0.423739	-0.025570	0.363575
O9	O	-0.933170	-0.097157	0.136810
O10	O	-0.433170	0.402843	0.636810
O11	O	-0.814297	-0.309644	0.136782
O12	O	-0.314297	0.190356	0.636782
O13	O	-1.042606	-0.313079	0.136830
O14	O	-0.542606	0.186921	0.636830
Zn15	Zn	-0.928450	-0.311361	0.180187
Zn16	Zn	-0.428450	0.188639	0.680187
Zn17	Zn	-0.928459	-0.311366	-0.179802
Zn18	Zn	-0.428459	0.188634	0.320198
O19	O	-0.923732	-0.525566	0.136802
O20	O	-0.423732	-0.025566	0.636802
C21	C	-0.785056	-0.305227	0.000162
C22	C	-0.285056	0.194773	0.500162
C23	C	-0.697918	-0.292043	0.000143
C24	C	-0.197918	0.207957	0.500143
C25	C	-0.932267	-0.042088	0.000194
C26	C	-0.432267	0.457912	0.500194
C27	C	-0.929555	0.122007	0.000186
C28	C	-0.429555	0.622007	0.500186
C29	C	-1.071853	-0.317499	0.000220
C30	C	-0.571853	0.182501	0.500220
C31	C	-1.158991	-0.330683	0.000227
C32	C	-0.658991	0.169317	0.500227
C33	C	-0.648581	-0.419249	0.000142
C34	C	-0.148581	0.080751	0.500142
C35	C	-0.566706	-0.406853	0.000165
C36	C	-0.066706	0.093147	0.500165
C37	C	-0.534170	-0.267249	0.000177
C38	C	-0.034170	0.232751	0.500177
C39	C	-0.583514	-0.140034	0.000184
C40	C	-0.083514	0.359966	0.500184
C41	C	-0.665387	-0.152432	0.000173
C42	C	-0.165387	0.347568	0.500173
C43	C	-0.290208	-0.215866	0.000222
C44	C	0.209792	0.284134	0.500222
C45	C	-0.208328	-0.203477	0.000229
C46	C	0.291672	0.296523	0.500229
C47	C	-0.191526	-0.470298	0.000213
C48	C	0.308474	0.029702	0.500213
C49	C	-0.273402	-0.482683	0.000192
C50	C	0.226598	0.017317	0.500192
C51	C	-0.322738	-0.355468	0.000207
C52	C	0.177262	0.144532	0.500207
N53	N	-0.450482	-0.254575	0.000196
N54	N	0.049518	0.245425	0.500196
N55	N	-0.406425	-0.368144	0.000200
N56	N	0.093575	0.131856	0.500200
C57	C	-0.924643	-0.580639	0.000187
C58	C	-0.424643	-0.080639	0.500187
C59	C	-0.927355	-0.744733	0.000185
C60	C	-0.427355	-0.244733	0.500185
N61	N	-0.928450	-0.311358	0.425869
N62	N	-0.428450	0.188642	0.925869
N63	N	-0.928465	-0.311358	-0.425484
N64	N	-0.428465	0.188642	0.074516
H65	H	-0.675065	-0.532930	0.000131
H66	H	-0.175065	-0.032930	0.500131
C67	C	-0.512439	-0.546791	0.000193
C68	C	-0.012439	-0.046791	0.500193
N69	N	-0.471564	-0.652199	0.000226
N70	N	0.028436	-0.152199	0.500226
H71	H	-0.299886	-0.596363	0.000163
H72	H	0.200114	-0.096363	0.500163
C73	C	-0.137251	-0.610225	0.000217
C74	C	0.362749	-0.110225	0.500217
N75	N	-0.096369	-0.715624	0.000229
N76	N	0.403631	-0.215624	0.500229
C77	C	-0.344467	-0.075923	0.000228
C78	C	0.155533	0.424077	0.500228
N79	N	-0.385339	0.029489	0.000230
N80	N	0.114661	0.529489	0.500230
C81	C	-0.172541	-0.049896	0.000241
C82	C	0.327459	0.450104	0.500241
N83	N	-0.145586	0.065776	0.000246
N84	N	0.354414	0.565776	0.500246
C85	C	-0.547721	0.013532	0.000200
C86	C	-0.047721	0.513532	0.500200
N87	N	-0.520764	0.129201	0.000207
N88	N	-0.020764	0.629201	0.500207
C89	C	-0.719658	-0.012495	0.000169
C90	C	-0.219658	0.487505	0.500169
N91	N	-0.760534	0.092911	0.000170
N92	N	-0.260534	0.592911	0.500170
