data_functionalizedCrystal
_audit_creation_method	'MofGen! by Chris Wilmer'
_symmetry_space_group_name_H-M	'P1'
_symmetry_Int_Tables_number	1
_symmetry_cell_setting	triclinic
loop_
_symmetry_equiv_pos_as_xyz
  x,y,z
_cell_length_a	14.971486
_cell_length_b	14.048226
_cell_length_c	14.971486
_cell_angle_alpha	90.003819
_cell_angle_beta	83.614129
_cell_angle_gamma	89.999893
loop_
_atom_site_label
_atom_site_type_symbol
_atom_site_fract_x
_atom_site_fract_y
_atom_site_fract_z
O1	O	1.186945	0.079052	0.116561
O2	O	1.686945	0.579052	0.616561
O3	O	0.926545	0.079078	0.130520
O4	O	1.426545	0.579078	0.630520
O5	O	1.063725	0.079057	-0.006660
O6	O	1.563725	0.579057	0.493340
O7	O	1.049766	0.079072	0.253741
O8	O	1.549766	0.579072	0.753741
O9	O	1.063712	-0.079264	-0.006661
O10	O	1.563712	0.420736	0.493339
O11	O	0.926532	-0.079244	0.130519
O12	O	1.426532	0.420756	0.630519
O13	O	1.186932	-0.079270	0.116560
O14	O	1.686932	0.420730	0.616560
Zn15	Zn	1.056730	-0.104394	0.123539
Zn16	Zn	1.556730	0.395606	0.623539
Zn17	Zn	1.056747	0.104202	0.123541
Zn18	Zn	1.556747	0.604202	0.623541
O19	O	1.049753	-0.079249	0.253739
O20	O	1.549753	0.420751	0.753739
C21	C	0.893214	-0.000080	0.129895
C22	C	1.393214	0.499920	0.629895
C23	C	0.793917	-0.000070	0.128024
C24	C	1.293917	0.499930	0.628024
C25	C	0.736692	-0.000067	0.208614
C26	C	1.236692	0.499933	0.708614
C27	C	0.643392	-0.000081	0.206850
C28	C	1.143392	0.499919	0.706850
C29	C	0.607320	-0.000092	0.124497
C30	C	1.107320	0.499908	0.624497
C31	C	0.664552	-0.000098	0.043902
C32	C	1.164552	0.499902	0.543902
C33	C	0.757850	-0.000090	0.045666
C34	C	1.257850	0.499910	0.545666
C35	C	0.470090	-0.000111	0.040231
C36	C	0.970090	0.499889	0.540231
C37	C	0.376786	-0.000117	0.038466
C38	C	0.876786	0.499883	0.538466
C39	C	0.355632	-0.000102	0.201415
C40	C	0.855632	0.499898	0.701415
C41	C	0.448930	-0.000094	0.203179
C42	C	0.948930	0.499906	0.703179
C43	C	0.506156	-0.000099	0.122584
C44	C	1.006156	0.499901	0.622584
N45	N	1.056725	-0.246754	0.123538
N46	N	1.556725	0.253246	0.623538
C47	C	1.111027	-0.296571	0.177879
C48	C	1.611027	0.203429	0.677879
C49	C	1.111039	-0.396228	0.177875
C50	C	1.611039	0.103772	0.677875
C51	C	1.056742	-0.446068	0.123534
C52	C	1.556742	0.053932	0.623534
C53	C	1.002438	-0.396245	0.069187
C54	C	1.502438	0.103755	0.569187
C55	C	1.002432	-0.296589	0.069186
C56	C	1.502432	0.203411	0.569186
C57	C	1.002453	-0.603959	0.069193
C58	C	1.502453	-0.103959	0.569193
C59	C	1.002457	-0.703621	0.069194
C60	C	1.502457	-0.203621	0.569194
C61	C	1.111060	-0.703598	0.177881
C62	C	1.611060	-0.203598	0.677881
C63	C	1.111054	-0.603943	0.177881
C64	C	1.611054	-0.103943	0.677881
C65	C	1.056748	-0.554126	0.123535
C66	C	1.556748	-0.054126	0.623535
C67	C	1.220263	-0.000110	0.117185
C68	C	1.720263	0.499890	0.617185
C69	C	1.319561	-0.000114	0.119056
C70	C	1.819561	0.499886	0.619056
C71	C	1.063094	-0.000103	-0.039985
C72	C	1.563094	0.499897	0.460015
C73	C	1.061223	-0.000102	-0.139282
C74	C	1.561223	0.499898	0.360718
N75	N	1.056760	0.246562	0.123535
N76	N	1.556760	0.746562	0.623535
C77	C	1.141812	-0.000111	-0.196507
C78	C	1.641812	0.499889	0.303493
C79	C	1.140049	-0.000101	-0.289807
C80	C	1.640049	0.499899	0.210193
C81	C	1.057696	-0.000089	-0.325879
C82	C	1.557696	0.499911	0.174121
C83	C	0.977101	-0.000078	-0.268646
C84	C	1.477101	0.499922	0.231354
C85	C	0.978865	-0.000081	-0.175349
C86	C	1.478865	0.499919	0.324651
C87	C	0.973430	-0.000074	-0.463109
C88	C	1.473430	0.499926	0.036891
C89	C	0.971665	-0.000073	-0.556413
C90	C	1.471665	0.499927	-0.056413
C91	C	1.134614	-0.000094	-0.577567
C92	C	1.634614	0.499906	-0.077567
C93	C	1.136378	-0.000097	-0.484269
C94	C	1.636378	0.499903	0.015731
C95	C	1.055782	-0.000088	-0.427043
C96	C	1.555782	0.499912	0.072957
C97	C	1.050384	-0.000087	0.287065
C98	C	1.550384	0.499913	0.787065
C99	C	1.052254	-0.000082	0.386362
C100	C	1.552254	0.499918	0.886362
H101	H	0.516682	-0.000116	-0.025399
H102	H	1.016682	0.499884	0.474601
H103	H	0.635175	-0.000120	-0.023152
H104	H	1.135175	0.499880	0.476848
H105	H	0.804443	-0.000093	-0.019958
H106	H	1.304443	0.499907	0.480042
H107	H	0.913240	-0.000074	-0.128756
H108	H	1.413240	0.499926	0.371244
H109	H	1.155236	-0.255998	0.222135
H110	H	1.655236	0.244002	0.722135
H111	H	1.203437	-0.000114	-0.454903
H112	H	1.703437	0.499886	0.045097
H113	H	0.958232	-0.563401	0.024937
H114	H	1.458232	-0.063401	0.524937
Cl115	Cl	0.868134	-0.000059	-0.601760
Cl116	Cl	1.368134	0.499941	-0.101760
H117	H	0.958243	-0.744198	0.024946
H118	H	1.458243	-0.244198	0.524946
Cl119	Cl	0.331439	-0.000162	-0.065065
Cl120	Cl	0.831439	0.499838	0.434935
H121	H	1.155259	-0.436784	0.222123
H122	H	1.655259	0.063216	0.722123
Cl123	Cl	0.934180	-0.458900	0.000870
Cl124	Cl	1.434180	0.041100	0.500870
H125	H	0.907800	-0.000064	-0.416517
H126	H	1.407800	0.499936	0.083483
H127	H	0.910047	-0.000062	-0.298024
H128	H	1.410047	0.499938	0.201976
H129	H	1.155262	-0.563366	0.222134
H130	H	1.655262	-0.063366	0.722134
Cl131	Cl	1.179334	-0.766224	0.246199
Cl132	Cl	1.679334	-0.266224	0.746199
Cl133	Cl	0.571455	-0.000071	0.308168
Cl134	Cl	1.071455	0.499929	0.808168
Cl135	Cl	0.934172	-0.233962	0.000859
Cl136	Cl	1.434172	0.266038	0.500859
Cl137	Cl	1.245348	-0.000135	-0.151169
Cl138	Cl	1.745348	0.499865	0.348831
H139	H	1.205673	-0.000110	-0.336396
H140	H	1.705673	0.499890	0.163604
H141	H	0.478296	-0.000077	0.270239
H142	H	0.978296	0.499923	0.770239
H143	H	0.766054	-0.000057	0.275675
H144	H	1.266054	0.499943	0.775675
Cl145	Cl	0.283691	-0.000099	0.302736
Cl146	Cl	0.783691	0.499901	0.802736
H147	H	1.200238	-0.000099	-0.624165
H148	H	1.700238	0.499901	-0.124165
