data_functionalizedCrystal
_audit_creation_method	'MofGen! by Chris Wilmer'
_symmetry_space_group_name_H-M	'P1'
_symmetry_Int_Tables_number	1
_symmetry_cell_setting	triclinic
loop_
_symmetry_equiv_pos_as_xyz
  x,y,z
_cell_length_a	15.944556
_cell_length_b	16.992695
_cell_length_c	14.421503
_cell_angle_alpha	90.002994
_cell_angle_beta	89.979576
_cell_angle_gamma	92.915204
loop_
_atom_site_label
_atom_site_type_symbol
_atom_site_fract_x
_atom_site_fract_y
_atom_site_fract_z
O1	O	-0.178112	1.040405	0.077115
O2	O	0.071888	1.290405	0.327115
O3	O	0.321888	1.540405	0.577115
O4	O	0.571888	1.790405	0.827115
O5	O	-0.176158	0.812119	0.077124
O6	O	0.073842	1.062119	0.327124
O7	O	0.323842	1.312119	0.577124
O8	O	0.573842	1.562119	0.827124
O9	O	-0.055279	0.932493	0.077086
O10	O	0.194721	1.182493	0.327086
O11	O	0.444721	1.432493	0.577086
O12	O	0.694721	1.682493	0.827086
O13	O	-0.298992	0.920031	0.077153
O14	O	-0.048992	1.170031	0.327153
O15	O	0.201008	1.420031	0.577153
O16	O	0.451008	1.670031	0.827153
O17	O	-0.055264	0.932482	-0.077137
O18	O	0.194736	1.182482	0.172863
O19	O	0.444736	1.432482	0.422863
O20	O	0.694736	1.682482	0.672863
O21	O	-0.176144	0.812108	-0.077099
O22	O	0.073856	1.062108	0.172901
O23	O	0.323856	1.312108	0.422901
O24	O	0.573856	1.562108	0.672901
O25	O	-0.178098	1.040394	-0.077109
O26	O	0.071902	1.290394	0.172891
O27	O	0.321902	1.540394	0.422891
O28	O	0.571902	1.790394	0.672891
Cu29	Cu	-0.177120	0.926250	-0.091186
Cu30	Cu	0.072880	1.176250	0.158814
Cu31	Cu	0.322880	1.426250	0.408814
Cu32	Cu	0.572880	1.676250	0.658814
Cu33	Cu	-0.177137	0.926263	0.091201
Cu34	Cu	0.072863	1.176263	0.341201
Cu35	Cu	0.322863	1.426263	0.591201
Cu36	Cu	0.572863	1.676263	0.841201
O37	O	-0.298977	0.920020	-0.077070
O38	O	-0.048977	1.170020	0.172930
O39	O	0.201023	1.420020	0.422930
O40	O	0.451023	1.670020	0.672930
C41	C	-0.023943	0.931970	-0.000032
C42	C	0.226057	1.181970	0.249968
C43	C	0.476057	1.431970	0.499968
C44	C	0.726057	1.681970	0.749968
C45	C	0.069407	0.930416	-0.000052
C46	C	0.319407	1.180416	0.249948
C47	C	0.569407	1.430416	0.499948
C48	C	0.819407	1.680416	0.749948
C49	C	-0.173637	0.782901	0.000013
C50	C	0.076363	1.032901	0.250013
C51	C	0.326363	1.282901	0.500013
C52	C	0.576363	1.532901	0.750013
C53	C	-0.166137	0.695856	0.000015
C54	C	0.083863	0.945856	0.250015
C55	C	0.333863	1.195856	0.500015
C56	C	0.583863	1.445856	0.750015
C57	C	-0.180619	1.069612	0.000005
C58	C	0.069381	1.319612	0.250005
C59	C	0.319381	1.569612	0.500005
C60	C	0.569381	1.819612	0.750005
C61	C	-0.188119	1.156657	0.000009
C62	C	0.061881	1.406657	0.250009
C63	C	0.311881	1.656657	0.500009
C64	C	0.561881	1.906657	0.750009
C65	C	0.345354	0.851157	-0.000081
C66	C	0.595354	1.101157	0.249919
C67	C	0.845354	1.351157	0.499919
C68	C	1.095354	1.601157	0.749919
C69	C	0.292199	0.889371	0.075968
C70	C	0.542199	1.139371	0.325968
C71	C	0.792199	1.389371	0.575968
C72	C	1.042199	1.639371	0.825968
C73	C	0.405420	0.924875	-0.000087
C74	C	0.655420	1.174875	0.249913
C75	C	0.905420	1.424875	0.499913
C76	C	1.155420	1.674875	0.749913
C77	C	0.292239	0.889380	-0.076084
C78	C	0.542239	1.139380	0.173916
C79	C	0.792239	1.389380	0.423916
C80	C	1.042239	1.639380	0.673916
C81	C	0.240326	0.927593	-0.000071
C82	C	0.490326	1.177593	0.249929
C83	C	0.740326	1.427593	0.499929
C84	C	0.990326	1.677593	0.749929
C85	C	0.353495	0.963069	0.076024
C86	C	0.603495	1.213069	0.326024
C87	C	0.853495	1.463069	0.576024
C88	C	1.103495	1.713069	0.826024
C89	C	0.353539	0.963067	-0.076096
C90	C	0.603539	1.213067	0.173904
C91	C	0.853539	1.463067	0.423904
C92	C	1.103539	1.713067	0.673904
C93	C	0.300414	1.001336	-0.000029
C94	C	0.550414	1.251336	0.249971
C95	C	0.800414	1.501336	0.499971
C96	C	1.050414	1.751336	0.749971
C97	C	0.500527	0.923306	-0.000096
C98	C	0.750527	1.173306	0.249904
C99	C	1.000527	1.423306	0.499904
C100	C	1.250527	1.673306	0.749904
C101	C	0.145221	0.929167	-0.000057
C102	C	0.395221	1.179167	0.249943
C103	C	0.645221	1.429167	0.499943
C104	C	0.895221	1.679167	0.749943
C105	C	0.669686	0.920533	0.000004
C106	C	0.919686	1.170533	0.250004
C107	C	1.169686	1.420533	0.500004
C108	C	1.419686	1.670533	0.750004
C109	C	0.576334	0.922055	-0.000108
C110	C	0.826334	1.172055	0.249892
C111	C	1.076334	1.422055	0.499892
C112	C	1.326334	1.672055	0.749892
N113	N	-0.177107	0.926247	-0.219467
N114	N	0.072893	1.176247	0.030533
N115	N	0.322893	1.426247	0.280533
N116	N	0.572893	1.676247	0.530533
C117	C	-0.115754	1.206892	-0.000008
C118	C	0.134246	1.456892	0.249992
C119	C	0.384246	1.706892	0.499992
C120	C	0.634246	1.956892	0.749992
C121	C	-0.122806	1.288679	-0.000010
C122	C	0.127194	1.538679	0.249990
C123	C	0.377194	1.788679	0.499990
C124	C	0.627194	2.038679	0.749990
C125	C	-0.202224	1.320229	0.000013
C126	C	0.047776	1.570229	0.250013
C127	C	0.297776	1.820229	0.500013
C128	C	0.547776	2.070229	0.750013
C129	C	-0.274594	1.269988	0.000027
C130	C	-0.024594	1.519988	0.250027
C131	C	0.225406	1.769988	0.500027
C132	C	0.475406	2.019988	0.750027
C133	C	-0.267541	1.188202	0.000021
C134	C	-0.017541	1.438202	0.250021
C135	C	0.232459	1.688202	0.500021
C136	C	0.482459	1.938202	0.750021
C137	C	-0.231455	1.563829	0.000024
C138	C	0.018545	1.813829	0.250024
C139	C	0.268545	2.063829	0.500024
C140	C	0.518545	2.313829	0.750024
C141	C	-0.238502	1.645621	0.000032
C142	C	0.011498	1.895621	0.250032
C143	C	0.261498	2.145621	0.500032
C144	C	0.511498	2.395621	0.750032
C145	C	-0.086714	1.664307	-0.000006
C146	C	0.163286	1.914307	0.249994
C147	C	0.413286	2.164307	0.499994
C148	C	0.663286	2.414307	0.749994
C149	C	-0.079668	1.582519	-0.000005
C150	C	0.170332	1.832519	0.249995
C151	C	0.420332	2.082519	0.499995
C152	C	0.670332	2.332519	0.749995
C153	C	-0.152038	1.532284	0.000004
C154	C	0.097962	1.782284	0.250004
C155	C	0.347962	2.032284	0.500004
C156	C	0.597962	2.282284	0.750004
N157	N	-0.209434	1.403829	0.000014
N158	N	0.040566	1.653829	0.250014
N159	N	0.290566	1.903829	0.500014
N160	N	0.540566	2.153829	0.750014
N161	N	-0.144827	1.448687	-0.000004
N162	N	0.105173	1.698687	0.249996
N163	N	0.355173	1.948687	0.499996
N164	N	0.605173	2.198687	0.749996
C165	C	-0.120710	0.981490	-0.530913
C166	C	0.129290	1.231490	-0.280913
C167	C	0.379290	1.481490	-0.030913
C168	C	0.629290	1.731490	0.219087
C169	C	-0.197444	0.997349	-0.469057
C170	C	0.052556	1.247349	-0.219057
C171	C	0.302556	1.497349	0.030943
C172	C	0.552556	1.747349	0.280943
C173	C	-0.177133	0.926264	-0.591356
C174	C	0.072867	1.176264	-0.341356
C175	C	0.322867	1.426264	-0.091356
C176	C	0.572867	1.676264	0.158644
C177	C	-0.100391	0.910433	-0.469119
C178	C	0.149609	1.160433	-0.219119
C179	C	0.399609	1.410433	0.030881
C180	C	0.649609	1.660433	0.280881
C181	C	-0.177116	0.926258	-0.408634
C182	C	0.072884	1.176258	-0.158634
C183	C	0.322884	1.426258	0.091366
C184	C	0.572884	1.676258	0.341366
C185	C	-0.253907	0.942159	-0.530860
C186	C	-0.003907	1.192159	-0.280860
C187	C	0.246093	1.442159	-0.030860
C188	C	0.496093	1.692159	0.219140
C189	C	-0.156802	0.855212	-0.530927
C190	C	0.093198	1.105212	-0.280927
C191	C	0.343198	1.355212	-0.030927
C192	C	0.593198	1.605212	0.219073
C193	C	-0.233589	0.871041	-0.469098
C194	C	0.016411	1.121041	-0.219098
C195	C	0.266411	1.371041	0.030902
C196	C	0.516411	1.621041	0.280902
C197	C	-0.177141	0.926270	-0.696617
C198	C	0.072859	1.176270	-0.446617
C199	C	0.322859	1.426270	-0.196617
C200	C	0.572859	1.676270	0.053383
C201	C	-0.177116	0.926251	-0.303376
C202	C	0.072884	1.176251	-0.053376
C203	C	0.322884	1.426251	0.196624
C204	C	0.572884	1.676251	0.446624
N205	N	-0.177143	0.926273	0.219483
N206	N	0.072857	1.176273	0.469483
N207	N	0.322857	1.426273	0.719483
N208	N	0.572857	1.676273	0.969483
H209	H	0.365264	0.787667	-0.000007
H210	H	0.615264	1.037667	0.249993
H211	H	0.865264	1.287667	0.499993
H212	H	1.115264	1.537667	0.749993
H213	H	-0.326468	1.147301	0.000032
H214	H	-0.076468	1.397301	0.250032
H215	H	0.173532	1.647301	0.500032
H216	H	0.423532	1.897301	0.750032
F217	F	-0.058430	1.042576	-0.566392
F218	F	0.191570	1.292576	-0.316392
F219	F	0.441570	1.542576	-0.066392
F220	F	0.691570	1.792576	0.183608
F221	F	-0.219908	1.075880	-0.433515
F222	F	0.030092	1.325880	-0.183515
F223	F	0.280092	1.575880	0.066485
F224	F	0.530092	1.825880	0.316485
H225	H	-0.027794	1.705216	-0.000015
H226	H	0.222206	1.955216	0.249985
H227	H	0.472206	2.205216	0.499985
H228	H	0.722206	2.455216	0.749985
F229	F	0.004859	1.548947	-0.000003
F230	F	0.254859	1.798947	0.249997
F231	F	0.504859	2.048947	0.499997
F232	F	0.754859	2.298947	0.749997
F233	F	-0.323033	1.679197	0.000055
F234	F	-0.073033	1.929197	0.250055
F235	F	0.176967	2.179197	0.500055
F236	F	0.426967	2.429197	0.750055
F237	F	-0.134299	0.776701	-0.566477
F238	F	0.115701	1.026701	-0.316477
F239	F	0.365701	1.276701	-0.066477
F240	F	0.615701	1.526701	0.183523
F241	F	-0.015571	0.892930	-0.433673
F242	F	0.234429	1.142930	-0.183673
F243	F	0.484429	1.392930	0.066327
F244	F	0.734429	1.642930	0.316327
H245	H	-0.290384	1.522938	0.000036
H246	H	-0.040384	1.772938	0.250036
H247	H	0.209616	2.022938	0.500036
H248	H	0.459616	2.272938	0.750036
H249	H	-0.339258	1.295683	0.000039
H250	H	-0.089258	1.545683	0.250039
H251	H	0.160742	1.795683	0.500039
H252	H	0.410742	2.045683	0.750039
F253	F	-0.296016	0.809992	-0.433841
F254	F	-0.046016	1.059992	-0.183841
F255	F	0.203984	1.309992	0.066159
F256	F	0.453984	1.559992	0.316159
F257	F	0.388408	1.003739	0.160137
F258	F	0.638408	1.253739	0.410137
F259	F	0.888408	1.503739	0.660137
F260	F	1.138408	1.753739	0.910137
F261	F	0.257103	0.848686	0.160006
F262	F	0.507103	1.098686	0.410006
F263	F	0.757103	1.348686	0.660006
F264	F	1.007103	1.598686	0.910006
F265	F	0.274592	1.084385	0.000027
F266	F	0.524592	1.334385	0.250027
F267	F	0.774592	1.584385	0.500027
F268	F	1.024592	1.834385	0.750027
H269	H	-0.318820	0.955611	-0.557868
H270	H	-0.068820	1.205611	-0.307868
H271	H	0.181180	1.455611	-0.057868
H272	H	0.431180	1.705611	0.192132
H273	H	0.380409	0.994169	-0.140392
H274	H	0.630409	1.244169	0.109608
H275	H	0.880409	1.494169	0.359608
H276	H	1.130409	1.744169	0.609608
H277	H	0.265420	0.858230	-0.140362
H278	H	0.515420	1.108230	0.109638
H279	H	0.765420	1.358230	0.359638
H280	H	1.015420	1.608230	0.609638
H281	H	-0.051084	1.181210	-0.000020
H282	H	0.198916	1.431210	0.249980
H283	H	0.448916	1.681210	0.499980
H284	H	0.698916	1.931210	0.749980
H285	H	-0.063879	1.329578	-0.000027
H286	H	0.186121	1.579578	0.249973
H287	H	0.436121	1.829578	0.499973
H288	H	0.686121	2.079578	0.749973
