data_functionalizedCrystal
_audit_creation_method	'MofGen! by Chris Wilmer'
_symmetry_space_group_name_H-M	'P1'
_symmetry_Int_Tables_number	1
_symmetry_cell_setting	triclinic
loop_
_symmetry_equiv_pos_as_xyz
  x,y,z
_cell_length_a	15.995343
_cell_length_b	15.995350
_cell_length_c	15.072220
_cell_angle_alpha	89.998899
_cell_angle_beta	89.991823
_cell_angle_gamma	96.509221
loop_
_atom_site_label
_atom_site_type_symbol
_atom_site_fract_x
_atom_site_fract_y
_atom_site_fract_z
O1	O	1.111000	-0.107890	-0.073689
O2	O	1.611000	0.392110	0.426311
O3	O	0.867224	-0.121224	-0.073710
O4	O	1.367224	0.378776	0.426290
O5	O	0.995776	0.007331	-0.073698
O6	O	1.495776	0.507331	0.426302
O7	O	0.982448	-0.236445	-0.073701
O8	O	1.482448	0.263555	0.426299
O9	O	0.995744	0.007324	0.073867
O10	O	1.495744	0.507324	0.573867
O11	O	0.867192	-0.121231	0.073855
O12	O	1.367192	0.378769	0.573855
O13	O	1.110968	-0.107897	0.073876
O14	O	1.610968	0.392103	0.573876
Zn15	Zn	0.989075	-0.114565	0.097295
Zn16	Zn	1.489075	0.385435	0.597295
Zn17	Zn	0.989117	-0.114556	-0.097129
Zn18	Zn	1.489117	0.385444	0.402871
O19	O	0.982416	-0.236452	0.073864
O20	O	1.482416	0.263548	0.573864
C21	C	0.836013	-0.120678	0.000070
C22	C	1.336013	0.379322	0.500070
C23	C	0.743062	-0.119028	0.000062
C24	C	1.243062	0.380972	0.500062
C25	C	0.572876	-0.116035	0.000074
C26	C	1.072876	0.383965	0.500074
C27	C	0.549530	-0.023238	0.000075
C28	C	1.049530	0.476762	0.500075
C29	C	0.452852	-0.021492	0.000415
C30	C	0.952852	0.478508	0.500415
C31	C	0.405316	-0.113086	0.000085
C32	C	0.905316	0.386914	0.500085
C33	C	0.434389	-0.159750	0.084183
C34	C	0.934389	0.340250	0.584183
C35	C	0.531182	-0.160851	0.084249
C36	C	1.031182	0.339149	0.584249
C37	C	0.531129	-0.162201	-0.083566
C38	C	1.031129	0.337799	0.416434
C39	C	0.434634	-0.158776	-0.084666
C40	C	0.934634	0.341224	0.415334
C41	C	0.310618	-0.111425	0.000094
C42	C	0.810618	0.388575	0.500094
C43	C	0.667574	-0.117699	0.000071
C44	C	1.167574	0.382301	0.500071
C45	C	0.995209	0.038522	0.000083
C46	C	1.495209	0.538522	0.500083
C47	C	0.993557	0.131472	0.000078
C48	C	1.493557	0.631472	0.500078
C49	C	1.142179	-0.108444	0.000094
C50	C	1.642179	0.391556	0.500094
C51	C	1.235130	-0.110093	0.000097
C52	C	1.735130	0.389907	0.500097
C53	C	0.982983	-0.267643	0.000082
C54	C	1.482983	0.232357	0.500082
C55	C	0.984635	-0.360594	0.000081
C56	C	1.484635	0.139406	0.500081
N57	N	0.989053	-0.114571	0.229984
N58	N	1.489053	0.385429	0.729984
C59	C	0.987625	0.469220	0.000080
C60	C	1.487625	0.969220	0.500080
C61	C	0.896073	0.421783	-0.000259
C62	C	1.396073	0.921783	0.499741
C63	C	0.897725	0.325093	0.000074
C64	C	1.397725	0.825093	0.500074
C65	C	0.990567	0.301659	0.000078
C66	C	1.490567	0.801659	0.500078
C67	C	1.035706	0.342734	0.084348
C68	C	1.535706	0.842734	0.584348
C69	C	1.033406	0.439369	0.084418
C70	C	1.533406	0.939369	0.584418
C71	C	1.035333	0.439736	-0.083391
C72	C	1.535333	0.939736	0.416609
C73	C	1.035312	0.342790	-0.084505
C74	C	1.535312	0.842790	0.415495
C75	C	0.992235	0.206962	0.000080
C76	C	1.492235	0.706962	0.500080
C77	C	0.985960	0.563917	0.000084
C78	C	1.485960	1.063917	0.500084
N79	N	0.989146	-0.114543	-0.229817
N80	N	1.489146	0.385457	0.270183
C81	C	0.989115	-0.114553	0.589185
C82	C	1.489115	0.385447	1.089185
C83	C	0.920099	-0.183109	0.551572
C84	C	1.420099	0.316891	1.051572
C85	C	0.920257	-0.183360	0.448746
C86	C	1.420257	0.316640	0.948746
C87	C	0.989083	-0.114562	0.410981
C88	C	1.489083	0.385438	0.910981
C89	C	1.076449	-0.133641	0.448280
C90	C	1.576449	0.366359	0.948280
C91	C	1.076062	-0.134128	0.551138
C92	C	1.576062	0.365872	1.051138
C93	C	0.971546	-0.026714	0.551285
C94	C	1.471546	0.473286	1.051285
C95	C	0.969541	-0.027300	0.448421
C96	C	1.469541	0.472700	0.948421
C97	C	0.989071	-0.114565	0.310268
C98	C	1.489071	0.385435	0.810268
C99	C	0.989133	-0.114551	0.689899
C100	C	1.489133	0.385449	1.189899
H101	H	0.401678	-0.225608	-0.090006
H102	H	0.901678	0.274392	0.409994
H103	H	0.859493	0.440317	-0.060690
H104	H	1.359493	0.940317	0.439310
H105	H	1.103018	0.327431	-0.089589
H106	H	1.603018	0.827431	0.410411
H107	H	0.854949	-0.171929	0.576328
H108	H	1.354949	0.328071	1.076328
H109	H	1.103914	0.328610	0.087485
H110	H	1.603914	0.828610	0.587485
H111	H	1.016544	0.026107	0.422717
H112	H	1.516544	0.526107	0.922717
H113	H	1.092301	-0.196971	0.422511
H114	H	1.592301	0.303029	0.922511
H115	H	1.129023	-0.086164	0.576017
H116	H	1.629023	0.413836	1.076017
H117	H	0.545142	-0.230506	-0.084378
H118	H	1.045142	0.269494	0.415622
H119	H	0.931163	-0.247926	0.577411
H120	H	1.431163	0.252074	1.077411
H121	H	1.021876	0.024304	0.575608
H122	H	1.521876	0.524304	1.075608
H123	H	0.862241	0.296673	-0.060334
H124	H	1.362241	0.796673	0.439666
H125	H	0.861977	0.297224	0.060579
H126	H	1.361977	0.797224	0.560579
H127	H	0.909223	-0.008367	0.577270
H128	H	1.409223	0.491633	1.077270
H129	H	0.855317	-0.171992	0.423530
H130	H	1.355317	0.328008	0.923530
H131	H	0.578502	0.012142	0.060294
H132	H	1.078502	0.512142	0.560294
H133	H	1.000464	0.457667	0.147407
H134	H	1.500464	0.957667	0.647407
H135	H	1.129033	-0.085036	0.423815
H136	H	1.629033	0.414964	0.923815
H137	H	0.416090	-0.124793	-0.146884
H138	H	0.916090	0.375207	0.353116
H139	H	0.402543	-0.227161	0.087074
H140	H	0.902543	0.272839	0.587074
H141	H	0.433846	0.015036	-0.059858
H142	H	0.933846	0.515036	0.440142
H143	H	1.004329	0.314348	0.147055
H144	H	1.504329	0.814348	0.647055
H145	H	1.102835	0.471498	-0.083954
H146	H	1.602835	0.971498	0.416046
H147	H	0.931476	-0.248543	0.424133
H148	H	1.431476	0.251457	0.924133
H149	H	1.100622	0.471619	0.088244
H150	H	1.600622	0.971619	0.588244
H151	H	0.859629	0.441373	0.059830
H152	H	1.359629	0.941373	0.559830
H153	H	1.005414	0.460278	-0.147262
H154	H	1.505414	0.960278	0.352738
H155	H	1.002310	0.315544	-0.146845
H156	H	1.502310	0.815544	0.353155
H157	H	0.577551	0.012734	-0.060224
H158	H	1.077551	0.512734	0.439776
H159	H	1.091544	-0.198189	0.575120
H160	H	1.591544	0.301811	1.075120
H161	H	0.434402	0.014859	0.061054
H162	H	0.934402	0.514859	0.561054
H163	H	0.557954	-0.128918	0.147354
H164	H	1.057954	0.371082	0.647354
H165	H	0.545755	-0.228901	0.087844
H166	H	1.045755	0.271099	0.587844
H167	H	0.559412	-0.132921	-0.147330
H168	H	1.059412	0.367079	0.352670
H169	H	0.905274	-0.012820	0.424043
H170	H	1.405274	0.487180	0.924043
H171	H	0.414284	-0.127739	0.147008
H172	H	0.914284	0.372261	0.647008
