data_functionalizedCrystal
_audit_creation_method	'MofGen! by Chris Wilmer'
_symmetry_space_group_name_H-M	'P1'
_symmetry_Int_Tables_number	1
_symmetry_cell_setting	triclinic
loop_
_symmetry_equiv_pos_as_xyz
  x,y,z
_cell_length_a	17.639617
_cell_length_b	17.077402
_cell_length_c	17.077396
_cell_angle_alpha	90.029784
_cell_angle_beta	101.241102
_cell_angle_gamma	101.207680
loop_
_atom_site_label
_atom_site_type_symbol
_atom_site_fract_x
_atom_site_fract_y
_atom_site_fract_z
Zn1	Zn	1.208523	-0.070232	0.686896
Zn2	Zn	1.708523	0.429768	1.186896
Zn3	Zn	1.208430	-0.201526	0.555608
Zn4	Zn	1.708430	0.298474	1.055608
Zn5	Zn	1.076329	-0.096761	0.529057
Zn6	Zn	1.576329	0.403239	1.029057
Zn7	Zn	1.076296	-0.227968	0.660257
Zn8	Zn	1.576296	0.272032	1.160257
O9	O	1.142394	-0.149122	0.607955
O10	O	1.642394	0.350878	1.107955
O11	O	1.319133	-0.065480	0.691741
O12	O	1.819133	0.434520	1.191741
O13	O	1.190880	-0.187665	0.442234
O14	O	1.690880	0.312335	0.942234
O15	O	1.093917	0.016616	0.550031
O16	O	1.593917	0.516616	1.050031
O17	O	1.319064	-0.161941	0.595284
O18	O	1.819064	0.338059	1.095284
O19	O	1.191040	0.036106	0.665995
O20	O	1.691040	0.536106	1.165995
O21	O	1.093826	-0.110694	0.422727
O22	O	1.593826	0.389306	0.922727
O23	O	0.965702	-0.136334	0.524200
O24	O	1.465702	0.363666	1.024200
O25	O	1.093862	-0.207008	0.773643
O26	O	1.593862	0.292992	1.273643
O27	O	0.965679	-0.232731	0.620593
O28	O	1.465679	0.267269	1.120593
O29	O	1.191009	-0.091120	0.793215
O30	O	1.691009	0.408880	1.293215
O31	O	1.190849	-0.314891	0.569454
O32	O	1.690849	0.185109	1.069454
O33	O	1.093771	-0.334318	0.646339
O34	O	1.593771	0.165682	1.146339
C35	C	1.142318	-0.353085	0.607908
C36	C	1.642318	0.146915	1.107908
C37	C	1.142358	-0.440327	0.607929
C38	C	1.642358	0.059673	1.107929
C39	C	0.937007	-0.190281	0.566625
C40	C	1.437007	0.309719	1.066625
C41	C	0.849142	-0.207908	0.548963
C42	C	1.349142	0.292092	1.048963
C43	C	1.192958	-0.471165	0.567959
C44	C	1.692958	0.028835	1.067959
C45	C	1.192996	-0.553138	0.567987
C46	C	1.692996	-0.053138	1.067987
C47	C	1.142431	-0.604272	0.607980
C48	C	1.642431	-0.104272	1.107980
C49	C	1.091828	-0.573428	0.647955
C50	C	1.591828	-0.073428	1.147955
C51	C	1.091794	-0.491456	0.647931
C52	C	1.591794	0.008544	1.147931
C53	C	1.091902	-0.744283	0.647999
C54	C	1.591902	-0.244283	1.147999
C55	C	1.091934	-0.826261	0.648022
C56	C	1.591934	-0.326261	1.148022
C57	C	1.193104	-0.805965	0.568055
C58	C	1.693104	-0.305965	1.068055
C59	C	1.193070	-0.723993	0.568031
C60	C	1.693070	-0.223993	1.068031
C61	C	1.142466	-0.693155	0.608005
C62	C	1.642466	-0.193155	1.108005
C63	C	0.560314	-0.015194	0.742328
C64	C	1.060314	0.484806	1.242328
C65	C	0.477751	-0.031777	0.725715
C66	C	0.977751	0.468223	1.225715
C67	C	0.477701	-0.132055	0.625131
C68	C	0.977701	0.367945	1.125131
C69	C	0.560266	-0.115483	0.641737
C70	C	1.060266	0.384517	1.141737
C71	C	0.601565	-0.057051	0.700336
C72	C	1.101565	0.442949	1.200336
C73	C	0.601517	-0.157340	0.599745
C74	C	1.101517	0.342660	1.099745
C75	C	0.684075	-0.140766	0.616348
C76	C	1.184075	0.359234	1.116348
C77	C	0.725381	-0.082336	0.674943
C78	C	1.225381	0.417664	1.174943
C79	C	0.684123	-0.040477	0.716939
C80	C	1.184123	0.459523	1.216939
C81	C	0.560216	-0.215768	0.541143
C82	C	1.060216	0.284232	1.041143
C83	C	0.601468	-0.257625	0.499151
C84	C	1.101468	0.242375	0.999151
C85	C	0.684027	-0.241056	0.515758
C86	C	1.184027	0.258944	1.015758
C87	C	0.725333	-0.182625	0.574352
C88	C	1.225333	0.317375	1.074352
C89	C	0.725285	-0.282914	0.473761
C90	C	1.225285	0.217086	0.973761
C91	C	0.807842	-0.266340	0.490364
C92	C	1.307842	0.233660	0.990364
C93	C	0.807890	-0.166051	0.590955
C94	C	1.307890	0.333949	1.090955
C95	C	1.348583	-0.107802	0.649446
C96	C	1.848583	0.392198	1.149446
C97	C	1.436449	-0.090194	0.667127
C98	C	1.936449	0.409806	1.167127
C99	C	1.142442	-0.149054	0.812709
C100	C	1.642442	0.350946	1.312709
C101	C	1.142463	-0.149026	0.899963
C102	C	1.642463	0.350974	1.399963
C103	C	1.142493	0.055642	0.608023
C104	C	1.642493	0.555642	1.108023
C105	C	1.142534	0.142900	0.608052
C106	C	1.642534	0.642900	1.108052
C107	C	1.142392	-0.149123	0.404006
C108	C	1.642392	0.350877	0.904006
C109	C	1.142525	-0.148900	0.316784
C110	C	1.642525	0.351100	0.816784
C111	C	1.193049	-0.088678	0.951145
C112	C	1.693049	0.411322	1.451145
C113	C	1.193058	-0.088650	1.033128
C114	C	1.693058	0.411350	1.533128
C115	C	1.142485	-0.148973	1.063927
C116	C	1.642485	0.351027	1.563927
C117	C	1.091894	-0.209324	1.012737
C118	C	1.591894	0.290676	1.512737
C119	C	1.091881	-0.209348	0.930755
C120	C	1.591881	0.290652	1.430755
C121	C	1.091925	-0.209270	1.183614
C122	C	1.591925	0.290730	1.683614
C123	C	1.091939	-0.209247	1.265601
C124	C	1.591939	0.290753	1.765601
C125	C	1.193103	-0.088573	1.285986
C126	C	1.693103	0.411427	1.785986
C127	C	1.193090	-0.088597	1.204004
C128	C	1.693090	0.411403	1.704004
C129	C	1.142499	-0.148948	1.152820
C130	C	1.642499	0.351052	1.652820
H131	H	1.234131	-0.429537	0.535388
H132	H	1.734131	0.070463	1.035388
H133	H	0.691646	-0.330484	0.426045
H134	H	1.191646	0.169516	0.926045
Br135	Br	1.261750	-0.006776	1.102595
Br136	Br	1.761750	0.493224	1.602595
H137	H	1.050713	-0.258438	1.037819
H138	H	1.550713	0.241562	1.537819
H139	H	1.050756	-0.258366	1.290674
H140	H	1.550756	0.241634	1.790674
H141	H	1.050680	-0.258483	0.889081
H142	H	1.550680	0.241517	1.389081
H143	H	0.444166	0.002317	0.759911
H144	H	0.944166	0.502317	1.259911
Br145	Br	1.023297	-0.895660	0.702285
Br146	Br	1.523297	-0.395660	1.202285
Br147	Br	0.863948	-0.086758	0.670491
Br148	Br	1.363948	0.413242	1.170491
H149	H	1.234240	-0.682360	0.535461
H150	H	1.734240	-0.182360	1.035461
H151	H	0.444063	-0.179628	0.577417
H152	H	0.944063	0.320372	1.077417
Br153	Br	0.740181	0.038816	0.796476
Br154	Br	1.240181	0.538816	1.296476
H155	H	0.492992	-0.229243	0.527610
H156	H	0.992992	0.270757	1.027610
Br157	Br	1.023228	-0.702432	0.702254
Br158	Br	1.523228	-0.202432	1.202254
H159	H	1.234199	-0.578242	0.535439
H160	H	1.734199	-0.078242	1.035439
Br161	Br	0.545411	-0.336919	0.419623
Br162	Br	1.045411	0.163081	0.919623
Br163	Br	0.616371	0.064099	0.821865
Br164	Br	1.116371	0.564099	1.321865
H165	H	1.050660	-0.615067	0.680522
H166	H	1.550660	-0.115067	1.180522
H167	H	1.050717	-0.258405	1.141939
H168	H	1.550717	0.241595	1.641939
Br169	Br	1.023125	-0.449602	0.702184
Br170	Br	1.523125	0.050398	1.202184
H171	H	0.841430	-0.300425	0.456170
H172	H	1.341430	0.199575	0.956170
H173	H	1.234234	-0.039558	0.926076
H174	H	1.734234	0.460442	1.426076
Br175	Br	1.261769	-0.847817	0.513792
Br176	Br	1.761769	-0.347817	1.013792
H177	H	1.234275	-0.039480	1.178932
H178	H	1.734275	0.460520	1.678932
H179	H	0.792604	-0.068840	0.688457
H180	H	1.292604	0.431160	1.188457
Br181	Br	1.261765	-0.006669	1.355449
Br182	Br	1.761765	0.493331	1.855449
