data_functionalizedCrystal
_audit_creation_method	'MofGen! by Chris Wilmer'
_symmetry_space_group_name_H-M	'P1'
_symmetry_Int_Tables_number	1
_symmetry_cell_setting	triclinic
loop_
_symmetry_equiv_pos_as_xyz
  x,y,z
_cell_length_a	14.044220
_cell_length_b	14.044190
_cell_length_c	18.366186
_cell_angle_alpha	89.989358
_cell_angle_beta	89.996026
_cell_angle_gamma	93.190328
loop_
_atom_site_label
_atom_site_type_symbol
_atom_site_fract_x
_atom_site_fract_y
_atom_site_fract_z
O1	O	1.277180	0.230170	-0.060487
O2	O	1.000508	0.221865	-0.060505
O3	O	1.134688	0.087681	-0.060482
O4	O	1.143001	0.364354	-0.060510
O5	O	1.134662	0.087672	0.060618
O6	O	1.000483	0.221855	0.060595
O7	O	1.277154	0.230161	0.060612
Zn8	Zn	1.138815	0.226007	0.079831
Zn9	Zn	1.138848	0.226019	-0.079723
O10	O	1.142975	0.364344	0.060589
C11	C	0.964874	0.218224	0.000043
C12	C	0.858731	0.207380	0.000036
C13	C	1.131039	0.052054	0.000070
C14	C	1.120191	-0.054089	0.000075
C15	C	0.664392	0.187553	0.000053
C16	C	0.613264	0.264468	0.000048
C17	C	0.505128	0.253436	0.000057
C18	C	0.772539	0.198583	0.000044
C19	C	1.177292	-0.299547	0.000051
C20	C	1.100375	-0.248422	0.000051
C21	C	1.111404	-0.140285	0.000064
C22	C	1.166265	-0.407694	0.000037
C23	C	1.312789	0.233801	0.000063
C24	C	1.418932	0.244646	0.000065
C25	C	1.146624	0.399971	0.000036
C26	C	1.157472	0.506114	0.000026
N27	N	1.138799	0.225998	0.188722
N28	N	1.138871	0.226020	-0.188614
C29	C	1.198237	0.166615	0.226832
C30	C	1.198243	0.166612	0.303060
C31	C	1.138820	0.226008	0.341174
C32	C	1.079370	0.285394	0.303055
C33	C	1.079359	0.285389	0.226828
C34	C	1.133666	0.311899	0.461925
C35	C	1.133684	0.311906	0.538150
C36	C	1.138849	0.226022	0.576282
C37	C	1.144016	0.140129	0.538179
C38	C	1.144005	0.140125	0.461953
C39	C	1.138825	0.226019	0.423829
C40	C	1.198297	0.166630	0.697048
C41	C	1.198296	0.166625	0.773277
C42	C	1.079428	0.285416	0.773270
C43	C	1.079424	0.285413	0.697042
C44	C	1.138863	0.226022	0.658935
H45	H	0.650706	0.338602	0.000037
Cl46	Cl	1.150516	0.032154	0.586107
H47	H	1.251418	-0.262106	0.000063
H48	H	0.626954	0.113425	0.000064
H49	H	1.026243	-0.285865	0.000042
H50	H	1.246634	0.118253	0.195808
Cl51	Cl	1.272974	0.091953	0.350979
H52	H	1.148209	0.070188	0.430933
Cl53	Cl	1.273014	0.091962	0.649141
Cl54	Cl	1.273018	0.091960	0.821190
Cl55	Cl	1.004717	0.360078	0.821180
H56	H	1.031027	0.333772	0.666010
Cl57	Cl	1.127195	0.419885	0.586043
H58	H	1.129444	0.381840	0.430885
Cl59	Cl	1.004663	0.360060	0.350968
H60	H	1.030956	0.333747	0.195798
