data_functionalizedCrystal
_audit_creation_method	'MofGen! by Chris Wilmer'
_symmetry_space_group_name_H-M	'P1'
_symmetry_Int_Tables_number	1
_symmetry_cell_setting	triclinic
loop_
_symmetry_equiv_pos_as_xyz
  x,y,z
_cell_length_a	15.021413
_cell_length_b	15.944551
_cell_length_c	15.944551
_cell_angle_alpha	83.498738
_cell_angle_beta	90.003065
_cell_angle_gamma	89.997174
loop_
_atom_site_label
_atom_site_type_symbol
_atom_site_fract_x
_atom_site_fract_y
_atom_site_fract_z
O1	O	0.073941	-1.114529	-0.108321
O2	O	0.573941	-0.614529	0.391679
O3	O	0.073964	-0.869979	-0.121677
O4	O	0.573964	-0.369979	0.378323
O5	O	0.073944	-0.998932	0.007276
O6	O	0.573944	-0.498932	0.507276
O7	O	0.073961	-0.985576	-0.237274
O8	O	0.573961	-0.485576	0.262726
O9	O	-0.074121	-0.998912	0.007257
O10	O	0.425879	-0.498912	0.507257
O11	O	-0.074101	-0.869959	-0.121695
O12	O	0.425899	-0.369959	0.378305
O13	O	-0.074123	-1.114508	-0.108339
O14	O	0.425877	-0.614508	0.391661
Zn15	Zn	-0.097620	-0.992230	-0.115020
Zn16	Zn	0.402380	-0.492230	0.384980
Zn17	Zn	0.097461	-0.992257	-0.114996
Zn18	Zn	0.597461	-0.492257	0.385004
O19	O	-0.074103	-0.985555	-0.237292
O20	O	0.425897	-0.485555	0.262708
C21	C	-0.000066	-0.838675	-0.121132
C22	C	0.499934	-0.338675	0.378868
C23	C	-0.000057	-0.745429	-0.119470
C24	C	0.499943	-0.245429	0.380530
N25	N	-0.230758	-0.992218	-0.115036
N26	N	0.269242	-0.492218	0.384964
C27	C	-0.000089	-0.998367	0.038561
C28	C	0.499911	-0.498367	0.538561
C29	C	-0.000089	-0.996705	0.131807
C30	C	0.499911	-0.496705	0.631807
C31	C	-0.470432	-0.932581	-0.174636
C32	C	0.029568	-0.432581	0.325364
C33	C	-0.529772	-1.008481	-0.190943
C34	C	-0.029772	-0.508481	0.309057
C35	C	-0.412365	-0.992239	-0.115015
C36	C	0.087635	-0.492239	0.384985
C37	C	-0.529766	-0.916360	-0.098727
C38	C	-0.029766	-0.416360	0.401273
C39	C	-0.587789	-0.992253	-0.114997
C40	C	-0.087789	-0.492253	0.385003
C41	C	-0.470398	-1.068178	-0.131360
C42	C	0.029602	-0.568178	0.368640
C43	C	-0.470387	-0.976006	-0.039111
C44	C	0.029613	-0.476006	0.460889
C45	C	-0.529701	-1.051962	-0.055386
C46	C	-0.029701	-0.551962	0.444614
C47	C	-0.311307	-0.992230	-0.115028
C48	C	0.188693	-0.492230	0.384972
C49	C	-0.688844	-0.992271	-0.114984
C50	C	-0.188844	-0.492271	0.385016
N51	N	0.230598	-0.992276	-0.114973
N52	N	0.730598	-0.492276	0.385027
C53	C	-0.000092	-1.145813	-0.108885
C54	C	0.499908	-0.645813	0.391115
C55	C	-0.000094	-1.239059	-0.110547
C56	C	0.499906	-0.739059	0.389453
C57	C	-0.000081	-0.530572	-0.035565
C58	C	0.499919	-0.030572	0.464435
C59	C	0.072926	-0.469562	-0.074518
C60	C	0.572926	0.030438	0.425482
C61	C	-0.000068	-0.574703	-0.116462
C62	C	0.499932	-0.074703	0.383538
C63	C	-0.073054	-0.469564	-0.074556
C64	C	0.426946	0.030436	0.425444
C65	C	-0.000083	-0.409790	-0.113551
C66	C	0.499917	0.090210	0.386449
C67	C	0.072998	-0.514921	-0.155438
C68	C	0.572998	-0.014921	0.344562
C69	C	-0.073047	-0.514930	-0.155464
C70	C	0.426953	-0.014930	0.344536
C71	C	-0.000023	-0.453937	-0.194476
C72	C	0.499977	0.046063	0.305524
C73	C	-0.000059	-0.669705	-0.118137
C74	C	0.499941	-0.169705	0.381863
C75	C	-0.000085	-0.314789	-0.111883
C76	C	0.499915	0.185211	0.388117
C77	C	-0.000069	-0.986120	-0.268577
C78	C	0.499931	-0.486120	0.231423
C79	C	-0.000063	-0.987782	-0.361823
C80	C	0.499937	-0.487782	0.138177
C81	C	-0.000069	-0.912801	0.346663
C82	C	0.499931	-0.412801	0.846663
C83	C	-0.073077	-0.951753	0.407672
C84	C	0.426923	-0.451753	0.907672
C85	C	-0.000082	-0.993698	0.302533
C86	C	0.499918	-0.493698	0.802533
C87	C	0.072903	-0.951792	0.407673
C88	C	0.572903	-0.451792	0.907673
C89	C	-0.000071	-0.990787	0.467445
C90	C	0.499929	-0.490787	0.967445
C91	C	-0.073150	-1.032672	0.362313
C92	C	0.426850	-0.532672	0.862313
C93	C	0.072895	-1.032700	0.362308
C94	C	0.572895	-0.532700	0.862308
C95	C	-0.000131	-1.071711	0.423298
C96	C	0.499869	-0.571711	0.923298
C97	C	-0.000089	-0.995372	0.207530
C98	C	0.499911	-0.495372	0.707530
C99	C	-0.000070	-0.989119	0.562446
C100	C	0.499930	-0.489119	1.062446
H101	H	-0.444409	-0.882181	-0.225096
H102	H	0.055591	-0.382181	0.274904
H103	H	-0.134773	-0.449470	-0.040332
H104	H	0.365227	0.050530	0.459668
C105	C	0.156277	-1.078896	0.335119
C106	C	0.656277	-0.578896	0.835119
N107	N	0.219087	-1.113685	0.314638
N108	N	0.719087	-0.613685	0.814638
C109	C	-0.435320	-1.154896	-0.150069
C110	C	0.064680	-0.654896	0.349931
N111	N	-0.408896	-1.220208	-0.164165
N112	N	0.091104	-0.720208	0.335835
C113	C	-0.000160	-0.822090	0.301659
C114	C	0.499840	-0.322090	0.801659
N115	N	-0.000235	-0.753769	0.267759
N116	N	0.499765	-0.253769	0.767759
C117	C	-0.156451	-0.905516	0.434831
C118	C	0.343549	-0.405516	0.934831
N119	N	-0.219245	-0.870686	0.455286
N120	N	0.280755	-0.370686	0.955286
C121	C	0.156285	-0.905562	0.434819
C122	C	0.656285	-0.405562	0.934819
N123	N	0.219086	-0.870735	0.455260
N124	N	0.719086	-0.370735	0.955260
C125	C	-0.156629	-1.078844	0.335298
C126	C	0.343371	-0.578844	0.835298
N127	N	-0.219507	-1.113615	0.314949
N128	N	0.280493	-0.613615	0.814949
H129	H	-0.444283	-0.962240	0.025051
H130	H	0.055717	-0.462240	0.525051
C131	C	-0.564652	-1.120201	0.012736
C132	C	-0.064652	-0.620201	0.512736
N133	N	-0.590984	-1.171602	0.064039
N134	N	-0.090984	-0.671602	0.564039
C135	C	-0.565021	-1.027042	-0.277649
C136	C	-0.065021	-0.527042	0.222351
N137	N	-0.591570	-1.041015	-0.342957
N138	N	-0.091570	-0.541015	0.157043
C139	C	-0.564993	-0.829660	-0.080121
C140	C	-0.064993	-0.329660	0.419879
N141	N	-0.591521	-0.764356	-0.066114
N142	N	-0.091521	-0.264356	0.433886
C143	C	-0.000197	-1.162502	0.468103
C144	C	0.499803	-0.662502	0.968103
N145	N	-0.000252	-1.230884	0.501853
N146	N	0.499748	-0.730884	1.001853
H147	H	0.134642	-0.449461	-0.040295
H148	H	0.634642	0.050539	0.459705
C149	C	0.000010	-0.575572	0.055148
C150	C	0.500010	-0.075572	0.555148
N151	N	0.000083	-0.609467	0.123471
N152	N	0.500083	-0.109467	0.623471
C153	C	0.156477	-0.541933	-0.201610
C154	C	0.656477	-0.041933	0.298390
N155	N	0.219354	-0.562281	-0.236383
N156	N	0.719354	-0.062281	0.263617
H157	H	-0.134767	-0.535052	-0.189659
H158	H	0.365233	-0.035052	0.310341
C159	C	0.000039	-0.409134	-0.285267
C160	C	0.500039	0.090866	0.214733
N161	N	0.000091	-0.375385	-0.353649
N162	N	0.500091	0.124615	0.146351
