data_functionalizedCrystal
_audit_creation_method	'MofGen! by Chris Wilmer'
_symmetry_space_group_name_H-M	'P1'
_symmetry_Int_Tables_number	1
_symmetry_cell_setting	triclinic
loop_
_symmetry_equiv_pos_as_xyz
  x,y,z
_cell_length_a	18.050591
_cell_length_b	13.897448
_cell_length_c	13.897441
_cell_angle_alpha	90.030599
_cell_angle_beta	90.026738
_cell_angle_gamma	90.014140
loop_
_atom_site_label
_atom_site_type_symbol
_atom_site_fract_x
_atom_site_fract_y
_atom_site_fract_z
Zn1	Zn	1.135398	-0.384075	0.545536
Zn2	Zn	1.135316	-0.545397	0.384237
Zn3	Zn	1.011202	-0.384108	0.384237
Zn4	Zn	1.011188	-0.545320	0.545473
O5	O	1.073276	-0.464725	0.464871
O6	O	1.239312	-0.405494	0.524165
O7	O	1.118824	-0.524048	0.249255
O8	O	1.027717	-0.249122	0.405660
O9	O	1.239252	-0.524016	0.405660
O10	O	1.118963	-0.249098	0.524165
O11	O	1.027638	-0.405549	0.249255
O12	O	0.907276	-0.405474	0.405599
O13	O	1.027693	-0.523885	0.680463
O14	O	0.907265	-0.523916	0.524058
O15	O	1.118950	-0.405419	0.680509
O16	O	1.118810	-0.680369	0.405599
O17	O	1.027614	-0.680312	0.524058
C18	C	0.880324	-0.464691	0.464822
C19	C	0.797778	-0.464700	0.464825
C20	C	1.073222	-0.715340	0.464843
C21	C	1.073267	-0.822553	0.464863
C22	C	1.073345	-1.018848	0.464924
C23	C	1.073299	-0.909616	0.464893
C24	C	0.548937	-0.400224	0.400559
C25	C	0.598374	-0.376725	0.488589
C26	C	0.500658	-0.464749	0.464904
C27	C	0.598303	-0.488179	0.376840
C28	C	0.646643	-0.464723	0.464860
C29	C	0.549008	-0.441204	0.552980
C30	C	0.548932	-0.552699	0.441172
C31	C	0.598347	-0.529233	0.529263
C32	C	0.416560	-0.464762	0.464927
C33	C	0.730739	-0.464710	0.464846
C34	C	1.266982	-0.464760	0.464920
C35	C	1.349528	-0.464775	0.464941
C36	C	1.073329	-0.464640	0.716464
C37	C	1.073351	-0.464604	0.823678
C38	C	1.073351	-0.213132	0.464920
C39	C	1.073383	-0.105918	0.464941
C40	C	1.073266	-0.464740	0.214256
C41	C	1.073388	-0.464505	0.107043
C42	C	1.073371	-0.464538	1.019973
C43	C	1.073358	-0.464577	0.910740
H44	H	0.527244	-0.345628	0.346230
H45	H	0.619904	-0.583789	0.583721
Br46	Br	0.513072	-0.408012	0.677116
Br47	Br	0.634400	-0.521227	0.252744
H48	H	0.620077	-0.302333	0.508660
Br49	Br	0.512704	-0.676650	0.407694
