data_functionalizedCrystal
_audit_creation_method	'MofGen! by Chris Wilmer'
_symmetry_space_group_name_H-M	'P1'
_symmetry_Int_Tables_number	1
_symmetry_cell_setting	triclinic
loop_
_symmetry_equiv_pos_as_xyz
  x,y,z
_cell_length_a	16.120530
_cell_length_b	16.120484
_cell_length_c	16.120728
_cell_angle_alpha	84.367400
_cell_angle_beta	89.860094
_cell_angle_gamma	90.167327
loop_
_atom_site_label
_atom_site_type_symbol
_atom_site_fract_x
_atom_site_fract_y
_atom_site_fract_z
Zn1	Zn	1.224873	-0.422442	0.554816
Zn2	Zn	1.724873	0.077558	1.054816
Zn3	Zn	1.224796	-0.555083	0.422120
Zn4	Zn	1.724796	-0.055083	0.922120
Zn5	Zn	1.093642	-0.408310	0.408058
Zn6	Zn	1.593642	0.091690	0.908058
Zn7	Zn	1.078766	-0.554358	0.554054
Zn8	Zn	1.578766	-0.054358	1.054054
O9	O	1.155519	-0.485048	0.484762
O10	O	1.655519	0.014952	0.984762
O11	O	1.340897	-0.446254	0.543418
O12	O	1.840897	0.053746	1.043418
O13	O	1.213591	-0.530003	0.303622
O14	O	1.713591	-0.030003	0.803622
O15	O	1.117308	-0.293553	0.421960
O16	O	1.617308	0.206447	0.921960
O17	O	1.340840	-0.543706	0.445927
O18	O	1.840840	-0.043706	0.945927
O19	O	1.213723	-0.303935	0.529782
O20	O	1.713723	0.196065	1.029782
O21	O	1.117234	-0.422170	0.293290
O22	O	1.617234	0.077830	0.793290
O23	O	0.975634	-0.421466	0.421220
O24	O	1.475634	0.078534	0.921220
O25	O	1.091953	-0.542469	0.670788
O26	O	1.591953	-0.042469	1.170788
O27	O	0.964704	-0.528767	0.528483
O28	O	1.464704	-0.028767	1.028483
O29	O	1.199298	-0.445551	0.671348
O30	O	1.699298	0.054449	1.171348
O31	O	1.199166	-0.671619	0.445188
O32	O	1.699166	-0.171619	0.945188
O33	O	1.091879	-0.671086	0.542118
O34	O	1.591879	-0.171086	1.042118
C35	C	0.940083	-0.473505	0.473243
C36	C	1.440083	0.026495	0.973243
C37	C	0.847916	-0.468588	0.468336
C38	C	1.347916	0.031412	0.968336
C39	C	1.143921	-0.701596	0.495115
C40	C	1.643921	-0.201596	0.995115
C41	C	1.139034	-0.794242	0.499577
C42	C	1.639034	-0.294242	0.999577
C43	C	0.679167	-0.459591	0.459384
C44	C	1.179167	0.040409	0.959384
C45	C	0.632705	-0.510570	0.510204
C46	C	1.132705	-0.010570	1.010204
C47	C	0.538807	-0.505564	0.505223
C48	C	1.038807	-0.005564	1.005223
C49	C	0.773073	-0.464596	0.464364
C50	C	1.273073	0.035404	0.964364
C51	C	1.130115	-0.963868	0.507739
C52	C	1.630115	-0.463868	1.007739
C53	C	1.181071	-1.005397	0.461807
C54	C	1.681071	-0.505397	0.961807
C55	C	1.176108	-1.099782	0.466348
C56	C	1.676108	-0.599782	0.966348
C57	C	1.135076	-0.869474	0.503198
C58	C	1.635076	-0.369474	1.003198
C59	C	1.371796	-0.496637	0.496326
C60	C	1.871796	0.003363	0.996326
C61	C	1.463961	-0.501576	0.501254
C62	C	1.963961	-0.001576	1.001254
C63	C	1.143975	-0.495505	0.702155
C64	C	1.643975	0.004495	1.202155
C65	C	1.139055	-0.499962	0.794795
C66	C	1.639055	0.000038	1.294795
C67	C	1.167184	-0.267657	0.474387
C68	C	1.667184	0.232343	0.974387
C69	C	1.172154	-0.175017	0.469967
C70	C	1.672154	0.324983	0.969967
C71	C	1.130044	-0.508077	0.964408
C72	C	1.630044	-0.008077	1.464408
C73	C	1.180964	-0.462098	1.005970
C74	C	1.680964	0.037902	1.505970
C75	C	1.175950	-0.466613	1.100348
C76	C	1.675950	0.033387	1.600348
C77	C	1.135057	-0.503563	0.870021
C78	C	1.635057	-0.003563	1.370021
C79	C	1.167018	-0.474654	1.268215
C80	C	1.667018	0.025346	1.768215
C81	C	1.171956	-0.470211	1.175577
C82	C	1.671956	0.029789	1.675577
H83	H	0.663448	-0.557972	0.557455
H84	H	1.163448	-0.057972	1.057455
H85	H	1.082688	-0.550831	0.999703
H86	H	1.582688	-0.050831	1.499703
H87	H	1.082767	-0.999197	0.550470
H88	H	1.582767	-0.499197	1.050470
C89	C	0.637642	-0.395561	0.395548
C90	C	1.137642	0.104439	0.895548
C91	C	0.542376	-0.390590	0.390593
C92	C	1.042376	0.109410	0.890593
C93	C	0.500839	-0.326564	0.326756
C94	C	1.000839	0.173436	0.826756
C95	C	0.554570	-0.267508	0.267874
C96	C	1.054570	0.232492	0.767874
C97	C	0.649842	-0.272476	0.272826
C98	C	1.149842	0.227524	0.772826
C99	C	0.691379	-0.336502	0.336664
C100	C	1.191379	0.163498	0.836664
H101	H	0.502596	-0.434309	0.434184
H102	H	1.002596	0.065691	0.934184
H103	H	0.430312	-0.322887	0.323090
H104	H	0.930312	0.177113	0.823090
H105	H	0.523823	-0.220111	0.220618
H106	H	1.023823	0.279889	0.720618
H107	H	0.689622	-0.228757	0.229236
H108	H	1.189622	0.271243	0.729236
H109	H	0.761906	-0.340180	0.340329
H110	H	1.261906	0.159820	0.840329
C111	C	1.245034	-0.957670	0.404066
C112	C	1.745034	-0.457670	0.904066
C113	C	1.338323	-0.974818	0.416528
C114	C	1.838323	-0.474818	0.916528
C115	C	1.402281	-0.927086	0.358788
C116	C	1.902281	-0.427086	0.858788
C117	C	1.372950	-0.862206	0.288586
C118	C	1.872950	-0.362206	0.788586
C119	C	1.279656	-0.845055	0.276121
C120	C	1.779656	-0.345055	0.776121
C121	C	1.215698	-0.892787	0.333861
C122	C	1.715698	-0.392787	0.833861
H123	H	1.360040	-1.022848	0.468499
H124	H	1.860040	-0.522848	0.968499
H125	H	1.471343	-0.939782	0.368016
H126	H	1.971343	-0.439782	0.868016
H127	H	1.420295	-0.826872	0.245843
H128	H	1.920295	-0.326872	0.745843
H129	H	1.257939	-0.797025	0.224150
H130	H	1.757939	-0.297025	0.724150
H131	H	1.146636	-0.880091	0.324633
H132	H	1.646636	-0.380091	0.824633
H133	H	1.228324	-0.419341	0.970673
H134	H	1.728324	0.080659	1.470673
