data_functionalizedCrystal
_audit_creation_method	'MofGen! by Chris Wilmer'
_symmetry_space_group_name_H-M	'P1'
_symmetry_Int_Tables_number	1
_symmetry_cell_setting	triclinic
loop_
_symmetry_equiv_pos_as_xyz
  x,y,z
_cell_length_a	16.625548
_cell_length_b	13.897449
_cell_length_c	13.897441
_cell_angle_alpha	89.978378
_cell_angle_beta	89.978130
_cell_angle_gamma	90.003688
loop_
_atom_site_label
_atom_site_type_symbol
_atom_site_fract_x
_atom_site_fract_y
_atom_site_fract_z
Zn1	Zn	1.232802	-0.383957	-0.545471
Zn2	Zn	1.232749	-0.545278	-0.384197
Zn3	Zn	1.097961	-0.384002	-0.384186
Zn4	Zn	1.097981	-0.545214	-0.545447
O5	O	1.165373	-0.464613	-0.464825
O6	O	1.345627	-0.405364	-0.524092
O7	O	1.214838	-0.523930	-0.249214
O8	O	1.115862	-0.249014	-0.405586
O9	O	1.345588	-0.523886	-0.405605
O10	O	1.214929	-0.248981	-0.524081
O11	O	1.115810	-0.405441	-0.249206
O12	O	0.985131	-0.405379	-0.405563
O13	O	1.115896	-0.523777	-0.680432
O14	O	0.985146	-0.523821	-0.524040
O15	O	1.214948	-0.405302	-0.680449
O16	O	1.214858	-0.680251	-0.405582
O17	O	1.115844	-0.680204	-0.524051
C18	C	0.955882	-0.464599	-0.464798
C19	C	0.866261	-0.464616	-0.464810
C20	C	1.165369	-0.715227	-0.464837
C21	C	1.165442	-0.822441	-0.464874
C22	C	1.165430	-0.464527	-0.716418
C23	C	1.165455	-0.464491	-0.823632
C24	C	0.538086	-0.464623	-0.464851
C25	C	0.629394	-0.464618	-0.464836
C26	C	0.702170	-0.464620	-0.464829
C27	C	0.793485	-0.464615	-0.464816
C28	C	1.375682	-0.464627	-0.464853
C29	C	1.465303	-0.464633	-0.464865
C30	C	1.165399	-0.213020	-0.464835
C31	C	1.165410	-0.105806	-0.464839
C32	C	1.165434	0.090489	-0.464870
C33	C	1.165423	-0.018743	-0.464856
C34	C	1.165477	-0.464426	-1.019927
C35	C	1.165462	-0.464465	-0.910695
C36	C	1.165363	-0.464628	-0.214211
C37	C	1.165494	-0.464393	-0.106997
