data_functionalizedCrystal
_audit_creation_method	'MofGen! by Chris Wilmer'
_symmetry_space_group_name_H-M	'P1'
_symmetry_Int_Tables_number	1
_symmetry_cell_setting	triclinic
loop_
_symmetry_equiv_pos_as_xyz
  x,y,z
_cell_length_a	12.759401
_cell_length_b	16.959453
_cell_length_c	12.759393
_cell_angle_alpha	90.032410
_cell_angle_beta	89.981504
_cell_angle_gamma	89.973864
loop_
_atom_site_label
_atom_site_type_symbol
_atom_site_fract_x
_atom_site_fract_y
_atom_site_fract_z
Zn1	Zn	1.606173	0.314632	-0.593975
Zn2	Zn	1.606033	0.446833	-0.418293
Zn3	Zn	1.430475	0.314673	-0.418315
Zn4	Zn	1.430429	0.446772	-0.593934
O5	O	1.518278	0.380728	-0.506129
O6	O	1.753175	0.332177	-0.570679
O7	O	1.582705	0.429345	-0.271274
O8	O	1.453860	0.204057	-0.441643
O9	O	1.753072	0.429305	-0.441605
O10	O	1.582944	0.204026	-0.570700
O11	O	1.453724	0.332247	-0.271291
O12	O	1.283448	0.332188	-0.441603
O13	O	1.453781	0.429201	-0.740961
O14	O	1.283414	0.429241	-0.570630
O15	O	1.582900	0.332118	-0.740991
O16	O	1.582661	0.557436	-0.441566
O17	O	1.453645	0.557391	-0.570609
C18	C	1.245310	0.380713	-0.506115
C19	C	1.128534	0.380726	-0.506134
C20	C	1.518161	0.586094	-0.506103
C21	C	1.518208	0.673950	-0.506127
C22	C	1.073681	0.431342	-0.573207
C23	C	0.963957	0.431352	-0.573218
C24	C	0.963947	0.330127	-0.439074
C25	C	1.073669	0.330114	-0.439069
C26	C	1.128546	0.481954	-0.640272
C27	C	1.073693	0.532575	-0.707349
C28	C	0.963969	0.532585	-0.707361
C29	C	0.909098	0.481974	-0.640294
C30	C	1.451001	0.715230	-0.573269
C31	C	1.585464	0.715224	-0.439014
C32	C	1.585514	0.797770	-0.439038
C33	C	1.518308	0.839050	-0.506180
C34	C	1.451051	0.797784	-0.573297
C35	C	1.652777	0.839042	-0.371929
C36	C	1.652830	0.921593	-0.371951
C37	C	1.585618	0.962874	-0.439089
C38	C	1.518358	0.921603	-0.506208
C39	C	1.451151	0.962883	-0.573350
C40	C	1.383885	0.921613	-0.640465
C41	C	1.383839	0.839065	-0.640435
C42	C	1.585664	1.045423	-0.439119
C43	C	1.451201	1.045437	-0.573379
C44	C	1.792311	0.380743	-0.506144
C45	C	1.909087	0.380749	-0.506150
C46	C	1.518416	1.174559	-0.506194
C47	C	1.518458	1.086703	-0.506261
C48	C	1.518351	0.380648	-0.780163
C49	C	1.518382	0.380614	-0.896939
C50	C	1.585624	0.330058	-0.951819
C51	C	1.585649	0.330029	-1.061543
C52	C	1.451188	0.431120	-1.061499
C53	C	1.451159	0.431144	-0.951776
C54	C	1.652847	0.279528	-0.896982
C55	C	1.720095	0.228968	-0.951861
C56	C	1.720120	0.228940	-1.061585
C57	C	1.652897	0.279471	-1.116430
C58	C	1.518265	0.380750	-0.233162
C59	C	1.518437	0.380561	-0.116386
H60	H	1.217888	0.481953	-0.640268
H61	H	1.118377	0.573776	-0.761959
H62	H	0.919312	0.573798	-0.761986
Br63	Br	1.676955	1.101429	-0.348051
Br64	Br	1.292691	0.977645	-0.731594
H65	H	1.652911	0.279434	-1.205775
Br66	Br	0.760185	0.481980	-0.640323
Br67	Br	0.889479	0.261446	-0.348061
Br68	Br	1.744117	0.977595	-0.280869
H69	H	1.396389	0.472299	-0.907092
H70	H	1.652837	0.279547	-0.807639
Br71	Br	1.292568	0.783052	-0.731521
H72	H	1.396231	0.681626	-0.627910
H73	H	1.118331	0.288892	-0.384460
Br74	Br	1.676680	0.659202	-0.347909
Br75	Br	1.811300	0.160379	-0.877433
Br76	Br	1.359979	1.101453	-0.664496
Br77	Br	1.743993	0.783017	-0.280827
H78	H	1.774868	0.187766	-1.106265
H79	H	1.396459	0.472259	-1.106162
