data_functionalizedCrystal
_audit_creation_method	'MofGen! by Chris Wilmer'
_symmetry_space_group_name_H-M	'P1'
_symmetry_Int_Tables_number	1
_symmetry_cell_setting	triclinic
loop_
_symmetry_equiv_pos_as_xyz
  x,y,z
_cell_length_a	6.817900
_cell_length_b	11.168138
_cell_length_c	11.168136
_cell_angle_alpha	92.020086
_cell_angle_beta	108.508683
_cell_angle_gamma	108.508793
loop_
_atom_site_label
_atom_site_type_symbol
_atom_site_fract_x
_atom_site_fract_y
_atom_site_fract_z
V1	V	-4.109883	-0.174724	-0.393710
O2	O	-4.069466	0.008377	-0.386204
O3	O	-4.086173	-0.346429	-0.391027
O4	O	-4.086174	-0.172045	-0.565415
O5	O	-4.069465	-0.167215	-0.210609
V6	V	-4.587113	-0.152822	-0.371808
O7	O	-4.384947	-0.222767	-0.441753
O8	O	-4.762246	-0.104778	-0.323765
O9	O	-4.387617	0.018883	-0.374490
O10	O	-4.744927	-0.335922	-0.379314
O11	O	-4.744928	-0.160331	-0.554909
O12	O	-4.387616	-0.155501	-0.200102
C13	C	-3.936381	-0.388287	-0.384819
C14	C	-3.998446	-0.528658	-0.383771
C15	C	-3.851277	-0.585129	-0.377314
C16	C	-3.915420	-0.730210	-0.376230
C17	C	-3.936381	-0.165841	-0.607267
C18	C	-3.998443	-0.164786	-0.747637
C19	C	-4.200951	-0.170305	-0.816329
C20	C	-4.265099	-0.169216	-0.961410
C21	C	-4.200752	0.060735	-0.380695
C22	C	-4.117926	0.201105	-0.381752
C23	C	-4.200751	-0.161709	-0.158245
C24	C	-4.117926	-0.162757	-0.017873
H25	H	-3.789534	-0.778798	-0.370708
O26	O	-4.351387	-0.176857	-0.758559
C27	C	-4.552153	-0.181814	-0.850603
H28	H	-4.519238	-0.139103	-0.936519
H29	H	-4.632020	-0.124921	-0.807278
H30	H	-4.667544	-0.285422	-0.882441
H31	H	-4.171922	-0.587717	-0.388483
H32	H	-4.438584	-0.173947	-1.020461
H33	H	-4.243831	-0.750318	-0.387288
O34	O	-3.911118	-0.157324	-0.947355
C35	C	-3.923370	-0.267425	-0.887868
H36	H	-4.093398	-0.309651	-0.879518
H37	H	-3.791862	-0.240780	-0.788500
H38	H	-3.894755	-0.340871	-0.947481
O39	O	-3.848054	-0.157958	-0.805507
C40	C	-3.665024	-0.044512	-0.752288
H41	H	-3.716826	0.028321	-0.707721
H42	H	-3.601062	-0.004126	-0.830426
H43	H	-3.529181	-0.065992	-0.675686
O44	O	-3.644288	-0.514520	-0.371513
C45	C	-3.542881	-0.420725	-0.261826
H46	H	-3.675044	-0.400969	-0.230814
H47	H	-3.436951	-0.329054	-0.284568
H48	H	-3.434646	-0.456304	-0.181402
