data_functionalizedCrystal
_audit_creation_method	'MofGen! by Chris Wilmer'
_symmetry_space_group_name_H-M	'P1'
_symmetry_Int_Tables_number	1
_symmetry_cell_setting	triclinic
loop_
_symmetry_equiv_pos_as_xyz
  x,y,z
_cell_length_a	15.995292
_cell_length_b	10.654541
_cell_length_c	9.130307
_cell_angle_alpha	90.000178
_cell_angle_beta	89.999900
_cell_angle_gamma	96.023728
loop_
_atom_site_label
_atom_site_type_symbol
_atom_site_fract_x
_atom_site_fract_y
_atom_site_fract_z
O1	O	0.117595	-1.666266	-0.121743
O2	O	0.128801	-1.300637	-0.121755
O3	O	0.001365	-1.493484	-0.121751
O4	O	0.245031	-1.473418	-0.121747
O5	O	0.001364	-1.493478	0.121848
O6	O	0.128800	-1.300630	0.121844
O7	O	0.117593	-1.666259	0.121856
Cu8	Cu	0.123197	-1.483444	0.144093
Cu9	Cu	0.123198	-1.483452	-0.143992
O10	O	0.245029	-1.473412	0.121852
C11	C	0.127978	-1.253847	0.000043
C12	C	0.125518	-1.114436	0.000038
C13	C	-0.029836	-1.492664	0.000045
C14	C	-0.122803	-1.490216	0.000034
C15	C	0.118416	-1.713050	0.000055
C16	C	0.120877	-1.852460	0.000050
C17	C	-0.460594	-1.481215	0.000047
C18	C	-0.436474	-1.620407	0.000596
C19	C	-0.339783	-1.623052	0.000041
C20	C	-0.293012	-1.485681	0.000041
C21	C	-0.322516	-1.416095	-0.139063
C22	C	-0.419316	-1.414420	-0.139175
C23	C	-0.419191	-1.411570	0.137843
C24	C	-0.322669	-1.416728	0.139676
C25	C	-0.198301	-1.488198	0.000033
C26	C	-0.555304	-1.478694	0.000045
C27	C	0.276230	-1.474232	0.000053
C28	C	0.369198	-1.476680	0.000054
N29	N	0.123195	-1.483448	0.346715
C30	C	0.277902	-1.084427	0.000022
C31	C	0.352935	-1.003929	0.000008
C32	C	0.350618	-0.872942	0.000007
C33	C	0.273260	-0.822451	0.000024
C34	C	0.198227	-0.902949	0.000038
C35	C	0.200552	-1.033938	0.000035
C36	C	0.045844	-0.932958	0.000064
C37	C	0.048159	-1.063946	0.000055
C38	C	-0.031514	-0.882468	0.000081
C39	C	-0.106549	-0.962966	0.000084
C40	C	-0.104228	-1.093960	0.000084
C41	C	-0.026873	-1.144443	0.000069
N42	N	0.123193	-1.483458	-0.346614
C43	C	0.010383	-1.654284	0.346709
C44	C	-0.046020	-1.739710	0.423372
C45	C	-0.046020	-1.739722	0.576706
C46	C	0.010387	-1.654297	0.653379
C47	C	0.066790	-1.568871	0.576716
C48	C	0.066786	-1.568870	0.423379
C49	C	0.179596	-1.398032	0.576722
C50	C	0.179602	-1.398023	0.423389
C51	C	0.236004	-1.312607	0.653396
C52	C	0.292412	-1.227184	0.576732
C53	C	0.292411	-1.227176	0.423390
C54	C	0.236006	-1.312597	0.346725
H55	H	-0.320442	-1.677550	0.099755
O56	O	0.270755	-0.681173	0.000040
H57	H	0.335925	-0.633681	0.000028
H58	H	-0.091948	-1.809260	0.360931
O59	O	-0.314968	-1.695652	-0.132280
H60	H	-0.372061	-1.728996	-0.196131
H61	H	-0.447026	-1.455402	0.243284
O62	O	-0.106847	-1.831865	0.659408
H63	H	-0.146066	-1.891271	0.580340
H64	H	0.235997	-1.312615	0.778248
O65	O	0.010390	-1.654304	0.818761
H66	H	-0.038305	-1.728060	0.859188
H67	H	-0.033395	-0.775810	0.000088
O68	O	-0.474494	-1.691086	-0.130802
H69	H	-0.457088	-1.789218	-0.129350
O70	O	-0.473146	-1.691459	0.132749
H71	H	-0.515833	-1.774385	0.096139
O72	O	0.235995	-1.312590	0.181344
H73	H	0.298669	-1.332645	0.140895
H74	H	0.338331	-1.157632	0.639169
H75	H	-0.303810	-1.467398	0.242585
O76	O	-0.189979	-0.908514	0.000108
H77	H	-0.178984	-0.803908	0.000107
O78	O	0.353249	-1.135040	0.340701
H79	H	0.392472	-1.075654	0.419783
O80	O	-0.024373	-1.285722	0.000088
H81	H	0.009128	-1.313796	-0.099195
O82	O	0.010383	-1.654271	0.181328
H83	H	0.024359	-1.748072	0.140891
H84	H	-0.291235	-1.315008	-0.144235
H85	H	-0.445852	-1.462617	-0.243158
O86	O	-0.185157	-1.180785	0.000110
H87	H	-0.222144	-1.162846	-0.099172
O88	O	-0.295885	-1.480417	-0.276198
H89	H	-0.261606	-1.561893	-0.245632
H90	H	-0.434458	-1.312363	-0.145477
H91	H	-0.290281	-1.316461	0.148077
H92	H	-0.433776	-1.309114	0.138780
H93	H	0.415919	-1.045053	-0.000002
O94	O	0.280398	-1.225706	0.000018
H95	H	0.346792	-1.247292	0.000013
H96	H	0.411716	-0.807399	0.000006
