data_functionalizedCrystal
_audit_creation_method	'MofGen! by Chris Wilmer'
_symmetry_space_group_name_H-M	'P1'
_symmetry_Int_Tables_number	1
_symmetry_cell_setting	triclinic
loop_
_symmetry_equiv_pos_as_xyz
  x,y,z
_cell_length_a	14.044220
_cell_length_b	10.540510
_cell_length_c	12.503572
_cell_angle_alpha	93.560801
_cell_angle_beta	86.164750
_cell_angle_gamma	88.851094
loop_
_atom_site_label
_atom_site_type_symbol
_atom_site_fract_x
_atom_site_fract_y
_atom_site_fract_z
O1	O	1.265169	0.299543	-0.089195
O2	O	1.765169	0.799543	0.410805
O3	O	0.989127	0.288489	-0.089223
O4	O	1.489127	0.788489	0.410777
O5	O	1.133460	0.109945	-0.089208
O6	O	1.633460	0.609945	0.410792
O7	O	1.120836	0.478086	-0.089210
O8	O	1.620836	0.978086	0.410790
O9	O	1.122606	0.123397	0.089433
O10	O	1.622606	0.623397	0.589433
O11	O	0.978273	0.301941	0.089418
O12	O	1.478273	0.801941	0.589418
O13	O	1.254314	0.312995	0.089446
O14	O	1.754314	0.812995	0.589446
Cu15	Cu	1.115302	0.308696	0.105743
Cu16	Cu	1.615302	0.808696	0.605743
Cu17	Cu	1.128139	0.292788	-0.105520
Cu18	Cu	1.628139	0.792788	0.394480
O19	O	1.109981	0.491538	0.089431
O20	O	1.609981	0.991538	0.589431
C21	C	0.948353	0.290377	0.000094
C22	C	1.448353	0.790377	0.500094
C23	C	0.843032	0.275946	0.000083
C24	C	1.343032	0.775946	0.500083
C25	C	0.650193	0.249567	0.000105
C26	C	1.150193	0.749567	0.500105
C27	C	0.593244	0.351910	0.000109
C28	C	1.093244	0.851910	0.500109
C29	C	0.485942	0.337232	0.000121
C30	C	0.985942	0.837232	0.500121
C31	C	0.757505	0.264243	0.000093
C32	C	1.257505	0.764243	0.500093
C33	C	1.127093	0.069272	0.000110
C34	C	1.627093	0.569272	0.500110
C35	C	1.124278	-0.071963	0.000103
C36	C	1.624278	0.428037	0.500103
C37	C	1.224521	-0.279250	0.000523
C38	C	1.724521	0.220750	0.500523
C39	C	1.227548	-0.132381	0.000115
C40	C	1.727548	0.367619	0.500115
C41	C	1.077612	-0.129748	-0.101912
C42	C	1.577612	0.370252	0.398088
C43	C	1.075346	-0.276744	-0.101992
C44	C	1.575346	0.223256	0.398008
C45	C	1.060852	-0.261473	0.101155
C46	C	1.560852	0.238527	0.601155
C47	C	1.065668	-0.114536	0.102499
C48	C	1.565668	0.385464	0.602499
C49	C	1.295088	0.311106	0.000127
C50	C	1.795088	0.811106	0.500127
C51	C	1.400410	0.325537	0.000130
C52	C	1.900410	0.825537	0.500130
C53	C	1.116349	0.532211	0.000110
C54	C	1.616349	1.032211	0.500110
C55	C	1.119164	0.673446	0.000110
C56	C	1.619164	1.173446	0.500110
N57	N	1.106281	0.319885	0.254335
N58	N	1.606281	0.819885	0.754335
N59	N	1.137168	0.281589	-0.254112
N60	N	1.637168	0.781589	0.245888
C61	C	1.093009	0.336355	0.473448
C62	C	1.593009	0.836355	0.973448
C63	C	1.150437	0.265123	0.526781
C64	C	1.650437	0.765123	1.026781
C65	C	1.143052	0.274287	0.648704
C66	C	1.643052	0.774287	1.148704
C67	C	1.100392	0.327192	0.351515
C68	C	1.600392	0.827192	0.851515
H69	H	0.625075	0.450552	0.000103
H70	H	1.125075	0.950552	0.500103
Br71	Br	1.001826	0.449468	0.549956
Br72	Br	1.501826	0.949468	1.049956
H73	H	0.983274	-0.291411	0.101835
H74	H	1.483274	0.208589	0.601835
Br75	Br	1.289054	-0.067314	0.122019
Br76	Br	1.789054	0.432686	0.622019
Br77	Br	0.939376	-0.044692	0.112758
Br78	Br	1.439376	0.455308	0.612758
Br79	Br	0.597142	0.085165	0.000111
Br80	Br	1.097142	0.585165	0.500111
H81	H	1.205148	0.197257	0.480874
H82	H	1.705148	0.697257	0.980874
H83	H	1.260309	-0.311628	0.073684
H84	H	1.760309	0.188372	0.573684
H85	H	1.268942	-0.324189	-0.072216
H86	H	1.768942	0.175811	0.427784
Br87	Br	1.304306	-0.087208	-0.121971
Br88	Br	1.804306	0.412792	0.378029
H89	H	1.116107	-0.319049	-0.178243
H90	H	1.616107	0.180951	0.321757
Br91	Br	0.947082	-0.328678	-0.109728
Br92	Br	1.447082	0.171322	0.390272
Br93	Br	0.951282	-0.064052	-0.108258
Br94	Br	1.451282	0.435948	0.391742
Br95	Br	1.107348	-0.317123	0.230033
Br96	Br	1.607348	0.182877	0.730033
Br97	Br	1.122129	-0.050885	0.228293
Br98	Br	1.622129	0.449115	0.728293
Br99	Br	1.146489	-0.081669	-0.228443
Br100	Br	1.646489	0.418331	0.271557
