data_functionalizedCrystal
_audit_creation_method	'MofGen! by Chris Wilmer'
_symmetry_space_group_name_H-M	'P1'
_symmetry_Int_Tables_number	1
_symmetry_cell_setting	triclinic
loop_
_symmetry_equiv_pos_as_xyz
  x,y,z
_cell_length_a	14.044191
_cell_length_b	14.044220
_cell_length_c	9.130313
_cell_angle_alpha	89.994483
_cell_angle_beta	89.998938
_cell_angle_gamma	93.190327
loop_
_atom_site_label
_atom_site_type_symbol
_atom_site_fract_x
_atom_site_fract_y
_atom_site_fract_z
O1	O	1.277171	0.230200	-0.121735
O2	O	1.777171	0.730200	0.378265
O3	O	1.000499	0.221887	-0.121753
O4	O	1.500499	0.721887	0.378247
O5	O	1.134682	0.087707	-0.121730
O6	O	1.634682	0.587707	0.378270
O7	O	1.142988	0.364379	-0.121758
O8	O	1.642988	0.864379	0.378242
O9	O	1.134672	0.087702	0.121869
O10	O	1.634672	0.587702	0.621869
O11	O	1.000488	0.221882	0.121845
O12	O	1.500488	0.721882	0.621845
O13	O	1.277161	0.230195	0.121864
O14	O	1.777161	0.730195	0.621864
Cu15	Cu	1.138824	0.226038	0.144097
Cu16	Cu	1.638824	0.726038	0.644097
Cu17	Cu	1.138836	0.226044	-0.143987
Cu18	Cu	1.638836	0.726044	0.356013
O19	O	1.142977	0.364374	0.121840
O20	O	1.642977	0.864374	0.621840
C21	C	0.964872	0.218248	0.000044
C22	C	1.464872	0.718248	0.500044
C23	C	0.858728	0.207401	0.000037
C24	C	1.358728	0.707401	0.500037
C25	C	0.613270	0.264501	0.000046
C26	C	1.113270	0.764501	0.500046
C27	C	0.664395	0.187585	0.000051
C28	C	1.164395	0.687585	0.500051
C29	C	0.772532	0.198613	0.000044
C30	C	1.272532	0.698613	0.500044
C31	C	0.505123	0.253474	0.000054
C32	C	1.005123	0.753474	0.500054
C33	C	1.131041	0.052083	0.000070
C34	C	1.631041	0.552083	0.500070
C35	C	1.120197	-0.054060	0.000071
C36	C	1.620197	0.445940	0.500071
C37	C	1.100370	-0.248398	0.000048
C38	C	1.600370	0.251602	0.500048
C39	C	1.177285	-0.299526	0.000049
C40	C	1.677285	0.200474	0.500049
C41	C	1.166253	-0.407663	0.000037
C42	C	1.666253	0.092337	0.500037
C43	C	1.111400	-0.140252	0.000061
C44	C	1.611400	0.359748	0.500061
C45	C	1.312788	0.233834	0.000063
C46	C	1.812788	0.733834	0.500063
C47	C	1.418931	0.244681	0.000060
C48	C	1.918931	0.744681	0.500060
C49	C	1.146618	0.399998	0.000037
C50	C	1.646618	0.899998	0.500037
C51	C	1.157463	0.506142	0.000027
C52	C	1.657463	1.006142	0.500027
N53	N	1.138822	0.226034	0.346720
N54	N	1.638822	0.726034	0.846720
N55	N	1.138844	0.226041	-0.346609
N56	N	1.638844	0.726041	0.153391
C57	C	1.198262	0.166648	0.423382
C58	C	1.698262	0.666648	0.923382
C59	C	1.198271	0.166649	0.576719
C60	C	1.698271	0.666649	1.076719
C61	C	1.079397	0.285429	0.576718
C62	C	1.579397	0.785429	1.076718
C63	C	1.079384	0.285423	0.423384
C64	C	1.579384	0.785423	0.923384
H65	H	0.626952	0.113452	-0.000044
H66	H	1.126952	0.613452	0.499956
H67	H	0.650711	0.338628	0.000034
H68	H	1.150711	0.838628	0.500034
H69	H	1.031006	0.333784	0.639153
H70	H	1.531006	0.833784	1.139153
H71	H	1.251419	-0.262085	-0.000044
H72	H	1.751419	0.237915	0.499956
H73	H	1.246672	0.118290	0.639133
H74	H	1.746672	0.618290	1.139133
H75	H	1.026242	-0.285837	0.000040
H76	H	1.526242	0.214163	0.500040
H77	H	1.246659	0.118288	0.360966
H78	H	1.746659	0.618288	0.860966
H79	H	1.030976	0.333782	0.360961
H80	H	1.530976	0.833782	0.860961
