data_functionalizedCrystal
_audit_creation_method	'MofGen! by Chris Wilmer'
_symmetry_space_group_name_H-M	'P1'
_symmetry_Int_Tables_number	1
_symmetry_cell_setting	triclinic
loop_
_symmetry_equiv_pos_as_xyz
  x,y,z
_cell_length_a	18.215407
_cell_length_b	12.645330
_cell_length_c	18.215398
_cell_angle_alpha	90.020504
_cell_angle_beta	90.019464
_cell_angle_gamma	90.018140
loop_
_atom_site_label
_atom_site_type_symbol
_atom_site_fract_x
_atom_site_fract_y
_atom_site_fract_z
Zn1	Zn	1.125106	-0.422064	0.416141
Zn2	Zn	1.625106	0.077936	0.916141
Zn3	Zn	1.125031	-0.599338	0.293085
Zn4	Zn	1.625031	-0.099338	0.793085
Zn5	Zn	1.002039	-0.422091	0.293088
Zn6	Zn	1.502039	0.077909	0.793088
Zn7	Zn	1.002020	-0.599287	0.416110
Zn8	Zn	1.502020	-0.099287	0.916110
O9	O	1.063549	-0.510695	0.354606
O10	O	1.563549	-0.010695	0.854606
O11	O	1.228080	-0.445590	0.399829
O12	O	1.728080	0.054410	0.899829
O13	O	1.108692	-0.575859	0.190101
O14	O	1.608692	-0.075859	0.690101
O15	O	1.018404	-0.273740	0.309426
O16	O	1.518404	0.226260	0.809426
O17	O	1.228025	-0.575833	0.309421
O18	O	1.728025	-0.075833	0.809421
O19	O	1.108821	-0.273720	0.399832
O20	O	1.608821	0.226280	0.899832
O21	O	1.018331	-0.445636	0.190104
O22	O	1.518331	0.054364	0.690104
O23	O	0.899053	-0.445586	0.309396
O24	O	1.399053	0.054414	0.809396
O25	O	1.018371	-0.575746	0.519099
O26	O	1.518371	-0.075746	1.019099
O27	O	0.899038	-0.575772	0.399780
O28	O	1.399038	-0.075772	0.899780
O29	O	1.108802	-0.445540	0.519121
O30	O	1.608802	0.054460	1.019121
O31	O	1.108673	-0.747679	0.309391
O32	O	1.608673	-0.247679	0.809391
O33	O	1.018298	-0.747641	0.399777
O34	O	1.518298	-0.247641	0.899777
C35	C	0.872343	-0.510677	0.354585
C36	C	1.372343	-0.010677	0.854585
C37	C	0.790544	-0.510695	0.354594
C38	C	1.290544	-0.010695	0.854594
C39	C	0.602362	-0.578589	0.401597
C40	C	1.102362	-0.078589	0.901597
C41	C	0.525503	-0.578592	0.401606
C42	C	1.025503	-0.078592	0.901606
C43	C	0.525488	-0.442821	0.307631
C44	C	1.025488	0.057179	0.807631
C45	C	0.602346	-0.442813	0.307626
C46	C	1.102346	0.057187	0.807626
C47	C	0.640780	-0.510703	0.354608
C48	C	1.140780	-0.010703	0.854608
C49	C	0.487064	-0.510714	0.354622
C50	C	0.987064	-0.010714	0.854622
C51	C	0.403731	-0.510717	0.354632
C52	C	0.903731	-0.010717	0.854632
C53	C	0.724119	-0.510699	0.354600
C54	C	1.224119	-0.010699	0.854600
C55	C	1.063495	-0.786125	0.354596
C56	C	1.563495	-0.286125	0.854596
C57	C	1.063540	-0.903955	0.354616
C58	C	1.563540	-0.403955	0.854616
C59	C	1.006919	-1.071539	0.411653
C60	C	1.506919	-0.571539	0.911653
C61	C	1.006629	-0.948980	0.411470
C62	C	1.506629	-0.448980	0.911470
C63	C	1.042547	-0.948541	0.277058
C64	C	1.542547	-0.448541	0.777058
C65	C	1.042202	-1.071139	0.277404
C66	C	1.542202	-0.571139	0.777404
C67	C	1.141499	-1.071046	0.374509
C68	C	1.641499	-0.571046	0.874509
C69	C	1.141021	-0.948439	0.376205
C70	C	1.641021	-0.448439	0.876205
C71	C	1.255502	-0.510714	0.354628
C72	C	1.755502	-0.010714	0.854628
C73	C	1.337301	-0.510722	0.354637
C74	C	1.837301	-0.010722	0.854637
C75	C	1.063593	-0.510634	0.546559
C76	C	1.563593	-0.010634	1.046559
C77	C	1.063611	-0.510608	0.628358
C78	C	1.563611	-0.010608	1.128358
C79	C	1.063623	-0.234190	0.354633
C80	C	1.563623	0.265810	0.854633
C81	C	1.063655	-0.116360	0.354644
C82	C	1.563655	0.383640	0.854644
C83	C	1.063548	-0.510679	0.163400
C84	C	1.563548	-0.010679	0.663400
C85	C	1.063672	-0.510407	0.081602
C86	C	1.563672	-0.010407	0.581602
C87	C	1.110696	-0.578284	0.893419
C88	C	1.610696	-0.078284	1.393419
C89	C	1.110685	-0.578321	0.816560
C90	C	1.610685	-0.078321	1.316560
C91	C	1.016582	-0.442727	0.816546
C92	C	1.516582	0.057273	1.316546
C93	C	1.016590	-0.442697	0.893403
C94	C	1.516590	0.057303	1.393403
C95	C	1.063651	-0.510474	0.931838
C96	C	1.563651	-0.010474	1.431838
C97	C	1.063632	-0.510541	0.778122
C98	C	1.563632	-0.010541	1.278122
C99	C	1.063619	-0.510581	0.694788
C100	C	1.563619	-0.010581	1.194788
C101	C	1.063663	-0.510436	1.015177
C102	C	1.563663	-0.010436	1.515177
H103	H	0.494226	-0.633870	0.439871
H104	H	0.994226	-0.133870	0.939871
Cl105	Cl	1.169856	-0.663493	0.941734
Cl106	Cl	1.669856	-0.163493	1.441734
Cl107	Cl	1.169828	-0.663575	0.768266
Cl108	Cl	1.669828	-0.163575	1.268266
H109	H	0.978268	-0.387544	0.785243
H110	H	1.478268	0.112456	1.285243
H111	H	0.633627	-0.387525	0.269362
H112	H	1.133627	0.112475	0.769362
Cl113	Cl	0.650677	-0.663932	0.460663
Cl114	Cl	1.150677	-0.163932	0.960663
H115	H	0.978277	-0.387476	0.924685
H116	H	1.478277	0.112524	1.424685
H117	H	0.494185	-0.387548	0.269379
H118	H	0.994185	0.112452	0.769379
H119	H	1.185518	-0.917784	0.337706
H120	H	1.685518	-0.417784	0.837706
H121	H	1.019932	-1.100957	0.469351
H122	H	1.519932	-0.600957	0.969351
Cl123	Cl	1.026903	-0.902429	0.500260
Cl124	Cl	1.526903	-0.402429	1.000260
Cl125	Cl	0.955604	-0.901287	0.250606
Cl126	Cl	1.455604	-0.401287	0.750606
Cl127	Cl	0.918377	-1.119268	0.391610
Cl128	Cl	1.418377	-0.619268	0.891610
H129	H	1.156852	-0.919294	0.433284
H130	H	1.656852	-0.419294	0.933284
H131	H	0.985297	-1.099829	0.260576
H132	H	1.485297	-0.599829	0.760576
Cl133	Cl	0.917528	-0.903835	0.391154
Cl134	Cl	1.417528	-0.403835	0.891154
Cl135	Cl	1.103224	-1.116925	0.209582
Cl136	Cl	1.603224	-0.616925	0.709582
Cl137	Cl	1.104323	-0.903518	0.209682
Cl138	Cl	1.604323	-0.403518	0.709682
Cl139	Cl	1.171066	-1.118672	0.460343
Cl140	Cl	1.671066	-0.618672	0.960343
Cl141	Cl	1.206764	-1.115814	0.310414
Cl142	Cl	1.706764	-0.615814	0.810414
