data_functionalizedCrystal
_audit_creation_method	'MofGen! by Chris Wilmer'
_symmetry_space_group_name_H-M	'P1'
_symmetry_Int_Tables_number	1
_symmetry_cell_setting	triclinic
loop_
_symmetry_equiv_pos_as_xyz
  x,y,z
_cell_length_a	19.077142
_cell_length_b	13.897447
_cell_length_c	19.076919
_cell_angle_alpha	92.276881
_cell_angle_beta	90.074357
_cell_angle_gamma	87.716925
loop_
_atom_site_label
_atom_site_type_symbol
_atom_site_fract_x
_atom_site_fract_y
_atom_site_fract_z
Zn1	Zn	-1.058287	0.466675	0.440483
Zn2	Zn	-0.558287	0.966675	0.940483
Zn3	Zn	-1.062933	0.621769	0.322987
Zn4	Zn	-0.562933	1.121769	0.822987
Zn5	Zn	-0.945505	0.453751	0.318272
Zn6	Zn	-0.445505	0.953751	0.818272
Zn7	Zn	-0.940755	0.621184	0.435735
Zn8	Zn	-0.440755	1.121184	0.935735
O9	O	-1.001870	0.540845	0.379369
O10	O	-0.501870	1.040845	0.879369
O11	O	-1.157235	0.492902	0.428857
O12	O	-0.657235	0.992902	0.928857
O13	O	-1.051288	0.594317	0.224030
O14	O	-0.551288	1.094317	0.724030
O15	O	-0.960509	0.320487	0.334498
O16	O	-0.460509	0.820487	0.834498
O17	O	-1.160649	0.606849	0.342533
O18	O	-0.660649	1.106849	0.842533
O19	O	-1.043370	0.329983	0.424286
O20	O	-0.543370	0.829983	0.924286
O21	O	-0.965014	0.470875	0.220566
O22	O	-0.465014	0.970875	0.720566
O23	O	-0.846543	0.470308	0.329894
O24	O	-0.346543	0.970308	0.829894
O25	O	-0.952414	0.605853	0.534697
O26	O	-0.452414	1.105853	1.034697
O27	O	-0.843053	0.593321	0.416193
O28	O	-0.343053	1.093321	0.916193
O29	O	-1.038764	0.492336	0.538185
O30	O	-0.538764	0.992336	1.038185
O31	O	-1.046682	0.756670	0.337929
O32	O	-0.546682	1.256670	0.837929
O33	O	-0.956919	0.756240	0.420765
O34	O	-0.456919	1.256240	0.920765
C35	C	-0.819301	0.530349	0.372017
C36	C	-0.319301	1.030349	0.872017
C37	C	-0.741197	0.525883	0.368888
C38	C	-0.241197	1.025883	0.868888
C39	C	-1.001808	0.791455	0.379359
C40	C	-0.501808	1.291455	0.879359
C41	C	-1.001844	0.898673	0.379381
C42	C	-0.501844	1.398673	0.879381
C43	C	-0.994541	0.550471	0.562650
C44	C	-0.494541	1.050471	1.062650
C45	C	-0.991418	0.554573	0.640753
C46	C	-0.491418	1.054573	1.140753
C47	C	-0.702708	0.587920	0.412279
C48	C	-0.202708	1.087920	0.912279
C49	C	-0.629321	0.583712	0.409343
C50	C	-0.129321	1.083712	0.909343
C51	C	-0.594424	0.517470	0.363012
C52	C	-0.094424	1.017470	0.863012
C53	C	-0.632918	0.455426	0.319619
C54	C	-0.132918	0.955426	0.819619
C55	C	-0.706304	0.459631	0.322559
C56	C	-0.206304	0.959631	0.822559
C57	C	-0.375136	0.498012	0.349410
C58	C	0.124864	0.998012	0.849410
C59	C	-0.301745	0.493814	0.346472
C60	C	0.198255	0.993814	0.846472
C61	C	-0.298153	0.622099	0.436198
C62	C	0.201847	1.122099	0.936198
C63	C	-0.371540	0.626302	0.439131
C64	C	0.128460	1.126302	0.939131
C65	C	-0.410028	0.564255	0.395741
C66	C	0.089972	1.064255	0.895741
N67	N	-0.519410	0.513168	0.360008
N68	N	-0.019410	1.013168	0.860008
N69	N	-0.485040	0.568552	0.398749
N70	N	0.014960	1.068552	0.898749
C71	C	-0.185152	0.551377	0.386742
C72	C	0.314848	1.051377	0.886742
C73	C	-0.263256	0.555851	0.389863
C74	C	0.236744	1.055851	0.889863
C75	C	-1.001876	0.985745	0.379402
C76	C	-0.501876	1.485745	0.879402
C77	C	-1.001922	1.094981	0.379426
C78	C	-0.501922	1.594981	0.879426
C79	C	-1.001945	1.289258	0.379404
C80	C	-0.501945	1.789258	0.879404
C81	C	-1.001963	1.182047	0.379441
C82	C	-0.501963	1.682047	0.879441
C83	C	-1.009211	0.531189	0.196803
C84	C	-0.509211	1.031189	0.696803
C85	C	-1.012470	0.526824	0.118706
C86	C	-0.512470	1.026824	0.618706
C87	C	-1.034906	0.497400	0.679263
C88	C	-0.534906	0.997400	1.179263
C89	C	-1.031963	0.501250	0.752649
C90	C	-0.531963	1.001250	1.252649
C91	C	-0.985534	0.562278	0.787524
C92	C	-0.485534	1.062278	1.287524
C93	C	-0.942041	0.619453	0.749008
C94	C	-0.442041	1.119453	1.249008
C95	C	-0.944981	0.615597	0.675623
C96	C	-0.444981	1.115597	1.175623
C97	C	-0.971917	0.580143	1.006806
C98	C	-0.471917	1.080143	1.506806
C99	C	-0.968982	0.583996	1.080196
C100	C	-0.468982	1.083996	1.580196
C101	C	-1.058903	0.465791	1.083832
C102	C	-0.558903	0.965791	1.583832
C103	C	-1.061842	0.461945	1.010446
C104	C	-0.561842	0.961945	1.510446
C105	C	-1.018346	0.519116	0.971936
C106	C	-0.518346	1.019116	1.471936
N107	N	-0.982526	0.566217	0.862536
N108	N	-0.482526	1.066217	1.362536
N109	N	-1.021351	0.515172	0.896925
N110	N	-0.521351	1.015172	1.396925
H111	H	-0.731116	0.641865	0.450005
H112	H	-0.231116	1.141865	0.950005
H113	H	-0.737641	0.409109	0.287229
H114	H	-0.237641	0.909109	0.787229
F115	F	-1.084326	0.432450	0.642154
F116	F	-0.584326	0.932450	1.142154
F117	F	-0.925625	0.640990	0.965830
F118	F	-0.425625	1.140990	1.465830
F119	F	-0.257186	0.688131	0.482372
F120	F	0.242814	1.188131	0.982372
F121	F	-0.588361	0.649740	0.455526
F122	F	-0.088361	1.149740	0.955526
F123	F	-1.111258	0.396991	0.973335
F124	F	-0.611258	0.896991	1.473335
F125	F	-1.105189	0.404948	1.124821
F126	F	-0.605189	0.904948	1.624821
H127	H	-0.931172	0.633695	1.108588
H128	H	-0.431172	1.133695	1.608588
F129	F	-1.078274	0.440433	0.793633
F130	F	-0.578274	0.940433	1.293633
F131	F	-0.408675	0.696807	0.488442
F132	F	0.091325	1.196807	0.988442
F133	F	-0.898693	0.676446	0.634638
F134	F	-0.398693	1.176446	1.134638
F135	F	-0.264607	0.423312	0.297153
F136	F	0.235393	0.923312	0.797153
F137	F	-0.416089	0.431973	0.303232
F138	F	0.083911	0.931973	0.803232
F139	F	-0.595777	0.384920	0.270313
F140	F	-0.095777	0.884920	0.770313
H141	H	-0.904236	0.669140	0.777409
H142	H	-0.404236	1.169140	1.277409
