data_functionalizedCrystal
_audit_creation_method	'MofGen! by Chris Wilmer'
_symmetry_space_group_name_H-M	'P1'
_symmetry_Int_Tables_number	1
_symmetry_cell_setting	triclinic
loop_
_symmetry_equiv_pos_as_xyz
  x,y,z
_cell_length_a	18.050591
_cell_length_b	18.215405
_cell_length_c	18.215399
_cell_angle_alpha	89.969449
_cell_angle_beta	89.974300
_cell_angle_gamma	90.020891
loop_
_atom_site_label
_atom_site_type_symbol
_atom_site_fract_x
_atom_site_fract_y
_atom_site_fract_z
Zn1	Zn	1.135345	-0.293070	-0.416218
Zn2	Zn	1.635345	0.206930	0.083782
Zn3	Zn	1.135252	-0.416141	-0.293146
Zn4	Zn	1.635252	0.083859	0.206854
Zn5	Zn	1.011154	-0.293085	-0.293152
Zn6	Zn	1.511154	0.206915	0.206848
Zn7	Zn	1.011119	-0.416091	-0.416158
Zn8	Zn	1.511119	0.083909	0.083842
O9	O	1.073217	-0.354597	-0.354669
O10	O	1.573217	0.145403	0.145331
O11	O	1.239257	-0.309411	-0.399914
O12	O	1.739257	0.190589	0.100086
O13	O	1.118766	-0.399845	-0.190162
O14	O	1.618766	0.100155	0.309838
O15	O	1.027681	-0.190099	-0.309505
O16	O	1.527681	0.309901	0.190495
O17	O	1.239189	-0.399831	-0.309494
O18	O	1.739189	0.100169	0.190506
O19	O	1.118924	-0.190088	-0.399921
O20	O	1.618924	0.309912	0.100079
O21	O	1.027591	-0.309436	-0.190167
O22	O	1.527591	0.190564	0.309833
O23	O	0.907224	-0.309387	-0.309447
O24	O	1.407224	0.190613	0.190553
O25	O	1.027622	-0.399745	-0.519150
O26	O	1.527622	0.100255	-0.019150
O27	O	0.907199	-0.399759	-0.399819
O28	O	1.407199	0.100241	0.100181
O29	O	1.118890	-0.309362	-0.519194
O30	O	1.618890	0.190638	-0.019194
O31	O	1.118733	-0.519119	-0.309436
O32	O	1.618733	-0.019119	0.190564
O33	O	1.027533	-0.519082	-0.399813
O34	O	1.527533	-0.019082	0.100187
C35	C	1.073139	-0.545803	-0.354633
C36	C	1.573139	-0.045803	0.145367
C37	C	1.073173	-0.627602	-0.354643
C38	C	1.573173	-0.127602	0.145357
C39	C	0.880265	-0.354569	-0.354628
C40	C	1.380265	0.145431	0.145372
C41	C	0.797720	-0.354575	-0.354628
C42	C	1.297720	0.145425	0.145372
C43	C	1.120773	-0.815791	-0.307670
C44	C	1.620773	-0.315791	0.192330
C45	C	1.120806	-0.892650	-0.307688
C46	C	1.620806	-0.392650	0.192312
C47	C	1.025757	-0.892651	-0.401720
C48	C	1.525757	-0.392651	0.098280
C49	C	1.025728	-0.815794	-0.401705
C50	C	1.525728	-0.315794	0.098295
C51	C	1.073235	-0.777365	-0.354676
C52	C	1.573235	-0.277365	0.145324
C53	C	1.073297	-0.931082	-0.354709
C54	C	1.573297	-0.431082	0.145291
C55	C	1.073333	-1.014415	-0.354728
C56	C	1.573333	-0.514415	0.145272
C57	C	1.073201	-0.694027	-0.354657
C58	C	1.573201	-0.194027	0.145343
C59	C	0.598261	-0.305374	-0.305597
C60	C	1.098261	0.194626	0.194403
C61	C	0.548844	-0.372499	-0.287483
C62	C	1.048844	0.127501	0.212517
C63	C	0.646589	-0.354598	-0.354661
C64	C	1.146589	0.145402	0.145339
C65	C	0.548925	-0.287496	-0.372773
C66	C	1.048925	0.212504	0.127227
C67	C	0.500604	-0.354613	-0.354692
C68	C	1.000604	0.145387	0.145308
C69	C	0.598259	-0.421758	-0.336512
C70	C	1.098259	0.078242	0.163488
C71	C	0.598344	-0.336710	-0.421833
C72	C	1.098344	0.163290	0.078167
C73	C	0.548949	-0.403881	-0.403745
C74	C	1.048949	0.096119	0.096255
C75	C	0.730687	-0.354588	-0.354642
C76	C	1.230687	0.145412	0.145358
C77	C	0.416508	-0.354631	-0.354712
C78	C	0.916508	0.145369	0.145288
C79	C	1.266923	-0.354625	-0.354710
C80	C	1.766923	0.145375	0.145290
C81	C	1.349469	-0.354637	-0.354727
C82	C	1.849469	0.145363	0.145273
C83	C	1.073263	-0.354546	-0.546622
C84	C	1.573263	0.145454	-0.046622
C85	C	1.073282	-0.354524	-0.628420
C86	C	1.573282	0.145476	-0.128420
C87	C	1.073316	-0.162644	-0.354720
C88	C	1.573316	0.337356	0.145280
C89	C	1.073359	-0.080845	-0.354742
C90	C	1.573359	0.419155	0.145258
C91	C	1.120822	-0.307418	-0.816639
C92	C	1.620822	0.192582	-0.316639
C93	C	1.120831	-0.307397	-0.893497
C94	C	1.620831	0.192603	-0.393497
C95	C	1.025794	-0.401517	-0.893440
C96	C	1.525794	0.098483	-0.393440
C97	C	1.025782	-0.401534	-0.816583
C98	C	1.525782	0.098466	-0.316583
C99	C	1.073300	-0.354486	-0.778184
C100	C	1.573300	0.145514	-0.278184
C101	C	1.073321	-0.354447	-0.931900
C102	C	1.573321	0.145553	-0.431900
C103	C	1.073331	-0.354424	-1.015234
C104	C	1.573331	0.145576	-0.515234
C105	C	1.073290	-0.354508	-0.694845
C106	C	1.573290	0.145492	-0.194845
C107	C	1.073215	-0.354594	-0.163462
C108	C	1.573215	0.145406	0.336538
C109	C	1.073340	-0.354409	-0.081664
C110	C	1.573340	0.145591	0.418336
H111	H	1.159457	-0.784504	-0.269377
H112	H	1.659457	-0.284504	0.230623
H113	H	1.159517	-0.923932	-0.269412
H114	H	1.659517	-0.423932	0.230588
O115	O	0.979538	-0.447155	-0.779191
O116	O	1.479538	0.052845	-0.279191
C117	C	0.879286	-0.457062	-0.692348
C118	C	1.379286	0.042938	-0.192348
C119	C	0.931597	-0.405318	-0.734661
C120	C	1.431597	0.094682	-0.234661
H121	H	0.840523	-0.423259	-0.656324
H122	H	1.340523	0.076741	-0.156324
H123	H	0.845275	-0.490677	-0.732961
H124	H	1.345275	0.009323	-0.232961
H125	H	0.913374	-0.495567	-0.656395
H126	H	1.413374	0.004433	-0.156395
H127	H	0.897566	-0.366769	-0.770615
H128	H	1.397566	0.133231	-0.270615
H129	H	0.965610	-0.371755	-0.694009
H130	H	1.465610	0.128245	-0.194009
H131	H	0.987078	-0.923948	-0.440008
H132	H	1.487078	-0.423948	0.059992
O133	O	0.979477	-0.778576	-0.447393
O134	O	1.479477	-0.278576	0.052607
C135	C	0.885238	-0.786681	-0.540695
C136	C	1.385238	-0.286681	-0.040695
C137	C	0.937560	-0.828921	-0.488980
C138	C	1.437560	-0.328921	0.011020
H139	H	0.851345	-0.827367	-0.574342
H140	H	1.351345	-0.327367	-0.074342
H141	H	0.846364	-0.750770	-0.506895
H142	H	1.346364	-0.250770	-0.006895
H143	H	0.919312	-0.750627	-0.579171
H144	H	1.419312	-0.250627	-0.079171
H145	H	0.903546	-0.865015	-0.450493
H146	H	1.403546	-0.365015	0.049507
H147	H	0.976435	-0.864786	-0.522825
H148	H	1.476435	-0.364786	-0.022825
O149	O	0.623873	-0.489536	-0.318188
O150	O	1.123873	0.010464	0.181812
C151	C	0.592624	-0.613706	-0.284555
C152	C	1.092624	-0.113706	0.215445
C153	C	0.563515	-0.536991	-0.305317
C154	C	1.063515	-0.036991	0.194683
H155	H	0.543840	-0.652090	-0.274128
H156	H	1.043840	-0.152090	0.225872
H157	H	0.627818	-0.636266	-0.331370
H158	H	1.127818	-0.136266	0.168630
H159	H	0.627774	-0.609535	-0.232743
H160	H	1.127774	-0.109535	0.267257
H161	H	0.528334	-0.541098	-0.357110
H162	H	1.028334	-0.041098	0.142890
H163	H	0.528362	-0.514458	-0.258460
H164	H	1.028362	-0.014458	0.241540
O165	O	0.624062	-0.255849	-0.255948
O166	O	1.124062	0.244151	0.244052
C167	C	0.628068	-0.218762	-0.129049
C168	C	1.128068	0.281238	0.370951
C169	C	0.598814	-0.274906	-0.185196
C170	C	1.098814	0.225094	0.314804
H171	H	0.607654	-0.234141	-0.071835
H172	H	1.107654	0.265859	0.428165
H173	H	0.691222	-0.218844	-0.129805
H174	H	1.191222	0.281156	0.370195
H175	H	0.606942	-0.161698	-0.143954
H176	H	1.106942	0.338302	0.356046
H177	H	0.619885	-0.331997	-0.170329
H178	H	1.119885	0.168003	0.329671
H179	H	0.535662	-0.274760	-0.184429
H180	H	1.035662	0.225240	0.315571
H181	H	0.527102	-0.387640	-0.230690
H182	H	1.027102	0.112360	0.269310
H183	H	0.527434	-0.445563	-0.445250
H184	H	1.027434	0.054437	0.054750
H185	H	1.159513	-0.269106	-0.785376
H186	H	1.659513	0.230894	-0.285376
O187	O	1.166923	-0.261697	-0.930965
O188	O	1.666923	0.238303	-0.430965
C189	C	1.209084	-0.219976	-1.049392
C190	C	1.709084	0.280024	-0.549392
C191	C	1.156837	-0.271761	-1.007052
C192	C	1.656837	0.228239	-0.507052
H193	H	1.200960	-0.228105	-1.110915
H194	H	1.700960	0.271895	-0.610915
H195	H	1.196065	-0.160622	-1.034344
H196	H	1.696065	0.339378	-0.534344
H197	H	1.268952	-0.232899	-1.034253
H198	H	1.768952	0.267101	-0.534253
H199	H	1.096952	-0.258904	-1.022167
H200	H	1.596952	0.241096	-0.522167
H201	H	1.169920	-0.331099	-1.022103
H202	H	1.669920	0.168901	-0.522103
O203	O	0.624274	-0.318497	-0.489544
O204	O	1.124274	0.181503	0.010456
C205	C	0.628565	-0.227159	-0.585196
C206	C	1.128565	0.272841	-0.085196
C207	C	0.599163	-0.247696	-0.508501
C208	C	1.099163	0.252304	-0.008501
H209	H	0.608262	-0.169922	-0.600553
H210	H	1.108262	0.330078	-0.100553
H211	H	0.691717	-0.227808	-0.584674
H212	H	1.191717	0.272192	-0.084674
H213	H	0.607441	-0.268575	-0.627166
H214	H	1.107441	0.231425	-0.127166
H215	H	0.620233	-0.206300	-0.466489
H216	H	1.120233	0.293700	0.033511
H217	H	0.536012	-0.247069	-0.509085
H218	H	1.036012	0.252931	-0.009085
H219	H	0.987108	-0.439824	-0.924714
H220	H	1.487108	0.060176	-0.424714
O221	O	0.523159	-0.219736	-0.390953
O222	O	1.023159	0.280264	0.109047
C223	C	0.518957	-0.091275	-0.359712
C224	C	1.018957	0.408725	0.140288
C225	C	0.548198	-0.167970	-0.339057
C226	C	1.048198	0.332030	0.160943
H227	H	0.539177	-0.049404	-0.317757
H228	H	1.039177	0.450596	0.182243
H229	H	0.540189	-0.075556	-0.416542
H230	H	1.040189	0.424444	0.083458
H231	H	0.455807	-0.092101	-0.360105
H232	H	0.955807	0.407899	0.139895
H233	H	0.611346	-0.167203	-0.338622
H234	H	1.111346	0.332797	0.161378
H235	H	0.526910	-0.183659	-0.282241
H236	H	1.026910	0.316341	0.217759
