data_functionalizedCrystal
_audit_creation_method	'MofGen! by Chris Wilmer'
_symmetry_space_group_name_H-M	'P1'
_symmetry_Int_Tables_number	1
_symmetry_cell_setting	triclinic
loop_
_symmetry_equiv_pos_as_xyz
  x,y,z
_cell_length_a	11.169417
_cell_length_b	18.101395
_cell_length_c	11.169406
_cell_angle_alpha	89.949046
_cell_angle_beta	89.969003
_cell_angle_gamma	90.031983
loop_
_atom_site_label
_atom_site_type_symbol
_atom_site_fract_x
_atom_site_fract_y
_atom_site_fract_z
Zn1	Zn	1.834922	-0.294641	-0.678515
Zn2	Zn	2.334922	0.205359	-0.178515
Zn3	Zn	1.834699	-0.418540	-0.477820
Zn4	Zn	2.334699	0.081460	0.022180
Zn5	Zn	1.634168	-0.294719	-0.477850
Zn6	Zn	2.134168	0.205281	0.022150
Zn7	Zn	1.634142	-0.418447	-0.678465
Zn8	Zn	2.134142	0.081553	-0.178465
O9	O	1.734483	-0.356587	-0.578163
O10	O	2.234483	0.143413	-0.078163
O11	O	2.002842	-0.311082	-0.651901
O12	O	2.502842	0.188918	-0.151901
O13	O	1.808016	-0.402187	-0.309874
O14	O	2.308016	0.097813	0.190126
O15	O	1.660903	-0.191075	-0.504501
O16	O	2.160903	0.308925	-0.004501
O17	O	2.002678	-0.402111	-0.504452
O18	O	2.502678	0.097889	-0.004452
O19	O	1.808395	-0.191018	-0.651930
O20	O	2.308395	0.308982	-0.151930
O21	O	1.660687	-0.311216	-0.309896
O22	O	2.160687	0.188784	0.190104
O23	O	1.466215	-0.311125	-0.504453
O24	O	1.966215	0.188875	-0.004453
O25	O	1.660858	-0.401952	-0.846422
O26	O	2.160858	0.098048	-0.346422
O27	O	1.466196	-0.402028	-0.651845
O28	O	1.966196	0.097972	-0.151845
O29	O	1.808370	-0.310992	-0.846459
O30	O	2.308370	0.189008	-0.346459
O31	O	1.807991	-0.522161	-0.504403
O32	O	2.307991	-0.022161	-0.004403
O33	O	1.660642	-0.522092	-0.651816
O34	O	2.160642	-0.022092	-0.151816
C35	C	1.422658	-0.356575	-0.578147
C36	C	1.922658	0.143425	-0.078147
C37	C	1.289258	-0.356588	-0.578169
C38	C	1.789258	0.143412	-0.078169
C39	C	1.734322	-0.548997	-0.578127
C40	C	2.234322	-0.048997	-0.078127
C41	C	1.734363	-0.631311	-0.578152
C42	C	2.234363	-0.131311	-0.078152
C43	C	1.734627	-0.930402	-0.578217
C44	C	2.234627	-0.430402	-0.078217
C45	C	1.642134	-0.899065	-0.671195
C46	C	2.142134	-0.399065	-0.171195
C47	C	1.641695	-0.813447	-0.670905
C48	C	2.141695	-0.313447	-0.170905
C49	C	1.734496	-0.782020	-0.578186
C50	C	2.234496	-0.282020	-0.078186
C51	C	1.700220	-0.813203	-0.451699
C52	C	2.200220	-0.313203	0.048301
C53	C	1.699623	-0.898849	-0.452256
C54	C	2.199623	-0.398849	0.047744
C55	C	1.861598	-0.898736	-0.610612
C56	C	2.361598	-0.398736	-0.110612
C57	C	1.860852	-0.813085	-0.613386
C58	C	2.360852	-0.313085	-0.113386
C59	C	1.734424	-0.698160	-0.578161
C60	C	2.234424	-0.198160	-0.078161
C61	C	1.734696	-1.014262	-0.578234
C62	C	2.234696	-0.514262	-0.078234
C63	C	2.047525	-0.356598	-0.578179
C64	C	2.547525	0.143402	-0.078179
C65	C	2.180925	-0.356603	-0.578186
C66	C	2.680925	0.143397	-0.078186
C67	C	1.734636	-0.356453	-0.891205
C68	C	2.234636	0.143547	-0.391205
C69	C	1.734701	-0.356396	-1.024606
C70	C	2.234701	0.143604	-0.524606
C71	C	1.734677	-0.163425	-0.578224
C72	C	2.234677	0.336575	-0.078224
C73	C	1.734759	-0.081110	-0.578251
C74	C	2.234759	0.418890	-0.078251
C75	C	1.734399	-0.356666	-0.266338
C76	C	2.234399	0.143334	0.233662
C77	C	1.734566	-0.356515	-0.132938
C78	C	2.234566	0.143485	0.367062
H79	H	1.663143	-0.792358	-0.764694
H80	H	2.163143	-0.292358	-0.264694
H81	H	1.933412	-0.791687	-0.550601
H82	H	2.433412	-0.291687	-0.050601
H83	H	1.547581	-0.793030	-0.649447
H84	H	2.047581	-0.293030	-0.149447
C85	C	1.954695	-0.926120	-0.519132
C86	C	2.454695	-0.426120	-0.019132
N87	N	2.024806	-0.946750	-0.450227
N88	N	2.524806	-0.446750	0.049773
C89	C	1.574231	-0.925938	-0.415190
C90	C	2.074231	-0.425938	0.084810
N91	N	1.479780	-0.946338	-0.387276
N92	N	1.979780	-0.446338	0.112724
H93	H	1.663371	-0.919588	-0.765288
H94	H	2.163371	-0.419588	-0.265288
C95	C	1.515759	-0.928225	-0.642564
C96	C	2.015759	-0.428225	-0.142564
N97	N	1.420574	-0.950187	-0.620991
N98	N	1.920574	-0.450187	-0.120991
H99	H	1.764067	-0.919583	-0.380617
H100	H	2.264067	-0.419583	0.119383
H101	H	1.765466	-0.792851	-0.380534
H102	H	2.265466	-0.292851	0.119466
C103	C	1.576151	-0.784333	-0.413964
C104	C	2.076151	-0.284333	0.086036
N105	N	1.482698	-0.762589	-0.385549
N106	N	1.982698	-0.262589	0.114451
C107	C	1.903803	-0.927810	-0.733097
C108	C	2.403803	-0.427810	-0.233097
N109	N	1.935578	-0.949708	-0.825359
N110	N	2.435578	-0.449708	-0.325359
H111	H	1.886699	-0.792698	-0.706473
H112	H	2.386699	-0.292698	-0.206473
