data_functionalizedCrystal
_audit_creation_method	'MofGen! by Chris Wilmer'
_symmetry_space_group_name_H-M	'P1'
_symmetry_Int_Tables_number	1
_symmetry_cell_setting	triclinic
loop_
_symmetry_equiv_pos_as_xyz
  x,y,z
_cell_length_a	16.793024
_cell_length_b	16.793047
_cell_length_c	33.586455
_cell_angle_alpha	113.253857
_cell_angle_beta	66.219990
_cell_angle_gamma	112.758327
loop_
_atom_site_label
_atom_site_type_symbol
_atom_site_fract_x
_atom_site_fract_y
_atom_site_fract_z
O1	O	0.005016	-0.570216	-0.583573
O2	O	-0.034529	-0.474528	-0.453458
O3	O	0.114723	-0.474535	-0.528082
O4	O	-0.144235	-0.570209	-0.508949
O5	O	0.108729	-0.346329	-0.530229
O6	O	-0.040523	-0.346322	-0.455605
O7	O	-0.000977	-0.442010	-0.585721
Cu8	Cu	-0.021297	-0.382459	-0.520859
Cu9	Cu	-0.014209	-0.534079	-0.518320
O10	O	-0.150229	-0.442003	-0.511097
C11	C	0.005100	-0.790970	-0.238461
C12	C	0.009223	-0.693065	-0.217557
C13	C	0.003804	-0.645758	-0.241627
C14	C	-0.075059	-0.538459	-0.266316
C15	C	0.049838	-0.422849	-0.250165
C16	C	-0.040584	-0.395375	-0.435637
C17	C	-0.044693	-0.353446	-0.386631
C18	C	-0.039275	-0.401741	-0.363054
C19	C	-0.040566	-0.125547	-0.300731
C20	C	-0.044689	-0.223451	-0.321635
C21	C	-0.039266	-0.270752	-0.297563
C22	C	0.039597	-0.378051	-0.272874
C23	C	-0.085304	-0.493667	-0.289026
C24	C	0.005118	-0.521142	-0.103554
C25	C	0.009231	-0.563064	-0.152559
C26	C	0.003809	-0.514775	-0.176138
C27	C	0.010758	-0.652581	-0.172822
C28	C	0.001010	-0.556371	-0.220792
C29	C	-0.008251	-0.506059	-0.245823
C30	C	-0.046224	-0.263935	-0.366370
C31	C	-0.036476	-0.360146	-0.318399
C32	C	-0.027211	-0.410451	-0.293367
C33	C	0.815184	-0.521162	-0.508596
C34	C	0.415541	-0.125553	-0.528781
C35	C	0.375032	-0.223457	-0.531493
C36	C	0.423813	-0.270761	-0.529101
C37	C	0.149318	-0.395376	-0.530584
C38	C	0.246774	-0.353455	-0.532364
C39	C	0.294574	-0.401748	-0.529976
C40	C	0.548961	-0.790984	-0.510398
C41	C	0.286104	-0.263940	-0.532530
C42	C	0.383336	-0.360149	-0.528302
C43	C	0.432207	-0.407971	-0.525810
C44	C	0.392316	-0.497392	-0.524993
C45	C	0.303554	-0.538991	-0.526667
C46	C	0.254683	-0.491169	-0.529159
C47	C	0.263666	-0.628421	-0.525851
C48	C	0.312537	-0.676243	-0.523359
C49	C	0.401299	-0.634644	-0.521685
C50	C	0.441190	-0.545223	-0.522502
C51	C	0.529952	-0.503624	-0.520828
C52	C	0.578823	-0.551446	-0.518336
C53	C	0.538939	-0.640864	-0.517520
C54	C	0.450177	-0.682463	-0.519194
C55	C	0.587810	-0.688687	-0.515028
C56	C	0.676572	-0.647088	-0.513354
C57	C	0.716463	-0.557666	-0.514172
C58	C	0.667586	-0.509847	-0.516662
C59	C	0.569840	-0.414195	-0.521644
C60	C	0.658602	-0.372596	-0.519970
C61	C	0.707476	-0.420426	-0.517480
C62	C	0.698493	-0.283174	-0.520788
C63	C	0.649622	-0.235352	-0.523280
C64	C	0.560860	-0.276951	-0.524954
C65	C	0.520969	-0.366372	-0.524136
C66	C	0.511989	-0.229129	-0.527446
C67	C	-0.040530	-0.395407	-0.935652
C68	C	0.005063	-0.791004	-0.738448
C69	C	0.009186	-0.693099	-0.717543
C70	C	0.003779	-0.645796	-0.741620
C71	C	0.005077	-0.521171	-0.603544
C72	C	0.009198	-0.563096	-0.652550
C73	C	0.003786	-0.514804	-0.676131
C74	C	-0.040516	-0.125574	-0.800747
C75	C	0.010719	-0.652613	-0.672809
C76	C	0.000994	-0.556406	-0.720789
C77	C	-0.004621	-0.508585	-0.744908
C78	C	-0.007444	-0.419162	-0.724369
C79	C	-0.004651	-0.377560	-0.679711
C80	C	0.000964	-0.425381	-0.655592
C81	C	-0.007471	-0.288129	-0.659174
C82	C	-0.013086	-0.240308	-0.683293
C83	C	-0.015878	-0.281910	-0.727951
C84	C	-0.013056	-0.371333	-0.748490
C85	C	-0.015848	-0.412935	-0.793148
C86	C	-0.021463	-0.365114	-0.817267
C87	C	-0.024282	-0.275694	-0.796731
C88	C	-0.021490	-0.234092	-0.752073
C89	C	-0.029897	-0.227873	-0.820850
C90	C	-0.032690	-0.269476	-0.865508
C91	C	-0.029867	-0.358899	-0.886047
C92	C	-0.024255	-0.406717	-0.861925
C93	C	-0.013028	-0.502367	-0.813685
C94	C	-0.015821	-0.543969	-0.858343
C95	C	-0.021433	-0.496140	-0.882464
C96	C	-0.012998	-0.633392	-0.878882
C97	C	-0.007383	-0.681213	-0.854763
C98	C	-0.004591	-0.639611	-0.810105
C99	C	-0.007414	-0.550188	-0.789566
C100	C	0.001024	-0.687432	-0.785986
O101	O	-0.000965	0.173549	-0.277957
O102	O	-0.040516	-0.085616	-0.325254
O103	O	0.108737	0.059592	-0.327284
O104	O	-0.150219	0.028341	-0.275927
O105	O	0.114753	0.055151	-0.263265
O106	O	-0.034500	-0.090057	-0.261234
O107	O	0.005051	0.169108	-0.213937
Cu108	Cu	-0.014175	0.039120	-0.231740
Cu109	Cu	-0.021290	0.044372	-0.307451
O110	O	-0.144202	0.023900	-0.211907
O111	O	-0.034458	-0.474571	0.046517
O112	O	0.005076	-0.570190	-0.083599
O113	O	-0.144170	-0.570237	-0.008972
O114	O	0.114787	-0.474523	-0.028110
O115	O	-0.150200	-0.442024	-0.011093
O116	O	-0.000954	-0.441976	-0.085720
O117	O	-0.040488	-0.346357	0.044396
Cu118	Cu	-0.021272	-0.382460	-0.020856
Cu119	Cu	-0.014141	-0.534087	-0.018347
O120	O	0.108757	-0.346309	-0.030231
C121	C	-0.850734	0.086244	-0.289716
C122	C	-0.753280	0.087165	-0.312001
C123	C	-0.705462	0.081107	-0.288506
C124	C	-0.599592	0.000085	-0.264184
C125	C	-0.481080	0.121287	-0.283645
C126	C	-0.450996	0.035117	-0.097351
C127	C	-0.410501	0.028587	-0.146852
C128	C	-0.459292	0.034683	-0.169840
C129	C	-0.184802	0.024283	-0.235878
C130	C	-0.282257	0.023363	-0.213592
C131	C	-0.330068	0.029423	-0.237088
C132	C	-0.435938	0.110445	-0.261411
C133	C	-0.554456	-0.010759	-0.241948
C134	C	-0.584541	0.075410	-0.428242
C135	C	-0.625029	0.081943	-0.378743
C136	C	-0.576244	0.075844	-0.355753
C137	C	-0.713963	0.086424	-0.357292
C138	C	-0.616708	0.075351	-0.310510
C139	C	-0.565963	0.065400	-0.286043
C140	C	-0.321573	0.024104	-0.168302
C141	C	-0.418828	0.035176	-0.215083
C142	C	-0.469568	0.045131	-0.239552
O143	O	0.585213	0.169090	-0.504004
O144	O	0.494056	-0.090076	-0.525516
O145	O	0.488081	0.055124	-0.449918
O146	O	0.591189	0.023889	-0.579602
O147	O	0.359978	0.059584	-0.452885
O148	O	0.365953	-0.085616	-0.528483
O149	O	0.457110	0.173550	-0.506971
Cu150	Cu	0.399835	0.044374	-0.517998
Cu151	Cu	0.551332	0.039099	-0.514489
O152	O	0.463086	0.028349	-0.582569
C153	C	0.815354	-0.521094	-0.008709
C154	C	0.717898	-0.563028	-0.006927
C155	C	0.670072	-0.514739	-0.009298
C156	C	0.564182	-0.463204	-0.048354
C157	C	0.445681	-0.498945	0.013847
C158	C	0.415547	-0.125494	-0.028771
C159	C	0.375059	-0.223405	-0.031498
C160	C	0.423859	-0.270708	-0.029121
C161	C	0.149365	-0.395355	-0.030599
C162	C	0.246820	-0.353421	-0.032381
C163	C	0.294640	-0.401713	-0.030008
C164	C	0.400530	-0.453248	0.009048
C165	C	0.519038	-0.417504	-0.053155
C166	C	0.549171	-0.790955	-0.010537
C167	C	0.589653	-0.693047	-0.007809
C168	C	0.540859	-0.645741	-0.010187
C169	C	0.678588	-0.652551	-0.006775
C170	C	0.581317	-0.556344	-0.010973
C171	C	0.530562	-0.506029	-0.015250
C172	C	0.286131	-0.263897	-0.032533
C173	C	0.383402	-0.360104	-0.028335
C174	C	0.434150	-0.410423	-0.024057
O175	O	-0.620614	0.089309	0.052274
O176	O	-0.529507	0.043784	-0.078544
O177	O	-0.523494	0.194833	-0.006033
O178	O	-0.626628	-0.061740	-0.020236
O179	O	-0.395386	0.185419	-0.005549
O180	O	-0.401400	0.034370	-0.078059
O181	O	-0.492507	0.079895	0.052758
Cu182	Cu	-0.435256	0.056273	-0.012607
Cu183	Cu	-0.586758	0.067406	-0.013179
O184	O	-0.498521	-0.071154	-0.019752
C185	C	-0.437537	0.048335	0.402491
C186	C	-0.397043	0.041789	0.352989
C187	C	-0.445822	0.047883	0.329994
C188	C	-0.496646	0.126653	0.277022
C189	C	-0.465894	-0.000633	0.218811
C190	C	-0.837226	0.099430	0.210091
C191	C	-0.739773	0.100339	0.187806
C192	C	-0.691967	0.094287	0.211308
C193	C	-0.571027	0.088563	0.071568
C194	C	-0.611521	0.095108	0.121070
C195	C	-0.562739	0.089011	0.144061
C196	C	-0.511915	0.010241	0.197033
C197	C	-0.542670	0.137531	0.255247
C198	C	-0.171338	0.037467	0.263967
C199	C	-0.268788	0.036555	0.286249
C200	C	-0.316597	0.042611	0.262750
C201	C	-0.308112	0.037305	0.331542
C202	C	-0.405351	0.048369	0.284750
C203	C	-0.456092	0.058317	0.260279
C204	C	-0.700452	0.099593	0.142516
C205	C	-0.603213	0.088528	0.189308
C206	C	-0.552469	0.078578	0.213776
O207	O	-0.040608	-1.085661	-0.825229
O208	O	-0.001018	-0.826491	-0.777938
O209	O	-0.150287	-0.971682	-0.775894
O210	O	0.108661	-0.940470	-0.827272
O211	O	-0.144253	-0.976123	-0.711878
O212	O	0.005016	-0.830932	-0.713922
O213	O	-0.034575	-1.090102	-0.761213
Cu214	Cu	-0.014228	-0.960923	-0.731722
Cu215	Cu	-0.021364	-0.955670	-0.807428
O216	O	0.114695	-0.944911	-0.763256
C217	C	-0.036587	-0.225633	-0.248813
C218	C	-0.115212	-0.197561	-0.222306
C219	C	-0.112787	-0.156006	-0.177394
H220	H	0.014756	-0.174936	-0.247781
H221	H	-0.032968	-0.267195	-0.237357
H222	H	-0.118822	-0.156002	-0.233759
H223	H	-0.166568	-0.248241	-0.223325
H224	H	-0.109167	-0.197567	-0.165938
H225	H	-0.061440	-0.105312	-0.176366
H226	H	-0.166135	-0.136961	-0.159403
H227	H	-0.518447	0.052455	0.347905
H228	H	-0.047834	-0.232081	-0.882358
H229	H	-0.738384	0.080845	-0.251490
H230	H	0.107243	-0.392097	-0.234140
H231	H	0.088092	-0.309407	-0.275738
H232	H	0.780052	-0.386407	-0.516111
H233	H	0.468233	-0.679598	-0.011487
H234	H	0.550886	-0.383867	-0.081621
C235	C	0.166972	-0.673803	-0.527785
C236	C	0.160714	-0.673353	-0.568019
C237	C	0.071660	-0.715179	-0.569827
H238	H	0.127638	-0.642117	-0.502544
H239	H	0.150147	-0.734178	-0.526968
H240	H	0.177528	-0.612989	-0.568832
H241	H	0.200029	-0.705044	-0.593267
H242	H	0.054835	-0.775554	-0.569011
H243	H	0.032333	-0.683488	-0.544585
H244	H	0.067404	-0.714887	-0.597127
C245	C	0.268908	-0.773737	-0.522499
C246	C	0.180359	-0.800049	-0.524518
C247	C	0.140146	-0.889858	-0.523733
H248	H	0.267882	-0.779553	-0.495277
H249	H	0.302718	-0.811000	-0.547826
H250	H	0.146558	-0.762797	-0.499194
H251	H	0.181359	-0.794255	-0.551739
H252	H	0.173955	-0.927121	-0.549060
H253	H	0.139126	-0.895665	-0.496510
H254	H	0.080064	-0.907724	-0.525107
C255	C	-0.286202	0.029587	-0.286472
C256	C	-0.260949	-0.050407	-0.312252
C257	C	-0.220553	-0.050303	-0.357748
H258	H	-0.234160	0.079471	-0.288915
H259	H	-0.327986	0.034022	-0.297407
H260	H	-0.219168	-0.054833	-0.301320
H261	H	-0.312975	-0.100305	-0.309823
H262	H	-0.262337	-0.045868	-0.368683
H263	H	-0.168514	-0.000415	-0.360186
H264	H	-0.203421	-0.104581	-0.375246
C265	C	0.014084	-0.705805	-0.146212
C266	C	-0.062113	-0.708442	-0.108052
C267	C	-0.059088	-0.757475	-0.083531
H268	H	0.067191	-0.677680	-0.136789
H269	H	0.014700	-0.765416	-0.164888
H270	H	-0.062720	-0.648843	-0.089379
H271	H	-0.115231	-0.736575	-0.117462
H272	H	-0.058472	-0.817085	-0.102207
H273	H	-0.005979	-0.729344	-0.074111
H274	H	-0.110790	-0.759277	-0.057639
C275	C	0.722032	-0.696924	-0.503485
C276	C	0.672799	-0.712788	-0.461107
C277	C	0.714647	-0.758674	-0.451987
H278	H	0.781807	-0.661500	-0.503245
H279	H	0.724025	-0.752726	-0.526283
H280	H	0.670815	-0.656994	-0.438314
H281	H	0.613026	-0.748220	-0.461336
H282	H	0.716641	-0.814476	-0.474786
H283	H	0.774421	-0.723245	-0.451750
H284	H	0.681245	-0.769451	-0.423236
H285	H	0.417564	-0.755580	-0.518528
C286	C	-0.423836	-0.078948	0.197814
C287	C	-0.461017	-0.133111	0.227153
C288	C	-0.422303	-0.205268	0.207824
H289	H	-0.360367	-0.056504	0.192967
H290	H	-0.435839	-0.113610	0.169647
H291	H	-0.449007	-0.098455	0.255312
H292	H	-0.524482	-0.155577	0.232002
H293	H	-0.434306	-0.239930	0.179658
H294	H	-0.358835	-0.182816	0.202979
H295	H	-0.447530	-0.242031	0.227726
H296	H	-0.037138	-0.474881	-0.380005
H297	H	0.544602	-0.156012	-0.528109
C298	C	-0.015970	-0.142765	-0.660910
C299	C	0.062616	-0.091503	-0.647954
C300	C	0.059993	-0.001641	-0.627339
H301	H	-0.067330	-0.139240	-0.634879
H302	H	-0.019680	-0.120100	-0.681751
H303	H	0.066317	-0.114161	-0.627114
H304	H	0.113988	-0.095001	-0.673976
H305	H	0.056283	0.021024	-0.648180
H306	H	0.008629	0.001875	-0.601310
H307	H	0.113315	0.033153	-0.618550
H308	H	-0.490116	0.084434	0.126151
C309	C	0.001090	-0.690952	-0.290369
C310	C	0.079696	-0.719060	-0.316870
C311	C	0.077231	-0.760704	-0.361773
H312	H	-0.002530	-0.649458	-0.301861
H313	H	-0.050283	-0.741644	-0.291360
H314	H	0.131055	-0.668375	-0.315881
H315	H	0.083332	-0.760564	-0.305392
H316	H	0.025858	-0.811395	-0.362764
H317	H	0.073609	-0.719204	-0.373260
H318	H	0.130560	-0.779787	-0.379758
H319	H	0.001660	-0.441639	-0.159184
H320	H	0.771070	-0.249160	-0.519423
H321	H	0.496488	-0.236853	-0.027824
C322	C	-0.767656	0.090830	-0.383194
C323	C	-0.724185	0.167670	-0.398617
C324	C	-0.773615	0.171760	-0.422482
H325	H	-0.826724	0.093653	-0.363743
H326	H	-0.771593	0.038658	-0.408380
H327	H	-0.720259	0.219829	-0.373434
H328	H	-0.665121	0.164864	-0.418074
H329	H	-0.777552	0.119589	-0.447668
H330	H	-0.832681	0.174581	-0.403028
H331	H	-0.744123	0.223891	-0.432953
C332	C	0.714004	-0.417164	-0.009979
C333	C	0.739295	-0.366320	0.029668
C334	C	0.779770	-0.276429	0.029062
H335	H	0.672281	-0.394088	-0.011622
H336	H	0.766042	-0.413753	-0.035640
H337	H	0.687264	-0.369726	0.055322
H338	H	0.781027	-0.389368	0.031320
H339	H	0.831808	-0.273018	0.003401
H340	H	0.738042	-0.253362	0.027417
H341	H	0.796942	-0.241922	0.055960
C342	C	-0.015884	-0.678808	-0.927591
C343	C	0.062704	-0.706937	-0.954117
C344	C	0.060070	-0.748786	-0.998987
H345	H	-0.019601	-0.637428	-0.939121
H346	H	-0.067259	-0.729510	-0.928504
H347	H	0.114065	-0.656241	-0.953206
H348	H	0.066437	-0.748326	-0.942601
H349	H	0.008695	-0.799488	-0.999900
H350	H	0.056350	-0.707401	-1.010513
H351	H	0.113386	-0.767884	-1.016990
H352	H	-0.489994	0.175891	0.311254
H353	H	-0.048864	-0.224020	-0.386283
C354	C	-0.584748	0.215850	0.276371
C355	C	-0.566940	0.266719	0.317871
C356	C	-0.605671	0.338884	0.337337
H357	H	-0.648230	0.193418	0.281261
H358	H	-0.559604	0.252739	0.256533
H359	H	-0.592087	0.229836	0.337704
H360	H	-0.503465	0.289173	0.312993
H361	H	-0.580526	0.375774	0.317500
H362	H	-0.669151	0.316444	0.342225
H363	H	-0.593586	0.373412	0.365495
H364	H	-0.023809	-0.160979	-0.735279
C365	C	-0.735963	0.093753	0.260638
C366	C	-0.812551	0.020056	0.264010
C367	C	-0.853096	0.019527	0.309444
H368	H	-0.753258	0.147907	0.278246
H369	H	-0.694219	0.089215	0.271561
H370	H	-0.854287	0.024601	0.253092
H371	H	-0.795281	-0.034110	0.246411
H372	H	-0.811352	0.014989	0.320367
H373	H	-0.870385	0.073684	0.327048
H374	H	-0.905060	-0.030480	0.311737
H375	H	-0.503619	0.071273	-0.373665
H376	H	-0.123560	-0.607102	-0.263443
H377	H	0.682238	-0.162236	-0.523943
H378	H	-0.518563	-0.039000	0.162804
C379	C	0.014030	-0.705833	-0.646193
C380	C	-0.062173	-0.708460	-0.608036
C381	C	-0.059163	-0.757488	-0.583508
H382	H	0.067134	-0.677709	-0.636767
H383	H	0.014644	-0.765446	-0.664866
H384	H	-0.062777	-0.648858	-0.589366
H385	H	-0.115287	-0.736592	-0.617449
H386	H	-0.058550	-0.817101	-0.602181
H387	H	-0.006057	-0.729359	-0.574085
H388	H	-0.110869	-0.759284	-0.557618
C389	C	0.003955	-0.379881	-0.606904
C390	C	0.000247	-0.290974	-0.594024
C391	C	0.002985	-0.249037	-0.549174
H392	H	0.058474	-0.380025	-0.604631
H393	H	-0.046207	-0.411595	-0.587488
H394	H	0.050405	-0.259269	-0.613435
H395	H	-0.054268	-0.290804	-0.596287
H396	H	-0.047177	-0.280750	-0.529758
H397	H	0.057505	-0.249187	-0.546904
H398	H	0.000462	-0.188712	-0.540427
H399	H	-0.005182	-0.254109	-0.622664
H400	H	-0.449229	0.177371	-0.300885
H401	H	-0.365918	0.157102	-0.260160
H402	H	0.413839	-0.532573	0.042316
H403	H	0.718963	-0.692464	-0.005731
H404	H	0.330510	-0.448858	0.033327
H405	H	-0.283673	0.042875	0.225734
H406	H	-0.531920	0.039247	-0.151930
C407	C	-0.754136	0.103974	0.116602
C408	C	-0.710665	0.180800	0.101167
C409	C	-0.760086	0.184858	0.077288
H410	H	-0.813208	0.106796	0.136047
H411	H	-0.758062	0.051791	0.091420
H412	H	-0.706749	0.232970	0.126345
H413	H	-0.651597	0.177995	0.081716
H414	H	-0.764013	0.132675	0.052107
H415	H	-0.819156	0.187677	0.096736
H416	H	-0.730594	0.236979	0.066809
C417	C	-0.004457	-0.778742	-0.877184
C418	C	-0.083023	-0.829997	-0.890158
C419	C	-0.080353	-0.919840	-0.910819
H420	H	-0.000743	-0.801479	-0.856377
H421	H	0.046932	-0.782182	-0.903213
H422	H	-0.134399	-0.826562	-0.864133
H423	H	-0.086754	-0.807289	-0.910970
H424	H	-0.028964	-0.923280	-0.936848
H425	H	-0.076636	-0.942567	-0.890010
H426	H	-0.133655	-0.954626	-0.919628
C427	C	-0.692971	-0.062186	-0.265791
C428	C	-0.717469	-0.124562	-0.242100
C429	C	-0.803489	-0.181930	-0.243563
H430	H	-0.692116	-0.093219	-0.296451
H431	H	-0.735567	-0.027753	-0.252186
H432	H	-0.674884	-0.158991	-0.255707
H433	H	-0.718344	-0.093554	-0.211438
H434	H	-0.846085	-0.147497	-0.229957
H435	H	-0.802625	-0.212957	-0.274223
H436	H	-0.820125	-0.224253	-0.227485
C437	C	-0.596740	-0.085584	-0.218996
C438	C	-0.541052	-0.143499	-0.237956
C439	C	-0.579961	-0.212429	-0.216820
H440	H	-0.654474	-0.118434	-0.223339
H441	H	-0.603161	-0.060203	-0.187452
H442	H	-0.534643	-0.168879	-0.269493
H443	H	-0.483317	-0.110676	-0.233614
H444	H	-0.586381	-0.187048	-0.185276
H445	H	-0.637695	-0.245271	-0.221164
H446	H	-0.542179	-0.251728	-0.229679
H447	H	-0.267732	0.034117	0.350946
C448	C	-0.267831	0.019673	-0.142431
C449	C	-0.311366	-0.057081	-0.126939
C450	C	-0.261877	-0.061196	-0.103111
H451	H	-0.263747	0.071876	-0.117279
H452	H	-0.208811	0.016729	-0.161935
H453	H	-0.370370	-0.054129	-0.107437
H454	H	-0.315451	-0.109297	-0.152082
H455	H	-0.202858	-0.064141	-0.122614
H456	H	-0.257796	-0.008990	-0.077961
H457	H	-0.291404	-0.113278	-0.092600
C458	C	0.657558	-0.468940	-0.080760
C459	C	0.682045	-0.422206	-0.112271
C460	C	0.768062	-0.427455	-0.142126
H461	H	0.656702	-0.530235	-0.096270
H462	H	0.700160	-0.442889	-0.064124
H463	H	0.639454	-0.448259	-0.128905
H464	H	0.682921	-0.360906	-0.096774
H465	H	0.810664	-0.401404	-0.125489
H466	H	0.767197	-0.488752	-0.157633
H467	H	0.784691	-0.395740	-0.163507
H468	H	-0.023718	-0.530163	-0.918978
H469	H	-0.142704	-0.524425	-0.305055
H470	H	0.245737	-0.223998	-0.033572
H471	H	0.003321	-0.760550	-0.802778
C472	C	0.250602	-0.499193	-0.029169
C473	C	0.174003	-0.503870	0.008710
C474	C	0.133409	-0.593654	0.009496
H475	H	0.292290	-0.522239	-0.027473
H476	H	0.233322	-0.533878	-0.056026
H477	H	0.191285	-0.469198	0.035561
H478	H	0.132295	-0.480843	0.007023
H479	H	0.116128	-0.628339	-0.017361
H480	H	0.175103	-0.616692	0.011191
H481	H	0.081427	-0.596840	0.035194
H482	H	0.245727	-0.224039	-0.533582
H483	H	0.182115	-0.525189	-0.530531
