data_functionalizedCrystal
_audit_creation_method	'MofGen! by Chris Wilmer'
_symmetry_space_group_name_H-M	'P1'
_symmetry_Int_Tables_number	1
_symmetry_cell_setting	triclinic
loop_
_symmetry_equiv_pos_as_xyz
  x,y,z
_cell_length_a	26.809956
_cell_length_b	15.995350
_cell_length_c	15.995350
_cell_angle_alpha	83.492375
_cell_angle_beta	90.006575
_cell_angle_gamma	89.994818
loop_
_atom_site_label
_atom_site_type_symbol
_atom_site_fract_x
_atom_site_fract_y
_atom_site_fract_z
O1	O	0.041435	-1.110992	-0.107915
O2	O	0.041445	-0.867217	-0.121242
O3	O	0.041439	-0.995768	0.007309
O4	O	0.041441	-0.982441	-0.236466
O5	O	-0.041520	-0.995744	0.007289
O6	O	-0.041514	-0.867193	-0.121262
O7	O	-0.041524	-1.110968	-0.107934
Zn8	Zn	-0.054691	-0.989076	-0.114601
Zn9	Zn	0.054611	-0.989108	-0.114575
O10	O	-0.041519	-0.982416	-0.236486
C11	C	-0.000034	-0.836010	-0.120701
C12	C	-0.000030	-0.743060	-0.119049
C13	C	-0.000040	-0.995205	0.038494
C14	C	-0.000037	-0.993553	0.131444
N15	N	-0.129287	-0.989061	-0.114618
C16	C	-0.473916	-1.046024	-0.057667
C17	C	-0.682793	-1.046043	-0.057654
O18	O	-0.709799	-1.094441	-0.009237
N19	N	-0.708914	-0.989113	-0.114557
C20	C	-0.682812	-0.932170	-0.171463
O21	O	-0.709822	-0.883741	-0.219857
C22	C	-0.473936	-0.932146	-0.171471
C23	C	-0.447817	-0.989086	-0.114571
C24	C	-0.447797	-1.102958	-0.000770
C25	C	-0.395581	-1.102956	-0.000777
C26	C	-0.369483	-1.046019	-0.057681
C27	C	-0.395601	-0.989084	-0.114577
C28	C	-0.447835	-0.875200	-0.228373
C29	C	-0.395612	-0.875198	-0.228369
C30	C	-0.369494	-0.932138	-0.171468
C31	C	-0.317287	-0.932144	-0.171488
N32	N	-0.291166	-0.989075	-0.114585
C33	C	-0.317264	-1.046012	-0.057681
C34	C	-0.792476	-0.932187	-0.171456
C35	C	-0.844695	-0.932194	-0.171455
C36	C	-0.844672	-1.046067	-0.057645
C37	C	-0.792452	-1.046063	-0.057650
C38	C	-0.766355	-0.989117	-0.114553
C39	C	-0.207606	-1.046003	-0.057701
C40	C	-0.155385	-1.045998	-0.057715
C41	C	-0.155412	-0.932122	-0.171522
C42	C	-0.207629	-0.932130	-0.171511
C43	C	-0.233724	-0.989074	-0.114593
O44	O	-0.290249	-0.883765	-0.219873
O45	O	-0.290245	-1.094421	-0.009283
C46	C	-0.526132	-1.046026	-0.057660
C47	C	-0.552250	-0.989091	-0.114557
C48	C	-0.526152	-0.932154	-0.171461
C49	C	-0.604469	-0.989098	-0.114556
C50	C	-0.630567	-1.046035	-0.057652
C51	C	-0.604446	-1.102966	-0.000750
C52	C	-0.552230	-1.102963	-0.000757
C53	C	-0.552273	-0.875224	-0.228363
C54	C	-0.604489	-0.875231	-0.228353
C55	C	-0.630587	-0.932169	-0.171449
N56	N	0.129207	-0.989131	-0.114552
C57	C	-0.000045	-1.142175	-0.108476
C58	C	-0.000046	-1.235125	-0.110127
C59	C	-0.000040	-0.405312	-0.113117
C60	C	-0.000226	-0.452746	-0.021565
C61	C	-0.000035	-0.549436	-0.023217
C62	C	-0.000035	-0.572873	-0.116060
C63	C	0.047337	-0.531799	-0.161205
C64	C	0.047373	-0.435164	-0.158905
C65	C	-0.046967	-0.434797	-0.160819
C66	C	-0.047590	-0.531742	-0.160797
C67	C	-0.000031	-0.667570	-0.117727
C68	C	-0.000041	-0.310614	-0.111452
C69	C	-0.000039	-0.982980	-0.267671
C70	C	-0.000039	-0.984631	-0.360621
C71	C	-0.000038	-0.987621	0.469192
C72	C	0.000152	-0.896069	0.421758
C73	C	-0.000035	-0.897721	0.325068
C74	C	-0.000037	-0.990564	0.301631
C75	C	-0.047412	-1.035706	0.342698
C76	C	-0.047451	-1.033407	0.439333
C77	C	0.046889	-1.035325	0.439714
C78	C	0.047515	-1.035304	0.342769
C79	C	-0.000038	-0.992231	0.206934
C80	C	-0.000040	-0.985956	0.563890
H81	H	-0.134121	-1.092368	-0.011379
H82	H	-0.082864	-1.000468	0.457626
H83	H	-0.469042	-1.149323	0.045571
Cl84	Cl	-0.050779	-1.137178	0.489125
H85	H	0.082592	-0.560184	-0.129833
Cl86	Cl	-0.877523	-0.860620	-0.243002
H87	H	-0.033994	-0.577855	0.012270
H88	H	0.050374	-1.103009	0.327407
H89	H	-0.625704	-1.149329	0.045581
H90	H	-0.469093	-0.828834	-0.274706
H91	H	-0.228894	-0.885773	-0.217853
Cl92	Cl	0.047380	-1.139540	0.488751
Cl93	Cl	-0.050137	-1.141015	0.320890
Cl94	Cl	-0.047463	-0.385761	-0.265034
H95	H	-0.082665	-1.004333	0.314308
H96	H	-0.771231	-0.885814	-0.217796
H97	H	0.033559	-0.433162	0.014870
H98	H	-0.134155	-0.885767	-0.217855
Cl99	Cl	-0.519403	-1.174547	0.070781
H100	H	0.082561	-1.002299	0.315528
H101	H	-0.082874	-0.414251	-0.130897
H102	H	-0.865930	-1.092428	-0.011313
H103	H	0.034125	-0.859487	0.440298
H104	H	0.082796	-1.005403	0.460262
Cl105	Cl	0.050694	-0.385372	-0.262677
Cl106	Cl	-0.052551	-0.842532	0.282028
H107	H	-0.771190	-1.092428	-0.011317
Cl108	Cl	-0.051850	-0.839651	0.452354
Cl109	Cl	-0.362808	-0.803602	-0.299908
Cl110	Cl	-0.637318	-0.803646	-0.299895
Cl111	Cl	0.052396	-0.842932	0.281195
Cl112	Cl	0.050070	-0.553632	-0.266505
H113	H	-0.531028	-0.828857	-0.274700
H114	H	-0.034198	-0.434214	0.015022
Cl115	Cl	-0.101698	-0.573797	-0.109832
H116	H	0.033982	-0.577304	0.012526
H117	H	-0.228847	-1.092371	-0.011352
Cl118	Cl	0.102045	-0.406909	-0.108049
H119	H	-0.050451	-0.547107	-0.228501
H120	H	-0.374319	-1.149319	0.045559
