data_functionalizedCrystal
_audit_creation_method	'MofGen! by Chris Wilmer'
_symmetry_space_group_name_H-M	'P1'
_symmetry_Int_Tables_number	1
_symmetry_cell_setting	triclinic
loop_
_symmetry_equiv_pos_as_xyz
  x,y,z
_cell_length_a	15.944551
_cell_length_b	16.109301
_cell_length_c	15.186229
_cell_angle_alpha	90.005167
_cell_angle_beta	90.001133
_cell_angle_gamma	96.519890
loop_
_atom_site_label
_atom_site_type_symbol
_atom_site_fract_x
_atom_site_fract_y
_atom_site_fract_z
O1	O	1.114487	-0.107227	-0.073140
O2	O	1.447821	0.226106	0.260194
O3	O	1.781154	0.559440	0.593527
O4	O	0.869933	-0.120447	-0.073162
O5	O	1.203267	0.212886	0.260171
O6	O	1.536600	0.546220	0.593505
O7	O	0.998929	0.007192	-0.073141
O8	O	1.332262	0.340525	0.260192
O9	O	1.665595	0.673858	0.593526
O10	O	0.985492	-0.234866	-0.073160
O11	O	1.318826	0.098467	0.260173
O12	O	1.652159	0.431801	0.593506
O13	O	0.998920	0.007194	0.073316
O14	O	1.332253	0.340527	0.406649
O15	O	1.665587	0.673860	0.739983
O16	O	0.869925	-0.120445	0.073295
O17	O	1.203258	0.212888	0.406629
O18	O	1.536591	0.546221	0.739962
O19	O	1.114479	-0.107225	0.073318
O20	O	1.447812	0.226108	0.406651
O21	O	1.781146	0.559441	0.739984
Zn22	Zn	0.992200	-0.113835	0.096560
Zn23	Zn	1.325534	0.219498	0.429893
Zn24	Zn	1.658867	0.552832	0.763226
Zn25	Zn	0.992212	-0.113837	-0.096404
Zn26	Zn	1.325545	0.219496	0.236929
Zn27	Zn	1.658878	0.552829	0.570263
O28	O	0.985484	-0.234864	0.073297
O29	O	1.318817	0.098469	0.406630
O30	O	1.652150	0.431803	0.739964
C31	C	0.838635	-0.119897	0.000064
C32	C	1.171969	0.213436	0.333397
C33	C	1.505302	0.546769	0.666731
C34	C	0.745390	-0.118252	0.000056
C35	C	1.078723	0.215081	0.333389
C36	C	1.412057	0.548415	0.666723
C37	C	0.998380	0.038168	0.000088
C38	C	1.331713	0.371501	0.333421
C39	C	1.665047	0.704834	0.666755
C40	C	0.996748	0.130464	0.000089
C41	C	1.330082	0.463797	0.333422
C42	C	1.663415	0.797130	0.666756
C43	C	0.986032	-0.265840	0.000066
C44	C	1.319366	0.067493	0.333399
C45	C	1.652699	0.400827	0.666733
C46	C	0.987664	-0.358136	0.000059
C47	C	1.320997	-0.024803	0.333392
C48	C	1.654331	0.308531	0.666726
C49	C	0.530561	-0.035203	0.000079
C50	C	0.863894	0.298131	0.333413
C51	C	1.197227	0.631464	0.666746
C52	C	0.469532	-0.073769	-0.072135
C53	C	0.802865	0.259564	0.261199
C54	C	1.136199	0.592898	0.594532
C55	C	0.574665	-0.115275	0.000066
C56	C	0.907998	0.218058	0.333400
C57	C	1.241332	0.551391	0.666733
C58	C	0.469546	-0.073786	0.072261
C59	C	0.802879	0.259547	0.405594
C60	C	1.136212	0.592881	0.738927
C61	C	0.409753	-0.112394	0.000081
C62	C	0.743087	0.220939	0.333414
C63	C	1.076420	0.554272	0.666747
C64	C	0.514865	-0.153864	-0.072207
C65	C	0.848198	0.179470	0.261126
C66	C	1.181531	0.512803	0.594459
C67	C	0.514885	-0.153870	0.072253
C68	C	0.848218	0.179464	0.405586
C69	C	1.181551	0.512797	0.738920
C70	C	0.453874	-0.192494	0.000021
C71	C	0.787207	0.140839	0.333354
C72	C	1.120540	0.474173	0.666688
C73	C	0.669667	-0.116933	0.000058
C74	C	1.003000	0.216400	0.333391
C75	C	1.336333	0.549734	0.666724
C76	C	0.314753	-0.110743	0.000083
C77	C	0.648086	0.222590	0.333417
C78	C	0.981419	0.555924	0.666750
C79	C	1.145777	-0.107775	0.000090
C80	C	1.479110	0.225558	0.333423
C81	C	1.812444	0.558892	0.666757
C82	C	1.239022	-0.109420	0.000092
C83	C	1.572356	0.223913	0.333426
C84	C	1.905689	0.557246	0.666759
N85	N	0.992199	-0.113833	0.228252
N86	N	1.325532	0.219500	0.561586
N87	N	1.658866	0.552834	0.894919
C88	C	1.069497	0.352712	0.000082
C89	C	1.402831	0.686046	0.333415
C90	C	1.736164	1.019379	0.666748
C91	C	1.067958	0.439433	0.000074
C92	C	1.401291	0.772767	0.333408
C93	C	1.734624	1.106100	0.666741
C94	C	0.914909	0.419608	0.000064
C95	C	1.248243	0.752942	0.333397
C96	C	1.581576	1.086275	0.666730
C97	C	0.916450	0.332889	0.000065
C98	C	1.249783	0.666223	0.333398
C99	C	1.583116	0.999556	0.666732
C100	C	0.993746	0.299444	0.000078
C101	C	1.327080	0.632777	0.333412
C102	C	1.660413	0.966110	0.666745
C103	C	0.990666	0.472884	0.000070
C104	C	1.323999	0.806217	0.333403
C105	C	1.657333	1.139551	0.666736
C106	C	0.988996	0.566910	0.000062
C107	C	1.322329	0.900244	0.333395
C108	C	1.655663	1.233577	0.666729
C109	C	0.995417	0.205411	0.000085
C110	C	1.328750	0.538745	0.333418
C111	C	1.662083	0.872078	0.666751
N112	N	0.992220	-0.113833	-0.228097
N113	N	1.325553	0.219500	0.105237
N114	N	1.658887	0.552834	0.438570
C115	C	1.049337	-0.057333	0.453984
C116	C	1.382671	0.276000	0.787318
C117	C	1.716004	0.609333	1.120651
C118	C	1.049340	-0.057331	0.546174
C119	C	1.382673	0.276002	0.879507
C120	C	1.716007	0.609335	1.212841
C121	C	0.935075	-0.170335	0.546165
C122	C	1.268409	0.162998	0.879498
C123	C	1.601742	0.496332	1.212832
C124	C	0.935070	-0.170332	0.453977
C125	C	1.268403	0.163001	0.787310
C126	C	1.601736	0.496334	1.120644
C127	C	0.992205	-0.113833	0.407889
C128	C	1.325538	0.219501	0.741222
C129	C	1.658872	0.552834	1.074556
C130	C	0.992214	-0.113833	0.592267
C131	C	1.325547	0.219500	0.925600
C132	C	1.658880	0.552833	1.258933
C133	C	0.992216	-0.113832	0.692223
C134	C	1.325550	0.219502	1.025556
C135	C	1.658883	0.552835	1.358890
C136	C	0.992202	-0.113833	0.307927
C137	C	1.325535	0.219500	0.641260
C138	C	1.658869	0.552834	0.974593
H139	H	0.563915	0.031251	-0.000005
H140	H	0.897249	0.364584	0.333329
H141	H	1.230582	0.697918	0.666662
H142	H	1.095861	-0.011324	0.583703
H143	H	1.429194	0.322010	0.917036
H144	H	1.762528	0.655343	1.250369
H145	H	1.095859	-0.011327	0.416462
H146	H	1.429193	0.322007	0.749795
H147	H	1.762526	0.655340	1.083129
H148	H	1.129642	0.482802	0.000075
H149	H	1.462975	0.816135	0.333408
H150	H	1.796308	1.149468	0.666742
H151	H	0.854760	0.289515	0.000060
H152	H	1.188094	0.622849	0.333393
H153	H	1.521427	0.956182	0.666726
H154	H	0.888558	-0.216337	0.583699
H155	H	1.221891	0.116996	0.917032
H156	H	1.555225	0.450329	1.250365
H157	H	0.888542	-0.216341	0.416443
H158	H	1.221875	0.116992	0.749777
H159	H	1.555208	0.450326	1.083110
H160	H	0.535001	-0.187708	0.133303
H161	H	0.868335	0.145625	0.466636
H162	H	1.201668	0.478958	0.799969
H163	H	0.851977	0.446851	0.000055
H164	H	1.185310	0.780184	0.333388
H165	H	1.518644	1.113517	0.666721
H166	H	1.132437	0.325484	0.000091
H167	H	1.465770	0.658818	0.333424
H168	H	1.799104	0.992151	0.666757
H169	H	0.449437	-0.039902	-0.133182
H170	H	0.782770	0.293431	0.200152
H171	H	1.116103	0.626764	0.533485
H172	H	0.534845	-0.187707	-0.133325
H173	H	0.868178	0.145627	0.200008
H174	H	1.201511	0.478960	0.533341
H175	H	0.449467	-0.039903	0.133310
H176	H	0.782801	0.293430	0.466643
H177	H	1.116134	0.626764	0.799977
H178	H	0.420693	-0.259016	-0.000025
H179	H	0.754026	0.074317	0.333309
H180	H	1.087360	0.407650	0.666642
