data_functionalizedCrystal
_audit_creation_method	'MofGen! by Chris Wilmer'
_symmetry_space_group_name_H-M	'P1'
_symmetry_Int_Tables_number	1
_symmetry_cell_setting	triclinic
loop_
_symmetry_equiv_pos_as_xyz
  x,y,z
_cell_length_a	10.654541
_cell_length_b	17.699083
_cell_length_c	16.176319
_cell_angle_alpha	90.007696
_cell_angle_beta	89.992880
_cell_angle_gamma	96.116529
loop_
_atom_site_label
_atom_site_type_symbol
_atom_site_fract_x
_atom_site_fract_y
_atom_site_fract_z
O1	O	1.665988	-0.106296	-0.068744
O2	O	1.300332	-0.116426	-0.068746
O3	O	1.493491	-0.001237	-0.068738
O4	O	1.472829	-0.221484	-0.068752
O5	O	1.493464	-0.001230	0.068756
O6	O	1.300305	-0.116418	0.068747
O7	O	1.665962	-0.106288	0.068750
Cu8	Cu	1.483131	-0.111352	0.081302
Cu9	Cu	1.483162	-0.111361	-0.081299
O10	O	1.472803	-0.221477	0.068741
C11	C	1.492737	0.026968	0.000009
C12	C	1.490516	0.111001	0.000009
C13	C	1.253534	-0.115678	-0.000000
C14	C	1.114129	-0.113454	-0.000001
C15	C	1.712760	-0.107035	0.000002
C16	C	1.852165	-0.109260	-0.000003
C17	C	1.882547	0.028479	-0.000004
C18	C	1.963228	0.096301	-0.000009
C19	C	2.094209	0.094206	-0.000012
C20	C	2.144511	0.024283	-0.000008
C21	C	2.063829	-0.043538	-0.000003
C22	C	1.932846	-0.041436	-0.000002
C23	C	2.033448	-0.181276	0.000004
C24	C	1.902466	-0.179183	0.000001
C25	C	2.083749	-0.251199	0.000008
C26	C	2.003067	-0.319022	0.000007
C27	C	1.872078	-0.316925	0.000009
C28	C	1.821784	-0.247004	0.000006
C29	C	1.473556	-0.249682	-0.000008
C30	C	1.475777	-0.333714	-0.000013
N31	N	1.483118	-0.111346	0.195668
C32	C	1.603896	0.158901	0.000011
C33	C	1.601802	0.237858	0.000004
C34	C	1.486326	0.268912	0.000001
C35	C	1.372937	0.221005	-0.000004
C36	C	1.375033	0.142050	-0.000002
C37	C	1.364483	0.539422	-0.000011
C38	C	1.362396	0.618383	-0.000010
C39	C	1.591252	0.635230	-0.000004
C40	C	1.593348	0.556275	-0.000003
C41	C	1.479960	0.508375	-0.000012
C42	C	1.482232	0.422761	-0.000005
C43	C	1.484052	0.354524	0.000000
N44	N	1.483185	-0.111362	-0.195664
C45	C	1.568675	-0.060362	0.238936
C46	C	1.568681	-0.060361	0.325483
C47	C	1.483136	-0.111348	0.368760
C48	C	1.397570	-0.162335	0.325486
C49	C	1.397559	-0.162332	0.238941
C50	C	1.397613	-0.162350	0.674514
C51	C	1.397634	-0.162351	0.761066
C52	C	1.568735	-0.060379	0.761057
C53	C	1.568724	-0.060375	0.674511
C54	C	1.483155	-0.111359	0.631244
C55	C	1.483147	-0.111358	0.537400
C56	C	1.483148	-0.111353	0.462603
H57	H	1.775896	0.030192	-0.000010
H58	H	1.327889	-0.203847	0.203712
F59	F	1.659803	-0.006114	0.807110
H60	H	1.687380	0.530995	0.000004
H61	H	1.683578	0.674240	-0.000001
H62	H	1.922258	0.153231	-0.000000
H63	H	1.268356	0.643664	-0.000011
H64	H	1.638347	-0.018845	0.360711
H65	H	1.638340	-0.018845	0.203705
H66	H	1.638387	-0.018859	0.639277
H67	H	1.715134	-0.245290	0.000004
F68	F	1.250038	0.254058	-0.000017
F69	F	1.786220	-0.389112	0.000021
F70	F	1.243805	0.488453	-0.000022
F71	F	1.306520	-0.216597	0.371546
F72	F	1.306580	-0.216621	0.807123
H73	H	2.251164	0.022584	-0.000000
H74	H	1.697930	0.133623	0.000019
F75	F	1.722477	0.288834	0.000008
F76	F	1.306549	-0.216611	0.628473
F77	F	2.180079	0.166389	-0.000012
F78	F	2.223152	-0.253427	-0.000026
F79	F	1.254358	0.091071	-0.000007
H80	H	2.044034	-0.375948	0.000016
