data_functionalizedCrystal
_audit_creation_method	'MofGen! by Chris Wilmer'
_symmetry_space_group_name_H-M	'P1'
_symmetry_Int_Tables_number	1
_symmetry_cell_setting	triclinic
loop_
_symmetry_equiv_pos_as_xyz
  x,y,z
_cell_length_a	19.288867
_cell_length_b	19.288865
_cell_length_c	17.766277
_cell_angle_alpha	89.988397
_cell_angle_beta	89.992126
_cell_angle_gamma	83.136658
loop_
_atom_site_label
_atom_site_type_symbol
_atom_site_fract_x
_atom_site_fract_y
_atom_site_fract_z
O1	O	0.921352	0.086655	-0.062576
O2	O	0.719092	0.098343	-0.062585
O3	O	0.826066	-0.008631	-0.062566
O4	O	0.814378	0.193629	-0.062596
O5	O	0.826048	-0.008637	0.062623
O6	O	0.719073	0.098337	0.062604
O7	O	0.921333	0.086650	0.062612
Cu8	Cu	0.820201	0.092493	0.074039
Cu9	Cu	0.820224	0.092500	-0.074011
O10	O	0.814359	0.193624	0.062593
C11	C	0.693206	0.097964	0.000009
C12	C	0.616102	0.096834	0.000006
C13	C	0.825681	-0.034510	0.000031
C14	C	0.824552	-0.111614	0.000038
C15	C	0.060547	0.088701	-0.068224
C16	C	0.132995	0.089758	-0.068227
C17	C	0.169213	0.090287	0.000013
C18	C	0.132980	0.089741	0.068261
C19	C	0.060535	0.088676	0.068262
C20	C	0.278533	0.132652	0.052287
C21	C	0.350976	0.133721	0.052283
C22	C	0.392659	0.093566	0.000012
C23	C	0.361888	0.052352	-0.052267
C24	C	0.289443	0.051288	-0.052266
C25	C	0.247768	0.091440	0.000019
C26	C	0.507439	0.095254	-0.068235
C27	C	0.579889	0.096306	-0.068235
C28	C	0.579872	0.096296	0.068255
C29	C	0.507425	0.095236	0.068253
C30	C	0.471213	0.094718	0.000006
C31	C	0.887320	-0.156310	0.000044
C32	C	0.886259	-0.228757	0.000032
C33	C	0.822427	-0.256505	0.000029
C34	C	0.759651	-0.211799	0.000018
C35	C	0.760713	-0.139354	0.000023
C36	C	0.772241	-0.364795	0.043877
C37	C	0.771181	-0.437239	0.043878
C38	C	0.819147	-0.479951	0.000012
C39	C	0.868185	-0.450210	-0.043845
C40	C	0.869248	-0.377765	-0.043840
C41	C	0.821268	-0.335059	0.000024
C42	C	0.880769	-0.603202	0.000004
C43	C	0.879706	-0.675650	-0.000013
C44	C	0.753096	-0.658691	-0.000019
C45	C	0.754161	-0.586245	-0.000010
C46	C	0.818000	-0.558505	0.000005
C47	C	0.947219	0.087029	0.000017
C48	C	1.024323	0.088159	0.000015
C49	C	0.814744	0.219503	-0.000005
C50	C	0.815873	0.296607	-0.000017
N51	N	0.820191	0.092488	0.178169
N52	N	0.820240	0.092499	-0.178142
C53	C	0.867575	0.045143	0.217564
C54	C	0.867579	0.045140	0.296366
C55	C	0.820206	0.092494	0.335769
C56	C	0.772813	0.139842	0.296364
C57	C	0.772806	0.139839	0.217564
C58	C	0.810907	0.155781	0.460598
C59	C	0.810919	0.155785	0.539397
C60	C	0.820224	0.092502	0.578816
C61	C	0.829532	0.029213	0.539426
C62	C	0.829525	0.029210	0.460626
C63	C	0.820208	0.092502	0.421215
C64	C	0.867615	0.045150	0.703657
C65	C	0.867614	0.045146	0.782460
C66	C	0.772852	0.139854	0.782457
C67	C	0.772849	0.139852	0.703655
C68	C	0.820234	0.092501	0.664260
H69	H	0.031068	0.088276	-0.123797
H70	H	0.703049	-0.549852	-0.000011
H71	H	0.376021	0.167297	0.094837
Br72	Br	0.798295	0.241676	0.592846
H73	H	0.244600	0.165348	0.094861
H74	H	0.906197	0.006591	0.671580
Br75	Br	0.935792	-0.337403	-0.103360
H76	H	0.733179	-0.330024	0.079602
H77	H	0.707678	-0.234396	0.000014
Br78	Br	0.458290	0.094547	-0.160853
H79	H	0.803317	0.207317	0.428509
H80	H	0.709598	-0.102962	0.000018
H81	H	0.162494	0.090203	-0.123798
H82	H	0.609382	0.096743	-0.123805
H83	H	0.734277	0.178407	0.814539
Br84	Br	0.247684	-0.004645	-0.123211
H85	H	0.731248	-0.461447	0.079584
H86	H	0.162474	0.090170	0.123822
Br87	Br	0.708515	0.204104	0.349837
Br88	Br	0.931879	-0.019119	0.164099
H89	H	0.609361	0.096724	0.123818
H90	H	0.477930	0.094797	0.123821
H91	H	0.734220	0.178394	0.185488
H92	H	0.837109	-0.022318	0.571520
Br93	Br	0.418448	-0.002143	-0.123217
H94	H	0.907244	-0.484985	-0.079565
Br95	Br	0.011369	0.087942	0.160879
H96	H	0.906165	0.006585	0.328448
H97	H	0.939302	-0.133729	0.000053
H98	H	0.937374	-0.265155	0.000034
Br99	Br	0.967405	-0.565551	0.000032
H100	H	0.930821	-0.712042	-0.000012
Br101	Br	0.666465	-0.696341	-0.000031
Br102	Br	0.842149	-0.056678	0.407171
H103	H	0.906197	0.006588	0.814537
H104	H	0.734268	0.178407	0.671578
