data_functionalizedCrystal
_audit_creation_method	'MofGen! by Chris Wilmer'
_symmetry_space_group_name_H-M	'P1'
_symmetry_Int_Tables_number	1
_symmetry_cell_setting	triclinic
loop_
_symmetry_equiv_pos_as_xyz
  x,y,z
_cell_length_a	19.077212
_cell_length_b	19.077068
_cell_length_c	18.215407
_cell_angle_alpha	87.713242
_cell_angle_beta	92.314333
_cell_angle_gamma	94.708021
loop_
_atom_site_label
_atom_site_type_symbol
_atom_site_fract_x
_atom_site_fract_y
_atom_site_fract_z
Zn1	Zn	1.066377	-0.237619	0.470998
Zn2	Zn	1.061568	-0.355476	0.352673
Zn3	Zn	0.948508	-0.242325	0.343178
Zn4	Zn	0.943713	-0.360197	0.470932
O5	O	1.005041	-0.298904	0.409445
O6	O	1.164390	-0.249308	0.459303
O7	O	1.046565	-0.340460	0.248429
O8	O	0.968162	-0.143047	0.356188
O9	O	1.160858	-0.335897	0.372370
O10	O	1.054760	-0.139590	0.450097
O11	O	0.963500	-0.257328	0.241453
O12	O	0.849220	-0.261906	0.356124
O13	O	0.959990	-0.343943	0.573925
O14	O	0.845697	-0.348506	0.449984
O15	O	1.050110	-0.253886	0.573974
O16	O	1.041916	-0.454756	0.372306
O17	O	0.955327	-0.458224	0.459190
C18	C	0.821879	-0.306229	0.402017
C19	C	0.743521	-0.309380	0.398857
C20	C	0.302249	-0.331947	0.376226
C21	C	0.375875	-0.328983	0.379190
C22	C	0.414527	-0.282493	0.426012
C23	C	0.379549	-0.238958	0.469869
C24	C	0.305924	-0.241919	0.466902
C25	C	0.634918	-0.268807	0.439746
C26	C	0.708548	-0.265851	0.442712
C27	C	0.704870	-0.355875	0.352031
C28	C	0.631244	-0.358835	0.349071
C29	C	0.596272	-0.315298	0.392925
N30	N	0.489784	-0.279463	0.429044
N31	N	0.521016	-0.318324	0.389889
C32	C	0.997599	-0.482069	0.416788
C33	C	0.994479	-0.560425	0.419956
C34	C	1.038130	-0.595406	0.376249
C35	C	1.035200	-0.669030	0.379234
C36	C	0.988615	-0.707671	0.425922
C37	C	0.944962	-0.672685	0.469634
C38	C	0.947896	-0.599063	0.466653
C39	C	0.975006	-0.928056	0.439688
C40	C	0.972073	-1.001683	0.442664
C41	C	1.062313	-0.998023	0.352265
C42	C	1.065240	-0.924400	0.349284
C43	C	1.021589	-0.889420	0.392999
N44	N	0.985618	-0.782927	0.428972
N45	N	1.024591	-0.814165	0.389952
C46	C	1.188919	-0.291551	0.416903
C47	C	1.267276	-0.288418	0.420082
C48	C	1.005052	-0.298916	0.601399
C49	C	1.005056	-0.298921	0.683198
C50	C	1.012532	-0.115024	0.402091
C51	C	1.015725	-0.036665	0.398957
C52	C	1.048298	-0.342195	0.951892
C53	C	1.048299	-0.342198	0.875033
C54	C	0.961794	-0.255638	0.867752
C55	C	0.961790	-0.255639	0.944610
C56	C	1.005045	-0.298916	0.986677
C57	C	1.005052	-0.298918	0.832962
C58	C	1.005053	-0.298921	0.749628
C59	C	1.005043	-0.298914	1.070016
C60	C	1.005030	-0.298911	1.218239
C61	C	1.005041	-0.298913	1.136440
H62	H	0.404347	-0.364428	0.343477
H63	H	0.907035	-0.704153	0.507651
H64	H	0.740016	-0.227987	0.480839
H65	H	1.070745	-0.697508	0.343642
H66	H	1.083519	-0.377435	0.986141
H67	H	0.912352	-0.570582	0.502244
F68	F	0.915774	-0.209569	0.822975
F69	F	0.261120	-0.381434	0.326396
H70	H	0.599779	-0.396692	0.310942
F71	F	1.114830	-0.883279	0.299601
H72	H	1.083520	-0.377440	0.846714
H73	H	1.097852	-1.026512	0.316676
F74	F	0.915743	-0.209582	0.981633
H75	H	0.934147	-1.033143	0.480696
F76	F	0.928548	-0.890837	0.486212
F77	F	1.087709	-0.554288	0.326552
H78	H	0.733352	-0.391320	0.316327
F79	F	0.597708	-0.222475	0.486425
H80	H	0.277450	-0.206471	0.502611
F81	F	0.420686	-0.189477	0.519700
