data_functionalizedCrystal
_audit_creation_method	'MofGen! by Chris Wilmer'
_symmetry_space_group_name_H-M	'P1'
_symmetry_Int_Tables_number	1
_symmetry_cell_setting	triclinic
loop_
_symmetry_equiv_pos_as_xyz
  x,y,z
_cell_length_a	16.120297
_cell_length_b	16.959455
_cell_length_c	16.959454
_cell_angle_alpha	89.982978
_cell_angle_beta	92.875976
_cell_angle_gamma	87.120459
loop_
_atom_site_label
_atom_site_type_symbol
_atom_site_fract_x
_atom_site_fract_y
_atom_site_fract_z
Zn1	Zn	-0.471383	-1.185756	-0.337427
Zn2	Zn	0.028617	-0.685756	0.162573
Zn3	Zn	-0.331981	-1.192371	-0.462907
Zn4	Zn	0.168019	-0.692371	0.037093
Zn5	Zn	-0.331989	-1.060276	-0.330740
Zn6	Zn	0.168011	-0.560276	0.169260
Zn7	Zn	-0.471350	-1.053551	-0.469558
Zn8	Zn	0.028650	-0.553551	0.030442
O9	O	-0.401676	-1.122989	-0.400158
O10	O	0.098324	-0.622989	0.099842
O11	O	-0.452902	-1.297244	-0.354087
O12	O	0.047098	-0.797244	0.145913
O13	O	-0.215319	-1.180430	-0.439793
O14	O	0.284681	-0.680430	0.060207
O15	O	-0.350498	-1.076968	-0.221017
O16	O	0.149502	-0.576968	0.278983
O17	O	-0.350484	-1.302104	-0.446277
O18	O	0.149516	-0.802104	0.053723
O19	O	-0.452910	-1.169158	-0.225930
O20	O	0.047090	-0.669158	0.274070
O21	O	-0.215325	-1.083381	-0.342690
O22	O	0.284675	-0.583381	0.157310
O23	O	-0.350465	-0.948774	-0.349140
O24	O	0.149535	-0.448774	0.150860
O25	O	-0.588018	-1.065506	-0.457613
O26	O	-0.088018	-0.565506	0.042387
O27	O	-0.452853	-0.943833	-0.451129
O28	O	0.047147	-0.443833	0.048871
O29	O	-0.588042	-1.162637	-0.360536
O30	O	-0.088042	-0.662637	0.139464
O31	O	-0.350451	-1.173909	-0.574399
O32	O	0.149549	-0.673909	-0.074399
O33	O	-0.452845	-1.071919	-0.579286
O34	O	0.047155	-0.571919	-0.079286
C35	C	-0.401657	-0.917623	-0.400131
C36	C	0.098343	-0.417623	0.099869
C37	C	-0.401668	-0.829766	-0.400139
C38	C	0.098332	-0.329766	0.099861
C39	C	-0.619125	-1.112583	-0.410562
C40	C	-0.119125	-0.612583	0.089438
C41	C	-0.711789	-1.108149	-0.414996
C42	C	-0.211789	-0.608149	0.085004
C43	C	-0.401662	-1.122923	-0.605524
C44	C	0.098338	-0.622923	-0.105524
C45	C	-0.401684	-1.122966	-0.693381
C46	C	0.098316	-0.622966	-0.193381
C47	C	-0.881447	-1.100025	-0.423073
C48	C	-0.381447	-0.600025	0.076927
C49	C	-0.922756	-1.146108	-0.377006
C50	C	-0.422756	-0.646108	0.122994
C51	C	-1.017160	-1.141587	-0.381500
C52	C	-0.517160	-0.641587	0.118500
C53	C	-0.787035	-1.104544	-0.418580
C54	C	-0.287035	-0.604544	0.081420
C55	C	-0.185072	-1.133399	-0.389737
C56	C	0.314928	-0.633399	0.110263
C57	C	-0.092409	-1.137986	-0.385081
C58	C	0.407591	-0.637986	0.114919
C59	C	-0.401696	-1.329156	-0.400186
C60	C	0.098304	-0.829156	0.099814
C61	C	-0.401704	-1.417012	-0.400197
C62	C	0.098296	-0.917012	0.099803
C63	C	-0.348474	-0.460833	-0.347016
C64	C	0.151526	0.039167	0.152984
C65	C	-0.454926	-0.455745	-0.453367
C66	C	0.045074	0.044255	0.046633
C67	C	-0.454920	-0.538291	-0.453356
C68	C	0.045080	-0.038291	0.046644
C69	C	-0.401690	-0.582112	-0.400174
C70	C	0.098310	-0.082112	0.099826
C71	C	-0.348465	-0.543387	-0.347004
C72	C	0.151535	-0.043387	0.152996
C73	C	-0.508138	-0.577023	-0.506530
C74	C	-0.008138	-0.077023	-0.006530
C75	C	-0.508135	-0.659574	-0.506521
C76	C	-0.008135	-0.159574	-0.006521
C77	C	-0.454908	-0.703396	-0.453335
C78	C	0.045092	-0.203396	0.046665
C79	C	-0.401682	-0.664666	-0.400163
C80	C	0.098318	-0.164666	0.099837
C81	C	-0.348452	-0.708487	-0.346981
C82	C	0.151548	-0.208487	0.153019
C83	C	-0.295229	-0.669758	-0.293804
C84	C	0.204771	-0.169758	0.206196
C85	C	-0.295239	-0.587209	-0.293819
C86	C	0.204761	-0.087209	0.206181
C87	C	-0.454898	-0.785945	-0.453321
C88	C	0.045102	-0.285945	0.046679
C89	C	-0.348443	-0.791041	-0.346970
C90	C	0.151557	-0.291041	0.153030
C91	C	-0.454987	-1.069956	-1.067431
C92	C	0.045013	-0.569956	-0.567431
C93	C	-0.348450	-1.176237	-1.062286
C94	C	0.151550	-0.676237	-0.562286
C95	C	-0.348442	-1.176210	-0.979740
C96	C	0.151558	-0.676210	-0.479740
C97	C	-0.401707	-1.123054	-0.941035
C98	C	0.098293	-0.623054	-0.441035
C99	C	-0.454979	-1.069926	-0.984877
C100	C	0.045021	-0.569926	-0.484877
C101	C	-0.295165	-1.229332	-0.935892
C102	C	0.204835	-0.729332	-0.435892
C103	C	-0.295155	-1.229307	-0.853341
C104	C	0.204845	-0.729307	-0.353341
C105	C	-0.348424	-1.176154	-0.814635
C106	C	0.151576	-0.676154	-0.314635
C107	C	-0.401699	-1.123024	-0.858481
C108	C	0.098301	-0.623024	-0.358481
C109	C	-0.454963	-1.069868	-0.819777
C110	C	0.045037	-0.569868	-0.319777
C111	C	-0.508243	-1.016741	-0.863622
C112	C	-0.008243	-0.516741	-0.363622
C113	C	-0.508248	-1.016773	-0.946171
C114	C	-0.008248	-0.516773	-0.446171
C115	C	-0.348419	-1.176122	-0.732086
C116	C	0.151581	-0.676122	-0.232086
C117	C	-0.454956	-1.069837	-0.737223
C118	C	0.045044	-0.569837	-0.237223
C119	C	-0.401708	-1.123075	-0.193991
C120	C	0.098292	-0.623075	0.306009
C121	C	-0.401722	-1.123112	-0.106135
C122	C	0.098278	-0.623112	0.393865
H123	H	-0.916979	-1.057181	-0.465886
H124	H	-0.416979	-0.557181	0.034114
H125	H	-0.551473	-0.691100	-0.549820
H126	H	-0.051473	-0.191100	-0.049820
H127	H	-0.305143	-0.429296	-0.303719
H128	H	0.194857	0.070704	0.196281
H129	H	-0.498368	-1.026703	-1.103133
H130	H	0.001632	-0.526703	-0.603133
C131	C	-0.243215	-0.787778	-0.241848
C132	C	0.256785	-0.287778	0.258152
C133	C	-0.289926	-0.839206	-0.288513
C134	C	0.210074	-0.339206	0.211487
H135	H	-0.207085	-0.817515	-0.205764
H136	H	0.292915	-0.317515	0.294236
H137	H	-0.279597	-0.753858	-0.213410
H138	H	0.220403	-0.253858	0.286590
H139	H	-0.211272	-0.757092	-0.274723
H140	H	0.288728	-0.257092	0.225277
H141	H	-0.321873	-0.869888	-0.255638
H142	H	0.178127	-0.369888	0.244362
H143	H	-0.253539	-0.873140	-0.316953
H144	H	0.246461	-0.373140	0.183047
H145	H	-0.251885	-0.705448	-0.250507
H146	H	0.248115	-0.205448	0.249493
C147	C	-0.931299	-1.245695	-0.277484
C148	C	-0.431299	-0.745695	0.222516
C149	C	-0.874794	-1.203957	-0.319209
C150	C	-0.374794	-0.703957	0.180791
H151	H	-0.901685	-1.281405	-0.241803
H152	H	-0.401685	-0.781405	0.258197
H153	H	-0.965270	-1.274315	-0.313514
H154	H	-0.465270	-0.774315	0.186486
H155	H	-0.965255	-1.209669	-0.248826
H156	H	-0.465255	-0.709669	0.251174
H157	H	-0.840843	-1.239983	-0.347872
H158	H	-0.340843	-0.739983	0.152128
H159	H	-0.840809	-1.175336	-0.283174
H160	H	-0.340809	-0.675336	0.216826
C161	C	-0.596088	-1.024465	-0.718555
C162	C	-0.096088	-0.524465	-0.218555
C163	C	-0.513509	-1.011407	-0.694682
C164	C	-0.013509	-0.511407	-0.194682
H165	H	-0.632234	-0.988389	-0.692295
H166	H	-0.132234	-0.488389	-0.192295
H167	H	-0.608328	-1.076966	-0.705568
H168	H	-0.108328	-0.576966	-0.205568
H169	H	-0.603707	-1.016881	-0.773995
H170	H	-0.103707	-0.516881	-0.273995
H171	H	-0.505888	-1.018996	-0.639243
H172	H	-0.005888	-0.518996	-0.139243
H173	H	-0.501264	-0.958892	-0.707664
H174	H	-0.001264	-0.458892	-0.207664
H175	H	-0.251907	-0.555669	-0.250526
H176	H	0.248093	-0.055669	0.249474
C177	C	-0.649374	-0.971371	-0.844938
C178	C	-0.149374	-0.471371	-0.344938
C179	C	-0.566793	-0.958314	-0.821072
C180	C	-0.066793	-0.458314	-0.321072
H181	H	-0.685518	-0.935300	-0.818669
H182	H	-0.185518	-0.435300	-0.318669
H183	H	-0.661612	-1.023875	-0.831954
H184	H	-0.161612	-0.523875	-0.331954
H185	H	-0.657001	-0.963781	-0.900376
H186	H	-0.157001	-0.463781	-0.400376
H187	H	-0.559164	-0.965910	-0.765634
H188	H	-0.059164	-0.465910	-0.265634
H189	H	-0.554551	-0.905798	-0.834050
H190	H	-0.054551	-0.405798	-0.334050
C191	C	-0.502201	-0.326944	-0.500604
C192	C	-0.002201	0.173056	-0.000604
C193	C	-0.513434	-0.407579	-0.511822
C194	C	-0.013434	0.092421	-0.011822
H195	H	-0.538328	-0.297208	-0.536690
H196	H	-0.038328	0.202792	-0.036690
H197	H	-0.446173	-0.316093	-0.509415
H198	H	0.053827	0.183907	-0.009415
H199	H	-0.514497	-0.312846	-0.448101
H200	H	-0.014497	0.187154	0.051899
H201	H	-0.501132	-0.421679	-0.564324
H202	H	-0.001132	0.078321	-0.064324
H203	H	-0.569474	-0.418435	-0.503017
H204	H	-0.069474	0.081565	-0.003017
C205	C	-0.307951	-1.312051	-1.085723
C206	C	0.192049	-0.812051	-0.585723
C207	C	-0.289900	-1.234647	-1.104845
C208	C	0.210100	-0.734647	-0.604845
H209	H	-0.271799	-1.348107	-1.112002
H210	H	0.228201	-0.848107	-0.612002
H211	H	-0.363971	-1.320897	-1.101913
H212	H	0.136029	-0.820897	-0.601913
H213	H	-0.300310	-1.319645	-1.030287
H214	H	0.199690	-0.819645	-0.530287
H215	H	-0.297547	-1.227051	-1.160281
H216	H	0.202453	-0.727051	-0.660281
H217	H	-0.233867	-1.225798	-1.088660
H218	H	0.266133	-0.725798	-0.588660
C219	C	-0.502146	-0.910227	-0.500529
C220	C	-0.002146	-0.410227	-0.000529
C221	C	-0.513392	-0.828517	-0.511769
C222	C	-0.013392	-0.328517	-0.011769
H223	H	-0.538256	-0.936507	-0.536618
H224	H	-0.038256	-0.436507	-0.036618
H225	H	-0.514448	-0.923172	-0.448032
H226	H	-0.014448	-0.423172	0.051968
H227	H	-0.446105	-0.926418	-0.509327
H228	H	0.053895	-0.426418	-0.009327
H229	H	-0.569431	-0.812325	-0.502965
H230	H	-0.069431	-0.312325	-0.002965
H231	H	-0.501095	-0.815567	-0.564278
H232	H	-0.001095	-0.315567	-0.064278
C233	C	-0.649241	-0.544872	-0.551974
C234	C	-0.149241	-0.044872	-0.051974
C235	C	-0.566654	-0.528848	-0.564972
C236	C	-0.066654	-0.028848	-0.064972
H237	H	-0.685369	-0.515129	-0.588054
H238	H	-0.185369	-0.015129	-0.088054
H239	H	-0.661522	-0.530777	-0.499473
H240	H	-0.161522	-0.030777	0.000527
H241	H	-0.656844	-0.599578	-0.559592
H242	H	-0.156844	-0.099578	-0.059592
H243	H	-0.559049	-0.474143	-0.557348
H244	H	-0.059049	0.025857	-0.057348
H245	H	-0.554369	-0.542938	-0.617485
H246	H	-0.054369	-0.042938	-0.117485
C247	C	-0.555550	-0.969620	-1.074995
C248	C	-0.055550	-0.469620	-0.574995
C249	C	-0.566800	-0.958372	-0.994366
C250	C	-0.066800	-0.458372	-0.494366
H251	H	-0.591692	-0.933560	-1.104748
H252	H	-0.091692	-0.433560	-0.604748
H253	H	-0.567808	-1.022129	-1.089069
H254	H	-0.067808	-0.522129	-0.589069
H255	H	-0.499520	-0.960784	-1.085848
H256	H	0.000480	-0.460784	-0.585848
H257	H	-0.622828	-0.967213	-0.983512
H258	H	-0.122828	-0.467213	-0.483512
H259	H	-0.554547	-0.905849	-0.980286
H260	H	-0.054547	-0.405849	-0.480286
C261	C	-0.254634	-1.365137	-0.959379
C262	C	0.245366	-0.865137	-0.459379
C263	C	-0.236615	-1.287720	-0.978478
C264	C	0.263385	-0.787720	-0.478478
H265	H	-0.218481	-1.401172	-0.985682
H266	H	0.281519	-0.901172	-0.485682
H267	H	-0.310655	-1.373994	-0.975554
H268	H	0.189345	-0.873994	-0.475554
H269	H	-0.246971	-1.372751	-0.903946
H270	H	0.253029	-0.872751	-0.403946
H271	H	-0.244284	-1.280104	-1.033910
H272	H	0.255716	-0.780104	-0.533910
H273	H	-0.180580	-1.278859	-0.962307
H274	H	0.319420	-0.778859	-0.462307
C275	C	-0.154020	-1.274674	-0.821183
C276	C	0.345980	-0.774674	-0.321183
C277	C	-0.236598	-1.287709	-0.805153
C278	C	0.263402	-0.787709	-0.305153
H279	H	-0.117872	-1.310735	-0.791437
H280	H	0.382128	-0.810735	-0.291437
H281	H	-0.141770	-1.222165	-0.807097
H282	H	0.358230	-0.722165	-0.307097
H283	H	-0.146412	-1.282296	-0.875888
H284	H	0.353588	-0.782296	-0.375888
H285	H	-0.244207	-1.280082	-0.750448
H286	H	0.255793	-0.780082	-0.250448
H287	H	-0.248851	-1.340231	-0.819234
H288	H	0.251149	-0.840231	-0.319234
H289	H	-0.305036	-1.219373	-0.696391
H290	H	0.194964	-0.719373	-0.196391
