data_functionalizedCrystal
_audit_creation_method	'MofGen! by Chris Wilmer'
_symmetry_space_group_name_H-M	'P1'
_symmetry_Int_Tables_number	1
_symmetry_cell_setting	triclinic
loop_
_symmetry_equiv_pos_as_xyz
  x,y,z
_cell_length_a	18.050590
_cell_length_b	16.625546
_cell_length_c	16.625539
_cell_angle_alpha	90.030397
_cell_angle_beta	89.995090
_cell_angle_gamma	89.988365
loop_
_atom_site_label
_atom_site_type_symbol
_atom_site_fract_x
_atom_site_fract_y
_atom_site_fract_z
Zn1	Zn	1.135364	0.321233	-0.455561
Zn2	Zn	1.468697	0.654567	-0.122227
Zn3	Zn	1.802030	0.987900	0.211106
Zn4	Zn	1.135275	0.456077	-0.320723
Zn5	Zn	1.468608	0.789410	0.012610
Zn6	Zn	1.801941	1.122743	0.345944
Zn7	Zn	1.011171	0.321236	-0.320778
Zn8	Zn	1.344504	0.654569	0.012555
Zn9	Zn	1.677837	0.987903	0.345889
Zn10	Zn	1.011143	0.456002	-0.455550
Zn11	Zn	1.344477	0.789336	-0.122216
Zn12	Zn	1.677810	1.122669	0.211117
O13	O	1.073238	0.388637	-0.388153
O14	O	1.406571	0.721970	-0.054819
O15	O	1.739905	1.055304	0.278514
O16	O	1.239276	0.339151	-0.437656
O17	O	1.572610	0.672484	-0.104322
O18	O	1.905943	1.005817	0.229011
O19	O	1.118786	0.438222	-0.207898
O20	O	1.452119	0.771555	0.125436
O21	O	1.785453	1.104889	0.458769
O22	O	1.027694	0.208403	-0.338685
O23	O	1.361027	0.541737	-0.005352
O24	O	1.694360	0.875070	0.327982
O25	O	1.239211	0.438219	-0.338591
O26	O	1.572544	0.771553	-0.005258
O27	O	1.905878	1.104886	0.328076
O28	O	1.118938	0.208401	-0.437709
O29	O	1.452271	0.541735	-0.104376
O30	O	1.785605	0.875068	0.228958
O31	O	1.027607	0.339155	-0.207938
O32	O	1.360941	0.672489	0.125395
O33	O	1.694274	1.005822	0.458728
O34	O	0.907242	0.339083	-0.338674
O35	O	1.240576	0.672416	-0.005341
O36	O	1.573909	1.005750	0.327992
O37	O	1.027647	0.438093	-0.568384
O38	O	1.360981	0.771426	-0.235050
O39	O	1.694314	1.104759	0.098283
O40	O	0.907222	0.438095	-0.437690
O41	O	1.240556	0.771429	-0.104357
O42	O	1.573889	1.104762	0.228976
O43	O	1.118912	0.339079	-0.568392
O44	O	1.452245	0.672412	-0.235058
O45	O	1.785578	1.005745	0.098275
O46	O	1.118760	0.568899	-0.338580
O47	O	1.452093	0.902232	-0.005247
O48	O	1.785426	1.235566	0.328086
O49	O	1.027561	0.568844	-0.437637
O50	O	1.360894	0.902178	-0.104304
O51	O	1.694228	1.235511	0.229030
C52	C	0.880286	0.388582	-0.388188
C53	C	1.213619	0.721915	-0.054854
C54	C	1.546953	1.055249	0.278479
C55	C	0.797740	0.388578	-0.388222
C56	C	1.131074	0.721911	-0.054888
C57	C	1.464407	1.055245	0.278445
C58	C	0.598300	0.442575	-0.441939
C59	C	0.931634	0.775908	-0.108605
C60	C	1.264967	1.109241	0.224728
C61	C	0.548902	0.369053	-0.461782
C62	C	0.882235	0.702387	-0.128448
C63	C	1.215569	1.035720	0.204885
C64	C	0.646610	0.388623	-0.388182
C65	C	0.979943	0.721956	-0.054849
C66	C	1.313276	1.055290	0.278485
C67	C	0.548926	0.462186	-0.368338
C68	C	0.882260	0.795520	-0.035005
C69	C	1.215593	1.128853	0.298328
C70	C	0.500625	0.388673	-0.388146
C71	C	0.833958	0.722006	-0.054812
C72	C	1.167291	1.055340	0.278521
C73	C	0.598299	0.315062	-0.408064
C74	C	0.931632	0.648396	-0.074730
C75	C	1.264966	0.981729	0.258603
C76	C	0.598327	0.408245	-0.314586
C77	C	0.931661	0.741578	0.018747
C78	C	1.264994	1.074912	0.352081
C79	C	0.548952	0.334673	-0.334401
C80	C	0.882285	0.668006	-0.001068
C81	C	1.215618	1.001339	0.332265
C82	C	0.730708	0.388595	-0.388205
C83	C	1.064041	0.721929	-0.054872
C84	C	1.397375	1.055262	0.278461
C85	C	0.416528	0.388692	-0.388122
C86	C	0.749862	0.722026	-0.054789
C87	C	1.083195	1.055359	0.278544
C88	C	1.073168	0.598128	-0.388119
C89	C	1.406501	0.931461	-0.054786
C90	C	1.739834	1.264795	0.278548
C91	C	1.073206	0.687749	-0.388132
C92	C	1.406539	1.021082	-0.054798
C93	C	1.739872	1.354416	0.278535
C94	C	1.073286	0.388577	-0.598462
C95	C	1.406620	0.721910	-0.265128
C96	C	1.739953	1.055244	0.068205
C97	C	1.073307	0.388551	-0.688083
C98	C	1.406640	0.721885	-0.354750
C99	C	1.739974	1.055218	-0.021416
C100	C	1.266944	0.388693	-0.388118
C101	C	1.600277	0.722026	-0.054785
C102	C	1.933610	1.055360	0.278548
C103	C	1.349489	0.388717	-0.388104
C104	C	1.682823	0.722050	-0.054770
C105	C	2.016156	1.055383	0.278563
C106	C	1.073329	0.178328	-0.388204
C107	C	1.406662	0.511662	-0.054871
C108	C	1.739996	0.844995	0.278462
C109	C	1.073368	0.088707	-0.388226
C110	C	1.406701	0.422040	-0.054893
C111	C	1.740034	0.755374	0.278440
C112	C	1.073335	1.015925	-0.388216
C113	C	1.406669	1.349258	-0.054882
C114	C	1.740002	1.682591	0.278451
C115	C	1.073297	0.924616	-0.388194
C116	C	1.406630	1.257950	-0.054861
C117	C	1.739963	1.591283	0.278472
C118	C	1.073270	0.851840	-0.388173
C119	C	1.406603	1.185173	-0.054840
C120	C	1.739937	1.518506	0.278494
C121	C	1.073233	0.760525	-0.388153
C122	C	1.406566	1.093859	-0.054820
C123	C	1.739899	1.427192	0.278514
C124	C	1.073341	0.388461	-1.016259
C125	C	1.406675	0.721794	-0.682925
C126	C	1.740008	1.055128	-0.349592
C127	C	1.073330	0.388489	-0.924950
C128	C	1.406663	0.721822	-0.591617
C129	C	1.739996	1.055156	-0.258284
C130	C	1.073324	0.388507	-0.852174
C131	C	1.406658	0.721840	-0.518840
C132	C	1.739991	1.055174	-0.185507
C133	C	1.073312	0.388533	-0.760859
C134	C	1.406645	0.721867	-0.427526
C135	C	1.739979	1.055200	-0.094193
C136	C	1.073233	0.388639	-0.178662
C137	C	1.406566	0.721972	0.154671
C138	C	1.739899	1.055305	0.488005
C139	C	1.073356	0.388437	-0.089041
C140	C	1.406689	0.721771	0.244292
C141	C	1.740023	1.055104	0.577625
H142	H	0.619970	0.488120	-0.487450
H143	H	0.953304	0.821454	-0.154116
H144	H	1.286637	1.154787	0.179217
H145	H	0.619896	0.252853	-0.424903
H146	H	0.953229	0.586187	-0.091569
H147	H	1.286562	0.919520	0.241764
H148	H	0.527420	0.289016	-0.288926
H149	H	0.860754	0.622349	0.044408
H150	H	1.194087	0.955683	0.377741
C151	C	0.627687	0.430671	-0.230552
C152	C	0.961021	0.764005	0.102781
C153	C	1.294354	1.097338	0.436114
C154	C	0.608251	0.512877	-0.193401
C155	C	0.941584	0.846210	0.139933
C156	C	1.274917	1.179544	0.473266
C157	C	0.637613	0.535314	-0.109367
C158	C	0.970946	0.868648	0.223966
C159	C	1.304279	1.201981	0.557300
C160	C	0.686411	0.475546	-0.062485
C161	C	1.019744	0.808879	0.270848
C162	C	1.353078	1.142212	0.604181
C163	C	0.705850	0.393335	-0.099637
C164	C	1.039184	0.726668	0.233696
C165	C	1.372517	1.060001	0.567030
C166	C	0.676488	0.370897	-0.183670
C167	C	1.009822	0.704231	0.149663
C168	C	1.343155	1.037564	0.482996
H169	H	0.572125	0.557126	-0.228106
H170	H	0.905458	0.890459	0.105228
H171	H	1.238792	1.223793	0.438561
H172	H	0.623222	0.596173	-0.081865
H173	H	0.956556	0.929506	0.251468
H174	H	1.289889	1.262839	0.584801
H175	H	0.708147	0.492155	-0.000279
H176	H	1.041480	0.825489	0.333054
H177	H	1.374813	1.158822	0.666388
H178	H	0.741976	0.349086	-0.064932
H179	H	1.075309	0.682419	0.268401
H180	H	1.408643	1.015752	0.601735
H181	H	0.690879	0.310039	-0.211172
H182	H	1.024212	0.643372	0.122161
H183	H	1.357545	0.976706	0.455495
H184	H	0.527235	0.524377	-0.351572
H185	H	0.860568	0.857710	-0.018238
H186	H	1.193902	1.191043	0.315095
H187	H	0.527192	0.352473	-0.524005
H188	H	0.860525	0.685806	-0.190672
H189	H	1.193859	1.019140	0.142662
