data_functionalizedCrystal
_audit_creation_method	'MofGen! by Chris Wilmer'
_symmetry_space_group_name_H-M	'P1'
_symmetry_Int_Tables_number	1
_symmetry_cell_setting	triclinic
loop_
_symmetry_equiv_pos_as_xyz
  x,y,z
_cell_length_a	15.995350
_cell_length_b	14.044220
_cell_length_c	13.101039
_cell_angle_alpha	93.659868
_cell_angle_beta	93.364563
_cell_angle_gamma	91.659374
loop_
_atom_site_label
_atom_site_type_symbol
_atom_site_fract_x
_atom_site_fract_y
_atom_site_fract_z
O1	O	0.197637	-1.262914	-0.085096
O2	O	0.190352	-0.986946	-0.085122
O3	O	0.072670	-1.132474	-0.085107
O4	O	0.315319	-1.117386	-0.085111
O5	O	0.081129	-1.122032	0.085321
O6	O	0.198810	-0.976505	0.085307
O7	O	0.206096	-1.252472	0.085333
Zn8	Zn	0.203796	-1.112831	0.112379
Zn9	Zn	0.192651	-1.126588	-0.112168
O10	O	0.323777	-1.106945	0.085318
C11	C	0.191392	-0.946411	0.000089
C12	C	0.181881	-0.841186	0.000079
C13	C	0.045658	-1.126629	0.000105
C14	C	-0.047432	-1.124760	0.000099
N15	N	0.211402	-1.103449	0.265626
C16	C	-0.385681	-1.118044	0.000102
C17	C	-0.346007	-1.014425	-0.000290
C18	C	-0.249158	-1.016272	0.000094
C19	C	-0.217872	-1.121375	0.000100
C20	C	-0.250301	-1.166533	0.097426
C21	C	-0.347127	-1.163924	0.097507
C22	C	-0.356944	-1.177939	-0.096302
C23	C	-0.260065	-1.177993	-0.097588
C24	C	-0.123033	-1.123263	0.000102
C25	C	-0.480519	-1.116159	0.000106
C26	C	0.350789	-1.112789	0.000103
C27	C	0.443879	-1.114659	0.000103
C28	C	0.205055	-1.293008	0.000120
C29	C	0.214566	-1.398233	0.000123
C30	C	0.164494	-0.648524	0.000099
C31	C	0.231950	-0.590890	0.000102
C32	C	0.222275	-0.483686	0.000114
C33	C	0.174167	-0.755738	0.000088
N34	N	0.185039	-1.135977	-0.265416
C35	C	0.221758	-1.090685	0.474668
C36	C	0.174686	-1.148739	0.525549
C37	C	0.180448	-1.141636	0.641867
C38	C	0.215997	-1.097786	0.358340
H39	H	-0.227200	-0.980363	-0.069674
H40	H	0.130059	-1.203775	0.481753
H41	H	0.266383	-1.035653	0.518459
H42	H	0.099482	-0.617354	0.000106
C43	C	-0.436854	-1.025850	-0.153406
C44	C	-0.379884	-0.964262	-0.094501
H45	H	-0.457775	-0.994876	-0.211565
H46	H	-0.409416	-1.081980	-0.175286
H47	H	-0.482014	-1.042449	-0.113318
H48	H	-0.334720	-0.947669	-0.134588
H49	H	-0.407322	-0.908115	-0.072622
H50	H	-0.365237	-0.968933	0.069108
H51	H	-0.364602	-1.122190	0.170256
C52	C	-0.275283	-0.917926	0.150838
C53	C	-0.210931	-0.955899	0.094439
H54	H	-0.251681	-0.880661	0.209090
H55	H	-0.308504	-0.878889	0.109157
H56	H	-0.309299	-0.968479	0.172530
H57	H	-0.176919	-0.905346	0.072740
H58	H	-0.177696	-0.994938	0.136127
H59	H	-0.220977	-1.126590	0.169849
C60	C	-0.144884	-1.282990	-0.111500
C61	C	-0.231970	-1.281941	-0.105499
H62	H	-0.127534	-1.347163	-0.116366
H63	H	-0.129590	-1.252040	-0.170359
H64	H	-0.118469	-1.250489	-0.051836
H65	H	-0.258386	-1.314436	-0.165167
H66	H	-0.247273	-1.312904	-0.046634
C67	C	-0.269724	-1.184520	-0.281502
C68	C	-0.231796	-1.133572	-0.194794
H69	H	-0.252269	-1.157091	-0.341510
H70	H	-0.253730	-1.249150	-0.282107
H71	H	-0.328898	-1.181856	-0.279700
H72	H	-0.172621	-1.136242	-0.196592
H73	H	-0.247785	-1.068926	-0.194189
H74	H	-0.373472	-1.239746	0.101927
H75	H	-0.230228	-1.243527	0.101050
H76	H	-0.383030	-1.254394	-0.096952
C77	C	0.312442	-0.732564	0.000033
C78	C	0.319721	-0.632965	0.000060
H79	H	0.366626	-0.758541	-0.000009
H80	H	0.285861	-0.749727	0.059472
H81	H	0.279914	-0.756970	-0.059393
H82	H	0.352244	-0.608558	0.059490
H83	H	0.346314	-0.615793	-0.059385
H84	H	-0.383676	-1.148573	-0.170069
