data_functionalizedCrystal
_audit_creation_method	'MofGen! by Chris Wilmer'
_symmetry_space_group_name_H-M	'P1'
_symmetry_Int_Tables_number	1
_symmetry_cell_setting	triclinic
loop_
_symmetry_equiv_pos_as_xyz
  x,y,z
_cell_length_a	14.519709
_cell_length_b	11.026607
_cell_length_c	10.065875
_cell_angle_alpha	100.697662
_cell_angle_beta	98.804604
_cell_angle_gamma	83.866919
loop_
_atom_site_label
_atom_site_type_symbol
_atom_site_fract_x
_atom_site_fract_y
_atom_site_fract_z
O1	O	0.375708	-1.628737	-0.113512
O2	O	0.709042	-1.295403	0.219822
O3	O	1.042375	-0.962070	0.553155
O4	O	0.331718	-1.275335	-0.113511
O5	O	0.665051	-0.942002	0.219822
O6	O	0.998385	-0.608668	0.553155
O7	O	0.221020	-1.461404	-0.113499
O8	O	0.554353	-1.128071	0.219834
O9	O	0.887686	-0.794737	0.553167
O10	O	0.486407	-1.442668	-0.113524
O11	O	0.819740	-1.109335	0.219810
O12	O	1.153073	-0.776001	0.553143
O13	O	0.242237	-1.425923	0.113487
O14	O	0.575570	-1.092590	0.446821
O15	O	0.908904	-0.759257	0.780154
O16	O	0.352935	-1.239855	0.113475
O17	O	0.686268	-0.906521	0.446808
O18	O	1.019602	-0.573188	0.780142
O19	O	0.396926	-1.593256	0.113475
O20	O	0.730259	-1.259923	0.446808
O21	O	1.063592	-0.926590	0.780141
Zn22	Zn	0.378299	-1.410922	0.149514
Zn23	Zn	0.711632	-1.077589	0.482847
Zn24	Zn	1.044966	-0.744255	0.816181
Zn25	Zn	0.350345	-1.457669	-0.149550
Zn26	Zn	0.683678	-1.124336	0.183783
Zn27	Zn	1.017011	-0.791003	0.517116
O28	O	0.507624	-1.407187	0.113463
O29	O	0.840957	-1.073854	0.446796
O30	O	1.174290	-0.740521	0.780129
C31	C	0.334211	-1.212366	-0.000018
C32	C	0.667545	-0.879033	0.333315
C33	C	1.000878	-0.545700	0.666649
C34	C	0.310019	-1.077600	-0.000017
C35	C	0.643352	-0.744266	0.333316
C36	C	0.976685	-0.410933	0.666649
C37	C	0.394432	-1.656225	-0.000022
C38	C	0.727765	-1.322892	0.333312
C39	C	1.061099	-0.989559	0.666645
C40	C	0.418624	-1.790993	-0.000031
C41	C	0.751957	-1.457660	0.333302
C42	C	1.085290	-1.124327	0.666636
C43	C	0.197125	-1.442790	-0.000006
C44	C	0.530458	-1.109457	0.333328
C45	C	0.863791	-0.776124	0.666661
C46	C	0.094312	-1.440173	-0.000005
C47	C	0.427646	-1.106840	0.333328
C48	C	0.760979	-0.773506	0.666662
C49	C	-0.282174	-1.430544	-0.000040
C50	C	0.051159	-1.097210	0.333293
C51	C	0.384492	-0.763877	0.666626
C52	C	-0.177425	-1.433218	-0.000030
C53	C	0.155909	-1.099884	0.333303
C54	C	0.489242	-0.766551	0.666637
C55	C	-0.093934	-1.435358	-0.000021
C56	C	0.239399	-1.102025	0.333312
C57	C	0.572732	-0.768691	0.666645
C58	C	0.010822	-1.438033	-0.000014
C59	C	0.344155	-1.104700	0.333320
C60	C	0.677489	-0.771366	0.666653
C61	C	0.531519	-1.425802	-0.000034
C62	C	0.864852	-1.092468	0.333300
C63	C	1.198185	-0.759135	0.666633
C64	C	0.634330	-1.428420	-0.000043
C65	C	0.967664	-1.095087	0.333290
C66	C	1.300997	-0.761753	0.666623
N67	N	0.397378	-1.379027	0.353617
N68	N	0.730711	-1.045694	0.686951
N69	N	1.064045	-0.712361	1.020284
C70	C	0.376818	-1.003940	-0.000024
C71	C	0.710151	-0.670607	0.333309
C72	C	1.043484	-0.337273	0.666642
C73	C	0.351815	-0.864652	-0.000024
C74	C	0.685148	-0.531318	0.333309
C75	C	1.018482	-0.197985	0.666643
N76	N	0.331260	-1.489574	-0.353654
N77	N	0.664593	-1.156240	-0.020321
N78	N	0.997927	-0.822907	0.313013
C79	C	0.356976	-1.446564	0.421401
C80	C	0.690309	-1.113231	0.754734
C81	C	1.023642	-0.779898	1.088067
C82	C	0.371668	-1.422027	0.578566
C83	C	0.705001	-1.088693	0.911900
C84	C	1.038335	-0.755360	1.245233
H85	H	0.452517	-1.043996	-0.000024
H86	H	0.785850	-0.710662	0.333310
H87	H	1.119184	-0.377329	0.666643
H88	H	0.276108	-0.824606	-0.000052
H89	H	0.609442	-0.491272	0.333281
H90	H	0.942775	-0.157939	0.666615
H91	H	0.494329	-0.831041	-0.000029
H92	H	0.827662	-0.497708	0.333304
H93	H	1.160995	-0.164375	0.666638
H94	H	0.234317	-1.037548	-0.000045
H95	H	0.567650	-0.704215	0.333288
H96	H	0.900983	-0.370882	0.666621
H97	H	0.311504	-1.522548	0.363081
H98	H	0.644837	-1.189214	0.696415
H99	H	0.978171	-0.855881	1.029748
Cl100	Cl	0.261296	-1.607161	0.556321
Cl101	Cl	0.594629	-1.273828	0.889655
Cl102	Cl	0.927963	-0.940494	1.222988
H103	H	0.417134	-1.346030	0.636882
H104	H	0.750468	-1.012697	0.970216
H105	H	1.083801	-0.679363	1.303549
Cl106	Cl	0.467572	-1.261699	0.443651
Cl107	Cl	0.800905	-0.928366	0.776985
Cl108	Cl	1.134239	-0.595032	1.110318
