data_functionalizedCrystal
_audit_creation_method	'MofGen! by Chris Wilmer'
_symmetry_space_group_name_H-M	'P1'
_symmetry_Int_Tables_number	1
_symmetry_cell_setting	triclinic
loop_
_symmetry_equiv_pos_as_xyz
  x,y,z
_cell_length_a	16.625546
_cell_length_b	13.897449
_cell_length_c	13.897441
_cell_angle_alpha	90.020733
_cell_angle_beta	89.966553
_cell_angle_gamma	89.976252
loop_
_atom_site_label
_atom_site_type_symbol
_atom_site_fract_x
_atom_site_fract_y
_atom_site_fract_z
Zn1	Zn	-0.320948	-1.474671	-0.545362
Zn2	Zn	-0.070948	-1.224671	-0.295362
Zn3	Zn	0.179052	-0.974671	-0.045362
Zn4	Zn	0.429052	-0.724671	0.204638
Zn5	Zn	-0.455799	-1.474551	-0.384055
Zn6	Zn	-0.205799	-1.224551	-0.134055
Zn7	Zn	0.044201	-0.974551	0.115945
Zn8	Zn	0.294201	-0.724551	0.365945
Zn9	Zn	-0.320987	-1.313360	-0.384080
Zn10	Zn	-0.070987	-1.063360	-0.134080
Zn11	Zn	0.179013	-0.813360	0.115920
Zn12	Zn	0.429013	-0.563360	0.365920
Zn13	Zn	-0.455746	-1.313328	-0.545308
Zn14	Zn	-0.205746	-1.063328	-0.295308
Zn15	Zn	0.044254	-0.813328	-0.045308
Zn16	Zn	0.294254	-0.563328	0.204692
O17	O	-0.388370	-1.393977	-0.464702
O18	O	-0.138370	-1.143977	-0.214702
O19	O	0.111630	-0.893977	0.035298
O20	O	0.361630	-0.643977	0.285298
O21	O	-0.338843	-1.609636	-0.523977
O22	O	-0.088843	-1.359636	-0.273977
O23	O	0.161157	-1.109636	-0.023977
O24	O	0.411157	-0.859636	0.226023
O25	O	-0.437954	-1.453132	-0.249077
O26	O	-0.187954	-1.203132	0.000923
O27	O	0.062046	-0.953132	0.250923
O28	O	0.312046	-0.703132	0.500923
O29	O	-0.208149	-1.334821	-0.405508
O30	O	0.041851	-1.084821	-0.155508
O31	O	0.291851	-0.834821	0.094492
O32	O	0.541851	-0.584821	0.344492
O33	O	-0.437917	-1.609549	-0.405465
O34	O	-0.187917	-1.359549	-0.155465
O35	O	0.062083	-1.109549	0.094535
O36	O	0.312083	-0.859549	0.344535
O37	O	-0.208121	-1.453336	-0.524001
O38	O	0.041879	-1.203336	-0.274001
O39	O	0.291879	-0.953336	-0.024001
O40	O	0.541879	-0.703336	0.225999
O41	O	-0.338908	-1.334705	-0.249095
O42	O	-0.088908	-1.084705	0.000905
O43	O	0.161092	-0.834705	0.250905
O44	O	0.411092	-0.584705	0.500905
O45	O	-0.338857	-1.178374	-0.405455
O46	O	-0.088857	-0.928374	-0.155455
O47	O	0.161143	-0.678374	0.094545
O48	O	0.411143	-0.428374	0.344545
O49	O	-0.437826	-1.334767	-0.680297
O50	O	-0.187826	-1.084767	-0.430297
O51	O	0.062174	-0.834767	-0.180297
O52	O	0.312174	-0.584767	0.069703
O53	O	-0.437864	-1.178351	-0.523909
O54	O	-0.187864	-0.928351	-0.273909
O55	O	0.062136	-0.678351	-0.023909
O56	O	0.312136	-0.428351	0.226091
O57	O	-0.338791	-1.453305	-0.680337
O58	O	-0.088791	-1.203305	-0.430337
O59	O	0.161209	-0.953305	-0.180337
O60	O	0.411209	-0.703305	0.069663
O61	O	-0.568624	-1.453101	-0.405413
O62	O	-0.318624	-1.203101	-0.155413
O63	O	-0.068624	-0.953101	0.094587
O64	O	0.181376	-0.703101	0.344587
O65	O	-0.568585	-1.334651	-0.523884
O66	O	-0.318585	-1.084651	-0.273884
O67	O	-0.068585	-0.834651	-0.023884
O68	O	0.181415	-0.584651	0.226116
C69	C	-0.597861	-1.393886	-0.464661
C70	C	-0.347861	-1.143886	-0.214661
C71	C	-0.097861	-0.893886	0.035339
C72	C	0.152139	-0.643886	0.285339
C73	C	-0.687482	-1.393935	-0.464676
C74	C	-0.437482	-1.143935	-0.214676
C75	C	-0.187482	-0.893935	0.035324
C76	C	0.062518	-0.643935	0.285324
C77	C	-0.388359	-1.143363	-0.464680
C78	C	-0.138359	-0.893363	-0.214680
C79	C	0.111641	-0.643363	0.035320
C80	C	0.361641	-0.393363	0.285320
C81	C	-0.388374	-1.036149	-0.464693
C82	C	-0.138374	-0.786149	-0.214693
C83	C	0.111626	-0.536149	0.035307
C84	C	0.361626	-0.286149	0.285307
C85	C	-0.388299	-1.394046	-0.716295
C86	C	-0.138299	-1.144046	-0.466295
C87	C	0.111701	-0.894046	-0.216295
C88	C	0.361701	-0.644046	0.033705
C89	C	-0.388268	-1.394075	-0.823509
C90	C	-0.138268	-1.144075	-0.573509
C91	C	0.111732	-0.894075	-0.323509
C92	C	0.361732	-0.644075	-0.073509
C93	C	-1.015657	-1.394104	-0.464777
C94	C	-0.765657	-1.144104	-0.214777
C95	C	-0.515657	-0.894104	0.035223
C96	C	-0.265657	-0.644104	0.285223
C97	C	-0.924349	-1.394054	-0.464751
C98	C	-0.674349	-1.144054	-0.214751
C99	C	-0.424349	-0.894054	0.035249
C100	C	-0.174349	-0.644054	0.285249
C101	C	-0.851573	-1.394019	-0.464726
C102	C	-0.601573	-1.144019	-0.214726
C103	C	-0.351573	-0.894019	0.035274
C104	C	-0.101573	-0.644019	0.285274
C105	C	-0.760258	-1.393970	-0.464702
C106	C	-0.510258	-1.143970	-0.214702
C107	C	-0.260258	-0.893970	0.035298
C108	C	-0.010258	-0.643970	0.285298
C109	C	-0.178061	-1.394095	-0.464763
C110	C	0.071939	-1.144095	-0.214763
C111	C	0.321939	-0.894095	0.035237
C112	C	0.571939	-0.644095	0.285237
C113	C	-0.088440	-1.394146	-0.464789
C114	C	0.161560	-1.144146	-0.214789
C115	C	0.411560	-0.894146	0.035211
C116	C	0.661560	-0.644146	0.285211
C117	C	-0.388381	-1.645570	-0.464724
C118	C	-0.138381	-1.395570	-0.214724
C119	C	0.111619	-1.145570	0.035276
C120	C	0.361619	-0.895570	0.285276
C121	C	-0.388386	-1.752784	-0.464734
C122	C	-0.138386	-1.502784	-0.214734
C123	C	0.111614	-1.252784	0.035266
C124	C	0.361614	-1.002784	0.285266
C125	C	-0.388377	-0.839854	-0.464718
C126	C	-0.138377	-0.589854	-0.214718
C127	C	0.111623	-0.339854	0.035282
C128	C	0.361623	-0.089854	0.285282
C129	C	-0.388373	-0.949086	-0.464702
C130	C	-0.138373	-0.699086	-0.214702
C131	C	0.111627	-0.449086	0.035298
C132	C	0.361627	-0.199086	0.285298
C133	C	-0.388214	-1.394101	-1.019804
C134	C	-0.138214	-1.144101	-0.769804
C135	C	0.111786	-0.894101	-0.519804
C136	C	0.361786	-0.644101	-0.269804
C137	C	-0.388246	-1.394084	-0.910571
C138	C	-0.138246	-1.144084	-0.660571
C139	C	0.111754	-0.894084	-0.410571
C140	C	0.361754	-0.644084	-0.160571
C141	C	-0.388383	-1.393965	-0.214087
C142	C	-0.138383	-1.143965	0.035913
C143	C	0.111617	-0.893965	0.285913
C144	C	0.361617	-0.643965	0.535913
C145	C	-0.388186	-1.394122	-0.106874
C146	C	-0.138186	-1.144122	0.143126
C147	C	0.111814	-0.894122	0.393126
C148	C	0.361814	-0.644122	0.643126
