data_functionalizedCrystal
_audit_creation_method	'MofGen! by Chris Wilmer'
_symmetry_space_group_name_H-M	'P1'
_symmetry_Int_Tables_number	1
_symmetry_cell_setting	triclinic
loop_
_symmetry_equiv_pos_as_xyz
  x,y,z
_cell_length_a	21.395362
_cell_length_b	13.032721
_cell_length_c	21.395356
_cell_angle_alpha	97.156746
_cell_angle_beta	89.957023
_cell_angle_gamma	97.222741
loop_
_atom_site_label
_atom_site_type_symbol
_atom_site_fract_x
_atom_site_fract_y
_atom_site_fract_z
Zn1	Zn	0.926248	-0.415642	-0.386225
Zn2	Zn	1.426248	0.084358	0.113775
Zn3	Zn	0.912863	-0.590407	-0.294751
Zn4	Zn	1.412863	-0.090407	0.205249
Zn5	Zn	0.821459	-0.415719	-0.281432
Zn6	Zn	1.321459	0.084281	0.218568
Zn7	Zn	0.808143	-0.590401	-0.399455
Zn8	Zn	1.308143	-0.090401	0.100545
O9	O	0.867178	-0.503042	-0.340466
O10	O	1.367178	-0.003042	0.159534
O11	O	1.012153	-0.438796	-0.374128
O12	O	1.512153	0.061204	0.125872
O13	O	0.900709	-0.567269	-0.205309
O14	O	1.400709	-0.067269	0.294691
O15	O	0.846534	-0.269463	-0.284222
O16	O	1.346534	0.230537	0.215778
O17	O	1.002319	-0.567195	-0.306922
O18	O	1.502319	-0.067195	0.193078
O19	O	0.923522	-0.269407	-0.361213
O20	O	1.423522	0.230593	0.138787
O21	O	0.833555	-0.438926	-0.195524
O22	O	1.333555	0.061074	0.304476
O23	O	0.732012	-0.438920	-0.297051
O24	O	1.232012	0.061080	0.202949
O25	O	0.823839	-0.567184	-0.485375
O26	O	1.323839	-0.067184	0.014625
O27	O	0.722230	-0.567258	-0.383762
O28	O	1.222230	-0.067258	0.116238
O29	O	0.910610	-0.438789	-0.475655
O30	O	1.410610	0.061211	0.024345
O31	O	0.887797	-0.736651	-0.319751
O32	O	1.387797	-0.236651	0.180249
O33	O	0.810860	-0.736647	-0.396677
O34	O	1.310860	-0.236647	0.103323
C35	C	0.704386	-0.503097	-0.340397
C36	C	1.204386	-0.003097	0.159603
C37	C	0.634741	-0.503146	-0.340385
C38	C	1.134741	-0.003146	0.159615
C39	C	0.596944	-0.570061	-0.385482
C40	C	1.096944	-0.070061	0.114518
C41	C	0.531511	-0.570035	-0.385508
C42	C	1.031511	-0.070035	0.114492
C43	C	0.503876	-0.503106	-0.340426
C44	C	1.003876	-0.003106	0.159574
C45	C	0.541682	-0.436179	-0.295325
C46	C	1.041682	0.063821	0.204675
C47	C	0.607115	-0.436199	-0.295305
C48	C	1.107115	0.063801	0.204695
C49	C	0.400791	-0.494702	-0.283381
C50	C	0.900791	0.005298	0.216619
C51	C	0.335359	-0.494689	-0.283402
C52	C	0.835359	0.005311	0.216598
C53	C	0.302061	-0.503038	-0.340490
C54	C	0.802061	-0.003038	0.159510
C55	C	0.334200	-0.511421	-0.397562
C56	C	0.834200	-0.011421	0.102438
C57	C	0.399633	-0.511441	-0.397541
C58	C	0.899633	-0.011441	0.102459
C59	C	0.432926	-0.503076	-0.340444
C60	C	0.932926	-0.003076	0.159556
C61	C	0.193313	-0.569928	-0.385619
C62	C	0.693313	-0.069928	0.114381
C63	C	0.127879	-0.569895	-0.385646
C64	C	0.627879	-0.069895	0.114354
C65	C	0.138051	-0.436044	-0.295458
C66	C	0.638051	0.063956	0.204542
C67	C	0.203485	-0.436072	-0.295437
C68	C	0.703485	0.063928	0.204563
C69	C	0.231111	-0.503019	-0.340517
C70	C	0.731111	-0.003019	0.159483
C71	C	0.846449	-0.774569	-0.361108
C72	C	1.346449	-0.274569	0.138892
C73	C	0.837638	-0.890729	-0.369960
C74	C	1.337638	-0.390729	0.130040
C75	C	0.871810	-0.942484	-0.335874
C76	C	1.371810	-0.442484	0.164126
C77	C	0.862704	-1.062542	-0.345022
C78	C	1.362704	-0.562542	0.154978
C79	C	1.030606	-0.502987	-0.340535
C80	C	1.530606	-0.002987	0.159465
C81	C	1.100249	-0.502964	-0.340564
C82	C	1.600249	-0.002964	0.159436
C83	C	0.867232	-0.502977	-0.503884
C84	C	1.367232	-0.002977	-0.003884
C85	C	0.867256	-0.502950	-0.573523
C86	C	1.367256	-0.002950	-0.073523
C87	C	0.888006	-0.230455	-0.319756
C88	C	1.388006	0.269545	0.180244
C89	C	0.896882	-0.114295	-0.310931
C90	C	1.396882	0.385705	0.189069
C91	C	0.832300	-0.436114	-0.601131
C92	C	1.332300	0.063886	-0.101131
C93	C	0.832299	-0.436095	-0.666565
C94	C	1.332299	0.063905	-0.166565
C95	C	0.867266	-0.502900	-0.704388
C96	C	1.367266	-0.002900	-0.204388
C97	C	0.902224	-0.569749	-0.676774
C98	C	1.402224	-0.069749	-0.176774
C99	C	0.902219	-0.569774	-0.611341
C100	C	1.402219	-0.069774	-0.111341
C101	C	0.923096	-0.511090	-0.808717
C102	C	1.423096	-0.011090	-0.308717
C103	C	0.923102	-0.511058	-0.874147
C104	C	1.423102	-0.011058	-0.374147
C105	C	0.867282	-0.502829	-0.906203
C106	C	1.367282	-0.002829	-0.406203
C107	C	0.811454	-0.494611	-0.872819
C108	C	1.311454	0.005389	-0.372819
C109	C	0.811449	-0.494636	-0.807387
C110	C	1.311449	0.005364	-0.307387
C111	C	0.867276	-0.502881	-0.775339
C112	C	1.367276	-0.002881	-0.275339
C113	C	0.832322	-0.435969	-1.004762
C114	C	1.332322	0.064031	-0.504762
C115	C	0.832320	-0.435957	-1.070197
C116	C	1.332320	0.064043	-0.570197
C117	C	0.902251	-0.569606	-1.080404
C118	C	1.402251	-0.069606	-0.580404
C119	C	0.902247	-0.569623	-1.014970
C120	C	1.402247	-0.069623	-0.514970
C121	C	0.867284	-0.502799	-0.977152
C122	C	1.367284	-0.002799	-0.477152
C123	C	0.867166	-0.503031	-0.177677
C124	C	1.367166	-0.003031	0.322323
C125	C	0.867287	-0.502764	-0.108016
C126	C	1.367287	-0.002764	0.391984
H127	H	0.619433	-0.624573	-0.422191
H128	H	1.119433	-0.124573	0.077809
O129	O	0.983314	-0.519920	-0.910150
O130	O	1.483314	-0.019920	-0.410150
H131	H	0.995066	-0.449891	-0.934640
H132	H	1.495066	0.050109	-0.434640
O133	O	0.944574	-1.055270	-0.263304
O134	O	1.444574	-0.555270	0.236696
H135	H	0.932280	-1.076234	-0.215702
H136	H	1.432280	-0.576234	0.284298
H137	H	0.427898	-0.487899	-0.236889
H138	H	0.927898	0.012101	0.263111
H139	H	0.234260	-0.381588	-0.258711
H140	H	0.734260	0.118412	0.241289
O141	O	0.815019	-1.121572	-0.392654
O142	O	1.315019	-0.621572	0.107346
H143	H	0.791375	-1.065397	-0.416235
H144	H	1.291375	-0.565397	0.083765
H145	H	0.907810	-0.897915	-0.299921
H146	H	1.407810	-0.397915	0.200079
O147	O	0.751240	-0.485764	-0.771381
O148	O	1.251240	0.014236	-0.271381
H149	H	0.715396	-0.552221	-0.788959
H150	H	1.215396	-0.052221	-0.288959
H151	H	0.801643	-0.935301	-0.405918
H152	H	1.301643	-0.435301	0.094082
O153	O	0.794594	-0.364033	-0.560345
O154	O	1.294594	0.135967	-0.060345
H155	H	0.744049	-0.381960	-0.574227
H156	H	1.244049	0.118040	-0.074227
O157	O	0.647890	-0.364030	-0.246661
O158	O	1.147890	0.135970	0.253339
H159	H	0.674087	-0.410752	-0.218285
H160	H	1.174087	0.089248	0.281715
H161	H	0.425798	-0.518264	-0.444011
H162	H	0.925798	-0.018264	0.055989
O163	O	0.939943	-0.641802	-0.717563
O164	O	1.439943	-0.141802	-0.217563
H165	H	0.934080	-0.630548	-0.767700
H166	H	1.434080	-0.130548	-0.267700
O167	O	0.983306	-0.519958	-0.774143
O168	O	1.483306	-0.019958	-0.274143
H169	H	1.022128	-0.525649	-0.808346
H170	H	1.522128	-0.025649	-0.308346
H171	H	0.803835	-0.381664	-0.689047
H172	H	1.303835	0.118336	-0.189047
O173	O	0.751239	-0.485745	-0.907383
O174	O	1.251239	0.014255	-0.407383
H175	H	0.760617	-0.487123	-0.958491
H176	H	1.260617	0.012877	-0.458491
O177	O	0.939935	-0.641850	-0.581563
O178	O	1.439935	-0.141850	-0.081563
H179	H	0.922930	-0.723874	-0.600345
H180	H	1.422930	-0.223874	-0.100345
H181	H	0.500730	-0.624524	-0.422234
H182	H	1.000730	-0.124524	0.077766
H183	H	0.307090	-0.518218	-0.444049
H184	H	0.807090	-0.018218	0.055951
O185	O	0.223119	-0.642116	-0.434245
O186	O	0.723119	-0.142116	0.065755
H187	H	0.185841	-0.688630	-0.465617
H188	H	0.685841	-0.188630	0.034383
H189	H	0.097105	-0.624383	-0.422373
H190	H	0.597105	-0.124383	0.077627
H191	H	0.803853	-0.381558	-0.973969
H192	H	1.303853	0.118442	-0.473969
H193	H	0.115552	-0.381544	-0.258754
H194	H	0.615552	0.118456	0.241246
O195	O	0.794619	-0.363863	-1.099979
O196	O	1.294619	0.136137	-0.599979
H197	H	0.770313	-0.317395	-1.062686
H198	H	1.270313	0.182605	-0.562686
O199	O	0.939969	-0.641662	-1.121189
O200	O	1.439969	-0.141662	-0.621189
H201	H	0.934103	-0.630414	-1.171327
H202	H	1.434103	-0.130414	-0.671327
O203	O	0.939965	-0.641687	-0.985185
O204	O	1.439965	-0.141687	-0.485185
H205	H	0.964288	-0.688129	-1.022476
H206	H	1.464288	-0.188129	-0.522476
O207	O	0.300703	-0.485648	-0.221846
O208	O	0.800703	0.014352	0.278154
H209	H	0.265526	-0.555640	-0.220705
H210	H	0.765526	-0.055640	0.279295
H211	H	0.519179	-0.381683	-0.258621
H212	H	1.019179	0.118317	0.241379
