data_functionalizedCrystal
_audit_creation_method	'MofGen! by Chris Wilmer'
_symmetry_space_group_name_H-M	'P1'
_symmetry_Int_Tables_number	1
_symmetry_cell_setting	triclinic
loop_
_symmetry_equiv_pos_as_xyz
  x,y,z
_cell_length_a	14.971482
_cell_length_b	19.188924
_cell_length_c	14.048226
_cell_angle_alpha	89.991497
_cell_angle_beta	89.994098
_cell_angle_gamma	83.377286
loop_
_atom_site_label
_atom_site_type_symbol
_atom_site_fract_x
_atom_site_fract_y
_atom_site_fract_z
O1	O	1.186466	0.090976	-0.079153
O2	O	1.686466	0.590976	0.420847
O3	O	0.926007	0.101875	-0.079158
O4	O	1.426007	0.601875	0.420842
O5	O	1.063756	-0.005207	-0.079144
O6	O	1.563756	0.494793	0.420856
O7	O	1.048717	0.198057	-0.079167
O8	O	1.548717	0.698057	0.420833
O9	O	1.063739	-0.005213	0.079177
O10	O	1.563739	0.494787	0.579177
O11	O	0.925991	0.101868	0.079163
O12	O	1.425991	0.601868	0.579163
O13	O	1.186449	0.090969	0.079169
O14	O	1.686449	0.590969	0.579169
Zn15	Zn	1.056217	0.096418	0.104303
Zn16	Zn	1.556217	0.596418	0.604303
Zn17	Zn	1.056239	0.096426	-0.104292
Zn18	Zn	1.556239	0.596426	0.395708
O19	O	1.048700	0.198051	0.079155
O20	O	1.548700	0.698051	0.579155
C21	C	0.892677	0.101384	0.000002
C22	C	1.392677	0.601384	0.500002
C23	C	0.793387	0.099925	0.000001
C24	C	1.293387	0.599925	0.500001
C25	C	0.746737	0.099234	0.086303
C26	C	1.246737	0.599234	0.586303
C27	C	0.653446	0.097852	0.086304
C28	C	1.153446	0.597852	0.586304
C29	C	0.606806	0.097166	0.000002
C30	C	1.106806	0.597166	0.500002
C31	C	0.653463	0.097854	-0.086307
C32	C	1.153463	0.597854	0.413693
C33	C	0.746753	0.099232	-0.086307
C34	C	1.246753	0.599232	0.413693
C35	C	0.459016	0.094986	-0.086300
C36	C	0.959016	0.594986	0.413700
C37	C	0.365719	0.093610	-0.086300
C38	C	0.865719	0.593610	0.413700
C39	C	0.365709	0.093606	0.086311
C40	C	0.865709	0.593606	0.586311
C41	C	0.458999	0.094983	0.086310
C42	C	0.958999	0.594983	0.586310
C43	C	0.505650	0.095673	0.000001
C44	C	1.005650	0.595673	0.500001
C45	C	1.063262	-0.031223	0.000018
C46	C	1.563262	0.468777	0.500018
C47	C	1.061803	-0.108732	0.000020
C48	C	1.561803	0.391268	0.500020
C49	C	1.061131	-0.145130	-0.086281
C50	C	1.561131	0.354870	0.413719
C51	C	1.059747	-0.217957	-0.086288
C52	C	1.559747	0.282043	0.413712
C53	C	1.059054	-0.254385	0.000010
C54	C	1.559054	0.245615	0.500010
C55	C	1.059721	-0.217978	0.086323
C56	C	1.559721	0.282022	0.586323
C57	C	1.061095	-0.145152	0.086328
C58	C	1.561095	0.354848	0.586328
N59	N	1.107789	-0.373895	0.064242
N60	N	1.607789	0.126105	0.564242
N61	N	1.106486	-0.443077	0.064231
N62	N	1.606486	0.056923	0.564231
C63	C	1.054911	-0.473808	0.000001
C64	C	1.554911	0.026192	0.500001
N65	N	1.004700	-0.432743	-0.064232
N66	N	1.504700	0.067257	0.435768
N67	N	1.006008	-0.363555	-0.064225
N68	N	1.506008	0.136445	0.435775
C69	C	1.057563	-0.333354	0.000015
C70	C	1.557563	0.166646	0.500015
C71	C	1.052738	-0.589173	-0.086314
C72	C	1.552738	-0.089173	0.413686
C73	C	1.051348	-0.662001	-0.086317
C74	C	1.551348	-0.162001	0.413683
C75	C	1.051331	-0.662022	0.086296
C76	C	1.551331	-0.162022	0.586296
C77	C	1.052711	-0.589194	0.086298
C78	C	1.552711	-0.089194	0.586298
C79	C	1.053418	-0.552775	-0.000010
C80	C	1.553418	-0.052775	0.499990
C81	C	1.219780	0.091460	0.000006
C82	C	1.719780	0.591460	0.500006
C83	C	1.319069	0.092919	0.000002
C84	C	1.819069	0.592919	0.500002
C85	C	1.049195	0.224067	-0.000009
C86	C	1.549195	0.724067	0.499991
C87	C	1.050653	0.301576	-0.000018
C88	C	1.550653	0.801576	0.499982
N89	N	1.056209	0.096412	0.246664
N90	N	1.556209	0.596412	0.746664
N91	N	1.056254	0.096427	-0.246653
N92	N	1.556254	0.596427	0.253347
C93	C	1.117223	0.049016	0.296488
C94	C	1.617223	0.549016	0.796488
C95	C	1.117229	0.049015	0.396145
C96	C	1.617229	0.549015	0.896145
C97	C	1.056225	0.096415	0.445977
C98	C	1.556225	0.596415	0.945977
C99	C	0.995204	0.143813	0.396146
C100	C	1.495204	0.643813	0.896146
C101	C	0.995194	0.143810	0.296490
C102	C	1.495194	0.643810	0.796490
C103	C	0.995230	0.143818	0.603860
C104	C	1.495230	0.643818	1.103860
C105	C	0.995240	0.143823	0.703523
C106	C	1.495240	0.643823	1.203523
C107	C	1.117265	0.049024	0.703516
C108	C	1.617265	0.549024	1.203516
C109	C	1.117255	0.049020	0.603860
C110	C	1.617255	0.549020	1.103860
C111	C	1.056235	0.096420	0.554035
C112	C	1.556235	0.596420	1.054035
H113	H	0.496996	0.095548	-0.156582
H114	H	0.996996	0.595548	0.343418
H115	H	0.496971	0.095547	0.156585
H116	H	0.996971	0.595547	0.656585
H117	H	0.327722	0.093044	0.156587
H118	H	0.827722	0.593044	0.656587
H119	H	0.327747	0.093051	-0.156575
H120	H	0.827747	0.593051	0.343425
H121	H	1.050759	-0.691680	0.156563
H122	H	1.550759	-0.191680	0.656563
F123	F	0.930273	0.194257	0.449181
F124	F	1.430273	0.694257	0.949181
H125	H	0.784704	0.099799	0.156580
H126	H	1.284704	0.599799	0.656580
H127	H	1.061639	-0.115517	0.156607
H128	H	1.561639	0.384483	0.656607
H129	H	1.050797	-0.691634	-0.156597
H130	H	1.550797	-0.191634	0.343403
F131	F	0.930282	0.194265	0.550838
F132	F	1.430282	0.694265	1.050838
H133	H	1.166904	0.010421	0.255921
H134	H	1.666904	0.510421	0.755921
F135	F	1.058977	-0.256748	0.178168
F136	F	1.558977	0.243252	0.678168
F137	F	0.603800	0.097127	0.178159
F138	F	1.103800	0.597127	0.678159
H139	H	0.615482	0.097290	-0.156575
H140	H	1.115482	0.597290	0.343425
H141	H	0.784734	0.099795	-0.156583
H142	H	1.284734	0.599795	0.343417
H143	H	0.945509	0.182403	0.255924
H144	H	1.445509	0.682403	0.755924
F145	F	1.182187	-0.001423	0.550825
F146	F	1.682187	0.498577	1.050825
F147	F	1.182166	-0.001429	0.449172
F148	F	1.682166	0.498571	0.949172
F149	F	1.061879	-0.106373	-0.178138
F150	F	1.561879	0.393627	0.321862
H151	H	1.059195	-0.247597	-0.156567
H152	H	1.559195	0.252403	0.343433
F153	F	1.053485	-0.550409	-0.178169
F154	F	1.553485	-0.050409	0.321831
H155	H	1.053265	-0.559560	0.156574
H156	H	1.553265	-0.059560	0.656574
H157	H	1.166948	0.010430	0.744088
H158	H	1.666948	0.510430	1.244088
H159	H	0.945563	0.182420	0.744091
H160	H	1.445563	0.682420	1.244091
