data_functionalizedCrystal
_audit_creation_method	'MofGen! by Chris Wilmer'
_symmetry_space_group_name_H-M	'P1'
_symmetry_Int_Tables_number	1
_symmetry_cell_setting	triclinic
loop_
_symmetry_equiv_pos_as_xyz
  x,y,z
_cell_length_a	17.699083
_cell_length_b	16.776229
_cell_length_c	17.699083
_cell_angle_alpha	90.007545
_cell_angle_beta	83.283015
_cell_angle_gamma	90.001114
loop_
_atom_site_label
_atom_site_type_symbol
_atom_site_fract_x
_atom_site_fract_y
_atom_site_fract_z
O1	O	1.004078	0.066178	0.095713
O2	O	0.783700	0.066204	0.108165
O3	O	0.900116	0.066183	-0.008250
O4	O	0.887663	0.066199	0.212128
O5	O	0.900100	-0.066393	-0.008257
O6	O	0.783685	-0.066372	0.108158
O7	O	1.004063	-0.066398	0.095706
Zn8	Zn	0.893871	-0.087435	0.101931
Zn9	Zn	0.893892	0.087241	0.101940
O10	O	0.887648	-0.066378	0.212121
C11	C	0.755495	-0.000081	0.107716
C12	C	0.671477	-0.000071	0.106377
N13	N	0.893863	-0.206646	0.101924
C14	C	0.622856	-0.000066	0.174710
C15	C	0.543913	-0.000077	0.173448
C16	C	0.513592	-0.000086	0.103852
C17	C	0.562219	-0.000093	0.035513
C18	C	0.641161	-0.000088	0.036776
C19	C	0.243856	-0.000113	0.030418
C20	C	0.164908	-0.000115	0.029160
C21	C	0.146608	-0.000101	0.167090
C22	C	0.225550	-0.000097	0.168353
C23	C	0.274170	-0.000108	0.100015
C24	C	0.359769	-0.000098	0.101384
C25	C	0.427995	-0.000090	0.102481
C26	C	0.945428	-0.248372	0.050396
C27	C	0.945432	-0.331824	0.050396
C28	C	0.893875	-0.373549	0.101927
C29	C	0.842305	-0.331817	0.153457
C30	C	0.842297	-0.248366	0.153454
C31	C	0.842332	-0.668364	0.153472
C32	C	0.842345	-0.751820	0.153473
C33	C	0.945466	-0.751822	0.050414
C34	C	0.945459	-0.668372	0.050411
C35	C	0.893887	-0.626647	0.101938
C36	C	0.893882	-0.536158	0.101937
C37	C	0.893882	-0.464036	0.101932
C38	C	1.032268	-0.000112	0.096156
C39	C	1.116286	-0.000116	0.097494
C40	C	0.899662	-0.000105	-0.036451
C41	C	0.898323	-0.000105	-0.120469
N42	N	0.893906	0.206452	0.101941
C43	C	0.966656	-0.000114	-0.169090
C44	C	0.965394	-0.000107	-0.248033
C45	C	0.895798	-0.000096	-0.278354
C46	C	0.827459	-0.000085	-0.229727
C47	C	0.828722	-0.000086	-0.150785
C48	C	0.822364	-0.000078	-0.548090
C49	C	0.821106	-0.000078	-0.627038
C50	C	0.959036	-0.000099	-0.645338
C51	C	0.960299	-0.000100	-0.566396
C52	C	0.891961	-0.000084	-0.517776
C53	C	0.893330	-0.000090	-0.432177
C54	C	0.894427	-0.000096	-0.363951
C55	C	0.888102	-0.000087	0.240322
C56	C	0.889440	-0.000082	0.324340
H57	H	0.647537	-0.000058	0.231384
C58	C	1.002192	-0.797721	-0.006274
C59	C	1.088371	-0.786236	-0.005107
C60	C	1.145097	-0.832132	-0.061792
C61	C	1.115645	-0.889512	-0.119645
C62	C	1.029462	-0.900999	-0.120814
C63	C	0.972736	-0.855104	-0.064129
H64	H	1.110177	-0.743758	0.037720
H65	H	1.208896	-0.823628	-0.060927
H66	H	1.157637	-0.923487	-0.161606
H67	H	1.007656	-0.943478	-0.163641
H68	H	0.908937	-0.863608	-0.064995
H69	H	0.800358	-0.785791	0.195437
C70	C	1.040562	-0.000117	-0.301516
C71	C	1.117117	-0.000135	-0.268166
C72	C	1.192289	-0.000142	-0.321649
C73	C	1.190906	-0.000132	-0.408483
C74	C	1.114348	-0.000115	-0.441838
C75	C	1.039177	-0.000108	-0.388354
H76	H	1.118143	-0.000142	-0.203882
H77	H	1.248962	-0.000155	-0.296958
H78	H	1.246552	-0.000138	-0.448075
H79	H	1.113322	-0.000108	-0.506121
H80	H	0.982504	-0.000095	-0.413046
C81	C	0.528868	-0.000103	-0.041044
C82	C	0.477113	-0.068948	-0.060882
C83	C	0.443762	-0.068955	-0.137441
C84	C	0.462167	-0.000117	-0.194161
C85	C	0.513924	0.068733	-0.174325
C86	C	0.547275	0.068740	-0.097766
H87	H	0.463486	-0.119911	-0.018892
H88	H	0.405448	-0.119923	-0.152124
H89	H	0.437479	-0.000123	-0.250835
H90	H	0.527551	0.119696	-0.216314
H91	H	0.585589	0.119708	-0.083082
H92	H	0.773078	-0.000078	-0.111198
H93	H	0.800342	-0.634398	0.195428
H94	H	0.770792	-0.000071	-0.254420
H95	H	0.504328	-0.000072	0.229092
C96	C	0.785590	-0.377709	0.210144
C97	C	0.785629	-0.469501	0.210190
C98	C	0.728914	-0.515391	0.266880
C99	C	0.672160	-0.469488	0.323524
C100	C	0.672118	-0.377690	0.323480
C101	C	0.728833	-0.331801	0.266790
H102	H	0.827644	-0.503486	0.168257
H103	H	0.728946	-0.583346	0.266913
H104	H	0.630176	-0.503458	0.365490
H105	H	0.630103	-0.343706	0.365413
H106	H	0.728802	-0.263846	0.266757
H107	H	0.680748	-0.000091	-0.018868
H108	H	0.766718	-0.000065	-0.508512
H109	H	0.764429	-0.000071	-0.651721
C110	C	1.002142	-0.202480	-0.006290
C111	C	1.058859	-0.248383	-0.062973
C112	C	1.115573	-0.202493	-0.119663
C113	C	1.115572	-0.110701	-0.119671
C114	C	1.058854	-0.064793	-0.062986
C115	C	1.002139	-0.110682	-0.006296
H116	H	1.058861	-0.316338	-0.062969
H117	H	1.157560	-0.236478	-0.161624
H118	H	1.157556	-0.076731	-0.161637
H119	H	1.058851	0.003162	-0.062990
H120	H	0.960152	-0.076697	0.035665
C121	C	1.002171	-0.622475	-0.006275
C122	C	1.058890	-0.668370	-0.062961
C123	C	1.115600	-0.622474	-0.119650
C124	C	1.115592	-0.530681	-0.119653
C125	C	1.058871	-0.484780	-0.062966
C126	C	1.002161	-0.530677	-0.006277
H127	H	1.058898	-0.736325	-0.062960
H128	H	1.157589	-0.656454	-0.161613
H129	H	1.157572	-0.496706	-0.161618
H130	H	1.058863	-0.416825	-0.062966
H131	H	0.960172	-0.496697	0.035687
H132	H	0.250232	-0.000085	0.225025
H133	H	0.107012	-0.000097	0.222734
H134	H	0.140225	-0.000124	-0.027517
H135	H	0.283434	-0.000123	-0.025228
H136	H	0.987419	-0.365798	0.008438
H137	H	1.023330	-0.000128	-0.144409
H138	H	0.800308	-0.214393	0.195412
H139	H	1.016971	-0.000113	-0.541714
H140	H	1.014680	-0.000107	-0.684934
