data_functionalizedCrystal
_audit_creation_method	'MofGen! by Chris Wilmer'
_symmetry_space_group_name_H-M	'P1'
_symmetry_Int_Tables_number	1
_symmetry_cell_setting	triclinic
loop_
_symmetry_equiv_pos_as_xyz
  x,y,z
_cell_length_a	14.628931
_cell_length_b	14.628931
_cell_length_c	14.628931
_cell_angle_alpha	90.000000
_cell_angle_beta	60.000000
_cell_angle_gamma	59.999807
loop_
_atom_site_label
_atom_site_type_symbol
_atom_site_fract_x
_atom_site_fract_y
_atom_site_fract_z
Zr1	Zr	1.000576	-0.119961	0.880620
O2	O	1.191283	-0.265923	0.734659
O3	O	0.809870	-0.075216	0.925365
O4	O	1.000577	-0.265922	0.925365
O5	O	1.000576	0.075216	0.734660
O6	O	1.000576	-0.265922	1.075797
O7	O	1.000577	-0.075216	0.734659
O8	O	0.659438	0.075217	1.075797
O9	O	1.341715	-0.265923	0.734660
O10	O	0.888310	-0.056133	1.056714
O11	O	0.888310	0.056133	0.944448
O12	O	1.112842	-0.168399	0.944448
O13	O	1.112842	-0.056133	0.832183
Zr14	Zr	1.000575	0.119961	1.120542
Zr15	Zr	1.000576	-0.119961	1.120542
Zr16	Zr	1.000576	0.119961	0.880621
Zr17	Zr	1.240498	-0.119961	0.880621
Zr18	Zr	0.760653	0.119961	1.120542
O19	O	1.191281	0.075216	1.075798
O20	O	1.191282	-0.265922	1.075797
O21	O	1.191282	0.075215	0.734660
O22	O	0.809868	0.265923	1.266503
O23	O	0.809869	-0.075215	1.266503
O24	O	0.809869	0.265922	0.925365
O25	O	1.000575	-0.075216	1.266503
O26	O	1.000575	0.265922	1.075798
O27	O	1.000575	0.265922	0.925366
O28	O	1.000575	0.075216	1.266503
O29	O	1.341714	-0.265923	0.925365
O30	O	0.659437	0.265923	1.075797
O31	O	0.659437	0.265923	1.266503
O32	O	0.659437	0.075217	1.266503
O33	O	1.341714	-0.075217	0.734660
O34	O	1.341714	-0.075217	0.925366
O35	O	0.888309	0.168399	1.056714
O36	O	0.888309	0.056133	1.168980
O37	O	1.112841	-0.056133	1.056714
O38	O	1.112841	0.056133	0.944449
C39	C	0.700470	0.000000	1.000581
C40	C	0.598617	0.000001	1.000581
C41	C	1.000576	-0.000000	0.700476
C42	C	1.000577	-0.000001	0.598623
C43	C	1.000575	0.300106	1.000582
C44	C	1.000574	0.401959	1.000582
C45	C	0.553208	-0.055691	1.056272
C46	C	0.447938	-0.055692	1.056273
C47	C	1.300681	-0.000000	1.000582
C48	C	1.402534	-0.000001	1.000582
C49	C	1.000576	-0.300106	1.000581
C50	C	1.000577	-0.401959	1.000581
C51	C	1.111957	0.391676	0.944891
C52	C	1.111960	0.496946	0.944890
C53	C	0.889194	0.055691	0.608905
C54	C	0.889192	0.055692	0.503635
C55	C	1.000575	0.000000	1.300687
C56	C	1.000574	0.000001	1.402540
C57	C	0.700469	0.000001	1.300687
C58	C	0.598616	0.000001	1.402540
C59	C	0.700469	0.300106	1.000581
C60	C	0.598616	0.401959	1.000581
C61	C	0.700469	0.300107	1.300687
C62	C	0.598615	0.401960	1.402540
C63	C	1.300683	-0.300107	0.700476
C64	C	1.402536	-0.401960	0.598623
C65	C	1.300682	-0.000001	0.700476
C66	C	1.402535	-0.000001	0.598623
C67	C	1.300682	-0.300106	1.000581
C68	C	1.402535	-0.401959	1.000581
C69	C	0.553207	-0.055690	1.392257
C70	C	0.447936	-0.055691	1.497526
C71	C	0.553207	0.503060	1.056273
C72	C	0.447936	0.608332	1.056274
C73	C	0.553206	0.391678	1.503641
C74	C	0.447935	0.496948	1.608913
H75	H	0.592259	-0.103365	1.103956
H76	H	0.408883	0.695063	1.103955
C77	C	0.395196	-0.120108	1.120687
H78	H	0.437345	-0.155054	1.155620
H79	H	0.304840	-0.069495	1.176107
H80	H	0.410891	-0.175538	1.070061
H81	H	0.905217	0.488696	1.048255
H82	H	0.441584	0.047676	0.952895
C83	C	1.240790	0.485273	0.880479
H84	H	1.310669	0.408191	0.845547
H85	H	1.245601	0.520209	0.825059
H86	H	1.245590	0.520205	0.931108
C87	C	0.871741	0.609722	1.064992
H88	H	0.801862	0.686804	1.099935
H89	H	0.866941	0.574786	1.014373
H90	H	0.866930	0.574792	1.120422
C91	C	0.455267	0.064419	1.610303
H92	H	0.413118	0.099365	1.687384
H93	H	0.545624	0.013807	1.575367
H94	H	0.439573	0.119849	1.575371
H95	H	1.095934	-0.047677	0.511886
C96	C	0.760369	0.120101	0.726072
H97	H	0.777271	0.111643	0.781454
H98	H	0.712177	0.197214	0.734529
H99	H	0.712189	0.091164	0.734523
C100	C	0.395190	-0.120102	1.485854
H101	H	0.437325	-0.155035	1.408772
H102	H	0.410865	-0.175523	1.520790
H103	H	0.304829	-0.069475	1.520786
C104	C	0.605959	0.514717	1.120687
H105	H	0.669786	0.442433	1.112243
H106	H	0.643336	0.554453	1.091767
H107	H	0.537292	0.554447	1.197805
C108	C	0.455268	0.609723	1.481471
H109	H	0.413120	0.686805	1.488674
H110	H	0.545624	0.574787	1.441729
H111	H	0.439576	0.574792	1.441734
H112	H	0.559562	0.047675	1.489276
H113	H	0.793833	0.103364	0.512264
C114	C	1.240782	0.274509	0.880482
H115	H	1.223880	0.219127	0.888939
H116	H	1.288975	0.266051	0.803369
H117	H	1.288962	0.266058	0.909419
H118	H	1.095938	-0.047686	0.393903
H119	H	0.559557	0.047682	0.952905
C120	C	0.605962	-0.120102	1.275090
H121	H	0.669789	-0.111645	1.219708
H122	H	0.643339	-0.197214	1.266634
H123	H	0.537296	-0.091166	1.266637
H124	H	0.441571	0.511318	0.952907
C125	C	0.605953	0.274513	1.515303
H126	H	0.563818	0.281713	1.592384
H127	H	0.590273	0.234774	1.480366
H128	H	0.696315	0.234774	1.480371
C129	C	0.545868	0.390297	0.936165
H130	H	0.588015	0.313216	0.901217
H131	H	0.455511	0.425234	0.986778
H132	H	0.561563	0.425229	0.880737
C133	C	0.395169	0.485282	1.726073
H134	H	0.331336	0.557565	1.781457
H135	H	0.357795	0.445547	1.734511
H136	H	0.463824	0.445549	1.734539
H137	H	0.559561	0.488697	1.393920
