data_functionalizedCrystal
_audit_creation_method	'MofGen! by Chris Wilmer'
_symmetry_space_group_name_H-M	'P1'
_symmetry_Int_Tables_number	1
_symmetry_cell_setting	triclinic
loop_
_symmetry_equiv_pos_as_xyz
  x,y,z
_cell_length_a	10.654550
_cell_length_b	15.944551
_cell_length_c	9.130313
_cell_angle_alpha	89.994529
_cell_angle_beta	89.999724
_cell_angle_gamma	83.991834
loop_
_atom_site_label
_atom_site_type_symbol
_atom_site_fract_x
_atom_site_fract_y
_atom_site_fract_z
O1	O	1.666313	0.117977	-0.121694
O2	O	1.300689	0.129217	-0.121721
O3	O	1.493485	0.001379	-0.121693
O4	O	1.473517	0.245814	-0.121721
O5	O	1.493472	0.001376	0.121906
O6	O	1.300676	0.129213	0.121878
O7	O	1.666300	0.117973	0.121905
Cu8	Cu	1.483487	0.123592	0.144134
Cu9	Cu	1.483502	0.123597	-0.143950
O10	O	1.473503	0.245810	0.121878
C11	C	1.253895	0.128389	0.000075
C12	C	1.114484	0.125920	0.000065
C13	C	1.492650	-0.029921	0.000106
C14	C	1.490165	-0.123182	0.000107
C15	C	1.034024	0.201189	0.000061
C16	C	0.903034	0.198863	0.000087
C17	C	0.932975	0.045995	0.000115
C18	C	1.063963	0.048321	0.000100
C19	C	1.364720	-0.338764	0.000077
C20	C	1.422966	-0.399446	0.120191
C21	C	1.485668	-0.293933	0.000095
C22	C	1.423007	-0.399426	-0.119979
C23	C	1.481317	-0.458871	0.000078
C24	C	1.543947	-0.353387	0.120308
C25	C	1.543972	-0.353360	-0.119969
C26	C	1.602306	-0.414024	0.000173
C27	C	1.488172	-0.198917	0.000107
C28	C	1.478822	-0.553887	0.000077
C29	C	1.713094	0.118800	0.000106
C30	C	1.852505	0.121269	0.000106
C31	C	1.474339	0.277110	0.000075
C32	C	1.476824	0.370371	0.000065
N33	N	1.483485	0.123589	0.346757
N34	N	1.483514	0.123594	-0.346572
C35	C	1.568884	0.067007	0.423421
C36	C	1.568896	0.067007	0.576758
C37	C	1.398106	0.180179	0.576753
C38	C	1.398089	0.180174	0.423419
H39	H	0.837528	0.260155	0.000086
N40	N	1.358806	-0.425069	0.247568
N41	N	1.415589	-0.474554	0.337478
H42	H	1.370271	-0.492649	0.427435
H43	H	1.129477	-0.012976	0.000108
N44	N	1.656042	0.009152	0.345134
N45	N	1.732233	-0.041398	0.413610
H46	H	1.793762	-0.082281	0.358325
H47	H	1.075154	0.264375	0.000044
N48	N	0.881345	-0.033260	0.000150
N49	N	0.764391	-0.035327	0.000163
H50	H	0.727927	-0.091302	0.000185
H51	H	1.595055	-0.333102	0.221966
N52	N	1.656131	0.009199	0.655045
N53	N	1.732360	-0.041319	0.586573
H54	H	1.793973	-0.082150	0.641861
N55	N	1.310883	0.237989	0.655042
N56	N	1.234637	0.288503	0.586568
H57	H	1.173033	0.329334	0.641855
H58	H	1.264327	-0.306038	0.000190
N59	N	1.608094	-0.327740	-0.247364
N60	N	1.566878	-0.342253	-0.371989
H61	H	1.612155	-0.324157	-0.461974
N62	N	1.728361	-0.454885	0.000274
N63	N	1.801379	-0.442750	0.103495
H64	H	1.890406	-0.471608	0.103573
N65	N	1.358799	-0.424996	-0.247350
N66	N	1.245927	-0.397876	-0.268723
H67	H	1.200570	-0.415932	-0.358672
H68	H	1.328541	0.226250	0.360995
