data_functionalizedCrystal
_audit_creation_method	'MofGen! by Chris Wilmer'
_symmetry_space_group_name_H-M	'P1'
_symmetry_Int_Tables_number	1
_symmetry_cell_setting	triclinic
loop_
_symmetry_equiv_pos_as_xyz
  x,y,z
_cell_length_a	14.519709
_cell_length_b	23.532357
_cell_length_c	13.596369
_cell_angle_alpha	89.988481
_cell_angle_beta	90.000291
_cell_angle_gamma	83.254219
loop_
_atom_site_label
_atom_site_type_symbol
_atom_site_fract_x
_atom_site_fract_y
_atom_site_fract_z
O1	O	1.222963	0.074656	-0.081676
O2	O	1.722963	0.574656	0.418324
O3	O	0.954380	0.083447	-0.081707
O4	O	1.454380	0.583447	0.418293
O5	O	1.096795	-0.003846	-0.081670
O6	O	1.596795	0.496154	0.418330
O7	O	1.080549	0.161948	-0.081713
O8	O	1.580549	0.661948	0.418287
O9	O	1.096781	-0.003850	0.081912
O10	O	1.596781	0.496150	0.581912
O11	O	0.954366	0.083443	0.081876
O12	O	1.454366	0.583443	0.581876
O13	O	1.222949	0.074651	0.081907
O14	O	1.722949	0.574651	0.581907
Zn15	Zn	1.088655	0.079046	0.107864
Zn16	Zn	1.588655	0.579046	0.607864
Zn17	Zn	1.088674	0.079052	-0.107664
Zn18	Zn	1.588674	0.579052	0.392336
O19	O	1.080535	0.161944	0.081870
O20	O	1.580535	0.661944	0.581870
C21	C	0.920018	0.083035	0.000080
C22	C	1.420018	0.583035	0.500080
C23	C	0.817652	0.081807	0.000069
C24	C	1.317652	0.581807	0.500069
C25	C	1.096382	-0.025066	0.000124
C26	C	1.596382	0.474934	0.500124
C27	C	1.095160	-0.088290	0.000133
C28	C	1.595160	0.411710	0.500133
C29	C	0.442811	0.077287	0.000115
C30	C	0.942811	0.577287	0.500115
C31	C	0.547104	0.078543	0.000102
C32	C	1.047104	0.578543	0.500102
C33	C	0.630228	0.079547	0.000091
C34	C	1.130228	0.579547	0.500091
C35	C	0.734527	0.080803	0.000080
C36	C	1.234527	0.580803	0.500080
C37	C	1.087497	-0.480334	-0.089090
C38	C	1.587497	0.019666	0.410910
C39	C	1.086336	-0.539739	-0.089096
C40	C	1.586336	-0.039739	0.410904
O41	O	1.085710	-0.570456	-0.164931
O42	O	1.585710	-0.070456	0.335069
N43	N	1.085752	-0.569455	0.000072
N44	N	1.585752	-0.069455	0.500072
C45	C	1.086321	-0.539763	0.089251
C46	C	1.586321	-0.039763	0.589251
O47	O	1.085717	-0.570493	0.165095
O48	O	1.585717	-0.070493	0.665095
C49	C	1.087475	-0.480359	0.089256
C50	C	1.587475	0.019641	0.589256
C51	C	1.088068	-0.450646	0.000083
C52	C	1.588068	0.049354	0.500083
C53	C	1.088089	-0.450621	-0.178256
C54	C	1.588089	0.049379	0.321744
C55	C	1.089252	-0.391221	-0.178250
C56	C	1.589252	0.108779	0.321750
C57	C	1.089823	-0.361533	-0.089078
C58	C	1.589823	0.138467	0.410922
C59	C	1.089232	-0.391246	0.000089
C60	C	1.589232	0.108754	0.500089
C61	C	1.088037	-0.450667	0.178434
C62	C	1.588037	0.049333	0.678434
C63	C	1.089191	-0.391259	0.178431
C64	C	1.589191	0.108741	0.678431
C65	C	1.089784	-0.361546	0.089258
C66	C	1.589784	0.138454	0.589258
C67	C	1.090966	-0.302157	0.089267
C68	C	1.590966	0.197843	0.589267
N69	N	1.091549	-0.272441	0.000099
N70	N	1.591549	0.227559	0.500099
C71	C	1.090978	-0.302129	-0.089073
C72	C	1.590978	0.197871	0.410927
C73	C	1.083894	-0.664515	0.089235
C74	C	1.583894	-0.164515	0.589235
C75	C	1.082746	-0.723919	0.089231
C76	C	1.582746	-0.223919	0.589231
C77	C	1.082759	-0.723890	-0.089116
C78	C	1.582759	-0.223890	0.410884
C79	C	1.083914	-0.664486	-0.089112
C80	C	1.583914	-0.164486	0.410888
C81	C	1.084478	-0.634799	0.000067
C82	C	1.584478	-0.134799	0.500067
C83	C	1.093422	-0.177384	-0.089053
C84	C	1.593422	0.322616	0.410947
C85	C	1.094589	-0.117978	-0.089039
C86	C	1.594589	0.382022	0.410961
C87	C	1.094570	-0.118011	0.089307
C88	C	1.594570	0.381989	0.589307
C89	C	1.093408	-0.177412	0.089294
C90	C	1.593408	0.322588	0.589294
C91	C	1.092831	-0.207096	0.000106
C92	C	1.592831	0.292904	0.500106
O93	O	1.091588	-0.271402	0.165063
O94	O	1.591588	0.228598	0.665063
O95	O	1.091570	-0.271390	-0.164904
O96	O	1.591570	0.228610	0.335096
C97	C	1.257311	0.075063	0.000117
C98	C	1.757311	0.575063	0.500117
C99	C	1.359678	0.076291	0.000122
C100	C	1.859678	0.576291	0.500122
C101	C	1.080948	0.183165	0.000073
C102	C	1.580948	0.683165	0.500073
C103	C	1.082170	0.246389	0.000058
C104	C	1.582170	0.746389	0.500058
N105	N	1.088650	0.079042	0.254955
N106	N	1.588650	0.579042	0.754955
N107	N	1.088687	0.079052	-0.254756
N108	N	1.588687	0.579052	0.245244
C109	C	1.088673	0.079053	0.656246
C110	C	1.588673	0.579053	1.156246
C111	C	1.088664	0.079052	0.544595
C112	C	1.588664	0.579052	1.044595
C113	C	1.088662	0.079048	0.455604
C114	C	1.588662	0.579048	0.955604
C115	C	1.088652	0.079045	0.343946
C116	C	1.588652	0.579045	0.843946
H117	H	1.095073	-0.093789	-0.161658
H118	H	1.595073	0.406211	0.338342
H119	H	1.092934	-0.201606	0.161906
H120	H	1.592934	0.298394	0.661906
Br121	Br	1.092637	-0.217660	-0.210096
Br122	Br	1.592637	0.282340	0.289904
Br123	Br	1.090050	-0.350905	-0.299278
Br124	Br	1.590050	0.149095	0.200722
H125	H	1.084356	-0.640348	0.161859
H126	H	1.584356	-0.140348	0.661859
Br127	Br	1.087313	-0.490901	-0.299293
Br128	Br	1.587313	0.009099	0.200707
H129	H	1.082277	-0.748107	0.161845
H130	H	1.582277	-0.248107	0.661845
Br131	Br	1.084718	-0.624168	-0.210137
Br132	Br	1.584718	-0.124168	0.289863
Br133	Br	1.087229	-0.490976	0.299464
Br134	Br	1.587229	0.009024	0.799464
Br135	Br	1.095348	-0.077710	0.210322
Br136	Br	1.595348	0.422290	0.710322
Br137	Br	1.081979	-0.764192	-0.210138
Br138	Br	1.581979	-0.264192	0.289862
H139	H	1.089637	-0.367089	0.251053
H140	H	1.589637	0.132911	0.751053
