data_functionalizedCrystal
_audit_creation_method	'MofGen! by Chris Wilmer'
_symmetry_space_group_name_H-M	'P1'
_symmetry_Int_Tables_number	1
_symmetry_cell_setting	triclinic
loop_
_symmetry_equiv_pos_as_xyz
  x,y,z
_cell_length_a	17.699083
_cell_length_b	17.699083
_cell_length_c	9.482900
_cell_angle_alpha	99.314469
_cell_angle_beta	80.730432
_cell_angle_gamma	83.282848
loop_
_atom_site_label
_atom_site_type_symbol
_atom_site_fract_x
_atom_site_fract_y
_atom_site_fract_z
O1	O	-1.015892	-0.083838	0.120873
O2	O	-0.795515	-0.096290	0.120881
O3	O	-0.911928	0.020124	0.120864
O4	O	-0.899479	-0.200252	0.120890
O5	O	-0.888282	-0.003617	-0.120925
O6	O	-0.771868	-0.120031	-0.120908
O7	O	-0.992246	-0.107579	-0.120916
Cu8	Cu	-0.879898	-0.115973	-0.142989
Cu9	Cu	-0.907863	-0.087896	0.142954
O10	O	-0.875832	-0.223993	-0.120899
C11	C	-0.755495	-0.107715	-0.000012
C12	C	-0.671477	-0.106376	-0.000009
C13	C	-0.619120	-0.118687	-0.131810
C14	C	-0.540177	-0.117417	-0.131811
C15	C	-0.513593	-0.103842	-0.000010
C16	C	-0.565957	-0.091528	0.131800
C17	C	-0.644898	-0.092793	0.131800
C18	C	-0.247594	-0.086429	0.131804
C19	C	-0.168646	-0.085168	0.131794
C20	C	-0.142873	-0.111053	-0.131807
C21	C	-0.221815	-0.112318	-0.131807
C22	C	-0.274172	-0.100000	0.000003
C23	C	-0.359771	-0.101375	0.000002
C24	C	-0.427995	-0.102472	-0.000009
C25	C	-0.899659	0.036450	-0.000031
C26	C	-0.898320	0.120468	-0.000031
C27	C	-0.032267	-0.096150	-0.000018
C28	C	-0.116288	-0.097473	-0.000008
C29	C	-0.888102	-0.240319	-0.000001
C30	C	-0.889441	-0.324336	0.000009
N31	N	-0.860235	-0.135720	-0.344106
C32	C	-0.966653	0.169089	-0.000036
C33	C	-0.965392	0.248033	-0.000023
C34	C	-0.895796	0.278355	-0.000016
C35	C	-0.827459	0.229728	-0.000007
C36	C	-0.828722	0.150786	-0.000009
C37	C	-0.822365	0.548092	0.000005
C38	C	-0.821107	0.627040	0.000003
C39	C	-0.959035	0.645340	-0.000009
C40	C	-0.960298	0.566398	-0.000011
C41	C	-0.891962	0.517779	0.000006
C42	C	-0.893330	0.432179	-0.000006
C43	C	-0.894426	0.363952	-0.000015
C44	C	-0.902057	-0.093717	-0.416312
C45	C	-0.885703	-0.110153	-0.583727
N46	N	-0.927532	-0.068143	0.344071
H47	H	-0.497552	-0.127429	-0.239136
C48	C	-1.094733	0.300123	0.124243
C49	C	-1.040509	0.301472	-0.000037
H50	H	-1.141110	0.333110	0.124228
H51	H	-1.074440	0.317581	0.208552
H52	H	-1.105431	0.248763	0.124220
H53	H	-1.029806	0.352831	-0.000008
H54	H	-1.060805	0.284018	-0.084367
H55	H	-0.640757	-0.129747	-0.239138
H56	H	-0.100234	-0.121080	-0.239133
H57	H	-0.764430	0.651724	0.000006
H58	H	-1.016969	0.541714	-0.000024
C59	C	-0.188409	-0.137769	-0.392376
C60	C	-0.251036	-0.127236	-0.276687
H61	H	-0.206450	-0.146972	-0.481818
H62	H	-0.152302	-0.180855	-0.386896
H63	H	-0.164009	-0.092616	-0.386885
H64	H	-0.275432	-0.172392	-0.282172
H65	H	-0.287156	-0.084145	-0.282170
C66	C	-0.750093	-0.159724	-0.630919
C67	C	-0.821013	-0.175127	-0.667574
H68	H	-0.710158	-0.199833	-0.682693
H69	H	-0.752602	-0.157209	-0.529427
H70	H	-0.739418	-0.111687	-0.655804
H71	H	-0.831691	-0.223161	-0.642680
H72	H	-0.818506	-0.177650	-0.769090
C73	C	-1.018359	0.774482	0.000013
C74	C	-1.034157	0.698787	-0.000004
H75	H	-1.064736	0.807475	0.000023
H76	H	-0.981575	0.775384	-0.084295
H77	H	-0.998063	0.791927	0.084340
H78	H	-1.054448	0.681340	-0.084337
H79	H	-1.070954	0.697882	0.084313
H80	H	-0.147005	-0.074112	0.239129
C81	C	-0.685896	0.537941	-0.000015
C82	C	-0.747247	0.494655	-0.000004
H83	H	-0.639519	0.504946	-0.000034
H84	H	-0.696515	0.577384	0.084300
H85	H	-0.680039	0.560841	-0.084335
H86	H	-0.753108	0.471760	0.084322
H87	H	-0.736626	0.455198	-0.084328
C88	C	-0.724628	-0.185288	-0.391304
C89	C	-0.795548	-0.200691	-0.427960
H90	H	-0.684693	-0.225397	-0.443078
H91	H	-0.727137	-0.182773	-0.289812
H92	H	-0.713953	-0.137251	-0.416189
H93	H	-0.806226	-0.248725	-0.403065
H94	H	-0.793040	-0.203214	-0.529475
C95	C	-0.265129	-0.060716	0.392367
C96	C	-0.305138	-0.072893	0.276688
H97	H	-0.300658	-0.052363	0.481815
H98	H	-0.239656	-0.016648	0.386871
H99	H	-0.227947	-0.104886	0.386878
H100	H	-0.342317	-0.028720	0.282171
H101	H	-0.330624	-0.116965	0.282186
H102	H	-0.975446	-0.020009	-0.593811
C103	C	-0.456389	-0.078104	0.248851
C104	C	-0.536737	-0.076608	0.276680
H105	H	-0.438353	-0.068899	0.338298
H106	H	-0.444015	-0.039097	0.194702
H107	H	-0.432310	-0.127336	0.194699
H108	H	-0.560817	-0.027374	0.330824
H109	H	-0.549118	-0.115617	0.330853
H110	H	-0.770793	0.254423	0.000008
H111	H	-1.023325	0.144407	-0.000051
C112	C	-0.692253	0.140621	-0.000007
C113	C	-0.753607	0.097339	-0.000008
H114	H	-0.645880	0.107623	-0.000009
H115	H	-0.702876	0.180066	0.084304
H116	H	-0.686386	0.163516	-0.084331
H117	H	-0.759478	0.074448	0.084323
H118	H	-0.742982	0.057879	-0.084327
H119	H	-0.949969	-0.045586	-0.354191
H120	H	-0.687527	-0.082769	0.239126
