data_functionalizedCrystal
_audit_creation_method	'MofGen! by Chris Wilmer'
_symmetry_space_group_name_H-M	'P1'
_symmetry_Int_Tables_number	1
_symmetry_cell_setting	triclinic
loop_
_symmetry_equiv_pos_as_xyz
  x,y,z
_cell_length_a	15.944499
_cell_length_b	15.944493
_cell_length_c	11.804365
_cell_angle_alpha	101.834508
_cell_angle_beta	78.150915
_cell_angle_gamma	83.476327
loop_
_atom_site_label
_atom_site_type_symbol
_atom_site_fract_x
_atom_site_fract_y
_atom_site_fract_z
O1	O	1.131511	0.091156	-0.099086
O2	O	0.886950	0.104560	-0.099071
O3	O	1.015936	-0.024423	-0.099089
O4	O	1.002525	0.220139	-0.099068
O5	O	0.981979	0.009499	0.098972
O6	O	0.852993	0.138482	0.098990
O7	O	1.097554	0.125078	0.098975
Cu8	Cu	0.972173	0.134877	0.117067
Cu9	Cu	1.012331	0.094760	-0.117163
O10	O	0.968568	0.254061	0.098993
C11	C	0.838677	0.120973	-0.000039
C12	C	0.745428	0.119329	-0.000034
C13	C	0.453878	0.194261	-0.000045
C14	C	0.531659	0.138582	-0.097705
C15	C	0.409797	0.113348	-0.000062
C16	C	0.498166	0.172005	0.097567
C17	C	0.574703	0.116291	-0.000046
C18	C	0.486364	0.057632	-0.097802
C19	C	0.452850	0.091081	0.097558
C20	C	0.530617	0.035339	-0.000126
C21	C	0.314800	0.111654	-0.000072
C22	C	0.669701	0.117977	-0.000044
C23	C	0.998411	-0.038758	-0.000063
C24	C	0.996770	-0.132009	-0.000078
C25	C	1.072689	-0.367780	-0.000061
C26	C	1.048489	-0.435065	-0.097712
C27	C	0.993724	-0.302727	-0.000064
C28	C	1.014992	-0.401596	0.097561
C29	C	0.990786	-0.467632	-0.000044
C30	C	0.969559	-0.368797	-0.097795
C31	C	0.936058	-0.335311	0.097565
C32	C	0.911804	-0.402567	-0.000110
C33	C	0.995418	-0.207729	-0.000076
C34	C	0.989086	-0.562628	-0.000040
C35	C	1.145828	0.108665	-0.000060
C36	C	1.239078	0.110307	-0.000073
C37	C	0.986094	0.268395	-0.000035
C38	C	0.987736	0.361645	-0.000028
N39	N	0.943934	0.163093	0.281811
N40	N	1.040577	0.066538	-0.281907
C41	C	1.108389	-0.001234	0.655737
C42	C	1.129751	-0.022582	0.531073
C43	C	1.083298	0.023834	0.468751
C44	C	1.015481	0.091604	0.531107
C45	C	0.994121	0.112959	0.655784
C46	C	0.969030	0.138027	0.468797
C47	C	0.901213	0.205797	0.531153
C48	C	0.879856	0.227148	0.655818
C49	C	0.926309	0.180731	0.718139
C50	C	0.990390	0.116672	0.344121
C51	C	0.876122	0.230865	0.344167
C52	C	0.854760	0.252214	0.468831
H53	H	0.565904	0.158668	-0.180258
H54	H	0.420550	0.261393	-0.000134
H55	H	0.950398	-0.354126	-0.180440
F56	F	0.478786	-0.005568	-0.205835
H57	H	0.418585	0.071028	0.180119
H58	H	0.563818	-0.031878	-0.000183
F59	F	0.822840	-0.422779	-0.000171
F60	F	0.782585	0.324338	0.535208
H61	H	1.034204	-0.416395	0.180112
F62	F	0.505899	0.235234	0.205478
H63	H	1.140727	-0.352181	-0.000163
F64	F	1.110579	-0.491392	-0.205625
H65	H	1.045607	0.061494	0.293362
H66	H	0.888582	-0.292203	0.180130
F67	F	1.106034	0.001111	0.336071
H68	H	0.908914	0.198110	0.819651
H69	H	1.184968	-0.077759	0.480307
F70	F	1.157826	-0.050621	0.722068
F71	F	0.807688	0.299282	0.722181
F72	F	0.826683	0.280272	0.277845
