data_functionalizedCrystal
_audit_creation_method	'MofGen! by Chris Wilmer'
_symmetry_space_group_name_H-M	'P1'
_symmetry_Int_Tables_number	1
_symmetry_cell_setting	triclinic
loop_
_symmetry_equiv_pos_as_xyz
  x,y,z
_cell_length_a	16.992694
_cell_length_b	14.853559
_cell_length_c	15.455322
_cell_angle_alpha	92.671164
_cell_angle_beta	87.141817
_cell_angle_gamma	87.149838
loop_
_atom_site_label
_atom_site_type_symbol
_atom_site_fract_x
_atom_site_fract_y
_atom_site_fract_z
O1	O	1.044022	0.187488	-0.072015
O2	O	1.544022	0.687488	0.427985
O3	O	0.815736	0.185389	-0.072041
O4	O	1.315736	0.685389	0.427959
O5	O	0.935980	0.055639	-0.072026
O6	O	1.435980	0.555639	0.427974
O7	O	0.923778	0.317238	-0.072030
O8	O	1.423778	0.817238	0.427970
O9	O	0.929103	0.063027	0.072235
O10	O	1.429103	0.563027	0.572235
O11	O	0.808859	0.192777	0.072221
O12	O	1.308859	0.692777	0.572221
O13	O	1.037145	0.194876	0.072246
O14	O	1.537145	0.694876	0.572246
Cu15	Cu	0.922374	0.194501	0.085406
Cu16	Cu	1.422374	0.694501	0.585406
Cu17	Cu	0.930507	0.185764	-0.085200
Cu18	Cu	1.430507	0.685764	0.414800
O19	O	0.916901	0.324626	0.072232
O20	O	1.416901	0.824626	0.572232
C21	C	0.783082	0.186385	0.000087
C22	C	1.283082	0.686385	0.500087
C23	C	0.696030	0.178334	0.000077
C24	C	1.196030	0.678334	0.500077
C25	C	0.645872	0.256010	0.000076
C26	C	1.145872	0.756010	0.500076
C27	C	0.564077	0.248441	0.000088
C28	C	1.064077	0.748441	0.500088
C29	C	0.532441	0.163195	0.000095
C30	C	1.032441	0.663195	0.500095
C31	C	0.582606	0.085514	0.000097
C32	C	1.082606	0.585514	0.500097
C33	C	0.664399	0.093084	0.000092
C34	C	1.164399	0.593084	0.500092
C35	C	0.288809	0.131820	0.000118
C36	C	0.788809	0.631820	0.500118
C37	C	0.207010	0.124255	0.000121
C38	C	0.707010	0.624255	0.500121
C39	C	0.188486	0.287183	0.000114
C40	C	0.688486	0.787183	0.500114
C41	C	0.270282	0.294746	0.000103
C42	C	0.770282	0.794746	0.500103
C43	C	0.320439	0.217064	0.000110
C44	C	0.820439	0.717064	0.500110
N45	N	0.448834	0.155456	0.000104
N46	N	0.948834	0.655456	0.500104
N47	N	0.404045	0.224804	0.000107
N48	N	0.904045	0.724804	0.500107
C49	C	0.931990	0.025705	0.000103
C50	C	1.431990	0.525705	0.500103
C51	C	0.930337	-0.074496	0.000098
C52	C	1.430337	0.425504	0.500098
C53	C	0.927072	-0.502193	-0.078540
C54	C	1.427072	-0.002193	0.421460
C55	C	0.919574	-0.494133	0.078739
C56	C	1.419574	0.005867	0.578739
C57	C	0.921134	-0.399990	0.078740
C58	C	1.421134	0.100010	0.578740
C59	C	0.925662	-0.356944	0.000100
C60	C	1.425662	0.143056	0.500100
C61	C	0.928630	-0.408041	-0.078542
C62	C	1.428630	0.091959	0.421458
C63	C	0.918158	-0.348885	0.157380
C64	C	1.418158	0.151115	0.657380
C65	C	0.919717	-0.254736	0.157384
C66	C	1.419717	0.245264	0.657384
C67	C	0.924251	-0.211688	0.078743
C68	C	1.424251	0.288312	0.578743
C69	C	0.927220	-0.262791	0.000098
C70	C	1.427220	0.237209	0.500098
C71	C	0.931747	-0.219745	-0.078542
C72	C	1.431747	0.280255	0.421458
C73	C	0.934722	-0.270847	-0.157188
C74	C	1.434722	0.229153	0.342812
C75	C	0.933163	-0.364993	-0.157183
C76	C	1.433163	0.135007	0.342817
C77	C	0.925809	-0.117542	0.078738
C78	C	1.425809	0.382458	0.578738
C79	C	0.933305	-0.125593	-0.078544
C80	C	1.433305	0.374407	0.421456
C81	C	1.069799	0.193880	0.000117
C82	C	1.569799	0.693880	0.500117
C83	C	1.156852	0.201931	0.000121
C84	C	1.656852	0.701931	0.500121
C85	C	0.920891	0.354560	0.000101
C86	C	1.420891	0.854560	0.500101
C87	C	0.922544	0.454761	0.000100
C88	C	1.422544	0.954761	0.500100
N89	N	0.916660	0.200646	0.205400
N90	N	1.416660	0.700646	0.705400
C91	C	0.967761	0.145547	0.250801
C92	C	1.467761	0.645547	0.750801
C93	C	0.963447	0.150203	0.341608
C94	C	1.463447	0.650203	0.841608
C95	C	0.908034	0.209963	0.387013
C96	C	1.408034	0.709963	0.887013
C97	C	0.856927	0.265065	0.341607
C98	C	1.356927	0.765065	0.841607
C99	C	0.861238	0.260403	0.250801
C100	C	1.361238	0.760403	0.750801
C101	C	0.889426	0.230058	0.658593
C102	C	1.389426	0.730058	1.158593
C103	C	0.885120	0.234717	0.749405
C104	C	1.385120	0.734717	1.249405
C105	C	0.991639	0.119853	0.749400
C106	C	1.491639	0.619853	1.249400
C107	C	0.995949	0.115201	0.658592
C108	C	1.495949	0.615201	1.158592
C109	C	0.944839	0.170299	0.613194
C110	C	1.444839	0.670299	1.113194
N111	N	0.903624	0.214726	0.479833
N112	N	1.403624	0.714726	0.979833
N113	N	0.949245	0.165531	0.520375
N114	N	1.449245	0.665531	1.020375
N115	N	0.936221	0.179617	0.794805
N116	N	1.436221	0.679617	1.294805
H117	H	0.296034	0.364161	0.000088
H118	H	0.796034	0.864161	0.500088
H119	H	1.012887	0.096888	0.213837
H120	H	1.512887	0.596888	0.713837
Cl121	Cl	0.939003	-0.071486	-0.177412
Cl122	Cl	1.439003	0.428514	0.322588
Cl123	Cl	0.167240	0.017082	0.000149
Cl124	Cl	0.667240	0.517082	0.500149
Cl125	Cl	0.542835	-0.021653	0.000111
Cl126	Cl	1.042835	0.478347	0.500111
Cl127	Cl	0.825178	0.299326	0.601526
Cl128	Cl	1.325178	0.799326	1.101526
Cl129	Cl	1.027689	0.080933	0.398684
Cl130	Cl	1.527689	0.580933	0.898684
H131	H	1.033249	0.074994	0.786372
H132	H	1.533249	0.574994	1.286372
H133	H	0.147640	0.350426	0.000110
H134	H	0.647640	0.850426	0.500110
H135	H	0.329638	0.068566	0.000125
H136	H	0.829638	0.568566	0.500125
H137	H	0.671623	0.325426	0.000071
H138	H	1.171623	0.825426	0.500071
Cl139	Cl	0.501024	0.346095	0.000083
Cl140	Cl	1.001024	0.846095	0.500083
H141	H	0.705237	0.029832	0.000091
H142	H	1.205237	0.529832	0.500091
H143	H	0.923370	-0.075938	0.142770
H144	H	1.423370	0.424062	0.642770
H145	H	0.811805	0.313720	0.378581
H146	H	1.311805	0.813720	0.878581
Cl147	Cl	0.940417	-0.216721	-0.256046
Cl148	Cl	1.440417	0.283279	0.243954
Cl149	Cl	0.913869	-0.548249	0.177595
Cl150	Cl	1.413869	-0.048249	0.677595
Cl151	Cl	0.796990	0.329671	0.193727
Cl152	Cl	1.296990	0.829671	0.693727
H153	H	0.839994	0.283384	0.786370
H154	H	1.339994	0.783384	1.286370
Cl155	Cl	0.915975	-0.190502	0.256250
Cl156	Cl	1.415975	0.309498	0.756250
Cl157	Cl	0.930819	-0.566433	-0.177403
Cl158	Cl	1.430819	-0.066433	0.322597
Cl159	Cl	0.936905	-0.429241	-0.256042
Cl160	Cl	1.436905	0.070759	0.243958
Cl161	Cl	0.912449	-0.403003	0.256235
Cl162	Cl	1.412449	0.096997	0.756235
H163	H	1.041070	0.066539	0.621625
H164	H	1.541070	0.566539	1.121625
