data_functionalizedCrystal
_audit_creation_method	'MofGen! by Chris Wilmer'
_symmetry_space_group_name_H-M	'P1'
_symmetry_Int_Tables_number	1
_symmetry_cell_setting	triclinic
loop_
_symmetry_equiv_pos_as_xyz
  x,y,z
_cell_length_a	19.077269
_cell_length_b	13.897447
_cell_length_c	19.076919
_cell_angle_alpha	92.274152
_cell_angle_beta	94.669058
_cell_angle_gamma	87.722543
loop_
_atom_site_label
_atom_site_type_symbol
_atom_site_fract_x
_atom_site_fract_y
_atom_site_fract_z
Zn1	Zn	1.061684	-0.462033	-0.355283
Zn2	Zn	1.561684	0.037967	0.144717
Zn3	Zn	1.066348	-0.617106	-0.237407
Zn4	Zn	1.566348	-0.117106	0.262593
Zn5	Zn	0.948540	-0.449603	-0.242151
Zn6	Zn	1.448540	0.050397	0.257849
Zn7	Zn	0.943779	-0.617057	-0.359990
Zn8	Zn	1.443779	-0.117057	0.140010
O9	O	1.005088	-0.536450	-0.298708
O10	O	1.505088	-0.036450	0.201292
O11	O	1.160949	-0.487826	-0.335692
O12	O	1.660949	0.012174	0.164308
O13	O	1.054665	-0.589705	-0.139389
O14	O	1.554665	-0.089705	0.360611
O15	O	0.963589	-0.316274	-0.257173
O16	O	1.463589	0.183726	0.242827
O17	O	1.164376	-0.601757	-0.249089
O18	O	1.664376	-0.101757	0.250911
O19	O	1.046715	-0.325406	-0.340292
O20	O	1.546715	0.174594	0.159708
O21	O	0.968112	-0.466641	-0.142874
O22	O	1.468112	0.033359	0.357126
O23	O	0.849262	-0.466594	-0.261737
O24	O	1.349262	0.033406	0.238263
O25	O	0.955475	-0.601675	-0.458013
O26	O	1.455475	-0.101675	0.041987
O27	O	0.845764	-0.589622	-0.348313
O28	O	1.345764	-0.089622	0.151687
O29	O	1.042099	-0.487779	-0.454556
O30	O	1.542099	0.012221	0.045444
O31	O	1.050048	-0.752078	-0.253653
O32	O	1.550048	-0.252078	0.246347
O33	O	0.959997	-0.752042	-0.343714
O34	O	1.459997	-0.252042	0.156286
C35	C	0.821935	-0.526755	-0.306051
C36	C	1.321935	-0.026755	0.193949
C37	C	0.743581	-0.522632	-0.309209
C38	C	1.243581	-0.022632	0.190791
C39	C	1.005031	-0.787060	-0.298694
C40	C	1.505031	-0.287060	0.201306
C41	C	1.005070	-0.894277	-0.298709
C42	C	1.505070	-0.394277	0.201291
C43	C	0.708554	-0.579909	-0.265536
C44	C	1.208554	-0.079909	0.234464
C45	C	0.634931	-0.576035	-0.268513
C46	C	1.134931	-0.076035	0.231487
C47	C	0.596337	-0.514879	-0.315160
C48	C	1.096337	-0.014879	0.184840
C49	C	0.631369	-0.457600	-0.358837
C50	C	1.131369	0.042400	0.141163
C51	C	0.704990	-0.461479	-0.355864
C52	C	1.204990	0.038521	0.144136
C53	C	0.375962	-0.496931	-0.328899
C54	C	0.875962	0.003069	0.171101
C55	C	0.302336	-0.493054	-0.331868
C56	C	0.802336	0.006946	0.168132
C57	C	0.305903	-0.611491	-0.241544
C58	C	0.805903	-0.111491	0.258456
C59	C	0.379526	-0.615361	-0.238572
C60	C	0.879526	-0.115361	0.261428
C61	C	0.414551	-0.558086	-0.282252
C62	C	0.914551	-0.058086	0.217748
N63	N	0.521083	-0.510916	-0.318202
N64	N	1.021083	-0.010916	0.181798
N65	N	0.489804	-0.562055	-0.279213
N66	N	0.989804	-0.062055	0.220787
C67	C	1.005104	-0.981350	-0.298723
C68	C	1.505104	-0.481350	0.201277
C69	C	1.005152	-1.090586	-0.298740
C70	C	1.505152	-0.590586	0.201260
C71	C	1.188956	-0.546183	-0.291336
C72	C	1.688956	-0.046183	0.208664
C73	C	1.267309	-0.550331	-0.288195
C74	C	1.767309	-0.050331	0.211805
C75	C	0.997735	-0.546108	-0.482578
C76	C	1.497735	-0.046108	0.017422
C77	C	0.994602	-0.550223	-0.560932
C78	C	1.494602	-0.050223	-0.060932
C79	C	1.005163	-0.284863	-0.298737
C80	C	1.505163	0.215137	0.201263
C81	C	1.005195	-0.177651	-0.298749
C82	C	1.505195	0.322349	0.201251
C83	C	1.038229	-0.492860	-0.595944
C84	C	1.538229	0.007140	-0.095944
C85	C	1.035276	-0.496723	-0.669567
C86	C	1.535276	0.003277	-0.169567
C87	C	0.988700	-0.557955	-0.708176
C88	C	1.488700	-0.057955	-0.208176
C89	C	0.945069	-0.615320	-0.673159
C90	C	1.445069	-0.115320	-0.173159
C91	C	0.948019	-0.611452	-0.599538
C92	C	1.448019	-0.111452	-0.099538
C93	C	0.975040	-0.575879	-0.928554
C94	C	1.475040	-0.075879	-0.428554
C95	C	0.972095	-0.579745	-1.002180
C96	C	1.472095	-0.079745	-0.502180
C97	C	1.062301	-0.461146	-0.998582
C98	C	1.562301	0.038854	-0.498582
C99	C	1.065250	-0.457287	-0.924960
C100	C	1.565250	0.042713	-0.424960
C101	C	1.021616	-0.514649	-0.889949
C102	C	1.521616	-0.014649	-0.389949
N103	N	0.985683	-0.561907	-0.783431
N104	N	1.485683	-0.061907	-0.283431
N105	N	1.024630	-0.510691	-0.814697
N106	N	1.524630	-0.010691	-0.314697
C107	C	1.012452	-0.526762	-0.115551
C108	C	1.512452	-0.026762	0.384449
C109	C	1.015722	-0.522382	-0.037192
C110	C	1.515722	-0.022382	0.462808
H111	H	0.739972	-0.629705	-0.227549
H112	H	1.239972	-0.129705	0.272451
C113	C	1.109749	-0.398823	-1.036465
C114	C	1.609749	0.101177	-0.536465
C115	C	1.151179	-0.344388	-0.986894
C116	C	1.651179	0.155612	-0.486894
C117	C	1.194902	-0.286969	-1.021764
C118	C	1.694902	0.213031	-0.521764
H119	H	1.081723	-0.356797	-1.066268
H120	H	1.581723	0.143203	-0.566268
H121	H	1.139342	-0.438833	-1.063934
H122	H	1.639342	0.061167	-0.563934
H123	H	1.121589	-0.304382	-0.959436
H124	H	1.621589	0.195618	-0.459436
H125	H	1.179220	-0.386390	-0.957089
H126	H	1.679220	0.113610	-0.457089
H127	H	1.224496	-0.326978	-1.049233
H128	H	1.724496	0.173022	-0.549233
H129	H	1.166870	-0.244948	-1.051566
H130	H	1.666870	0.255052	-0.551566
H131	H	1.223022	-0.250034	-0.988135
H132	H	1.723022	0.249966	-0.488135
H133	H	0.939521	-0.622601	-0.900057
H134	H	1.439521	-0.122601	-0.400057
C135	C	0.260308	-0.426679	-0.382445
C136	C	0.760308	0.073321	0.117555
C137	C	0.188338	-0.435520	-0.375681
C138	C	0.688338	0.064480	0.124319
C139	C	0.149601	-0.374382	-0.422249
C140	C	0.649601	0.125618	0.077751
H141	H	0.270400	-0.443956	-0.429338
H142	H	0.770400	0.056044	0.070662
H143	H	0.272752	-0.361922	-0.371719
H144	H	0.772752	0.138078	0.128281
H145	H	0.175899	-0.500263	-0.386411
H146	H	0.675899	-0.000263	0.113589
H147	H	0.178225	-0.418235	-0.328799
H148	H	0.678225	0.081765	0.171201
H149	H	0.162045	-0.309625	-0.411524
H150	H	0.662045	0.190375	0.088476
H151	H	0.159699	-0.391665	-0.469139
H152	H	0.659699	0.108335	0.030861
H153	H	0.100766	-0.380366	-0.417662
H154	H	0.600766	0.119634	0.082338
C155	C	0.413856	-0.434624	-0.376345
C156	C	0.913856	0.065376	0.123655
C157	C	0.364297	-0.380214	-0.417813
C158	C	0.864297	0.119786	0.082187
C159	C	0.399182	-0.322790	-0.461521
C160	C	0.899182	0.177210	0.038479
H161	H	0.441353	-0.474600	-0.405920
H162	H	0.941353	0.025400	0.094080
H163	H	0.443634	-0.392588	-0.348285
H164	H	0.943634	0.107412	0.151715
H165	H	0.334532	-0.422245	-0.445870
H166	H	0.834532	0.077755	0.054130
H167	H	0.336798	-0.340219	-0.388256
H168	H	0.836798	0.159781	0.111744
H169	H	0.428960	-0.280753	-0.433460
H170	H	0.928960	0.219247	0.066540
H171	H	0.426678	-0.362773	-0.491091
H172	H	0.926678	0.137227	0.008909
H173	H	0.365563	-0.285859	-0.489657
H174	H	0.865563	0.214141	0.010343
H175	H	0.934166	-0.629610	-1.033614
H176	H	1.434166	-0.129610	-0.533614
C177	C	0.900749	-0.673909	-0.561551
C178	C	1.400749	-0.173909	-0.061551
C179	C	0.915372	-0.771097	-0.578817
C180	C	1.415372	-0.271097	-0.078817
C181	C	0.871848	-0.828662	-0.543828
C182	C	1.371848	-0.328662	-0.043828
H183	H	0.852879	-0.658053	-0.575478
H184	H	1.352879	-0.158053	-0.075478
H185	H	0.909186	-0.662898	-0.512169
H186	H	1.409186	-0.162898	-0.012169
H187	H	0.906929	-0.782104	-0.628188
H188	H	1.406929	-0.282104	-0.128188
H189	H	0.963233	-0.786983	-0.564888
H190	H	1.463233	-0.286983	-0.064888
H191	H	0.880285	-0.817651	-0.494446
H192	H	1.380285	-0.317651	0.005554
H193	H	0.823980	-0.812798	-0.557759
H194	H	1.323980	-0.312798	-0.057759
H195	H	0.881768	-0.894611	-0.555533
H196	H	1.381768	-0.394611	-0.055533
C197	C	0.596810	-0.638058	-0.221061
C198	C	1.096810	-0.138058	0.278939
C199	C	0.556325	-0.578751	-0.177671
C200	C	1.056325	-0.078751	0.322329
C201	C	0.521190	-0.635857	-0.133956
C202	C	1.021190	-0.135857	0.366044
H203	H	0.630258	-0.675049	-0.192787
H204	H	1.130258	-0.175049	0.307213
H205	H	0.566978	-0.680027	-0.249119
H206	H	1.066978	-0.180027	0.250881
H207	H	0.586155	-0.536799	-0.149615
H208	H	1.086155	-0.036799	0.350385
H209	H	0.522865	-0.541760	-0.205926
H210	H	1.022865	-0.041760	0.294074
H211	H	0.491358	-0.677826	-0.162015
H212	H	0.991358	-0.177826	0.337985
H213	H	0.554643	-0.672846	-0.105687
H214	H	1.054643	-0.172846	0.394313
H215	H	0.493712	-0.595626	-0.104516
H216	H	0.993712	-0.095626	0.395484
H217	H	0.410944	-0.665160	-0.200586
H218	H	0.910944	-0.165160	0.299414
H219	H	0.277377	-0.658123	-0.205983
H220	H	0.777377	-0.158123	0.294017
C221	C	0.894571	-0.681774	-0.715200
C222	C	1.394571	-0.181774	-0.215200
C223	C	0.901338	-0.672906	-0.787168
C224	C	1.401338	-0.172906	-0.287168
C225	C	0.854837	-0.734120	-0.825915
C226	C	1.354837	-0.234120	-0.325915
H227	H	0.847662	-0.664579	-0.705119
H228	H	1.347662	-0.164579	-0.205119
H229	H	0.905356	-0.746518	-0.702753
H230	H	1.405356	-0.246518	-0.202753
H231	H	0.890548	-0.608176	-0.799610
H232	H	1.390548	-0.108176	-0.299610
H233	H	0.948236	-0.690109	-0.797271
H234	H	1.448236	-0.190109	-0.297271
H235	H	0.865622	-0.798865	-0.813468
H236	H	1.365622	-0.298865	-0.313468
H237	H	0.807932	-0.716919	-0.815828
H238	H	1.307932	-0.216919	-0.315828
H239	H	0.859427	-0.728118	-0.874749
H240	H	1.359427	-0.228118	-0.374749
H241	H	0.599940	-0.407809	-0.396821
H242	H	1.099940	0.092191	0.103179
H243	H	0.733508	-0.414837	-0.391426
H244	H	1.233508	0.085163	0.108574
H245	H	1.076158	-0.443002	-0.564514
H246	H	1.576158	0.056998	-0.064514
C247	C	1.082728	-0.434407	-0.707450
C248	C	1.582728	0.065593	-0.207450
C249	C	1.124165	-0.379980	-0.657879
C250	C	1.624165	0.120020	-0.157879
C251	C	1.167894	-0.322571	-0.692750
C252	C	1.667894	0.177429	-0.192750
H253	H	1.054706	-0.392376	-0.737252
H254	H	1.554706	0.107624	-0.237252
H255	H	1.112317	-0.474424	-0.734920
H256	H	1.612317	0.025576	-0.234920
H257	H	1.094579	-0.339968	-0.630421
H258	H	1.594579	0.160032	-0.130421
H259	H	1.152201	-0.421987	-0.628075
H260	H	1.652201	0.078013	-0.128075
H261	H	1.197483	-0.362587	-0.720220
H262	H	1.697483	0.137413	-0.220220
H263	H	1.139867	-0.280545	-0.722551
H264	H	1.639867	0.219455	-0.222551
H265	H	1.196019	-0.285642	-0.659122
H266	H	1.696019	0.214358	-0.159122
H267	H	1.103179	-0.407429	-0.893529
H268	H	1.603179	0.092571	-0.393529
