data_functionalizedCrystal
_audit_creation_method	'MofGen! by Chris Wilmer'
_symmetry_space_group_name_H-M	'P1'
_symmetry_Int_Tables_number	1
_symmetry_cell_setting	triclinic
loop_
_symmetry_equiv_pos_as_xyz
  x,y,z
_cell_length_a	10.540491
_cell_length_b	9.616153
_cell_length_c	9.065215
_cell_angle_alpha	89.999063
_cell_angle_beta	95.239817
_cell_angle_gamma	89.997124
loop_
_atom_site_label
_atom_site_type_symbol
_atom_site_fract_x
_atom_site_fract_y
_atom_site_fract_z
O1	O	-1.686687	0.115629	0.207582
O2	O	-1.317339	0.115635	0.227248
O3	O	-1.509649	0.115626	0.002732
O4	O	-1.494377	0.115638	0.432097
O5	O	-1.509635	-0.115666	0.002745
O6	O	-1.317325	-0.115657	0.227261
O7	O	-1.686673	-0.115662	0.207595
Zn8	Zn	-1.501997	-0.152382	0.217430
Zn9	Zn	-1.502015	0.152354	0.217413
O10	O	-1.494363	-0.115653	0.432110
C11	C	-1.270023	-0.000010	0.225794
C12	C	-1.129055	-0.000008	0.221427
N13	N	-1.501993	-0.360356	0.217440
C14	C	-0.912173	0.000530	0.377404
C15	C	-1.058787	-0.000001	0.382062
C16	C	-1.083984	-0.132085	0.139211
C17	C	-0.937209	-0.132186	0.135690
C18	C	-0.937406	0.130836	0.132331
C19	C	-1.083777	0.132571	0.139938
C20	C	-1.399075	-0.419393	0.337522
C21	C	-1.398722	-0.580561	0.337177
C22	C	-1.471868	-0.581145	0.062961
C23	C	-1.471107	-0.419928	0.063693
C24	C	-1.635380	-0.419743	0.250396
C25	C	-1.634549	-0.580972	0.253856
C26	C	-0.733988	-0.000011	0.209068
C27	C	-0.874949	0.000006	0.213493
C28	C	-1.508175	-0.000018	-0.052240
C29	C	-1.503789	-0.000014	-0.216061
N30	N	-1.502029	0.360329	0.217391
C31	C	-1.495837	-0.000006	0.487083
C32	C	-1.500223	-0.000001	0.650903
H33	H	-1.088377	0.094681	0.446383
C34	C	-1.566997	-0.367880	-0.059368
C35	C	-1.533333	-0.416937	-0.195892
C36	C	-1.621620	-0.368996	-0.309284
H37	H	-1.649540	-0.400867	-0.043228
H38	H	-1.567160	-0.269083	-0.059834
H39	H	-1.533183	-0.515714	-0.195424
H40	H	-1.450804	-0.383955	-0.212080
H41	H	-1.621783	-0.270199	-0.309749
H42	H	-1.704158	-0.401986	-0.293129
H43	H	-1.598785	-0.402263	-0.401929
H44	H	-1.375674	-0.621556	0.033548
H45	H	-1.112622	0.230281	0.199758
H46	H	-0.870456	0.095252	0.439981
C47	C	-1.341248	-0.370084	0.025428
C48	C	-1.264216	-0.485126	0.001858
C49	C	-1.144573	-0.439273	-0.033372
H50	H	-1.351063	-0.315081	-0.061908
H51	H	-1.302515	-0.315960	0.104877
H52	H	-1.302940	-0.539228	-0.077584
H53	H	-1.254364	-0.540141	0.089176
H54	H	-1.105840	-0.385149	0.046077
H55	H	-1.154401	-0.384270	-0.120705
H56	H	-1.092289	-0.517321	-0.049355
C57	C	-1.422934	-0.633682	0.490016
C58	C	-1.319322	-0.714451	0.547088
C59	C	-1.341688	-0.763483	0.687820
H60	H	-1.433250	-0.557101	0.554019
H61	H	-1.498070	-0.688761	0.482756
H62	H	-1.244206	-0.659374	0.554357
H63	H	-1.308988	-0.791052	0.483127
H64	H	-1.416824	-0.818562	0.680559
H65	H	-1.352006	-0.686894	0.751809
H66	H	-1.271397	-0.818300	0.726555
C67	C	-1.422624	-0.367860	0.491162
C68	C	-1.316451	-0.292650	0.551177
C69	C	-1.338102	-0.245258	0.692751
H70	H	-1.495623	-0.309484	0.484581
H71	H	-1.436311	-0.445118	0.553081
H72	H	-1.302779	-0.215403	0.489273
H73	H	-1.243439	-0.350997	0.557795
H74	H	-1.351790	-0.322516	0.754670
H75	H	-1.411104	-0.186888	0.686155
H76	H	-1.266065	-0.194234	0.733494
C77	C	-1.148392	0.143316	-0.016541
C78	C	-1.055886	0.141713	-0.117979
C79	C	-1.115368	0.151638	-0.262140
H80	H	-1.204548	0.066815	-0.035387
H81	H	-1.195323	0.227659	-0.026682
H82	H	-1.008977	0.057380	-0.107844
H83	H	-0.999725	0.218209	-0.099181
H84	H	-1.162298	0.235981	-0.272281
H85	H	-1.171523	0.075136	-0.280970
H86	H	-1.052611	0.150565	-0.330982
H87	H	-1.657395	-0.619202	0.367483
C88	C	-1.125137	-0.263269	0.215337
C89	C	-1.017370	-0.341491	0.264203
C90	C	-1.055229	-0.462351	0.334324
H91	H	-1.170072	-0.238699	0.297706
H92	H	-1.178974	-0.316778	0.147368
H93	H	-0.963554	-0.287993	0.332168
H94	H	-0.972422	-0.366097	0.181863
H95	H	-1.109066	-0.515861	0.266355
H96	H	-1.100165	-0.437769	0.416687
H97	H	-0.982117	-0.515447	0.367476
H98	H	-1.664042	-0.379093	0.360721
C99	C	-1.737542	-0.369092	0.133543
C100	C	-1.795788	-0.483556	0.059813
C101	C	-1.889880	-0.436939	-0.047858
H102	H	-1.799643	-0.317232	0.179706
H103	H	-1.699748	-0.311697	0.064333
H104	H	-1.833583	-0.540927	0.129012
H105	H	-1.733721	-0.535427	0.013618
H106	H	-1.852085	-0.379545	-0.117068
H107	H	-1.951972	-0.385080	-0.001682
H108	H	-1.929403	-0.514595	-0.097906
H109	H	-0.868890	-0.093649	0.439631
H110	H	-1.300675	-0.378907	0.316553
H111	H	-1.299776	-0.619155	0.315900
C112	C	-1.569188	-0.632395	-0.058998
C113	C	-1.658231	-0.717676	0.002543
C114	C	-1.747892	-0.764929	-0.109760
H115	H	-1.611649	-0.555090	-0.106384
H116	H	-1.527142	-0.683933	-0.129531
H117	H	-1.700274	-0.666139	0.073051
H118	H	-1.615808	-0.795002	0.049919
H119	H	-1.705846	-0.816467	-0.180293
H120	H	-1.790343	-0.687616	-0.157138
H121	H	-1.808311	-0.822807	-0.068022
H122	H	-1.714836	-0.621207	0.172204
H123	H	-1.087424	-0.094836	0.446784
H124	H	-0.897193	-0.230912	0.191893
H125	H	-0.913770	-0.138189	0.015552
H126	H	-1.130938	-0.137002	0.020956
H127	H	-0.895051	0.230944	0.182984
H128	H	-0.914807	0.131725	0.011732
