data_functionalizedCrystal
_audit_creation_method	'MofGen! by Chris Wilmer'
_symmetry_space_group_name_H-M	'P1'
_symmetry_Int_Tables_number	1
_symmetry_cell_setting	triclinic
loop_
_symmetry_equiv_pos_as_xyz
  x,y,z
_cell_length_a	8.634740
_cell_length_b	8.965430
_cell_length_c	8.559649
_cell_angle_alpha	90.001792
_cell_angle_beta	94.825514
_cell_angle_gamma	89.996941
loop_
_atom_site_label
_atom_site_type_symbol
_atom_site_fract_x
_atom_site_fract_y
_atom_site_fract_z
O1	O	1.985456	0.124020	-0.511621
O2	O	1.541585	0.124025	-0.468718
O3	O	1.802626	0.124021	-0.263588
O4	O	1.724415	0.124025	-0.716751
O5	O	1.802636	-0.124058	-0.263597
O6	O	1.541595	-0.124054	-0.468727
O7	O	1.985466	-0.124059	-0.511630
Cu8	Cu	1.763532	-0.146708	-0.490179
Cu9	Cu	1.763520	0.146674	-0.490169
O10	O	1.724425	-0.124054	-0.716760
C11	C	1.485291	-0.000014	-0.459004
C12	C	1.317539	-0.000012	-0.430026
N13	N	1.763551	-0.353057	-0.490188
C14	C	1.884308	-0.450325	-0.395334
C15	C	1.751068	-0.549728	-0.343786
C16	C	1.896749	-0.549781	-0.541626
C17	C	1.630251	-0.450271	-0.438559
C18	C	1.776015	-0.450316	-0.636474
C19	C	1.642670	-0.549674	-0.584971
C20	C	2.041761	-0.000017	-0.521344
C21	C	2.209512	-0.000009	-0.550322
C22	C	1.808558	-0.000016	-0.204975
C23	C	1.826201	-0.000008	-0.030311
N24	N	1.763514	0.353023	-0.490150
C25	C	1.718493	-0.000014	-0.775373
C26	C	1.700851	-0.000013	-0.950037
H27	H	1.245366	-0.000018	-0.675491
O28	O	2.005901	-0.398337	-0.299345
C29	C	2.130113	-0.390085	-0.036640
C30	C	1.992322	-0.449034	-0.145167
H31	H	2.119199	-0.431076	0.088029
H32	H	2.129650	-0.262936	-0.038281
H33	H	2.243572	-0.432690	-0.079363
H34	H	1.878792	-0.406540	-0.102522
H35	H	1.992923	-0.576182	-0.143516
O36	O	1.275054	-0.000075	-0.280606
C37	C	1.360747	0.000021	-0.005321
C38	C	1.409088	0.000056	-0.174460
H39	H	1.469086	0.000159	0.080545
H40	H	1.288744	-0.103822	0.014440
H41	H	1.288604	0.103819	0.014263
H42	H	1.481288	-0.103671	-0.194162
H43	H	1.481013	0.103969	-0.194140
H44	H	1.740497	-0.593397	-0.220058
H45	H	1.517582	-0.406745	-0.394898
H46	H	1.540434	-0.593021	-0.665160
H47	H	1.786633	-0.406615	-0.760172
H48	H	2.009408	-0.593491	-0.585147
H49	H	1.580036	-0.000016	-0.014934
H50	H	1.947023	-0.000021	0.034594
