data_functionalizedCrystal
_audit_creation_method	'MofGen! by Chris Wilmer'
_symmetry_space_group_name_H-M	'P1'
_symmetry_Int_Tables_number	1
_symmetry_cell_setting	triclinic
loop_
_symmetry_equiv_pos_as_xyz
  x,y,z
_cell_length_a	21.295420
_cell_length_b	12.645330
_cell_length_c	12.645323
_cell_angle_alpha	89.976029
_cell_angle_beta	90.022537
_cell_angle_gamma	89.978031
loop_
_atom_site_label
_atom_site_type_symbol
_atom_site_fract_x
_atom_site_fract_y
_atom_site_fract_z
Zn1	Zn	0.962361	0.422150	0.599449
Zn2	Zn	0.962276	0.599438	0.422192
Zn3	Zn	0.857088	0.422176	0.422194
Zn4	Zn	0.857062	0.599359	0.599408
O5	O	0.909697	0.510781	0.510810
O6	O	1.050439	0.445690	0.575952
O7	O	0.948297	0.575968	0.273845
O8	O	0.871100	0.273826	0.445725
O9	O	1.050376	0.575943	0.445722
O10	O	0.948444	0.273806	0.575954
O11	O	0.871017	0.445734	0.273846
O12	O	0.768996	0.445658	0.445685
O13	O	0.871055	0.575808	0.747760
O14	O	0.768976	0.575833	0.575883
O15	O	0.948418	0.445613	0.747791
O16	O	0.948272	0.747775	0.445682
O17	O	0.870972	0.747717	0.575881
C18	C	0.746145	0.510740	0.510781
C19	C	0.676177	0.510749	0.510793
C20	C	0.176751	0.443118	0.578747
C21	C	0.242494	0.443110	0.578747
C22	C	0.275338	0.510813	0.510835
C23	C	0.242434	0.578548	0.442937
C24	C	0.176692	0.578562	0.442947
N25	N	0.378530	0.518808	0.418012
N26	N	0.440981	0.518789	0.418006
C27	C	0.473412	0.510778	0.510804
N28	N	0.441033	0.502766	0.603610
N29	N	0.378576	0.502780	0.603615
C30	C	0.346623	0.510807	0.510818
C31	C	0.577594	0.443044	0.578703
C32	C	0.643338	0.443044	0.578704
C33	C	0.643276	0.578476	0.442885
C34	C	0.577534	0.578482	0.442893
C35	C	0.544697	0.510761	0.510800
C36	C	0.909627	0.786211	0.510800
C37	C	0.909654	0.904041	0.510831
C38	C	0.909743	0.510699	0.787316
C39	C	0.909763	0.510664	0.905146
C40	C	1.073887	0.510822	0.510841
C41	C	1.143855	0.510840	0.510854
C42	C	0.861211	1.071612	0.592995
C43	C	0.860974	0.949053	0.592729
C44	C	0.891691	0.948633	0.399110
C45	C	0.891384	1.071231	0.399610
C46	C	0.976325	1.071138	0.539488
C47	C	0.975927	0.948531	0.541929
C48	C	0.909762	1.234276	0.510848
C49	C	0.909734	1.116446	0.510874
C50	C	0.909687	0.510786	0.235381
C51	C	0.909789	0.510522	0.117551
C52	C	0.860944	0.592183	1.072691
C53	C	0.861072	0.592587	0.950131
C54	C	0.976088	0.540991	0.949666
C55	C	0.975820	0.541502	1.072264
C56	C	0.892884	0.398362	1.072342
C57	C	0.891404	0.399035	0.949736
H58	H	0.150019	0.387978	0.634047
Cl59	Cl	1.033880	0.453602	1.118089
Cl60	Cl	0.684694	0.357908	0.664073
H61	H	0.843525	0.918015	0.374431
Cl62	Cl	0.684560	0.663598	0.357517
Cl63	Cl	0.536176	0.663607	0.357520
H64	H	0.811615	0.573387	1.102165
Cl65	Cl	0.878391	1.117028	0.721320
Cl66	Cl	0.997943	0.668091	1.116444
Cl67	Cl	0.878323	0.902495	0.720629
Cl68	Cl	0.785469	1.119333	0.564124
Cl69	Cl	0.944532	0.903624	0.302055
H70	H	0.924383	0.334976	0.919113
H71	H	0.842595	0.376164	0.920636
Cl72	Cl	1.034695	0.901211	0.456314
Cl73	Cl	1.032143	1.115922	0.447162
Cl74	Cl	0.785138	0.563282	0.903651
Cl75	Cl	0.784762	0.903899	0.563464
Cl76	Cl	0.816229	1.115524	0.362188
Cl77	Cl	0.943574	1.117031	0.301915
Cl78	Cl	0.877966	0.719744	1.120351
H79	H	0.992705	1.101984	0.619571
H80	H	0.928461	0.337521	1.101355
Cl81	Cl	0.996845	0.903529	0.668872
Cl82	Cl	1.033786	0.452069	0.904686
Cl83	Cl	0.878336	0.720950	0.904867
H84	H	0.990664	0.622123	0.918979
H85	H	0.269283	0.387958	0.634033
Cl86	Cl	0.283722	0.663665	0.357566
Cl87	Cl	0.135335	0.663700	0.357583
Cl88	Cl	0.536310	0.357914	0.664074
Cl89	Cl	0.819513	0.355686	1.120049
