data_functionalizedCrystal
_audit_creation_method	'MofGen! by Chris Wilmer'
_symmetry_space_group_name_H-M	'P1'
_symmetry_Int_Tables_number	1
_symmetry_cell_setting	triclinic
loop_
_symmetry_equiv_pos_as_xyz
  x,y,z
_cell_length_a	12.811445
_cell_length_b	12.837938
_cell_length_c	17.766277
_cell_angle_alpha	90.002635
_cell_angle_beta	84.559227
_cell_angle_gamma	90.586919
loop_
_atom_site_label
_atom_site_type_symbol
_atom_site_fract_x
_atom_site_fract_y
_atom_site_fract_z
O1	O	1.406667	-0.139722	-0.158603
O2	O	1.102598	-0.154903	-0.137849
O3	O	1.247891	0.003619	-0.147766
O4	O	1.261374	-0.298245	-0.148686
O5	O	1.247861	0.003628	-0.022576
O6	O	1.102569	-0.154895	-0.012659
O7	O	1.406637	-0.139714	-0.033413
Cu8	Cu	1.254601	-0.147304	-0.011605
Cu9	Cu	1.254635	-0.147313	-0.159657
O10	O	1.261345	-0.298237	-0.023496
C11	C	1.063394	-0.154047	-0.072579
C12	C	0.946620	-0.151495	-0.064609
C13	C	0.727218	-0.146729	-0.186130
C14	C	0.617499	-0.144332	-0.178644
C15	C	0.617459	-0.144312	-0.042154
C16	C	0.727179	-0.146709	-0.049640
C17	C	0.782055	-0.147916	-0.121630
C18	C	0.891776	-0.150306	-0.129114
C19	C	0.891735	-0.150292	0.007375
C20	C	0.782015	-0.147895	0.014860
C21	C	1.243321	0.042264	-0.084862
C22	C	1.229735	0.157400	-0.083940
C23	C	1.393067	0.397650	-0.095111
C24	C	1.380306	0.505831	-0.094245
C25	C	1.191455	0.481946	-0.081347
C26	C	1.204215	0.373764	-0.082213
C27	C	1.305024	0.331621	-0.089094
C28	C	1.317784	0.223437	-0.089955
C29	C	1.128933	0.199554	-0.077062
C30	C	1.116173	0.307735	-0.076196
C31	C	1.445842	-0.140570	-0.098684
C32	C	1.562616	-0.143122	-0.106659
N33	N	1.254584	-0.147296	0.092527
C34	C	1.265916	0.663119	-0.086410
C35	C	1.279504	0.547983	-0.087362
N36	N	1.254659	-0.147313	-0.263789
C37	C	1.318946	-0.077137	0.127520
C38	C	1.318952	-0.077132	0.206322
C39	C	1.254607	-0.147305	0.250126
C40	C	1.190232	-0.217469	0.215123
C41	C	1.190221	-0.217465	0.136324
C42	C	1.250295	-0.241695	0.375258
C43	C	1.250314	-0.241701	0.454056
C44	C	1.254636	-0.147317	0.493170
C45	C	1.258962	-0.052924	0.453476
C46	C	1.258950	-0.052920	0.374676
C47	C	1.254612	-0.147317	0.335571
C48	C	1.319008	-0.077147	0.613609
C49	C	1.319006	-0.077141	0.692412
C50	C	1.190292	-0.217487	0.701212
C51	C	1.190288	-0.217484	0.622410
C52	C	1.254652	-0.147315	0.578613
H53	H	0.936394	-0.151257	0.059896
C54	C	1.119464	-0.294694	0.097826
N55	N	1.066189	-0.352881	0.068828
H56	H	0.737320	-0.146916	0.073473
C57	C	1.389797	0.000048	0.565430
N58	N	1.443115	0.058195	0.529144
C59	C	1.119568	-0.294741	0.583910
N60	N	1.066323	-0.352958	0.554911
C61	C	1.428675	0.177081	-0.097527
N62	N	1.512201	0.142169	-0.103233
C63	C	1.080573	0.528324	-0.073771
N64	N	0.997056	0.563257	-0.068060
C65	C	1.389737	0.000061	0.079349
N66	N	1.443053	0.058210	0.043065
H67	H	1.057242	0.145781	-0.072157
H68	H	0.572760	-0.143338	0.016457
H69	H	1.034096	0.342064	-0.070597
H70	H	1.371364	-0.019998	0.234819
H71	H	0.771899	-0.147707	-0.244747
C72	C	1.263694	0.050910	0.331016
N73	N	1.267261	0.129117	0.298132
H74	H	1.475149	0.363336	-0.100707
H75	H	1.137840	-0.274603	0.250792
H76	H	0.936455	-0.151288	-0.187732
C77	C	1.263714	0.050906	0.496495
N78	N	1.267294	0.129108	0.528901
H79	H	1.371413	-0.020003	0.720905
H80	H	1.137897	-0.274618	0.736877
C81	C	0.557183	-0.143020	-0.249600
N82	N	0.511754	-0.142031	-0.303047
H83	H	1.452000	0.559589	-0.099147
H84	H	1.246799	-0.318561	0.486368
C85	C	1.245540	-0.345531	0.332240
N86	N	1.241959	-0.423738	0.299840
