data_functionalizedCrystal
_audit_creation_method	'MofGen! by Chris Wilmer'
_symmetry_space_group_name_H-M	'P1'
_symmetry_Int_Tables_number	1
_symmetry_cell_setting	triclinic
loop_
_symmetry_equiv_pos_as_xyz
  x,y,z
_cell_length_a	19.077105
_cell_length_b	17.640280
_cell_length_c	19.076919
_cell_angle_alpha	98.508881
_cell_angle_beta	89.923776
_cell_angle_gamma	76.093206
loop_
_atom_site_label
_atom_site_type_symbol
_atom_site_fract_x
_atom_site_fract_y
_atom_site_fract_z
Zn1	Zn	1.129876	-0.382634	0.374495
Zn2	Zn	1.629876	0.117366	0.874495
Zn3	Zn	1.158314	-0.509803	0.235079
Zn4	Zn	1.658314	-0.009803	0.735079
Zn5	Zn	1.015111	-0.372039	0.254114
Zn6	Zn	1.515111	0.127961	0.754114
Zn7	Zn	1.036046	-0.509326	0.347913
Zn8	Zn	1.536046	-0.009326	0.847913
O9	O	1.084837	-0.443450	0.302900
O10	O	1.584837	0.056550	0.802900
O11	O	1.232847	-0.404137	0.359159
O12	O	1.732847	0.095863	0.859159
O13	O	1.142458	-0.487294	0.140002
O14	O	1.642458	0.012706	0.640002
O15	O	1.009672	-0.262768	0.289173
O16	O	1.509672	0.237232	0.789173
O17	O	1.253740	-0.497568	0.256731
O18	O	1.753740	0.002432	0.756731
O19	O	1.093989	-0.270552	0.377617
O20	O	1.593989	0.229448	0.877617
O21	O	1.037247	-0.386079	0.153987
O22	O	1.537247	0.113921	0.653987
O23	O	0.918689	-0.385616	0.263398
O24	O	1.418689	0.114384	0.763398
O25	O	1.045353	-0.496755	0.449041
O26	O	1.545353	0.003245	0.949041
O27	O	0.934070	-0.486481	0.332312
O28	O	1.434070	0.013519	0.832312
O29	O	1.114289	-0.403674	0.468571
O30	O	1.614289	0.096326	0.968571
O31	O	1.162758	-0.620416	0.230956
O32	O	1.662758	-0.120416	0.730956
O33	O	1.072929	-0.620066	0.313855
O34	O	1.572929	-0.120066	0.813855
C35	C	0.900659	-0.434848	0.297037
C36	C	1.400659	0.065152	0.797037
C37	C	0.821869	-0.431187	0.294542
C38	C	1.321869	0.068813	0.794542
C39	C	1.123220	-0.648940	0.267471
C40	C	1.623220	-0.148940	0.767471
C41	C	1.139704	-0.736853	0.252340
C42	C	1.639704	-0.236853	0.752340
C43	C	0.792897	-0.482056	0.329166
C44	C	1.292897	0.017944	0.829166
C45	C	0.718864	-0.478606	0.326827
C46	C	1.218864	0.021394	0.826827
C47	C	0.673806	-0.424291	0.289859
C48	C	1.173806	0.075709	0.789859
C49	C	0.702782	-0.373417	0.255233
C50	C	1.202782	0.126583	0.755233
C51	C	0.776813	-0.376864	0.257577
C52	C	1.276813	0.123136	0.757577
C53	C	0.451534	-0.408341	0.279014
C54	C	0.951534	0.091659	0.779014
C55	C	0.377499	-0.404900	0.276671
C56	C	0.877499	0.095100	0.776671
C57	C	0.393586	-0.510088	0.348266
C58	C	0.893586	-0.010088	0.848266
C59	C	0.467618	-0.513532	0.350603
C60	C	0.967618	-0.013532	0.850603
C61	C	0.496587	-0.462656	0.315981
C62	C	0.996587	0.037344	0.815981
N63	N	0.598132	-0.420765	0.287465
N64	N	1.098132	0.079235	0.787465
N65	N	0.572258	-0.466178	0.318379
N66	N	1.072258	0.033822	0.818379
C67	C	0.959888	-1.025193	0.418115
C68	C	1.459888	-0.525193	0.918115
C69	C	0.975380	-1.107800	0.403874
C70	C	1.475380	-0.607800	0.903874
C71	C	1.068973	-1.108106	0.317643
C72	C	1.568973	-0.608106	0.817643
C73	C	1.053491	-1.025498	0.331879
C74	C	1.553491	-0.525498	0.831879
C75	C	0.998948	-0.984048	0.382115
C76	C	1.498948	-0.484048	0.882115
C77	C	1.092551	-0.984353	0.295879
C78	C	1.592551	-0.484353	0.795879
C79	C	1.077068	-0.901751	0.310111
C80	C	1.577068	-0.401751	0.810111
C81	C	1.022525	-0.860295	0.360343
C82	C	1.522525	-0.360295	0.860343
C83	C	0.983465	-0.901447	0.396347
C84	C	1.483465	-0.401447	0.896347
C85	C	1.147091	-1.025804	0.245640
C86	C	1.647091	-0.525804	0.745640
C87	C	1.186150	-0.984658	0.209640
C88	C	1.686150	-0.484658	0.709640
C89	C	1.170671	-0.902056	0.223875
C90	C	1.670671	-0.402056	0.723875
C91	C	1.116128	-0.860600	0.274107
C92	C	1.616128	-0.360600	0.774107
C93	C	1.209731	-0.860904	0.187872
C94	C	1.709731	-0.360904	0.687872
C95	C	1.194248	-0.778303	0.202104
C96	C	1.694248	-0.278303	0.702104
C97	C	1.100645	-0.777998	0.288339
C98	C	1.600645	-0.277998	0.788339
C99	C	1.269734	-0.452087	0.308787
C100	C	1.769734	0.047913	0.808787
C101	C	1.348526	-0.455768	0.311295
C102	C	1.848526	0.044232	0.811295
C103	C	1.078984	-0.451343	0.484821
C104	C	1.578984	0.048657	0.984821
C105	C	1.076490	-0.454707	0.562344
C106	C	1.576490	0.045293	1.062344
C107	C	1.046323	-0.237160	0.338484
C108	C	1.546323	0.262840	0.838484
C109	C	1.029910	-0.149252	0.353647
C110	C	1.529910	0.350748	0.853647
C111	C	1.090696	-0.435533	0.121699
C112	C	1.590696	0.064467	0.621699
C113	C	1.093286	-0.431953	0.044218
C114	C	1.593286	0.068047	0.544218
C115	C	1.111208	-0.407827	0.608934
C116	C	1.611208	0.092173	1.108934
C117	C	1.108856	-0.410984	0.681775
C118	C	1.608856	0.089016	1.181775
C119	C	1.071789	-0.461025	0.708026
C120	C	1.571789	0.038975	1.208026
C121	C	1.037067	-0.507907	0.661431
C122	C	1.537067	-0.007907	1.161431
C123	C	1.039416	-0.504745	0.588591
C124	C	1.539416	-0.004745	1.088591
C125	C	1.060912	-0.475673	0.924783
C126	C	1.560912	0.024327	1.424783
C127	C	1.058568	-0.478833	0.997629
C128	C	1.558568	0.021167	1.497629
C129	C	1.130356	-0.381909	1.017969
C130	C	1.630356	0.118091	1.517969
C131	C	1.132705	-0.378755	0.945126
C132	C	1.632705	0.121245	1.445126
C133	C	1.097980	-0.425634	0.898538
C134	C	1.597980	0.074366	1.398538
N135	N	1.069386	-0.464255	0.782482
N136	N	1.569386	0.035745	1.282482
N137	N	1.100379	-0.422399	0.824084
N138	N	1.600379	0.077601	1.324084
H139	H	0.829580	-0.526287	0.359267
H140	H	1.329580	-0.026287	0.859267
H141	H	1.158626	-0.343742	1.055908
H142	H	1.658626	0.156258	1.555908
H143	H	0.504301	-0.557763	0.380705
H144	H	1.004301	-0.057763	0.880705
H145	H	0.915478	-0.991444	0.459027
H146	H	1.415478	-0.491444	0.959027
H147	H	1.009915	-0.793035	0.371925
H148	H	1.509915	-0.293035	0.871925
H149	H	1.162891	-0.338009	0.923758
H150	H	1.662891	0.161991	1.423758
H151	H	1.011136	-0.542911	0.550659
H152	H	1.511136	-0.042911	1.050659
H153	H	1.056235	-0.744249	0.329252
H154	H	1.556235	-0.244249	0.829252
H155	H	0.695279	-0.520029	0.355021
H156	H	1.195279	-0.020029	0.855021
H157	H	1.028383	-0.519584	1.018998
H158	H	1.528383	-0.019584	1.518998
H159	H	1.113380	-1.141866	0.276739
H160	H	1.613380	-0.641866	0.776739
H161	H	0.369990	-0.551507	0.376454
H162	H	0.869990	-0.051507	0.876454
H163	H	1.032649	-0.513857	0.886858
H164	H	1.532649	-0.013857	1.386858
H165	H	0.340811	-0.360661	0.246573
H166	H	0.840811	0.139339	0.746573
H167	H	0.475112	-0.366919	0.250816
H168	H	0.975112	0.133081	0.750816
H169	H	0.666089	-0.329190	0.225136
H170	H	1.166089	0.170810	0.725136
H171	H	1.006884	-0.548648	0.682810
H172	H	1.506884	-0.048648	1.182810
H173	H	0.939055	-0.867697	0.437259
H174	H	1.439055	-0.367697	0.937259
H175	H	0.800399	-0.335437	0.229387
H176	H	1.300399	0.164563	0.729387
H177	H	0.943577	-1.141299	0.433202
H178	H	1.443577	-0.641299	0.933202
H179	H	1.159697	-1.093063	0.234056
H180	H	1.659697	-0.593063	0.734056
H181	H	1.230557	-1.018418	0.168736
H182	H	1.730557	-0.518418	0.668736
H183	H	1.254135	-0.894665	0.146965
H184	H	1.754135	-0.394665	0.646965
H185	H	1.226054	-0.744802	0.172788
H186	H	1.726054	-0.244802	0.672788
H187	H	1.137129	-0.372812	0.719706
H188	H	1.637129	0.127188	1.219706
H189	H	1.141394	-0.367081	0.587566
H190	H	1.641394	0.132919	1.087566
