data_functionalizedCrystal
_audit_creation_method	'MofGen! by Chris Wilmer'
_symmetry_space_group_name_H-M	'P1'
_symmetry_Int_Tables_number	1
_symmetry_cell_setting	triclinic
loop_
_symmetry_equiv_pos_as_xyz
  x,y,z
_cell_length_a	16.992694
_cell_length_b	14.519731
_cell_length_c	16.053802
_cell_angle_alpha	92.569546
_cell_angle_beta	87.249047
_cell_angle_gamma	87.178538
loop_
_atom_site_label
_atom_site_type_symbol
_atom_site_fract_x
_atom_site_fract_y
_atom_site_fract_z
O1	O	1.043976	0.191935	-0.069328
O2	O	1.543976	0.691935	0.430672
O3	O	0.815689	0.189788	-0.069352
O4	O	1.315689	0.689788	0.430648
O5	O	0.935876	0.057059	-0.069332
O6	O	1.435876	0.557059	0.430668
O7	O	0.923789	0.324665	-0.069348
O8	O	1.423789	0.824665	0.430652
O9	O	0.929260	0.064332	0.069526
O10	O	1.429260	0.564332	0.569526
O11	O	0.809073	0.197062	0.069506
O12	O	1.309073	0.697062	0.569506
O13	O	1.037360	0.199209	0.069530
O14	O	1.537360	0.699209	0.569530
Zn15	Zn	0.922166	0.199290	0.091565
Zn16	Zn	1.422166	0.699290	0.591565
Zn17	Zn	0.930883	0.189707	-0.091386
Zn18	Zn	1.430883	0.689707	0.408614
O19	O	0.917173	0.331938	0.069510
O20	O	1.417173	0.831938	0.569510
C21	C	0.783164	0.190665	0.000074
C22	C	1.283164	0.690665	0.500074
C23	C	0.696109	0.182429	0.000065
C24	C	1.196109	0.682429	0.500065
C25	C	0.645985	0.261888	0.000060
C26	C	1.145985	0.761888	0.500060
C27	C	0.564186	0.254145	0.000072
C28	C	1.064186	0.754145	0.500072
C29	C	0.532513	0.166942	0.000083
C30	C	1.032513	0.666942	0.500083
C31	C	0.582643	0.087477	0.000089
C32	C	1.082643	0.587477	0.500089
C33	C	0.664440	0.095221	0.000083
C34	C	1.164440	0.595221	0.500083
C35	C	0.288867	0.134847	0.000107
C36	C	0.788867	0.634847	0.500107
C37	C	0.207065	0.127108	0.000110
C38	C	0.707065	0.627108	0.500110
C39	C	0.188613	0.293778	0.000095
C40	C	0.688613	0.793778	0.500095
C41	C	0.270412	0.301514	0.000084
C42	C	0.770412	0.801514	0.500084
C43	C	0.320535	0.222049	0.000095
C44	C	0.820535	0.722049	0.500095
N45	N	0.448903	0.159026	0.000092
N46	N	0.948903	0.659026	0.500092
N47	N	0.404144	0.229967	0.000091
N48	N	0.904144	0.729967	0.500091
C49	C	0.932002	0.026295	0.000097
C50	C	1.432002	0.526295	0.500097
C51	C	0.930305	-0.076207	0.000098
C52	C	1.430305	0.423793	0.500098
C53	C	0.928926	-0.159450	0.000096
C54	C	1.428926	0.340550	0.500096
C55	C	0.927203	-0.263883	0.000089
C56	C	1.427203	0.236117	0.500089
C57	C	0.925835	-0.347120	0.000084
C58	C	1.425835	0.152880	0.500084
C59	C	0.924112	-0.451559	0.000079
C60	C	1.424112	0.048441	0.500079
C61	C	1.069885	0.198332	0.000103
C62	C	1.569885	0.698332	0.500103
C63	C	1.156941	0.206568	0.000106
C64	C	1.656941	0.706568	0.500106
C65	C	0.921047	0.362701	0.000079
C66	C	1.421047	0.862701	0.500079
C67	C	0.922745	0.465203	0.000073
C68	C	1.422745	0.965203	0.500073
N69	N	0.916224	0.205830	0.216424
N70	N	1.416224	0.705830	0.716424
N71	N	0.936832	0.183160	-0.216246
N72	N	1.436832	0.683160	0.283754
C73	C	0.967382	0.149377	0.260127
C74	C	1.467382	0.649377	0.760127
C75	C	0.963232	0.153961	0.347533
C76	C	1.463232	0.653961	0.847533
C77	C	0.907927	0.215004	0.391234
C78	C	1.407927	0.715004	0.891234
C79	C	0.856763	0.271460	0.347526
C80	C	1.356763	0.771460	0.847526
C81	C	0.860910	0.266871	0.260121
C82	C	1.360910	0.766871	0.760121
C83	C	0.889814	0.235026	0.652641
C84	C	1.389814	0.735026	1.152641
C85	C	0.885673	0.239614	0.740052
C86	C	1.385673	0.739614	1.240052
C87	C	0.992142	0.122112	0.740053
C88	C	1.492142	0.622112	1.240053
C89	C	0.996287	0.117532	0.652646
C90	C	1.496287	0.617532	1.152646
C91	C	0.945120	0.173985	0.608945
C92	C	1.445120	0.673985	1.108945
N93	N	0.903686	0.219694	0.480578
N94	N	1.403686	0.719694	0.980578
N95	N	0.949358	0.169290	0.519604
N96	N	1.449358	0.669290	1.019604
H97	H	0.296194	0.372523	0.000066
H98	H	0.796194	0.872523	0.500066
C99	C	0.172222	0.031183	0.000128
C100	C	0.672222	0.531183	0.500128
H101	H	0.116328	0.037955	0.000121
H102	H	0.616328	0.537955	0.500121
H103	H	0.187114	0.000752	0.048555
H104	H	0.687114	0.500752	0.548555
H105	H	0.191718	-0.004330	-0.048296
H106	H	0.691718	0.495670	0.451704
H107	H	1.033799	0.076150	0.775642
H108	H	1.533799	0.576150	1.275642
H109	H	0.671766	0.332898	0.000051
H110	H	1.171766	0.832898	0.500051
C111	C	0.824793	0.306712	0.788122
C112	C	1.324793	0.806712	1.288122
H113	H	0.794897	0.339656	0.749578
H114	H	1.294897	0.839656	1.249578
H115	H	0.851397	0.349013	0.822230
H116	H	1.351397	0.849013	1.322230
H117	H	0.790506	0.272839	0.822207
H118	H	1.290506	0.772839	1.322207
C119	C	1.057156	0.050429	0.604577
C120	C	1.557156	0.550429	1.104577
H121	H	1.052314	0.055802	0.546262
H122	H	1.552314	0.555802	1.046262
H123	H	1.047914	-0.011025	0.618889
H124	H	1.547914	0.488975	1.118889
H125	H	1.108810	0.065143	0.618914
H126	H	1.608810	0.565143	1.118914
H127	H	0.819250	0.312840	0.224539
H128	H	1.319250	0.812840	0.724539
C129	C	0.719577	0.007816	0.000080
C130	C	1.219577	0.507816	0.500080
H131	H	0.689000	-0.045229	0.000078
H132	H	1.189000	0.454771	0.500078
H133	H	0.749572	0.009906	0.048499
H134	H	1.249572	0.509906	0.548499
H135	H	0.754166	0.004838	-0.048353
H136	H	1.254166	0.504838	0.451647
C137	C	0.547809	-0.008446	0.000100
C138	C	1.047809	0.491554	0.500100
H139	H	0.589378	-0.054660	0.000109
H140	H	1.089378	0.445340	0.500109
H141	H	0.518584	-0.017470	-0.048321
H142	H	1.018584	0.482530	0.451679
H143	H	0.513984	-0.012394	0.048531
H144	H	1.013984	0.487606	0.548531
H145	H	0.329668	0.070140	0.000117
H146	H	0.829668	0.570140	0.500117
H147	H	1.012421	0.099673	0.224550
H148	H	1.512421	0.599673	0.724550
C149	C	0.133477	0.381181	0.000093
C150	C	0.633477	0.881181	0.500093
H151	H	0.080225	0.364084	0.000106
H152	H	0.580225	0.864084	0.500106
H153	H	0.145390	0.414157	-0.048330
H154	H	0.645390	0.914157	0.451670
H155	H	0.140794	0.419222	0.048521
H156	H	0.640794	0.919222	0.548521
H157	H	0.523378	0.318850	0.000068
H158	H	1.023378	0.818850	0.500068
H159	H	0.848154	0.280994	0.617066
H160	H	1.348154	0.780994	1.117066
H161	H	1.004889	0.107991	0.383115
H162	H	1.504889	0.607991	0.883115
H163	H	0.811729	0.321160	0.383113
H164	H	1.311729	0.821160	0.883113
