data_functionalizedCrystal
_audit_creation_method	'MofGen! by Chris Wilmer'
_symmetry_space_group_name_H-M	'P1'
_symmetry_Int_Tables_number	1
_symmetry_cell_setting	triclinic
loop_
_symmetry_equiv_pos_as_xyz
  x,y,z
_cell_length_a	13.033293
_cell_length_b	12.759399
_cell_length_c	13.032268
_cell_angle_alpha	97.151554
_cell_angle_beta	89.079182
_cell_angle_gamma	97.185914
loop_
_atom_site_label
_atom_site_type_symbol
_atom_site_fract_x
_atom_site_fract_y
_atom_site_fract_z
Zn1	Zn	1.498470	-0.326866	-0.781500
Zn2	Zn	1.998470	0.173134	-0.281500
Zn3	Zn	1.520217	-0.477847	-0.609535
Zn4	Zn	2.020217	0.022153	-0.109535
Zn5	Zn	1.348330	-0.321317	-0.587675
Zn6	Zn	1.848330	0.178683	-0.087675
Zn7	Zn	1.326469	-0.521644	-0.759578
Zn8	Zn	1.826469	-0.021644	-0.259578
O9	O	1.423372	-0.411919	-0.684572
O10	O	1.923372	0.088081	-0.184572
O11	O	1.645273	-0.330886	-0.777012
O12	O	2.145273	0.169114	-0.277012
O13	O	1.515666	-0.436432	-0.462726
O14	O	2.015666	0.063568	0.037274
O15	O	1.368295	-0.175030	-0.613413
O16	O	1.868295	0.324970	-0.113413
O17	O	1.661250	-0.441812	-0.650670
O18	O	2.161250	0.058188	-0.150670
O19	O	1.478602	-0.179106	-0.755815
O20	O	1.978602	0.320894	-0.255815
O21	O	1.389382	-0.321430	-0.446666
O22	O	1.889382	0.178570	0.053334
O23	O	1.201512	-0.363899	-0.592156
O24	O	1.701512	0.136101	-0.092156
O25	O	1.331035	-0.516458	-0.906395
O26	O	1.831035	-0.016458	-0.406395
O27	O	1.185450	-0.511078	-0.718451
O28	O	1.685450	-0.011078	-0.218451
O29	O	1.457404	-0.373355	-0.922502
O30	O	1.957404	0.126645	-0.422502
O31	O	1.494468	-0.630681	-0.629412
O32	O	1.994468	-0.130681	-0.129412
O33	O	1.352122	-0.662858	-0.739648
O34	O	1.852122	-0.162858	-0.239648
C35	C	1.156165	-0.441640	-0.650553
C36	C	1.656165	0.058360	-0.150553
C37	C	1.041849	-0.454383	-0.636024
C38	C	1.541849	0.045617	-0.136024
C39	C	0.982966	-0.405294	-0.692155
C40	C	1.482966	0.094706	-0.192155
C41	C	0.864815	-0.418464	-0.677140
C42	C	1.364815	0.081536	-0.177140
C43	C	1.423307	-0.684891	-0.684549
C44	C	1.923307	-0.184891	-0.184549
C45	C	1.423369	-0.801665	-0.684586
C46	C	1.923369	-0.301665	-0.184586
C47	C	1.366028	-0.854472	-0.610416
C48	C	1.866028	-0.354472	-0.110416
C49	C	1.366096	-0.964191	-0.610441
C50	C	1.866096	-0.464191	-0.110441
C51	C	1.480847	-0.968286	-0.758816
C52	C	1.980847	-0.468286	-0.258816
C53	C	1.480785	-0.858568	-0.758785
C54	C	1.980785	-0.358568	-0.258785
C55	C	1.308613	-0.797569	-0.536216
C56	C	1.808613	-0.297569	-0.036216
C57	C	1.251266	-0.850377	-0.462041
C58	C	1.751266	-0.350377	0.037959
C59	C	1.251334	-0.960096	-0.462066
C60	C	1.751334	-0.460096	0.037934
C61	C	1.308748	-1.017007	-0.536267
C62	C	1.808748	-0.517007	-0.036267
C63	C	1.691622	-0.382082	-0.718724
C64	C	2.191622	0.117918	-0.218724
C65	C	1.805934	-0.369368	-0.733278
C66	C	2.305934	0.130632	-0.233278
C67	C	1.389355	-0.450411	-0.952806
C68	C	1.889355	0.049589	-0.452806
C69	C	1.374859	-0.466813	-1.067111
C70	C	1.874859	0.033187	-0.567111
C71	C	1.423461	-0.137880	-0.684621
C72	C	1.923461	0.362120	-0.184621
C73	C	1.423500	-0.021101	-0.684642
C74	C	1.923500	0.478899	-0.184642
C75	C	1.430921	-0.403322	-1.126041
C76	C	1.930921	0.096678	-0.626041
C77	C	1.415940	-0.420273	-1.244182
C78	C	1.915940	0.079727	-0.744182
C79	C	1.457315	-0.373494	-0.417389
C80	C	1.957315	0.126506	0.082611
C81	C	1.472010	-0.356773	-0.303110
C82	C	1.972010	0.143227	0.196890
H83	H	1.020026	-0.353513	-0.751323
H84	H	1.520026	0.146487	-0.251323
N85	N	1.542742	-1.029672	-0.838860
N86	N	2.042742	-0.529672	-0.338860
H87	H	1.579055	-0.979569	-0.885847
H88	H	2.079055	-0.479569	-0.385847
H89	H	1.595701	-1.063874	-0.803127
H90	H	2.095701	-0.563874	-0.303127
N91	N	1.542625	-0.801593	-0.838778
N92	N	2.042625	-0.301593	-0.338778
H93	H	1.618150	-0.810159	-0.832229
H94	H	2.118150	-0.310159	-0.332229
H95	H	1.517206	-0.833023	-0.910171
H96	H	2.017206	-0.333023	-0.410171
H97	H	0.842987	-0.317581	-0.792449
H98	H	1.342987	0.182419	-0.292449
H99	H	1.204528	-0.804033	-0.401623
H100	H	1.704528	-0.304033	0.098377
H101	H	1.356842	-0.487179	-1.281187
H102	H	1.856842	0.012821	-0.781187
H103	H	1.315765	-0.533715	-1.104121
H104	H	1.815765	-0.033715	-0.604121
H105	H	1.204648	-1.003087	-0.401663
H106	H	1.704648	-0.503087	0.098337
N107	N	1.308835	-1.135344	-0.536288
N108	N	1.808835	-0.635344	-0.036288
H109	H	1.263802	-1.160164	-0.478039
H110	H	1.763802	-0.660164	0.021961
H111	H	1.280974	-1.173921	-0.604450
H112	H	1.780974	-0.673921	-0.104450
H113	H	0.827761	-0.470242	-0.617962
H114	H	1.327761	0.029758	-0.117962
H115	H	1.531096	-0.289855	-1.266104
H116	H	2.031096	0.210145	-0.766104
H117	H	1.490005	-0.336411	-1.089030
H118	H	1.990005	0.163589	-0.589030
N119	N	0.992776	-0.522961	-0.557632
N120	N	1.492776	-0.022961	-0.057632
H121	H	0.915329	-0.522645	-0.558015
H122	H	1.415329	-0.022645	-0.058015
H123	H	1.009477	-0.598230	-0.575873
H124	H	1.509477	-0.098230	-0.075873
H125	H	1.308550	-0.708231	-0.536188
H126	H	1.808550	-0.208231	-0.036188
