data_functionalizedCrystal
_audit_creation_method	'MofGen! by Chris Wilmer'
_symmetry_space_group_name_H-M	'P1'
_symmetry_Int_Tables_number	1
_symmetry_cell_setting	triclinic
loop_
_symmetry_equiv_pos_as_xyz
  x,y,z
_cell_length_a	11.792241
_cell_length_b	16.109301
_cell_length_c	15.186229
_cell_angle_alpha	89.998295
_cell_angle_beta	89.998567
_cell_angle_gamma	83.827448
loop_
_atom_site_label
_atom_site_type_symbol
_atom_site_fract_x
_atom_site_fract_y
_atom_site_fract_z
O1	O	-1.505912	-0.113949	0.073146
O2	O	-1.005912	0.386051	0.573146
O3	O	-1.175468	-0.125693	0.073167
O4	O	-0.675468	0.374307	0.573167
O5	O	-1.349768	0.001168	0.073147
O6	O	-0.849768	0.501168	0.573147
O7	O	-1.331612	-0.240809	0.073166
O8	O	-0.831612	0.259191	0.573166
O9	O	-1.349747	0.001160	-0.073310
O10	O	-0.849747	0.501160	0.426690
O11	O	-1.175447	-0.125700	-0.073290
O12	O	-0.675447	0.374300	0.426710
O13	O	-1.505892	-0.113956	-0.073311
O14	O	-1.005892	0.386044	0.426689
Zn15	Zn	-1.340666	-0.119829	-0.096554
Zn16	Zn	-0.840666	0.380171	0.403446
Zn17	Zn	-1.340693	-0.119820	0.096410
Zn18	Zn	-0.840693	0.380180	0.596410
O19	O	-1.331592	-0.240816	-0.073291
O20	O	-0.831592	0.259184	0.426709
C21	C	-1.133173	-0.124959	-0.000059
C22	C	-0.633173	0.375041	0.499941
C23	C	-1.007179	-0.122751	-0.000051
C24	C	-0.507179	0.377249	0.499949
C25	C	-1.548186	-0.114690	-0.000083
C26	C	-1.048186	0.385310	0.499917
C27	C	-1.674181	-0.116898	-0.000085
C28	C	-1.174181	0.383102	0.499915
C29	C	-1.349022	0.032142	-0.000082
C30	C	-0.849022	0.532142	0.499918
C31	C	-1.346817	0.124448	-0.000083
C32	C	-0.846817	0.624448	0.499917
C33	C	-0.776502	-0.118690	-0.000077
C34	C	-0.276502	0.381310	0.499923
C35	C	-0.904868	-0.120946	-0.000063
C36	C	-0.404868	0.379054	0.499937
C37	C	-1.332338	-0.271791	-0.000060
C38	C	-0.832338	0.228209	0.499940
C39	C	-1.334542	-0.364097	-0.000053
C40	C	-0.834542	0.135903	0.499947
N41	N	-1.340656	-0.119835	-0.228247
N42	N	-0.840656	0.380165	0.271753
C43	C	-1.445116	0.346258	-0.000075
C44	C	-0.945116	0.846258	0.499925
C45	C	-1.443036	0.432988	-0.000068
C46	C	-0.943036	0.932988	0.499932
C47	C	-1.236235	0.414087	-0.000058
C48	C	-0.736235	0.914087	0.499942
C49	C	-1.238317	0.327358	-0.000060
C50	C	-0.738317	0.827358	0.499940
C51	C	-1.342761	0.293446	-0.000072
C52	C	-0.842761	0.793446	0.499928
C53	C	-1.338599	0.466905	-0.000064
C54	C	-0.838599	0.966905	0.499936
C55	C	-1.336342	0.560942	-0.000056
C56	C	-0.836342	1.060942	0.499944
C57	C	-1.345018	0.199404	-0.000079
C58	C	-0.845018	0.699404	0.499921
C59	C	-1.409491	-0.170587	-0.453970
C60	C	-0.909491	0.329413	0.046030
C61	C	-1.409503	-0.170581	-0.546159
C62	C	-0.909503	0.329419	-0.046159
C63	C	-1.271875	-0.069049	-0.546168
C64	C	-0.771875	0.430951	-0.046168
C65	C	-1.271869	-0.069051	-0.453980
C66	C	-0.771869	0.430949	0.046020
C67	C	-1.340675	-0.119825	-0.407883
C68	C	-0.840675	0.380175	0.092117
C69	C	-1.340693	-0.119817	-0.592261
C70	C	-0.840693	0.380183	-0.092261
C71	C	-1.340706	-0.119810	-0.692217
C72	C	-0.840706	0.380190	-0.192217
C73	C	-1.340664	-0.119831	-0.307921
C74	C	-0.840664	0.380169	0.192079
N75	N	-1.340712	-0.119807	0.228102
N76	N	-0.840712	0.380193	0.728102
H77	H	-1.526384	0.475984	-0.000069
H78	H	-1.026384	0.975984	0.499931
N79	N	-1.123590	0.450664	-0.000048
N80	N	-0.623590	0.950664	0.499952
H81	H	-1.137800	0.513620	-0.000051
H82	H	-0.637800	1.013620	0.499949
H83	H	-1.078798	0.431377	-0.054340
H84	H	-0.578798	0.931377	0.445660
H85	H	-1.154962	0.284357	-0.000054
H86	H	-0.654962	0.784357	0.499946
N87	N	-1.197636	-0.014301	-0.404267
N88	N	-0.697636	0.485699	0.095733
H89	H	-1.208079	-0.022005	-0.338873
H90	H	-0.708079	0.477995	0.161127
H91	H	-1.220086	0.046057	-0.420381
H92	H	-0.720086	0.546057	0.079619
N93	N	-1.483754	-0.225311	-0.595868
N94	N	-0.983754	0.274689	-0.095868
H95	H	-1.527347	-0.257467	-0.552674
H96	H	-1.027347	0.242533	-0.052674
H97	H	-1.434282	-0.265715	-0.634133
H98	H	-0.934282	0.234285	-0.134133
H99	H	-1.530161	0.318650	-0.000084
H100	H	-1.030161	0.818650	0.499916
N101	N	-1.483716	-0.225340	-0.404257
N102	N	-0.983716	0.274660	0.095743
H103	H	-1.539275	-0.189413	-0.366006
H104	H	-1.039275	0.310587	0.133994
H105	H	-1.434213	-0.265789	-0.366061
H106	H	-0.934213	0.234211	0.133939
N107	N	-1.197665	-0.014289	-0.595886
N108	N	-0.697665	0.485711	-0.095886
H109	H	-1.208107	-0.021991	-0.661281
H110	H	-0.708107	0.478009	-0.161281
H111	H	-1.115117	-0.030310	-0.579776
H112	H	-0.615117	0.469690	-0.079776
