data_functionalizedCrystal
_audit_creation_method	'MofGen! by Chris Wilmer'
_symmetry_space_group_name_H-M	'P1'
_symmetry_Int_Tables_number	1
_symmetry_cell_setting	triclinic
loop_
_symmetry_equiv_pos_as_xyz
  x,y,z
_cell_length_a	18.215407
_cell_length_b	18.215405
_cell_length_c	11.169409
_cell_angle_alpha	89.961391
_cell_angle_beta	89.978878
_cell_angle_gamma	90.021279
loop_
_atom_site_label
_atom_site_type_symbol
_atom_site_fract_x
_atom_site_fract_y
_atom_site_fract_z
Zn1	Zn	1.125108	-0.292975	-0.678508
Zn2	Zn	1.625108	0.207025	-0.178508
Zn3	Zn	1.125010	-0.416066	-0.477802
Zn4	Zn	1.625010	0.083934	0.022198
Zn5	Zn	1.002032	-0.293012	-0.477840
Zn6	Zn	1.502032	0.206988	0.022160
Zn7	Zn	1.002009	-0.415999	-0.678445
Zn8	Zn	1.502009	0.084001	-0.178445
O9	O	1.063540	-0.354513	-0.578149
O10	O	1.563540	0.145487	-0.078149
O11	O	1.228079	-0.309316	-0.651894
O12	O	1.728079	0.190684	-0.151894
O13	O	1.108665	-0.399786	-0.309858
O14	O	1.608665	0.100214	0.190142
O15	O	1.018409	-0.190023	-0.504501
O16	O	1.518409	0.309977	-0.004501
O17	O	1.228007	-0.399750	-0.504437
O18	O	1.728007	0.100250	-0.004437
O19	O	1.108832	-0.189996	-0.651931
O20	O	1.608832	0.310004	-0.151931
O21	O	1.018313	-0.309379	-0.309885
O22	O	1.518313	0.190621	0.190115
O23	O	0.899044	-0.309314	-0.504441
O24	O	1.399044	0.190686	-0.004441
O25	O	1.018370	-0.399636	-0.846404
O26	O	1.518370	0.100364	-0.346404
O27	O	0.899028	-0.399672	-0.651824
O28	O	1.399028	0.100328	-0.151824
O29	O	1.108810	-0.309251	-0.846449
O30	O	1.608810	0.190749	-0.346449
O31	O	1.108643	-0.519041	-0.504376
O32	O	1.608643	-0.019041	-0.004376
O33	O	1.018274	-0.518992	-0.651788
O34	O	1.518274	-0.018992	-0.151788
C35	C	0.872333	-0.354491	-0.578130
C36	C	1.372333	0.145509	-0.078130
C37	C	0.790534	-0.354499	-0.578151
C38	C	1.290534	0.145501	-0.078151
C39	C	1.063465	-0.545719	-0.578097
C40	C	1.563465	-0.045719	-0.078097
C41	C	1.063501	-0.627518	-0.578115
C42	C	1.563501	-0.127518	-0.078115
C43	C	0.525487	-0.401640	-0.654786
C44	C	1.025487	0.098360	-0.154786
C45	C	0.602346	-0.401633	-0.654781
C46	C	1.102346	0.098367	-0.154781
C47	C	0.602333	-0.307403	-0.501533
C48	C	1.102333	0.192597	-0.001533
C49	C	0.525476	-0.307414	-0.501533
C50	C	1.025476	0.192586	-0.001533
C51	C	0.487055	-0.354531	-0.578167
C52	C	0.987055	0.145469	-0.078167
C53	C	0.640771	-0.354514	-0.578160
C54	C	1.140771	0.145486	-0.078160
C55	C	0.724105	-0.354507	-0.578154
C56	C	1.224105	0.145493	-0.078154
C57	C	0.403716	-0.354539	-0.578173
C58	C	0.903716	0.145461	-0.078173
C59	C	1.110694	-0.892577	-0.501520
C60	C	1.610694	-0.392577	-0.001520
C61	C	1.110663	-0.815718	-0.501493
C62	C	1.610663	-0.315718	-0.001493
C63	C	1.016477	-0.815708	-0.654859
C64	C	1.516477	-0.315708	-0.154859
C65	C	1.016504	-0.892565	-0.654879
C66	C	1.516504	-0.392565	-0.154879
C67	C	1.063616	-0.930998	-0.578212
C68	C	1.563616	-0.430998	-0.078212
C69	C	1.063559	-0.777282	-0.578164
C70	C	1.563559	-0.277282	-0.078164
C71	C	1.063526	-0.693948	-0.578135
C72	C	1.563526	-0.193948	-0.078135
C73	C	1.063649	-1.014337	-0.578239
C74	C	1.563649	-0.514337	-0.078239
C75	C	1.255492	-0.354536	-0.578168
C76	C	1.755492	0.145464	-0.078168
C77	C	1.337291	-0.354546	-0.578176
C78	C	1.837291	0.145454	-0.078176
C79	C	1.063599	-0.354432	-0.891192
C80	C	1.563599	0.145568	-0.391192
C81	C	1.063624	-0.354397	-1.024592
C82	C	1.563624	0.145603	-0.524592
C83	C	1.063634	-0.162560	-0.578227
C84	C	1.563634	0.337440	-0.078227
C85	C	1.063674	-0.080761	-0.578260
C86	C	1.563674	0.419239	-0.078260
C87	C	1.063523	-0.354541	-0.266324
C88	C	1.563523	0.145459	0.233676
C89	C	1.063641	-0.354369	-0.132925
C90	C	1.563641	0.145631	0.367075
H91	H	0.494207	-0.440006	-0.717186
H92	H	0.994207	0.059994	-0.217186
F93	F	0.966344	-0.774799	-0.736457
F94	F	1.466344	-0.274799	-0.236457
F95	F	0.643245	-0.451775	-0.736327
F96	F	1.143245	0.048225	-0.236327
F97	F	1.160833	-0.933477	-0.419921
F98	F	1.660833	-0.433477	0.080079
H99	H	0.633625	-0.269041	-0.439142
H100	H	1.133625	0.230959	0.060858
H101	H	1.148997	-0.784438	-0.439042
H102	H	1.648997	-0.284438	0.060958
F103	F	0.966394	-0.933458	-0.736507
F104	F	1.466394	-0.433458	-0.236507
H105	H	0.494183	-0.269051	-0.439135
H106	H	0.994183	0.230949	0.060865
