data_functionalizedCrystal
_audit_creation_method	'MofGen! by Chris Wilmer'
_symmetry_space_group_name_H-M	'P1'
_symmetry_Int_Tables_number	1
_symmetry_cell_setting	triclinic
loop_
_symmetry_equiv_pos_as_xyz
  x,y,z
_cell_length_a	10.654562
_cell_length_b	8.597304
_cell_length_c	9.730223
_cell_angle_alpha	82.298743
_cell_angle_beta	89.996961
_cell_angle_gamma	84.911941
loop_
_atom_site_label
_atom_site_type_symbol
_atom_site_fract_x
_atom_site_fract_y
_atom_site_fract_z
O1	O	1.668995	0.220551	-0.140490
O2	O	1.303630	0.241535	-0.142957
O3	O	1.493504	0.002656	-0.114678
O4	O	1.479121	0.459430	-0.168770
O5	O	1.493501	0.002662	0.113902
O6	O	1.303628	0.241541	0.085622
O7	O	1.668993	0.220557	0.088089
Zn8	Zn	1.486310	0.231050	0.123147
Zn9	Zn	1.486313	0.231042	-0.178016
O10	O	1.479119	0.459436	0.059809
C11	C	1.256823	0.239993	-0.028483
C12	C	1.117356	0.235371	-0.027929
C13	C	1.051812	0.233218	0.096914
C14	C	0.920767	0.228888	0.097404
C15	C	0.920820	0.228869	-0.151804
C16	C	1.051863	0.233189	-0.152291
C17	C	1.051780	0.233236	0.240792
C18	C	0.920735	0.228905	0.241282
C19	C	1.491958	-0.055829	0.006536
C20	C	1.487342	-0.230106	0.027166
C21	C	1.715800	0.222099	-0.026389
C22	C	1.855267	0.226721	-0.026952
C23	C	1.480664	0.517921	-0.061407
C24	C	1.485281	0.692198	-0.082046
N25	N	1.486317	0.231055	0.328683
N26	N	1.486315	0.231025	-0.383550
C27	C	1.570415	0.125315	0.413127
C28	C	1.570412	0.125296	0.557012
C29	C	1.402208	0.336770	0.531995
C30	C	1.402206	0.336780	0.388114
C31	C	1.667530	0.003227	0.427571
C32	C	1.667527	0.003208	0.571456
H33	H	1.097464	0.124762	0.308891
H34	H	1.636409	-0.110804	0.629575
H35	H	1.764181	0.030107	0.607317
H36	H	1.105226	0.234917	-0.253947
F37	F	1.638667	-0.154464	0.395194
H38	H	1.081962	0.347713	0.271879
F39	F	0.881248	0.079405	0.317573
F40	F	0.851109	0.226532	-0.284150
F41	F	1.312695	0.449283	0.595257
H42	H	0.875024	0.337385	0.283671
H43	H	1.487045	-0.240995	-0.191338
F44	F	1.312685	0.449301	0.298244
F45	F	1.485014	-0.317428	0.170029
F46	F	1.786971	0.053218	0.363308
