data_functionalizedCrystal
_audit_creation_method	'MofGen! by Chris Wilmer'
_symmetry_space_group_name_H-M	'P1'
_symmetry_Int_Tables_number	1
_symmetry_cell_setting	triclinic
loop_
_symmetry_equiv_pos_as_xyz
  x,y,z
_cell_length_a	27.732064
_cell_length_b	16.992694
_cell_length_c	16.053802
_cell_angle_alpha	92.750953
_cell_angle_beta	92.548353
_cell_angle_gamma	93.341177
loop_
_atom_site_label
_atom_site_type_symbol
_atom_site_fract_x
_atom_site_fract_y
_atom_site_fract_z
O1	O	0.100541	-1.042485	-0.069312
O2	O	0.433875	-0.709152	0.264021
O3	O	0.767208	-0.375818	0.597355
O4	O	0.099417	-0.814214	-0.069337
O5	O	0.432750	-0.480881	0.263996
O6	O	0.766083	-0.147548	0.597330
O7	O	0.029889	-0.935433	-0.069327
O8	O	0.363222	-0.602099	0.264006
O9	O	0.696556	-0.268766	0.597340
O10	O	0.170069	-0.921267	-0.069322
O11	O	0.503402	-0.587933	0.264011
O12	O	0.836736	-0.254600	0.597345
O13	O	0.033699	-0.928761	0.069531
O14	O	0.367033	-0.595427	0.402865
O15	O	0.700366	-0.262094	0.736198
O16	O	0.103227	-0.807542	0.069522
O17	O	0.436560	-0.474209	0.402855
O18	O	0.769894	-0.140876	0.736188
O19	O	0.104352	-1.035813	0.069546
O20	O	0.437685	-0.702480	0.402880
O21	O	0.771018	-0.369146	0.736213
Zn22	Zn	0.104394	-0.920618	0.091581
Zn23	Zn	0.437727	-0.587285	0.424914
Zn24	Zn	0.771061	-0.253952	0.758247
Zn25	Zn	0.099374	-0.929409	-0.091371
Zn26	Zn	0.432707	-0.596076	0.241962
Zn27	Zn	0.766041	-0.262742	0.575295
O28	O	0.173879	-0.914595	0.069536
O29	O	0.507213	-0.581261	0.402870
O30	O	0.840546	-0.247928	0.736203
C31	C	0.099876	-0.781683	0.000089
C32	C	0.433209	-0.448350	0.333422
C33	C	0.766543	-0.115017	0.666756
C34	C	0.095562	-0.694692	0.000079
C35	C	0.428895	-0.361358	0.333413
C36	C	0.762228	-0.028025	0.666746
N37	N	0.107820	-0.914625	0.216440
N38	N	0.441153	-0.581292	0.549774
N39	N	0.774487	-0.247958	0.883107
C40	C	0.013774	-0.931798	0.000100
C41	C	0.347108	-0.598464	0.333433
C42	C	0.680441	-0.265131	0.666766
C43	C	-0.039919	-0.930896	0.000092
C44	C	0.293414	-0.597563	0.333425
C45	C	0.626747	-0.264230	0.666758
C46	C	-0.420355	-0.853126	0.000080
C47	C	-0.087021	-0.519793	0.333413
C48	C	0.246312	-0.186460	0.666747
C49	C	-0.218551	-0.856444	0.000079
C50	C	0.114782	-0.523111	0.333413
C51	C	0.448116	-0.189777	0.666746
O52	O	-0.189909	-0.796098	0.000039
O53	O	0.143425	-0.462765	0.333373
O54	O	0.476758	-0.129432	0.666706
N55	N	-0.196316	-0.928324	0.000087
N56	N	0.137018	-0.594991	0.333420
N57	N	0.470351	-0.261658	0.666754
C58	C	-0.224535	-0.999380	0.000089
C59	C	0.108799	-0.666047	0.333423
C60	C	0.442132	-0.332714	0.666756
O61	O	-0.200992	-1.060595	0.000087
O62	O	0.132342	-0.727262	0.333421
O63	O	0.465675	-0.393929	0.666754
C64	C	-0.426337	-0.996062	0.000084
C65	C	-0.093004	-0.662729	0.333417
C66	C	0.240329	-0.329395	0.666751
C67	C	-0.448570	-0.924177	0.000085
C68	C	-0.115237	-0.590844	0.333418
C69	C	0.218097	-0.257510	0.666752
C70	C	-0.442587	-0.781247	0.000080
C71	C	-0.109254	-0.447914	0.333413
C72	C	0.224079	-0.114580	0.666746
C73	C	-0.493035	-0.780418	0.000085
C74	C	-0.159702	-0.447085	0.333418
C75	C	0.173631	-0.113752	0.666751
C76	C	-0.521250	-0.851469	0.000089
C77	C	-0.187917	-0.518135	0.333423
C78	C	0.145416	-0.184802	0.666756
C79	C	-0.499018	-0.923348	0.000090
C80	C	-0.165684	-0.590015	0.333423
C81	C	0.167649	-0.256681	0.666756
C82	C	-0.454556	-1.067118	0.000081
C83	C	-0.121222	-0.733784	0.333414
C84	C	0.212111	-0.400451	0.666747
C85	C	-0.505009	-1.066282	0.000077
C86	C	-0.171676	-0.732948	0.333410
C87	C	0.161657	-0.399615	0.666744
C88	C	-0.527242	-0.994397	0.000078
C89	C	-0.193908	-0.661063	0.333411
C90	C	0.139425	-0.327730	0.666745
C91	C	-0.577681	-0.993570	0.000099
C92	C	-0.244347	-0.660236	0.333433
C93	C	0.088986	-0.326903	0.666766
N94	N	-0.599916	-0.921690	0.000092
N95	N	-0.266583	-0.588356	0.333425
N96	N	0.066751	-0.255023	0.666758
C97	C	-0.571701	-0.850639	0.000087
C98	C	-0.238368	-0.517306	0.333420
C99	C	0.094966	-0.183972	0.666753
C100	C	-0.118585	-1.001117	0.000094
C101	C	0.214748	-0.667784	0.333427
C102	C	0.548082	-0.334451	0.666760
C103	C	-0.068134	-1.001947	0.000097
C104	C	0.265199	-0.668614	0.333430
C105	C	0.598532	-0.335280	0.666763
C106	C	-0.062154	-0.859010	0.000085
C107	C	0.271179	-0.525677	0.333418
C108	C	0.604512	-0.192344	0.666752
C109	C	-0.112606	-0.858181	0.000088
C110	C	0.220728	-0.524848	0.333421
C111	C	0.554061	-0.191515	0.666755
C112	C	-0.140820	-0.929237	0.000086
C113	C	0.192513	-0.595904	0.333419
C114	C	0.525846	-0.262570	0.666753
C115	C	-0.677645	-0.848904	0.000097
C116	C	-0.344312	-0.515570	0.333431
C117	C	-0.010978	-0.182237	0.666764
C118	C	-0.728098	-0.848081	0.000106
C119	C	-0.394764	-0.514748	0.333439
C120	C	-0.061431	-0.181414	0.666772
C121	C	-0.734073	-0.991017	0.000113
C122	C	-0.400740	-0.657684	0.333446
C123	C	-0.067407	-0.324351	0.666779
C124	C	-0.683625	-0.991840	0.000109
C125	C	-0.350292	-0.658507	0.333442
C126	C	-0.016958	-0.325174	0.666776
C127	C	-0.655412	-0.920777	0.000098
C128	C	-0.322079	-0.587444	0.333432
C129	C	0.011255	-0.254111	0.666765
O130	O	-0.606353	-1.053883	0.000130
O131	O	-0.273020	-0.720550	0.333463
O132	O	0.060314	-0.387217	0.666796
O133	O	-0.595253	-0.789434	0.000070
O134	O	-0.261920	-0.456101	0.333404
O135	O	0.071413	-0.122767	0.666737
C136	C	-0.369907	-0.853955	0.000075
C137	C	-0.036574	-0.520622	0.333409
C138	C	0.296760	-0.187289	0.666742
C139	C	-0.347674	-0.925835	0.000075
C140	C	-0.014341	-0.592501	0.333409
C141	C	0.318992	-0.259168	0.666742
C142	C	-0.375889	-0.996885	0.000080
C143	C	-0.042556	-0.663552	0.333414
C144	C	0.290777	-0.330218	0.666747
C145	C	-0.297224	-0.926664	0.000078
C146	C	0.036110	-0.593331	0.333412
C147	C	0.369443	-0.259998	0.666745
C148	C	-0.269009	-0.855614	0.000073
C149	C	0.064325	-0.522281	0.333407
C150	C	0.397658	-0.188947	0.666740
C151	C	-0.291244	-0.783734	0.000066
C152	C	0.042089	-0.450400	0.333399
C153	C	0.375423	-0.117067	0.666732
C154	C	-0.341692	-0.782905	0.000070
C155	C	-0.008359	-0.449572	0.333404
C156	C	0.324975	-0.116238	0.666737
C157	C	-0.353654	-1.068765	0.000088
C158	C	-0.020321	-0.735432	0.333421
C159	C	0.313013	-0.402099	0.666755
C160	C	-0.303206	-1.069588	0.000084
C161	C	0.030128	-0.736255	0.333418
C162	C	0.363461	-0.402922	0.666751
C163	C	-0.274991	-0.998538	0.000079
C164	C	0.058343	-0.665204	0.333413
C165	C	0.391676	-0.331871	0.666746
C166	C	0.189994	-0.918230	0.000108
C167	C	0.523327	-0.584897	0.333441
C168	C	0.856661	-0.251563	0.666775
C169	C	0.243687	-0.919131	0.000110
C170	C	0.577021	-0.585798	0.333444
C171	C	0.910354	-0.252465	0.666777
C172	C	0.103892	-1.068344	0.000119
C173	C	0.437226	-0.735011	0.333452
C174	C	0.770559	-0.401678	0.666785
C175	C	0.108206	-1.155336	0.000123
C176	C	0.441540	-0.822003	0.333456
C177	C	0.774873	-0.488670	0.666789
C178	C	0.137185	-0.643951	0.000081
C179	C	0.470518	-0.310617	0.333415
C180	C	0.803852	0.022716	0.666748
C181	C	0.133129	-0.562212	0.000093
C182	C	0.466462	-0.228879	0.333426
C183	C	0.799796	0.104454	0.666759
C184	C	0.087449	-0.531217	0.000096
C185	C	0.420783	-0.197883	0.333429
C186	C	0.754116	0.135450	0.666763
C187	C	0.045823	-0.581964	0.000096
C188	C	0.379157	-0.248631	0.333430
C189	C	0.712490	0.084703	0.666763
C190	C	0.049880	-0.663700	0.000091
C191	C	0.383213	-0.330367	0.333424
C192	C	0.716546	0.002966	0.666758
C193	C	0.070637	-0.287820	0.000118
C194	C	0.403970	0.045513	0.333451
C195	C	0.737303	0.378847	0.666784
C196	C	0.066583	-0.206077	0.000121
C197	C	0.399916	0.127256	0.333454
C198	C	0.733250	0.460589	0.666787
C199	C	0.153889	-0.186331	0.000119
C200	C	0.487223	0.147002	0.333452
C201	C	0.820556	0.480336	0.666785
C202	C	0.157942	-0.268070	0.000108
C203	C	0.491275	0.065263	0.333441
C204	C	0.824609	0.398596	0.666775
C205	C	0.116316	-0.318810	0.000113
C206	C	0.449649	0.014523	0.333446
C207	C	0.782982	0.347857	0.666780
N208	N	0.083302	-0.447667	0.000105
N209	N	0.416636	-0.114334	0.333438
N210	N	0.749969	0.218999	0.666772
N211	N	0.120463	-0.402358	0.000110
N212	N	0.453797	-0.069024	0.333443
N213	N	0.787130	0.264309	0.666777
N214	N	0.095945	-0.935409	-0.216231
N215	N	0.429278	-0.602076	0.117102
N216	N	0.762611	-0.268742	0.450436
C217	C	0.078248	-0.966222	0.260139
C218	C	0.411581	-0.632889	0.593472
C219	C	0.744915	-0.299555	0.926805
C220	C	0.080649	-0.962037	0.347545
C221	C	0.413983	-0.628703	0.680878
C222	C	0.747316	-0.295370	1.014212
C223	C	0.112626	-0.906257	0.391252
C224	C	0.445959	-0.572924	0.724585
C225	C	0.779292	-0.239591	1.057918
C226	C	0.142199	-0.854655	0.347547
C227	C	0.475532	-0.521321	0.680881
C228	C	0.808866	-0.187988	1.014214
C229	C	0.139795	-0.858837	0.260143
C230	C	0.473128	-0.525504	0.593476
C231	C	0.806462	-0.192170	0.926809
C232	C	0.123114	-0.887989	0.652660
C233	C	0.456447	-0.554655	0.985993
C234	C	0.789780	-0.221322	1.319327
C235	C	0.125517	-0.883812	0.740071
C236	C	0.458850	-0.550479	1.073404
C237	C	0.792183	-0.217145	1.406737
C238	C	0.063966	-0.991193	0.740062
C239	C	0.397299	-0.657860	1.073396
C240	C	0.730633	-0.324527	1.406729
C241	C	0.061567	-0.995374	0.652656
C242	C	0.394900	-0.662040	0.985989
C243	C	0.728233	-0.328707	1.319323
C244	C	0.091138	-0.943768	0.608959
C245	C	0.424472	-0.610435	0.942293
C246	C	0.757805	-0.277102	1.275626
N247	N	0.115082	-0.901979	0.480595
N248	N	0.448416	-0.568646	0.813928
N249	N	0.781749	-0.235313	1.147262
N250	N	0.088679	-0.948043	0.519617
N251	N	0.422012	-0.614710	0.852951
N252	N	0.755346	-0.281376	1.186284
H253	H	-0.746196	-0.789541	0.000110
H254	H	-0.412863	-0.456207	0.333443
H255	H	-0.079530	-0.122874	0.666777
H256	H	0.151558	-0.838387	0.775653
H257	H	0.484891	-0.505054	1.108986
H258	H	0.818224	-0.171721	1.442319
H259	H	0.039890	-1.033207	0.775648
H260	H	0.373223	-0.699874	1.108981
H261	H	0.706556	-0.366540	1.442315
Br262	Br	0.199182	-0.686008	0.000068
Br263	Br	0.532515	-0.352675	0.333402
Br264	Br	0.865848	-0.019341	0.666735
Br265	Br	0.179927	-0.788804	0.200838
Br266	Br	0.513260	-0.455471	0.534171
Br267	Br	0.846594	-0.122137	0.867505
Br268	Br	-0.006611	-0.732565	0.000095
Br269	Br	0.326722	-0.399231	0.333429
Br270	Br	0.660056	-0.065898	0.666762
Br271	Br	0.018172	-1.071077	0.593338
Br272	Br	0.351505	-0.737744	0.926671
Br273	Br	0.684839	-0.404411	1.260005
Br274	Br	0.219938	-0.310130	0.000094
Br275	Br	0.553271	0.023203	0.333428
Br276	Br	0.886604	0.356536	0.666761
Br277	Br	0.163246	-0.817957	0.593362
Br278	Br	0.496580	-0.484623	0.926695
Br279	Br	0.829913	-0.151290	1.260029
Br280	Br	0.034853	-1.041932	0.200832
Br281	Br	0.368186	-0.708599	0.534165
Br282	Br	0.701520	-0.375265	0.867498
Br283	Br	-0.653450	-1.089397	0.000144
Br284	Br	-0.320117	-0.756064	0.333477
Br285	Br	0.013216	-0.422731	0.666810
Br286	Br	0.040513	-1.032059	0.406853
Br287	Br	0.373847	-0.698726	0.740186
Br288	Br	0.707180	-0.365393	1.073519
Br289	Br	0.185593	-0.778947	0.406860
Br290	Br	0.518926	-0.445613	0.740194
Br291	Br	0.852260	-0.112280	1.073527
H292	H	-0.654680	-0.791037	0.000088
H293	H	-0.321346	-0.457704	0.333422
H294	H	0.011987	-0.124371	0.666755
H295	H	-0.511132	-0.721882	0.000078
H296	H	-0.177799	-0.388549	0.333411
H297	H	0.155534	-0.055216	0.666745
Br298	Br	-0.404305	-0.684808	0.000069
Br299	Br	-0.070971	-0.351475	0.333403
Br300	Br	0.262362	-0.018141	0.666736
Br301	Br	-0.016171	-0.539899	0.000109
Br302	Br	0.317162	-0.206566	0.333443
Br303	Br	0.650495	0.126767	0.666776
Br304	Br	0.004586	-0.164012	0.000143
Br305	Br	0.337919	0.169322	0.333476
Br306	Br	0.671252	0.502655	0.666810
H307	H	-0.039173	-0.801158	0.000085
H308	H	0.294160	-0.467825	0.333418
H309	H	0.627494	-0.134492	0.666751
Br310	Br	-0.037968	-1.099508	0.000111
Br311	Br	0.295366	-0.766175	0.333445
Br312	Br	0.628699	-0.432842	0.666778
Br313	Br	-0.142773	-0.760620	0.000089
Br314	Br	0.190561	-0.427287	0.333423
Br315	Br	0.523894	-0.093953	0.666756
H316	H	-0.141553	-1.058983	0.000093
H317	H	0.191780	-0.725649	0.333427
H318	H	0.525114	-0.392316	0.666760
H319	H	0.187779	-0.145010	0.000116
H320	H	0.521112	0.188323	0.333450
H321	H	0.854446	0.521656	0.666783
Br322	Br	-0.424397	-1.164683	0.000060
Br323	Br	-0.091063	-0.831350	0.333393
Br324	Br	0.242270	-0.498017	0.666727
H325	H	-0.757055	-1.048864	0.000121
H326	H	-0.423722	-0.715531	0.333454
H327	H	-0.090388	-0.382198	0.666787
Br328	Br	-0.543298	-1.162721	0.000069
Br329	Br	-0.209965	-0.829387	0.333402
Br330	Br	0.123369	-0.496054	0.666735
H331	H	-0.359789	-0.724369	0.000072
H332	H	-0.026455	-0.391035	0.333405
H333	H	0.306878	-0.057702	0.666738
Br334	Br	-0.252942	-0.687309	0.000065
Br335	Br	0.080391	-0.353975	0.333398
Br336	Br	0.413725	-0.020642	0.666731
Br337	Br	-0.273040	-1.167156	0.000084
Br338	Br	0.060293	-0.833823	0.333418
Br339	Br	0.393627	-0.500490	0.666751
Br340	Br	0.014144	-0.356671	0.000126
Br341	Br	0.347477	-0.023338	0.333460
Br342	Br	0.680810	0.309996	0.666793
H343	H	0.167023	-0.520902	0.000094
H344	H	0.500356	-0.187568	0.333427
H345	H	0.833690	0.145765	0.666760
H346	H	-0.376622	-1.126625	0.000091
H347	H	-0.043289	-0.793291	0.333424
H348	H	0.290045	-0.459958	0.666758
