data_functionalizedCrystal
_audit_creation_method	'MofGen! by Chris Wilmer'
_symmetry_space_group_name_H-M	'P1'
_symmetry_Int_Tables_number	1
_symmetry_cell_setting	triclinic
loop_
_symmetry_equiv_pos_as_xyz
  x,y,z
_cell_length_a	12.759401
_cell_length_b	13.897447
_cell_length_c	12.759393
_cell_angle_alpha	89.968445
_cell_angle_beta	89.979471
_cell_angle_gamma	90.018821
loop_
_atom_site_label
_atom_site_type_symbol
_atom_site_fract_x
_atom_site_fract_y
_atom_site_fract_z
Zn1	Zn	1.606226	-0.383981	-0.594018
Zn2	Zn	1.606104	-0.545309	-0.418337
Zn3	Zn	1.430526	-0.384028	-0.418353
Zn4	Zn	1.430502	-0.545234	-0.593974
O5	O	1.518340	-0.464638	-0.506170
O6	O	1.753231	-0.405394	-0.570725
O7	O	1.582772	-0.523966	-0.271318
O8	O	1.453895	-0.249040	-0.441681
O9	O	1.753141	-0.523921	-0.441653
O10	O	1.582981	-0.249006	-0.570741
O11	O	1.453776	-0.405473	-0.271330
O12	O	1.283502	-0.405400	-0.441638
O13	O	1.453853	-0.523792	-0.741001
O14	O	1.283484	-0.523838	-0.570665
O15	O	1.582957	-0.405321	-0.741033
O16	O	1.582749	-0.680281	-0.441610
O17	O	1.453735	-0.680226	-0.570649
C18	C	1.245372	-0.464616	-0.506149
C19	C	1.128596	-0.464630	-0.506165
C20	C	0.963981	-0.402902	-0.439119
C21	C	1.073705	-0.402879	-0.439103
C22	C	1.073757	-0.526402	-0.573255
C23	C	0.964034	-0.526418	-0.573275
C24	C	1.223655	-0.289056	-0.401753
C25	C	1.278490	-0.227296	-0.334654
C26	C	1.242826	-0.212380	-0.232174
C27	C	1.152329	-0.259239	-0.196772
C28	C	1.097499	-0.321006	-0.263866
C29	C	1.133161	-0.335903	-0.366360
C30	C	0.814083	-0.640243	-0.610615
C31	C	0.759251	-0.702015	-0.677703
C32	C	0.794913	-0.716941	-0.780185
C33	C	0.885414	-0.670100	-0.815583
C34	C	0.940246	-0.608327	-0.748494
C35	C	0.904576	-0.593400	-0.646014
C36	C	1.518254	-0.715252	-0.506146
C37	C	1.518314	-0.822466	-0.506171
C38	C	1.518365	-0.909536	-0.506195
C39	C	1.518438	-1.018768	-0.506222
C40	C	1.792373	-0.464660	-0.506192
C41	C	1.909150	-0.464670	-0.506201
C42	C	1.518416	-0.464543	-0.780204
C43	C	1.518449	-0.464502	-0.896980
C44	C	1.518454	-0.213045	-0.506218
C45	C	1.518503	-0.105831	-0.506238
C46	C	1.585700	-0.402768	-1.061592
C47	C	1.585680	-0.402805	-0.951868
C48	C	1.451241	-0.526173	-0.951823
C49	C	1.451267	-0.526140	-1.061545
C50	C	1.709565	-0.368398	-0.801941
C51	C	1.776761	-0.306719	-0.747103
C52	C	1.792944	-0.212591	-0.782738
C53	C	1.741916	-0.180122	-0.873210
C54	C	1.674713	-0.241795	-0.928043
C55	C	1.658550	-0.335938	-0.892409
C56	C	1.327380	-0.560537	-1.211474
C57	C	1.260171	-0.622207	-1.266308
C58	C	1.243977	-0.716337	-1.230675
C59	C	1.294986	-0.748803	-1.140200
C60	C	1.362195	-0.687133	-1.085365
C61	C	1.378391	-0.593003	-1.121006
C62	C	1.518324	-0.464663	-0.233203
C63	C	1.518495	-0.464432	-0.116427
H64	H	1.640440	-0.352521	-1.106274
O65	O	1.344842	-0.459003	-1.249906
H66	H	1.378210	-0.460985	-1.330224
H67	H	1.352174	-0.189144	-0.363488
O68	O	1.831803	-0.341752	-0.649536
H69	H	1.808615	-0.296203	-0.581972
H70	H	1.252695	-0.301186	-0.485203
O71	O	1.692125	-0.469930	-0.763506
H72	H	1.636836	-0.507369	-0.816840
O73	O	0.923885	-0.686184	-0.926120
H74	H	0.870547	-0.736997	-0.966828
O75	O	1.132952	-0.592985	-0.645615
H76	H	1.218461	-0.582596	-0.634333
O77	O	1.759364	-0.078591	-0.911645
H78	H	1.814674	-0.041163	-0.858323
O79	O	0.735767	-0.783559	-0.852553
H80	H	0.788066	-0.843083	-0.877566
O81	O	0.904778	-0.336295	-0.366791
H82	H	0.961345	-0.293333	-0.320151
H83	H	1.633155	-0.215355	-1.001694
O84	O	1.037858	-0.557803	-0.786676
H85	H	1.069997	-0.512349	-0.722805
H86	H	0.685562	-0.740159	-0.648872
H87	H	1.847656	-0.162371	-0.738081
O88	O	0.775623	-0.624144	-0.500073
H89	H	0.703492	-0.667107	-0.486725
O90	O	1.113883	-0.243168	-0.086226
H91	H	1.041755	-0.286136	-0.072879
H92	H	1.396505	-0.576412	-0.907124
H93	H	1.023819	-0.359158	-0.235042
O94	O	1.277518	-0.850328	-1.101753
H95	H	1.353394	-0.889350	-1.100530
O96	O	1.171485	-0.782857	-1.289814
H97	H	1.138731	-0.744473	-1.358714
O98	O	1.417232	-0.722148	-0.987789
H99	H	1.394692	-0.797968	-0.972225
O100	O	1.205152	-0.587198	-1.363897
H101	H	1.227715	-0.511386	-1.379477
H102	H	1.287481	-0.162093	-0.177542
