data_functionalizedCrystal
_audit_creation_method	'MofGen! by Chris Wilmer'
_symmetry_space_group_name_H-M	'P1'
_symmetry_Int_Tables_number	1
_symmetry_cell_setting	triclinic
loop_
_symmetry_equiv_pos_as_xyz
  x,y,z
_cell_length_a	13.897447
_cell_length_b	25.639242
_cell_length_c	25.639217
_cell_angle_alpha	90.082993
_cell_angle_beta	89.891836
_cell_angle_gamma	89.985443
loop_
_atom_site_label
_atom_site_type_symbol
_atom_site_fract_x
_atom_site_fract_y
_atom_site_fract_z
Zn1	Zn	-0.383361	-0.799601	-0.295781
Zn2	Zn	-0.050028	-0.466268	0.037552
Zn3	Zn	0.283306	-0.132935	0.370885
Zn4	Zn	-0.544905	-0.799463	-0.208353
Zn5	Zn	-0.211571	-0.466130	0.124980
Zn6	Zn	0.121762	-0.132797	0.458314
Zn7	Zn	-0.383611	-0.712087	-0.208343
Zn8	Zn	-0.050278	-0.378754	0.124990
Zn9	Zn	0.283055	-0.045420	0.458324
Zn10	Zn	-0.544602	-0.712152	-0.295741
Zn11	Zn	-0.211269	-0.378819	0.037592
Zn12	Zn	0.122065	-0.045485	0.370926
O13	O	-0.464120	-0.755826	-0.252055
O14	O	-0.130786	-0.422493	0.081279
O15	O	0.202547	-0.089159	0.414612
O16	O	-0.404812	-0.872748	-0.284205
O17	O	-0.071479	-0.539415	0.049129
O18	O	0.261855	-0.206082	0.382462
O19	O	-0.523740	-0.787788	-0.135186
O20	O	-0.190407	-0.454455	0.198147
O21	O	0.142926	-0.121121	0.531481
O22	O	-0.248596	-0.723727	-0.219954
O23	O	0.084737	-0.390393	0.113379
O24	O	0.418070	-0.057060	0.446712
O25	O	-0.523498	-0.872647	-0.219972
O26	O	-0.190164	-0.539314	0.113362
O27	O	0.143169	-0.205980	0.446695
O28	O	-0.248413	-0.788023	-0.284195
O29	O	0.084921	-0.454690	0.049138
O30	O	0.418254	-0.121356	0.382472
O31	O	-0.405239	-0.723593	-0.135179
O32	O	-0.071905	-0.390259	0.198155
O33	O	0.261428	-0.056926	0.531488
O34	O	-0.404945	-0.638930	-0.219915
O35	O	-0.071612	-0.305597	0.113418
O36	O	0.261722	0.027736	0.446751
O37	O	-0.522981	-0.723837	-0.368912
O38	O	-0.189648	-0.390504	-0.035578
O39	O	0.143685	-0.057171	0.297755
O40	O	-0.523224	-0.638978	-0.284126
O41	O	-0.189891	-0.305645	0.049207
O42	O	0.143443	0.027688	0.382540
O43	O	-0.404518	-0.788086	-0.368941
O44	O	-0.071185	-0.454753	-0.035608
O45	O	0.262148	-0.121419	0.297725
O46	O	-0.679846	-0.787851	-0.219932
O47	O	-0.346513	-0.454518	0.113401
O48	O	-0.013180	-0.121184	0.446734
O49	O	-0.679624	-0.723704	-0.284136
O50	O	-0.346290	-0.390370	0.049197
O51	O	-0.012957	-0.057037	0.382531
C52	C	-0.464080	-0.619983	-0.252016
C53	C	-0.130746	-0.286650	0.081318
C54	C	0.202587	0.046683	0.414651
C55	C	-0.464086	-0.561869	-0.252011
C56	C	-0.130752	-0.228536	0.081322
C57	C	0.202581	0.104797	0.414655
C58	C	-0.525802	-0.201540	-0.285444
C59	C	-0.192469	0.131793	0.047890
C60	C	0.140865	0.465127	0.381223
C61	C	-0.525807	-0.146936	-0.285451
C62	C	-0.192474	0.186398	0.047883
C63	C	0.140860	0.519731	0.381216
O64	O	-0.578238	-0.118728	-0.313853
O65	O	-0.244904	0.214606	0.019481
O66	O	0.088429	0.547939	0.352814
N67	N	-0.464136	-0.119587	-0.252073
N68	N	-0.130803	0.213746	0.081261
N69	N	0.202531	0.547080	0.414594
C70	C	-0.402449	-0.146845	-0.218690
C71	C	-0.069116	0.186488	0.114644
C72	C	0.264218	0.519821	0.447977
O73	O	-0.349993	-0.118569	-0.190300
O74	O	-0.016660	0.214764	0.143033
O75	O	0.316674	0.548098	0.476366
C76	C	-0.402440	-0.201449	-0.218686
C77	C	-0.069107	0.131885	0.114648
C78	C	0.264227	0.465218	0.447981
C79	C	-0.464122	-0.228795	-0.252062
C80	C	-0.130789	0.104539	0.081271
C81	C	0.202545	0.437872	0.414605
C82	C	-0.587478	-0.228886	-0.318818
C83	C	-0.254145	0.104447	0.014516
C84	C	0.079189	0.437781	0.347849
C85	C	-0.587474	-0.283487	-0.318810
C86	C	-0.254141	0.049847	0.014523
C87	C	0.079193	0.383180	0.347857
C88	C	-0.525794	-0.310741	-0.285428
C89	C	-0.192461	0.022592	0.047905
C90	C	0.140873	0.355926	0.381238
C91	C	-0.464118	-0.283395	-0.252054
C92	C	-0.130785	0.049938	0.081279
C93	C	0.202549	0.383272	0.414612
C94	C	-0.340749	-0.228706	-0.185306
C95	C	-0.007416	0.104627	0.148028
C96	C	0.325918	0.437961	0.481361
C97	C	-0.340745	-0.283313	-0.185305
C98	C	-0.007411	0.050020	0.148028
C99	C	0.325922	0.383354	0.481362
C100	C	-0.402426	-0.310659	-0.218681
C101	C	-0.069093	0.022674	0.114652
C102	C	0.264240	0.356008	0.447985
C103	C	-0.402434	-0.365250	-0.218665
C104	C	-0.069101	-0.031917	0.114668
C105	C	0.264233	0.301417	0.448002
N106	N	-0.464105	-0.392599	-0.252043
N107	N	-0.130771	-0.059266	0.081291
N108	N	0.202562	0.274068	0.414624
C109	C	-0.525785	-0.365344	-0.285424
C110	C	-0.192451	-0.032011	0.047909
C111	C	0.140882	0.301322	0.381242
C112	C	-0.402472	-0.032175	-0.218701
C113	C	-0.069139	0.301159	0.114632
C114	C	0.264195	0.634492	0.447966
C115	C	-0.402485	0.022428	-0.218702
C116	C	-0.069152	0.355761	0.114632
C117	C	0.264182	0.689094	0.447965
C118	C	-0.525842	0.022333	-0.285464
C119	C	-0.192509	0.355667	0.047870
C120	C	0.140825	0.689000	0.381203
C121	C	-0.525833	-0.032270	-0.285460
C122	C	-0.192499	0.301063	0.047874
C123	C	0.140834	0.634397	0.381207
C124	C	-0.464143	-0.059523	-0.252079
C125	C	-0.130809	0.273810	0.081255
C126	C	0.202524	0.607143	0.414588
C127	C	-0.525772	-0.480009	-0.285405
C128	C	-0.192439	-0.146676	0.047928
C129	C	0.140894	0.186657	0.381261
C130	C	-0.525766	-0.534615	-0.285393
C131	C	-0.192432	-0.201282	0.047940
C132	C	0.140901	0.132052	0.381274
C133	C	-0.402406	-0.534516	-0.218634
C134	C	-0.069073	-0.201183	0.114700
C135	C	0.264261	0.132151	0.448033
C136	C	-0.402416	-0.479915	-0.218644
C137	C	-0.069082	-0.146582	0.114690
C138	C	0.264251	0.186751	0.448023
C139	C	-0.464102	-0.452663	-0.252034
C140	C	-0.130769	-0.119330	0.081300
C141	C	0.202565	0.214003	0.414633
O142	O	-0.350027	-0.393493	-0.190279
O143	O	-0.016694	-0.060160	0.143055
O144	O	0.316640	0.273174	0.476388
O145	O	-0.578223	-0.393627	-0.313814
O146	O	-0.244890	-0.060294	0.019519
O147	O	0.088443	0.273039	0.352853
C148	C	-0.714734	-0.755783	-0.252042
C149	C	-0.381401	-0.422450	0.081291
C150	C	-0.048067	-0.089117	0.414624
C151	C	-0.821948	-0.755813	-0.252055
C152	C	-0.488615	-0.422480	0.081279
C153	C	-0.155281	-0.089146	0.414612
C154	C	-0.909018	-0.755838	-0.252067
C155	C	-0.575684	-0.422505	0.081267
C156	C	-0.242351	-0.089172	0.414600
C157	C	-1.018250	-0.755875	-0.252080
C158	C	-0.684917	-0.422542	0.081253
C159	C	-0.351583	-0.089208	0.414587
C160	C	-0.212527	-0.755883	-0.252078
C161	C	0.120807	-0.422550	0.081255
C162	C	0.454140	-0.089216	0.414589
C163	C	-0.105313	-0.755907	-0.252088
C164	C	0.228021	-0.422574	0.081245
C165	C	0.561354	-0.089241	0.414578
C166	C	-0.463688	-0.755984	-0.388428
C167	C	-0.130355	-0.422651	-0.055095
C168	C	0.202978	-0.089318	0.278239
C169	C	-0.463504	-0.756052	-0.446542
C170	C	-0.130171	-0.422718	-0.113209
C171	C	0.203162	-0.089385	0.220124
C172	C	-0.464157	0.107801	-0.252088
C173	C	-0.130823	0.441134	0.081246
C174	C	0.202510	0.774468	0.414579
C175	C	-0.464162	0.049687	-0.252086
C176	C	-0.130829	0.383020	0.081248
C177	C	0.202505	0.716354	0.414581
C178	C	-0.464480	-0.755698	-0.116212
C179	C	-0.131147	-0.422365	0.217122
C180	C	0.202187	-0.089032	0.550455
C181	C	-0.464392	-0.755732	-0.058098
C182	C	-0.131059	-0.422399	0.275236
C183	C	0.202275	-0.089066	0.608569
C184	C	-0.401886	-0.789067	0.192927
C185	C	-0.068553	-0.455734	0.526261
C186	C	0.264780	-0.122400	0.859594
C187	C	-0.401965	-0.789038	0.138323
C188	C	-0.068632	-0.455704	0.471656
C189	C	0.264702	-0.122371	0.804990
O190	O	-0.349152	-0.817249	0.109943
O191	O	-0.015818	-0.483916	0.443277
O192	O	0.317515	-0.150583	0.776610
N193	N	-0.464132	-0.755818	0.111176
N194	N	-0.130799	-0.422485	0.444509
N195	N	0.202534	-0.089151	0.777843
C196	C	-0.526218	-0.722622	0.138636
C197	C	-0.192885	-0.389289	0.471969
C198	C	0.140449	-0.055955	0.805303
O199	O	-0.579103	-0.694363	0.110531
O200	O	-0.245769	-0.361030	0.443865
O201	O	0.087564	-0.027696	0.777198
C202	C	-0.526134	-0.722649	0.193239
C203	C	-0.192800	-0.389316	0.526572
C204	C	0.140533	-0.055982	0.859906
C205	C	-0.463969	-0.755875	0.220383
C206	C	-0.130636	-0.422541	0.553717
C207	C	0.202698	-0.089208	0.887050
C208	C	-0.339726	-0.822290	0.220072
C209	C	-0.006393	-0.488956	0.553405
C210	C	0.326941	-0.155623	0.886738
C211	C	-0.339649	-0.822320	0.274672
C212	C	-0.006316	-0.488986	0.608005
C213	C	0.327018	-0.155653	0.941339
C214	C	-0.401732	-0.789127	0.302128
C215	C	-0.068398	-0.455794	0.635461
C216	C	0.264935	-0.122461	0.968795
C217	C	-0.463892	-0.755905	0.274984
C218	C	-0.130559	-0.422571	0.608317
C219	C	0.202775	-0.089238	0.941651
C220	C	-0.588214	-0.689451	0.220698
C221	C	-0.254880	-0.356117	0.554031
C222	C	0.078453	-0.022784	0.887365
C223	C	-0.588123	-0.689481	0.275305
C224	C	-0.254790	-0.356147	0.608638
C225	C	0.078543	-0.022814	0.941972
C226	C	-0.525959	-0.722706	0.302449
C227	C	-0.192626	-0.389373	0.635783
C228	C	0.140708	-0.056040	0.969116
C229	C	-0.525898	-0.722742	0.357040
C230	C	-0.192564	-0.389409	0.690374
C231	C	0.140769	-0.056076	1.023707
N232	N	-0.463730	-0.755962	0.384188
N233	N	-0.130397	-0.422629	0.717521
N234	N	0.202936	-0.089295	1.050854
C235	C	-0.401647	-0.789155	0.356731
C236	C	-0.068314	-0.455821	0.690065
C237	C	0.265019	-0.122488	1.023398
C238	C	-0.526389	-0.722567	0.023965
C239	C	-0.193056	-0.389233	0.357299
C240	C	0.140278	-0.055900	0.690632
C241	C	-0.526479	-0.722542	-0.030637
C242	C	-0.193146	-0.389208	0.302697
C243	C	0.140188	-0.055875	0.636030
C244	C	-0.402225	-0.788957	-0.030946
C245	C	-0.068891	-0.455623	0.302387
C246	C	0.264442	-0.122290	0.635721
C247	C	-0.402140	-0.788984	0.023657
C248	C	-0.068807	-0.455651	0.356991
C249	C	0.264526	-0.122317	0.690324
C250	C	-0.464222	-0.755786	0.051113
C251	C	-0.130889	-0.422453	0.384446
C252	C	0.202445	-0.089120	0.717779
C253	C	-0.401490	-0.789216	0.471396
C254	C	-0.068157	-0.455882	0.804730
C255	C	0.265176	-0.122549	1.138063
C256	C	-0.401421	-0.789244	0.526002
C257	C	-0.068088	-0.455911	0.859335
C258	C	0.265245	-0.122578	1.192668
C259	C	-0.525672	-0.722827	0.526306
C260	C	-0.192339	-0.389494	0.859639
C261	C	0.140995	-0.056161	1.192973
C262	C	-0.525745	-0.722800	0.471705
C263	C	-0.192412	-0.389467	0.805039
C264	C	0.140922	-0.056134	1.138372
C265	C	-0.463646	-0.755996	0.444252
C266	C	-0.130313	-0.422663	0.777585
C267	C	0.203020	-0.089329	1.110919
O268	O	-0.578681	-0.694544	0.385455
O269	O	-0.245348	-0.361210	0.718788
O270	O	0.087986	-0.027877	1.052121
O271	O	-0.348763	-0.817404	0.384843
O272	O	-0.015429	-0.484071	0.718176
O273	O	0.317904	-0.150737	1.051509
H274	H	-0.637706	-0.206701	-0.346004
H275	H	-0.304372	0.126632	-0.012670
H276	H	0.028961	0.459965	0.320663
H277	H	-0.290523	-0.206450	-0.158126
H278	H	0.042810	0.126883	0.175208
H279	H	0.376143	0.460216	0.508541
C280	C	-0.655325	-0.313560	-0.355529
C281	C	-0.321992	0.019773	-0.022196
C282	C	0.011342	0.353107	0.311137
N283	N	-0.706432	-0.336208	-0.383190
N284	N	-0.373098	-0.002875	-0.049856
N285	N	-0.039765	0.330459	0.283477
C286	C	-0.333184	-0.825736	0.441205
C287	C	0.000149	-0.492402	0.774539
C288	C	0.333483	-0.159069	1.107872
N289	N	-0.281741	-0.853245	0.418466
N290	N	0.051592	-0.519912	0.751799
N291	N	0.384926	-0.186579	1.085132
H292	H	-0.576058	-0.054531	-0.312638
H293	H	-0.242725	0.278802	0.020695
H294	H	0.090608	0.612135	0.354028
H295	H	-0.351519	-0.816038	0.045755
H296	H	-0.018185	-0.482705	0.379088
H297	H	0.315148	-0.149372	0.712421
H298	H	-0.290502	-0.305500	-0.158125
H299	H	0.042831	0.027833	0.175209
H300	H	0.376164	0.361167	0.508542
C301	C	-0.656423	-0.652961	0.305502
C302	C	-0.323089	-0.319627	0.638836
C303	C	0.010244	0.013706	0.972169
N304	N	-0.707868	-0.625455	0.328246
N305	N	-0.374535	-0.292122	0.661579
N306	N	-0.041201	0.041211	0.994913
C307	C	-0.271249	-0.858863	0.304523
C308	C	0.062085	-0.525530	0.637857
C309	C	0.395418	-0.192197	0.971190
N310	N	-0.219721	-0.886387	0.327004
N311	N	0.113612	-0.553054	0.660338
N312	N	0.446946	-0.219721	0.993671
C313	C	-0.334550	-0.564506	-0.181922
C314	C	-0.001216	-0.231173	0.151412
C315	C	0.332117	0.102160	0.484745
N316	N	-0.283431	-0.587097	-0.154275
N317	N	0.049902	-0.253763	0.179059
N318	N	0.383235	0.079570	0.512392
H319	H	-0.352267	0.044688	-0.191518
H320	H	-0.018934	0.378021	0.141815
H321	H	0.314399	0.711355	0.475148
H322	H	-0.350799	-0.816302	0.548100
H323	H	-0.017466	-0.482969	0.881433
H324	H	0.315868	-0.149636	1.214767
H325	H	-0.351671	-0.815983	-0.053311
H326	H	-0.018338	-0.482649	0.280023
H327	H	0.314996	-0.149316	0.613356
H328	H	-0.577110	-0.695492	-0.052733
H329	H	-0.243777	-0.362158	0.280600
H330	H	0.089557	-0.028825	0.613934
C331	C	-0.593955	-0.686315	0.556518
C332	C	-0.260622	-0.352981	0.889851
C333	C	0.072712	-0.019648	1.223185
N334	N	-0.645380	-0.658810	0.579276
N335	N	-0.312046	-0.325476	0.912609
N336	N	0.021287	0.007857	1.245942
H337	H	-0.638835	-0.662395	0.198607
H338	H	-0.305501	-0.329061	0.531940
H339	H	0.027832	0.004272	0.865273
H340	H	-0.576949	-0.695532	0.046316
H341	H	-0.243615	-0.362199	0.379650
H342	H	0.089718	-0.028866	0.712983
H343	H	-0.352237	-0.054361	-0.191514
H344	H	-0.018904	0.278972	0.141819
H345	H	0.314429	0.612305	0.475152
H346	H	-0.289165	-0.849319	0.197722
H347	H	0.044168	-0.515986	0.531056
H348	H	0.377501	-0.182652	0.864389
C349	C	-0.594134	-0.686254	0.441846
C350	C	-0.260801	-0.352921	0.775179
C351	C	0.072532	-0.019587	1.108513
N352	N	-0.645640	-0.658723	0.419359
N353	N	-0.312307	-0.325389	0.752693
N354	N	0.021027	0.007944	1.086026
C355	C	-0.593623	-0.564692	-0.322112
C356	C	-0.260289	-0.231359	0.011222
C357	C	0.073044	0.101974	0.344555
N358	N	-0.644730	-0.587345	-0.349768
N359	N	-0.311396	-0.254011	-0.016435
N360	N	0.021937	0.079322	0.316899
C361	C	-0.334570	-0.449834	-0.181924
C362	C	-0.001237	-0.116501	0.151409
C363	C	0.332096	0.216833	0.484742
N364	N	-0.283462	-0.427180	-0.154270
N365	N	0.049872	-0.093847	0.179063
N366	N	0.383205	0.239487	0.512397
C367	C	-0.593685	0.052324	-0.322188
C368	C	-0.260351	0.385657	0.011145
C369	C	0.072982	0.718991	0.344479
N370	N	-0.644780	0.074914	-0.349848
N371	N	-0.311446	0.408248	-0.016515
N372	N	0.021887	0.741581	0.316819
C373	C	-0.593638	-0.450040	-0.322132
C374	C	-0.260304	-0.116707	0.011201
C375	C	0.073029	0.216626	0.344534
N376	N	-0.644760	-0.427468	-0.349792
N377	N	-0.311427	-0.094135	-0.016459
N378	N	0.021907	0.239199	0.316875
