data_functionalizedCrystal
_audit_creation_method	'MofGen! by Chris Wilmer'
_symmetry_space_group_name_H-M	'P1'
_symmetry_Int_Tables_number	1
_symmetry_cell_setting	triclinic
loop_
_symmetry_equiv_pos_as_xyz
  x,y,z
_cell_length_a	17.699099
_cell_length_b	17.699083
_cell_length_c	16.776229
_cell_angle_alpha	90.007545
_cell_angle_beta	89.993452
_cell_angle_gamma	96.713817
loop_
_atom_site_label
_atom_site_type_symbol
_atom_site_fract_x
_atom_site_fract_y
_atom_site_fract_z
O1	O	1.004071	-0.095769	-0.066279
O2	O	1.337404	0.237564	0.267055
O3	O	1.670738	0.570898	0.600388
O4	O	0.783694	-0.108209	-0.066283
O5	O	1.117028	0.225124	0.267051
O6	O	1.450361	0.558458	0.600384
O7	O	0.900109	0.008200	-0.066274
O8	O	1.233442	0.341533	0.267060
O9	O	1.566776	0.674867	0.600393
O10	O	0.887657	-0.212178	-0.066288
O11	O	1.220990	0.121155	0.267046
O12	O	1.554323	0.454489	0.600379
O13	O	0.900093	0.008207	0.066303
O14	O	1.233427	0.341540	0.399636
O15	O	1.566760	0.674874	0.732970
O16	O	0.783679	-0.108202	0.066294
O17	O	1.117012	0.225131	0.399627
O18	O	1.450346	0.558465	0.732960
O19	O	1.004056	-0.095762	0.066298
O20	O	1.337389	0.237572	0.399631
O21	O	1.670722	0.570905	0.732965
Zn22	Zn	0.893865	-0.101981	0.087345
Zn23	Zn	1.227198	0.231353	0.420679
Zn24	Zn	1.560532	0.564686	0.754012
Zn25	Zn	0.893885	-0.101990	-0.087330
Zn26	Zn	1.227218	0.231343	0.246003
Zn27	Zn	1.560552	0.564677	0.579337
O28	O	0.887641	-0.212171	0.066289
O29	O	1.220974	0.121163	0.399622
O30	O	1.554308	0.454496	0.732955
C31	C	0.755490	-0.107758	0.000005
C32	C	1.088823	0.225576	0.333338
C33	C	1.422156	0.558909	0.666672
C34	C	0.671472	-0.106414	0.000004
C35	C	1.004806	0.226919	0.333337
C36	C	1.338139	0.560252	0.666670
C37	C	0.899655	0.036400	0.000015
C38	C	1.232988	0.369734	0.333348
C39	C	1.566322	0.703067	0.666682
C40	C	0.898316	0.120419	0.000015
C41	C	1.231650	0.453752	0.333348
C42	C	1.564983	0.787085	0.666682
N43	N	0.893857	-0.101974	0.206556
N44	N	1.227190	0.231359	0.539890
N45	N	1.560523	0.564693	0.873223
C46	C	1.032260	-0.096213	0.000008
C47	C	1.365593	0.237120	0.333342
C48	C	1.698927	0.570454	0.666675
C49	C	1.116278	-0.097556	0.000005
C50	C	1.449611	0.235777	0.333338
C51	C	1.782944	0.569110	0.666671
C52	C	1.155753	-0.098192	-0.072264
C53	C	1.489086	0.235141	0.261070
C54	C	1.822420	0.568474	0.594403
C55	C	1.234697	-0.099448	-0.072265
C56	C	1.568031	0.233885	0.261069
C57	C	1.901364	0.567219	0.594402
C58	C	1.274164	-0.100073	0.000004
C59	C	1.607497	0.233260	0.333337
C60	C	1.940830	0.566593	0.666670
C61	C	1.234683	-0.099435	0.072277
C62	C	1.568016	0.233898	0.405611
C63	C	1.901350	0.567231	0.738944
C64	C	1.155741	-0.098174	0.072278
C65	C	1.489074	0.235159	0.405611
C66	C	1.822408	0.568493	0.738944
C67	C	1.553048	-0.104520	0.072278
C68	C	1.886381	0.228813	0.405612
C69	C	2.219714	0.562146	0.738945
C70	C	1.631995	-0.105784	0.072273
C71	C	1.965328	0.227549	0.405606
C72	C	2.298661	0.560883	0.738939
C73	C	1.632004	-0.105795	-0.072264
C74	C	1.965337	0.227539	0.261070
C75	C	2.298670	0.560872	0.594403
C76	C	1.553062	-0.104533	-0.072264
C77	C	1.886395	0.228800	0.261070
C78	C	2.219728	0.562133	0.594403
C79	C	1.513588	-0.103891	0.000010
C80	C	1.846922	0.229442	0.333343
C81	C	2.180255	0.562775	0.666676
C82	C	1.427988	-0.102528	0.000010
C83	C	1.761322	0.230805	0.333343
C84	C	2.094655	0.564139	0.666677
C85	C	1.359762	-0.101442	0.000004
C86	C	1.693095	0.231891	0.333338
C87	C	2.026428	0.565225	0.666671
C88	C	0.888095	-0.240371	-0.000001
C89	C	1.221428	0.092962	0.333332
C90	C	1.554762	0.426295	0.666665
C91	C	0.889434	-0.324389	-0.000007
C92	C	1.222767	0.008944	0.333326
C93	C	1.556100	0.342277	0.666660
C94	C	0.966649	0.169036	0.000018
C95	C	1.299983	0.502369	0.333351
C96	C	1.633316	0.835702	0.666684
C97	C	0.965387	0.247979	0.000011
C98	C	1.298720	0.581312	0.333344
C99	C	1.632054	0.914646	0.666677
C100	C	0.895791	0.278304	0.000007
C101	C	1.229124	0.611637	0.333340
C102	C	1.562458	0.944970	0.666673
C103	C	0.827453	0.229680	0.000002
C104	C	1.160786	0.563014	0.333335
C105	C	1.494120	0.896347	0.666669
C106	C	0.828716	0.150739	0.000003
C107	C	1.162049	0.484072	0.333337
C108	C	1.495383	0.817405	0.666670
C109	C	0.822358	0.548044	-0.000005
C110	C	1.155691	0.881377	0.333329
C111	C	1.489024	1.214710	0.666662
C112	C	0.821100	0.626992	-0.000004
C113	C	1.154433	0.960325	0.333330
C114	C	1.487767	1.293659	0.666663
C115	C	0.959029	0.645284	0.000003
C116	C	1.292362	0.978618	0.333336
C117	C	1.625695	1.311951	0.666669
C118	C	0.960292	0.566342	0.000004
C119	C	1.293625	0.899676	0.333337
C120	C	1.626958	1.233009	0.666671
C121	C	0.891954	0.517726	-0.000005
C122	C	1.225287	0.851059	0.333328
C123	C	1.558621	1.184393	0.666662
C124	C	0.893324	0.432127	0.000001
C125	C	1.226657	0.765460	0.333334
C126	C	1.559990	1.098793	0.666668
C127	C	0.894421	0.363902	0.000006
C128	C	1.227754	0.697235	0.333340
C129	C	1.561087	1.030568	0.666673
N130	N	0.893899	-0.101991	-0.206541
N131	N	1.227233	0.231342	0.126792
N132	N	1.560566	0.564676	0.460125
C133	C	0.945421	-0.050449	0.248278
C134	C	1.278754	0.282884	0.581611
C135	C	1.612087	0.616218	0.914944
C136	C	0.945425	-0.050448	0.331730
C137	C	1.278758	0.282885	0.665063
C138	C	1.612091	0.616218	0.998397
C139	C	0.893868	-0.101977	0.373459
C140	C	1.227201	0.231357	0.706793
C141	C	1.560535	0.564690	1.040126
C142	C	0.842298	-0.153504	0.331732
C143	C	1.175632	0.179829	0.665066
C144	C	1.508965	0.513163	0.998399
C145	C	0.842291	-0.153500	0.248282
C146	C	1.175625	0.179833	0.581615
C147	C	1.508958	0.513166	0.914948
C148	C	0.842326	-0.153519	0.668280
C149	C	1.175659	0.179814	1.001613
C150	C	1.508992	0.513148	1.334946
C151	C	0.842338	-0.153520	0.751736
C152	C	1.175672	0.179813	1.085069
C153	C	1.509005	0.513147	1.418403
C154	C	0.945459	-0.050467	0.751728
C155	C	1.278793	0.282866	1.085061
C156	C	1.612126	0.616200	1.418394
C157	C	0.945452	-0.050463	0.668277
C158	C	1.278785	0.282870	1.001610
C159	C	1.612119	0.616203	1.334944
C160	C	0.893880	-0.101987	0.626557
C161	C	1.227214	0.231346	0.959891
C162	C	1.560547	0.564679	1.293224
C163	C	0.893875	-0.101987	0.536069
C164	C	1.227209	0.231347	0.869402
C165	C	1.560542	0.564680	1.202736
C166	C	0.893876	-0.101982	0.463946
C167	C	1.227209	0.231351	0.797279
C168	C	1.560543	0.564685	1.130613
H169	H	1.123624	-0.097688	-0.131113
H170	H	1.456958	0.235645	0.202220
H171	H	1.790291	0.568978	0.535554
H172	H	0.764423	0.651678	-0.000005
H173	H	1.097757	0.985012	0.333328
H174	H	1.431090	1.318345	0.666661
N175	N	0.755008	0.098308	0.000014
N176	N	1.088341	0.431642	0.333347
N177	N	1.421674	0.764975	0.666681
H178	H	0.752454	0.065156	0.049163
H179	H	1.085787	0.398489	0.382496
H180	H	1.419120	0.731823	0.715829
H181	H	0.752498	0.065188	-0.049162
H182	H	1.085831	0.398521	0.284171
H183	H	1.419164	0.731854	0.617504
N184	N	1.001084	0.005109	0.796725
N185	N	1.334418	0.338443	1.130058
N186	N	1.667751	0.671776	1.463392
H187	H	0.993267	-0.002707	0.855923
H188	H	1.326601	0.330626	1.189256
H189	H	1.659934	0.663960	1.522590
H190	H	0.992446	0.058793	0.782148
H191	H	1.325780	0.392127	1.115481
H192	H	1.659113	0.725460	1.448815
N193	N	1.001047	0.005110	0.376739
N194	N	1.334381	0.338443	0.710072
N195	N	1.667714	0.671777	1.043406
H196	H	1.034490	-0.023792	0.411348
H197	H	1.367824	0.309542	0.744681
H198	H	1.701157	0.642875	1.078015
H199	H	0.972144	0.038574	0.411333
H200	H	1.305477	0.371908	0.744666
H201	H	1.638810	0.705241	1.078000
N202	N	1.039089	0.300417	0.000023
N203	N	1.372422	0.633750	0.333356
N204	N	1.705755	0.967083	0.666690
H205	H	1.041653	0.333570	-0.049125
H206	H	1.374986	0.666904	0.284209
H207	H	1.708319	1.000237	0.617542
H208	H	1.083325	0.269173	0.000062
H209	H	1.416658	0.602507	0.333395
H210	H	1.749992	0.935840	0.666729
N211	N	0.786694	-0.209080	0.376744
N212	N	1.120027	0.124253	0.710077
N213	N	1.453361	0.457586	1.043411
H214	H	0.795306	-0.262787	0.362207
H215	H	1.128639	0.070546	0.695540
H216	H	1.461973	0.403879	1.028873
H217	H	0.733019	-0.200361	0.362221
H218	H	1.066352	0.132972	0.695554
H219	H	1.399686	0.466306	1.028888
H220	H	1.266835	-0.099961	-0.131113
H221	H	1.600169	0.233372	0.202220
H222	H	1.933502	0.566706	0.535554
N223	N	1.032741	0.697718	-0.000001
N224	N	1.366075	1.031051	0.333333
N225	N	1.699408	1.364384	0.666666
H226	H	1.063102	0.687984	0.049149
H227	H	1.396435	1.021318	0.382482
H228	H	1.729769	1.354651	0.715816
H229	H	1.021325	0.752308	-0.000036
H230	H	1.354658	1.085641	0.333297
H231	H	1.687992	1.418975	0.666631
H232	H	0.800352	-0.195482	0.785711
H233	H	1.133685	0.137851	1.119044
H234	H	1.467019	0.471185	1.452377
N235	N	0.748654	0.495614	-0.000011
N236	N	1.081988	0.828947	0.333322
N237	N	1.415321	1.162280	0.666656
H238	H	0.704376	0.526806	-0.000010
H239	H	1.037710	0.860139	0.333324
H240	H	1.371043	1.193472	0.666657
H241	H	0.746167	0.462467	0.049136
H242	H	1.079500	0.795800	0.382470
H243	H	1.412834	1.129133	0.715803
N244	N	1.510500	-0.103854	-0.150213
N245	N	1.843834	0.229480	0.183120
N246	N	2.177167	0.562813	0.516454
H247	H	1.483970	-0.056430	-0.153427
H248	H	1.817303	0.276903	0.179907
H249	H	2.150636	0.610236	0.513240
H250	H	1.471565	-0.150261	-0.153394
H251	H	1.804899	0.183073	0.179939
H252	H	2.138232	0.516406	0.513272
H253	H	1.023322	0.144352	0.000026
H254	H	1.356656	0.477685	0.333359
H255	H	1.689989	0.811019	0.666692
N256	N	0.786701	-0.209085	0.623288
N257	N	1.120034	0.124249	0.956621
N258	N	1.453368	0.457582	1.289954
H259	H	0.754043	-0.241727	0.662388
H260	H	1.087377	0.091606	0.995722
H261	H	1.420710	0.424940	1.329055
H262	H	0.815600	-0.242512	0.588646
H263	H	1.148934	0.090821	0.921979
H264	H	1.482267	0.424154	1.255312
N265	N	1.001062	0.005110	0.623269
N266	N	1.334396	0.338443	0.956602
N267	N	1.667729	0.671777	1.289935
H268	H	1.033729	0.037753	0.662363
H269	H	1.367062	0.371086	0.995696
H270	H	1.700395	0.704419	1.329029
H271	H	0.972147	0.038536	0.588658
H272	H	1.305481	0.371870	0.921991
H273	H	1.638814	0.705203	1.255324
H274	H	0.770787	0.254377	-0.000006
H275	H	1.104120	0.587710	0.333327
H276	H	1.437453	0.921044	0.666660
H277	H	1.016964	0.541657	0.000011
H278	H	1.350297	0.874990	0.333344
H279	H	1.683631	1.208324	0.666678
H280	H	1.520919	-0.103987	0.131128
H281	H	1.854253	0.229347	0.464461
H282	H	2.187586	0.562680	0.797795
N283	N	1.674579	-0.106483	-0.150219
N284	N	2.007912	0.226850	0.183114
N285	N	2.341245	0.560184	0.516447
H286	H	1.730577	-0.107373	-0.139258
H287	H	2.063911	0.225960	0.194075
H288	H	2.397244	0.559293	0.527409
H289	H	1.667000	-0.059365	-0.181777
H290	H	2.000333	0.273968	0.151556
H291	H	2.333667	0.607302	0.484890
N292	N	1.674565	-0.106461	0.150223
N293	N	2.007898	0.226873	0.483556
N294	N	2.341232	0.560206	0.816889
H295	H	1.637581	-0.105861	0.196008
H296	H	1.970914	0.227472	0.529342
H297	H	2.304248	0.560805	0.862675
H298	H	1.713542	-0.060085	0.153368
H299	H	2.046876	0.273248	0.486701
H300	H	2.380209	0.606582	0.820034
N301	N	1.277247	-0.100107	0.150226
N302	N	1.610580	0.233226	0.483559
N303	N	1.943913	0.566559	0.816893
H304	H	1.333246	-0.101006	0.139261
H305	H	1.666579	0.232327	0.472595
H306	H	1.999913	0.565660	0.805928
H307	H	1.257221	-0.146786	0.181780
H308	H	1.590554	0.186547	0.515113
H309	H	1.923887	0.519880	0.848447
N310	N	0.786672	-0.209069	0.203278
N311	N	1.120006	0.124264	0.536611
N312	N	1.453339	0.457597	0.869945
H313	H	0.754012	-0.241714	0.242375
H314	H	1.087345	0.091620	0.575708
H315	H	1.420679	0.424953	0.909041
H316	H	0.815576	-0.242495	0.168638
H317	H	1.148909	0.090838	0.501971
H318	H	1.482243	0.424172	0.835305
N319	N	1.001033	0.005124	0.203272
N320	N	1.334367	0.338457	0.536606
N321	N	1.667700	0.671791	0.869939
H322	H	1.033698	0.037765	0.242369
H323	H	1.367031	0.371099	0.575702
H324	H	1.700365	0.704432	0.909035
H325	H	0.972121	0.038552	0.168660
H326	H	1.305454	0.371885	0.501993
H327	H	1.638788	0.705219	0.835327
H328	H	1.123600	-0.097664	0.131126
H329	H	1.456934	0.235669	0.464459
H330	H	1.790267	0.569003	0.797793
