data_functionalizedCrystal
_audit_creation_method	'MofGen! by Chris Wilmer'
_symmetry_space_group_name_H-M	'P1'
_symmetry_Int_Tables_number	1
_symmetry_cell_setting	triclinic
loop_
_symmetry_equiv_pos_as_xyz
  x,y,z
_cell_length_a	17.699097
_cell_length_b	11.792254
_cell_length_c	16.776229
_cell_angle_alpha	89.993192
_cell_angle_beta	89.989262
_cell_angle_gamma	83.743514
loop_
_atom_site_label
_atom_site_type_symbol
_atom_site_fract_x
_atom_site_fract_y
_atom_site_fract_z
O1	O	1.004842	0.143598	-0.066355
O2	O	1.338175	0.476931	0.266979
O3	O	1.671509	0.810264	0.600312
O4	O	0.784565	0.162255	-0.066342
O5	O	1.117898	0.495588	0.266991
O6	O	1.451232	0.828922	0.600325
O7	O	0.900044	-0.012307	-0.066343
O8	O	1.233377	0.321026	0.266990
O9	O	1.566711	0.654360	0.600324
O10	O	0.889363	0.318159	-0.066354
O11	O	1.222696	0.651493	0.266980
O12	O	1.556030	0.984826	0.600313
O13	O	0.900028	-0.012318	0.066233
O14	O	1.233362	0.321016	0.399567
O15	O	1.566695	0.654349	0.732900
O16	O	0.784549	0.162244	0.066235
O17	O	1.117883	0.495578	0.399568
O18	O	1.451216	0.828911	0.732901
O19	O	1.004826	0.143587	0.066222
O20	O	1.338160	0.476920	0.399555
O21	O	1.671493	0.810254	0.732888
Zn22	Zn	0.894685	0.152914	0.087278
Zn23	Zn	1.228019	0.486247	0.420611
Zn24	Zn	1.561352	0.819581	0.753944
Zn25	Zn	0.894706	0.152928	-0.087398
Zn26	Zn	1.228039	0.486261	0.245936
Zn27	Zn	1.561372	0.819595	0.579269
O28	O	0.889347	0.318149	0.066223
O29	O	1.222681	0.651482	0.399556
O30	O	1.556014	0.984815	0.732889
C31	C	0.756357	0.161578	-0.000052
C32	C	1.089690	0.494912	0.333281
C33	C	1.423023	0.828245	0.666615
C34	C	0.672328	0.159565	-0.000047
C35	C	1.005662	0.492898	0.333286
C36	C	1.338995	0.826232	0.666620
C37	C	0.156552	0.147231	-0.072346
C38	C	0.489886	0.480564	0.260987
C39	C	0.823219	0.813897	0.594320
C40	C	0.235507	0.149115	-0.072342
C41	C	0.568840	0.482448	0.260991
C42	C	0.902173	0.815781	0.594324
C43	C	0.274969	0.150053	-0.000072
C44	C	0.608303	0.483386	0.333262
C45	C	0.941636	0.816719	0.666595
C46	C	0.235474	0.149095	0.072200
C47	C	0.568808	0.482428	0.405533
C48	C	0.902141	0.815762	0.738867
C49	C	0.156522	0.147203	0.072195
C50	C	0.489856	0.480536	0.405528
C51	C	0.823189	0.813870	0.738862
C52	C	0.553879	0.156724	0.072221
C53	C	0.887213	0.490057	0.405554
C54	C	1.220546	0.823390	0.738887
C55	C	0.632837	0.158619	0.072220
C56	C	0.966170	0.491953	0.405553
C57	C	1.299503	0.825286	0.738886
C58	C	0.632864	0.158635	-0.072317
C59	C	0.966197	0.491969	0.261017
C60	C	1.299530	0.825302	0.594350
C61	C	0.553912	0.156743	-0.072322
C62	C	0.887245	0.490077	0.261012
C63	C	1.220578	0.823410	0.594345
C64	C	0.514424	0.155780	-0.000051
C65	C	0.847758	0.489113	0.333283
C66	C	1.181091	0.822447	0.666616
C67	C	0.428813	0.153735	-0.000056
C68	C	0.762147	0.487068	0.333278
C69	C	1.095480	0.820402	0.666611
C70	C	0.360578	0.152106	-0.000066
C71	C	0.693911	0.485439	0.333268
C72	C	1.027245	0.818772	0.666601
C73	C	0.899363	-0.054595	-0.000055
C74	C	1.232697	0.278738	0.333278
C75	C	1.566030	0.612072	0.666612
C76	C	0.897349	-0.180584	-0.000056
C77	C	1.230683	0.152749	0.333278
C78	C	1.564016	0.486083	0.666611
C79	C	0.895713	-0.282901	-0.000058
C80	C	1.229046	0.050432	0.333275
C81	C	1.562380	0.383766	0.666608
C82	C	0.893667	-0.411263	-0.000066
C83	C	1.227000	-0.077930	0.333268
C84	C	1.560334	0.255403	0.666601
C85	C	1.033035	0.144263	-0.000070
C86	C	1.366368	0.477597	0.333263
C87	C	1.699701	0.810930	0.666597
C88	C	1.117063	0.146277	-0.000080
C89	C	1.450396	0.479610	0.333253
C90	C	1.783730	0.812943	0.666586
C91	C	0.890028	0.360437	-0.000067
C92	C	1.223361	0.693770	0.333266
C93	C	1.556695	1.027103	0.666600
C94	C	0.892042	0.486426	-0.000072
C95	C	1.225375	0.819759	0.333262
C96	C	1.558709	1.153092	0.666595
N97	N	0.894677	0.152904	0.206489
N98	N	1.228010	0.486237	0.539822
N99	N	1.561344	0.819570	0.873155
N100	N	0.894720	0.152929	-0.206609
N101	N	1.228054	0.486263	0.126724
N102	N	1.561387	0.819596	0.460058
C103	C	0.945827	0.075639	0.248205
C104	C	1.279160	0.408973	0.581539
C105	C	1.612494	0.742306	0.914872
C106	C	0.945831	0.075638	0.331658
C107	C	1.279165	0.408972	0.664991
C108	C	1.612498	0.742305	0.998324
C109	C	0.894689	0.152908	0.373392
C110	C	1.228022	0.486241	0.706725
C111	C	1.561355	0.819575	1.040058
C112	C	0.843533	0.230176	0.331669
C113	C	1.176866	0.563509	0.665003
C114	C	1.510200	0.896843	0.998336
C115	C	0.843526	0.230171	0.248219
C116	C	1.176859	0.563504	0.581552
C117	C	1.510193	0.896837	0.914885
C118	C	0.843561	0.230198	0.668216
C119	C	1.176894	0.563532	1.001550
C120	C	1.510227	0.896865	1.334883
C121	C	0.843573	0.230200	0.751673
C122	C	1.176907	0.563533	1.085006
C123	C	1.510240	0.896867	1.418340
C124	C	0.945866	0.075666	0.751655
C125	C	1.279199	0.408999	1.084989
C126	C	1.612533	0.742333	1.418322
C127	C	0.945859	0.075661	0.668205
C128	C	1.279192	0.408994	1.001538
C129	C	1.612525	0.742327	1.334871
C130	C	0.894701	0.152924	0.626490
C131	C	1.228034	0.486257	0.959823
C132	C	1.561368	0.819591	1.293156
C133	C	0.894696	0.152923	0.536001
C134	C	1.228029	0.486256	0.869335
C135	C	1.561363	0.819589	1.202668
C136	C	0.894696	0.152916	0.463878
C137	C	1.228030	0.486249	0.797212
C138	C	1.561363	0.819582	1.130545
H139	H	0.124427	0.146475	-0.131198
H140	H	0.457760	0.479808	0.202136
H141	H	0.791094	0.813142	0.535469
H142	H	0.267656	0.149884	-0.131188
H143	H	0.600989	0.483218	0.202145
H144	H	0.934323	0.816551	0.535478
O145	O	1.000973	-0.007722	0.203190
O146	O	1.334306	0.325611	0.536524
O147	O	1.667639	0.658944	0.869857
H148	H	1.037956	0.039966	0.165149
H149	H	1.371289	0.373299	0.498482
H150	H	1.704623	0.706633	0.831816
O151	O	0.788422	0.313561	0.796691
O152	O	1.121755	0.646894	1.130025
O153	O	1.455088	0.980228	1.463358
H154	H	0.752847	0.367288	0.753665
H155	H	1.086181	0.700621	1.086999
H156	H	1.419514	1.033955	1.420332
H157	H	0.987481	0.012723	0.365623
H158	H	1.320814	0.346056	0.698956
H159	H	1.654147	0.679390	1.032289
H160	H	0.987506	0.012744	0.634227
H161	H	1.320840	0.346078	0.967561
H162	H	1.654173	0.679411	1.300894
H163	H	0.987519	0.012750	0.785629
H164	H	1.320853	0.346083	1.118962
H165	H	1.654186	0.679417	1.452295
H166	H	0.801908	0.293111	0.634258
H167	H	1.135241	0.626444	0.967592
H168	H	1.468574	0.959777	1.300925
H169	H	0.801888	0.293087	0.365654
H170	H	1.135221	0.626420	0.698987
H171	H	1.468555	0.959753	1.032321
H172	H	0.801873	0.293086	0.214254
H173	H	1.135207	0.626419	0.547587
H174	H	1.468540	0.959752	0.880920
H175	H	0.521785	0.155985	-0.131172
H176	H	0.855118	0.489319	0.202162
H177	H	1.188451	0.822652	0.535495
O178	O	0.675461	0.159645	-0.150267
O179	O	1.008794	0.492978	0.183066
O180	O	1.342128	0.826311	0.516399
H181	H	0.705017	0.237822	-0.153725
H182	H	1.038351	0.571155	0.179608
H183	H	1.371684	0.904488	0.512942
O184	O	0.675404	0.159641	0.150172
O185	O	1.008737	0.492975	0.483505
O186	O	1.342071	0.826308	0.816839
H187	H	0.634683	0.158649	0.200426
H188	H	0.968017	0.491983	0.533760
H189	H	1.301350	0.825316	0.867093
H190	H	0.521740	0.155922	0.131068
H191	H	0.855073	0.489256	0.464401
H192	H	1.188406	0.822589	0.797735
O193	O	0.278031	0.150114	0.150153
O194	O	0.611365	0.483447	0.483486
O195	O	0.944698	0.816781	0.816819
H196	H	0.339565	0.151605	0.138017
H197	H	0.672899	0.484938	0.471350
H198	H	1.006232	0.818271	0.804684
H199	H	0.124370	0.146438	0.131042
H200	H	0.457703	0.479771	0.464375
H201	H	0.791037	0.813105	0.797708
