data_functionalizedCrystal
_audit_creation_method	'MofGen! by Chris Wilmer'
_symmetry_space_group_name_H-M	'P1'
_symmetry_Int_Tables_number	1
_symmetry_cell_setting	triclinic
loop_
_symmetry_equiv_pos_as_xyz
  x,y,z
_cell_length_a	12.645331
_cell_length_b	16.625546
_cell_length_c	16.625539
_cell_angle_alpha	90.030397
_cell_angle_beta	89.979221
_cell_angle_gamma	89.978553
loop_
_atom_site_label
_atom_site_type_symbol
_atom_site_fract_x
_atom_site_fract_y
_atom_site_fract_z
Zn1	Zn	1.620676	0.321022	-0.455902
Zn2	Zn	1.620549	0.455865	-0.321064
Zn3	Zn	1.443397	0.321048	-0.321082
Zn4	Zn	1.443358	0.455814	-0.455854
O5	O	1.531995	0.388437	-0.388476
O6	O	1.769007	0.338920	-0.438028
O7	O	1.597012	0.438014	-0.208234
O8	O	1.466983	0.208212	-0.338994
O9	O	1.768913	0.437989	-0.338964
O10	O	1.597229	0.208193	-0.438046
O11	O	1.466859	0.338964	-0.208247
O12	O	1.295044	0.338914	-0.338947
O13	O	1.466916	0.437901	-0.568693
O14	O	1.295016	0.437926	-0.437963
O15	O	1.597192	0.338870	-0.568728
O16	O	1.596975	0.568691	-0.338917
O17	O	1.466793	0.568653	-0.437946
C18	C	1.256565	0.388418	-0.388452
C19	C	1.138735	0.388429	-0.388461
C20	C	1.532064	0.388377	-0.598785
C21	C	1.532093	0.388352	-0.688406
C22	C	1.531895	0.597928	-0.388442
C23	C	1.531949	0.687549	-0.388454
C24	C	0.971154	0.325854	-0.326514
C25	C	1.093713	0.326016	-0.326241
C26	C	1.094207	0.473368	-0.365243
C27	C	0.971608	0.473026	-0.364820
C28	C	0.971584	0.366874	-0.473867
C29	C	1.094190	0.364977	-0.473392
C30	C	1.808500	0.388457	-0.388499
C31	C	1.926330	0.388466	-0.388510
C32	C	1.532124	0.178128	-0.388527
C33	C	1.532180	0.088507	-0.388549
C34	C	1.532134	1.015725	-0.388538
C35	C	1.532079	0.924416	-0.388517
C36	C	1.532040	0.851640	-0.388496
C37	C	1.531987	0.760326	-0.388476
C38	C	1.532142	0.388261	-1.016582
C39	C	1.532126	0.388289	-0.925273
C40	C	1.532118	0.388307	-0.852497
C41	C	1.532101	0.388334	-0.761182
C42	C	1.531987	0.388439	-0.178985
C43	C	1.532163	0.388237	-0.089364
H44	H	0.941696	0.262680	-0.340912
O45	O	0.934621	0.294342	-0.499157
C46	C	0.878057	0.304350	-0.571533
H47	H	0.849223	0.369148	-0.576285
H48	H	0.931934	0.290086	-0.624657
C49	C	0.817856	0.167437	-0.566572
C50	C	0.782434	0.247020	-0.572406
H51	H	0.758874	0.132071	-0.567114
H52	H	0.855967	0.160692	-0.517813
H53	H	0.862753	0.155561	-0.610844
H54	H	0.737549	0.258898	-0.528130
H55	H	0.744313	0.253766	-0.621158
H56	H	1.123301	0.302472	-0.490900
H57	H	0.942963	0.491337	-0.302420
H58	H	0.940307	0.339967	-0.263633
O59	O	1.130806	0.415507	-0.531346
C60	C	1.197870	0.473422	-0.496208
H61	H	1.178161	0.479688	-0.429583
H62	H	1.283703	0.453617	-0.503220
C63	C	1.206006	0.547277	-0.620181
C64	C	1.181794	0.554978	-0.538353
H65	H	1.196095	0.597584	-0.646180
H66	H	1.160828	0.508258	-0.643856
H67	H	1.277534	0.530770	-0.626014
H68	H	1.110265	0.571474	-0.532521
H69	H	1.226961	0.594002	-0.514678
H70	H	1.122993	0.340287	-0.262988
O71	O	0.936046	0.530510	-0.416323
C72	C	0.824548	0.530768	-0.416415
H73	H	0.794248	0.469637	-0.395645
H74	H	0.794577	0.579476	-0.373828
C75	C	0.821385	0.622914	-0.527610
C76	C	0.784170	0.547829	-0.502107
H77	H	0.796477	0.633442	-0.580467
H78	H	0.896503	0.622743	-0.527547
H79	H	0.796406	0.663496	-0.492113
H80	H	0.809160	0.507248	-0.537597
H81	H	0.709055	0.547994	-0.502178
O82	O	1.129498	0.250858	-0.343687
C83	C	1.092559	0.227632	-0.420257
H84	H	1.018579	0.263609	-0.435793
H85	H	1.156436	0.239765	-0.467108
C86	C	1.156717	0.093084	-0.400541
C87	C	1.065849	0.137267	-0.419620
H88	H	1.140246	0.037342	-0.400151
H89	H	1.181608	0.108731	-0.348956
H90	H	1.209940	0.103204	-0.439587
H91	H	1.012634	0.127154	-0.380570
H92	H	1.040949	0.121615	-0.471200
O93	O	1.129042	0.530603	-0.417299
C94	C	1.187072	0.589220	-0.374788
H95	H	1.162263	0.588709	-0.308863
H96	H	1.275130	0.575263	-0.379533
C97	C	1.195495	0.673421	-0.491966
C98	C	1.165018	0.672798	-0.410997
H99	H	1.181896	0.724976	-0.514303
H100	H	1.156403	0.633929	-0.520608
H101	H	1.268875	0.661787	-0.495909
H102	H	1.091637	0.684422	-0.407055
H103	H	1.204098	0.712294	-0.382355
O104	O	1.130971	0.495537	-0.291640
C105	C	1.242362	0.498797	-0.293436
H106	H	1.273076	0.459022	-0.344205
H107	H	1.268859	0.563480	-0.303940
C108	C	1.249030	0.517560	-0.150270
C109	C	1.286755	0.468703	-0.212622
H110	H	1.276415	0.499001	-0.100420
H111	H	1.173984	0.515367	-0.149060
H112	H	1.271114	0.571460	-0.159035
H113	H	1.264659	0.414807	-0.203862
H114	H	1.361798	0.470886	-0.213829
O115	O	0.937134	0.421221	-0.529076
C116	C	0.978165	0.401268	-0.605389
H117	H	1.052722	0.363471	-0.597762
H118	H	0.916729	0.365490	-0.640565
C119	C	0.913689	0.525286	-0.660903
C120	C	1.005266	0.478868	-0.651535
H121	H	0.930402	0.573152	-0.689371
H122	H	0.886041	0.538728	-0.609491
H123	H	0.862501	0.495461	-0.690215
H124	H	1.056446	0.508689	-0.622216
H125	H	1.032923	0.465433	-0.702944
