data_functionalizedCrystal
_audit_creation_method	'MofGen! by Chris Wilmer'
_symmetry_space_group_name_H-M	'P1'
_symmetry_Int_Tables_number	1
_symmetry_cell_setting	triclinic
loop_
_symmetry_equiv_pos_as_xyz
  x,y,z
_cell_length_a	16.625548
_cell_length_b	12.594516
_cell_length_c	16.625539
_cell_angle_alpha	89.976673
_cell_angle_beta	89.979432
_cell_angle_gamma	90.017121
loop_
_atom_site_label
_atom_site_type_symbol
_atom_site_fract_x
_atom_site_fract_y
_atom_site_fract_z
Zn1	Zn	1.232716	-0.423710	-0.455937
Zn2	Zn	1.566050	-0.090377	-0.122604
Zn3	Zn	1.899383	0.242957	0.210729
Zn4	Zn	1.232635	-0.601711	-0.321116
Zn5	Zn	1.565968	-0.268378	0.012217
Zn6	Zn	1.899301	0.064955	0.345550
Zn7	Zn	1.097878	-0.423750	-0.321118
Zn8	Zn	1.431212	-0.090417	0.012216
Zn9	Zn	1.764545	0.242916	0.345549
Zn10	Zn	1.097864	-0.601650	-0.455906
Zn11	Zn	1.431197	-0.268317	-0.122573
Zn12	Zn	1.764530	0.065017	0.210761
O13	O	1.165273	-0.512705	-0.388519
O14	O	1.498607	-0.179372	-0.055186
O15	O	1.831940	0.153961	0.278147
O16	O	1.345538	-0.447331	-0.438065
O17	O	1.678871	-0.113997	-0.104732
O18	O	2.012205	0.219336	0.228601
O19	O	1.214731	-0.578147	-0.208284
O20	O	1.548064	-0.244813	0.125049
O21	O	1.881398	0.088520	0.458383
O22	O	1.115805	-0.274799	-0.339016
O23	O	1.449138	0.058534	-0.005682
O24	O	1.782472	0.391867	0.327651
O25	O	1.345478	-0.578108	-0.339013
O26	O	1.678811	-0.244774	-0.005680
O27	O	2.012145	0.088559	0.327654
O28	O	1.214870	-0.274769	-0.438067
O29	O	1.548203	0.058564	-0.104734
O30	O	1.881537	0.391897	0.228600
O31	O	1.115726	-0.447400	-0.208285
O32	O	1.449059	-0.114066	0.125048
O33	O	1.782393	0.219267	0.458382
O34	O	0.985044	-0.447341	-0.338985
O35	O	1.318377	-0.114007	-0.005652
O36	O	1.651711	0.219326	0.327681
O37	O	1.115780	-0.578003	-0.568743
O38	O	1.449114	-0.244670	-0.235409
O39	O	1.782447	0.088663	0.097924
O40	O	0.985033	-0.578043	-0.438014
O41	O	1.318367	-0.244709	-0.104680
O42	O	1.651700	0.088624	0.228653
O43	O	1.214856	-0.447271	-0.568766
O44	O	1.548189	-0.113938	-0.235432
O45	O	1.881523	0.219395	0.097901
O46	O	1.214717	-0.750649	-0.338983
O47	O	1.548050	-0.417316	-0.005649
O48	O	1.881383	-0.083982	0.327684
O49	O	1.115701	-0.750604	-0.438012
O50	O	1.449034	-0.417271	-0.104679
O51	O	1.782368	-0.083937	0.228655
C52	C	0.955782	-0.512690	-0.388497
C53	C	1.289116	-0.179357	-0.055163
C54	C	1.622449	0.153977	0.278170
C55	C	0.866161	-0.512709	-0.388506
C56	C	1.199495	-0.179376	-0.055173
C57	C	1.532828	0.153957	0.278160
C58	C	0.537986	-0.512716	-0.388541
C59	C	0.871319	-0.179383	-0.055207
C60	C	1.204652	0.153950	0.278126
C61	C	0.629294	-0.512711	-0.388529
C62	C	0.962627	-0.179378	-0.055195
C63	C	1.295961	0.153955	0.278138
C64	C	0.702071	-0.512713	-0.388523
C65	C	1.035404	-0.179380	-0.055190
C66	C	1.368737	0.153953	0.278144
C67	C	0.793385	-0.512707	-0.388512
C68	C	1.126718	-0.179374	-0.055179
C69	C	1.460052	0.153959	0.278155
C70	C	1.165220	-0.789246	-0.388511
C71	C	1.498554	-0.455913	-0.055178
C72	C	1.831887	-0.122580	0.278155
C73	C	1.165272	-0.907552	-0.388535
C74	C	1.498605	-0.574218	-0.055202
C75	C	1.831938	-0.240885	0.278132
C76	C	1.111412	-0.976819	-0.442359
C77	C	1.444745	-0.643486	-0.109026
C78	C	1.778078	-0.310152	0.224307
C79	C	1.091767	-1.047680	-0.368785
C80	C	1.425100	-0.714347	-0.035451
C81	C	1.758433	-0.381013	0.297882
C82	C	1.184990	-1.047490	-0.462122
C83	C	1.518323	-0.714156	-0.128789
C84	C	1.851657	-0.380823	0.204545
C85	C	1.145588	-0.976855	-0.314921
C86	C	1.478921	-0.643521	0.018412
C87	C	1.812254	-0.310188	0.351745
C88	C	1.238845	-0.976658	-0.408308
C89	C	1.572179	-0.643325	-0.074975
C90	C	1.905512	-0.309991	0.258358
C91	C	1.219228	-1.047487	-0.334683
C92	C	1.552562	-0.714154	-0.001350
C93	C	1.885895	-0.380820	0.331983
C94	C	1.375582	-0.512721	-0.388542
C95	C	1.708915	-0.179388	-0.055209
C96	C	2.042249	0.153945	0.278124
C97	C	1.465203	-0.512728	-0.388552
C98	C	1.798537	-0.179395	-0.055219
C99	C	2.131870	0.153938	0.278114
C100	C	1.165326	-0.512626	-0.598828
C101	C	1.498659	-0.179293	-0.265495
C102	C	1.831992	0.154041	0.067838
C103	C	1.165348	-0.512592	-0.688449
C104	C	1.498681	-0.179259	-0.355116
C105	C	1.832015	0.154074	-0.021783
C106	C	1.165348	-0.235085	-0.388545
C107	C	1.498682	0.098249	-0.055212
C108	C	1.832015	0.431582	0.278122
C109	C	1.165380	-0.116779	-0.388556
C110	C	1.498714	0.216554	-0.055222
C111	C	1.832047	0.549888	0.278111
C112	C	1.165385	-0.512473	-1.016625
C113	C	1.498719	-0.179140	-0.683292
C114	C	1.832052	0.154194	-0.349959
C115	C	1.165373	-0.512510	-0.925317
C116	C	1.498706	-0.179176	-0.591983
C117	C	1.832039	0.154157	-0.258650
C118	C	1.165367	-0.512534	-0.852540
C119	C	1.498700	-0.179200	-0.519207
C120	C	1.832034	0.154133	-0.185874
C121	C	1.165354	-0.512568	-0.761226
C122	C	1.498687	-0.179235	-0.427893
C123	C	1.832020	0.154098	-0.094559
C124	C	1.165267	-0.512708	-0.179028
C125	C	1.498601	-0.179374	0.154305
C126	C	1.831934	0.153959	0.487638
C127	C	1.165401	-0.512442	-0.089408
C128	C	1.498735	-0.179108	0.243926
C129	C	1.832068	0.154225	0.577259
H130	H	1.065783	-0.945789	-0.487811
H131	H	1.399116	-0.612455	-0.154477
H132	H	1.732449	-0.279122	0.178856
C133	C	1.322825	-0.934519	-0.430910
C134	C	1.656158	-0.601186	-0.097577
C135	C	1.989491	-0.267852	0.235756
H136	H	1.336723	-0.958671	-0.483227
H137	H	1.670056	-0.625338	-0.149893
H138	H	2.003390	-0.292005	0.183440
H139	H	1.361237	-0.959793	-0.393205
H140	H	1.694570	-0.626459	-0.059872
H141	H	2.027904	-0.293126	0.273461
H142	H	1.322323	-0.859097	-0.430258
H143	H	1.655656	-0.525764	-0.096925
H144	H	1.988989	-0.192431	0.236409
C145	C	1.123017	-0.935127	-0.230839
C146	C	1.456350	-0.601793	0.102494
C147	C	1.789683	-0.268460	0.435828
H148	H	1.113663	-0.993394	-0.195750
H149	H	1.446996	-0.660061	0.137583
H150	H	1.780330	-0.326728	0.470917
H151	H	1.075674	-0.893198	-0.234508
H152	H	1.409007	-0.559865	0.098825
H153	H	1.742340	-0.226531	0.432158
H154	H	1.165800	-0.893054	-0.210380
H155	H	1.499133	-0.559721	0.122953
H156	H	1.832467	-0.226388	0.456287
C157	C	1.007781	-1.089828	-0.346196
C158	C	1.341114	-0.756495	-0.012863
C159	C	1.674448	-0.423162	0.320470
H160	H	0.969535	-1.065640	-0.384483
H161	H	1.302868	-0.732306	-0.051150
H162	H	1.636201	-0.398973	0.282183
H163	H	0.993440	-1.064604	-0.294298
H164	H	1.326773	-0.731271	0.039035
H165	H	1.660107	-0.397938	0.372368
H166	H	1.008552	-1.165250	-0.345891
H167	H	1.341885	-0.831917	-0.012557
H168	H	1.675219	-0.498583	0.320776
C169	C	1.280819	-1.089153	-0.273139
C170	C	1.614152	-0.755820	0.060195
C171	C	1.947485	-0.422486	0.393528
H172	H	1.266718	-1.064838	-0.220920
H173	H	1.600052	-0.731504	0.112413
H174	H	1.933385	-0.398171	0.445747
H175	H	1.332887	-1.063761	-0.286732
H176	H	1.666221	-0.730427	0.046602
H177	H	1.999554	-0.397094	0.379935
H178	H	1.280832	-1.164578	-0.273786
H179	H	1.614166	-0.831244	0.059547
H180	H	1.947499	-0.497911	0.392881
C181	C	1.207466	-1.089404	-0.546177
C182	C	1.540799	-0.756070	-0.212844
C183	C	1.874133	-0.422737	0.120489
H184	H	1.169106	-1.065194	-0.584343
H185	H	1.502440	-0.731861	-0.251010
H186	H	1.835773	-0.398527	0.082323
H187	H	1.207827	-1.164821	-0.545467
H188	H	1.541161	-0.831487	-0.212134
H189	H	1.874494	-0.498154	0.121199
H190	H	1.259326	-1.064030	-0.560585
H191	H	1.592659	-0.730697	-0.227252
H192	H	1.925992	-0.397364	0.106082
