data_functionalizedCrystal
_audit_creation_method	'MofGen! by Chris Wilmer'
_symmetry_space_group_name_H-M	'P1'
_symmetry_Int_Tables_number	1
_symmetry_cell_setting	triclinic
loop_
_symmetry_equiv_pos_as_xyz
  x,y,z
_cell_length_a	21.395362
_cell_length_b	12.759394
_cell_length_c	12.759387
_cell_angle_alpha	89.970033
_cell_angle_beta	89.957714
_cell_angle_gamma	90.029736
loop_
_atom_site_label
_atom_site_type_symbol
_atom_site_fract_x
_atom_site_fract_y
_atom_site_fract_z
Zn1	Zn	0.957923	-0.417766	-0.594622
Zn2	Zn	0.957859	-0.593483	-0.418945
Zn3	Zn	0.853141	-0.417867	-0.418892
Zn4	Zn	0.853138	-0.593452	-0.594517
O5	O	0.905515	-0.505642	-0.506744
O6	O	1.045592	-0.441045	-0.571384
O7	O	0.943942	-0.570242	-0.271917
O8	O	0.867068	-0.270832	-0.442225
O9	O	1.045545	-0.570144	-0.442315
O10	O	0.944051	-0.270758	-0.571333
O11	O	0.867006	-0.441218	-0.271878
O12	O	0.765462	-0.441188	-0.442123
O13	O	0.867063	-0.570091	-0.741552
O14	O	0.765460	-0.570190	-0.571154
O15	O	0.944048	-0.441015	-0.741629
O16	O	0.943940	-0.740500	-0.442213
O17	O	0.867001	-0.740477	-0.571205
C18	C	0.742727	-0.505697	-0.506622
C19	C	0.673086	-0.505746	-0.506595
C20	C	0.905480	-0.778609	-0.506727
C21	C	0.905523	-0.895386	-0.506754
C22	C	0.640388	-0.573007	-0.573681
C23	C	0.574953	-0.572981	-0.573728
C24	C	0.542218	-0.505706	-0.506670
C25	C	0.574923	-0.438433	-0.439579
C26	C	0.640358	-0.438453	-0.439542
C27	C	0.438493	-0.497270	-0.412087
C28	C	0.373060	-0.497257	-0.412122
C29	C	0.340397	-0.505637	-0.506786
C30	C	0.373175	-0.514052	-0.601416
C31	C	0.438609	-0.514072	-0.601379
C32	C	0.471265	-0.505676	-0.506703
C33	C	0.236747	-0.572873	-0.573928
C34	C	0.171310	-0.572840	-0.573977
C35	C	0.171282	-0.438297	-0.439819
C36	C	0.236717	-0.438325	-0.439780
C37	C	0.269446	-0.505619	-0.506833
C38	C	0.985625	-0.895150	-0.641295
C39	C	1.025696	-0.949893	-0.708574
C40	C	1.025733	-1.059615	-0.708596
C41	C	0.985694	-1.114596	-0.641336
C42	C	0.945623	-1.059853	-0.574057
C43	C	0.945591	-0.950129	-0.574040
C44	C	0.865518	-1.060089	-0.439523
C45	C	0.865483	-0.950367	-0.439494
C46	C	0.825479	-1.115070	-0.372262
C47	C	0.785410	-1.060327	-0.304977
C48	C	0.785375	-0.950599	-0.304956
C49	C	0.825412	-0.895624	-0.372215
C50	C	1.068938	-0.505587	-0.506867
C51	C	1.138580	-0.505563	-0.506919
C52	C	0.905562	-0.505539	-0.780778
C53	C	0.905582	-0.505495	-0.897554
C54	C	0.905567	-0.231608	-0.506784
C55	C	0.905589	-0.114832	-0.506802
C56	C	0.985752	-0.371097	-0.897654
C57	C	1.025846	-0.303882	-0.952565
C58	C	1.025861	-0.303844	-1.062287
C59	C	0.985777	-0.371025	-1.117100
C60	C	0.945684	-0.438240	-1.062189
C61	C	0.945674	-0.438273	-0.952465
C62	C	0.865511	-0.572631	-1.062090
C63	C	0.865498	-0.572676	-0.952368
C64	C	0.825427	-0.639813	-1.116903
C65	C	0.785336	-0.707034	-1.061992
C66	C	0.785322	-0.707070	-0.952264
C67	C	0.825405	-0.639891	-0.897457
C68	C	0.905504	-0.505669	-0.233776
C69	C	0.905605	-0.505416	-0.117000
H70	H	0.548325	-0.627752	-0.628361
C71	C	0.741252	-0.780931	-1.122291
C72	C	0.746341	-0.900372	-1.107199
C73	C	0.702261	-0.974273	-1.167504
C74	C	0.653091	-0.928734	-1.242903
C75	C	0.648000	-0.809287	-1.257998
C76	C	0.692081	-0.735385	-1.197693
H77	H	0.782742	-0.934088	-1.051381
H78	H	0.706030	-1.062696	-1.156329
H79	H	0.620460	-0.983441	-1.287545
H80	H	0.611600	-0.775571	-1.313816
H81	H	0.688312	-0.646963	-1.208868
H82	H	0.346582	-0.520874	-0.678501
C83	C	1.069964	-0.229910	-1.122696
C84	C	1.141188	-0.238478	-1.107680
C85	C	1.185290	-0.164546	-1.168090
C86	C	1.158169	-0.082046	-1.243517
C87	C	1.086942	-0.073476	-1.258537
C88	C	1.042839	-0.147408	-1.198127
H89	H	1.161268	-0.299552	-1.051841
H90	H	1.238018	-0.170891	-1.156971
H91	H	1.190816	-0.027318	-1.288237
H92	H	1.066861	-0.012402	-1.314376
H93	H	0.990112	-0.141062	-1.209246
C94	C	1.069940	-0.229990	-0.892270
C95	C	1.069932	-0.230030	-0.771580
C96	C	1.114026	-0.156138	-0.711289
C97	C	1.158128	-0.082205	-0.771689
C98	C	1.158138	-0.082162	-0.892386
C99	C	1.114044	-0.156055	-0.952676
H100	H	1.037283	-0.284762	-0.726862
H101	H	1.114018	-0.156170	-0.621941
H102	H	1.190769	-0.027506	-0.727059
H103	H	1.190787	-0.027431	-0.937104
H104	H	1.114052	-0.156023	-1.042025
C105	C	0.272753	-0.646884	-0.647691
C106	C	0.236782	-0.720862	-0.721500
C107	C	0.272787	-0.794873	-0.795263
C108	C	0.344762	-0.794907	-0.795218
C109	C	0.380736	-0.720926	-0.721407
C110	C	0.344732	-0.646915	-0.647643
H111	H	0.183499	-0.720839	-0.721536
H112	H	0.246156	-0.849638	-0.849903
H113	H	0.371414	-0.849694	-0.849822
H114	H	0.434020	-0.720949	-0.721371
H115	H	0.371363	-0.592150	-0.593004
C116	C	0.741371	-1.120807	-0.230999
C117	C	0.768567	-1.196257	-0.148591
C118	C	0.724529	-1.256742	-0.074610
C119	C	0.653294	-1.241777	-0.083037
C120	C	0.626095	-1.166322	-0.165448
C121	C	0.670133	-1.105837	-0.239429
H122	H	0.821303	-1.207339	-0.142350
H123	H	0.744664	-1.312598	-0.013604
H124	H	0.620694	-1.286551	-0.028272
H125	H	0.573359	-1.155241	-0.171689
H126	H	0.649998	-1.049981	-0.300435
H127	H	0.825440	-0.639773	-1.206244
H128	H	0.752666	-0.761794	-0.907562
H129	H	0.667032	-0.627801	-0.628282
H130	H	0.465294	-0.520921	-0.678430
H131	H	0.144689	-0.627609	-0.628613
H132	H	0.144630	-0.383516	-0.385224
H133	H	0.985788	-0.370979	-1.206441
H134	H	0.263340	-0.383560	-0.385146
H135	H	0.825400	-0.639919	-0.808116
H136	H	0.752742	-0.906033	-0.250174
H137	H	0.346377	-0.490412	-0.335068
H138	H	0.465082	-0.490442	-0.334995
H139	H	0.666980	-0.383678	-0.384912
H140	H	0.825510	-1.204411	-0.372290
C141	C	0.538917	-0.364431	-0.365814
C142	C	0.493993	-0.281992	-0.411507
C143	C	0.457987	-0.207983	-0.337743
C144	C	0.466905	-0.216413	-0.218287
C145	C	0.511831	-0.298855	-0.172589
C146	C	0.547837	-0.372864	-0.246352
H147	H	0.487390	-0.275749	-0.499940
H148	H	0.424730	-0.146954	-0.371573
H149	H	0.440251	-0.161627	-0.163683
H150	H	0.518434	-0.305098	-0.084155
H151	H	0.581094	-0.433893	-0.212522
H152	H	0.985604	-0.805809	-0.641274
C153	C	1.069738	-0.889414	-0.782557
C154	C	1.069704	-0.768724	-0.782537
C155	C	1.113745	-0.708249	-0.856522
C156	C	1.157820	-0.768464	-0.930528
C157	C	1.157856	-0.889161	-0.930550
C158	C	1.113815	-0.949635	-0.856565
H159	H	1.037075	-0.724143	-0.727751
H160	H	1.113718	-0.618901	-0.856505
H161	H	1.190422	-0.723697	-0.985296
H162	H	1.190485	-0.933741	-0.985336
H163	H	1.113842	-1.038983	-0.856582
H164	H	1.058356	-1.104186	-0.763391
H165	H	0.985722	-1.203937	-0.641369
H166	H	0.825390	-0.806283	-0.372200
H167	H	0.985750	-0.371131	-0.808313
