data_functionalizedCrystal
_audit_creation_method	'MofGen! by Chris Wilmer'
_symmetry_space_group_name_H-M	'P1'
_symmetry_Int_Tables_number	1
_symmetry_cell_setting	triclinic
loop_
_symmetry_equiv_pos_as_xyz
  x,y,z
_cell_length_a	12.759401
_cell_length_b	12.594516
_cell_length_c	12.759393
_cell_angle_alpha	89.970826
_cell_angle_beta	89.980163
_cell_angle_gamma	90.017577
loop_
_atom_site_label
_atom_site_type_symbol
_atom_site_fract_x
_atom_site_fract_y
_atom_site_fract_z
Zn1	Zn	1.606245	-0.423635	-0.594038
Zn2	Zn	1.606135	-0.601655	-0.418366
Zn3	Zn	1.430547	-0.423696	-0.418373
Zn4	Zn	1.430532	-0.601577	-0.594003
O5	O	1.518365	-0.512641	-0.506195
O6	O	1.753252	-0.447258	-0.570746
O7	O	1.582804	-0.578106	-0.271345
O8	O	1.453906	-0.274742	-0.441693
O9	O	1.753171	-0.578048	-0.441680
O10	O	1.582991	-0.274698	-0.570754
O11	O	1.453800	-0.447360	-0.271351
O12	O	1.283524	-0.447285	-0.441659
O13	O	1.453880	-0.577915	-0.741029
O14	O	1.283513	-0.577973	-0.570694
O15	O	1.582976	-0.447182	-0.741054
O16	O	1.582789	-0.750590	-0.441646
O17	O	1.453773	-0.750533	-0.570686
C18	C	1.245397	-0.512628	-0.506174
C19	C	1.128621	-0.512648	-0.506190
C20	C	1.073780	-0.580801	-0.573272
C21	C	0.964056	-0.580805	-0.573293
C22	C	0.964023	-0.444500	-0.439140
C23	C	1.073745	-0.444491	-0.439125
C24	C	1.518296	-0.789182	-0.506185
C25	C	1.518363	-0.907487	-0.506215
C26	C	1.448184	-0.976748	-0.576351
C27	C	1.422585	-1.047619	-0.480484
C28	C	1.544058	-1.047415	-0.602099
C29	C	1.492713	-0.976800	-0.410297
C30	C	1.614230	-0.976590	-0.531977
C31	C	1.588667	-1.047429	-0.436044
C32	C	1.792398	-0.512655	-0.506216
C33	C	1.909175	-0.512661	-0.506226
C34	C	1.518438	-0.512533	-0.780228
C35	C	1.518469	-0.512487	-0.897005
C36	C	1.518463	-0.235020	-0.506228
C37	C	1.518504	-0.116714	-0.506242
C38	C	1.451321	-0.444395	-0.951869
C39	C	1.451346	-0.444363	-1.061594
C40	C	1.585676	-0.580517	-1.061579
C41	C	1.585645	-0.580554	-0.951857
C42	C	1.518352	-0.512671	-0.233228
C43	C	1.518524	-0.512417	-0.116451
H44	H	1.118457	-0.636296	-0.627883
O45	O	1.385962	-0.378254	-0.898748
C46	C	1.326717	-0.318131	-0.970707
H47	H	1.323091	-0.361702	-1.048913
H48	H	1.365219	-0.237290	-0.982392
C49	C	1.219345	-0.249292	-0.831829
C50	C	1.214884	-0.302810	-0.927881
H51	H	1.150363	-0.239835	-0.805412
H52	H	1.259262	-0.289794	-0.783348
H53	H	1.251435	-0.181930	-0.841580
H54	H	1.182807	-0.370175	-0.918127
H55	H	1.174959	-0.262319	-0.976360
H56	H	1.396666	-0.388916	-1.106259
H57	H	0.919410	-0.636301	-0.627920
H58	H	0.919329	-0.389011	-0.384537
H59	H	1.640368	-0.635933	-1.106253
H60	H	1.640328	-0.636007	-0.907185
O61	O	1.326009	-1.084897	-0.454318
C62	C	1.333364	-1.146528	-0.362336
H63	H	1.406303	-1.122320	-0.316629
H64	H	1.338880	-1.234121	-0.384136
C65	C	1.145835	-1.157961	-0.350290
C66	C	1.235415	-1.128221	-0.294148
H67	H	1.085414	-1.146673	-0.308230
H68	H	1.140879	-1.116442	-0.412262
H69	H	1.150446	-1.230953	-0.368454
H70	H	1.230809	-1.055228	-0.275996
H71	H	1.240368	-1.169727	-0.232170
O72	O	1.126977	-0.378398	-0.373805
C73	C	1.100095	-0.401515	-0.269057
H74	H	1.069909	-0.486541	-0.263612
H75	H	1.036409	-0.344420	-0.241696
C76	C	1.234614	-0.284609	-0.205642
C77	C	1.197546	-0.389042	-0.198952
H78	H	1.294724	-0.276911	-0.162396
H79	H	1.252722	-0.269031	-0.276212
H80	H	1.181533	-0.237042	-0.182843
H81	H	1.250622	-0.436607	-0.221763
H82	H	1.179449	-0.404629	-0.128384
H83	H	1.470943	-0.945909	-0.329198
H84	H	1.388731	-0.945712	-0.635576
H85	H	1.648075	-1.078268	-0.376676
O86	O	1.710897	-0.939515	-0.558060
C87	C	1.778572	-1.025821	-0.577267
H88	H	1.730353	-1.098781	-0.598963
H89	H	1.826372	-1.043285	-0.503785
C90	C	1.912285	-0.908338	-0.641553
C91	C	1.853062	-0.997946	-0.668210
H92	H	1.958237	-0.891143	-0.697648
H93	H	1.866693	-0.850190	-0.628610
H94	H	1.952109	-0.922903	-0.580317
H95	H	1.813229	-0.983376	-0.729437
H96	H	1.898649	-1.056091	-0.681166
O97	O	1.569801	-1.084296	-0.698899
C98	C	1.495512	-1.048304	-0.772567
H99	H	1.455458	-0.973837	-0.741392
H100	H	1.434361	-1.112834	-0.786263
C101	C	1.600271	-1.113874	-0.914941
C102	C	1.551082	-1.022407	-0.876654
H103	H	1.634546	-1.097904	-0.979148
H104	H	1.650319	-1.138126	-0.865309
H105	H	1.549303	-1.167640	-0.926345
H106	H	1.602051	-0.968647	-0.865238
H107	H	1.501043	-0.998145	-0.926286
