data_functionalizedCrystal
_audit_creation_method	'MofGen! by Chris Wilmer'
_symmetry_space_group_name_H-M	'P1'
_symmetry_Int_Tables_number	1
_symmetry_cell_setting	triclinic
loop_
_symmetry_equiv_pos_as_xyz
  x,y,z
_cell_length_a	12.827892
_cell_length_b	12.759401
_cell_length_c	12.759401
_cell_angle_alpha	89.994768
_cell_angle_beta	90.008995
_cell_angle_gamma	89.983083
loop_
_atom_site_label
_atom_site_type_symbol
_atom_site_fract_x
_atom_site_fract_y
_atom_site_fract_z
Zn1	Zn	-0.416154	-1.606098	0.594025
Zn2	Zn	-0.082821	-1.272765	0.927358
Zn3	Zn	0.250512	-0.939432	1.260692
Zn4	Zn	-0.590868	-1.606036	0.418347
Zn5	Zn	-0.257535	-1.272702	0.751681
Zn6	Zn	0.075798	-0.939369	1.085014
Zn7	Zn	-0.416147	-1.430445	0.418360
Zn8	Zn	-0.082813	-1.097112	0.751693
Zn9	Zn	0.250520	-0.763779	1.085027
Zn10	Zn	-0.590859	-1.430387	0.593984
Zn11	Zn	-0.257525	-1.097054	0.927318
Zn12	Zn	0.075808	-0.763720	1.260651
O13	O	-0.503507	-1.518242	0.506179
O14	O	-0.170174	-1.184908	0.839513
O15	O	0.163160	-0.851575	1.172846
O16	O	-0.439338	-1.753111	0.570732
O17	O	-0.106004	-1.419778	0.904066
O18	O	0.227329	-1.086444	1.237399
O19	O	-0.567692	-1.582741	0.271328
O20	O	-0.234359	-1.249408	0.604661
O21	O	0.098975	-0.916075	0.937995
O22	O	-0.269912	-1.453797	0.441685
O23	O	0.063422	-1.120463	0.775018
O24	O	0.396755	-0.787130	1.108351
O25	O	-0.567699	-1.753065	0.441663
O26	O	-0.234366	-1.419732	0.774996
O27	O	0.098967	-1.086398	1.108330
O28	O	-0.269917	-1.582848	0.570745
O29	O	0.063416	-1.249515	0.904078
O30	O	0.396749	-0.916182	1.237412
O31	O	-0.439325	-1.453736	0.271337
O32	O	-0.105991	-1.120403	0.604671
O33	O	0.227342	-0.787069	0.938004
O34	O	-0.439315	-1.283417	0.441646
O35	O	-0.105982	-0.950083	0.774979
O36	O	0.227351	-0.616750	1.108312
O37	O	-0.567683	-1.453697	0.741011
O38	O	-0.234350	-1.120364	1.074344
O39	O	0.098984	-0.787031	1.407677
O40	O	-0.567675	-1.283374	0.570676
O41	O	-0.234342	-0.950040	0.904009
O42	O	0.098991	-0.616707	1.237343
O43	O	-0.439328	-1.582792	0.741040
O44	O	-0.105995	-1.249458	1.074374
O45	O	0.227338	-0.916125	1.407707
O46	O	-0.737103	-1.582685	0.441624
O47	O	-0.403770	-1.249351	0.774957
O48	O	-0.070436	-0.916018	1.108290
O49	O	-0.737096	-1.453636	0.570663
O50	O	-0.403763	-1.120303	0.903997
O51	O	-0.070429	-0.786970	1.237330
C52	C	-0.503494	-1.245274	0.506158
C53	C	-0.170161	-0.911941	0.839492
C54	C	0.163172	-0.578608	1.172825
C55	C	-0.503514	-1.128498	0.506174
C56	C	-0.170181	-0.795164	0.839508
C57	C	0.163153	-0.461831	1.172841
C58	C	-0.775017	-1.518176	0.506161
C59	C	-0.441684	-1.184843	0.839494
C60	C	-0.108350	-0.851509	1.172827
C61	C	-0.891170	-1.518244	0.506188
C62	C	-0.557837	-1.184911	0.839521
C63	C	-0.224503	-0.851577	1.172854
C64	C	-0.503506	-1.518245	0.780212
C65	C	-0.170172	-1.184912	1.113546
C66	C	0.163161	-0.851578	1.446879
C67	C	-0.503505	-1.518247	0.896989
C68	C	-0.170172	-1.184913	1.230322
C69	C	0.163162	-0.851580	1.563656
C70	C	-0.942924	-1.582177	0.442406
C71	C	-0.609590	-1.248843	0.775739
C72	C	-0.276257	-0.915510	1.109072
C73	C	-1.062974	-1.582249	0.442432
C74	C	-0.729641	-1.248915	0.775766
C75	C	-0.396307	-0.915582	1.109099
C76	C	-0.230937	-1.518336	0.506221
C77	C	0.102396	-1.185003	0.839554
C78	C	0.435730	-0.851669	1.172887
C79	C	-0.114784	-1.518376	0.506239
C80	C	0.218550	-1.185043	0.839572
C81	C	0.551883	-0.851710	1.172905
C82	C	-0.503521	-1.792275	0.506201
C83	C	-0.170187	-1.458941	0.839534
C84	C	0.163146	-1.125608	1.172867
C85	C	-0.503526	-1.909051	0.506210
C86	C	-0.170193	-1.575718	0.839543
C87	C	0.163140	-1.242385	1.172877
C88	C	-0.570453	-1.073641	0.573255
C89	C	-0.237119	-0.740307	0.906588
C90	C	0.096214	-0.406974	1.239921
C91	C	-0.570457	-0.963917	0.573276
C92	C	-0.237123	-0.630583	0.906609
C93	C	0.096210	-0.297250	1.239942
C94	C	-0.436580	-0.963916	0.439127
C95	C	-0.103247	-0.630583	0.772460
C96	C	0.230087	-0.297249	1.105793
C97	C	-0.436572	-1.073638	0.439112
C98	C	-0.103238	-0.740305	0.772445
C99	C	0.230095	-0.406971	1.105779
C100	C	-0.436682	-1.585449	1.061599
C101	C	-0.103348	-1.252116	1.394933
C102	C	0.229985	-0.918782	1.728266
C103	C	-0.436681	-1.585458	0.951875
C104	C	-0.103348	-1.252125	1.285209
C105	C	0.229985	-0.918791	1.618542
C106	C	-0.570341	-1.451029	0.951833
C107	C	-0.237007	-1.117696	1.285166
C108	C	0.096326	-0.784363	1.618499
C109	C	-0.570345	-1.451026	1.061555
C110	C	-0.237012	-1.117693	1.394888
C111	C	0.096322	-0.784360	1.728221
C112	C	-0.503526	-1.518232	1.233212
C113	C	-0.170193	-1.184898	1.566545
C114	C	0.163141	-0.851565	1.899878
C115	C	-0.503510	-1.518234	1.116435
C116	C	-0.170176	-1.184901	1.449769
C117	C	0.163157	-0.851568	1.783102
H118	H	-0.898358	-1.636864	0.387783
H119	H	-0.565024	-1.303531	0.721116
H120	H	-0.231691	-0.970197	1.054450
Cl121	Cl	-1.131683	-1.666755	0.358114
Cl122	Cl	-0.798350	-1.333421	0.691448
Cl123	Cl	-0.465017	-1.000088	1.024781
H124	H	-0.382080	-0.919236	0.384525
H125	H	-0.048746	-0.585902	0.717858
H126	H	0.284587	-0.252569	1.051192
Cl127	Cl	-0.352406	-1.142606	0.354782
Cl128	Cl	-0.019073	-0.809273	0.688115
Cl129	Cl	0.314260	-0.475939	1.021449
Cl130	Cl	-0.352659	-1.669937	1.130588
Cl131	Cl	-0.019325	-1.336604	1.463922
Cl132	Cl	0.314008	-1.003271	1.797255
Cl133	Cl	-0.352667	-1.669962	0.882943
Cl134	Cl	-0.019334	-1.336629	1.216277
Cl135	Cl	0.314000	-1.003296	1.549610
H136	H	-0.624754	-1.396309	0.907136
H137	H	-0.291421	-1.062976	1.240469
H138	H	0.041913	-0.729642	1.573802
Cl139	Cl	-1.046081	-1.433856	0.590548
Cl140	Cl	-0.712748	-1.100522	0.923881
Cl141	Cl	-0.379414	-0.767189	1.257214
H142	H	-0.935738	-1.463566	0.560818
H143	H	-0.602405	-1.130233	0.894151
H144	H	-0.269072	-0.796899	1.227484
H145	H	-0.624959	-1.118304	0.627864
H146	H	-0.291625	-0.784971	0.961197
H147	H	0.041708	-0.451638	1.294531
Cl148	Cl	-0.654610	-0.894958	0.657611
Cl149	Cl	-0.321277	-0.561625	0.990945
Cl150	Cl	0.012056	-0.228292	1.324278
Cl151	Cl	-0.654372	-1.366528	1.130497
Cl152	Cl	-0.321039	-1.033195	1.463830
Cl153	Cl	0.012295	-0.699861	1.797163
