data_functionalizedCrystal
_audit_creation_method	'MofGen! by Chris Wilmer'
_symmetry_space_group_name_H-M	'P1'
_symmetry_Int_Tables_number	1
_symmetry_cell_setting	triclinic
loop_
_symmetry_equiv_pos_as_xyz
  x,y,z
_cell_length_a	13.339070
_cell_length_b	14.971486
_cell_length_c	14.048226
_cell_angle_alpha	90.001501
_cell_angle_beta	89.996915
_cell_angle_gamma	80.378288
loop_
_atom_site_label
_atom_site_type_symbol
_atom_site_fract_x
_atom_site_fract_y
_atom_site_fract_z
O1	O	0.131873	-1.219550	-0.079045
O2	O	0.147665	-0.963054	-0.079070
O3	O	-0.007530	-1.061865	-0.079057
O4	O	0.287068	-1.120740	-0.079057
O5	O	-0.007539	-1.061846	0.079264
O6	O	0.147656	-0.963035	0.079251
O7	O	0.131864	-1.219531	0.079276
Zn8	Zn	0.139758	-1.091280	0.104401
Zn9	Zn	0.139770	-1.091305	-0.104194
O10	O	0.287059	-1.120721	0.079264
C11	C	0.146954	-0.929545	0.000087
C12	C	0.144838	-0.829725	0.000077
C13	C	-0.045236	-1.051910	0.000101
C14	C	-0.157574	-1.022266	0.000094
C15	C	0.132575	-1.253040	0.000117
C16	C	0.134691	-1.352860	0.000121
C17	C	-0.522088	-1.252762	0.000117
C18	C	-0.416541	-1.280617	0.000129
C19	C	-0.351794	-1.216032	0.000120
C20	C	-0.392604	-1.123587	0.000100
C21	C	-0.498161	-1.095729	0.000096
C22	C	-0.327867	-1.058999	0.000098
C23	C	-0.368677	-0.966554	0.000078
C24	C	-0.474224	-0.938701	0.000073
C25	C	-0.538970	-1.003286	0.000082
C26	C	-0.222311	-1.086856	0.000102
C27	C	-0.198383	-0.929823	0.000081
C28	C	-0.303930	-0.901968	0.000069
C29	C	0.324765	-1.130675	0.000103
C30	C	0.437102	-1.160319	0.000104
N31	N	0.139749	-1.091270	0.246761
C32	C	0.236011	-0.795041	0.000079
C33	C	0.234016	-0.701248	0.000093
C34	C	0.140847	-0.642141	0.000099
C35	C	0.049667	-0.676832	0.000101
C36	C	0.051663	-0.770623	0.000093
C37	C	0.045514	-0.481342	0.000114
C38	C	0.043518	-0.387545	0.000119
C39	C	0.227867	-0.411968	0.000114
C40	C	0.229863	-0.505759	0.000106
C41	C	0.138682	-0.540442	0.000106
N42	N	0.139771	-1.091321	-0.246555
C43	C	0.071057	-1.135049	0.296585
C44	C	0.071057	-1.135055	0.396243
C45	C	0.139754	-1.091287	0.446075
C46	C	0.208449	-1.047502	0.396244
C47	C	0.208444	-1.047491	0.296589
C48	C	0.208457	-1.047529	0.603959
C49	C	0.208463	-1.047541	0.703621
C50	C	0.071069	-1.135094	0.703613
C51	C	0.071064	-1.135083	0.603957
C52	C	0.139761	-1.091299	0.554133
H53	H	-0.189094	-1.162125	0.000119
C54	C	0.338498	-0.860050	0.000072
H55	H	0.392510	-0.825956	0.000083
H56	H	0.343114	-0.897144	-0.055141
H57	H	0.343104	-0.897145	0.055286
H58	H	-0.265854	-1.238717	0.000130
H59	H	-0.624916	-0.980611	0.000069
H60	H	0.308258	-0.673013	0.000093
H61	H	-0.032348	-0.339422	0.000125
C62	C	-0.371657	-1.382297	0.000141
H63	H	-0.425332	-1.416772	0.000135
H64	H	-0.330983	-1.396423	0.055351
H65	H	-0.330976	-1.396431	-0.055076
H66	H	-0.574813	-1.305338	0.000132
C67	C	0.332345	-0.570774	0.000102
H68	H	0.386364	-0.536687	0.000113
H69	H	0.336958	-0.607870	-0.055109
H70	H	0.336946	-0.607868	0.055318
H71	H	-0.507447	-0.863426	0.000064
H72	H	-0.145666	-0.877232	0.000078
C73	C	0.284021	-0.999393	0.758440
H74	H	0.274190	-1.005681	0.824927
H75	H	0.272913	-0.936943	0.742123
H76	H	0.351581	-1.025867	0.742100
H77	H	0.302110	-0.383724	0.000118
C78	C	-0.004512	-1.183194	0.241778
H79	H	-0.045429	-1.209260	0.285728
H80	H	0.031954	-1.229471	0.202891
H81	H	-0.046702	-1.140540	0.202915
H82	H	-0.028735	-0.509578	0.000115
C83	C	-0.004495	-1.183223	0.451045
H84	H	-0.045398	-1.209300	0.407094
H85	H	-0.046685	-1.140594	0.489932
H86	H	0.031994	-1.229511	0.489908
H87	H	0.015131	-1.170728	0.563384
H88	H	-0.022579	-0.798860	0.000091
C89	C	-0.348828	-0.800284	0.000056
H90	H	-0.420962	-0.792949	0.000062
H91	H	-0.326611	-0.772593	-0.055155
H92	H	-0.326623	-0.772582	0.055272
H93	H	-0.026192	-0.628700	0.000119
C94	C	-0.004504	-1.183246	0.758414
H95	H	0.005326	-1.176975	0.824903
H96	H	0.006597	-1.245692	0.742076
H97	H	-0.072061	-1.156762	0.742086
C98	C	0.284026	-0.999373	0.549154
H99	H	0.324949	-0.973316	0.593104
H100	H	0.247558	-0.953087	0.510285
H101	H	0.326210	-1.042021	0.510273
C102	C	0.284009	-0.999338	0.241783
H103	H	0.324931	-0.973280	0.285732
H104	H	0.247536	-0.953053	0.202915
H105	H	0.326196	-1.041982	0.202899
H106	H	0.264380	-1.011859	0.436824
