data_functionalizedCrystal
_audit_creation_method	'MofGen! by Chris Wilmer'
_symmetry_space_group_name_H-M	'P1'
_symmetry_Int_Tables_number	1
_symmetry_cell_setting	triclinic
loop_
_symmetry_equiv_pos_as_xyz
  x,y,z
_cell_length_a	12.827893
_cell_length_b	15.299816
_cell_length_c	12.827885
_cell_angle_alpha	99.651217
_cell_angle_beta	89.980728
_cell_angle_gamma	80.350459
loop_
_atom_site_label
_atom_site_type_symbol
_atom_site_fract_x
_atom_site_fract_y
_atom_site_fract_z
Zn1	Zn	1.669582	-0.359013	-0.662871
Zn2	Zn	2.169582	0.140987	-0.162871
Zn3	Zn	1.699689	-0.509854	-0.518394
Zn4	Zn	2.199689	-0.009854	-0.018394
Zn5	Zn	1.494831	-0.359057	-0.488154
Zn6	Zn	1.994831	0.140943	0.011846
Zn7	Zn	1.525008	-0.509787	-0.693081
Zn8	Zn	2.025008	-0.009787	-0.193081
O9	O	1.597278	-0.434428	-0.590625
O10	O	2.097278	0.065572	-0.090625
O11	O	1.819813	-0.379032	-0.643718
O12	O	2.319813	0.120968	-0.143718
O13	O	1.672485	-0.489897	-0.368155
O14	O	2.172485	0.010103	0.131845
O15	O	1.492783	-0.232842	-0.486032
O16	O	1.992783	0.267158	0.013968
O17	O	1.841933	-0.489854	-0.537571
O18	O	2.341933	0.010146	-0.037571
O19	O	1.621172	-0.232810	-0.614396
O20	O	2.121172	0.267190	-0.114396
O21	O	1.521977	-0.379107	-0.345938
O22	O	2.021977	0.120893	0.154062
O23	O	1.352596	-0.379042	-0.515325
O24	O	1.852596	0.120958	-0.015325
O25	O	1.544216	-0.489740	-0.835300
O26	O	2.044216	0.010260	-0.335300
O27	O	1.374767	-0.489782	-0.665884
O28	O	1.874767	0.010218	-0.165884
O29	O	1.650433	-0.378967	-0.813105
O30	O	2.150433	0.121033	-0.313105
O31	O	1.701746	-0.636053	-0.566865
O32	O	2.201746	-0.136053	-0.066865
O33	O	1.573409	-0.636004	-0.695207
O34	O	2.073409	-0.136004	-0.195207
C35	C	1.325764	-0.434410	-0.590602
C36	C	1.825764	0.065590	-0.090602
C37	C	1.209614	-0.434424	-0.590622
C38	C	1.709614	0.065576	-0.090622
C39	C	1.168758	-0.489178	-0.537996
C40	C	1.668758	0.010822	-0.037996
C41	C	1.048711	-0.489194	-0.538015
C42	C	1.548711	0.010806	-0.038015
C43	C	1.644148	-0.668753	-0.637618
C44	C	2.144148	-0.168753	-0.137618
C45	C	1.664294	-0.768999	-0.657757
C46	C	2.164294	-0.268999	-0.157757
C47	C	1.453971	-1.051940	-0.447044
C48	C	1.953971	-0.551940	0.052956
C49	C	1.435036	-0.957754	-0.428125
C50	C	1.935036	-0.457754	0.071875
C51	C	1.492349	-0.910561	-0.485531
C52	C	1.992349	-0.410561	0.014469
C53	C	1.568600	-0.957562	-0.561860
C54	C	2.068600	-0.457562	-0.061860
C55	C	1.587530	-1.051757	-0.580786
C56	C	2.087530	-0.551757	-0.080786
C57	C	1.625909	-0.910378	-0.619274
C58	C	2.125909	-0.410378	-0.119274
C59	C	1.702159	-0.957379	-0.695602
C60	C	2.202159	-0.457379	-0.195602
C61	C	1.721086	-1.051565	-0.714525
C62	C	2.221086	-0.551565	-0.214525
C63	C	1.663773	-1.098758	-0.657119
C64	C	2.163773	-0.598758	-0.157119
C65	C	1.606978	-0.816183	-0.600347
C66	C	2.106978	-0.316183	-0.100347
C67	C	1.740538	-0.816000	-0.734090
C68	C	2.240538	-0.316000	-0.234090
C69	C	1.759472	-0.910186	-0.753008
C70	C	2.259472	-0.410186	-0.253008
C71	C	1.869851	-0.434446	-0.590648
C72	C	2.369851	0.065554	-0.090648
C73	C	1.986006	-0.434453	-0.590658
C74	C	2.486006	0.065547	-0.090658
C75	C	1.597332	-0.434341	-0.863178
C76	C	2.097332	0.065659	-0.363178
C77	C	1.597356	-0.434304	-0.979323
C78	C	2.097356	0.065696	-0.479323
C79	C	1.550253	-0.199187	-0.543471
C80	C	2.050253	0.300813	-0.043471
C81	C	1.530214	-0.098941	-0.523376
C82	C	2.030214	0.401059	-0.023376
C83	C	1.522898	-0.379471	-1.020112
C84	C	2.022898	0.120529	-0.520112
C85	C	1.522920	-0.379432	-1.140155
C86	C	2.022920	0.120568	-0.640155
C87	C	1.597270	-0.434449	-0.319119
C88	C	2.097270	0.065551	0.180881
C89	C	1.597398	-0.434232	-0.202923
C90	C	2.097398	0.065768	0.297077
H91	H	1.021175	-0.387570	-0.635710
H92	H	1.521175	0.112430	-0.135710
H93	H	1.783170	-1.089831	-0.776682
H94	H	2.283170	-0.589831	-0.276682
H95	H	1.661151	-0.481175	-1.167810
H96	H	2.161151	0.018825	-0.667810
F97	F	1.471908	-0.810321	-0.465681
F98	F	1.971908	-0.310321	0.034319
F99	F	1.525830	-0.766171	-0.519114
F100	F	2.025830	-0.266171	-0.019114
H101	H	1.372953	-0.919489	-0.365980
H102	H	1.872953	-0.419489	0.134020
F103	F	1.139174	-0.373171	-0.649539
F104	F	1.639174	0.126829	-0.149539
H105	H	1.661117	-0.481220	-1.033274
H106	H	2.161117	0.018780	-0.533274
H107	H	1.787205	-0.777576	-0.780837
H108	H	2.287205	-0.277576	-0.280837
H109	H	1.222655	-0.536046	-0.492931
H110	H	1.722655	-0.036046	0.007069
F111	F	1.392970	-1.102172	-0.385971
F112	F	1.892970	-0.602172	0.114029
H113	H	1.013533	-0.536069	-0.492957
H114	H	1.513533	-0.036069	0.007043
F115	F	1.840620	-0.960219	-0.834242
F116	F	2.340620	-0.460219	-0.334242
H117	H	1.679189	-1.175452	-0.672515
H118	H	2.179189	-0.675452	-0.172515
H119	H	1.459132	-0.332559	-0.966163
H120	H	1.959132	0.167441	-0.466163
F121	F	1.439600	-0.318064	-1.186053
F122	F	1.939600	0.181936	-0.686053
