data_functionalizedCrystal
_audit_creation_method	'MofGen! by Chris Wilmer'
_symmetry_space_group_name_H-M	'P1'
_symmetry_Int_Tables_number	1
_symmetry_cell_setting	triclinic
loop_
_symmetry_equiv_pos_as_xyz
  x,y,z
_cell_length_a	14.044220
_cell_length_b	9.065215
_cell_length_c	7.540329
_cell_angle_alpha	90.001076
_cell_angle_beta	89.997811
_cell_angle_gamma	90.898213
loop_
_atom_site_label
_atom_site_type_symbol
_atom_site_fract_x
_atom_site_fract_y
_atom_site_fract_z
O1	O	-0.139127	1.975816	0.147458
O2	O	-0.150543	1.547796	0.147466
O3	O	-0.006796	1.755382	0.147454
O4	O	-0.282875	1.768231	0.147470
O5	O	-0.006794	1.755374	-0.147511
O6	O	-0.150542	1.547788	-0.147499
O7	O	-0.139126	1.975808	-0.147507
Cu8	Cu	-0.144834	1.761798	-0.174436
Cu9	Cu	-0.144835	1.761807	0.174394
O10	O	-0.282874	1.768223	-0.147496
C11	C	-0.149446	1.492684	-0.000016
C12	C	-0.146168	1.328478	-0.000013
C13	C	-0.318237	1.773851	-0.000011
C14	C	-0.423607	1.790628	-0.000005
C15	C	-0.616531	1.821300	-0.000013
C16	C	-0.673144	1.702311	-0.000013
C17	C	-0.780494	1.719377	-0.000017
C18	C	-0.509171	1.804236	-0.000009
C19	C	0.028568	1.749753	-0.000027
C20	C	0.133937	1.732976	-0.000021
C21	C	-0.140223	2.030921	-0.000022
C22	C	-0.143502	2.195127	-0.000013
N23	N	-0.144833	1.761802	-0.419784
N24	N	-0.144829	1.761814	0.419743
H25	H	-0.648684	1.935978	-0.000022
N26	N	-0.630558	1.550393	-0.000058
H27	H	-0.683299	1.473359	-0.000072
H28	H	-0.589907	1.538133	0.109279
