data_functionalizedCrystal
_audit_creation_method	'MofGen! by Chris Wilmer'
_symmetry_space_group_name_H-M	'P1'
_symmetry_Int_Tables_number	1
_symmetry_cell_setting	triclinic
loop_
_symmetry_equiv_pos_as_xyz
  x,y,z
_cell_length_a	14.628931
_cell_length_b	31.640172
_cell_length_c	14.628931
_cell_angle_alpha	90.004023
_cell_angle_beta	60.000028
_cell_angle_gamma	59.998086
loop_
_atom_site_label
_atom_site_type_symbol
_atom_site_fract_x
_atom_site_fract_y
_atom_site_fract_z
Zr1	Zr	1.000469	0.407181	-0.119845
O2	O	1.191193	0.339691	-0.265826
O3	O	0.809758	0.427870	-0.075094
O4	O	1.000463	0.427870	-0.265800
O5	O	1.000488	0.339691	0.075312
O6	O	1.000444	0.497427	-0.265780
O7	O	1.000488	0.339691	-0.075120
O8	O	0.659307	0.497428	0.075358
O9	O	1.341625	0.339691	-0.265826
O10	O	0.888181	0.488604	-0.055994
O11	O	0.888196	0.436694	0.056257
O12	O	1.112727	0.436694	-0.168275
O13	O	1.112741	0.384784	-0.056024
Zr14	Zr	1.000440	0.518116	0.120108
Zr15	Zr	1.000439	0.518117	-0.119813
Zr16	Zr	1.000470	0.407181	0.120076
Zr17	Zr	1.240391	0.407181	-0.119846
Zr18	Zr	0.760518	0.518117	0.120108
O19	O	1.191151	0.497427	0.075357
O20	O	1.191150	0.497427	-0.265780
O21	O	1.191194	0.339691	0.075311
O22	O	0.809716	0.585606	0.266088
O23	O	0.809715	0.585606	-0.075049
O24	O	0.809759	0.427870	0.266043
O25	O	1.000421	0.585606	-0.075049
O26	O	1.000446	0.497427	0.266062
O27	O	1.000465	0.427870	0.266042
O28	O	1.000421	0.585606	0.075383
O29	O	1.341601	0.427870	-0.265801
O30	O	0.659308	0.497427	0.266063
O31	O	0.659283	0.585606	0.266089
O32	O	0.659283	0.585606	0.075383
O33	O	1.341626	0.339691	-0.075121
O34	O	1.341602	0.427870	-0.075095
O35	O	0.888182	0.488604	0.168537
O36	O	0.888167	0.540513	0.056287
O37	O	1.112713	0.488603	-0.055994
O38	O	1.112728	0.436694	0.056256
C39	C	0.700349	0.462649	0.000132
C40	C	0.598495	0.462649	0.000132
C41	C	0.631855	0.426232	-0.078638
C42	C	0.526587	0.426231	-0.078639
C43	C	1.000492	0.323885	0.000091
C44	C	1.000505	0.276790	0.000078
C45	C	0.883232	0.011881	0.058763
C46	C	0.883209	-0.165104	0.058785
O47	O	0.783525	-0.164946	0.108672
N48	N	1.000419	-0.214330	0.000175
C49	C	1.117643	-0.219309	-0.058440
O50	O	1.217336	-0.265240	-0.108282
C51	C	1.117664	-0.042325	-0.058455
C52	C	1.000446	0.006901	0.000150
C53	C	0.766024	0.061104	0.117365
C54	C	0.766031	0.105347	0.117354
C55	C	0.883245	0.100367	0.058741
C56	C	1.000453	0.051144	0.000139
C57	C	1.234886	-0.047304	-0.117062
C58	C	1.234881	-0.003053	-0.117059
C59	C	1.117663	0.046173	-0.058453
C60	C	1.117674	0.090407	-0.058485
N61	N	1.000465	0.139633	0.000126
C62	C	0.883250	0.144613	0.058739
C63	C	1.117623	-0.312227	-0.058430
C64	C	1.117618	-0.356473	-0.058428
C65	C	0.883185	-0.302265	0.058800
C66	C	0.883191	-0.258018	0.058790
C67	C	1.000414	-0.263001	0.000181
C68	C	0.883273	0.237526	0.058711
C69	C	0.883291	0.281770	0.058691
C70	C	1.117723	0.227559	-0.058532
C71	C	1.117707	0.183317	-0.058517
C72	C	1.000472	0.188304	0.000113
O73	O	1.217306	0.090288	-0.108334
O74	O	0.783572	0.190548	0.108594
C75	C	0.883225	-0.032363	0.058774
C76	C	1.000433	-0.081586	0.000173
C77	C	1.117647	-0.086566	-0.058440
C78	C	1.000428	-0.125832	0.000175
C79	C	0.883213	-0.120852	0.058788
C80	C	0.766004	-0.071626	0.117398
C81	C	0.766010	-0.027383	0.117387
C82	C	1.234857	-0.135792	-0.117051
C83	C	1.234840	-0.180033	-0.117036
C84	C	1.117626	-0.175053	-0.058423
C85	C	1.300560	0.462648	0.000131
C86	C	1.402413	0.462648	0.000130
C87	C	1.000454	0.462649	-0.299974
C88	C	1.000453	0.462649	-0.401826
C89	C	1.000417	0.601412	0.000171
C90	C	1.000404	0.648507	0.000185
C91	C	1.111843	0.436898	-0.502934
C92	C	1.111845	0.436898	-0.608206
C93	C	1.000455	0.462649	0.300236
C94	C	1.000456	0.462648	0.402089
C95	C	0.700311	0.601412	0.000172
C96	C	0.598445	0.648507	0.000186
C97	C	0.700349	0.462649	0.300237
C98	C	0.598497	0.462649	0.402090
C99	C	0.700312	0.601412	0.300277
C100	C	0.598446	0.648507	0.402143
C101	C	1.300597	0.323885	-0.300014
C102	C	1.402463	0.276790	-0.401881
C103	C	1.300598	0.323885	0.000091
C104	C	1.402464	0.276790	0.000077
C105	C	1.300559	0.462649	-0.299974
C106	C	1.402412	0.462649	-0.401827
C107	C	0.550615	0.643528	-0.058427
C108	C	0.454914	0.687774	-0.058437
C109	C	0.407039	0.737000	0.000174
C110	C	0.454878	0.741979	0.058789
C111	C	0.550584	0.697733	0.058791
C112	C	0.550601	0.697724	0.391387
C113	C	0.454901	0.741980	0.487093
C114	C	0.407040	0.737016	0.593553
C115	C	0.454895	0.687794	0.604307
C116	C	0.550600	0.643540	0.508602
C117	C	1.450319	0.227573	-0.391125
C118	C	1.546049	0.183318	-0.486830
C119	C	1.593915	0.188281	-0.593290
C120	C	1.546054	0.237504	-0.604044
C121	C	1.450333	0.281758	-0.508340
C122	C	1.450304	0.281770	0.058680
C123	C	1.546031	0.237523	0.058663
C124	C	1.593910	0.188297	0.000049
C125	C	1.546066	0.183318	-0.058561
C126	C	1.450347	0.227565	-0.058550
C127	C	0.553081	0.488400	0.503198
C128	C	0.447810	0.488400	0.608469
H129	H	0.492001	0.493827	0.067567
H130	H	0.592137	0.510443	0.511824
H131	H	0.905090	0.484696	-0.393200
H132	H	0.415975	0.683710	-0.106167
C133	C	0.395048	0.518185	0.725647
N134	N	0.355305	0.540620	0.813909
H135	H	1.584970	0.241587	0.106394
H136	H	0.589555	0.701776	0.304711
C137	C	0.455150	0.432872	0.481001
N138	N	0.494874	0.410446	0.392739
C139	C	0.564942	0.384110	-0.169749
N140	N	0.593831	0.352383	-0.238376
C141	C	0.402267	0.796119	0.475238
N142	N	0.362623	0.836896	0.466306
H143	H	0.374018	0.493826	0.067576
C144	C	0.301752	0.785702	0.698820
N145	N	0.222444	0.822374	0.778104
H146	H	0.589594	0.603449	-0.106169
H147	H	1.207210	0.414849	-0.694943
H148	H	1.671857	0.152243	-0.671210
C149	C	1.397686	0.335896	-0.520191
N150	N	1.358035	0.376672	-0.529125
C151	C	0.775724	0.384114	-0.169752
N152	N	0.884086	0.352391	-0.238383
C153	C	0.603216	0.589401	0.520453
N154	N	0.642843	0.548625	0.529387
C155	C	1.246586	-0.317718	-0.122924
N156	N	1.343722	-0.321856	-0.171510
H157	H	0.559449	0.440601	0.393463
H158	H	1.585039	0.241539	-0.690735
H159	H	0.787834	0.321852	0.106418
C160	C	1.397662	0.335915	0.123158
N161	N	1.358024	0.376695	0.171721
H162	H	0.329108	0.773024	0.000164
C163	C	0.402192	0.796133	0.123265
N164	N	0.362498	0.836923	0.171836
H165	H	0.787809	0.241594	0.106453
H166	H	1.207206	0.414855	-0.511561
C167	C	1.397694	0.222101	-0.274027
N168	N	1.358069	0.217974	-0.185831
C169	C	1.363837	-0.101445	-0.181531
N170	N	1.460970	-0.142225	-0.230090
C171	C	0.603174	0.703220	0.123286
N172	N	0.642778	0.707356	0.171869
C173	C	0.871612	0.492462	-0.480737
N174	N	0.774567	0.514929	-0.392475
H175	H	0.415913	0.683760	0.690999
H176	H	0.670580	0.145426	0.165072
H177	H	1.585001	0.143243	-0.478052
H178	H	1.671850	0.152273	0.000049
H179	H	0.670560	0.012696	0.165112
H180	H	1.411398	0.223503	-0.106268
H181	H	1.585064	0.143233	-0.106283
H182	H	0.787742	-0.217939	0.106522
C183	C	0.637067	0.066594	0.181838
N184	N	0.539928	0.070734	0.230392
H185	H	0.787744	-0.298216	0.106518
H186	H	1.330340	-0.007116	-0.164772
C187	C	1.246651	0.129167	-0.122990
N188	N	1.343774	0.088384	-0.171543
C189	C	0.637067	-0.066156	0.181875
N190	N	0.539958	-0.062040	0.230442
H191	H	1.213068	-0.396551	-0.106165
H192	H	1.213156	0.223512	-0.106257
H193	H	1.330300	-0.220114	-0.164771
H194	H	1.330309	-0.139855	-0.164784
