data_functionalizedCrystal
_audit_creation_method	'MofGen! by Chris Wilmer'
_symmetry_space_group_name_H-M	'P1'
_symmetry_Int_Tables_number	1
_symmetry_cell_setting	triclinic
loop_
_symmetry_equiv_pos_as_xyz
  x,y,z
_cell_length_a	29.839134
_cell_length_b	13.897448
_cell_length_c	13.897441
_cell_angle_alpha	90.028012
_cell_angle_beta	89.968382
_cell_angle_gamma	89.985569
loop_
_atom_site_label
_atom_site_type_symbol
_atom_site_fract_x
_atom_site_fract_y
_atom_site_fract_z
Zn1	Zn	0.686831	0.384116	-0.545679
Zn2	Zn	1.020164	0.717450	-0.212345
Zn3	Zn	1.353497	1.050783	0.120988
Zn4	Zn	0.686779	0.545438	-0.384387
Zn5	Zn	1.020112	0.878771	-0.051054
Zn6	Zn	1.353445	1.212105	0.282279
Zn7	Zn	0.611701	0.384144	-0.384366
Zn8	Zn	0.945034	0.717477	-0.051033
Zn9	Zn	1.278367	1.050811	0.282300
Zn10	Zn	0.611690	0.545357	-0.545609
Zn11	Zn	0.945023	0.878690	-0.212276
Zn12	Zn	1.278356	1.212023	0.121057
O13	O	0.649250	0.464764	-0.465010
O14	O	0.982583	0.798097	-0.131677
O15	O	1.315917	1.131430	0.201656
O16	O	0.749691	0.405538	-0.524321
O17	O	1.083024	0.738872	-0.190987
O18	O	1.416358	1.072205	0.142346
O19	O	0.676802	0.524088	-0.249403
O20	O	1.010136	0.857421	0.083931
O21	O	1.343469	1.190754	0.417264
O22	O	0.621693	0.249159	-0.405785
O23	O	0.955027	0.582492	-0.072452
O24	O	1.288360	0.915825	0.260882
O25	O	0.749653	0.524061	-0.405821
O26	O	1.082986	0.857394	-0.072487
O27	O	1.416319	1.190727	0.260846
O28	O	0.676891	0.249138	-0.524300
O29	O	1.010224	0.582472	-0.190967
O30	O	1.343557	0.915805	0.142366
O31	O	0.621643	0.405586	-0.249387
O32	O	0.954976	0.738919	0.083946
O33	O	1.288310	1.072252	0.417279
O34	O	0.548832	0.405507	-0.405718
O35	O	0.882166	0.738840	-0.072384
O36	O	1.215499	1.072174	0.260949
O37	O	0.621674	0.523922	-0.680600
O38	O	0.955008	0.857255	-0.347267
O39	O	1.288341	1.190589	-0.013933
O40	O	0.548824	0.523949	-0.524182
O41	O	0.882157	0.857282	-0.190849
O42	O	1.215491	1.190616	0.142484
O43	O	0.676880	0.405459	-0.680651
O44	O	1.010213	0.738793	-0.347318
O45	O	1.343547	1.072126	-0.013984
O46	O	0.676792	0.680409	-0.405753
O47	O	1.010125	1.013742	-0.072420
O48	O	1.343458	1.347075	0.260913
O49	O	0.621624	0.680349	-0.524202
O50	O	0.954958	1.013682	-0.190869
O51	O	1.288291	1.347016	0.142464
C52	C	0.532527	0.464723	-0.464941
C53	C	0.865861	0.798056	-0.131607
C54	C	1.199194	1.131389	0.201726
C55	C	0.482593	0.464729	-0.464934
C56	C	0.815926	0.798062	-0.131601
C57	C	1.149260	1.131395	0.201733
C58	C	0.649213	0.715378	-0.464994
C59	C	0.982547	1.048711	-0.131660
C60	C	1.315880	1.382045	0.201673
C61	C	0.649239	0.822592	-0.465019
C62	C	0.982572	1.155925	-0.131686
C63	C	1.315905	1.489259	0.201648
C64	C	0.649282	0.464678	-0.716603
C65	C	0.982615	0.798012	-0.383270
C66	C	1.315949	1.131345	-0.049937
C67	C	0.649295	0.464642	-0.823817
C68	C	0.982629	0.797975	-0.490484
C69	C	1.315962	1.131309	-0.157151
C70	C	0.172955	0.526528	-0.526619
C71	C	0.506288	0.859861	-0.193286
C72	C	0.839622	1.193194	0.140047
C73	C	-0.014718	0.526555	-0.526662
C74	C	0.318615	0.859888	-0.193329
C75	C	0.651948	1.193222	0.140005
O76	O	-0.038978	0.579053	-0.579068
O77	O	0.294355	0.912387	-0.245735
O78	O	0.627688	1.245720	0.087599
N79	N	-0.038192	0.464799	-0.465083
N80	N	0.295141	0.798132	-0.131750
N81	N	0.628475	1.131466	0.201584
C82	C	-0.014745	0.403028	-0.403493
C83	C	0.318588	0.736361	-0.070160
C84	C	0.651922	1.069694	0.263173
O85	O	-0.039017	0.350494	-0.351124
O86	O	0.294316	0.683827	-0.017791
O87	O	0.627650	1.017161	0.315542
C88	C	0.172927	0.402996	-0.403456
C89	C	0.506261	0.736330	-0.070123
C90	C	0.839594	1.069663	0.263211
C91	C	0.196399	0.464763	-0.465032
C92	C	0.529732	0.798096	-0.131699
C93	C	0.863065	1.131430	0.201635
C94	C	0.196426	0.588289	-0.588191
C95	C	0.529760	0.921622	-0.254858
C96	C	0.863093	1.254955	0.078475
C97	C	0.243342	0.588285	-0.588176
C98	C	0.576675	0.921618	-0.254843
C99	C	0.910009	1.254952	0.078491
C100	C	0.266786	0.526520	-0.526589
C101	C	0.600119	0.859854	-0.193256
C102	C	0.933452	1.193187	0.140078
C103	C	0.243314	0.464759	-0.465017
C104	C	0.576648	0.798093	-0.131684
C105	C	0.909981	1.131426	0.201650
C106	C	0.196374	0.341221	-0.341872
C107	C	0.529707	0.674554	-0.008538
C108	C	0.863040	1.007887	0.324795
C109	C	0.243295	0.341217	-0.341870
C110	C	0.576628	0.674550	-0.008536
C111	C	0.909961	1.007883	0.324797
C112	C	0.266766	0.402983	-0.403446
C113	C	0.600100	0.736317	-0.070113
C114	C	0.933433	1.069650	0.263221
C115	C	0.313674	0.402991	-0.403415
C116	C	0.647007	0.736324	-0.070082
C117	C	0.980340	1.069658	0.263252
N118	N	0.337148	0.464747	-0.464994
N119	N	0.670481	0.798080	-0.131661
N120	N	1.003814	1.131413	0.201673
C121	C	0.313704	0.526511	-0.526581
C122	C	0.647037	0.859845	-0.193248
C123	C	0.980370	1.193178	0.140086
C124	C	-0.113275	0.403050	-0.403516
C125	C	0.220058	0.736383	-0.070182
C126	C	0.553391	1.069716	0.263151
C127	C	-0.160193	0.403059	-0.403524
C128	C	0.173140	0.736392	-0.070190
C129	C	0.506473	1.069725	0.263143
C130	C	-0.160163	0.526585	-0.526694
C131	C	0.173170	0.859918	-0.193361
C132	C	0.506503	1.193252	0.139973
C133	C	-0.113245	0.526580	-0.526681
C134	C	0.220089	0.859913	-0.193347
C135	C	0.553422	1.193247	0.139986
C136	C	-0.089802	0.464806	-0.465095
C137	C	0.243532	0.798139	-0.131762
C138	C	0.576865	1.131472	0.201572
C139	C	0.412229	0.526500	-0.526544
C140	C	0.745563	0.859833	-0.193211
C141	C	1.078896	1.193166	0.140122
C142	C	0.459149	0.526493	-0.526521
C143	C	0.792482	0.859827	-0.193188
C144	C	1.125816	1.193160	0.140146
C145	C	0.459115	0.402964	-0.403355
C146	C	0.792448	0.736297	-0.070021
C147	C	1.125782	1.069630	0.263312
C148	C	0.412200	0.402973	-0.403374
C149	C	0.745533	0.736307	-0.070041
C150	C	1.078866	1.069640	0.263293
C151	C	0.388758	0.464744	-0.464977
C152	C	0.722091	0.798078	-0.131643
C153	C	1.055425	1.131411	0.201690
O154	O	0.337963	0.350512	-0.351044
O155	O	0.671296	0.683846	-0.017711
O156	O	1.004630	1.017179	0.315622
O157	O	0.337984	0.579022	-0.578957
O158	O	0.671317	0.912355	-0.245624
O159	O	1.004651	1.245689	0.087709
C160	C	0.126039	0.526531	-0.526634
C161	C	0.459373	0.859865	-0.193301
C162	C	0.792706	1.193198	0.140032
C163	C	0.102568	0.464770	-0.465062
C164	C	0.435901	0.798104	-0.131729
C165	C	0.769235	1.131437	0.201604
C166	C	0.126012	0.403006	-0.403475
C167	C	0.459345	0.736339	-0.070142
C168	C	0.792679	1.069672	0.263191
C169	C	0.055650	0.464779	-0.465070
C170	C	0.388983	0.798113	-0.131737
C171	C	0.722317	1.131446	0.201596
C172	C	0.032206	0.526544	-0.526657
C173	C	0.365539	0.859877	-0.193324
C174	C	0.698873	1.193211	0.140009
C175	C	0.055680	0.588300	-0.588236
C176	C	0.389013	0.921633	-0.254903
C177	C	0.722347	1.254966	0.078430
C178	C	0.102596	0.588296	-0.588221
C179	C	0.435929	0.921629	-0.254888
C180	C	0.769262	1.254963	0.078445
C181	C	0.102538	0.341250	-0.341896
C182	C	0.435871	0.674583	-0.008563
C183	C	0.769205	1.007917	0.324771
C184	C	0.055622	0.341259	-0.341915
C185	C	0.388956	0.674593	-0.008582
C186	C	0.722289	1.007926	0.324751
C187	C	0.032179	0.403024	-0.403502
C188	C	0.365512	0.736357	-0.070169
C189	C	0.698845	1.069691	0.263164
C190	C	0.766428	0.464805	-0.465081
C191	C	1.099762	0.798139	-0.131747
C192	C	1.433095	1.131472	0.201586
C193	C	0.816363	0.464823	-0.465111
C194	C	1.149696	0.798157	-0.131777
C195	C	1.483029	1.131490	0.201556
C196	C	0.649283	1.018887	-0.465088
C197	C	0.982616	1.352220	-0.131755
C198	C	1.315950	1.685554	0.201578
C199	C	0.649257	0.909655	-0.465053
C200	C	0.982591	1.242988	-0.131719
C201	C	1.315924	1.576321	0.201614
C202	C	0.649295	1.213171	-0.465059
C203	C	0.982628	1.546504	-0.131726
C204	C	1.315962	1.879837	0.201607
C205	C	0.649305	1.105957	-0.465109
C206	C	0.982638	1.439290	-0.131776
C207	C	1.315971	1.772623	0.201557
C208	C	0.649308	0.464577	-1.020113
C209	C	0.982641	0.797910	-0.686779
C210	C	1.315974	1.131244	-0.353446
C211	C	0.649299	0.464616	-0.910880
C212	C	0.982633	0.797949	-0.577547
C213	C	1.315966	1.131283	-0.244213
C214	C	0.649244	0.464779	-0.214396
C215	C	0.982577	0.798112	0.118937
C216	C	1.315911	1.131446	0.452271
C217	C	0.649318	0.464544	-0.107183
C218	C	0.982651	0.797877	0.226151
C219	C	1.315984	1.131210	0.559484
H220	H	0.478257	0.576795	-0.576664
H221	H	0.811591	0.910128	-0.243331
H222	H	1.144924	1.243461	0.090002
F223	F	0.484074	0.337233	-0.337812
F224	F	0.817407	0.670567	-0.004479
F225	F	1.150741	1.003900	0.328855
H226	H	0.177343	0.638585	-0.638348
H227	H	0.510677	0.971919	-0.305015
H228	H	0.844010	1.305252	0.028319
H229	H	-0.094137	0.576875	-0.576823
H230	H	0.239196	0.910208	-0.243490
H231	H	0.572529	1.243541	0.089844
F232	F	0.127570	0.654037	-0.653760
F233	F	0.460903	0.987370	-0.320427
F234	F	0.794236	1.320704	0.012906
H235	H	0.262448	0.638580	-0.638320
H236	H	0.595782	0.971913	-0.304987
H237	H	0.929115	1.305247	0.028347
H238	H	0.036584	0.638594	-0.638380
H239	H	0.369917	0.971927	-0.305047
H240	H	0.703250	1.305260	0.028287
H241	H	-0.179259	0.576876	-0.576841
H242	H	0.154074	0.910209	-0.243507
H243	H	0.487407	1.243543	0.089826
F244	F	-0.088331	0.337296	-0.337964
F245	F	0.245002	0.670629	-0.004631
F246	F	0.578335	1.003962	0.328703
F247	F	0.171404	0.275474	-0.276338
F248	F	0.504737	0.608807	0.056996
F249	F	0.838070	0.942141	0.390329
H250	H	0.262380	0.290905	-0.291724
H251	H	0.595713	0.624239	0.041610
H252	H	0.929046	0.957572	0.374943
F253	F	-0.185168	0.337330	-0.337974
F254	F	0.148165	0.670663	-0.004641
F255	F	0.481498	1.003996	0.328692
F256	F	0.387219	0.337249	-0.337824
F257	F	0.720552	0.670582	-0.004490
F258	F	1.053885	1.003916	0.328843
F259	F	0.030647	0.275518	-0.276369
F260	F	0.363981	0.608851	0.056964
F261	F	0.697314	0.942184	0.390298
F262	F	0.127483	0.275505	-0.276345
F263	F	0.460816	0.608839	0.056988
F264	F	0.794149	0.942172	0.390321
H265	H	0.393149	0.576797	-0.576709
H266	H	0.726482	0.910131	-0.243376
H267	H	1.059816	1.243464	0.089957
