data_functionalizedCrystal
_audit_creation_method	'MofGen! by Chris Wilmer'
_symmetry_space_group_name_H-M	'P1'
_symmetry_Int_Tables_number	1
_symmetry_cell_setting	triclinic
loop_
_symmetry_equiv_pos_as_xyz
  x,y,z
_cell_length_a	14.446369
_cell_length_b	14.446369
_cell_length_c	14.446369
_cell_angle_alpha	59.997075
_cell_angle_beta	90.000000
_cell_angle_gamma	60.000221
loop_
_atom_site_label
_atom_site_type_symbol
_atom_site_fract_x
_atom_site_fract_y
_atom_site_fract_z
Zr1	Zr	0.891802	1.013167	-0.121452
O2	O	0.743996	1.206296	-0.269268
O3	O	0.937108	0.820049	-0.076138
O4	O	0.937111	1.013172	-0.269260
O5	O	0.743996	1.013164	0.076191
O6	O	1.089448	1.013164	-0.269255
O7	O	0.743994	1.013172	-0.076146
O8	O	1.089443	0.667701	0.076205
O9	O	0.744001	1.358626	-0.269269
O10	O	1.070123	0.899470	-0.056809
O11	O	0.956438	0.899470	0.056874
O12	O	0.956441	1.126848	-0.170502
O13	O	0.842756	1.126848	-0.056819
Zr14	Zr	1.134767	1.013140	0.121517
Zr15	Zr	1.134762	1.013153	-0.121444
Zr16	Zr	0.891806	1.013153	0.121508
Zr17	Zr	0.891810	1.256117	-0.121454
Zr18	Zr	1.134759	0.770190	0.121518
O19	O	1.089461	1.206258	0.076202
O20	O	1.089454	1.206277	-0.269256
O21	O	0.744003	1.206277	0.076190
O22	O	1.282572	0.820011	0.269332
O23	O	1.282566	0.820030	-0.076126
O24	O	0.937114	0.820030	0.269320
O25	O	1.282572	1.013143	-0.076127
O26	O	1.089458	1.013134	0.269324
O27	O	0.937121	1.013143	0.269319
O28	O	1.282575	1.013134	0.076211
O29	O	0.937122	1.358616	-0.269262
O30	O	1.089446	0.667691	0.269326
O31	O	1.282567	0.667680	0.269333
O32	O	1.282564	0.667691	0.076212
O33	O	0.744005	1.358616	-0.076148
O34	O	0.937126	1.358605	-0.076141
O35	O	1.070127	0.899458	0.170566
O36	O	1.183813	0.899458	0.056883
O37	O	1.070131	1.126836	-0.056810
O38	O	0.956445	1.126836	0.056873
C39	C	1.013274	0.709260	0.000034
C40	C	1.013271	0.606121	0.000034
C41	C	0.941564	0.566832	0.071744
C42	C	0.941894	0.459197	0.072124
C43	C	1.136860	0.371394	0.051959
C44	C	1.136451	0.478640	0.052504
C45	C	0.962416	0.653851	-0.123646
C46	C	0.959936	0.547678	-0.123461
C47	C	0.709378	1.013170	0.000021
C48	C	0.606235	1.013176	0.000017
C49	C	0.387870	1.156568	-0.071328
C50	C	0.495102	1.156665	-0.071729
C51	C	0.602908	0.941949	-0.052284
C52	C	0.495139	0.942859	-0.052807
C53	C	0.496506	0.939897	0.123754
C54	C	0.602476	0.942599	0.123559
C55	C	1.317190	1.013137	0.000043
C56	C	1.420333	1.013131	0.000047
C57	C	1.013279	1.013170	-0.303874
C58	C	1.013277	1.013176	-0.407017
C59	C	1.013294	1.317047	0.000031
C60	C	1.013298	1.420185	0.000030
C61	C	0.941231	1.156568	-0.625389
C62	C	0.941536	1.156665	-0.518157
C63	C	1.136808	0.941939	-0.410336
C64	C	1.136421	0.942850	-0.518105
C65	C	0.962814	0.939906	-0.516747
C66	C	0.960306	0.942609	-0.410778
C67	C	1.013290	1.013137	0.303938
C68	C	1.013292	1.013131	0.407081
C69	C	1.317180	0.709243	0.000045
C70	C	1.420320	0.606099	0.000049
C71	C	1.013280	0.709243	0.303940
C72	C	1.013278	0.606099	0.407083
C73	C	1.317186	0.709226	0.303951
C74	C	1.420327	0.606076	0.407098
C75	C	0.709383	1.317080	-0.303887
C76	C	0.606241	1.420230	-0.407034
C77	C	0.709388	1.317063	0.000019
C78	C	0.606249	1.420208	0.000015
C79	C	1.013289	1.317063	-0.303876
C80	C	1.013290	1.420208	-0.407019
C81	C	1.638685	0.459774	0.071386
C82	C	1.531457	0.566700	0.071792
C83	C	1.423645	0.479241	0.052349
C84	C	1.531410	0.371862	0.052867
C85	C	1.530040	0.546845	-0.123695
C86	C	1.424074	0.655319	-0.123494
C87	C	0.941226	0.459785	0.482068
C88	C	0.941532	0.566714	0.374733
C89	C	1.136808	0.479235	0.481646
C90	C	1.136419	0.371852	0.588511
C91	C	0.962818	0.546828	0.590090
C92	C	0.960312	0.655307	0.481412
C93	C	1.495313	0.459723	0.625471
C94	C	1.387980	0.566675	0.518234
C95	C	1.494867	0.479227	0.410413
C96	C	1.601730	0.371821	0.518186
C97	C	1.603350	0.546760	0.516846
C98	C	1.494674	0.655261	0.410873
H99	H	1.177841	0.278947	0.142077
C100	C	0.531134	0.800701	0.012873
H101	H	0.611494	0.742650	0.039748
H102	H	0.504038	0.781815	0.075330
H103	H	0.500088	0.789933	-0.035959
H104	H	0.868902	0.587134	-0.162258
C105	C	1.601342	0.249232	0.586196
H106	H	1.536003	0.265415	0.547831
H107	H	1.667514	0.177460	0.593255
H108	H	1.600245	0.229211	0.659458
C109	C	1.711585	0.510072	0.024247
H110	H	1.722883	0.507373	-0.039382
H111	H	1.673980	0.597615	0.001784
H112	H	1.782889	0.456233	0.081256
H113	H	0.872773	0.747443	-0.167061
H114	H	1.177135	0.437817	0.143503
C115	C	0.818650	0.687416	0.301394
H116	H	0.768092	0.671389	0.337080
H117	H	0.809696	0.761283	0.292969
H118	H	0.802342	0.704019	0.228884
C119	C	1.191789	1.008764	-0.407456
H120	H	1.266531	0.964944	-0.409492
H121	H	1.148146	1.097634	-0.471248
H122	H	1.194624	1.004920	-0.339836
C123	C	0.837366	1.012759	-0.411475
H124	H	0.805785	0.969617	-0.413759
H125	H	0.836678	1.010897	-0.344822
H126	H	0.793781	1.101046	-0.476291
H127	H	0.681174	0.836446	-0.002801
H128	H	0.850570	1.212568	-0.519784
H129	H	1.006840	0.526495	-0.181303
H130	H	1.015050	0.834240	-0.489296
H131	H	1.015057	0.522031	0.668311
H132	H	1.345377	0.501493	0.002868
C133	C	1.314667	0.687365	0.520430
H134	H	1.350362	0.671318	0.587023
H135	H	1.306253	0.761232	0.455521
H136	H	1.242154	0.703981	0.520131
H137	H	1.007336	0.837924	-0.331618
H138	H	0.873228	0.586404	0.594203
C139	C	0.988784	1.232688	-0.521482
H140	H	0.989106	1.233035	-0.455895
H141	H	1.063948	1.191771	-0.523249
H142	H	0.942415	1.320192	-0.587360
C143	C	1.212606	0.508683	-0.013504
H144	H	1.243663	0.455344	-0.040527
H145	H	1.168863	0.598287	-0.075875
H146	H	1.272301	0.490914	0.035192
H147	H	0.605044	0.991428	-0.142451
H148	H	1.693670	0.370101	0.162089
H149	H	1.014388	0.680117	-0.177321
C150	C	1.534762	0.516081	0.195068
H151	H	1.601715	0.430009	0.245094
H152	H	1.534360	0.572184	0.211575
H153	H	1.470253	0.514797	0.204594
C154	C	0.492924	1.232164	-0.024349
H155	H	0.426341	1.263057	-0.004688
H156	H	0.557839	1.175656	0.041100
H157	H	0.493220	1.304383	-0.080248
H158	H	0.975919	1.212583	-0.680368
H159	H	0.850029	0.497028	0.479729
C160	C	1.212904	0.331351	0.694679
H161	H	1.213181	0.265514	0.760649
H162	H	1.287938	0.298214	0.692367
H163	H	1.184764	0.405343	0.696524
H164	H	0.446485	0.985787	0.167445
H165	H	0.333916	1.212858	-0.036423
H166	H	0.869307	0.745806	0.429986
H167	H	0.976542	0.529250	0.320946
C168	C	1.212219	0.332871	-0.015231
H169	H	1.168892	0.346227	-0.075691
H170	H	1.240135	0.385361	-0.045062
H171	H	1.274115	0.243240	0.033612
H172	H	0.976531	0.530957	0.162437
H173	H	1.176825	0.281099	0.588239
C174	C	1.420769	0.427136	0.174158
H175	H	1.417549	0.482491	0.193326
H176	H	1.355798	0.425852	0.179039
H177	H	1.487206	0.340921	0.225265
H178	H	1.681568	0.521962	0.489403
H179	H	0.601960	0.994532	0.162630
C180	C	1.492161	0.510011	0.698375
H181	H	1.424531	0.533408	0.717053
H182	H	1.555942	0.443149	0.765979
H183	H	1.494047	0.584524	0.657058
H184	H	0.523943	0.834234	0.177185
C185	C	1.533637	0.687401	0.024426
H186	H	1.467957	0.753060	0.024612
H187	H	1.599455	0.663178	0.070392
H188	H	1.534831	0.720441	-0.050959
C189	C	1.425231	0.777503	0.411573
H190	H	1.351235	0.798494	0.409566
H191	H	1.461457	0.760434	0.478515
H192	H	1.420139	0.849013	0.347045
H193	H	1.494266	0.370062	0.680443
C194	C	1.597620	0.600268	-0.182739
H195	H	1.672931	0.545826	-0.132488
H196	H	1.599170	0.601155	-0.248904
H197	H	1.562468	0.686768	-0.203230
H198	H	1.581757	0.281101	0.143897
C199	C	1.424750	0.777580	-0.176290
H200	H	1.422748	0.798555	-0.123274
H201	H	1.491679	0.760542	-0.195464
H202	H	1.360213	0.849087	-0.242698
H203	H	1.334178	0.529229	0.520677
C204	C	1.317540	0.697793	-0.201166
H205	H	1.269115	0.686120	-0.159102
H206	H	1.278518	0.787354	-0.262694
H207	H	1.339383	0.645803	-0.229536
H208	H	1.502590	0.522060	-0.177124
H209	H	0.975909	0.370120	0.481034
H210	H	1.680311	0.341857	0.491535
C211	C	1.425142	0.427149	0.407529
H212	H	1.350623	0.482511	0.404311
H213	H	1.421535	0.425873	0.342555
H214	H	1.460248	0.340933	0.473968
H215	H	1.192830	0.501477	0.508880
H216	H	1.177497	0.440679	0.430038
H217	H	1.007346	0.687427	0.506937
C218	C	1.608923	0.600199	0.584425
H219	H	1.613089	0.545768	0.659728
H220	H	1.674194	0.601099	0.586005
H221	H	1.542899	0.686697	0.549242
H222	H	1.522104	0.501479	0.332149
C223	C	1.191000	1.011239	-0.586123
H224	H	1.213195	1.038211	-0.547765
H225	H	1.255708	0.952120	-0.593181
H226	H	1.137753	1.085603	-0.659386
H227	H	1.520200	0.687389	0.331717
C228	C	0.818339	0.686674	0.025007
H229	H	0.776487	0.660886	0.069450
H230	H	0.817600	0.751183	0.028105
H231	H	0.784897	0.721880	-0.051367
C232	C	0.989606	0.339015	0.195368
H233	H	1.008872	0.355856	0.245397
H234	H	0.934044	0.321908	0.212092
H235	H	1.055363	0.265131	0.204656
H236	H	0.850918	0.495745	0.037327
H237	H	0.332885	1.212592	-0.162031
C238	C	0.491800	1.232640	-0.195003
H239	H	0.424846	1.263554	-0.245031
H240	H	0.492204	1.304846	-0.211506
H241	H	0.556308	1.176374	-0.204530
C242	C	0.818035	1.232637	-0.698304
H243	H	0.809440	1.177608	-0.709606
H244	H	0.768095	1.260114	-0.660704
H245	H	0.800573	1.307114	-0.769607
H246	H	0.444795	0.993484	-0.143838
H247	H	1.193028	0.837612	-0.491448
C248	C	0.841785	1.001922	-0.584318
H249	H	0.820907	1.073061	-0.659624
H250	H	0.839297	0.938232	-0.585890
H251	H	0.790478	1.032769	-0.549135
H252	H	0.681632	0.837915	0.181212
H253	H	1.504755	0.341913	0.004236
H254	H	1.192826	0.836436	-0.332065
