data_functionalizedCrystal
_audit_creation_method	'MofGen! by Chris Wilmer'
_symmetry_space_group_name_H-M	'P1'
_symmetry_Int_Tables_number	1
_symmetry_cell_setting	triclinic
loop_
_symmetry_equiv_pos_as_xyz
  x,y,z
_cell_length_a	8.559649
_cell_length_b	12.837942
_cell_length_c	7.681481
_cell_angle_alpha	83.650030
_cell_angle_beta	94.913240
_cell_angle_gamma	82.303802
loop_
_atom_site_label
_atom_site_type_symbol
_atom_site_fract_x
_atom_site_fract_y
_atom_site_fract_z
O1	O	2.101390	-0.023863	-0.146400
O2	O	1.644239	0.029032	-0.146410
O3	O	1.862678	-0.147512	-0.146394
O4	O	1.882950	0.152681	-0.146416
O5	O	1.889558	-0.169285	0.146465
O6	O	1.671118	0.007259	0.146450
O7	O	2.128269	-0.045636	0.146459
Zn8	Zn	1.903962	-0.022646	0.192952
Zn9	Zn	1.868546	0.006042	-0.192903
O10	O	1.909830	0.130908	0.146444
C11	C	1.598759	0.022154	0.000019
C12	C	1.423195	0.034086	0.000015
C13	C	1.869269	-0.196474	0.000034
C14	C	1.848843	-0.309925	0.000031
C15	C	2.094400	-0.570430	-0.000001
C16	C	2.075215	-0.677028	-0.000004
C17	C	1.791288	-0.629721	0.000008
C18	C	1.810473	-0.523122	0.000012
C19	C	1.962034	-0.493482	0.000010
C20	C	1.981219	-0.386882	0.000026
C21	C	1.697292	-0.339576	0.000025
C22	C	1.678107	-0.446174	0.000022
C23	C	2.173749	-0.038758	0.000027
C24	C	2.349311	-0.050689	0.000019
C25	C	1.903238	0.179870	0.000011
C26	C	1.923664	0.293322	0.000003
N27	N	1.928143	-0.042226	0.456288
N28	N	1.844376	0.025613	-0.456239
H29	H	1.420367	-0.132396	0.000016
O30	O	1.530948	-0.475086	-0.000207
C31	C	1.330533	-0.556639	-0.151972
C32	C	1.497230	-0.523978	-0.151918
H33	H	1.303207	-0.596154	-0.274636
H34	H	1.325673	-0.614542	-0.029497
H35	H	1.239259	-0.483321	-0.151872
H36	H	1.588601	-0.597232	-0.152080
H37	H	1.501957	-0.466037	-0.274383
O38	O	2.030062	-0.124958	0.545810
C39	C	2.100193	-0.314595	0.602644
C40	C	1.984683	-0.221001	0.501120
H41	H	2.063527	-0.392268	0.566578
H42	H	2.225424	-0.308811	0.566442
H43	H	2.097082	-0.311988	0.750188
H44	H	1.987654	-0.223548	0.353553
H45	H	1.859505	-0.226818	0.537468
H46	H	1.352129	0.115800	0.000000
H47	H	1.758867	0.094856	0.468558
H48	H	2.104628	-0.362752	0.000031
H49	H	1.667891	-0.653873	-0.000009
H50	H	2.183001	-0.739677	-0.000018
O51	O	2.241513	-0.541455	0.000085
C52	C	2.396887	-0.398190	-0.000010
C53	C	2.230195	-0.430859	-0.000067
H54	H	2.387790	-0.308770	-0.000170
H55	H	2.474407	-0.439858	0.122583
H56	H	2.451868	-0.421760	-0.122540
H57	H	2.175075	-0.407293	0.122380
H58	H	2.152788	-0.389200	-0.122741
H59	H	1.589511	-0.276913	0.000048
