data_functionalizedCrystal
_audit_creation_method	'MofGen! by Chris Wilmer'
_symmetry_space_group_name_H-M	'P1'
_symmetry_Int_Tables_number	1
_symmetry_cell_setting	triclinic
loop_
_symmetry_equiv_pos_as_xyz
  x,y,z
_cell_length_a	25.639239
_cell_length_b	25.639242
_cell_length_c	14.908662
_cell_angle_alpha	93.324789
_cell_angle_beta	86.732725
_cell_angle_gamma	90.033587
loop_
_atom_site_label
_atom_site_type_symbol
_atom_site_fract_x
_atom_site_fract_y
_atom_site_fract_z
Zn1	Zn	-0.225283	0.816312	0.510279
Zn2	Zn	0.274717	1.316312	1.010279
Zn3	Zn	-0.307677	0.811184	0.359411
Zn4	Zn	0.192323	1.311184	0.859411
Zn5	Zn	-0.220249	0.723836	0.359413
Zn6	Zn	0.279751	1.223836	0.859413
Zn7	Zn	-0.312679	0.728831	0.510201
Zn8	Zn	0.187321	1.228831	1.010201
O9	O	-0.266472	0.770041	0.434826
O10	O	0.233528	1.270041	0.934826
O11	O	-0.236226	0.888798	0.490298
O12	O	0.263774	1.388798	0.990298
O13	O	-0.291879	0.795360	0.233168
O14	O	0.208121	1.295360	0.733168
O15	O	-0.147753	0.736160	0.379458
O16	O	0.352247	1.236160	0.879458
O17	O	-0.296760	0.885030	0.379456
O18	O	0.203240	1.385030	0.879456
O19	O	-0.151451	0.804101	0.490299
O20	O	0.348549	1.304101	0.990299
O21	O	-0.227646	0.731187	0.233168
O22	O	0.272354	1.231187	0.733168
O23	O	-0.232497	0.651333	0.379383
O24	O	0.267503	1.151333	0.879383
O25	O	-0.305286	0.744672	0.636455
O26	O	0.194714	1.244672	1.136455
O27	O	-0.300405	0.655002	0.490167
O28	O	0.199595	1.155002	0.990167
O29	O	-0.241077	0.808944	0.636512
O30	O	0.258923	1.308944	1.136512
O31	O	-0.381504	0.800203	0.379381
O32	O	0.118496	1.300203	0.879381
O33	O	-0.385180	0.739699	0.490166
O34	O	0.114820	1.239699	0.990166
C35	C	-0.266448	0.634196	0.434767
C36	C	0.233552	1.134196	0.934767
C37	C	-0.266451	0.576082	0.434763
C38	C	0.233549	1.076082	0.934763
C39	C	-0.231060	0.322975	0.377241
C40	C	0.268940	0.822975	0.877241
C41	C	-0.231055	0.377579	0.377229
C42	C	0.268945	0.877579	0.877229
O43	O	-0.200931	0.404186	0.328270
O44	O	0.299069	0.904186	0.828270
N45	N	-0.266459	0.406810	0.434809
N46	N	0.233541	0.906810	0.934809
C47	C	-0.301867	0.381434	0.492410
C48	C	0.198133	0.881434	0.992410
O49	O	-0.331981	0.411312	0.541386
O50	O	0.168019	0.911312	1.041386
C51	C	-0.301870	0.326832	0.492426
C52	C	0.198130	0.826832	0.992426
C53	C	-0.266467	0.297603	0.434836
C54	C	0.233533	0.797603	0.934836
C55	C	-0.195659	0.293746	0.319656
C56	C	0.304341	0.793746	0.819656
C57	C	-0.195665	0.239146	0.319667
C58	C	0.304335	0.739146	0.819667
C59	C	-0.231072	0.213774	0.377262
C60	C	0.268928	0.713774	0.877262
C61	C	-0.266473	0.243003	0.434846
C62	C	0.233527	0.743003	0.934846
C63	C	-0.337275	0.301457	0.550031
C64	C	0.162725	0.801457	1.050031
C65	C	-0.337274	0.246851	0.550042
C66	C	0.162726	0.746851	1.050042
C67	C	-0.301871	0.217622	0.492452
C68	C	0.198129	0.717622	0.992452
C69	C	-0.301885	0.163031	0.492452
C70	C	0.198115	0.663031	0.992452
N71	N	-0.266481	0.133800	0.434872
N72	N	0.233519	0.633800	0.934872
C73	C	-0.231074	0.159171	0.377277
C74	C	0.268926	0.659171	0.877277
C75	C	-0.301859	0.496104	0.492375
C76	C	0.198141	0.996104	0.992375
C77	C	-0.301860	0.550705	0.492356
C78	C	0.198140	1.050705	0.992356
C79	C	-0.231046	0.546846	0.377175
C80	C	0.268954	1.046846	0.877175
C81	C	-0.231049	0.492243	0.377191
C82	C	0.268951	0.992243	0.877191
C83	C	-0.266455	0.466873	0.434795
C84	C	0.233545	0.966873	0.934795
C85	C	-0.231090	0.044507	0.377303
C86	C	0.268910	0.544507	0.877303
C87	C	-0.231100	-0.010098	0.377316
C88	C	0.268900	0.489902	0.877316
C89	C	-0.301912	-0.006233	0.492499
C90	C	0.198088	0.493767	0.992499
C91	C	-0.301903	0.048367	0.492483
C92	C	0.198097	0.548367	0.992483
C93	C	-0.266488	0.073736	0.434882
C94	C	0.233512	0.573736	0.934882
O95	O	-0.331992	0.136388	0.541388
O96	O	0.168008	0.636388	1.041388
O97	O	-0.200961	0.129288	0.328318
O98	O	0.299039	0.629288	0.828318
C99	C	-0.402313	0.769951	0.434785
C100	C	0.097687	1.269951	0.934785
C101	C	-0.460428	0.769962	0.434797
C102	C	0.039572	1.269962	0.934797
C103	C	-0.818869	0.801636	0.377239
C104	C	-0.318869	1.301636	0.877239
C105	C	-0.873473	0.801656	0.377251
C106	C	-0.373473	1.301656	0.877251
O107	O	-0.900074	0.828494	0.328267
O108	O	-0.400074	1.328494	0.828267
N109	N	-0.902713	0.770135	0.434886
N110	N	-0.402713	1.270135	0.934886
C111	C	-0.877346	0.738594	0.492519
C112	C	-0.377346	1.238594	0.992519
O113	O	-0.907230	0.711784	0.541544
O114	O	-0.407230	1.211784	1.041544
C115	C	-0.822742	0.738576	0.492511
C116	C	-0.322742	1.238576	0.992511
C117	C	-0.793505	0.770096	0.434865
C118	C	-0.293505	1.270096	0.934865
C119	C	-0.789631	0.833154	0.319599
C120	C	-0.289631	1.333154	0.819599
C121	C	-0.735031	0.833132	0.319586
C122	C	-0.235031	1.333132	0.819586
C123	C	-0.709667	0.801593	0.377213
C124	C	-0.209667	1.301593	0.877213
C125	C	-0.738904	0.770075	0.434852
C126	C	-0.238904	1.270075	0.934852
C127	C	-0.797376	0.707039	0.550148
C128	C	-0.297376	1.207039	1.050148
C129	C	-0.742768	0.707025	0.550135
C130	C	-0.242768	1.207025	1.050135
C131	C	-0.713531	0.738544	0.492490
C132	C	-0.213531	1.238544	0.992490
C133	C	-0.658939	0.738514	0.492466
C134	C	-0.158939	1.238514	0.992466
N135	N	-0.629699	0.770036	0.434831
N136	N	-0.129699	1.270036	0.934831
C137	C	-0.655063	0.801575	0.377205
C138	C	-0.155063	1.301575	0.877205
C139	C	-0.992017	0.738634	0.492533
C140	C	-0.492017	1.238634	0.992533
C141	C	-1.046619	0.738648	0.492537
C142	C	-0.546619	1.238648	0.992537
C143	C	-1.042743	0.801712	0.377270
C144	C	-0.542743	1.301712	0.877270
C145	C	-0.988140	0.801694	0.377262
C146	C	-0.488140	1.301694	0.877262
C147	C	-0.962777	0.770156	0.434898
C148	C	-0.462777	1.270156	0.934898
C149	C	-0.540397	0.801527	0.377181
C150	C	-0.040397	1.301527	0.877181
C151	C	-0.485792	0.801501	0.377170
C152	C	0.014208	1.301501	0.877170
C153	C	-0.489672	0.738440	0.492440
C154	C	0.010328	1.238440	0.992440
C155	C	-0.544273	0.738464	0.492448
C156	C	-0.044273	1.238464	0.992448
C157	C	-0.569634	0.770012	0.434815
C158	C	-0.069634	1.270012	0.934815
O159	O	-0.632303	0.711692	0.541427
O160	O	-0.132303	1.211692	1.041427
O161	O	-0.625172	0.828385	0.328196
O162	O	-0.125172	1.328385	0.828196
C163	C	-0.130101	0.770145	0.434887
C164	C	0.369899	1.270145	0.934887
C165	C	-0.071988	0.770190	0.434913
C166	C	0.428012	1.270190	0.934913
C167	C	-0.274301	0.777937	0.670133
C168	C	0.225699	1.277937	1.170133
C169	C	-0.277637	0.781302	0.770407
C170	C	0.222363	1.281302	1.270407
C171	C	-0.266497	0.906416	0.434885
C172	C	0.233503	1.406416	0.934885
C173	C	-0.266507	0.964531	0.434911
C174	C	0.233493	1.464531	0.934911
C175	C	-0.258636	0.762205	0.200435
C176	C	0.241364	1.262205	0.700435
C177	C	-0.255152	0.758942	0.100161
C178	C	0.244848	1.258942	0.600161
C179	C	-0.315778	0.819450	0.911740
C180	C	0.184222	1.319450	1.411740
C181	C	-0.312646	0.816292	0.817524
C182	C	0.187354	1.316292	1.317524
C183	C	-0.245759	0.749466	0.817511
C184	C	0.254241	1.249466	1.317511
C185	C	-0.248891	0.752624	0.911727
C186	C	0.251109	1.252624	1.411727
C187	C	-0.283901	0.787618	0.958839
C188	C	0.216099	1.287618	1.458839
C189	C	-0.287030	0.790778	1.053057
C190	C	0.212970	1.290778	1.553057
C191	C	-0.220146	0.723949	1.053042
C192	C	0.279854	1.223949	1.553042
C193	C	-0.217014	0.720791	0.958826
C194	C	0.282986	1.220791	1.458826
H195	H	-0.330695	0.475451	0.539281
H196	H	0.169305	0.975451	1.039281
O197	O	-0.196782	-0.038512	0.321262
O198	O	0.303218	0.461488	0.821262
C199	C	-0.224563	-0.072085	0.262919
C200	C	0.275437	0.427915	0.762919
H201	H	-0.265548	-0.055844	0.257235
H202	H	0.234452	0.444156	0.757235
H203	H	-0.203290	-0.075027	0.193544
H204	H	0.296710	0.424973	0.693544
H205	H	-0.227314	-0.112532	0.290797
H206	H	0.272686	0.387468	0.790797
H207	H	-0.810277	0.858840	0.272672
H208	H	-0.310277	1.358840	0.772672
O209	O	-0.196577	0.571442	0.321276
O210	O	0.303423	1.071442	0.821276
C211	C	-0.145147	0.558812	0.341177
C212	C	0.354853	1.058812	0.841177
H213	H	-0.145249	0.520336	0.375861
H214	H	0.354751	1.020336	0.875861
H215	H	-0.119477	0.554766	0.276145
H216	H	0.380523	1.054766	0.776145
H217	H	-0.129126	0.591119	0.387615
H218	H	0.370874	1.091119	0.887615
O219	O	-0.182996	0.686755	0.913198
O220	O	0.317004	1.186755	1.413198
C221	C	-0.155522	0.659346	0.974975
C222	C	0.344478	1.159346	1.474975
H223	H	-0.179168	0.659772	1.042129
H224	H	0.320832	1.159772	1.542129
H225	H	-0.149033	0.617243	0.947735
H226	H	0.350967	1.117243	1.447735
H227	H	-0.116150	0.678860	0.985016
H228	H	0.383850	1.178860	1.485016
O229	O	-0.336277	-0.030826	0.548576
O230	O	0.163723	0.469174	1.048576
C231	C	-0.327905	-0.014450	0.638521
C232	C	0.172095	0.485550	1.138521
H233	H	-0.307878	0.025275	0.640442
H234	H	0.192122	0.525275	1.140442
H235	H	-0.367013	-0.011249	0.678871
H236	H	0.132987	0.488751	1.178871
H237	H	-0.302056	-0.044134	0.668982
H238	H	0.197944	0.455866	1.168982
O239	O	-0.371712	0.329862	0.605852
O240	O	0.128288	0.829862	1.105852
C241	C	-0.403721	0.359705	0.554401
C242	C	0.096279	0.859705	1.054401
H243	H	-0.404532	0.340855	0.483338
H244	H	0.095468	0.840855	0.983338
H245	H	-0.445065	0.361397	0.586919
H246	H	0.054935	0.861397	1.086919
H247	H	-0.387450	0.400994	0.551341
H248	H	0.112550	0.900994	1.051341
H249	H	-0.821171	0.681369	0.597084
H250	H	-0.321171	1.181369	1.097084
H251	H	-0.711229	0.858800	0.272649
H252	H	-0.211229	1.358800	0.772649
H253	H	-0.194187	0.698031	1.091399
H254	H	0.305813	1.198031	1.591399
H255	H	-0.461988	0.827169	0.330226
H256	H	0.038012	1.327169	0.830226
O257	O	-0.349710	0.853499	0.957551
O258	O	0.150290	1.353499	1.457551
C259	C	-0.321758	0.889107	1.012097
C260	C	0.178242	1.389107	1.512097
H261	H	-0.279637	0.891414	0.983719
H262	H	0.220363	1.391414	1.483719
H263	H	-0.340708	0.929367	1.013185
H264	H	0.159292	1.429367	1.513185
H265	H	-0.322328	0.875334	1.083492
H266	H	0.177672	1.375334	1.583492
H267	H	-0.166836	0.215353	0.272771
H268	H	0.333164	0.715353	0.772771
O269	O	-0.196672	0.069062	0.321259
O270	O	0.303328	0.569062	0.821259
C271	C	-0.165425	0.031547	0.270455
C272	C	0.334575	0.531547	0.770455
H273	H	-0.186739	-0.007493	0.267289
H274	H	0.313261	0.492507	0.767289
H275	H	-0.157422	0.044918	0.199384
H276	H	0.342578	0.544918	0.699384
H277	H	-0.126847	0.026879	0.303609
H278	H	0.373153	0.526879	0.803609
H279	H	-0.202219	0.468449	0.330299
H280	H	0.297781	0.968449	0.830299
H281	H	-1.063404	0.827395	0.330350
H282	H	-0.563404	1.327395	0.830350
O283	O	-0.321066	0.824699	1.098923
O284	O	0.178934	1.324699	1.598923
C285	C	-0.356649	0.796731	1.153377
C286	C	0.143351	1.296731	1.653377
H287	H	-0.338670	0.757596	1.167478
H288	H	0.161330	1.257596	1.667478
H289	H	-0.365862	0.820244	1.219639
H290	H	0.134138	1.320244	1.719639
H291	H	-0.394187	0.789739	1.117051
H292	H	0.105813	1.289739	1.617051
H293	H	-0.338602	0.842215	0.779180
H294	H	0.161398	1.342215	1.279180
O295	O	-0.211826	0.715446	0.771636
O296	O	0.288174	1.215446	1.271636
C297	C	-0.239784	0.679822	0.717131
C298	C	0.260216	1.179822	1.217131
H299	H	-0.278941	0.697762	0.703027
H300	H	0.221059	1.197762	1.203027
H301	H	-0.216291	0.670611	0.650874
H302	H	0.283709	1.170611	1.150874
H303	H	-0.246726	0.642286	0.753416
H304	H	0.253274	1.142286	1.253416
O305	O	-0.564967	0.832248	0.321239
O306	O	-0.064967	1.332248	0.821239
C307	C	-0.552229	0.885006	0.341067
C308	C	-0.052229	1.385006	0.841067
H309	H	-0.513733	0.887214	0.375755
H310	H	-0.013733	1.387214	0.875755
H311	H	-0.548174	0.906296	0.276001
H312	H	-0.048174	1.406296	0.776001
H313	H	-0.584479	0.904171	0.387475
H314	H	-0.084479	1.404171	0.887475
O315	O	-0.161315	0.318359	0.263571
O316	O	0.338685	0.818359	0.763571
C317	C	-0.169667	0.301951	0.173633
C318	C	0.330333	0.801951	0.673633
H319	H	-0.211279	0.286765	0.168964
H320	H	0.288721	0.786765	0.668964
H321	H	-0.163636	0.336350	0.129054
H322	H	0.336364	0.836350	0.629054
H323	H	-0.140839	0.269472	0.150155
H324	H	0.359161	0.769472	0.650155
O325	O	-0.336203	0.579075	0.548422
O326	O	0.163797	1.079075	1.048422
C327	C	-0.327859	0.568761	0.638370
C328	C	0.172141	1.068761	1.138370
H329	H	-0.286250	0.553933	0.643056
H330	H	0.213750	1.053933	1.143056
H331	H	-0.333885	0.606170	0.682926
H332	H	0.166115	1.106170	1.182926
H333	H	-0.356693	0.537842	0.661864
H334	H	0.143307	1.037842	1.161864
O335	O	-0.371717	0.222289	0.606033
O336	O	0.128283	0.722289	1.106033
C337	C	-0.402950	0.259801	0.656873
C338	C	0.097050	0.759801	1.156873
H339	H	-0.403496	0.297472	0.619902
H340	H	0.096504	0.797472	1.119902
H341	H	-0.444470	0.244326	0.666384
H342	H	0.055530	0.744326	1.166384
H343	H	-0.386140	0.267937	0.725442
H344	H	0.113860	0.767937	1.225442
H345	H	-0.330735	0.072166	0.539371
H346	H	0.169265	0.572166	1.039371
O347	O	-0.959821	0.832362	0.321240
O348	O	-0.459821	1.332362	0.821240
C349	C	-0.993923	0.860189	0.270364
C350	C	-0.493923	1.360189	0.770364
H351	H	-1.034066	0.863232	0.307329
H352	H	-0.534066	1.363232	0.807329
H353	H	-0.977797	0.901064	0.260809
H354	H	-0.477797	1.401064	0.760809
H355	H	-0.997481	0.838774	0.201815
H356	H	-0.497481	1.338774	0.701815
H357	H	-1.070419	0.712976	0.539469
H358	H	-0.570419	1.212976	1.039469
H359	H	-0.971369	0.712947	0.539464
H360	H	-0.471369	1.212947	1.039464
H361	H	-0.568080	0.712800	0.539390
H362	H	-0.068080	1.212800	1.039390
O363	O	-0.718214	0.676340	0.606156
O364	O	-0.218214	1.176340	1.106156
C365	C	-0.755734	0.648539	0.657049
C366	C	-0.255734	1.148539	1.157049
H367	H	-0.793436	0.645518	0.620098
H368	H	-0.293436	1.145518	1.120098
H369	H	-0.740314	0.607655	0.666605
H370	H	-0.240314	1.107655	1.166605
H371	H	-0.763791	0.669961	0.725597
H372	H	-0.263791	1.169961	1.225597
H373	H	-0.469013	0.712760	0.539357
H374	H	0.030987	1.212760	1.039357
