data_functionalizedCrystal
_audit_creation_method	'MofGen! by Chris Wilmer'
_symmetry_space_group_name_H-M	'P1'
_symmetry_Int_Tables_number	1
_symmetry_cell_setting	triclinic
loop_
_symmetry_equiv_pos_as_xyz
  x,y,z
_cell_length_a	11.792241
_cell_length_b	17.699083
_cell_length_c	16.776229
_cell_angle_alpha	90.007545
_cell_angle_beta	90.002923
_cell_angle_gamma	83.738215
loop_
_atom_site_label
_atom_site_type_symbol
_atom_site_fract_x
_atom_site_fract_y
_atom_site_fract_z
O1	O	-1.505669	-0.103738	-0.066213
O2	O	-1.175200	-0.114429	-0.066231
O3	O	-1.349771	0.001056	-0.066214
O4	O	-1.331098	-0.219223	-0.066229
O5	O	-1.349748	0.001063	0.066362
O6	O	-1.175177	-0.114422	0.066345
O7	O	-1.505646	-0.103731	0.066364
Zn8	Zn	-1.340408	-0.109075	0.087404
Zn9	Zn	-1.340438	-0.109085	-0.087271
O10	O	-1.331075	-0.219216	0.066347
C11	C	-1.349091	0.029260	0.000074
C12	C	-1.347083	0.113289	0.000074
C13	C	-1.132906	-0.113754	0.000055
C14	C	-1.006916	-0.111744	0.000048
C15	C	-1.547941	-0.104406	0.000076
C16	C	-1.673930	-0.106416	0.000078
C17	C	-0.776248	-0.108048	0.000071
C18	C	-0.904609	-0.110101	0.000058
C19	C	-1.331756	-0.247420	0.000057
C20	C	-1.333763	-0.331449	0.000051
N21	N	-1.340396	-0.109068	0.206615
C22	C	-1.449553	0.161364	0.000081
C23	C	-1.447660	0.240317	0.000074
C24	C	-1.343297	0.271194	0.000066
C25	C	-1.240819	0.223113	0.000056
C26	C	-1.242713	0.144161	0.000058
C27	C	-1.233178	0.541517	0.000049
C28	C	-1.231292	0.620475	0.000050
C29	C	-1.438126	0.637673	0.000066
C30	C	-1.440020	0.558721	0.000067
C31	C	-1.337543	0.510647	0.000054
C32	C	-1.339596	0.425037	0.000060
C33	C	-1.341242	0.356803	0.000065
N34	N	-1.340460	-0.109086	-0.206483
C35	C	-1.417719	-0.057953	0.248340
C36	C	-1.417725	-0.057952	0.331792
C37	C	-1.340413	-0.109071	0.373518
C38	C	-1.263081	-0.160189	0.331788
C39	C	-1.263070	-0.160185	0.248337
C40	C	-1.263122	-0.160204	0.668335
C41	C	-1.263141	-0.160205	0.751791
C42	C	-1.417777	-0.057971	0.751790
C43	C	-1.417766	-0.057967	0.668339
C44	C	-1.340431	-0.109082	0.626616
C45	C	-1.340424	-0.109081	0.536128
C46	C	-1.340425	-0.109076	0.464005
H47	H	-1.534538	0.136230	0.000093
C48	C	-1.178025	-0.216414	0.377689
N49	N	-1.113959	-0.258763	0.412262
H50	H	-1.155844	0.248259	0.000044
H51	H	-1.159272	0.105019	0.000052
H52	H	-1.200155	-0.201825	0.634370
C53	C	-1.502839	-0.001736	0.797693
N54	N	-1.566906	0.040618	0.832265
H55	H	-1.200179	-0.201834	0.785763
C56	C	-1.502770	-0.001716	0.202449
N57	N	-1.566830	0.040645	0.167886
H58	H	-1.521567	0.676825	0.000073
H59	H	-1.525003	0.533586	0.000078
H60	H	-1.146302	0.645611	0.000045
H61	H	-1.200104	-0.201808	0.214366
C62	C	-1.502814	-0.001731	0.622445
N63	N	-1.566869	0.040631	0.587879
H64	H	-1.531101	0.279457	0.000081
C65	C	-1.120450	0.488645	0.000030
N66	N	-1.035538	0.448820	0.000013
C67	C	-1.502761	-0.001703	0.377685
N68	N	-1.566802	0.040674	0.412252
