data_functionalizedCrystal
_audit_creation_method	'MofGen! by Chris Wilmer'
_symmetry_space_group_name_H-M	'P1'
_symmetry_Int_Tables_number	1
_symmetry_cell_setting	triclinic
loop_
_symmetry_equiv_pos_as_xyz
  x,y,z
_cell_length_a	14.044209
_cell_length_b	14.044220
_cell_length_c	12.503572
_cell_angle_alpha	93.843168
_cell_angle_beta	86.165405
_cell_angle_gamma	93.188415
loop_
_atom_site_label
_atom_site_type_symbol
_atom_site_fract_x
_atom_site_fract_y
_atom_site_fract_z
O1	O	-1.282200	-0.225107	0.089194
O2	O	-1.005530	-0.216802	0.089225
O3	O	-1.139711	-0.082619	0.089199
O4	O	-1.148018	-0.359289	0.089220
O5	O	-1.129622	-0.092729	-0.089441
O6	O	-0.995440	-0.226911	-0.089415
O7	O	-1.272110	-0.235216	-0.089446
Cu8	Cu	-1.132854	-0.231987	-0.105742
Cu9	Cu	-1.144786	-0.220031	0.105521
O10	O	-1.137928	-0.369399	-0.089420
C11	C	-0.964863	-0.218221	-0.000092
C12	C	-0.858721	-0.207376	-0.000080
N13	N	-1.124468	-0.240396	-0.254333
C14	C	-1.131031	-0.052052	-0.000121
C15	C	-1.120186	0.054091	-0.000121
C16	C	-0.664382	-0.187553	-0.000101
C17	C	-0.613252	-0.264468	-0.000099
C18	C	-0.505116	-0.253437	-0.000110
C19	C	-0.772529	-0.198581	-0.000089
C20	C	-0.312777	-0.233799	-0.000124
C21	C	-0.418919	-0.244648	-0.000119
C22	C	-1.146609	-0.399966	-0.000098
C23	C	-1.157454	-0.506108	-0.000091
C24	C	-1.100361	0.248429	-0.000103
C25	C	-1.177275	0.299559	-0.000108
C26	C	-1.166244	0.407696	-0.000099
C27	C	-1.111391	0.140283	-0.000113
C28	C	-1.112133	-0.252774	-0.473445
C29	C	-1.165511	-0.199240	-0.526783
C30	C	-1.158647	-0.206127	-0.648705
C31	C	-1.118995	-0.245888	-0.351512
N32	N	-1.153179	-0.211615	0.254111
H33	H	-0.626945	-0.113426	-0.000111
H34	H	-1.251412	0.262124	-0.000045
H35	H	-1.061285	-0.303776	-0.519343
N36	N	-1.002167	0.298011	-0.000091
H37	H	-1.008108	0.369351	-0.000089
H38	H	-0.962620	0.275139	-0.066317
H39	H	-0.650692	-0.338600	-0.000089
H40	H	-1.216363	-0.148236	-0.480879
