data_functionalizedCrystal
_audit_creation_method	'MofGen! by Chris Wilmer'
_symmetry_space_group_name_H-M	'P1'
_symmetry_Int_Tables_number	1
_symmetry_cell_setting	triclinic
loop_
_symmetry_equiv_pos_as_xyz
  x,y,z
_cell_length_a	12.759401
_cell_length_b	12.759399
_cell_length_c	12.759393
_cell_angle_alpha	90.026805
_cell_angle_beta	89.980324
_cell_angle_gamma	89.985324
loop_
_atom_site_label
_atom_site_type_symbol
_atom_site_fract_x
_atom_site_fract_y
_atom_site_fract_z
Zn1	Zn	1.606270	0.418204	-0.594012
Zn2	Zn	1.606162	0.593919	-0.418343
Zn3	Zn	1.430568	0.418256	-0.418351
Zn4	Zn	1.430562	0.593842	-0.593984
O5	O	1.518390	0.506055	-0.506172
O6	O	1.753276	0.441523	-0.570717
O7	O	1.582827	0.570671	-0.271323
O8	O	1.453923	0.271228	-0.441667
O9	O	1.753197	0.570620	-0.441654
O10	O	1.583010	0.271189	-0.570725
O11	O	1.453819	0.441612	-0.271329
O12	O	1.283546	0.441538	-0.441641
O13	O	1.453912	0.570489	-0.741009
O14	O	1.283542	0.570540	-0.570678
O15	O	1.583004	0.441448	-0.741029
O16	O	1.582821	0.740930	-0.441628
O17	O	1.453808	0.740874	-0.570670
C18	C	1.245423	0.506037	-0.506158
C19	C	1.128646	0.506055	-0.506176
C20	C	1.073826	0.438955	-0.573483
C21	C	0.964102	0.438966	-0.573490
C22	C	0.964028	0.573185	-0.438880
C23	C	1.073750	0.573168	-0.438869
C24	C	1.518330	0.779023	-0.506168
C25	C	1.518401	0.895799	-0.506201
C26	C	1.585655	0.950656	-0.439089
C27	C	1.585724	1.060380	-0.439132
C28	C	1.451275	1.060381	-0.573403
C29	C	1.451212	0.950659	-0.573364
C30	C	1.792424	0.506074	-0.506188
C31	C	1.909200	0.506082	-0.506195
C32	C	1.518483	1.232022	-0.506218
C33	C	1.518533	1.115245	-0.506283
C34	C	1.518469	0.505954	-0.780206
C35	C	1.518503	0.505911	-0.896983
C36	C	1.585726	0.438709	-0.951857
C37	C	1.585743	0.438664	-1.061581
C38	C	1.451312	0.573032	-1.061547
C39	C	1.451290	0.573072	-0.951825
C40	C	1.518373	0.506080	-0.233205
C41	C	1.518543	0.505827	-0.116429
H42	H	1.118520	0.384304	-0.628285
H43	H	1.640365	0.905991	-0.384403
C44	C	1.659705	1.120717	-0.365299
N45	N	1.715430	1.166162	-0.309683
H46	H	1.396571	1.105062	-0.628083
H47	H	1.396445	0.905992	-0.628020
C48	C	1.659652	0.364822	-0.891534
N49	N	1.715333	0.309164	-0.846102
C50	C	1.659697	0.364738	-1.121938
N51	N	1.715402	0.309054	-1.167397
C52	C	1.377380	0.646902	-1.121884
N53	N	1.321692	0.702543	-1.167328
H54	H	1.396541	0.627795	-0.907145
C55	C	0.903632	0.647012	-0.364853
N56	N	0.858143	0.702623	-0.309097
H57	H	1.118386	0.627810	-0.384054
C58	C	0.903805	0.365154	-0.647536
N59	N	0.858390	0.309556	-0.703311
