data_functionalizedCrystal
_audit_creation_method	'MofGen! by Chris Wilmer'
_symmetry_space_group_name_H-M	'P1'
_symmetry_Int_Tables_number	1
_symmetry_cell_setting	triclinic
loop_
_symmetry_equiv_pos_as_xyz
  x,y,z
_cell_length_a	15.625950
_cell_length_b	23.532407
_cell_length_c	14.750779
_cell_angle_alpha	102.566003
_cell_angle_beta	59.909492
_cell_angle_gamma	83.582877
loop_
_atom_site_label
_atom_site_type_symbol
_atom_site_fract_x
_atom_site_fract_y
_atom_site_fract_z
O1	O	1.286039	0.017563	-0.367685
O2	O	1.786039	0.517563	0.132315
O3	O	0.998882	0.041858	-0.267755
O4	O	1.498882	0.541858	0.232245
O5	O	1.151124	-0.053655	-0.320753
O6	O	1.651124	0.446345	0.179247
O7	O	1.133796	0.113076	-0.314688
O8	O	1.633796	0.613076	0.185312
O9	O	1.194161	-0.080653	-0.495385
O10	O	1.694161	0.419347	0.004615
O11	O	1.041919	0.014860	-0.442387
O12	O	1.541919	0.514860	0.057613
O13	O	1.329076	-0.009434	-0.542317
O14	O	1.829076	0.490566	-0.042317
Zn15	Zn	1.192330	-0.001574	-0.520079
Zn16	Zn	1.692330	0.498426	-0.020079
Zn17	Zn	1.135627	0.033997	-0.289994
Zn18	Zn	1.635627	0.533997	0.210006
O19	O	1.176833	0.086079	-0.489320
O20	O	1.676833	0.586079	0.010680
C21	C	0.983669	0.029932	-0.342289
C22	C	1.483669	0.529932	0.157711
C23	C	0.874223	0.034613	-0.304203
C24	C	1.374223	0.534613	0.195797
C25	C	0.631439	-0.023523	-0.654773
C26	C	1.131439	0.476477	-0.154773
C27	C	0.528582	-0.019106	-0.618936
C28	C	1.028582	0.480894	-0.118936
C29	C	0.481716	0.010323	-0.428577
C30	C	0.981716	0.510323	0.071423
C31	C	0.584570	0.005911	-0.464398
C32	C	1.084570	0.505911	0.035602
C33	C	0.659424	-0.011013	-0.577497
C34	C	1.159424	0.488987	-0.077497
C35	C	0.612555	0.018422	-0.387122
C36	C	1.112555	0.518422	0.112878
C37	C	0.715400	0.014007	-0.422941
C38	C	1.215400	0.514007	0.077059
C39	C	0.790261	-0.002918	-0.536035
C40	C	1.290261	0.497082	-0.036035
C41	C	0.762269	-0.015428	-0.613316
C42	C	1.262269	0.484572	-0.113316
C43	C	0.537700	0.035342	-0.274023
C44	C	1.037700	0.535342	0.225977
C45	C	0.565685	0.047852	-0.196747
C46	C	1.065685	0.547852	0.303253
C47	C	0.668532	0.043442	-0.232565
C48	C	1.168532	0.543442	0.267435
C49	C	0.743392	0.026517	-0.345660
C50	C	1.243392	0.526517	0.154340
C51	C	0.696523	0.055952	-0.155285
C52	C	1.196523	0.555952	0.344715
C53	C	0.799368	0.051537	-0.191104
C54	C	1.299368	0.551537	0.308896
C55	C	0.846237	0.022102	-0.381479
C56	C	1.346237	0.522102	0.118521
C57	C	1.172202	-0.088348	-0.407918
C58	C	1.672202	0.411652	0.092082
C59	C	1.170878	-0.151501	-0.407465
C60	C	1.670878	0.348499	0.092535
C61	C	1.252639	-0.554665	-0.435864
C62	C	1.752639	-0.054665	0.064136
C63	C	1.251405	-0.614002	-0.435428
C64	C	1.751405	-0.114002	0.064572
O65	O	1.327201	-0.654513	-0.461769
O66	O	1.827201	-0.154513	0.038231
N67	N	1.160900	-0.632124	-0.403933
N68	N	1.660900	-0.132124	0.096067
C69	C	1.071620	-0.590903	-0.372862
C70	C	1.571620	-0.090903	0.127138
O71	O	0.994525	-0.611766	-0.346032
O72	O	1.494525	-0.111766	0.153968
C73	C	1.072853	-0.531566	-0.373292
C74	C	1.572853	-0.031566	0.126708
C75	C	1.163367	-0.513449	-0.404799
C76	C	1.663367	-0.013449	0.095201
C77	C	1.343145	-0.536547	-0.467368
C78	C	1.843145	-0.036547	0.032632
C79	C	1.344378	-0.477213	-0.467806
C80	C	1.844378	0.022787	0.032194
C81	C	1.255106	-0.435998	-0.436741
C82	C	1.755106	0.064002	0.063259
C83	C	1.164600	-0.454116	-0.405237
C84	C	1.664600	0.045884	0.094763
C85	C	0.983572	-0.490345	-0.342214
C86	C	1.483572	0.009655	0.157786
C87	C	0.984813	-0.431004	-0.342645
C88	C	1.484813	0.068996	0.157355
C89	C	1.075326	-0.412887	-0.374152
C90	C	1.575326	0.087113	0.125848
C91	C	1.076562	-0.353567	-0.374611
C92	C	1.576562	0.146433	0.125389
N93	N	1.167067	-0.335445	-0.406105
N94	N	1.667067	0.164555	0.093895
C95	C	1.256339	-0.376660	-0.437171
C96	C	1.756339	0.123340	0.062829
C97	C	1.069037	-0.715517	-0.371961
C98	C	1.569037	-0.215517	0.128039
C99	C	1.067805	-0.774855	-0.371538
C100	C	1.567805	-0.274855	0.128462
C101	C	1.247590	-0.797949	-0.434102
C102	C	1.747590	-0.297949	0.065898
C103	C	1.248823	-0.738611	-0.434532
C104	C	1.748823	-0.238611	0.065468
C105	C	1.159542	-0.697395	-0.403456
C106	C	1.659542	-0.197395	0.096544
C107	C	1.258923	-0.252055	-0.438090
C108	C	1.758923	0.247945	0.061910
C109	C	1.260150	-0.192716	-0.438530
C110	C	1.760150	0.307284	0.061470
C111	C	1.080365	-0.169626	-0.375961
C112	C	1.580365	0.330374	0.124039
C113	C	1.079139	-0.228961	-0.375526
C114	C	1.579139	0.271039	0.124474
C115	C	1.168425	-0.270174	-0.406590
C116	C	1.668425	0.229826	0.093410
O117	O	1.000804	-0.313022	-0.348279
O118	O	1.500804	0.186978	0.151721
O119	O	1.333418	-0.355786	-0.463982
O120	O	1.833418	0.144214	0.036018
C121	C	1.344287	0.002492	-0.467781
C122	C	1.844287	0.502492	0.032219
C123	C	1.453732	-0.002188	-0.505860
C124	C	1.953732	0.497812	-0.005860
C125	C	1.155754	0.120772	-0.402152
C126	C	1.655754	0.620772	0.097848
C127	C	1.157077	0.183926	-0.402598
C128	C	1.657077	0.683926	0.097402
N129	N	1.231036	-0.025850	-0.677108
N130	N	1.731036	0.474150	-0.177108
C131	C	0.988830	0.126045	-0.944612
C132	C	1.488830	0.626045	-0.444612
C133	C	1.015960	0.109036	-1.054555
C134	C	1.515960	0.609036	-0.554555
C135	C	1.150798	0.024487	-1.101457
C136	C	1.650798	0.524487	-0.601457
C137	C	1.123676	0.041486	-0.991514
C138	C	1.623676	0.541486	-0.491514
C139	C	1.042692	0.092266	-0.913100
C140	C	1.542692	0.592266	-0.413100
C141	C	1.177538	0.007708	-0.960002
C142	C	1.677538	0.507708	-0.460002
C143	C	1.150422	0.024708	-0.850070
C144	C	1.650422	0.524708	-0.350070
C145	C	1.069444	0.075486	-0.771650
C146	C	1.569444	0.575486	-0.271650
C147	C	1.015576	0.109266	-0.803168
C148	C	1.515576	0.609266	-0.303168
C149	C	1.258527	-0.043069	-1.038420
C150	C	1.758527	0.456931	-0.538420
C151	C	1.312389	-0.076848	-1.006907
C152	C	1.812389	0.423152	-0.506907
C153	C	1.285268	-0.059850	-0.896972
C154	C	1.785268	0.440150	-0.396972
C155	C	1.204290	-0.009072	-0.818552
C156	C	1.704290	0.490928	-0.318552
C157	C	1.339136	-0.093630	-0.865455
C158	C	1.839136	0.406370	-0.365455
C159	C	1.312019	-0.076630	-0.755523
C160	C	1.812019	0.423370	-0.255523
C161	C	1.177173	0.007928	-0.708621
C162	C	1.677173	0.507928	-0.208621
N163	N	1.096929	0.058269	-0.132967
N164	N	1.596929	0.558269	0.367033
H165	H	0.692388	-0.037296	-0.746869
H166	H	1.192388	0.462704	-0.246869
C167	C	0.956697	0.146199	-1.089210
C168	C	1.456697	0.646199	-0.589210
N169	N	0.912062	0.174189	-1.115313
N170	N	1.412062	0.674189	-0.615313
H171	H	1.378329	-0.118192	-1.070765
H172	H	1.878329	0.381808	-0.570765
C173	C	1.441363	-0.581878	-0.501557
C174	C	1.941363	-0.081878	-0.001557
N175	N	1.515351	-0.616021	-0.527322
N176	N	2.015351	-0.116021	-0.027322
H177	H	0.949624	0.150612	-0.739316
H178	H	1.449624	0.650612	-0.239316
H179	H	1.111221	0.049275	-0.644768
H180	H	1.611221	0.549275	-0.144768
H181	H	1.322527	-0.723866	-0.460187
H182	H	1.822527	-0.223866	0.039813
H183	H	0.635564	0.069725	-0.063200
H184	H	1.135564	0.569725	0.436800
H185	H	0.996332	-0.681961	-0.346662
H186	H	1.496332	-0.181961	0.153338
H187	H	0.909865	-0.505083	-0.316551
H188	H	1.409865	-0.005083	0.183449
H189	H	1.005442	-0.243716	-0.349899
H190	H	1.505442	0.256284	0.150101
H191	H	1.047370	0.089329	-0.682139
H192	H	1.547370	0.589329	-0.182139
H193	H	1.007683	-0.136059	-0.350672
H194	H	1.507683	0.363941	0.149328
H195	H	0.912108	-0.397447	-0.317337
H196	H	1.412108	0.102553	0.182663
C197	C	0.399366	0.028940	-0.304170
C198	C	0.899366	0.528940	0.195830
N199	N	0.337340	0.042964	-0.210465
N200	N	0.837340	0.542964	0.289535
C201	C	0.497806	-0.032871	-0.703955
C202	C	0.997806	0.467129	-0.203955
N203	N	0.474625	-0.043241	-0.767991
N204	N	0.974625	0.456759	-0.267991
C205	C	0.899704	0.181884	-0.858335
C206	C	1.399704	0.681884	-0.358335
N207	N	0.832565	0.223935	-0.793348
N208	N	1.332565	0.723935	-0.293348
H209	H	1.216738	-0.016857	-1.165314
H210	H	1.716738	0.483143	-0.665314
C211	C	1.345789	-0.843296	-0.468264
C212	C	1.845789	-0.343296	0.031736
N213	N	1.419747	-0.877452	-0.493991
N214	N	1.919747	-0.377452	0.006009
C215	C	0.903394	-0.007773	-0.575437
C216	C	1.403394	0.492227	-0.075437
N217	N	0.988606	-0.011428	-0.605114
N218	N	1.488606	0.488572	-0.105114
H219	H	1.280605	-0.056907	-1.127933
H220	H	1.780605	0.443093	-0.627933
H221	H	0.994105	-0.789602	-0.345900
H222	H	1.494105	-0.289602	0.154100
H223	H	1.405080	-0.134972	-0.929315
H224	H	1.905080	0.365028	-0.429315
H225	H	0.907187	0.008330	-0.473575
H226	H	1.407187	0.508330	0.026425
C227	C	0.844615	-0.034042	-0.737731
C228	C	1.344615	0.465958	-0.237731
N229	N	0.906637	-0.048063	-0.831437
N230	N	1.406637	0.451937	-0.331437
C231	C	0.483336	0.066469	-0.072341
C232	C	0.983336	0.566469	0.427659
N233	N	0.421310	0.080493	0.021364
N234	N	0.921310	0.580493	0.521364
H235	H	0.822152	0.061727	-0.128177
H236	H	1.322152	0.561727	0.371823
H237	H	0.453957	0.038939	-0.244863
H238	H	0.953957	0.538939	0.255137
C239	C	1.359726	-0.172792	-0.473189
C240	C	1.859726	0.327208	0.026811
N241	N	1.434723	-0.157787	-0.499291
N242	N	1.934723	0.342213	0.000709
C243	C	1.371268	-0.113789	-0.720856
C244	C	1.871268	0.386211	-0.220856
N245	N	1.415898	-0.141778	-0.694746
N246	N	1.915898	0.358222	-0.194746
H247	H	1.331628	-0.285605	-0.463381
H248	H	1.831628	0.214395	0.036619
H249	H	1.418083	-0.462469	-0.493459
H250	H	1.918083	0.037531	0.006541
