data_functionalizedCrystal
_audit_creation_method	'MofGen! by Chris Wilmer'
_symmetry_space_group_name_H-M	'P1'
_symmetry_Int_Tables_number	1
_symmetry_cell_setting	triclinic
loop_
_symmetry_equiv_pos_as_xyz
  x,y,z
_cell_length_a	14.044220
_cell_length_b	14.044220
_cell_length_c	13.101039
_cell_angle_alpha	86.340132
_cell_angle_beta	93.667477
_cell_angle_gamma	93.188878
loop_
_atom_site_label
_atom_site_type_symbol
_atom_site_fract_x
_atom_site_fract_y
_atom_site_fract_z
O1	O	0.225348	1.281968	-0.085109
O2	O	0.475348	1.531968	0.164891
O3	O	0.725348	1.781968	0.414891
O4	O	0.975348	2.031968	0.664891
O5	O	0.217041	1.005298	-0.085135
O6	O	0.467041	1.255298	0.164865
O7	O	0.717041	1.505298	0.414865
O8	O	0.967041	1.755298	0.664865
O9	O	0.082860	1.139480	-0.085112
O10	O	0.332860	1.389480	0.164888
O11	O	0.582860	1.639480	0.414888
O12	O	0.832860	1.889480	0.664888
O13	O	0.359530	1.147787	-0.085132
O14	O	0.609530	1.397787	0.164868
O15	O	0.859530	1.647787	0.414868
O16	O	1.109530	1.897787	0.664868
O17	O	0.092504	1.129854	0.085316
O18	O	0.342504	1.379854	0.335316
O19	O	0.592504	1.629854	0.585316
O20	O	0.842504	1.879854	0.835316
O21	O	0.226686	0.995673	0.085293
O22	O	0.476686	1.245673	0.335293
O23	O	0.726686	1.495673	0.585293
O24	O	0.976686	1.745673	0.835293
O25	O	0.234993	1.272343	0.085319
O26	O	0.484993	1.522343	0.335319
O27	O	0.734993	1.772343	0.585319
O28	O	0.984993	2.022343	0.835319
Zn29	Zn	0.232371	1.132479	0.112365
Zn30	Zn	0.482371	1.382479	0.362365
Zn31	Zn	0.732371	1.632479	0.612365
Zn32	Zn	0.982371	1.882479	0.862365
Zn33	Zn	0.219663	1.145162	-0.112181
Zn34	Zn	0.469663	1.395162	0.137819
Zn35	Zn	0.719663	1.645162	0.387819
Zn36	Zn	0.969663	1.895162	0.637819
O37	O	0.369175	1.138161	0.085296
O38	O	0.619175	1.388161	0.335296
O39	O	0.869175	1.638161	0.585296
O40	O	1.119175	1.888161	0.835296
C41	C	0.218228	0.964864	0.000076
C42	C	0.468228	1.214864	0.250076
C43	C	0.718228	1.464864	0.500076
C44	C	0.968228	1.714864	0.750076
C45	C	0.207383	0.858722	0.000066
C46	C	0.457383	1.108722	0.250066
C47	C	0.707383	1.358722	0.500066
C48	C	0.957383	1.608722	0.750066
C49	C	0.052060	1.131031	0.000102
C50	C	0.302060	1.381031	0.250102
C51	C	0.552060	1.631031	0.500102
C52	C	0.802060	1.881031	0.750102
C53	C	-0.054083	1.120187	0.000102
C54	C	0.195917	1.370187	0.250102
C55	C	0.445917	1.620187	0.500102
C56	C	0.695917	1.870187	0.750102
C57	C	0.187558	0.664383	0.000088
C58	C	0.437558	0.914383	0.250088
C59	C	0.687558	1.164383	0.500088
C60	C	0.937558	1.414383	0.750088
C61	C	0.264472	0.613253	0.000087
C62	C	0.514472	0.863253	0.250087
C63	C	0.764472	1.113253	0.500087
C64	C	1.014472	1.363253	0.750087
C65	C	0.253441	0.505116	0.000099
C66	C	0.503441	0.755116	0.250099
C67	C	0.753441	1.005116	0.500099
C68	C	1.003441	1.255116	0.750099
C69	C	0.198587	0.772529	0.000076
C70	C	0.448587	1.022529	0.250076
C71	C	0.698587	1.272529	0.500076
C72	C	0.948587	1.522529	0.750076
C73	C	-0.248421	1.100362	0.000086
C74	C	0.001579	1.350362	0.250086
C75	C	0.251579	1.600362	0.500086
C76	C	0.501579	1.850362	0.750086
C77	C	-0.299551	1.177276	0.000090
C78	C	-0.049551	1.427276	0.250090
C79	C	0.200449	1.677276	0.500090
C80	C	0.450449	1.927276	0.750090
C81	C	-0.407688	1.166245	0.000080
C82	C	-0.157688	1.416245	0.250080
C83	C	0.092312	1.666245	0.500080
C84	C	0.342312	1.916245	0.750080
C85	C	-0.140275	1.111391	0.000095
C86	C	0.109725	1.361391	0.250095
C87	C	0.359725	1.611391	0.500095
C88	C	0.609725	1.861391	0.750095
C89	C	0.399974	1.146610	0.000080
C90	C	0.649974	1.396610	0.250080
C91	C	0.899974	1.646610	0.500080
C92	C	1.149974	1.896610	0.750080
C93	C	0.506116	1.157455	0.000073
C94	C	0.756116	1.407455	0.250073
C95	C	1.006116	1.657455	0.500073
C96	C	1.256116	1.907455	0.750073
C97	C	0.233806	1.312777	0.000106
C98	C	0.483806	1.562777	0.250106
C99	C	0.733806	1.812777	0.500106
C100	C	0.983806	2.062777	0.750106
C101	C	0.244651	1.418920	0.000109
C102	C	0.494651	1.668920	0.250109
C103	C	0.744651	1.918920	0.500109
C104	C	0.994651	2.168920	0.750109
N105	N	0.241043	1.123831	0.265612
N106	N	0.491043	1.373831	0.515612
N107	N	0.741043	1.623831	0.765612
N108	N	0.991043	1.873831	1.015612
N109	N	0.210984	1.153817	-0.265428
N110	N	0.460984	1.403817	-0.015428
N111	N	0.710984	1.653817	0.234572
N112	N	0.960984	1.903817	0.484572
C113	C	0.252851	1.112065	0.474653
C114	C	0.502851	1.362065	0.724653
C115	C	0.752851	1.612065	0.974653
C116	C	1.002851	1.862065	1.224653
C117	C	0.199179	1.165580	0.525538
C118	C	0.449179	1.415580	0.775538
C119	C	0.699179	1.665580	1.025538
C120	C	0.949179	1.915580	1.275538
C121	C	0.205749	1.159034	0.641855
C122	C	0.455749	1.409034	0.891855
C123	C	0.705749	1.659034	1.141855
C124	C	0.955749	1.909034	1.391855
C125	C	0.246282	1.118610	0.358325
C126	C	0.496282	1.368610	0.608325
C127	C	0.746282	1.618610	0.858325
C128	C	0.996282	1.868610	1.108325
H129	H	0.113431	0.626945	0.000099
H130	H	0.363431	0.876945	0.250099
H131	H	0.613431	1.126945	0.500099
H132	H	0.863431	1.376945	0.750099
O133	O	0.131775	1.232783	0.467534
O134	O	0.381775	1.482783	0.717534
O135	O	0.631775	1.732783	0.967534
O136	O	0.881775	1.982783	1.217534
H137	H	0.151287	1.307122	0.488057
H138	H	0.401287	1.557122	0.738057
H139	H	0.651287	1.807122	0.988057
H140	H	0.901287	2.057122	1.238057
O141	O	0.362675	0.662834	0.000077
O142	O	0.612675	0.912834	0.250077
O143	O	0.862675	1.162834	0.500077
O144	O	1.112675	1.412834	0.750077
H145	H	0.398067	0.645728	-0.069384
H146	H	0.648067	0.895728	0.180616
H147	H	0.898067	1.145728	0.430616
H148	H	1.148067	1.395728	0.680616
H149	H	-0.285859	1.026235	0.000076
H150	H	-0.035859	1.276235	0.250076
H151	H	0.214141	1.526235	0.500076
H152	H	0.464141	1.776235	0.750076
O153	O	-0.249969	1.275477	0.000117
O154	O	0.000031	1.525477	0.250117
O155	O	0.250031	1.775477	0.500117
O156	O	0.500031	2.025477	0.750117
H157	H	-0.171583	1.268846	0.000134
H158	H	0.078417	1.518846	0.250134
H159	H	0.328417	1.768846	0.500134
H160	H	0.578417	2.018846	0.750134
H161	H	0.303733	1.061336	0.518442
H162	H	0.553733	1.311336	0.768442
H163	H	0.803733	1.561336	1.018442
H164	H	1.053733	1.811336	1.268442
