data_functionalizedCrystal
_audit_creation_method	'MofGen! by Chris Wilmer'
_symmetry_space_group_name_H-M	'P1'
_symmetry_Int_Tables_number	1
_symmetry_cell_setting	triclinic
loop_
_symmetry_equiv_pos_as_xyz
  x,y,z
_cell_length_a	10.685924
_cell_length_b	12.759401
_cell_length_c	12.759393
_cell_angle_alpha	89.981504
_cell_angle_beta	94.400573
_cell_angle_gamma	94.367377
loop_
_atom_site_label
_atom_site_type_symbol
_atom_site_fract_x
_atom_site_fract_y
_atom_site_fract_z
Zn1	Zn	0.502284	1.638388	-0.561947
Zn2	Zn	0.713336	1.651784	-0.372806
Zn3	Zn	0.502351	1.462694	-0.386282
Zn4	Zn	0.713239	1.476174	-0.548454
O5	O	0.607803	1.557260	-0.467372
O6	O	0.530294	1.787187	-0.536864
O7	O	0.685417	1.626666	-0.227568
O8	O	0.325759	1.474753	-0.420871
O9	O	0.685352	1.797029	-0.397903
O10	O	0.325710	1.603834	-0.549931
O11	O	0.530407	1.487742	-0.237469
O12	O	0.530313	1.317460	-0.407787
O13	O	0.685187	1.497727	-0.697269
O14	O	0.685252	1.327364	-0.526934
O15	O	0.530200	1.616905	-0.707182
O16	O	0.889906	1.639736	-0.384819
O17	O	0.889835	1.510717	-0.513867
C18	C	0.607780	1.284291	-0.467359
C19	C	0.607801	1.167516	-0.467376
C20	C	0.278668	1.536295	-0.488409
C21	C	0.138411	1.527362	-0.497374
C22	C	0.688619	1.008116	-0.529309
C23	C	0.688605	1.117839	-0.529299
C24	C	0.527014	1.107464	-0.405452
C25	C	0.527036	0.997743	-0.405457
C26	C	0.935657	1.578171	-0.446440
C27	C	1.075914	1.587214	-0.437520
C28	C	0.607675	1.557325	-0.741414
C29	C	0.607621	1.557353	-0.858194
C30	C	0.607826	1.831295	-0.467386
C31	C	0.607836	1.948072	-0.467391
C32	C	0.526892	1.485039	-0.918212
C33	C	0.526854	1.485061	-1.027938
C34	C	0.688275	1.629720	-1.017620
C35	C	0.688319	1.629693	-0.907895
C36	C	0.607839	1.557250	-0.194402
C37	C	0.607538	1.557403	-0.077645
H38	H	0.754413	0.967677	-0.579739
O39	O	0.147157	1.664173	-0.360569
H40	H	0.249835	1.659370	-0.365379
O41	O	0.439860	1.161033	-0.338657
H42	H	0.375704	1.206932	-0.389860
O43	O	0.439765	1.407076	-1.092672
H44	H	0.496205	1.357218	-1.139045
H45	H	0.084611	1.469272	-0.555477
O46	O	0.439863	1.407016	-0.864600
H47	H	0.383728	1.356731	-0.924772
O48	O	0.775300	1.707752	-1.071224
H49	H	0.761699	1.695632	-1.157607
O50	O	0.775395	1.707690	-0.843148
H51	H	0.718938	1.757523	-0.796763
H52	H	0.461251	0.948853	-0.355032
H53	H	0.754388	1.166723	-0.579717
