data_functionalizedCrystal
_audit_creation_method	'MofGen! by Chris Wilmer'
_symmetry_space_group_name_H-M	'P1'
_symmetry_Int_Tables_number	1
_symmetry_cell_setting	triclinic
loop_
_symmetry_equiv_pos_as_xyz
  x,y,z
_cell_length_a	14.908571
_cell_length_b	18.050589
_cell_length_c	14.908854
_cell_angle_alpha	86.674519
_cell_angle_beta	89.795614
_cell_angle_gamma	86.724558
loop_
_atom_site_label
_atom_site_type_symbol
_atom_site_fract_x
_atom_site_fract_y
_atom_site_fract_z
Zn1	Zn	1.345260	-0.331729	-0.587611
Zn2	Zn	1.353813	-0.463481	-0.437254
Zn3	Zn	1.203569	-0.332572	-0.428605
Zn4	Zn	1.194848	-0.449140	-0.578908
O5	O	1.274372	-0.394231	-0.508095
O6	O	1.472220	-0.354856	-0.574928
O7	O	1.341112	-0.452470	-0.310279
O8	O	1.222436	-0.228538	-0.449720
O9	O	1.478504	-0.451653	-0.464461
O10	O	1.326535	-0.227919	-0.566541
O11	O	1.230729	-0.356292	-0.303925
O12	O	1.076587	-0.342386	-0.441282
O13	O	1.207571	-0.427211	-0.705890
O14	O	1.070179	-0.428028	-0.551709
O15	O	1.318078	-0.340950	-0.712284
O16	O	1.332655	-0.565501	-0.456022
O17	O	1.215864	-0.554965	-0.560095
C18	C	1.040758	-0.383743	-0.494613
C19	C	0.940816	-0.379273	-0.488866
C20	C	0.746398	-0.460207	-0.592902
C21	C	0.652493	-0.456010	-0.587506
C22	C	0.659099	-0.366676	-0.472683
C23	C	0.753004	-0.370874	-0.478079
C24	C	0.796650	-0.417642	-0.538190
C25	C	0.890557	-0.421843	-0.543581
C26	C	0.897161	-0.332506	-0.428764
C27	C	0.803256	-0.328309	-0.423368
C28	C	1.274265	-0.587179	-0.508073
C29	C	1.274299	-0.669725	-0.508099
C30	C	1.210849	-0.863477	-0.564676
C31	C	1.193663	-0.916061	-0.481365
C32	C	1.274387	-0.820858	-0.508116
C33	C	1.291616	-0.915358	-0.591439
C34	C	1.274469	-0.966846	-0.508139
C35	C	1.257161	-0.872356	-0.424759
C36	C	1.355148	-0.871647	-0.534890
C37	C	1.337998	-0.924213	-0.451524
C38	C	1.274337	-0.736758	-0.508104
C39	C	1.274520	-1.050945	-0.508143
C40	C	1.508899	-0.404760	-0.521630
C41	C	1.608840	-0.409247	-0.527398
C42	C	1.260897	-0.382387	-0.742625
C43	C	1.255155	-0.377339	-0.842568
C44	C	1.274504	-0.200529	-0.508137
C45	C	1.274560	-0.117985	-0.508155
C46	C	1.359327	-0.468004	-1.036991
C47	C	1.353935	-0.463264	-1.130896
C48	C	1.238983	-0.363117	-1.124286
C49	C	1.244375	-0.367857	-1.030381
C50	C	1.304548	-0.420303	-0.986736
C51	C	1.309936	-0.425046	-0.892829
C52	C	1.194989	-0.324895	-0.886221
C53	C	1.189596	-0.320155	-0.980126
C54	C	1.287847	-0.405977	-0.274480
C55	C	1.293764	-0.410823	-0.174547
H56	H	0.767706	-0.290230	-0.374430
C57	C	1.311195	-0.940649	-0.685364
C58	C	1.395111	-0.917125	-0.713724
C59	C	1.413175	-0.940415	-0.800238
H60	H	1.266053	-0.919725	-0.725559
H61	H	1.311683	-0.993336	-0.684611
H62	H	1.394616	-0.864449	-0.714484
H63	H	1.440271	-0.938047	-0.673553
H64	H	1.413663	-0.993102	-0.799485
H65	H	1.368028	-0.919490	-0.840426
H66	H	1.470116	-0.924464	-0.819488
H67	H	0.623545	-0.328595	-0.423751
C68	C	1.446094	-0.845348	-0.565040
C69	C	1.445075	-0.767804	-0.563807
C70	C	1.528841	-0.743550	-0.591573
H71	H	1.458311	-0.859877	-0.624281
H72	H	1.491393	-0.866961	-0.525456
H73	H	1.399789	-0.746198	-0.603390
H74	H	1.432873	-0.753255	-0.504574
H75	H	1.574141	-0.765164	-0.551988
H76	H	1.541051	-0.758084	-0.650813
H77	H	1.528164	-0.690935	-0.590732
C78	C	0.793738	-0.510882	-0.658304
C79	C	0.765830	-0.489300	-0.745995
C80	C	0.809428	-0.535958	-0.806269
H81	H	0.779121	-0.560767	-0.644279
H82	H	0.856866	-0.507275	-0.653743
H83	H	0.702715	-0.492914	-0.750553
H84	H	0.780447	-0.439422	-0.760049
H85	H	0.872556	-0.532351	-0.801707
H86	H	0.794808	-0.585841	-0.792235
H87	H	0.790505	-0.521317	-0.865774
H88	H	1.398543	-0.502106	-1.171810
H89	H	0.938086	-0.297848	-0.384211
C90	C	1.375352	-0.482010	-0.845608
C91	C	1.422187	-0.522756	-0.909725
C92	C	1.482466	-0.575232	-0.866262
H93	H	1.343140	-0.514746	-0.806988
H94	H	1.416697	-0.457227	-0.811263
H95	H	1.380847	-0.547539	-0.944054
H96	H	1.454416	-0.490041	-0.948348
H97	H	1.523811	-0.550449	-0.831917
H98	H	1.450247	-0.607963	-0.827643
H99	H	1.514256	-0.602880	-0.909758
C100	C	1.173697	-0.306242	-1.171846
C101	C	1.180696	-0.312310	-1.264840
C102	C	1.120566	-0.259931	-1.308681
H103	H	1.187717	-0.257678	-1.157327
H104	H	1.114130	-0.315171	-1.153033
H105	H	1.240249	-0.303376	-1.283646
H106	H	1.166668	-0.360863	-1.279386
H107	H	1.061000	-0.268860	-1.289867
H108	H	1.134592	-0.211370	-1.294154
H109	H	1.125301	-0.264046	-1.371781
H110	H	1.408327	-0.510704	-1.001455
H111	H	1.140607	-0.277454	-1.015675
H112	H	1.150383	-0.286054	-0.845294
H113	H	1.157046	-0.836995	-0.612432
C114	C	0.937892	-0.472514	-0.608991
C115	C	0.909981	-0.450920	-0.696677
C116	C	0.953572	-0.497573	-0.756962
H117	H	0.923273	-0.522399	-0.594973
H118	H	1.001021	-0.468910	-0.604431
H119	H	0.846866	-0.454530	-0.701234
H120	H	0.924601	-0.401042	-0.710723
H121	H	1.016701	-0.493970	-0.752402
H122	H	0.938950	-0.547456	-0.742935
H123	H	0.934647	-0.482924	-0.816464
H124	H	0.611581	-0.490669	-0.632060
H125	H	1.125404	-0.935671	-0.458739
C126	C	1.237631	-0.847005	-0.330852
C127	C	1.237755	-0.769397	-0.331948
C128	C	1.219752	-0.746015	-0.245464
H129	H	1.282497	-0.868253	-0.290554
H130	H	1.180454	-0.862531	-0.311746
H131	H	1.294923	-0.753878	-0.351043
H132	H	1.192889	-0.748130	-0.372228
H133	H	1.162575	-0.761541	-0.226358
H134	H	1.264620	-0.767268	-0.205173
H135	H	1.219825	-0.693356	-0.246198
C136	C	1.409585	-0.959315	-0.387537
C137	C	1.391164	-0.937486	-0.300464
C138	C	1.457080	-0.969817	-0.241492
H139	H	1.466822	-0.943464	-0.405923
H140	H	1.409545	-1.011912	-0.388202
H141	H	1.391214	-0.884901	-0.299802
H142	H	1.333939	-0.953337	-0.282050
H143	H	1.457039	-1.022413	-0.242157
H144	H	1.514312	-0.953963	-0.259886
H145	H	1.444586	-0.955016	-0.182405
