data_functionalizedCrystal
_audit_creation_method	'MofGen! by Chris Wilmer'
_symmetry_space_group_name_H-M	'P1'
_symmetry_Int_Tables_number	1
_symmetry_cell_setting	triclinic
loop_
_symmetry_equiv_pos_as_xyz
  x,y,z
_cell_length_a	6.817900
_cell_length_b	9.582889
_cell_length_c	16.255661
_cell_angle_alpha	93.082830
_cell_angle_beta	103.488922
_cell_angle_gamma	111.207298
loop_
_atom_site_label
_atom_site_type_symbol
_atom_site_fract_x
_atom_site_fract_y
_atom_site_fract_z
V1	V	-4.066853	-0.208264	-0.263715
O2	O	-4.012501	0.008764	-0.258855
O3	O	-4.057627	-0.411756	-0.261758
O4	O	-4.017903	-0.205606	-0.378800
O5	O	-4.052500	-0.198813	-0.141002
V6	V	-4.545477	-0.182240	-0.249056
O7	O	-4.338860	-0.265349	-0.295871
O8	O	-4.723668	-0.125156	-0.216901
O9	O	-4.331497	0.021252	-0.251013
O10	O	-4.717226	-0.399268	-0.253917
O11	O	-4.677227	-0.191691	-0.371769
O12	O	-4.371220	-0.184898	-0.133971
C13	C	-3.912175	-0.461346	-0.257558
C14	C	-3.985914	-0.627707	-0.256725
C15	C	-3.861502	-0.198380	-0.406856
C16	C	-3.903023	-0.197553	-0.500938
C17	C	-3.811676	-0.187680	-0.723764
C18	C	-3.992652	-0.315101	-0.793145
C19	C	-3.979109	-0.196004	-0.673188
C20	C	-3.872143	-0.067125	-0.771446
C21	C	-4.052587	-0.194500	-0.839573
C22	C	-4.159588	-0.323537	-0.741339
C23	C	-4.038995	-0.075449	-0.719624
C24	C	-4.220114	-0.202905	-0.788985
C25	C	-3.936775	-0.196871	-0.577338
C26	C	-4.094940	-0.193644	-0.935422
C27	C	-4.140292	0.070834	-0.255211
C28	C	-4.045791	0.237193	-0.256049
C29	C	-4.190964	-0.192130	-0.105911
C30	C	-4.128681	-0.192949	-0.011828
H31	H	-3.638714	-0.181409	-0.695289
H32	H	-4.280713	-0.432019	-0.727791
H33	H	-4.393233	-0.209376	-0.817327
H34	H	-3.973508	-0.416421	-0.825155
N35	N	-4.064266	0.058758	-0.677190
H36	H	-3.955200	0.155532	-0.687742
H37	H	-4.037265	0.056471	-0.613584
N38	N	-3.711725	0.076416	-0.789548
H39	H	-3.557919	0.082024	-0.765712
H40	H	-3.727883	0.166917	-0.761653
