data_functionalizedCrystal
_audit_creation_method	'MofGen! by Chris Wilmer'
_symmetry_space_group_name_H-M	'P1'
_symmetry_Int_Tables_number	1
_symmetry_cell_setting	triclinic
loop_
_symmetry_equiv_pos_as_xyz
  x,y,z
_cell_length_a	11.026607
_cell_length_b	14.519709
_cell_length_c	10.065875
_cell_angle_alpha	98.804604
_cell_angle_beta	79.302338
_cell_angle_gamma	96.133081
loop_
_atom_site_label
_atom_site_type_symbol
_atom_site_fract_x
_atom_site_fract_y
_atom_site_fract_z
O1	O	1.628737	0.375708	-0.113512
O2	O	1.878737	0.625708	0.136488
O3	O	2.128737	0.875708	0.386488
O4	O	2.378737	1.125708	0.636488
O5	O	1.275335	0.331718	-0.113511
O6	O	1.525335	0.581718	0.136489
O7	O	1.775335	0.831718	0.386489
O8	O	2.025335	1.081718	0.636489
O9	O	1.461404	0.221020	-0.113499
O10	O	1.711404	0.471020	0.136501
O11	O	1.961404	0.721020	0.386501
O12	O	2.211404	0.971020	0.636501
O13	O	1.442668	0.486407	-0.113524
O14	O	1.692668	0.736407	0.136476
O15	O	1.942668	0.986407	0.386476
O16	O	2.192668	1.236407	0.636476
O17	O	1.425923	0.242237	0.113487
O18	O	1.675923	0.492237	0.363487
O19	O	1.925923	0.742237	0.613487
O20	O	2.175923	0.992237	0.863487
O21	O	1.239855	0.352935	0.113475
O22	O	1.489855	0.602935	0.363475
O23	O	1.739855	0.852935	0.613475
O24	O	1.989855	1.102935	0.863475
O25	O	1.593256	0.396926	0.113475
O26	O	1.843256	0.646926	0.363475
O27	O	2.093256	0.896926	0.613475
O28	O	2.343256	1.146926	0.863475
Zn29	Zn	1.410922	0.378299	0.149514
Zn30	Zn	1.660922	0.628299	0.399514
Zn31	Zn	1.910922	0.878299	0.649514
Zn32	Zn	2.160922	1.128299	0.899514
Zn33	Zn	1.457669	0.350345	-0.149550
Zn34	Zn	1.707669	0.600345	0.100450
Zn35	Zn	1.957669	0.850345	0.350450
Zn36	Zn	2.207669	1.100345	0.600450
O37	O	1.407187	0.507624	0.113463
O38	O	1.657187	0.757624	0.363463
O39	O	1.907187	1.007624	0.613463
O40	O	2.157187	1.257624	0.863463
C41	C	1.212366	0.334211	-0.000018
C42	C	1.462366	0.584211	0.249982
C43	C	1.712366	0.834211	0.499982
C44	C	1.962366	1.084211	0.749982
C45	C	1.077600	0.310019	-0.000017
C46	C	1.327600	0.560019	0.249983
C47	C	1.577600	0.810019	0.499983
C48	C	1.827600	1.060019	0.749983
C49	C	1.003940	0.376818	-0.000024
C50	C	1.253940	0.626818	0.249976
C51	C	1.503940	0.876818	0.499976
C52	C	1.753940	1.126818	0.749976
C53	C	0.864652	0.351815	-0.000024
C54	C	1.114652	0.601815	0.249976
C55	C	1.364652	0.851815	0.499976
C56	C	1.614652	1.101815	0.749976
C57	C	1.442790	0.197125	-0.000006
C58	C	1.692790	0.447125	0.249994
C59	C	1.942790	0.697125	0.499994
C60	C	2.192790	0.947125	0.749994
C61	C	1.440173	0.094312	-0.000005
C62	C	1.690173	0.344312	0.249995
C63	C	1.940173	0.594312	0.499995
C64	C	2.190173	0.844312	0.749995
C65	C	1.430544	-0.282174	-0.000040
C66	C	1.680544	-0.032174	0.249960
C67	C	1.930544	0.217826	0.499960
C68	C	2.180544	0.467826	0.749960
C69	C	1.433218	-0.177425	-0.000030
C70	C	1.683218	0.072575	0.249970
C71	C	1.933218	0.322575	0.499970
C72	C	2.183218	0.572575	0.749970
C73	C	1.435358	-0.093934	-0.000021
C74	C	1.685358	0.156066	0.249979
C75	C	1.935358	0.406066	0.499979
C76	C	2.185358	0.656066	0.749979
C77	C	1.438033	0.010822	-0.000014
C78	C	1.688033	0.260822	0.249986
C79	C	1.938033	0.510822	0.499986
C80	C	2.188033	0.760822	0.749986
C81	C	1.656225	0.394432	-0.000022
C82	C	1.906225	0.644432	0.249978
C83	C	2.156225	0.894432	0.499978
C84	C	2.406225	1.144432	0.749978
C85	C	1.790993	0.418624	-0.000031
C86	C	2.040993	0.668624	0.249969
C87	C	2.290993	0.918624	0.499969
C88	C	2.540993	1.168624	0.749969
C89	C	1.425802	0.531519	-0.000034
C90	C	1.675802	0.781519	0.249966
C91	C	1.925802	1.031519	0.499966
C92	C	2.175802	1.281519	0.749966
C93	C	1.428420	0.634330	-0.000043
C94	C	1.678420	0.884330	0.249957
C95	C	1.928420	1.134330	0.499957
C96	C	2.178420	1.384330	0.749957
N97	N	1.379027	0.397378	0.353617
N98	N	1.629027	0.647378	0.603617
N99	N	1.879027	0.897378	0.853617
N100	N	2.129027	1.147378	1.103617
N101	N	1.489574	0.331260	-0.353654
N102	N	1.739574	0.581260	-0.103654
N103	N	1.989574	0.831260	0.146346
N104	N	2.239574	1.081260	0.396346
C105	C	1.446564	0.356976	0.421401
C106	C	1.696564	0.606976	0.671401
C107	C	1.946564	0.856976	0.921401
C108	C	2.196564	1.106976	1.171401
C109	C	1.422027	0.371668	0.578566
C110	C	1.672027	0.621668	0.828566
C111	C	1.922027	0.871668	1.078566
C112	C	2.172027	1.121668	1.328566
H113	H	1.043996	0.452517	-0.000024
H114	H	1.293996	0.702517	0.249976
H115	H	1.543996	0.952517	0.499976
H116	H	1.793996	1.202517	0.749976
O117	O	1.547217	0.296737	0.344177
O118	O	1.797217	0.546737	0.594177
O119	O	2.047217	0.796737	0.844177
O120	O	2.297217	1.046737	1.094177
H121	H	1.527055	0.224803	0.371548
H122	H	1.777055	0.474803	0.621548
H123	H	2.027055	0.724803	0.871548
H124	H	2.277055	0.974803	1.121548
H125	H	0.831041	0.494329	-0.000029
H126	H	1.081041	0.744329	0.249971
H127	H	1.331041	0.994329	0.499971
H128	H	1.581041	1.244329	0.749971
H129	H	1.037548	0.234317	-0.000045
H130	H	1.287548	0.484317	0.249955
H131	H	1.537548	0.734317	0.499955
H132	H	1.787548	0.984317	0.749955
H133	H	1.346030	0.417134	0.636882
H134	H	1.596030	0.667134	0.886882
H135	H	1.846030	0.917134	1.136882
H136	H	2.096030	1.167134	1.386882
H137	H	1.565562	0.285786	0.588030
H138	H	1.815562	0.535786	0.838030
H139	H	2.065562	0.785786	1.088030
H140	H	2.315562	1.035786	1.338030
O141	O	1.278379	0.457620	0.430843
O142	O	1.528379	0.707620	0.680843
O143	O	1.778379	0.957620	0.930843
O144	O	2.028379	1.207620	1.180843
H145	H	1.209019	0.415144	0.495975
H146	H	1.459019	0.665144	0.745975
H147	H	1.709019	0.915144	0.995975
H148	H	1.959019	1.165144	1.245975
O149	O	0.811617	0.251534	-0.000015
O150	O	1.061617	0.501534	0.249985
O151	O	1.311617	0.751534	0.499985
O152	O	1.561617	1.001534	0.749985
H153	H	0.710539	0.247631	-0.000024
H154	H	0.960539	0.497631	0.249976
H155	H	1.210539	0.747631	0.499976
H156	H	1.460539	0.997631	0.749976
