data_functionalizedCrystal
_audit_creation_method	'MofGen! by Chris Wilmer'
_symmetry_space_group_name_H-M	'P1'
_symmetry_Int_Tables_number	1
_symmetry_cell_setting	triclinic
loop_
_symmetry_equiv_pos_as_xyz
  x,y,z
_cell_length_a	10.540510
_cell_length_b	14.044220
_cell_length_c	12.503572
_cell_angle_alpha	86.156832
_cell_angle_beta	86.446316
_cell_angle_gamma	91.148906
loop_
_atom_site_label
_atom_site_type_symbol
_atom_site_fract_x
_atom_site_fract_y
_atom_site_fract_z
O1	O	1.706116	-0.128108	-0.089331
O2	O	2.206116	0.371892	0.410669
O3	O	1.337974	-0.140733	-0.089332
O4	O	1.837974	0.359267	0.410668
O5	O	1.516518	0.003600	-0.089321
O6	O	2.016518	0.503600	0.410679
O7	O	1.527572	-0.272442	-0.089342
O8	O	2.027572	0.227558	0.410658
O9	O	1.503093	-0.007273	0.089321
O10	O	2.003093	0.492727	0.589321
O11	O	1.324549	-0.151606	0.089309
O12	O	1.824549	0.348394	0.589309
O13	O	1.692690	-0.138981	0.089310
O14	O	2.192690	0.361019	0.589310
Cu15	Cu	1.507394	-0.146287	0.105621
Cu16	Cu	2.007394	0.353713	0.605621
Cu17	Cu	1.523271	-0.133428	-0.105643
Cu18	Cu	2.023271	0.366572	0.394357
O19	O	1.514146	-0.283315	0.089299
O20	O	2.014146	0.216685	0.589299
C21	C	1.283863	-0.145229	-0.000011
C22	C	1.783863	0.354771	0.499989
C23	C	1.142628	-0.142414	-0.000011
C24	C	1.642628	0.357586	0.499989
C25	C	0.935341	-0.242657	-0.000429
C26	C	1.435341	0.257343	0.499571
C27	C	1.082210	-0.245684	-0.000020
C28	C	1.582210	0.254316	0.499980
C29	C	1.084857	-0.095759	0.102003
C30	C	1.584857	0.404241	0.602003
C31	C	0.937861	-0.093492	0.102082
C32	C	1.437861	0.406508	0.602082
C33	C	0.953104	-0.078977	-0.101066
C34	C	1.453104	0.421023	0.398934
C35	C	1.100042	-0.083794	-0.102408
C36	C	1.600042	0.416206	0.397592
C37	C	1.504968	0.033510	0.000000
C38	C	2.004968	0.533510	0.500000
C39	C	1.490538	0.138833	0.000002
C40	C	1.990538	0.638833	0.500002
C41	C	1.746802	-0.134486	-0.000012
C42	C	2.246802	0.365514	0.499988
C43	C	1.888037	-0.137300	-0.000019
C44	C	2.388037	0.362700	0.499981
C45	C	1.525697	-0.313225	-0.000024
C46	C	2.025697	0.186775	0.499976
C47	C	1.540127	-0.418547	-0.000032
C48	C	2.040127	0.081453	0.499968
N49	N	1.496236	-0.155330	0.254213
N50	N	1.996236	0.344670	0.754213
C51	C	1.464158	0.331671	-0.000014
C52	C	1.964158	0.831671	0.499986
C53	C	1.566501	0.388620	-0.000017
C54	C	2.066501	0.888620	0.499983
C55	C	1.551823	0.495922	-0.000025
C56	C	2.051823	0.995922	0.499975
C57	C	1.478834	0.224359	-0.000005
C58	C	1.978834	0.724359	0.499995
N59	N	1.534438	-0.124377	-0.254234
N60	N	2.034438	0.375623	0.245766
C61	C	1.479823	-0.168641	0.473327
C62	C	1.979823	0.331359	0.973327
C63	C	1.550847	-0.111069	0.526659
C64	C	2.050847	0.388931	1.026659
C65	C	1.541715	-0.118476	0.648581
C66	C	2.041715	0.381524	1.148581
C67	C	1.488953	-0.161236	0.351393
C68	C	1.988953	0.338764	0.851393
H69	H	0.902954	-0.278437	-0.073590
H70	H	1.402954	0.221563	0.426410
F71	F	1.695435	0.347017	-0.000008
F72	F	2.195435	0.847017	0.499992
H73	H	0.895566	-0.134261	0.178334
H74	H	1.395566	0.365739	0.678334
F75	F	1.133219	-0.293928	-0.095604
F76	F	1.633219	0.206072	0.404396
H77	H	0.890412	-0.287086	0.072310
H78	H	1.390412	0.212914	0.572310
H79	H	1.365524	0.363501	-0.000017
H80	H	1.865524	0.863501	0.499983
H81	H	1.618513	-0.056219	0.480750
H82	H	2.118513	0.443781	0.980750
F83	F	0.909415	-0.115408	-0.202132
F84	F	1.409415	0.384592	0.297868
H85	H	1.412163	-0.223489	0.519230
H86	H	1.912163	0.276511	1.019230
H87	H	0.906708	-0.016535	0.106722
H88	H	1.406708	0.483465	0.606722
F89	F	1.117645	-0.305891	0.095720
F90	F	1.617645	0.194109	0.595720
H91	H	1.124275	-0.019964	0.105803
H92	H	1.624275	0.480036	0.605803
H93	H	1.138220	-0.117664	-0.177878
H94	H	1.638220	0.382336	0.322122
F95	F	1.122576	-0.149784	0.201230
F96	F	1.622576	0.350216	0.701230
F97	F	1.154809	0.015247	-0.110451
F98	F	1.654809	0.515247	0.389549
F99	F	0.913976	0.022422	-0.101958
F100	F	1.413976	0.522422	0.398042
