data_functionalizedCrystal
_audit_creation_method	'MofGen! by Chris Wilmer'
_symmetry_space_group_name_H-M	'P1'
_symmetry_Int_Tables_number	1
_symmetry_cell_setting	triclinic
loop_
_symmetry_equiv_pos_as_xyz
  x,y,z
_cell_length_a	14.853568
_cell_length_b	13.930277
_cell_length_c	10.654559
_cell_angle_alpha	89.995065
_cell_angle_beta	84.061916
_cell_angle_gamma	89.995589
loop_
_atom_site_label
_atom_site_type_symbol
_atom_site_fract_x
_atom_site_fract_y
_atom_site_fract_z
O1	O	-1.197250	0.079769	-0.163963
O2	O	-0.934895	0.079785	-0.183494
O3	O	-1.072100	0.079769	0.009073
O4	O	-1.060045	0.079785	-0.356530
O5	O	-1.072081	-0.079892	0.009077
O6	O	-0.934876	-0.079877	-0.183490
O7	O	-1.197230	-0.079893	-0.163959
Zn8	Zn	-1.066050	-0.105234	-0.173724
Zn9	Zn	-1.066076	0.105127	-0.173729
O10	O	-1.060025	-0.079877	-0.356525
C11	C	-0.901292	-0.000044	-0.182607
C12	C	-0.801194	-0.000038	-0.179954
N13	N	-1.066039	-0.248801	-0.173719
C14	C	-0.387985	-0.000066	-0.054354
C15	C	-0.367934	-0.000056	-0.283127
C16	C	-0.461981	-0.000052	-0.285621
C17	C	-0.519035	-0.000054	-0.172480
C18	C	-0.482041	-0.000060	-0.056844
C19	C	-0.498982	-0.000037	-0.401255
C20	C	-0.593035	-0.000032	-0.403753
C21	C	-0.650090	-0.000041	-0.290610
C22	C	-0.613091	-0.000048	-0.174970
C23	C	-0.670145	-0.000050	-0.061828
C24	C	-0.633147	-0.000064	0.053813
C25	C	-0.539097	-0.000069	0.056299
C26	C	-0.744141	-0.000036	-0.293096
C27	C	-0.764201	-0.000044	-0.064319
C28	C	-1.005319	-0.701063	-0.258964
C29	C	-1.126857	-0.701046	-0.088484
C30	C	-1.126847	-0.600550	-0.088480
C31	C	-1.066072	-0.550306	-0.173721
C32	C	-1.005308	-0.600558	-0.258965
C33	C	-1.187616	-0.550291	-0.003246
C34	C	-1.187608	-0.449789	-0.003240
C35	C	-1.126828	-0.399543	-0.088475
C36	C	-1.066061	-0.449801	-0.173722
C37	C	-1.005286	-0.399557	-0.258962
C38	C	-0.944514	-0.449813	-0.344204
C39	C	-0.944528	-0.550312	-0.344201
C40	C	-1.126814	-0.299045	-0.088479
C41	C	-1.005275	-0.299052	-0.258964
C42	C	-0.230834	-0.000062	-0.164845
C43	C	-0.330932	-0.000064	-0.167495
C44	C	-1.071204	-0.000061	0.055863
C45	C	-1.068550	-0.000061	0.195278
N46	N	-1.066093	0.248693	-0.173724
C47	C	-1.060922	-0.000044	-0.403316
C48	C	-1.063575	-0.000038	-0.542731
C49	C	-1.064827	0.086988	0.391755
C50	C	-1.067318	0.086978	0.260759
C51	C	-1.067301	-0.087094	0.260802
C52	C	-1.064817	-0.087083	0.391797
C53	C	-1.064833	0.187488	0.391728
C54	C	-1.067324	0.187477	0.260732
H55	H	-0.810648	-0.000049	0.027817
H56	H	-1.133079	0.218658	0.231832
H57	H	-0.679613	-0.000059	0.145933
Cl58	Cl	-0.928919	-0.764236	-0.366116
H59	H	-1.005021	0.226061	0.213796
Cl60	Cl	-0.963328	0.235642	0.436340
Cl61	Cl	-1.203263	-0.764207	0.018663
Cl62	Cl	-0.868138	-0.613493	-0.451357
Cl63	Cl	-0.341477	-0.000088	0.091017
Cl64	Cl	-0.492580	-0.000080	0.201663
H65	H	-0.955782	-0.258149	-0.328373
Cl66	Cl	-0.868120	-0.386638	-0.451368
Cl67	Cl	-1.264021	-0.613453	0.103901
Cl68	Cl	-0.427256	-0.000018	-0.543480
H69	H	-0.321476	-0.000046	-0.375242
H70	H	-0.774260	-0.000027	-0.387249
Cl71	Cl	-0.639537	-0.000018	-0.549128
H72	H	-1.068313	-0.157963	0.207479
Cl73	Cl	-1.161029	0.247062	0.464166
Cl74	Cl	-1.264001	-0.386617	0.103922
Cl75	Cl	-1.203213	-0.235872	0.018667
Cl76	Cl	-1.063259	-0.196492	0.474157
