data_functionalizedCrystal
_audit_creation_method	'MofGen! by Chris Wilmer'
_symmetry_space_group_name_H-M	'P1'
_symmetry_Int_Tables_number	1
_symmetry_cell_setting	triclinic
loop_
_symmetry_equiv_pos_as_xyz
  x,y,z
_cell_length_a	11.792254
_cell_length_b	10.540539
_cell_length_c	10.868271
_cell_angle_alpha	89.997005
_cell_angle_beta	89.995741
_cell_angle_gamma	84.362045
loop_
_atom_site_label
_atom_site_type_symbol
_atom_site_fract_x
_atom_site_fract_y
_atom_site_fract_z
O1	O	1.507353	0.174069	-0.102315
O2	O	2.007353	0.674069	0.397685
O3	O	1.177060	0.191983	-0.102317
O4	O	1.677060	0.691983	0.397683
O5	O	1.349742	-0.001705	-0.102314
O6	O	1.849742	0.498295	0.397686
O7	O	1.334671	0.367757	-0.102318
O8	O	1.834671	0.867757	0.397682
O9	O	1.349728	-0.001712	0.102330
O10	O	1.849728	0.498288	0.602330
O11	O	1.177046	0.191976	0.102328
O12	O	1.677046	0.691976	0.602328
O13	O	1.507339	0.174061	0.102330
O14	O	2.007339	0.674061	0.602330
Zn15	Zn	1.342190	0.183017	0.134820
Zn16	Zn	1.842190	0.683017	0.634820
Zn17	Zn	1.342209	0.183027	-0.134808
Zn18	Zn	1.842209	0.683027	0.365192
O19	O	1.334657	0.367749	0.102327
O20	O	1.834657	0.867749	0.602327
C21	C	1.134760	0.190851	0.000005
C22	C	1.634760	0.690851	0.500005
C23	C	1.008738	0.187473	0.000004
C24	C	1.508738	0.687473	0.500004
C25	C	0.906394	0.184729	-0.000001
C26	C	1.406394	0.684729	0.499999
C27	C	0.777999	0.181297	-0.000002
C28	C	1.277999	0.681297	0.499998
C29	C	1.348605	-0.049008	0.000006
C30	C	1.848605	0.450992	0.500006
C31	C	1.345223	-0.189945	-0.000001
C32	C	1.845223	0.310055	0.499999
C33	C	1.215653	-0.372957	-0.000461
C34	C	1.715653	0.127043	0.499539
C35	C	1.219081	-0.226349	-0.000000
C36	C	1.719081	0.273651	0.500000
C37	C	1.405921	-0.251802	0.116862
C38	C	1.905921	0.248198	0.616862
C39	C	1.401616	-0.398332	0.116960
C40	C	1.901616	0.101668	0.616960
C41	C	1.404198	-0.398850	-0.115759
C42	C	1.904198	0.101150	0.384241
C43	C	1.405359	-0.251872	-0.117304
C44	C	1.905359	0.248128	0.382696
C45	C	1.549639	0.175193	0.000005
C46	C	2.049639	0.675193	0.500005
C47	C	1.675661	0.178571	-0.000002
C48	C	2.175661	0.678571	0.499998
C49	C	1.335794	0.415052	0.000004
C50	C	1.835794	0.915052	0.500004
C51	C	1.339176	0.555989	0.000003
C52	C	1.839176	1.055989	0.500003
N53	N	1.342185	0.183009	0.318834
N54	N	1.842185	0.683009	0.818834
N55	N	1.342223	0.183025	-0.318822
N56	N	1.842223	0.683025	0.181178
C57	C	1.342203	0.183024	0.569840
C58	C	1.842203	0.683024	1.069840
C59	C	1.342190	0.183020	0.430163
C60	C	1.842190	0.683020	0.930163
H61	H	1.171320	-0.183590	-0.083772
H62	H	1.671320	0.316410	0.416228
H63	H	1.363745	-0.209070	0.203826
H64	H	1.863745	0.290930	0.703826
H65	H	1.495310	-0.446368	-0.116545
H66	H	1.995310	0.053632	0.383455
C67	C	1.345419	-0.196405	-0.234102
C68	C	1.845419	0.303595	0.265898
N69	N	1.300261	-0.154630	-0.322071
N70	N	1.800261	0.345370	0.177929
C71	C	1.340985	-0.436240	0.234967
C72	C	1.840985	0.063760	0.734967
N73	N	1.295312	-0.464785	0.323851
N74	N	1.795312	0.035215	0.823851
H75	H	1.497328	-0.227945	-0.124361
H76	H	1.997328	0.272055	0.375639
C77	C	1.349048	-0.441289	-0.235420
C78	C	1.849048	0.058711	0.264580
N79	N	1.307496	-0.473251	-0.325543
N80	N	1.807496	0.026749	0.174457
C81	C	1.148613	-0.413514	0.112145
C82	C	1.648613	0.086486	0.612145
N83	N	1.098127	-0.444052	0.196971
N84	N	1.598127	0.055948	0.696971
C85	C	1.148333	-0.411387	-0.113668
C86	C	1.648333	0.088613	0.386332
N87	N	1.097626	-0.440345	-0.198937
N88	N	1.597626	0.059655	0.301063
H89	H	1.170974	-0.184442	0.083910
H90	H	1.670974	0.315558	0.583910
H91	H	1.498556	-0.229745	0.121207
H92	H	1.998556	0.270255	0.621207
C93	C	1.524171	-0.463532	0.124142
C94	C	2.024171	0.036468	0.624142
N95	N	1.616478	-0.512635	0.129560
N96	N	2.116478	-0.012635	0.629560
