data_functionalizedCrystal
_audit_creation_method	'MofGen! by Chris Wilmer'
_symmetry_space_group_name_H-M	'P1'
_symmetry_Int_Tables_number	1
_symmetry_cell_setting	triclinic
loop_
_symmetry_equiv_pos_as_xyz
  x,y,z
_cell_length_a	19.377369
_cell_length_b	20.016444
_cell_length_c	20.016444
_cell_angle_alpha	90.002879
_cell_angle_beta	48.639196
_cell_angle_gamma	72.128613
loop_
_atom_site_label
_atom_site_type_symbol
_atom_site_fract_x
_atom_site_fract_y
_atom_site_fract_z
Zr1	Zr	0.779893	0.046248	0.510310
O2	O	0.928521	-0.034902	0.378239
O3	O	0.631258	0.053426	0.568410
O4	O	0.779890	-0.060425	0.543011
O5	O	0.779895	0.188889	0.403638
O6	O	0.779895	-0.060424	0.652950
O7	O	0.779890	0.078949	0.403638
O8	O	0.514020	0.143234	0.698384
O9	O	1.045770	-0.014769	0.358204
O10	O	0.692401	0.077872	0.653955
O11	O	0.692401	0.159919	0.571909
O12	O	0.867395	0.025874	0.542004
O13	O	0.867395	0.107921	0.459958
Zr14	Zr	0.779911	0.221593	0.685649
Zr15	Zr	0.779902	0.046250	0.685650
Zr16	Zr	0.779902	0.221591	0.510309
Zr17	Zr	0.966892	0.078359	0.478355
Zr18	Zr	0.592913	0.189482	0.717604
O19	O	0.928547	0.214415	0.627549
O20	O	0.928534	-0.034900	0.627550
O21	O	0.928534	0.214413	0.378238
O22	O	0.631283	0.302743	0.817719
O23	O	0.631271	0.053428	0.817721
O24	O	0.631271	0.302741	0.568409
O25	O	0.779909	0.078951	0.792321
O26	O	0.779915	0.328265	0.652948
O27	O	0.779909	0.328265	0.543009
O28	O	0.779915	0.188892	0.792320
O29	O	1.045777	-0.014768	0.497575
O30	O	0.514028	0.282608	0.698383
O31	O	0.514035	0.282610	0.837755
O32	O	0.514028	0.143235	0.837756
O33	O	1.045777	0.124606	0.358203
O34	O	1.045784	0.124607	0.497575
O35	O	0.692409	0.241967	0.653954
O36	O	0.692409	0.159920	0.736001
O37	O	0.867404	0.107922	0.624050
O38	O	0.867404	0.189969	0.542004
C39	C	0.545996	0.093755	0.637950
C40	C	0.466610	0.080123	0.651515
C41	C	0.779891	0.133919	0.378656
C42	C	0.779887	0.133918	0.304220
C43	C	0.779913	0.353248	0.597978
C44	C	0.779917	0.427685	0.597978
C45	C	0.205212	0.249661	0.482342
C46	C	0.130526	0.236910	0.495201
C47	C	0.130536	0.151259	0.580851
C48	C	0.205219	0.164005	0.568003
C49	C	0.242552	0.213206	0.518747
C50	C	0.242560	0.127551	0.604408
C51	C	0.317241	0.140294	0.591557
C52	C	0.354581	0.189490	0.542300
C53	C	0.317233	0.225949	0.505895
C54	C	0.205231	0.078346	0.653658
C55	C	0.242571	0.041892	0.690063
C56	C	0.317248	0.054638	0.677218
C57	C	0.354589	0.103835	0.627962
C58	C	0.354596	0.018180	0.713623
C59	C	0.429277	0.030922	0.700772
C60	C	0.429270	0.116578	0.615110
C61	C	1.013809	0.174086	0.558009
C62	C	1.093194	0.187718	0.544443
C63	C	0.779891	-0.085407	0.597980
C64	C	0.779887	-0.159845	0.597981
C65	C	0.871251	0.571808	0.539540
C66	C	0.871247	0.641753	0.539538
C67	C	0.688547	0.696030	0.656422
C68	C	0.688552	0.626086	0.656418
C69	C	0.779907	0.563976	0.597978
C70	C	0.779898	0.703864	0.597980
C71	C	0.779892	0.779701	0.597979
C72	C	0.779913	0.488134	0.597978
C73	C	0.688554	0.161064	0.191388
C74	C	0.688558	0.161067	0.121442
C75	C	0.871258	0.106777	0.004572
C76	C	0.871253	0.106779	0.074517
C77	C	0.779898	0.133920	0.167925
C78	C	0.779907	0.133921	0.028034
C79	C	0.779912	0.133923	-0.047805
C80	C	0.779892	0.133919	0.243769
C81	C	0.779913	0.133922	0.817303
C82	C	0.779917	0.133923	0.891739
C83	C	0.546007	0.093757	0.857273
C84	C	0.466625	0.080126	0.945275
C85	C	0.546007	0.313082	0.637949
C86	C	0.466625	0.373888	0.651514
C87	C	0.546018	0.313084	0.857272
C88	C	0.466640	0.373890	0.945274
C89	C	1.013786	-0.045243	0.338687
C90	C	1.093164	-0.106050	0.250685
C91	C	1.013797	0.174084	0.338686
C92	C	1.093179	0.187715	0.250684
C93	C	1.013797	-0.045242	0.558010
C94	C	1.093179	-0.106047	0.544445
C95	C	0.429342	0.030888	0.943775
C96	C	0.354765	0.018066	1.026454
C97	C	0.317467	0.054485	1.110633
C98	C	0.354757	0.103725	1.112130
C99	C	0.429338	0.116543	1.029452
C100	C	0.429351	0.445279	0.700711
C101	C	0.354774	0.502421	0.713452
C102	C	0.317467	0.488170	0.677001
C103	C	0.354749	0.416772	0.627797
C104	C	0.429330	0.359633	0.615051
C105	C	0.429364	0.359618	1.029435
C106	C	0.354790	0.416747	1.112127
C107	C	0.317489	0.488147	1.110656
C108	C	0.354773	0.502419	1.026485
C109	C	0.429351	0.445292	0.943795
C110	C	1.130450	-0.091776	0.166522
C111	C	1.205047	-0.148901	0.083826
C112	C	1.242352	-0.220300	0.085296
C113	C	1.205063	-0.234573	0.169468
C114	C	1.130472	-0.177448	0.252161
C115	C	1.130470	0.236946	0.252183
C116	C	1.205068	0.249753	0.169500
C117	C	1.242369	0.213332	0.085321
C118	C	1.205075	0.164095	0.083824
C119	C	1.130483	0.151285	0.166504
C120	C	1.130462	-0.091774	0.580909
C121	C	1.205040	-0.148903	0.568180
C122	C	1.242338	-0.220303	0.518982
C123	C	1.205048	-0.234576	0.482518
C124	C	1.130466	-0.177449	0.495253
H125	H	0.459668	0.156642	0.575001
H126	H	0.614164	0.619713	0.704006
F127	F	0.968468	0.650083	0.477332
H128	H	0.614166	0.183173	0.267442
H129	H	1.303068	-0.266813	0.508620
F130	F	1.244760	-0.310570	0.430153
F131	F	0.968479	0.505709	0.477341
F132	F	1.090787	0.275715	0.341763
H133	H	0.614176	0.183171	0.140554
H134	H	0.100129	0.266597	0.465549
F135	F	1.090802	-0.192650	0.456430
F136	F	0.434069	0.203048	0.528619
H137	H	0.459684	0.156640	1.030686
F138	F	0.356964	0.278319	0.453478
F139	F	0.315049	0.142482	1.201729
H140	H	0.945636	0.084678	-0.071488
F141	F	0.244943	0.302031	0.429924
H142	H	0.324412	-0.022028	1.025217
H143	H	1.303106	0.223769	0.018004
F144	F	0.468987	0.283653	0.562692
F145	F	0.090799	0.098895	0.633268
F146	F	1.244718	-0.133697	0.606990
F147	F	0.314864	-0.034189	0.766032
H148	H	0.614168	0.746607	0.704002
F149	F	0.968479	0.077891	0.049541
H150	H	0.459723	0.301485	1.030650
H151	H	0.256739	0.534704	0.687386
F152	F	0.125752	0.064784	0.667328
H153	H	1.235446	-0.292713	0.170654
H154	H	0.212169	0.001830	0.730165
H155	H	0.324441	0.405114	1.180654
H156	H	0.459710	0.001221	0.875239
H157	H	0.459681	0.001237	0.730416
H158	H	0.256737	0.044042	1.177948
F159	F	0.315033	0.401616	0.589008
H160	H	0.459718	0.456897	0.730397
H161	H	0.324392	0.560561	1.025302
F162	F	0.315107	0.578402	0.765824
F163	F	0.238115	0.548942	1.198671
F164	F	0.469011	0.460492	0.854228
F165	F	1.244742	0.302159	0.171113
F166	F	1.090780	-0.015789	0.633273
H167	H	1.303088	-0.266809	0.017956
F168	F	1.244717	-0.133696	-0.005744
F169	F	1.090759	-0.015792	0.164937
H170	H	1.100115	-0.189079	0.320688
F171	F	1.244781	0.125340	-0.005774
F172	F	1.090798	0.098890	0.164896
