data_functionalizedCrystal
_audit_creation_method	'MofGen! by Chris Wilmer'
_symmetry_space_group_name_H-M	'P1'
_symmetry_Int_Tables_number	1
_symmetry_cell_setting	triclinic
loop_
_symmetry_equiv_pos_as_xyz
  x,y,z
_cell_length_a	6.817900
_cell_length_b	9.514072
_cell_length_c	17.110486
_cell_angle_alpha	93.368679
_cell_angle_beta	99.060439
_cell_angle_gamma	118.843421
loop_
_atom_site_label
_atom_site_type_symbol
_atom_site_fract_x
_atom_site_fract_y
_atom_site_fract_z
V1	V	-4.061312	-0.221725	-0.247339
O2	O	-3.961130	0.011147	-0.241992
O3	O	-4.096302	-0.440116	-0.246261
O4	O	-3.989789	-0.218098	-0.354932
O5	O	-4.068380	-0.212408	-0.132569
V6	V	-4.537130	-0.193896	-0.233537
O7	O	-4.339470	-0.282769	-0.277614
O8	O	-4.709169	-0.132852	-0.203261
O9	O	-4.278934	0.024495	-0.234615
O10	O	-4.754709	-0.426768	-0.238883
O11	O	-4.647459	-0.203213	-0.348307
O12	O	-4.385447	-0.197523	-0.125944
C13	C	-3.962337	-0.493362	-0.242517
C14	C	-4.072078	-0.671899	-0.242353
C15	C	-3.826468	-0.210154	-0.381137
C16	C	-3.849825	-0.208634	-0.469099
C17	C	-4.045146	-0.215935	-0.514477
C18	C	-4.067080	-0.214506	-0.597126
C19	C	-3.893699	-0.205787	-0.634397
C20	C	-3.698359	-0.198480	-0.589012
C21	C	-3.676420	-0.199898	-0.506363
C22	C	-3.950712	-0.201095	-0.883739
C23	C	-3.972670	-0.199683	-0.966394
C24	C	-4.341388	-0.215706	-0.974502
C25	C	-4.319438	-0.217132	-0.891852
C26	C	-4.124096	-0.209817	-0.846474
C27	C	-3.916118	-0.204331	-0.718878
C28	C	-4.101672	-0.211262	-0.761994
C29	C	-4.076244	0.077733	-0.238356
C30	C	-3.945740	0.256268	-0.238526
C31	C	-4.212113	-0.205472	-0.099735
C32	C	-4.167991	-0.206984	-0.011772
H33	H	-3.753603	-0.668634	-0.235336
H34	H	-4.264225	-0.747002	-0.245531
H35	H	-4.186343	-0.223046	-0.484139
C36	C	-4.556233	-0.223730	-1.024417
H37	H	-4.544466	-0.221623	-1.078977
H38	H	-4.688458	-0.321323	-1.020029
H39	H	-4.568293	-0.133161	-1.005045
H40	H	-4.226122	-0.220442	-0.634069
C41	C	-4.510144	-0.226699	-0.850858
H42	H	-4.629604	-0.230825	-0.889721
H43	H	-4.569324	-0.321655	-0.826272
H44	H	-4.449156	-0.133492	-0.811298
C45	C	-3.507645	-0.188894	-0.630008
H46	H	-3.548694	-0.189113	-0.685731
H47	H	-3.368231	-0.091762	-0.607309
H48	H	-3.488385	-0.279925	-0.622284
H49	H	-3.831468	-0.192578	-0.996736
H50	H	-3.791692	-0.195196	-0.846806
H51	H	-3.517346	-0.193913	-0.469414
C52	C	-4.292389	-0.220857	-0.721003
H53	H	-4.411865	-0.224997	-0.759862
H54	H	-4.351540	-0.315816	-0.696418
H55	H	-4.231419	-0.127655	-0.681441
H56	H	-3.774958	-0.197238	-0.749233
