data_functionalizedCrystal
_audit_creation_method	'MofGen! by Chris Wilmer'
_symmetry_space_group_name_H-M	'P1'
_symmetry_Int_Tables_number	1
_symmetry_cell_setting	triclinic
loop_
_symmetry_equiv_pos_as_xyz
  x,y,z
_cell_length_a	16.974800
_cell_length_b	17.038272
_cell_length_c	15.455446
_cell_angle_alpha	92.867063
_cell_angle_beta	83.686872
_cell_angle_gamma	87.242888
loop_
_atom_site_label
_atom_site_type_symbol
_atom_site_fract_x
_atom_site_fract_y
_atom_site_fract_z
O1	O	1.055938	0.099491	-0.002020
O2	O	0.825863	0.112961	0.014139
O3	O	0.939533	-0.007584	0.006149
O4	O	0.942267	0.220036	0.005970
O5	O	0.945996	-0.014452	-0.138565
O6	O	0.832326	0.106093	-0.130575
O7	O	1.062401	0.092622	-0.146733
Cu8	Cu	0.947953	0.098730	-0.151867
Cu9	Cu	0.940310	0.106853	0.019273
O10	O	0.948730	0.213168	-0.138743
C11	C	0.799510	0.109144	-0.056140
C12	C	0.711360	0.107995	-0.049950
C13	C	0.673474	0.103709	-0.125927
C14	C	0.590648	0.102616	-0.120112
C15	C	0.545708	0.105815	-0.038320
C16	C	0.583600	0.110099	0.037662
C17	C	0.666425	0.111186	0.031847
C18	C	0.297620	0.102960	-0.012470
C19	C	0.214789	0.101875	-0.006660
C20	C	0.221843	0.094391	-0.164435
C21	C	0.304669	0.095483	-0.170243
C22	C	0.342553	0.099763	-0.094261
N23	N	0.461046	0.104701	-0.032375
N24	N	0.427214	0.100871	-0.100207
C25	C	0.940277	-0.040136	-0.066033
C26	C	0.932856	-0.126898	-0.065512
C27	C	1.000990	-0.177298	-0.070298
C28	C	0.994012	-0.258819	-0.069800
C29	C	0.918900	-0.289938	-0.064521
C30	C	0.850761	-0.239531	-0.059733
C31	C	0.857739	-0.158012	-0.060225
C32	C	0.894246	-0.535592	-0.062778
C33	C	0.887273	-0.617118	-0.062289
C34	C	1.030525	-0.636400	-0.072354
C35	C	1.037497	-0.554878	-0.072851
C36	C	0.969358	-0.504478	-0.068058
C37	C	0.911765	-0.373265	-0.064015
C38	C	0.976492	-0.421152	-0.068558
C39	C	1.088753	0.096439	-0.076452
C40	C	1.176903	0.097589	-0.082637
C41	C	0.947986	0.245720	-0.066559
C42	C	0.955407	0.332482	-0.067075
N43	N	0.953335	0.093017	-0.272239
C44	C	0.983236	0.061369	-0.818335
C45	C	0.979149	0.065700	-0.727241
C46	C	0.926755	0.121219	-0.678171
C47	C	0.878452	0.172416	-0.720199
C48	C	0.882543	0.168089	-0.811291
C49	C	0.909123	0.139887	-0.405358
C50	C	0.905033	0.144209	-0.314260
C51	C	1.005732	0.037492	-0.321309
C52	C	1.009816	0.033167	-0.412402
C53	C	0.961515	0.084367	-0.454422
N54	N	0.922575	0.125645	-0.585059
N55	N	0.965700	0.079943	-0.547533
N56	N	0.934934	0.112561	0.139644
H57	H	0.697270	0.114678	0.093716
H58	H	1.062155	-0.151968	-0.074601
C59	C	1.040872	0.000291	-0.872304
N60	N	1.084286	-0.045714	-0.912951
C61	C	1.068966	-0.314257	-0.075079
N62	N	1.125426	-0.356013	-0.079059
H63	H	0.710057	0.101110	-0.192531
C64	C	0.768136	-0.273766	-0.053934
N65	N	0.705902	-0.299550	-0.049573
C66	C	1.120127	-0.520654	-0.078659
N67	N	1.182364	-0.494876	-0.083036
C68	C	1.105473	-0.691845	-0.077619
N69	N	1.161926	-0.733607	-0.081580
C70	C	0.829144	-0.407506	-0.058227
N71	N	0.766914	-0.433299	-0.053871
H72	H	0.838762	-0.494565	-0.058875
C73	C	1.032281	0.009380	-0.681022
N74	N	1.072302	-0.033043	-0.646210
C75	C	1.067428	-0.027932	-0.466371
N76	N	1.110811	-0.073963	-0.507020
H77	H	0.559806	0.099113	-0.181981
C78	C	0.804640	-0.651346	-0.056476
N79	N	0.742403	-0.677127	-0.052097
H80	H	0.802257	-0.116976	-0.056327
C81	C	1.058855	-0.018827	-0.275079
N82	N	1.098870	-0.061250	-0.240259
H83	H	1.037648	-0.395810	-0.072837
C84	C	0.847346	0.205243	-0.260281
N85	N	0.803879	0.251195	-0.219623
H86	H	0.869793	0.181574	-0.439564
C87	C	0.820817	0.233488	-0.666218
N88	N	0.777404	0.279487	-0.625560
C89	C	0.829405	0.224402	-0.857514
N90	N	0.789381	0.266821	-0.892327
H91	H	0.178201	0.104483	0.059948
H92	H	0.328455	0.106443	0.049401
H93	H	0.341253	0.092874	-0.236847
H94	H	0.547004	0.112699	0.104259
H95	H	0.190988	0.090905	-0.226296
