data_functionalizedCrystal
_audit_creation_method	'MofGen! by Chris Wilmer'
_symmetry_space_group_name_H-M	'P1'
_symmetry_Int_Tables_number	1
_symmetry_cell_setting	triclinic
loop_
_symmetry_equiv_pos_as_xyz
  x,y,z
_cell_length_a	6.817900
_cell_length_b	11.353959
_cell_length_c	10.773894
_cell_angle_alpha	107.082425
_cell_angle_beta	96.645922
_cell_angle_gamma	107.526623
loop_
_atom_site_label
_atom_site_type_symbol
_atom_site_fract_x
_atom_site_fract_y
_atom_site_fract_z
V1	V	-3.980486	-0.175628	-0.427091
O2	O	-3.935538	0.013371	-0.378636
O3	O	-3.964386	-0.352984	-0.462954
O4	O	-3.897273	-0.170763	-0.595667
O5	O	-4.003116	-0.170112	-0.245004
V6	V	-4.464439	-0.153278	-0.400601
O7	O	-4.240800	-0.224657	-0.485200
O8	O	-4.654322	-0.104249	-0.342492
O9	O	-4.257332	0.024078	-0.364739
O10	O	-4.626784	-0.342277	-0.449056
O11	O	-4.559206	-0.158794	-0.582688
O12	O	-4.324446	-0.158143	-0.232026
C13	C	-3.818372	-0.396287	-0.466224
C14	C	-3.886263	-0.541264	-0.496669
C15	C	-3.732760	-0.163845	-0.635510
C16	C	-3.746222	-0.161040	-0.773576
C17	C	-3.897067	-0.589539	-0.398124
C18	C	-3.967236	-0.739380	-0.429589
C19	C	-3.925181	-0.165901	-0.842494
C20	C	-3.939098	-0.163002	-0.985193
C21	C	-4.066691	0.067374	-0.361467
C22	C	-3.978036	0.212350	-0.331030
C23	C	-4.152302	-0.165066	-0.192177
C24	C	-4.118079	-0.167863	-0.054108
H25	H	-3.854380	-0.519939	-0.290463
O26	O	-4.018158	-0.822579	-0.557962
C27	C	-4.076919	-0.953666	-0.560801
H28	H	-4.004736	-0.955062	-0.460605
H29	H	-4.256209	-0.998911	-0.581195
C30	C	-4.085079	-1.032138	-0.794767
C31	C	-3.996408	-1.033854	-0.671707
H32	H	-4.035426	-1.081604	-0.863182
H33	H	-4.045498	-0.943823	-0.792855
H34	H	-4.234483	-1.069839	-0.811743
H35	H	-3.847009	-0.996138	-0.654725
H36	H	-4.035961	-1.122165	-0.673618
H37	H	-3.935346	-0.718056	-0.223361
H38	H	-3.796170	-0.156687	-1.031825
H39	H	-4.261007	-0.174175	-1.007476
O40	O	-3.937520	-0.624426	-0.625071
C41	C	-4.148614	-0.710456	-0.655857
H42	H	-4.197986	-0.717857	-0.560076
H43	H	-4.255298	-0.670904	-0.708228
C44	C	-4.107757	-0.838772	-0.865764
C45	C	-4.168390	-0.847871	-0.748124
H46	H	-4.119961	-0.923534	-0.922683
H47	H	-3.965541	-0.780809	-0.845026
H48	H	-4.196668	-0.805807	-0.909390
H49	H	-4.079463	-0.880819	-0.704492
H50	H	-4.310592	-0.905842	-0.768857
O51	O	-4.095739	-0.173656	-0.786890
C52	C	-4.154267	-0.288793	-0.753793
H53	H	-4.093436	-0.363510	-0.817602
H54	H	-4.083108	-0.263446	-0.644037
C55	C	-4.471213	-0.256103	-0.701339
C56	C	-4.396514	-0.347876	-0.779717
H57	H	-4.620642	-0.292546	-0.717323
H58	H	-4.431779	-0.178530	-0.723632
H59	H	-4.411894	-0.234988	-0.609882
H60	H	-4.455813	-0.368976	-0.871172
H61	H	-4.435965	-0.425454	-0.757440
H62	H	-3.603307	-0.154725	-0.820214
