data_functionalizedCrystal
_audit_creation_method	'MofGen! by Chris Wilmer'
_symmetry_space_group_name_H-M	'P1'
_symmetry_Int_Tables_number	1
_symmetry_cell_setting	triclinic
loop_
_symmetry_equiv_pos_as_xyz
  x,y,z
_cell_length_a	27.732064
_cell_length_b	27.732048
_cell_length_c	14.750779
_cell_angle_alpha	77.459753
_cell_angle_beta	102.543239
_cell_angle_gamma	82.646040
loop_
_atom_site_label
_atom_site_type_symbol
_atom_site_fract_x
_atom_site_fract_y
_atom_site_fract_z
O1	O	0.630371	0.068100	-0.079670
O2	O	1.130371	0.568100	0.420330
O3	O	0.489573	0.076842	-0.079711
O4	O	0.989573	0.576842	0.420289
O5	O	0.564348	0.002072	-0.079671
O6	O	1.064348	0.502072	0.420329
O7	O	0.555597	0.142870	-0.079710
O8	O	1.055597	0.642870	0.420290
O9	O	0.585485	-0.019062	0.079991
O10	O	1.085485	0.480938	0.579991
O11	O	0.510711	0.055708	0.079951
O12	O	1.010711	0.555708	0.579951
O13	O	0.651509	0.046966	0.079992
O14	O	1.151509	0.546966	0.579992
Zn15	Zn	0.584466	0.047981	0.105321
Zn16	Zn	1.084466	0.547981	0.605321
Zn17	Zn	0.556616	0.075827	-0.105040
Zn18	Zn	1.056616	0.575827	0.394960
O19	O	0.576735	0.121736	0.079952
O20	O	1.076735	0.621736	0.579952
C21	C	0.482135	0.066091	0.000115
C22	C	0.982135	0.566091	0.500115
C23	C	0.428478	0.065537	0.000100
C24	C	0.928478	0.565537	0.500100
C25	C	0.574733	-0.026502	0.000163
C26	C	1.074733	0.473498	0.500163
C27	C	0.574181	-0.080158	0.000171
C28	C	1.074181	0.419842	0.500171
C29	C	0.051415	0.017561	0.000168
C30	C	0.551415	0.517561	0.500168
C31	C	0.253072	0.019611	0.000143
C32	C	0.753072	0.519611	0.500143
O33	O	0.284330	-0.017616	0.000189
O34	O	0.784330	0.482384	0.500189
N35	N	0.272197	0.063947	0.000126
N36	N	0.772197	0.563947	0.500126
C37	C	0.240905	0.107774	0.000122
C38	C	0.740905	0.607774	0.500122
O39	O	0.261801	0.145530	0.000118
O40	O	0.761801	0.645530	0.500118
C41	C	0.039250	0.105722	0.000155
C42	C	0.539250	0.605722	0.500155
C43	C	0.020127	0.061384	0.000162
C44	C	0.520127	0.561384	0.500162
C45	C	0.032291	-0.026774	0.000176
C46	C	0.532291	0.473226	0.500176
C47	C	-0.018121	-0.027285	0.000177
C48	C	0.481879	0.472715	0.500177
C49	C	-0.049409	0.016539	0.000171
C50	C	0.450591	0.516539	0.500171
C51	C	-0.030285	0.060873	0.000163
C52	C	0.469715	0.560873	0.500163
C53	C	0.007961	0.149547	0.000158
C54	C	0.507961	0.649547	0.500158
C55	C	-0.042456	0.149030	0.000168
C56	C	0.457544	0.649030	0.500168
C57	C	-0.061579	0.104692	0.000175
C58	C	0.438421	0.604692	0.500175
C59	C	-0.111985	0.104185	0.000157
C60	C	0.388015	0.604185	0.500157
N61	N	-0.131110	0.059849	0.000174
N62	N	0.368890	0.559849	0.500174
C63	C	-0.099822	0.016025	0.000180
C64	C	0.400178	0.516025	0.500180
C65	C	0.346777	0.108847	0.000103
C66	C	0.846777	0.608847	0.500103
C67	C	0.397190	0.109361	0.000094
C68	C	0.897190	0.609361	0.500094
C69	C	0.409354	0.021197	0.000116
C70	C	0.909354	0.521197	0.500116
C71	C	0.358938	0.020686	0.000119
C72	C	0.858938	0.520686	0.500119
C73	C	0.327652	0.064511	0.000120
C74	C	0.827652	0.564511	0.500120
C75	C	-0.205692	0.014955	0.000182
C76	C	0.294308	0.514955	0.500182
C77	C	-0.256109	0.014448	0.000179
C78	C	0.243891	0.514448	0.500179
C79	C	-0.268267	0.102611	0.000162
C80	C	0.231733	0.602611	0.500162
C81	C	-0.217855	0.103119	0.000160
C82	C	0.282145	0.603119	0.500160
C83	C	-0.186567	0.059286	0.000173
C84	C	0.313433	0.559286	0.500173
O85	O	-0.143271	0.141391	0.000122
O86	O	0.356729	0.641391	0.500122
O87	O	-0.120725	-0.021728	0.000207
O88	O	0.379275	0.478272	0.500207
C89	C	0.101827	0.018072	0.000167
C90	C	0.601827	0.518072	0.500167
C91	C	0.120951	0.062407	0.000159
C92	C	0.620951	0.562407	0.500159
C93	C	0.089663	0.106230	0.000153
C94	C	0.589663	0.606230	0.500153
C95	C	0.171364	0.062920	0.000149
C96	C	0.671364	0.562920	0.500149
C97	C	0.202652	0.019097	0.000156
C98	C	0.702652	0.519097	0.500156
C99	C	0.183527	-0.025240	0.000173
C100	C	0.683527	0.474760	0.500173
C101	C	0.133115	-0.025751	0.000174
C102	C	0.633115	0.474249	0.500174
C103	C	0.108788	0.150567	0.000136
C104	C	0.608788	0.650567	0.500136
C105	C	0.159200	0.151075	0.000134
C106	C	0.659200	0.651075	0.500134
C107	C	0.190488	0.107251	0.000140
C108	C	0.690488	0.607251	0.500140
C109	C	0.614880	-0.418966	0.000133
C110	C	1.114880	0.081034	0.500133
C111	C	0.612827	-0.620624	0.000119
C112	C	1.112827	-0.120624	0.500119
O113	O	0.650043	-0.651873	0.000088
O114	O	1.150043	-0.151873	0.500088
N115	N	0.568491	-0.639749	0.000107
N116	N	1.068491	-0.139749	0.500107
C117	C	0.524663	-0.608455	0.000092
C118	C	1.024663	-0.108455	0.500092
O119	O	0.486904	-0.629347	0.000072
O120	O	0.986904	-0.129347	0.500072
C121	C	0.526716	-0.406797	0.000099
C122	C	1.026716	0.093203	0.500099
C123	C	0.571057	-0.387676	0.000121
C124	C	1.071057	0.112324	0.500121
C125	C	0.659217	-0.399845	0.000154
C126	C	1.159217	0.100155	0.500154
C127	C	0.659730	-0.349434	0.000162
C128	C	1.159730	0.150566	0.500162
C129	C	0.615907	-0.318144	0.000151
C130	C	1.115907	0.181856	0.500151
C131	C	0.571570	-0.337266	0.000130
C132	C	1.071570	0.162734	0.500130
C133	C	0.482888	-0.375503	0.000078
C134	C	0.982888	0.124497	0.500078
C135	C	0.483405	-0.325085	0.000077
C136	C	0.983405	0.174915	0.500077
C137	C	0.527746	-0.305965	0.000099
C138	C	1.027746	0.194035	0.500099
C139	C	0.528260	-0.255565	0.000127
C140	C	1.028260	0.244435	0.500127
N141	N	0.572596	-0.236440	0.000139
N142	N	1.072596	0.263560	0.500139
C143	C	0.616420	-0.267730	0.000151
C144	C	1.116420	0.232270	0.500151
C145	C	0.523589	-0.714329	0.000090
C146	C	1.023589	-0.214329	0.500090
C147	C	0.523076	-0.764743	0.000090
C148	C	1.023076	-0.264743	0.500090
C149	C	0.611240	-0.776909	0.000115
C150	C	1.111240	-0.276909	0.500115
C151	C	0.611753	-0.726494	0.000122
C152	C	1.111753	-0.226494	0.500122
C153	C	0.567926	-0.695204	0.000102
C154	C	1.067926	-0.195204	0.500102
C155	C	0.617495	-0.161863	0.000170
C156	C	1.117495	0.338137	0.500170
C157	C	0.618005	-0.111448	0.000182
C158	C	1.118005	0.388552	0.500182
C159	C	0.529841	-0.099286	0.000152
C160	C	1.029841	0.400714	0.500152
C161	C	0.529331	-0.149698	0.000145
C162	C	1.029331	0.350302	0.500145
C163	C	0.573162	-0.180985	0.000150
C164	C	1.073162	0.319015	0.500150
O165	O	0.491062	-0.224286	0.000147
O166	O	0.991062	0.275714	0.500147
O167	O	0.654171	-0.246825	0.000150
O168	O	1.154171	0.253175	0.500150
C169	C	0.614366	-0.469377	0.000124
C170	C	1.114366	0.030623	0.500124
C171	C	0.570030	-0.488498	0.000104
C172	C	1.070030	0.011502	0.500104
C173	C	0.526206	-0.457208	0.000092
C174	C	1.026206	0.042792	0.500092
C175	C	0.569517	-0.538912	0.000104
C176	C	1.069517	-0.038912	0.500104
C177	C	0.613340	-0.570202	0.000116
C178	C	1.113340	-0.070202	0.500116
C179	C	0.657676	-0.551077	0.000128
C180	C	1.157676	-0.051077	0.500128
C181	C	0.658190	-0.500666	0.000136
C182	C	1.158190	-0.000666	0.500136
C183	C	0.481870	-0.476333	0.000080
C184	C	0.981870	0.023667	0.500080
C185	C	0.481360	-0.526745	0.000072
C186	C	0.981360	-0.026745	0.500072
C187	C	0.525184	-0.558034	0.000084
C188	C	1.025184	-0.058034	0.500084
C189	C	0.658947	0.057717	0.000164
C190	C	1.158947	0.557717	0.500164
C191	C	0.712603	0.058272	0.000172
C192	C	1.212603	0.558272	0.500172
C193	C	0.566349	0.150311	0.000116
C194	C	1.066349	0.650311	0.500116
C195	C	0.566900	0.203967	0.000102
C196	C	1.066900	0.703967	0.500102
N197	N	0.603476	0.028977	0.248887
N198	N	1.103476	0.528977	0.748887
N199	N	0.537610	0.094827	-0.248606
N200	N	1.037610	0.594827	0.251394
C201	C	0.484517	0.147881	0.600642
C202	C	0.984517	0.647881	1.100642
C203	C	0.497841	0.134568	0.701148
C204	C	0.997841	0.634568	1.201148
C205	C	0.564067	0.068383	0.701146
C206	C	1.064067	0.568383	1.201146
C207	C	0.550747	0.081689	0.600638
C208	C	1.050747	0.581689	1.100638
C209	C	0.510971	0.121439	0.550393
C210	C	1.010971	0.621439	1.050393
C211	C	0.577201	0.055247	0.550389
C212	C	1.077201	0.555247	1.050389
C213	C	0.563883	0.068554	0.449890
C214	C	1.063883	0.568554	0.949890
C215	C	0.524110	0.108304	0.399639
C216	C	1.024110	0.608304	0.899639
C217	C	0.497653	0.134747	0.449894
C218	C	0.997653	0.634747	0.949894
C219	C	0.616979	0.015500	0.600636
C220	C	1.116979	0.515500	1.100636
C221	C	0.643433	-0.010943	0.550387
C222	C	1.143433	0.489057	1.050387
C223	C	0.630113	0.002362	0.449886
C224	C	1.130113	0.502362	0.949886
C225	C	0.590340	0.042112	0.399635
C226	C	1.090340	0.542112	0.899635
C227	C	0.656570	-0.024080	0.399631
C228	C	1.156570	0.475920	0.899631
C229	C	0.643252	-0.010773	0.299131
C230	C	1.143252	0.489227	0.799131
C231	C	0.577022	0.055419	0.299135
C232	C	1.077022	0.555419	0.799135
H233	H	-0.271677	-0.021658	0.000182
H234	H	0.228323	0.478342	0.500182
O235	O	-0.171950	-0.032318	0.000190
O236	O	0.328050	0.467682	0.500190
H237	H	-0.193726	-0.063228	0.000186
H238	H	0.306274	0.436772	0.500186
H239	H	0.465261	0.167112	0.408983
H240	H	0.965261	0.667112	0.908983
O241	O	0.534117	0.098287	0.244917
O242	O	1.034117	0.598287	0.744917
H243	H	0.542540	0.133382	0.264177
H244	H	1.042540	0.633382	0.764177
H245	H	0.694297	-0.485104	0.000154
H246	H	1.194297	0.014896	0.500154
H247	H	0.057762	-0.062462	0.000185
H248	H	0.557762	0.437538	0.500185
H249	H	0.513269	0.119140	0.317805
H250	H	1.013269	0.619140	0.817805
O251	O	0.665831	-0.090824	0.000205
O252	O	1.165831	0.409176	0.500205
H253	H	0.659557	-0.059524	-0.064863
H254	H	1.159557	0.440476	0.435137
H255	H	0.452124	0.180246	0.559731
H256	H	0.952124	0.680246	1.059731
H257	H	0.646923	-0.802393	0.000126
H258	H	1.146923	-0.302393	0.500126
H259	H	0.653185	-0.187332	0.000170
H260	H	1.153185	0.312668	0.500170
H261	H	0.664794	-0.032305	0.258219
H262	H	1.164794	0.467695	0.758219
H263	H	0.476296	0.156104	0.742055
H264	H	0.976296	0.656104	1.242055
H265	H	-0.033686	-0.063390	0.000187
H266	H	0.466314	0.436610	0.500187
H267	H	0.695836	-0.333871	0.000176
H268	H	1.195836	0.166129	0.500176
O269	O	0.217281	-0.072509	0.000193
O270	O	0.717281	0.427491	0.500193
H271	H	0.231926	-0.065769	-0.064876
H272	H	0.731926	0.434231	0.435124
H273	H	0.343372	-0.015418	0.000125
H274	H	0.843372	0.484582	0.500125
O275	O	0.179824	0.198900	0.000123
O276	O	0.679824	0.698900	0.500123
H277	H	0.211123	0.192622	0.065198
H278	H	0.711123	0.692622	0.565198
O279	O	0.704945	-0.584830	0.000141
O280	O	1.204945	-0.084830	0.500141
H281	H	0.697133	-0.623095	0.000126
H282	H	1.197133	-0.123095	0.500126
O283	O	0.028583	0.197366	0.000175
O284	O	0.528583	0.697366	0.500175
H285	H	-0.001648	0.227745	0.000191
H286	H	0.498352	0.727745	0.500191
H287	H	0.647859	-0.710930	0.000139
H288	H	1.147859	-0.210930	0.500139
H289	H	0.694905	-0.425316	0.000160
H290	H	1.194905	0.074684	0.500160
O291	O	0.476314	-0.680589	0.000083
O292	O	0.976314	-0.180589	0.500083
H293	H	0.465812	-0.648711	-0.064995
H294	H	0.965812	-0.148711	0.435005
O295	O	0.075043	0.197836	0.000124
O296	O	0.575043	0.697836	0.500124
H297	H	0.096816	0.228749	0.000106
H298	H	0.596816	0.728749	0.500106
H299	H	0.434837	-0.014485	0.000118
H300	H	0.934837	0.485515	0.500118
H301	H	0.627822	0.004668	0.682469
H302	H	1.127822	0.504668	1.182469
O303	O	0.417815	0.157182	0.000087
O304	O	0.917815	0.657182	0.500087
H305	H	0.387586	0.187564	0.000097
H306	H	0.887586	0.687564	0.500097
H307	H	0.596454	0.036019	0.742066
H308	H	1.096454	0.536019	1.242066
O309	O	0.475254	-0.785366	0.000080
O310	O	0.975254	-0.285366	0.500080
H311	H	0.444869	-0.755133	0.000062
H312	H	0.944869	-0.255133	0.500062
H313	H	0.321307	0.144538	0.000103
H314	H	0.821307	0.644538	0.500103
H315	H	0.446781	-0.391061	0.000054
H316	H	0.946781	0.108939	0.500054
H317	H	-0.067927	0.184719	0.000174
H318	H	0.432073	0.684719	0.500174
H319	H	-0.202284	0.139222	0.000153
H320	H	0.297716	0.639222	0.500153
H321	H	-0.293752	0.138291	0.000152
H322	H	0.206248	0.638291	0.500152
H323	H	0.688958	-0.056442	0.440553
H324	H	1.188958	0.443558	0.940553
H325	H	0.445251	-0.542308	0.000063
H326	H	0.945251	-0.042308	0.500063
O327	O	0.436134	-0.291339	0.000070
O328	O	0.936134	0.208661	0.500070
H329	H	0.406281	-0.289481	-0.065010
H330	H	0.906281	0.210519	0.434990
H331	H	0.675820	-0.043306	0.591308
H332	H	1.175820	0.456694	1.091308
O333	O	0.481509	-0.170326	0.000124
O334	O	0.981509	0.329674	0.500124
H335	H	0.451122	-0.140096	0.000113
H336	H	0.951122	0.359904	0.500113
H337	H	0.117549	-0.061856	0.000180
H338	H	0.617549	0.438144	0.500180
O339	O	0.482576	-0.065534	0.000143
O340	O	0.982576	0.434466	0.500143
H341	H	0.472088	-0.033658	-0.064935
H342	H	0.972088	0.466342	0.435065
O343	O	0.434603	-0.442590	0.000084
O344	O	0.934603	0.057410	0.500084
H345	H	0.403693	-0.464364	0.000086
H346	H	0.903693	0.035636	0.500086
