data_functionalizedCrystal
_audit_creation_method	'MofGen! by Chris Wilmer'
_symmetry_space_group_name_H-M	'P1'
_symmetry_Int_Tables_number	1
_symmetry_cell_setting	triclinic
loop_
_symmetry_equiv_pos_as_xyz
  x,y,z
_cell_length_a	18.101398
_cell_length_b	29.839131
_cell_length_c	18.101389
_cell_angle_alpha	89.974766
_cell_angle_beta	89.977624
_cell_angle_gamma	90.036686
loop_
_atom_site_label
_atom_site_type_symbol
_atom_site_fract_x
_atom_site_fract_y
_atom_site_fract_z
Zn1	Zn	1.132054	-0.178940	-0.418824
Zn2	Zn	1.131931	-0.254062	-0.294976
Zn3	Zn	1.008217	-0.178940	-0.294985
Zn4	Zn	1.008141	-0.254037	-0.418765
O5	O	1.070086	-0.216495	-0.356887
O6	O	1.235670	-0.188915	-0.402416
O7	O	1.115501	-0.244107	-0.191344
O8	O	1.024727	-0.116073	-0.311441
O9	O	1.235581	-0.244106	-0.311426
O10	O	1.115709	-0.116073	-0.402425
O11	O	1.024608	-0.188916	-0.191351
O12	O	0.904574	-0.188892	-0.311384
O13	O	1.024598	-0.244065	-0.522406
O14	O	0.904518	-0.244065	-0.402324
O15	O	1.115636	-0.188891	-0.522449
O16	O	1.115428	-0.316925	-0.311369
O17	O	1.024479	-0.316908	-0.402315
C18	C	0.877675	-0.216476	-0.356849
C19	C	0.795361	-0.216479	-0.356850
C20	C	0.496270	-0.216507	-0.356912
C21	C	0.527606	-0.181620	-0.299974
C22	C	0.613224	-0.181714	-0.299731
C23	C	0.644653	-0.216493	-0.356881
C24	C	0.613521	-0.263816	-0.335553
C25	C	0.527876	-0.263622	-0.335157
C26	C	0.527886	-0.204483	-0.435313
C27	C	0.613537	-0.203429	-0.434885
C28	C	0.728512	-0.216488	-0.356865
C29	C	0.412411	-0.216516	-0.356926
C30	C	1.069952	-0.333217	-0.356851
C31	C	1.069963	-0.383152	-0.356860
C32	C	1.117529	-0.692792	-0.309601
C33	C	1.117620	-0.880465	-0.309629
O34	O	1.157956	-0.904727	-0.269420
N35	N	1.070239	-0.903937	-0.356943
C36	C	1.022836	-0.880487	-0.404257
O37	O	0.982543	-0.904758	-0.444506
C38	C	1.022749	-0.692815	-0.404231
C39	C	1.070127	-0.669346	-0.356909
C40	C	1.164904	-0.669322	-0.262283
C41	C	1.164878	-0.622407	-0.262273
C42	C	1.117476	-0.598961	-0.309582
C43	C	1.070101	-0.622430	-0.356899
C44	C	0.975349	-0.669367	-0.451548
C45	C	0.975333	-0.622446	-0.451539
C46	C	1.022712	-0.598976	-0.404217
C47	C	1.022673	-0.552069	-0.404198
N48	N	1.070054	-0.528597	-0.356884
C49	C	1.117456	-0.552043	-0.309576
C50	C	1.022884	-0.979018	-0.404266
C51	C	1.022905	-1.025936	-0.404272
C52	C	1.117690	-1.025910	-0.309645
C53	C	1.117665	-0.978991	-0.309636
C54	C	1.070265	-0.955546	-0.356952
C55	C	1.117397	-0.453517	-0.309559
C56	C	1.117364	-0.406598	-0.309551
C57	C	1.022582	-0.406628	-0.404181
C58	C	1.022611	-0.453543	-0.404186
C59	C	1.070025	-0.476987	-0.356872
O60	O	0.982364	-0.527778	-0.444393
O61	O	1.157754	-0.527764	-0.269344
C62	C	1.117555	-0.739707	-0.309610
C63	C	1.070180	-0.763177	-0.356928
C64	C	1.022778	-0.739731	-0.404236
C65	C	1.070200	-0.810095	-0.356934
C66	C	1.117602	-0.833540	-0.309625
C67	C	1.164982	-0.810069	-0.262311
C68	C	1.164956	-0.763153	-0.262302
C69	C	0.975397	-0.763203	-0.451550
C70	C	0.975427	-0.810118	-0.451556
C71	C	1.022828	-0.833564	-0.404247
C72	C	1.263248	-0.216513	-0.356927
C73	C	1.345562	-0.216521	-0.356943
C74	C	1.070122	-0.216475	-0.550049
C75	C	1.070137	-0.216467	-0.632364
C76	C	1.070240	-0.099316	-0.356941
C77	C	1.070306	-0.049382	-0.356963
C78	C	1.070165	-0.216432	-0.783072
C79	C	1.012896	-0.251139	-0.814399
C80	C	1.012687	-0.251017	-0.900017
C81	C	1.070193	-0.216398	-0.931455
C82	C	1.049320	-0.169022	-0.900375
C83	C	1.048888	-0.169243	-0.814729
C84	C	1.148458	-0.228680	-0.814646
C85	C	1.148054	-0.229705	-0.900296
C86	C	1.070209	-0.216376	-1.015314
C87	C	1.070147	-0.216451	-0.699213
C88	C	1.070092	-0.216482	-0.164477
C89	C	1.070220	-0.216363	-0.082163
H90	H	0.633677	-0.189663	-0.241637
O91	O	1.168828	-1.051206	-0.258633
H92	H	1.135724	-1.072619	-0.220927
O93	O	0.971499	-0.478854	-0.455220
H94	H	0.933849	-0.500261	-0.422039
H95	H	0.507145	-0.290496	-0.374819
H96	H	1.025761	-0.286384	-0.793800
H97	H	1.163797	-0.264572	-0.920607
O98	O	0.501039	-0.238136	-0.491516
H99	H	0.465352	-0.263306	-0.463794
O100	O	0.935853	-0.240245	-0.927151
H101	H	0.914970	-0.268472	-0.961182
H102	H	0.633876	-0.290506	-0.375726
H103	H	0.507863	-0.273820	-0.277842
O104	O	1.216039	-0.694608	-0.211259
H105	H	1.182931	-0.716017	-0.173550
H106	H	1.155945	-0.387490	-0.271013
H107	H	0.983986	-0.387531	-0.442696
O108	O	0.641872	-0.277562	-0.260449
H109	H	0.678126	-0.250768	-0.238193
O110	O	0.500375	-0.134988	-0.317455
H111	H	0.468633	-0.121828	-0.269694
O112	O	1.168773	-0.953678	-0.258605
H113	H	1.201738	-0.977869	-0.225715
O114	O	0.971739	-0.953733	-0.455285
H115	H	0.938790	-0.977941	-0.488171
H116	H	0.984317	-1.045041	-0.442799
O117	O	1.204977	-0.195200	-0.787808
H118	H	1.260096	-0.204071	-0.810336
O119	O	0.641111	-0.135230	-0.317434
H120	H	0.702429	-0.135250	-0.317280
O121	O	0.936481	-0.240517	-0.785895
H122	H	0.939113	-0.210625	-0.749516
H123	H	0.936765	-0.688468	-0.490080
H124	H	0.992736	-0.158472	-0.921820
O125	O	1.216125	-0.835360	-0.211299
H126	H	1.208186	-0.871927	-0.219270
O127	O	0.924323	-0.835430	-0.502600
H128	H	0.891366	-0.811240	-0.535498
H129	H	0.936798	-0.744117	-0.490076
O130	O	0.499086	-0.192034	-0.223462
H131	H	0.462688	-0.221949	-0.225811
O132	O	0.499334	-0.159568	-0.461003
H133	H	0.462286	-0.145313	-0.418172
O134	O	1.029928	-0.297545	-0.927862
H135	H	1.038487	-0.320336	-0.880154
H136	H	0.633891	-0.168605	-0.450967
H137	H	0.991668	-0.158880	-0.794748
O138	O	0.924198	-0.597158	-0.502564
H139	H	0.891254	-0.621363	-0.535461
O140	O	1.216065	-0.737842	-0.211269
H141	H	1.249031	-0.762034	-0.178384
O142	O	0.641849	-0.234644	-0.494094
H143	H	0.678704	-0.260071	-0.468736
O144	O	1.101761	-0.133811	-0.787277
H145	H	1.101853	-0.133705	-0.725959
O146	O	1.102891	-0.133817	-0.927344
H147	H	1.072471	-0.107980	-0.959273
H148	H	1.167506	-0.262650	-0.793043
H149	H	1.203459	-0.603301	-0.223741
O150	O	1.168527	-0.478800	-0.258524
H151	H	1.201456	-0.454592	-0.225618
O152	O	1.207583	-0.198662	-0.928622
H153	H	1.182491	-0.173149	-0.965512
