data_functionalizedCrystal
_audit_creation_method	'MofGen! by Chris Wilmer'
_symmetry_space_group_name_H-M	'P1'
_symmetry_Int_Tables_number	1
_symmetry_cell_setting	triclinic
loop_
_symmetry_equiv_pos_as_xyz
  x,y,z
_cell_length_a	27.732048
_cell_length_b	27.732064
_cell_length_c	9.130307
_cell_angle_alpha	90.001170
_cell_angle_beta	89.998491
_cell_angle_gamma	82.646039
loop_
_atom_site_label
_atom_site_type_symbol
_atom_site_fract_x
_atom_site_fract_y
_atom_site_fract_z
O1	O	0.640930	0.057517	0.121599
O2	O	0.500137	0.066262	0.121641
O3	O	0.574902	-0.008507	0.121624
O4	O	0.566165	0.132286	0.121616
O5	O	0.574897	-0.008510	-0.121975
O6	O	0.500132	0.066259	-0.121958
O7	O	0.640925	0.057514	-0.122000
Cu8	Cu	0.570528	0.061886	-0.144222
Cu9	Cu	0.570534	0.061890	0.143862
O10	O	0.566160	0.132283	-0.121983
C11	C	0.482127	0.066077	-0.000153
C12	C	0.428473	0.065524	-0.000136
C13	C	0.574715	-0.026515	-0.000171
C14	C	0.574159	-0.080169	-0.000157
N15	N	0.570526	0.061883	-0.346844
C16	C	0.089660	0.106228	-0.000202
C17	C	-0.112000	0.104177	-0.000215
O18	O	-0.143253	0.141397	-0.000281
N19	N	-0.131126	0.059842	-0.000210
C20	C	-0.099834	0.016017	-0.000211
O21	O	-0.120729	-0.021740	-0.000221
C22	C	0.101825	0.018068	-0.000208
C23	C	0.120948	0.062406	-0.000199
C24	C	0.108784	0.150562	-0.000194
C25	C	0.159196	0.151074	-0.000183
C26	C	0.190484	0.107252	-0.000180
C27	C	0.171360	0.062918	-0.000187
C28	C	0.133116	-0.025756	-0.000220
C29	C	0.183533	-0.025240	-0.000223
C30	C	0.202656	0.019098	-0.000213
C31	C	0.253060	0.019609	-0.000173
N32	N	0.272186	0.063944	-0.000178
C33	C	0.240898	0.107765	-0.000182
C34	C	-0.205708	0.014943	-0.000209
C35	C	-0.256123	0.014430	-0.000207
C36	C	-0.268285	0.102590	-0.000214
C37	C	-0.217870	0.103103	-0.000206
C38	C	-0.186582	0.059278	-0.000214
C39	C	0.346768	0.108838	-0.000157
C40	C	0.397185	0.109346	-0.000139
C41	C	0.409342	0.021186	-0.000140
C42	C	0.358930	0.020678	-0.000150
C43	C	0.327643	0.064507	-0.000163
O44	O	0.284342	-0.017592	-0.000124
O45	O	0.261803	0.145516	-0.000203
C46	C	0.039248	0.105716	-0.000213
C47	C	0.020124	0.061381	-0.000221
C48	C	0.051412	0.017560	-0.000218
C49	C	-0.030290	0.060868	-0.000219
C50	C	-0.061578	0.104690	-0.000222
C51	C	-0.042452	0.149025	-0.000228
C52	C	0.007960	0.149537	-0.000217
C53	C	0.032286	-0.026775	-0.000212
C54	C	-0.018127	-0.027284	-0.000222
C55	C	-0.049415	0.016538	-0.000225
C56	C	0.658934	0.057699	-0.000203
C57	C	0.712589	0.058252	-0.000210
C58	C	0.526192	-0.457242	-0.000137
C59	C	0.528238	-0.255582	-0.000135
O60	O	0.491017	-0.224329	-0.000066
N61	N	0.572572	-0.236454	-0.000148
C62	C	0.616398	-0.267745	-0.000152
O63	O	0.654154	-0.246849	-0.000148
C64	C	0.614351	-0.469405	-0.000143
C65	C	0.570014	-0.488529	-0.000145
C66	C	0.481858	-0.476367	-0.000137
C67	C	0.481347	-0.526779	-0.000145
C68	C	0.525169	-0.558066	-0.000153
C69	C	0.569503	-0.538941	-0.000153
C70	C	0.658177	-0.500695	-0.000137
C71	C	0.657661	-0.551112	-0.000131
C72	C	0.613324	-0.570237	-0.000132
C73	C	0.612814	-0.620640	-0.000170
N74	N	0.568480	-0.639768	-0.000157
C75	C	0.524658	-0.608481	-0.000148
C76	C	0.617469	-0.161871	-0.000160
C77	C	0.617981	-0.111456	-0.000165
C78	C	0.529821	-0.099296	-0.000145
C79	C	0.529310	-0.149712	-0.000151
C80	C	0.573135	-0.180998	-0.000147
C81	C	0.523588	-0.714350	-0.000167
C82	C	0.523080	-0.764767	-0.000181
C83	C	0.611241	-0.776923	-0.000193
C84	C	0.611748	-0.726511	-0.000187
C85	C	0.567918	-0.695225	-0.000169
O86	O	0.650016	-0.651921	-0.000223
O87	O	0.486907	-0.629387	-0.000120
C88	C	0.526703	-0.406830	-0.000128
C89	C	0.571036	-0.387705	-0.000128
C90	C	0.614859	-0.418992	-0.000137
C91	C	0.571548	-0.337290	-0.000133
C92	C	0.527726	-0.306003	-0.000125
C93	C	0.483391	-0.325131	-0.000112
C94	C	0.482880	-0.375543	-0.000120
C95	C	0.659193	-0.399865	-0.000150
C96	C	0.659701	-0.349452	-0.000143
C97	C	0.615878	-0.318165	-0.000135
C98	C	0.566347	0.150291	-0.000185
C99	C	0.566903	0.203945	-0.000190
C100	C	0.512336	0.003646	-0.346882
C101	C	0.483246	-0.025474	-0.423567
C102	C	0.483253	-0.025475	-0.576900
C103	C	0.512352	0.003649	-0.653552
C104	C	0.541442	0.032769	-0.576867
C105	C	0.541433	0.032765	-0.423530
C106	C	0.599629	0.091009	-0.576829
C107	C	0.599626	0.091007	-0.423496
C108	C	0.628728	0.120133	-0.653481
C109	C	0.657822	0.149251	-0.576796
C110	C	0.657814	0.149250	-0.423453
C111	C	0.628716	0.120127	-0.346811
N112	N	0.570539	0.061889	0.346485
H113	H	0.412752	0.145453	-0.000131
F114	F	0.452277	-0.056467	-0.341979
F115	F	0.216829	-0.071886	-0.000236
H116	H	0.487897	-0.688883	-0.000152
H117	H	-0.067936	0.184706	-0.000225
F118	F	0.705367	-0.480352	-0.000109
F119	F	-0.038473	-0.074478	-0.000213
F120	F	0.435690	-0.395890	-0.000119
H121	H	0.446171	-0.450897	-0.000125
H122	H	0.459563	-0.049184	-0.639337
H123	H	0.057756	-0.062461	-0.000213
F124	F	0.628732	0.120135	-0.816673
F125	F	0.512351	0.003654	-0.816744
H126	H	0.512331	0.003639	-0.222029
H127	H	0.486974	-0.780335	-0.000189
F128	F	0.706894	-0.329105	-0.000144
H129	H	0.343359	-0.015426	-0.000136
H130	H	0.445243	-0.542345	-0.000134
H131	H	0.681509	0.172964	-0.639218
H132	H	0.434826	-0.014492	-0.000132
H133	H	0.681500	0.172966	-0.361025
F134	F	0.313477	0.155486	-0.000172
F135	F	0.028306	0.196728	-0.000207
F136	F	0.628707	0.120122	-0.183619
F137	F	-0.172415	-0.031705	-0.000217
F138	F	0.075491	0.197208	-0.000198
F139	F	0.179542	0.198265	-0.000180
H140	H	-0.293769	0.138272	-0.000217
F141	F	-0.197522	0.150292	-0.000198
H142	H	0.653160	-0.187341	-0.000159
H143	H	0.493206	-0.165279	-0.000158
F144	F	0.705838	-0.433157	-0.000161
H145	H	0.494139	-0.073813	-0.000145
H146	H	-0.271688	-0.021674	-0.000192
F147	F	0.112774	-0.072947	-0.000209
H148	H	0.654085	-0.095890	-0.000187
H149	H	0.693350	-0.576584	-0.000120
H150	H	0.647851	-0.710939	-0.000206
F151	F	0.436752	-0.291824	-0.000109
F152	F	0.657877	-0.810230	-0.000213
