data_functionalizedCrystal
_audit_creation_method	'MofGen! by Chris Wilmer'
_symmetry_space_group_name_H-M	'P1'
_symmetry_Int_Tables_number	1
_symmetry_cell_setting	triclinic
loop_
_symmetry_equiv_pos_as_xyz
  x,y,z
_cell_length_a	15.944493
_cell_length_b	23.532357
_cell_length_c	14.421503
_cell_angle_alpha	89.998741
_cell_angle_beta	89.992936
_cell_angle_gamma	83.151668
loop_
_atom_site_label
_atom_site_type_symbol
_atom_site_fract_x
_atom_site_fract_y
_atom_site_fract_z
O1	O	1.113923	0.073287	-0.077111
O2	O	0.869287	0.082377	-0.077117
O3	O	0.999004	-0.005074	-0.077095
O4	O	0.984206	0.160738	-0.077133
O5	O	0.998982	-0.005061	0.077129
O6	O	0.869266	0.082390	0.077107
O7	O	1.113901	0.073300	0.077113
Cu8	Cu	0.991582	0.077846	0.091191
Cu9	Cu	0.991607	0.077830	-0.091196
O10	O	0.984185	0.160751	0.077090
C11	C	0.837985	0.082012	-0.000006
C12	C	0.744746	0.080898	-0.000007
C13	C	0.508539	0.132374	-0.000020
C14	C	0.458211	0.104621	0.076031
C15	C	0.574043	0.078834	-0.000005
C16	C	0.458237	0.104596	-0.076021
C17	C	0.409151	0.076844	-0.000007
C18	C	0.524943	0.051096	0.076109
C19	C	0.524973	0.051078	-0.076012
C20	C	0.474678	0.023287	0.000057
C21	C	0.669033	0.079982	-0.000003
C22	C	0.314164	0.075692	-0.000002
C23	C	0.998623	-0.026286	0.000020
C24	C	0.997510	-0.089509	0.000029
C25	C	0.990536	-0.481553	-0.084089
C26	C	0.989478	-0.540956	-0.084094
O27	O	0.988912	-0.571681	-0.155590
N28	N	0.988941	-0.570663	-0.000028
C29	C	0.989455	-0.540961	0.084049
O30	O	0.988900	-0.571683	0.155553
C31	C	0.990506	-0.481558	0.084053
C32	C	0.991051	-0.451856	-0.000018
C33	C	0.991080	-0.451851	-0.168153
C34	C	0.992139	-0.392452	-0.168148
C35	C	0.992654	-0.362755	-0.084077
C36	C	0.992111	-0.392457	-0.000013
C37	C	0.991013	-0.451858	0.168129
C38	C	0.992065	-0.392451	0.168126
C39	C	0.992609	-0.362749	0.084055
C40	C	0.993685	-0.303361	0.084063
N41	N	0.994222	-0.273655	-0.000003
C42	C	0.993706	-0.303352	-0.084073
C43	C	0.987244	-0.665711	0.084033
C44	C	0.986198	-0.725113	0.084030
C45	C	0.986220	-0.725104	-0.084113
C46	C	0.987272	-0.665701	-0.084109
C47	C	0.987780	-0.636005	-0.000033
C48	C	0.995932	-0.178609	-0.084055
C49	C	0.996995	-0.119205	-0.084042
C50	C	0.996968	-0.119219	0.084101
C51	C	0.995910	-0.178619	0.084088
C52	C	0.995389	-0.208312	0.000003
O53	O	0.994248	-0.272599	0.155523
O54	O	0.994249	-0.272622	-0.155565
C55	C	1.145204	0.073665	-0.000001
C56	C	1.238442	0.074778	-0.000005
C57	C	0.984566	0.181962	-0.000026
C58	C	0.985678	0.245185	-0.000041
N59	N	0.991570	0.077856	0.219473
N60	N	0.991625	0.077816	-0.219477
C61	C	0.931579	0.118276	0.469116
C62	C	1.007385	0.129322	0.530917
C63	C	0.991590	0.077843	0.408634
C64	C	0.915804	0.066810	0.530927
C65	C	0.991603	0.077831	0.591355
C66	C	1.067435	0.088914	0.469075
C67	C	0.975804	0.026380	0.469078
C68	C	1.051665	0.037405	0.530852
C69	C	0.991582	0.077851	0.303373
C70	C	0.991621	0.077822	0.696614
H71	H	0.554124	0.028479	-0.140299
H72	H	0.962415	-0.017121	0.441894
O73	O	0.423588	0.131649	-0.152699
C74	C	0.440449	0.189118	-0.152412
H75	H	0.498479	0.193263	-0.107889
H76	H	0.452716	0.203120	-0.226366
H77	H	0.383788	0.217440	-0.122752
O78	O	0.987665	-0.636782	-0.165722
C79	C	0.915494	-0.595980	-0.170758
H80	H	0.891400	-0.584921	-0.097763
H81	H	0.932580	-0.555663	-0.206361
H82	H	0.864142	-0.614363	-0.212222
H83	H	0.880880	0.152496	0.442010
O84	O	0.985563	-0.753969	-0.165759
C85	C	0.912204	-0.781878	-0.170774
H86	H	0.861664	-0.759457	-0.123067
H87	H	0.887776	-0.780385	-0.245129
H88	H	0.927850	-0.828358	-0.148183
H89	H	0.995474	-0.202804	0.152546
H90	H	0.997440	-0.095025	-0.152506
O91	O	1.112341	-0.003404	0.562840
C92	C	1.155129	-0.031606	0.487192
H93	H	1.148023	-0.002666	0.423590
H94	H	1.224957	-0.042013	0.504870
H95	H	1.127009	-0.072944	0.471947
H96	H	0.992579	-0.368273	-0.236608
H97	H	0.995503	-0.202778	-0.152525
O98	O	1.143851	0.100231	0.436788
C99	C	1.133229	0.150366	0.382409
H100	H	1.072005	0.177488	0.402966
H101	H	1.188758	0.175854	0.394275
H102	H	1.130337	0.138297	0.306016
H103	H	0.553959	0.028504	0.140467
O104	O	0.990621	-0.480608	-0.249909
C105	C	0.991304	-0.441640	-0.324093
H106	H	1.018641	-0.401660	-0.299425
H107	H	1.031801	-0.462415	-0.382893
H108	H	0.924023	-0.429336	-0.349950
O109	O	0.526821	0.187365	0.000174
C110	C	0.574746	0.196806	0.079657
H111	H	0.607879	0.154211	0.105788
H112	H	0.623919	0.226404	0.061366
H113	H	0.531196	0.217438	0.136090
O114	O	0.839373	0.055576	0.563291
C115	C	0.822240	0.001726	0.530411
H116	H	0.884108	-0.025375	0.512087
H117	H	0.788134	-0.020792	0.586509
H118	H	0.780625	0.007799	0.466052
O119	O	0.423407	0.131508	0.152781
C120	C	0.382600	0.092604	0.205797
H121	H	0.410902	0.047004	0.188825
H122	H	0.391616	0.101285	0.282705
H123	H	0.312286	0.098066	0.188732
O124	O	0.456738	-0.031781	0.000282
C125	C	0.491051	-0.059789	0.080553
H126	H	0.499981	-0.026713	0.136327
H127	H	0.446199	-0.090397	0.107102
H128	H	0.554716	-0.084904	0.063139
H129	H	0.985768	-0.749293	0.152489
O130	O	0.987783	-0.636958	0.165794
C131	C	0.987062	-0.675919	0.239983
H132	H	1.012912	-0.720622	0.215324
H133	H	1.028144	-0.662385	0.298788
H134	H	0.919548	-0.676256	0.265828
O135	O	0.990442	-0.480609	0.249880
C136	C	0.991138	-0.441650	0.324071
H137	H	0.965304	-0.396945	0.299409
H138	H	0.950029	-0.455182	0.382866
H139	H	1.058641	-0.441318	0.349933
O140	O	0.992672	-0.363555	0.249744
C141	C	1.066050	-0.335670	0.254808
H142	H	1.090482	-0.328916	0.181822
H143	H	1.050421	-0.292449	0.290402
H144	H	1.116582	-0.363094	0.296294
O145	O	0.997313	-0.090322	0.165735
C146	C	0.925172	-0.049491	0.170725
H147	H	0.874016	-0.062886	0.123012
H148	H	0.900738	-0.046637	0.245074
H149	H	0.942424	-0.005935	0.148125
H150	H	1.020749	0.172837	0.558080
