data_functionalizedCrystal
_audit_creation_method	'MofGen! by Chris Wilmer'
_symmetry_space_group_name_H-M	'P1'
_symmetry_Int_Tables_number	1
_symmetry_cell_setting	triclinic
loop_
_symmetry_equiv_pos_as_xyz
  x,y,z
_cell_length_a	19.121424
_cell_length_b	19.121063
_cell_length_c	19.121595
_cell_angle_alpha	90.075983
_cell_angle_beta	90.080792
_cell_angle_gamma	94.804615
loop_
_atom_site_label
_atom_site_type_symbol
_atom_site_fract_x
_atom_site_fract_y
_atom_site_fract_z
Zn1	Zn	1.079759	-0.218149	-0.360513
Zn2	Zn	1.069669	-0.340801	-0.248716
Zn3	Zn	0.957117	-0.228174	-0.248716
Zn4	Zn	0.957500	-0.340342	-0.370877
O5	O	1.016011	-0.281867	-0.307205
O6	O	1.176689	-0.230416	-0.341345
O7	O	1.050356	-0.330248	-0.150804
O8	O	0.977448	-0.128571	-0.259210
O9	O	1.169277	-0.320527	-0.259208
O10	O	1.067552	-0.121206	-0.341346
O11	O	0.967665	-0.247501	-0.150804
O12	O	0.858899	-0.247057	-0.269259
O13	O	0.978101	-0.319746	-0.467414
O14	O	0.859180	-0.329466	-0.359009
O15	O	1.067924	-0.229971	-0.459800
O16	O	1.050727	-0.439013	-0.269257
O17	O	0.968317	-0.438676	-0.359009
C18	C	0.833559	-0.289300	-0.315259
C19	C	0.755506	-0.292496	-0.318722
C20	C	0.314061	-0.312704	-0.340702
C21	C	0.387400	-0.309707	-0.337436
C22	C	0.423906	-0.265226	-0.289145
C23	C	0.387069	-0.223745	-0.244113
C24	C	0.313731	-0.226747	-0.247377
C25	C	0.645331	-0.254017	-0.276954
C26	C	0.718674	-0.251017	-0.273695
C27	C	0.718999	-0.336980	-0.367017
C28	C	0.645660	-0.339974	-0.370279
C29	C	0.608830	-0.298496	-0.325245
C30	C	0.498870	-0.262160	-0.285807
C31	C	0.533866	-0.301567	-0.328580
C32	C	1.008489	-0.464325	-0.315272
C33	C	1.005336	-0.542377	-0.318743
C34	C	1.046797	-0.579196	-0.273681
C35	C	1.043836	-0.652534	-0.276950
C36	C	0.999409	-0.689053	-0.325278
C37	C	0.957946	-0.652229	-0.370345
C38	C	0.960911	-0.578892	-0.367079
C39	C	0.988312	-0.910477	-0.337478
C40	C	0.985348	-0.983819	-0.340739
C41	C	1.071240	-0.984119	-0.247345
C42	C	1.074198	-0.910780	-0.244080
C43	C	1.032737	-0.873963	-0.289150
C44	C	0.996380	-0.764017	-0.328619
C45	C	1.035771	-0.799000	-0.285812
C46	C	1.199176	-0.274405	-0.299120
C47	C	1.277229	-0.271225	-0.295675
C48	C	1.024180	-0.273689	-0.489704
C49	C	1.027661	-0.270204	-0.567474
C50	C	1.023583	-0.098695	-0.299122
C51	C	1.026810	-0.020638	-0.295677
C52	C	0.982532	-0.315305	-0.607976
C53	C	0.985809	-0.312030	-0.681049
C54	C	1.034212	-0.263651	-0.713619
C55	C	1.079346	-0.218549	-0.673112
C56	C	1.076073	-0.221827	-0.600040
C57	C	1.046440	-0.251417	-0.934049
C58	C	1.049709	-0.248141	-1.007126
C59	C	0.956172	-0.341623	-1.015059
C60	C	0.952899	-0.344895	-0.941985
C61	C	0.998036	-0.299795	-0.901485
C62	C	1.037561	-0.260302	-0.788311
C63	C	0.994690	-0.303148	-0.826794
C64	C	1.007916	-0.289960	-0.125413
C65	C	1.004579	-0.293241	-0.047628
H66	H	0.284343	-0.348921	-0.380029
C67	C	1.125717	-0.172212	-0.555488
N68	N	1.163112	-0.134840	-0.521932
H69	H	0.283744	-0.192968	-0.210713
H70	H	0.504140	-0.337785	-0.367896
C71	C	1.095669	-0.539032	-0.220514
N72	N	1.132483	-0.508782	-0.180469
H73	H	1.089123	-0.208739	-1.033642
H74	H	1.110374	-0.881048	-0.204728
C75	C	0.909073	-0.692403	-0.423504
N76	N	0.872258	-0.722662	-0.463542
H77	H	0.748396	-0.214786	-0.234376
H78	H	0.949060	-0.348757	-0.714023
C79	C	0.941446	-0.356362	-0.790965
N80	N	0.901340	-0.396440	-0.763972
C81	C	1.132587	-0.165327	-0.708941
N82	N	1.172685	-0.125236	-0.735927
H83	H	1.083194	-0.214694	-0.901082
C84	C	1.090793	-0.207076	-0.824145
N85	N	1.130886	-0.166984	-0.851138
H86	H	1.104996	-1.014103	-0.210653
H87	H	0.528602	-0.225942	-0.246489
H88	H	1.077599	-0.682508	-0.240255
H89	H	0.954551	-0.880506	-0.374174
C90	C	0.936477	-1.023988	-0.393911
N91	N	0.899671	-1.054244	-0.433958
C92	C	1.084638	-0.758827	-0.232651
N93	N	1.121441	-0.728563	-0.192607
C94	C	0.915300	-0.538392	-0.416652
N95	N	0.880946	-0.507888	-0.453993
C96	C	0.906525	-0.391230	-1.059615
N97	N	0.869130	-0.428597	-1.093176
H98	H	0.960206	-0.793759	-0.367967
H99	H	0.913495	-0.384300	-0.915472
C100	C	0.427911	-0.355340	-0.386967
N101	N	0.458424	-0.389714	-0.424275
C102	C	0.605507	-0.388922	-0.423387
N103	N	0.575264	-0.425795	-0.463385
C104	C	0.604827	-0.208379	-0.227424
N105	N	0.574318	-0.174000	-0.190118
H106	H	0.748995	-0.370749	-0.403680
H107	H	0.416798	-0.187532	-0.204791
C108	C	0.929283	-0.368525	-0.572156
N109	N	0.889177	-0.408614	-0.545179
