data_functionalizedCrystal
_audit_creation_method	'MofGen! by Chris Wilmer'
_symmetry_space_group_name_H-M	'P1'
_symmetry_Int_Tables_number	1
_symmetry_cell_setting	triclinic
loop_
_symmetry_equiv_pos_as_xyz
  x,y,z
_cell_length_a	16.992698
_cell_length_b	16.956984
_cell_length_c	16.053820
_cell_angle_alpha	92.380718
_cell_angle_beta	92.753702
_cell_angle_gamma	96.639820
loop_
_atom_site_label
_atom_site_type_symbol
_atom_site_fract_x
_atom_site_fract_y
_atom_site_fract_z
O1	O	-1.025959	0.171507	0.069446
O2	O	-0.797793	0.169662	0.069444
O3	O	-0.925584	0.055379	0.069439
O4	O	-0.898167	0.285791	0.069451
O5	O	-0.932611	0.049110	-0.069420
O6	O	-0.804820	0.163394	-0.069415
O7	O	-1.032985	0.165238	-0.069413
Zn8	Zn	-0.920018	0.163321	-0.091461
Zn9	Zn	-0.910760	0.171580	0.091492
O10	O	-0.905194	0.279522	-0.069408
C11	C	-0.772248	0.164152	0.000014
C12	C	-0.685663	0.157062	0.000014
C13	C	-0.199791	0.109426	0.000010
C14	C	-0.281146	0.116093	0.000006
C15	C	-0.307822	0.191177	0.000013
C16	C	-0.253139	0.259597	0.000017
C17	C	-0.171786	0.252928	0.000015
C18	C	-0.549627	0.218814	0.000015
C19	C	-0.630987	0.225477	0.000019
C20	C	-0.658988	0.081973	0.000007
C21	C	-0.577633	0.075311	0.000010
C22	C	-0.522957	0.143731	0.000009
N23	N	-0.390979	0.197994	0.000012
N24	N	-0.439802	0.136913	0.000004
C25	C	-0.058530	0.170750	0.000016
C26	C	-0.145115	0.177841	0.000015
C27	C	-0.930501	0.022626	0.000010
C28	C	-0.934675	-0.065629	0.000011
C29	C	-0.864889	-0.102159	0.000014
C30	C	-0.868816	-0.185084	0.000012
C31	C	-0.942528	-0.231477	0.000012
C32	C	-1.012319	-0.194941	0.000007
C33	C	-1.008392	-0.112018	0.000003
C34	C	-0.961967	-0.480011	0.000018
C35	C	-0.965889	-0.562940	0.000024
C36	C	-0.822384	-0.553077	0.000028
C37	C	-0.818464	-0.470152	0.000029
C38	C	-0.888255	-0.433624	0.000019
N39	N	-0.946543	-0.316240	0.000013
N40	N	-0.884239	-0.348863	0.000013
C41	C	-0.900277	0.312275	0.000023
C42	C	-0.896103	0.400530	0.000028
N43	N	-0.904442	0.177211	0.216352
C44	C	-0.871868	0.206210	0.739986
C45	C	-0.876294	0.202276	0.652579
C46	C	-0.935183	0.149816	0.608867
C47	C	-0.989655	0.101292	0.652566
C48	C	-0.985232	0.105231	0.739971
C49	C	-0.954491	0.132626	0.347457
C50	C	-0.958909	0.128690	0.260045
C51	C	-0.845548	0.229675	0.260064
C52	C	-0.841128	0.233605	0.347471
C53	C	-0.895602	0.185085	0.391163
N54	N	-0.939707	0.145792	0.519523
N55	N	-0.891081	0.189114	0.480505
N56	N	-0.926334	0.157688	0.783679
H57	H	-0.127268	0.308639	0.000017
Br58	Br	-0.791938	0.277404	0.799300
H59	H	-0.804864	-0.064391	0.000018
H60	H	-0.765565	-0.582827	0.000035
H61	H	-0.831944	0.241787	0.617004
H62	H	-0.505119	0.274527	0.000018
H63	H	-0.758439	-0.432384	0.000031
Br64	Br	-1.059158	0.039383	0.799270
H65	H	-0.274865	0.320731	0.000018
H66	H	-0.555920	0.014170	0.000003
Br67	Br	-1.056682	-0.430446	0.000034
Br68	Br	-0.355348	0.023239	-0.000011
Br69	Br	-1.112360	-0.257903	-0.000006
Br70	Br	-1.028417	0.066777	0.406748
Br71	Br	-0.667188	0.327383	0.000032
Br72	Br	-1.065933	-0.625902	0.000034
Br73	Br	-0.774102	-0.234658	0.000015
Br74	Br	-1.103106	-0.062441	-0.000014
H75	H	-1.037607	0.058581	0.616971
H76	H	-0.793176	0.276322	0.383060
H77	H	-0.801199	0.269179	0.224483
H78	H	-0.178079	0.048285	0.000008
Br79	Br	-0.733194	-0.010878	0.000003
Br80	Br	-1.038834	0.057484	0.200727
