data_functionalizedCrystal
_audit_creation_method	'MofGen! by Chris Wilmer'
_symmetry_space_group_name_H-M	'P1'
_symmetry_Int_Tables_number	1
_symmetry_cell_setting	triclinic
loop_
_symmetry_equiv_pos_as_xyz
  x,y,z
_cell_length_a	21.295418
_cell_length_b	21.295417
_cell_length_c	12.759393
_cell_angle_alpha	89.961905
_cell_angle_beta	89.958063
_cell_angle_gamma	90.046319
loop_
_atom_site_label
_atom_site_type_symbol
_atom_site_fract_x
_atom_site_fract_y
_atom_site_fract_z
Zn1	Zn	0.962345	-0.250313	-0.594554
Zn2	Zn	1.462345	0.249687	-0.094554
Zn3	Zn	0.962250	-0.355595	-0.418850
Zn4	Zn	1.462250	0.144405	0.081150
Zn5	Zn	0.857071	-0.250373	-0.418824
Zn6	Zn	1.357071	0.249627	0.081176
Zn7	Zn	0.857037	-0.355577	-0.594423
Zn8	Zn	1.357037	0.144423	-0.094423
O9	O	0.909676	-0.302964	-0.506663
O10	O	1.409676	0.197036	-0.006663
O11	O	1.050422	-0.264261	-0.571312
O12	O	1.550422	0.235739	-0.071312
O13	O	0.948273	-0.341669	-0.271826
O14	O	1.448273	0.158331	0.228174
O15	O	0.871090	-0.162275	-0.442179
O16	O	1.371090	0.337725	0.057821
O17	O	1.050352	-0.341612	-0.442223
O18	O	1.550352	0.158388	0.057777
O19	O	0.948434	-0.162231	-0.571286
O20	O	1.448434	0.337769	-0.071286
O21	O	0.870998	-0.264363	-0.271807
O22	O	1.370998	0.235637	0.228193
O23	O	0.768977	-0.264346	-0.442052
O24	O	1.268977	0.235654	0.057948
O25	O	0.871032	-0.341581	-0.741462
O26	O	1.371032	0.158419	-0.241462
O27	O	0.768952	-0.341639	-0.571064
O28	O	1.268952	0.158361	-0.071064
O29	O	0.948401	-0.264244	-0.741557
O30	O	1.448401	0.235756	-0.241557
O31	O	0.948240	-0.443682	-0.442097
O32	O	1.448240	0.056318	0.057903
O33	O	0.870940	-0.443669	-0.571089
O34	O	1.370940	0.056331	-0.071089
C35	C	0.746124	-0.302998	-0.506542
C36	C	1.246124	0.197002	-0.006542
C37	C	0.676156	-0.303027	-0.506515
C38	C	1.176156	0.196973	-0.006515
C39	C	0.643293	-0.343327	-0.573591
C40	C	1.143293	0.156673	-0.073591
C41	C	0.577550	-0.343311	-0.573638
C42	C	1.077550	0.156689	-0.073638
C43	C	0.544674	-0.303003	-0.506591
C44	C	1.044674	0.196997	-0.006591
C45	C	0.577545	-0.262695	-0.439510
C46	C	1.077545	0.237305	0.060490
C47	C	0.643286	-0.262707	-0.439472
C48	C	1.143286	0.237293	0.060528
N49	N	0.441399	-0.298091	-0.414700
N50	N	0.941399	0.201909	0.085300
N51	N	0.378948	-0.298083	-0.414738
N52	N	0.878948	0.201917	0.085262
C53	C	0.346599	-0.302962	-0.506702
C54	C	0.846599	0.197038	-0.006702
N55	N	0.379061	-0.307862	-0.598627
N56	N	0.879061	0.192138	-0.098627
N57	N	0.441518	-0.307873	-0.598587
N58	N	0.941518	0.192127	-0.098587
C59	C	0.473388	-0.302985	-0.506625
C60	C	0.973388	0.197015	-0.006625
C61	C	0.242450	-0.343248	-0.573835
C62	C	0.742450	0.156752	-0.073835
C63	C	0.176707	-0.343228	-0.573884
C64	C	0.676707	0.156772	-0.073884
C65	C	0.176702	-0.262614	-0.439746
C66	C	0.676702	0.237386	0.060254
C67	C	0.242445	-0.262631	-0.439707
C68	C	0.742445	0.237369	0.060293
C69	C	0.275315	-0.302951	-0.506750
C70	C	0.775315	0.197049	-0.006750
C71	C	0.909593	-0.466516	-0.506605
C72	C	1.409593	0.033484	-0.006605
C73	C	0.909616	-0.536484	-0.506615
C74	C	1.409616	-0.036484	-0.006615
C75	C	0.949901	-0.569337	-0.439517
C76	C	1.449901	-0.069337	0.060483
C77	C	0.949931	-0.635079	-0.439541
C78	C	1.449931	-0.135079	0.060459
C79	C	0.909663	-0.667967	-0.506651
C80	C	1.409663	-0.167967	-0.006651
C81	C	0.869375	-0.635106	-0.573762
C82	C	1.369375	-0.135106	-0.073762
C83	C	0.869351	-0.569365	-0.573744
C84	C	1.369351	-0.069365	-0.073744
N85	N	0.854596	-0.771247	-0.514620
N86	N	1.354596	-0.271247	-0.014620
N87	N	0.854621	-0.833699	-0.514631
N88	N	1.354621	-0.333699	-0.014631
C89	C	0.909734	-0.866041	-0.506711
C90	C	1.409734	-0.366041	-0.006711
N91	N	0.964823	-0.833573	-0.498760
N92	N	1.464823	-0.333573	0.001240
N93	N	0.964798	-0.771116	-0.498743
N94	N	1.464798	-0.271116	0.001257
C95	C	0.909685	-0.739252	-0.506679
C96	C	1.409685	-0.239252	-0.006679
C97	C	0.950055	-0.970179	-0.439636
C98	C	1.450055	-0.470179	0.060364
C99	C	0.950086	-1.035923	-0.439667
C100	C	1.450086	-0.535923	0.060333
C101	C	0.869524	-1.035949	-0.573882
C102	C	1.369524	-0.535949	-0.073882
C103	C	0.869499	-0.970206	-0.573857
C104	C	1.369499	-0.470206	-0.073857
C105	C	0.909764	-0.937326	-0.506728
C106	C	1.409764	-0.437326	-0.006728
C107	C	1.073866	-0.302932	-0.506785
C108	C	1.573866	0.197068	-0.006785
C109	C	1.143834	-0.302918	-0.506837
C110	C	1.643834	0.197082	-0.006837
C111	C	0.909723	-0.302904	-0.780696
C112	C	1.409723	0.197096	-0.280696
C113	C	0.909743	-0.302878	-0.897473
C114	C	1.409743	0.197122	-0.397473
C115	C	0.909776	-0.138774	-0.506744
C116	C	1.409776	0.361226	-0.006744
C117	C	0.909818	-0.068806	-0.506779
C118	C	1.409818	0.431194	-0.006779
C119	C	0.950032	-0.262602	-0.952387
C120	C	1.450032	0.237398	-0.452387
C121	C	0.950043	-0.262575	-1.062111
C122	C	1.450043	0.237425	-0.562111
C123	C	0.869474	-0.343105	-1.061998
C124	C	1.369474	0.156895	-0.561998
C125	C	0.869460	-0.343129	-0.952276
C126	C	1.369460	0.156871	-0.452276
C127	C	0.909665	-0.302979	-0.233695
C128	C	1.409665	0.197021	0.266305
C129	C	0.909767	-0.302828	-0.116919
C130	C	1.409767	0.197172	0.383081
H131	H	0.550772	-0.229874	-0.384921
H132	H	1.050772	0.270126	0.115079
H133	H	0.149934	-0.229791	-0.385160
H134	H	0.649934	0.270209	0.114840
H135	H	0.982831	-0.229826	-0.907769
H136	H	1.482831	0.270174	-0.407769
H137	H	0.836648	-0.375926	-0.907564
H138	H	1.336648	0.124074	-0.407564
H139	H	0.670043	-0.229888	-0.384851
H140	H	1.170043	0.270112	0.115149
H141	H	0.836740	-1.062725	-0.628529
H142	H	1.336740	-0.562725	-0.128529
H143	H	0.982849	-0.229777	-1.106817
H144	H	1.482849	0.270223	-0.606817
H145	H	0.982895	-1.062670	-0.385030
H146	H	1.482895	-0.562670	0.114970
H147	H	0.836678	-0.375877	-1.106632
H148	H	1.336678	0.124123	-0.606632
H149	H	0.836590	-0.661887	-0.628405
H150	H	1.336590	-0.161887	-0.128405
H151	H	0.269215	-0.376075	-0.628431
H152	H	0.769215	0.123925	-0.128431
H153	H	0.670052	-0.376158	-0.628184
H154	H	1.170052	0.123842	-0.128184
H155	H	0.982738	-0.661833	-0.384902
H156	H	1.482738	-0.161833	0.115098
H157	H	0.149951	-0.376044	-0.628512
H158	H	0.649951	0.123956	-0.128512
H159	H	0.550788	-0.376128	-0.628263
H160	H	1.050788	0.123872	-0.128263
H161	H	0.982689	-0.542567	-0.384860
H162	H	1.482689	-0.042567	0.115140
H163	H	0.836692	-0.943456	-0.628489
H164	H	1.336692	-0.443456	-0.128489
H165	H	0.836545	-0.542616	-0.628384
H166	H	1.336545	-0.042616	-0.128384
H167	H	0.269202	-0.229817	-0.385081
H168	H	0.769202	0.270183	0.114919
H169	H	0.982843	-0.943407	-0.384979
H170	H	1.482843	-0.443407	0.115021
