data_functionalizedCrystal
_audit_creation_method	'MofGen! by Chris Wilmer'
_symmetry_space_group_name_H-M	'P1'
_symmetry_Int_Tables_number	1
_symmetry_cell_setting	triclinic
loop_
_symmetry_equiv_pos_as_xyz
  x,y,z
_cell_length_a	12.837943
_cell_length_b	12.503572
_cell_length_c	12.784890
_cell_angle_alpha	86.847872
_cell_angle_beta	83.967749
_cell_angle_gamma	93.890817
loop_
_atom_site_label
_atom_site_type_symbol
_atom_site_fract_x
_atom_site_fract_y
_atom_site_fract_z
O1	O	1.357242	0.089299	0.268324
O2	O	1.857242	0.589299	0.768324
O3	O	1.056656	0.089306	0.254797
O4	O	1.556656	0.589306	0.754797
O5	O	1.228946	0.089297	0.109061
O6	O	1.728946	0.589297	0.609061
O7	O	1.184953	0.089309	0.414060
O8	O	1.684953	0.589309	0.914060
O9	O	1.215987	-0.089345	0.120041
O10	O	1.715987	0.410655	0.620041
O11	O	1.043697	-0.089335	0.265778
O12	O	1.543697	0.410665	0.765778
O13	O	1.344283	-0.089342	0.279304
O14	O	1.844283	0.410658	0.779304
Cu15	Cu	1.192807	-0.105650	0.273543
Cu16	Cu	1.692807	0.394350	0.773543
Cu17	Cu	1.208133	0.105614	0.260558
Cu18	Cu	1.708133	0.605614	0.760558
O19	O	1.171994	-0.089333	0.425040
O20	O	1.671994	0.410667	0.925040
C21	C	1.011968	-0.000014	0.255718
C22	C	1.511968	0.499986	0.755718
C23	C	0.898120	-0.000012	0.242090
C24	C	1.398120	0.499988	0.742090
N25	N	1.182035	-0.254242	0.282677
N26	N	1.682035	0.245758	0.782677
C27	C	0.642392	-0.000021	0.405922
C28	C	1.142392	0.499979	0.905922
C29	C	0.535420	-0.000019	0.393123
C30	C	1.035420	0.499981	0.893123
C31	C	0.577201	-0.000015	0.203692
C32	C	1.077201	0.499985	0.703692
C33	C	0.684173	-0.000017	0.216492
C34	C	1.184173	0.499983	0.716492
C35	C	0.716764	-0.000018	0.317610
C36	C	1.216764	0.499982	0.817610
C37	C	0.823739	-0.000011	0.330409
C38	C	1.323739	0.499989	0.830409
C39	C	0.865517	-0.000015	0.140979
C40	C	1.365517	0.499985	0.640979
C41	C	0.758545	-0.000014	0.128180
C42	C	1.258545	0.499986	0.628180
C43	C	1.166189	-0.473356	0.296121
C44	C	1.666189	0.026644	0.796121
C45	C	1.234756	-0.526687	0.237976
C46	C	1.734756	-0.026687	0.737976
C47	C	1.225939	-0.648610	0.245456
C48	C	1.725939	-0.148610	0.745456
C49	C	1.175005	-0.351422	0.288642
C50	C	1.675005	0.148578	0.788642
C51	C	1.388971	-0.000020	0.278383
C52	C	1.888971	0.499980	0.778383
C53	C	1.502820	-0.000015	0.292011
C54	C	2.002820	0.499985	0.792011
C55	C	1.225328	-0.000023	0.075241
C56	C	1.725328	0.499977	0.575241
C57	C	1.233842	-0.000021	-0.041890
C58	C	1.733842	0.499979	0.458110
N59	N	1.218913	0.254206	0.251417
N60	N	1.718913	0.754206	0.751417
C61	C	1.340542	-0.000021	-0.210060
C62	C	1.840542	0.499979	0.289940
C63	C	1.332550	-0.000023	-0.100004
C64	C	1.832550	0.499977	0.399996
C65	C	1.143120	-0.000019	-0.093840
C66	C	1.643120	0.499981	0.406160
C67	C	1.151113	-0.000017	-0.203895
C68	C	1.651113	0.499983	0.296105
C69	C	1.249828	-0.000017	-0.262002
C70	C	1.749828	0.499983	0.237998
C71	C	1.257820	-0.000007	-0.372060
C72	C	1.757820	0.499993	0.127940
C73	C	1.068391	-0.000011	-0.365892
C74	C	1.568391	0.499989	0.134108
C75	C	1.060398	-0.000013	-0.255837
C76	C	1.560398	0.499987	0.244163
C77	C	1.175612	-0.000010	0.458860
C78	C	1.675612	0.499990	0.958860
C79	C	1.167098	-0.000006	0.575991
C80	C	1.667098	0.499994	1.075991
H81	H	0.850272	-0.000014	0.412744
H82	H	1.350272	0.499986	0.912744
H83	H	0.550639	-0.000103	0.121372
H84	H	1.050639	0.499897	0.621372
C85	C	0.968598	-0.000002	-0.423037
C86	C	1.468598	0.499998	0.076963
N87	N	0.893437	0.000008	-0.466080
N88	N	1.393437	0.500008	0.033920
C89	C	1.323016	-0.464668	0.163147
C90	C	1.823016	0.035332	0.663147
N91	N	1.389496	-0.417951	0.106795
N92	N	1.889496	0.082049	0.606795
H93	H	0.980028	-0.000017	-0.208511
H94	H	1.480028	0.499983	0.291489
H95	H	1.062751	-0.000027	-0.046510
H96	H	1.562751	0.499973	0.453490
H97	H	1.100870	-0.519260	0.351517
H98	H	1.600870	-0.019260	0.851517
C99	C	0.722682	-0.000011	0.016955
C100	C	1.222682	0.499989	0.516955
N101	N	0.695671	-0.000004	-0.066822
N102	N	1.195671	0.499996	0.433178
H103	H	0.926084	-0.000005	0.069069
H104	H	1.426084	0.499995	0.569069
C105	C	0.678245	-0.000015	0.517151
C106	C	1.178245	0.499985	1.017151
N107	N	0.705248	-0.000011	0.600931
N108	N	1.205248	0.499989	1.100931
H109	H	1.338199	-0.000000	-0.419369
H110	H	1.838199	0.500000	0.080631
C111	C	1.449128	-0.000013	-0.273980
C112	C	1.949128	0.499987	0.226020
N113	N	1.530917	-0.000008	-0.322123
N114	N	2.030917	0.499992	0.177877
C115	C	1.432343	-0.000025	-0.042873
C116	C	1.932343	0.499975	0.457127
N117	N	1.507513	-0.000026	0.000159
N118	N	2.007513	0.499974	0.500159
H119	H	0.474868	-0.000025	0.465036
H120	H	0.974868	0.499975	0.965036
