data_functionalizedCrystal
_audit_creation_method	'MofGen! by Chris Wilmer'
_symmetry_space_group_name_H-M	'P1'
_symmetry_Int_Tables_number	1
_symmetry_cell_setting	triclinic
loop_
_symmetry_equiv_pos_as_xyz
  x,y,z
_cell_length_a	12.837943
_cell_length_b	10.540539
_cell_length_c	11.295483
_cell_angle_alpha	94.138588
_cell_angle_beta	85.461227
_cell_angle_gamma	89.677216
loop_
_atom_site_label
_atom_site_type_symbol
_atom_site_fract_x
_atom_site_fract_y
_atom_site_fract_z
O1	O	1.384822	0.322576	-0.098993
O2	O	1.082896	0.306260	-0.099000
O3	O	1.240747	0.130469	-0.098995
O4	O	1.226971	0.498368	-0.098998
O5	O	1.226883	0.145882	0.099055
O6	O	1.069032	0.321674	0.099050
O7	O	1.370958	0.337990	0.099057
Cu8	Cu	1.218729	0.331239	0.117137
Cu9	Cu	1.235125	0.313011	-0.117080
O10	O	1.213106	0.513782	0.099052
C11	C	1.037303	0.308455	0.000024
C12	C	0.922104	0.292017	0.000021
C13	C	0.682608	0.489637	0.000036
C14	C	0.574368	0.474197	0.000034
C15	C	0.597381	0.245700	0.000023
C16	C	0.705621	0.261140	0.000025
C17	C	0.748230	0.383112	0.000030
C18	C	0.856473	0.398549	0.000023
C19	C	0.879484	0.170054	0.000021
C20	C	0.771244	0.154615	0.000019
C21	C	1.232782	0.090759	0.000028
C22	C	1.229692	-0.050529	0.000022
C23	C	1.111280	-0.247004	-0.000426
C24	C	1.114382	-0.100007	0.000020
C25	C	1.277266	-0.097288	0.113119
C26	C	1.273324	-0.244258	0.113215
C27	C	1.291436	-0.262047	-0.112006
C28	C	1.292603	-0.115064	-0.113501
C29	C	1.416551	0.335795	0.000031
C30	C	1.531750	0.352233	0.000026
C31	C	1.221072	0.553491	0.000026
C32	C	1.224163	0.694779	0.000025
N33	N	1.207204	0.344061	0.281873
N34	N	1.246658	0.300181	-0.281816
C35	C	1.329620	0.207816	0.531167
C36	C	1.320918	0.217515	0.655830
C37	C	1.181093	0.373150	0.655866
C38	C	1.189795	0.363451	0.531202
C39	C	1.264062	0.280783	0.468857
C40	C	1.272769	0.271091	0.344192
C41	C	1.132940	0.426719	0.344229
C42	C	1.124238	0.436418	0.468892
H43	H	0.736536	0.055309	0.000029
H44	H	1.390098	0.140514	0.480405
C45	C	1.384860	-0.296217	0.120172
H46	H	1.432376	-0.227492	0.122937
H47	H	1.403561	-0.352170	0.051978
H48	H	1.387452	-0.341023	0.189918
C49	C	1.060835	0.507001	0.275686
H50	H	1.076652	0.489388	0.192512
H51	H	1.071315	0.594749	0.296127
H52	H	0.990054	0.486379	0.296122
H53	H	1.377150	-0.082138	-0.120328
H54	H	0.520940	0.560942	0.000042
H55	H	1.374300	0.158097	0.706559
C56	C	0.550503	0.111544	0.000022
H57	H	0.605086	0.050307	0.000025
H58	H	0.513585	0.095403	-0.069040
H59	H	0.503927	0.106149	0.069098
H60	H	1.063768	0.503721	0.519668
C61	C	1.391259	-0.054075	0.118816
H62	H	1.410895	-0.007014	0.052114
H63	H	1.435745	-0.126536	0.117771
H64	H	1.397457	-0.001988	0.190077
C65	C	0.729487	0.623792	0.000031
H66	H	0.803351	0.617729	0.000022
H67	H	0.702188	0.673585	0.069091
H68	H	0.711857	0.662821	-0.069046
C69	C	0.903348	0.532708	0.000028
H70	H	0.977212	0.526650	0.000017
H71	H	0.876048	0.582490	0.069095
H72	H	0.885714	0.571745	-0.069043
C73	C	0.951672	0.052872	0.000013
H74	H	1.022239	0.079532	0.000019
H75	H	0.943490	-0.001970	-0.069054
H76	H	0.933830	0.008771	0.069084
C77	C	1.063068	-0.057444	-0.109499
H78	H	1.064905	0.032656	-0.109376
H79	H	0.992561	-0.084668	-0.106709
H80	H	1.100096	-0.094054	-0.179987
H81	H	1.232827	-0.052374	0.197281
H82	H	1.071408	-0.286920	-0.081530
C83	C	1.245747	-0.074575	-0.226534
H84	H	1.188090	-0.018569	-0.204646
H85	H	1.222879	-0.147727	-0.270942
H86	H	1.297368	-0.032419	-0.273737
C87	C	1.042368	-0.286046	0.108526
H88	H	1.082093	-0.337668	0.154290
H89	H	0.984188	-0.332538	0.082523
H90	H	1.018327	-0.212008	0.155998
C91	C	1.099407	0.464071	0.724458
H92	H	1.103620	0.459396	0.807627
H93	H	1.031487	0.440269	0.704043
H94	H	1.112734	0.548654	0.704035
H95	H	1.064727	-0.056761	0.081226
C96	C	1.249126	-0.319211	-0.227808
H97	H	1.190030	-0.369948	-0.208911
H98	H	1.301878	-0.370421	-0.271968
H99	H	1.229338	-0.252520	-0.273976
H100	H	1.226395	-0.270383	0.197755
H101	H	1.374776	-0.300181	-0.112764
H102	H	1.333243	0.203782	0.293431
