data_functionalizedCrystal
_audit_creation_method	'MofGen! by Chris Wilmer'
_symmetry_space_group_name_H-M	'P1'
_symmetry_Int_Tables_number	1
_symmetry_cell_setting	triclinic
loop_
_symmetry_equiv_pos_as_xyz
  x,y,z
_cell_length_a	13.033293
_cell_length_b	17.077402
_cell_length_c	17.077396
_cell_angle_alpha	89.970216
_cell_angle_beta	97.208897
_cell_angle_gamma	82.807784
loop_
_atom_site_label
_atom_site_type_symbol
_atom_site_fract_x
_atom_site_fract_y
_atom_site_fract_z
Zn1	Zn	1.597736	0.160244	0.596522
Zn2	Zn	1.597612	0.291531	0.465242
Zn3	Zn	1.422967	0.176927	0.448569
Zn4	Zn	1.422925	0.308131	0.579771
O5	O	1.510310	0.234208	0.522526
O6	O	1.743968	0.163731	0.593096
O7	O	1.574411	0.276363	0.353180
O8	O	1.446220	0.064860	0.468228
O9	O	1.743877	0.260186	0.496644
O10	O	1.574622	0.052604	0.576929
O11	O	1.446100	0.192163	0.340930
O12	O	1.276713	0.208260	0.451985
O13	O	1.446148	0.288480	0.691844
O14	O	1.276682	0.304656	0.548379
O15	O	1.574581	0.179827	0.704151
O16	O	1.574370	0.403587	0.480401
O17	O	1.446028	0.415783	0.564546
C18	C	1.238777	0.260070	0.496555
C19	C	1.122613	0.271153	0.485464
C20	C	1.070869	0.228444	0.528315
C21	C	0.950808	0.239897	0.516852
C22	C	1.510209	0.438166	0.522485
C23	C	1.510261	0.525411	0.522503
C24	C	1.510373	0.234144	0.727276
C25	C	1.510400	0.234117	0.814529
C26	C	1.782903	0.208246	0.548598
C27	C	1.899067	0.197182	0.559709
C28	C	1.510440	0.029452	0.522587
C29	C	1.510495	-0.057803	0.522613
C30	C	1.577158	0.560017	0.478749
C31	C	1.577209	0.641993	0.478774
C32	C	1.510358	0.689361	0.522549
C33	C	1.443459	0.654748	0.566308
C34	C	1.443414	0.572774	0.566287
C35	C	1.443556	0.825609	0.566347
C36	C	1.443599	0.907590	0.566367
C37	C	1.577351	0.894828	0.478834
C38	C	1.577305	0.812854	0.478813
C39	C	1.510405	0.778247	0.522571
C40	C	1.510307	0.234210	0.318578
C41	C	1.510483	0.233996	0.231345
C42	C	1.577278	0.177538	0.861929
C43	C	1.577290	0.177510	0.943910
C44	C	1.510430	0.234067	0.978491
C45	C	1.443545	0.290649	0.931085
C46	C	1.443528	0.290672	0.849104
C47	C	1.443587	0.290598	1.101959
C48	C	1.443605	0.290576	1.183945
C49	C	1.577349	0.177436	1.196765
C50	C	1.577332	0.177459	1.114785
C51	C	1.510448	0.234043	1.067384
H52	H	1.631591	0.521456	0.443099
H53	H	0.906228	0.284943	0.471675
H54	H	1.389159	0.336628	1.212098
H55	H	0.943645	0.152130	0.604881
H56	H	1.389081	0.797436	0.601982
H57	H	1.078029	0.316196	0.440289
C58	C	1.650789	0.680058	0.430641
H59	H	1.690586	0.640108	0.404559
H60	H	1.696325	0.707649	0.465054
H61	H	1.610845	0.715893	0.392600
H62	H	1.631727	0.131485	0.833780
H63	H	1.631735	0.774287	0.443164
H64	H	1.388941	0.544598	0.601916
C65	C	1.650927	0.932893	0.430691
H66	H	1.641386	0.988498	0.436975
H67	H	1.635647	0.920957	0.376480
H68	H	1.721140	0.912719	0.448926
H69	H	1.389183	0.946153	0.602028
H70	H	1.631807	0.131362	1.235363
C71	C	1.369926	0.706847	0.614463
H72	H	1.330086	0.674492	0.640524
H73	H	1.324428	0.743213	0.580065
H74	H	1.409904	0.734966	0.652522
C75	C	1.650861	0.115276	0.996048
H76	H	1.690687	0.081604	0.963712
H77	H	1.610917	0.084866	1.024213
H78	H	1.696385	0.140967	1.032376
C79	C	1.370051	0.352861	1.049823
H80	H	1.330251	0.386553	1.082160
H81	H	1.324515	0.327205	1.013478
H82	H	1.410041	0.383257	1.021677
C83	C	1.369989	0.352927	0.796967
H84	H	1.330184	0.386616	0.829303
H85	H	1.324458	0.327260	0.760628
H86	H	1.409966	0.383327	0.768814
H87	H	1.389102	0.336696	0.959246
H88	H	1.115453	0.183397	0.573484
H89	H	1.631782	0.131410	1.086632
