data_functionalizedCrystal
_audit_creation_method	'MofGen! by Chris Wilmer'
_symmetry_space_group_name_H-M	'P1'
_symmetry_Int_Tables_number	1
_symmetry_cell_setting	triclinic
loop_
_symmetry_equiv_pos_as_xyz
  x,y,z
_cell_length_a	14.044220
_cell_length_b	9.065218
_cell_length_c	7.540329
_cell_angle_alpha	90.001757
_cell_angle_beta	89.998075
_cell_angle_gamma	89.102381
loop_
_atom_site_label
_atom_site_type_symbol
_atom_site_fract_x
_atom_site_fract_y
_atom_site_fract_z
O1	O	-1.260762	-0.356074	-0.147280
O2	O	-0.927428	-0.022741	0.186053
O3	O	-0.594095	0.310592	0.519386
O4	O	-0.984682	-0.343225	-0.147326
O5	O	-0.651349	-0.009892	0.186008
O6	O	-0.318016	0.323441	0.519341
O7	O	-1.128428	-0.135640	-0.147298
O8	O	-0.795095	0.197693	0.186035
O9	O	-0.461762	0.531027	0.519368
O10	O	-1.117015	-0.563660	-0.147308
O11	O	-0.783682	-0.230327	0.186026
O12	O	-0.450349	0.103007	0.519359
O13	O	-1.128420	-0.135636	0.147667
O14	O	-0.795086	0.197697	0.481000
O15	O	-0.461753	0.531031	0.814333
O16	O	-0.984673	-0.343221	0.147639
O17	O	-0.651340	-0.009888	0.480973
O18	O	-0.318007	0.323445	0.814306
O19	O	-1.260753	-0.356071	0.147685
O20	O	-0.927420	-0.022737	0.481018
O21	O	-0.594086	0.310596	0.814351
Cu22	Cu	-1.122712	-0.349646	0.174595
Cu23	Cu	-0.789379	-0.016312	0.507928
Cu24	Cu	-0.456046	0.317021	0.841261
Cu25	Cu	-1.122723	-0.349650	-0.174236
Cu26	Cu	-0.789389	-0.016317	0.159098
Cu27	Cu	-0.456056	0.317016	0.492431
O28	O	-1.117007	-0.563656	0.147657
O29	O	-0.783673	-0.230323	0.480991
O30	O	-0.450340	0.103011	0.814324
C31	C	-1.127327	-0.080530	0.000181
C32	C	-0.793994	0.252804	0.333514
C33	C	-0.460661	0.586137	0.666848
C34	C	-1.124048	0.083677	0.000172
C35	C	-0.790714	0.417010	0.333505
C36	C	-0.457381	0.750343	0.666839
C37	C	-0.949315	-0.337599	0.000151
C38	C	-0.615982	-0.004266	0.333484
C39	C	-0.282648	0.329068	0.666818
C40	C	-0.843945	-0.320822	0.000133
C41	C	-0.510612	0.012511	0.333467
C42	C	-0.177279	0.345845	0.666800
C43	C	-1.296120	-0.361697	0.000204
C44	C	-0.962787	-0.028364	0.333537
C45	C	-0.629453	0.304970	0.666871
C46	C	-1.401490	-0.378474	0.000210
C47	C	-1.068157	-0.045141	0.333543
C48	C	-0.734823	0.288193	0.666877
C49	C	-0.651021	-0.290150	0.000169
C50	C	-0.317687	0.043183	0.333503
C51	C	0.015646	0.376517	0.666836
C52	C	-0.594409	-0.409139	0.000174
C53	C	-0.261076	-0.075806	0.333508
C54	C	0.072258	0.257528	0.666841
C55	C	-0.487059	-0.392073	0.000194
C56	C	-0.153726	-0.058740	0.333527
C57	C	0.179608	0.274594	0.666861
C58	C	-0.758381	-0.307214	0.000149
C59	C	-0.425047	0.026119	0.333483
C60	C	-0.091714	0.359453	0.666816
C61	C	-1.118108	-0.618766	0.000174
C62	C	-0.784775	-0.285433	0.333507
C63	C	-0.451441	0.047901	0.666841
C64	C	-1.121388	-0.782972	0.000171
C65	C	-0.788054	-0.449639	0.333505
C66	C	-0.454721	-0.116306	0.666838
N67	N	-1.122712	-0.349642	0.419943
N68	N	-0.789379	-0.016309	0.753276
N69	N	-0.456045	0.317024	1.086610
N70	N	-1.122730	-0.349643	-0.419584
N71	N	-0.789397	-0.016309	-0.086251
N72	N	-0.456064	0.317024	0.247083
H73	H	-0.626565	-0.523826	0.000163
H74	H	-0.293231	-0.190493	0.333497
H75	H	0.040102	0.142841	0.666830
F76	F	-0.608994	-0.140255	0.000178
F77	F	-0.275660	0.193078	0.333511
F78	F	0.057673	0.526411	0.666844
