data_functionalizedCrystal
_audit_creation_method	'MofGen! by Chris Wilmer'
_symmetry_space_group_name_H-M	'P1'
_symmetry_Int_Tables_number	1
_symmetry_cell_setting	triclinic
loop_
_symmetry_equiv_pos_as_xyz
  x,y,z
_cell_length_a	16.109301
_cell_length_b	15.995300
_cell_length_c	15.186229
_cell_angle_alpha	90.000802
_cell_angle_beta	89.999362
_cell_angle_gamma	83.466644
loop_
_atom_site_label
_atom_site_type_symbol
_atom_site_fract_x
_atom_site_fract_y
_atom_site_fract_z
O1	O	1.103140	0.107627	-0.073164
O2	O	0.861080	0.121021	-0.073177
O3	O	0.988749	-0.007569	-0.073174
O4	O	0.975471	0.236216	-0.073166
O5	O	0.988740	-0.007571	0.073283
O6	O	0.861071	0.121019	0.073280
O7	O	1.103132	0.107625	0.073293
Zn8	Zn	0.982100	0.114321	0.096540
Zn9	Zn	0.982111	0.114324	-0.096424
O10	O	0.975463	0.236214	0.073291
C11	C	0.830100	0.120477	0.000050
C12	C	0.737805	0.118850	0.000045
C13	C	0.988203	-0.038765	0.000051
C14	C	0.986579	-0.131717	0.000042
C15	C	0.515539	0.191371	0.000057
C16	C	0.428819	0.189836	0.000063
C17	C	0.448679	0.037269	0.000054
C18	C	0.535398	0.038805	0.000055
C19	C	0.568825	0.115858	0.000052
C20	C	0.395386	0.112787	0.000057
C21	C	0.301360	0.111123	0.000063
C22	C	0.662857	0.117523	0.000048
C23	C	0.983581	-0.301899	0.000051
C24	C	1.074484	-0.349390	0.000054
C25	C	1.072826	-0.446077	0.000390
C26	C	0.980630	-0.469455	0.000058
C27	C	0.935525	-0.428310	0.083525
C28	C	0.937825	-0.331677	0.083592
C29	C	0.936489	-0.331399	-0.082964
C30	C	0.936498	-0.428343	-0.084057
C31	C	0.978958	-0.564150	0.000065
C32	C	0.985251	-0.207204	0.000050
C33	C	1.134111	0.108168	0.000065
C34	C	1.226406	0.109795	0.000064
C35	C	0.976008	0.267410	0.000063
C36	C	0.977632	0.360362	0.000067
N37	N	0.982098	0.114319	0.228233
N38	N	0.982119	0.114319	-0.228116
C39	C	1.038650	0.057399	0.453957
C40	C	1.038652	0.057397	0.546146
C41	C	0.925562	0.171242	0.546153
C42	C	0.925556	0.171240	0.453965
C43	C	0.982105	0.114319	0.407869
C44	C	0.982113	0.114320	0.592247
C45	C	0.982116	0.114318	0.692203
C46	C	0.982101	0.114319	0.307907
H47	H	0.542752	0.254112	0.000062
H48	H	0.421452	-0.025465	0.000062
C49	C	0.863361	0.233850	0.596867
N50	N	0.816509	0.281007	0.635064
C51	C	0.594017	-0.044270	0.000049
N52	N	0.638169	-0.106838	0.000047
H53	H	0.867782	-0.442391	0.086391
H54	H	1.111014	-0.330921	-0.059800
C55	C	0.863387	0.233897	0.403266
N56	N	0.816576	0.281101	0.365080
H57	H	0.385436	0.251326	0.000069
H58	H	0.966469	-0.456671	0.145878
C59	C	1.120723	-0.484548	-0.080411
N60	N	1.156812	-0.513522	-0.141267
H61	H	0.871074	-0.299385	0.087150
C62	C	1.123096	-0.322921	0.080802
N63	N	1.159708	-0.302984	0.141625
H64	H	1.108107	-0.473934	0.060575
C65	C	0.976930	-0.303722	-0.168458
N66	N	1.007399	-0.282877	-0.232849
C67	C	0.981735	-0.306938	0.168203
N68	N	1.014811	-0.288310	0.231933
C69	C	0.845950	-0.288431	-0.084060
N70	N	0.777759	-0.256062	-0.084880
C71	C	0.980989	-0.465296	-0.167481
N72	N	1.014501	-0.493136	-0.230314
H73	H	0.869283	-0.443669	-0.089352
C74	C	1.100848	-0.005222	0.403255
N75	N	1.147694	-0.052392	0.365068
H76	H	1.084695	0.011047	0.583668
