data_functionalizedCrystal
_audit_creation_method	'MofGen! by Chris Wilmer'
_symmetry_space_group_name_H-M	'P1'
_symmetry_Int_Tables_number	1
_symmetry_cell_setting	triclinic
loop_
_symmetry_equiv_pos_as_xyz
  x,y,z
_cell_length_a	19.288864
_cell_length_b	19.288857
_cell_length_c	17.766277
_cell_angle_alpha	89.991474
_cell_angle_beta	89.976791
_cell_angle_gamma	83.134677
loop_
_atom_site_label
_atom_site_type_symbol
_atom_site_fract_x
_atom_site_fract_y
_atom_site_fract_z
O1	O	0.921351	0.086649	-0.062839
O2	O	1.421351	0.586649	0.437161
O3	O	0.719090	0.098338	-0.062788
O4	O	1.219090	0.598338	0.437212
O5	O	0.826067	-0.008637	-0.062806
O6	O	1.326067	0.491363	0.437194
O7	O	0.814373	0.193624	-0.062821
O8	O	1.314373	0.693624	0.437179
O9	O	0.826049	-0.008643	0.062382
O10	O	1.326049	0.491357	0.562382
O11	O	0.719071	0.098332	0.062400
O12	O	1.219071	0.598332	0.562400
O13	O	0.921332	0.086644	0.062349
O14	O	1.421332	0.586644	0.562349
Cu15	Cu	0.820200	0.092488	0.073806
Cu16	Cu	1.320200	0.592488	0.573806
Cu17	Cu	0.820222	0.092494	-0.074244
Cu18	Cu	1.320222	0.592494	0.425756
O19	O	0.814354	0.193619	0.062367
O20	O	1.314354	0.693619	0.562367
C21	C	0.693204	0.097959	-0.000187
C22	C	1.193204	0.597959	0.499813
C23	C	0.616100	0.096830	-0.000167
C24	C	1.116100	0.596830	0.499833
C25	C	0.825683	-0.034516	-0.000211
C26	C	1.325683	0.465484	0.499789
C27	C	0.824556	-0.111620	-0.000209
C28	C	1.324556	0.388380	0.499791
C29	C	0.571402	0.159598	-0.000184
C30	C	1.071402	0.659598	0.499816
C31	C	0.498955	0.158537	-0.000192
C32	C	0.998955	0.658537	0.499808
C33	C	0.471210	0.094705	-0.000199
C34	C	0.971210	0.594705	0.499801
C35	C	0.515917	0.031929	-0.000178
C36	C	1.015917	0.531929	0.499822
C37	C	0.588363	0.032991	-0.000162
C38	C	1.088363	0.532991	0.499838
C39	C	0.362955	0.044528	-0.044080
C40	C	0.862955	0.544528	0.455920
C41	C	0.290511	0.043468	-0.044100
C42	C	0.790511	0.543468	0.455900
C43	C	0.247764	0.091425	-0.000244
C44	C	0.747764	0.591425	0.499756
C45	C	0.277469	0.140455	0.043622
C46	C	0.777469	0.640455	0.543622
C47	C	0.349914	0.141517	0.043638
C48	C	0.849914	0.641517	0.543638
C49	C	0.392656	0.093546	-0.000216
C50	C	0.892656	0.593546	0.499784
C51	C	0.124510	0.153048	-0.000269
C52	C	0.624510	0.653048	0.499731
C53	C	0.052062	0.151984	-0.000272
C54	C	0.552062	0.651984	0.499728
C55	C	0.069026	0.025374	-0.000266
C56	C	0.569026	0.525374	0.499734
C57	C	0.141472	0.026439	-0.000255
C58	C	0.641472	0.526439	0.499745
C59	C	0.169210	0.090278	-0.000260
C60	C	0.669210	0.590278	0.499740
C61	C	0.824040	-0.147828	-0.068449
C62	C	1.324040	0.352172	0.431551
C63	C	0.822971	-0.220274	-0.068454
C64	C	1.322971	0.279726	0.431546
C65	C	0.822432	-0.256511	-0.000215
C66	C	1.322432	0.243489	0.499785
C67	C	0.822944	-0.220295	0.068034
C68	C	1.322944	0.279705	0.568034
C69	C	0.824006	-0.147849	0.068037
C70	C	1.324006	0.352151	0.568037
C71	C	0.861426	-0.376745	0.052050
C72	C	1.361426	0.123255	0.552050
C73	C	0.860369	-0.449190	0.052044
C74	C	1.360369	0.050810	0.552044
C75	C	0.819155	-0.479957	-0.000223
C76	C	1.319155	0.020043	0.499777
C77	C	0.779007	-0.438272	-0.052496
C78	C	1.279007	0.061728	0.447504
C79	C	0.780069	-0.365827	-0.052493
C80	C	1.280069	0.134173	0.447507
C81	C	0.821281	-0.335066	-0.000211
C82	C	1.321281	0.164934	0.499789
C83	C	0.817479	-0.594719	-0.068474
C84	C	1.317479	-0.094719	0.431526
C85	C	0.816406	-0.667166	-0.068476
C86	C	1.316406	-0.167166	0.431524
C87	C	0.816386	-0.667186	0.068014
C88	C	1.316386	-0.167186	0.568014
C89	C	0.817452	-0.594740	0.068014
C90	C	1.317452	-0.094740	0.568014
C91	C	0.818002	-0.558511	-0.000232
C92	C	1.318002	-0.058511	0.499768
C93	C	0.947218	0.087022	-0.000253
C94	C	1.447218	0.587022	0.499747
C95	C	1.024321	0.088151	-0.000278
C96	C	1.524321	0.588151	0.499722
C97	C	0.814739	0.219498	-0.000229
C98	C	1.314739	0.719498	0.499771
C99	C	0.815866	0.296602	-0.000237
C100	C	1.315866	0.796602	0.499763
N101	N	0.820189	0.092483	0.177936
N102	N	1.320189	0.592483	0.677936
N103	N	0.820238	0.092493	-0.178375
N104	N	1.320238	0.592493	0.321625
C105	C	0.867574	0.045137	0.217315
C106	C	1.367574	0.545137	0.717315
C107	C	0.867578	0.045134	0.296117
C108	C	1.367578	0.545134	0.796117
C109	C	0.820204	0.092488	0.335537
C110	C	1.320204	0.592488	0.835537
C111	C	0.772810	0.139837	0.296148
C112	C	1.272810	0.639837	0.796148
C113	C	0.772803	0.139834	0.217348
C114	C	1.272803	0.639834	0.717348
C115	C	0.810903	0.155776	0.460371
C116	C	1.310903	0.655776	0.960371
C117	C	0.810915	0.155780	0.539170
C118	C	1.310915	0.655780	1.039170
C119	C	0.820222	0.092496	0.578583
C120	C	1.320222	0.592496	1.078583
C121	C	0.829532	0.029207	0.539187
C122	C	1.329532	0.529207	1.039187
C123	C	0.829525	0.029204	0.460387
C124	C	1.329525	0.529204	0.960387
C125	C	0.820206	0.092496	0.420982
C126	C	1.320206	0.592496	0.920982
C127	C	0.867614	0.045144	0.703408
C128	C	1.367614	0.545144	1.203408
C129	C	0.867614	0.045139	0.782211
C130	C	1.367614	0.545139	1.282211
C131	C	0.772849	0.139849	0.782241
C132	C	1.272849	0.639849	1.282241
C133	C	0.772846	0.139847	0.703439
C134	C	1.272846	0.639847	1.203439
C135	C	0.820233	0.092495	0.664027
C136	C	1.320233	0.592495	1.164027
H137	H	0.593981	0.211581	-0.000189
H138	H	1.093981	0.711581	0.499811
O139	O	0.721698	0.190907	0.174867
O140	O	1.221698	0.690907	0.674867
H141	H	0.688757	0.223839	0.215513
H142	H	1.188757	0.723839	0.715513
O143	O	0.636575	-0.034714	-0.000149
O144	O	1.136575	0.465286	0.499851
H145	H	0.669956	-0.037261	0.050886
H146	H	1.169956	0.462739	0.550886
H147	H	0.815942	-0.696689	0.123575
H148	H	1.315942	-0.196689	0.623575
H149	H	0.894987	-0.351701	0.094617
H150	H	1.394987	0.148299	0.594617
O151	O	0.824572	-0.108798	0.141646
O152	O	1.324572	0.391202	0.641646
H153	H	0.777723	-0.069452	0.144930
H154	H	1.277723	0.430548	0.644930
O155	O	0.918697	-0.005930	0.338598
O156	O	1.418697	0.494070	0.838598
H157	H	0.889578	-0.039621	0.374521
H158	H	1.389578	0.460379	0.874521
H159	H	0.147095	0.205029	-0.000262
H160	H	0.647095	0.705029	0.499738
O161	O	0.734546	-0.471449	-0.108867
O162	O	1.234546	0.028551	0.391133
H163	H	0.678981	-0.450065	-0.101121
H164	H	1.178981	0.049935	0.398879
H165	H	0.893062	-0.483125	0.094605
H166	H	1.393062	0.016875	0.594605
O167	O	0.822375	-0.259374	0.141637
O168	O	1.322375	0.240626	0.641637
H169	H	0.821562	-0.315836	0.130171
H170	H	1.321562	0.184164	0.630171
H171	H	0.734264	0.178403	0.671375
H172	H	1.234264	0.678403	1.171375
O173	O	0.918706	-0.005952	0.660906
O174	O	1.418706	0.494048	1.160906
H175	H	0.889559	-0.039630	0.625034
H176	H	1.389559	0.460370	1.125034
O177	O	0.409062	-0.007206	-0.091377
O178	O	0.909062	0.492794	0.408623
H179	H	0.438332	0.021383	-0.132552
H180	H	0.938332	0.521383	0.367448
O181	O	0.839552	-0.039051	0.417892
O182	O	1.339552	0.460949	0.917892
H183	H	0.846020	-0.083059	0.458530
H184	H	1.346020	0.416941	0.958530
H185	H	0.906157	0.006579	0.185228
H186	H	1.406157	0.506579	0.685228
O187	O	0.003846	0.219687	-0.000287
O188	O	0.503846	0.719687	0.499713
H189	H	0.035308	0.264253	-0.000294
H190	H	0.535308	0.764253	0.499706
O191	O	0.039112	-0.043477	-0.000273
O192	O	0.539112	0.456523	0.499727
H193	H	-0.018773	-0.033672	-0.000291
H194	H	0.481227	0.466328	0.499709
H195	H	0.177867	-0.024674	-0.000245
H196	H	0.677867	0.475326	0.499755
O197	O	0.839565	-0.039057	0.581682
O198	O	1.339565	0.460943	1.081682
H199	H	0.837997	-0.028426	0.643095
H200	H	1.337997	0.471574	1.143095
O201	O	0.485998	-0.036922	-0.000186
O202	O	0.985998	0.463078	0.499814
H203	H	0.428113	-0.027116	-0.000207
H204	H	0.928113	0.472884	0.499793
H205	H	0.803340	0.207314	0.571240
H206	H	1.303340	0.707314	1.071240
O207	O	0.918731	-0.005921	0.824690
O208	O	1.418731	0.494079	1.324690
H209	H	0.951685	-0.038838	0.784043
H210	H	1.451685	0.461162	1.284043
O211	O	0.450731	0.226239	-0.000218
O212	O	0.950731	0.726239	0.499782
H213	H	0.482190	0.270808	-0.000224
H214	H	0.982190	0.770808	0.499776
H215	H	0.374097	0.181436	0.079358
H216	H	0.874097	0.681436	0.579358
O217	O	0.721770	0.190934	0.824761
O218	O	1.221770	0.690934	1.324761
H219	H	0.730459	0.245054	0.809613
H220	H	1.230459	0.745054	1.309613
O221	O	0.800862	0.224031	0.417855
O222	O	1.300862	0.724031	0.917855
H223	H	0.843226	0.255690	0.432938
H224	H	1.343226	0.755690	0.932938
H225	H	0.824486	-0.118335	-0.124020
H226	H	1.324486	0.381665	0.375980
O227	O	0.818026	-0.555682	0.141616
O228	O	1.318026	-0.055682	0.641616
H229	H	0.817480	-0.593050	0.189068
H230	H	1.317480	-0.093050	0.689068
O231	O	0.721718	0.190923	0.338655
O232	O	1.221718	0.690923	0.838655
H233	H	0.688059	0.161779	0.374591
H234	H	1.188059	0.661779	0.874591
O235	O	0.231376	0.192183	0.090934
O236	O	0.731376	0.692183	0.590934
H237	H	0.176011	0.183204	0.083564
H238	H	0.676011	0.683204	0.583564
H239	H	0.822547	-0.249759	-0.124025
H240	H	1.322547	0.250241	0.375975
O241	O	0.258474	-0.009417	-0.091400
O242	O	0.758474	0.490583	0.408600
H243	H	0.300369	-0.042599	-0.121878
H244	H	0.800369	0.457401	0.378122
O245	O	0.736759	-0.320862	-0.108856
O246	O	1.236759	0.179138	0.391144
H247	H	0.707914	-0.354420	-0.145198
H248	H	1.207914	0.145580	0.354802
H249	H	0.817923	-0.565220	-0.124044
H250	H	1.317923	-0.065220	0.375956
O251	O	0.815823	-0.706221	-0.142081
O252	O	1.315823	-0.206221	0.357919
H253	H	0.816380	-0.668854	-0.189533
H254	H	1.316380	-0.168854	0.310467
