data_functionalizedCrystal
_audit_creation_method	'MofGen! by Chris Wilmer'
_symmetry_space_group_name_H-M	'P1'
_symmetry_Int_Tables_number	1
_symmetry_cell_setting	triclinic
loop_
_symmetry_equiv_pos_as_xyz
  x,y,z
_cell_length_a	31.640172
_cell_length_b	31.640172
_cell_length_c	14.446369
_cell_angle_alpha	60.000546
_cell_angle_beta	89.996477
_cell_angle_gamma	60.000198
loop_
_atom_site_label
_atom_site_type_symbol
_atom_site_fract_x
_atom_site_fract_y
_atom_site_fract_z
Zr1	Zr	0.407240	0.462542	-0.121499
O2	O	0.339763	0.550713	-0.269293
O3	O	0.427917	0.374374	-0.076193
O4	O	0.427928	0.462538	-0.269303
O5	O	0.339752	0.462553	0.076147
O6	O	0.497485	0.462530	-0.269309
O7	O	0.339751	0.462550	-0.076184
O8	O	0.497465	0.304822	0.076129
O9	O	0.339772	0.620261	-0.269292
O10	O	0.488655	0.410632	-0.056874
O11	O	0.436746	0.410640	0.056813
O12	O	0.436760	0.514441	-0.170549
O13	O	0.384851	0.514448	-0.056862
Zr14	Zr	0.518175	0.462535	0.121440
Zr15	Zr	0.518174	0.462531	-0.121509
Zr16	Zr	0.407241	0.462546	0.121450
Zr17	Zr	0.407255	0.573462	-0.121496
Zr18	Zr	0.518160	0.351615	0.121437
O19	O	0.497498	0.550703	0.076135
O20	O	0.497497	0.550697	-0.269307
O21	O	0.339764	0.550719	0.076149
O22	O	0.585653	0.374364	0.269235
O23	O	0.585651	0.374358	-0.076207
O24	O	0.427919	0.374380	0.269248
O25	O	0.585663	0.462525	-0.076205
O26	O	0.497487	0.462540	0.269245
O27	O	0.427931	0.462547	0.269251
O28	O	0.585664	0.462527	0.076125
O29	O	0.427950	0.620252	-0.269299
O30	O	0.497466	0.304825	0.269241
O31	O	0.585643	0.304816	0.269233
O32	O	0.585642	0.304813	0.076121
O33	O	0.339773	0.620264	-0.076180
O34	O	0.427951	0.620255	-0.076187
O35	O	0.488656	0.410636	0.170490
O36	O	0.540565	0.410629	0.056804
O37	O	0.488669	0.514437	-0.056871
O38	O	0.436761	0.514445	0.056815
C39	C	0.462689	0.323794	-0.000033
C40	C	0.462682	0.276706	-0.000034
C41	C	0.489814	-0.015340	-0.059362
C42	C	0.489825	-0.192336	-0.059362
O43	O	0.512887	-0.215244	-0.109790
N44	N	0.462728	-0.214461	-0.000021
C45	C	0.435630	-0.192337	0.059331
O46	O	0.412588	-0.215222	0.109813
C47	C	0.435623	-0.015345	0.059336
C48	C	0.462717	0.006782	-0.000018
C49	C	0.516906	0.006787	-0.118711
C50	C	0.516901	0.051035	-0.118715
C51	C	0.489803	0.073157	-0.059371
C52	C	0.462711	0.051030	-0.000023
C53	C	0.408528	0.006774	0.118693
C54	C	0.408530	0.051024	0.118692
C55	C	0.435623	0.073151	0.059337
C56	C	0.435609	0.117401	0.059316
N57	N	0.462705	0.139526	-0.000025
C58	C	0.489802	0.117404	-0.059369
C59	C	0.435635	-0.285260	0.059322
C60	C	0.435636	-0.329507	0.059319
C61	C	0.489831	-0.329503	-0.059372
C62	C	0.489827	-0.285252	-0.059375
C63	C	0.462731	-0.263135	-0.000019
C64	C	0.489789	0.210330	-0.059375
C65	C	0.489780	0.254584	-0.059378
C66	C	0.435587	0.254574	0.059317
C67	C	0.435594	0.210326	0.059316
C68	C	0.462699	0.188203	-0.000032
O69	O	0.412563	0.140331	0.109729
O70	O	0.512851	0.140287	-0.109823
C71	C	0.489819	-0.059589	-0.059358
C72	C	0.462727	-0.081715	-0.000009
C73	C	0.435630	-0.059594	0.059335
C74	C	0.462728	-0.125962	-0.000012
C75	C	0.489825	-0.148084	-0.059356
C76	C	0.516922	-0.125959	-0.118697
C77	C	0.516916	-0.081710	-0.118701
C78	C	0.408533	-0.081719	0.118676
C79	C	0.408540	-0.125967	0.118674
C80	C	0.435638	-0.148089	0.059331
C81	C	0.323946	0.462553	-0.000017
C82	C	0.276852	0.462558	-0.000013
C83	C	-0.015154	0.462526	-0.083947
C84	C	-0.192141	0.462519	-0.083955
O85	O	-0.215014	0.462491	-0.155298
N86	N	-0.214271	0.462522	-0.000037
C87	C	-0.192150	0.462522	0.083895
O88	O	-0.215031	0.462518	0.155279
C89	C	-0.015162	0.462525	0.083907
C90	C	0.006963	0.462529	-0.000024
C91	C	0.006971	0.462529	-0.167870
C92	C	0.051213	0.462534	-0.167871
C93	C	0.073330	0.462537	-0.083948
C94	C	0.051205	0.462534	-0.000025
C95	C	0.006960	0.462522	0.167841
C96	C	0.051211	0.462521	0.167839
C97	C	0.073336	0.462524	0.083908
C98	C	0.117565	0.462541	0.083897
N99	N	0.139695	0.462539	-0.000022
C100	C	0.117578	0.462536	-0.083944
C101	C	-0.285072	0.462522	0.083881
C102	C	-0.329319	0.462522	0.083877
C103	C	-0.329306	0.462518	-0.083972
C104	C	-0.285060	0.462522	-0.083972
C105	C	-0.262941	0.462519	-0.000038
C106	C	0.210490	0.462548	-0.083940
C107	C	0.254735	0.462555	-0.083936
C108	C	0.254719	0.462557	0.083916
C109	C	0.210477	0.462552	0.083909
C110	C	0.188364	0.462546	-0.000024
O111	O	0.140468	0.462563	0.155210
O112	O	0.140473	0.462527	-0.155304
C113	C	-0.059397	0.462521	-0.083946
C114	C	-0.081522	0.462519	-0.000023
C115	C	-0.059405	0.462521	0.083900
C116	C	-0.125769	0.462519	-0.000027
C117	C	-0.147886	0.462516	-0.083950
C118	C	-0.125756	0.462514	-0.167868
C119	C	-0.081514	0.462519	-0.167869
C120	C	-0.081535	0.462524	0.167818
C121	C	-0.125778	0.462519	0.167811
C122	C	-0.147895	0.462517	0.083889
C123	C	0.601470	0.462524	-0.000042
C124	C	0.648564	0.462520	-0.000046
C125	C	0.462706	0.462533	-0.303921
C126	C	0.462706	0.462532	-0.407059
C127	C	0.462727	0.601283	-0.000026
C128	C	0.462733	0.648371	-0.000025
C129	C	0.495442	0.397053	-0.374644
C130	C	0.495619	0.397030	-0.481898
C131	C	0.486421	0.495249	-0.589853
C132	C	0.486666	0.494814	-0.482062
C133	C	0.406241	0.495783	-0.483013
C134	C	0.406328	0.494566	-0.589002
C135	C	0.462709	0.462544	0.303863
C136	C	0.462710	0.462546	0.407001
C137	C	0.601450	0.323780	-0.000045
C138	C	0.648538	0.276687	-0.000050
C139	C	0.462690	0.323800	0.303859
C140	C	0.462684	0.276713	0.406996
C141	C	0.601452	0.323785	0.303847
C142	C	0.648540	0.276694	0.406980
C143	C	0.323964	0.601292	-0.303906
C144	C	0.276875	0.648383	-0.407038
C145	C	0.323965	0.601297	-0.000014
C146	C	0.276877	0.648391	-0.000008
C147	C	0.462725	0.601278	-0.303918
C148	C	0.462731	0.648364	-0.407055
C149	C	0.643555	0.254573	-0.059401
C150	C	0.687795	0.210330	-0.059429
C151	C	0.737018	0.188198	-0.000098
C152	C	0.742000	0.210316	0.059255
C153	C	0.697761	0.254562	0.059275
C154	C	0.489778	0.254599	0.514779
C155	C	0.489770	0.210362	0.611697
C156	C	0.462672	0.188237	0.600829
C157	C	0.435575	0.210356	0.493034
C158	C	0.435580	0.254595	0.396119
C159	C	0.697754	0.254575	0.396069
C160	C	0.742003	0.210334	0.492964
C161	C	0.737037	0.188209	0.600769
C162	C	0.687818	0.210332	0.611677
C163	C	0.643571	0.254575	0.514784
C164	C	0.227662	0.670507	-0.396127
C165	C	0.183413	0.714762	-0.493022
C166	C	0.188378	0.736890	-0.600827
C167	C	0.237597	0.714764	-0.611736
C168	C	0.281845	0.670513	-0.514842
C169	C	0.281860	0.670509	0.059333
C170	C	0.237621	0.714764	0.059334
C171	C	0.188398	0.736897	-0.000001
C172	C	0.183416	0.714777	-0.059349
C173	C	0.227655	0.670526	-0.059356
C174	C	0.489835	0.670475	-0.396150
C175	C	0.489851	0.714712	-0.493049
C176	C	0.462759	0.736841	-0.600851
C177	C	0.435655	0.714726	-0.611754
C178	C	0.435643	0.670486	-0.514856
H179	H	0.413525	0.192316	0.107632
Cl180	Cl	0.792669	0.132586	0.722569
H181	H	0.511896	0.652465	-0.308381
Cl182	Cl	0.681584	0.182510	0.747213
Cl183	Cl	0.462672	0.132621	0.722678
Cl184	Cl	0.243831	0.742586	-0.747271
Cl185	Cl	0.581704	0.282372	0.528520
Cl186	Cl	0.523842	0.282400	-0.134003
Cl187	Cl	0.704034	0.282353	0.133905
Cl188	Cl	0.581681	0.282389	-0.134004
Cl189	Cl	0.121531	0.742605	-0.133930
Cl190	Cl	0.451364	0.569634	-0.710660
H191	H	0.413569	0.652489	-0.523750
Cl192	Cl	0.243896	0.742561	0.133955
Cl193	Cl	-0.357134	0.462530	0.189381
H194	H	0.511845	0.272608	0.523650
H195	H	0.511838	0.192358	0.699458
H196	H	-0.143791	0.462521	0.236157
Cl197	Cl	0.221405	0.642699	-0.260613
H198	H	0.223590	0.652518	-0.107675
Cl199	Cl	-0.257250	0.462524	-0.189487
H200	H	0.321936	0.652492	0.107657
Cl201	Cl	0.462778	0.792459	-0.722656
Cl202	Cl	0.121544	0.742566	-0.479282
Cl203	Cl	0.523924	0.742509	-0.479318
H204	H	-0.011032	0.462525	-0.236211
H205	H	0.413567	-0.347512	0.107637
Cl206	Cl	0.132747	0.792520	-0.722628
H207	H	0.413598	0.732749	-0.699539
Cl208	Cl	0.550972	-0.021012	-0.193333
Cl209	Cl	0.132787	0.792527	0.000022
Cl210	Cl	0.079015	0.462516	0.273365
H211	H	0.413512	0.192335	0.484202
H212	H	0.321916	0.652500	-0.523740
H213	H	0.413519	0.272594	0.308361
Cl214	Cl	0.704011	0.282384	0.260554
Cl215	Cl	0.523865	0.182525	-0.133983
Cl216	Cl	0.803871	0.182529	0.479224
H217	H	0.538965	0.069047	-0.167043
H218	H	0.511889	-0.267239	-0.107705
H219	H	0.782083	0.192291	0.107559
H220	H	0.511894	-0.347521	-0.107694
H221	H	0.464350	0.542863	-0.508688
H222	H	0.413570	-0.267256	0.107660
H223	H	-0.267066	0.462520	0.152232
Cl224	Cl	0.374467	-0.021034	0.193320
H225	H	0.386464	0.069031	0.167025
Cl226	Cl	0.368411	0.570254	-0.525335
Cl227	Cl	0.401524	0.282392	0.133918
H228	H	0.538979	-0.063698	-0.167033
Cl229	Cl	-0.357118	0.462513	-0.189472
H230	H	0.538983	-0.143975	-0.167022
Cl231	Cl	-0.020844	0.462515	0.273362
H232	H	0.386472	-0.143976	0.167004
Cl233	Cl	-0.153570	0.462513	-0.273373
Cl234	Cl	0.374466	-0.053917	0.193290
H235	H	0.272747	0.462560	-0.152286
H236	H	0.192491	0.462541	-0.152285
Cl237	Cl	0.182659	0.462557	0.189415
Cl238	Cl	0.079026	0.462533	-0.273381
H239	H	0.272733	0.462561	0.152242
H240	H	-0.063503	0.462521	-0.236213
H241	H	-0.063530	0.462525	0.236160
Cl242	Cl	0.471042	0.357149	-0.291115
Cl243	Cl	0.471088	0.357431	-0.479210
H244	H	0.536847	0.371609	-0.319824
H245	H	0.537272	0.371495	-0.479618
H246	H	0.528211	0.471840	-0.431883
H247	H	0.773036	0.152170	-0.000123
H248	H	0.527568	0.472808	-0.592162
H249	H	0.386416	0.474678	-0.432844
H250	H	0.379901	0.542353	-0.668120
Cl251	Cl	0.681520	0.182531	-0.134045
Cl252	Cl	0.378978	0.457743	-0.587979
