data_functionalizedCrystal
_audit_creation_method	'MofGen! by Chris Wilmer'
_symmetry_space_group_name_H-M	'P1'
_symmetry_Int_Tables_number	1
_symmetry_cell_setting	triclinic
loop_
_symmetry_equiv_pos_as_xyz
  x,y,z
_cell_length_a	13.262390
_cell_length_b	13.262508
_cell_length_c	12.376457
_cell_angle_alpha	116.815184
_cell_angle_beta	63.168449
_cell_angle_gamma	88.760843
loop_
_atom_site_label
_atom_site_type_symbol
_atom_site_fract_x
_atom_site_fract_y
_atom_site_fract_z
O1	O	1.510826	0.023939	-0.551162
O2	O	1.181095	0.063503	-0.437620
O3	O	1.365752	-0.121128	-0.551157
O4	O	1.326169	0.208570	-0.437625
O5	O	1.319607	-0.075031	-0.334785
O6	O	1.134950	0.109601	-0.221248
O7	O	1.464681	0.070037	-0.334790
Zn8	Zn	1.292489	0.097138	-0.243665
Zn9	Zn	1.353287	0.036402	-0.528745
O10	O	1.280024	0.254668	-0.221253
C11	C	1.116029	0.088574	-0.315901
C12	C	0.990901	0.094585	-0.275582
C13	C	0.738816	0.010998	-0.633731
C14	C	0.856381	0.005344	-0.671617
C15	C	0.890017	0.027654	-0.572612
C16	C	0.806076	0.055618	-0.435714
C17	C	0.688501	0.061263	-0.397827
C18	C	0.839702	0.077920	-0.336708
C19	C	0.755761	0.105884	-0.199810
C20	C	0.638199	0.111528	-0.161930
C21	C	0.604563	0.089218	-0.260935
C22	C	0.957277	0.072274	-0.374594
C23	C	0.906963	0.122540	-0.138690
C24	C	0.789398	0.128194	-0.100804
C25	C	1.344704	-0.140070	-0.456505
C26	C	1.350724	-0.265188	-0.496829
C27	C	1.267068	-0.517372	-0.138700
C28	C	1.261404	-0.399815	-0.100810
C29	C	1.283733	-0.366152	-0.199811
C30	C	1.311729	-0.450058	-0.336710
C31	C	1.317385	-0.567624	-0.374601
C32	C	1.334050	-0.416405	-0.435712
C33	C	1.362045	-0.500310	-0.572610
C34	C	1.367701	-0.617864	-0.610495
C35	C	1.345371	-0.651527	-0.511493
C36	C	1.328394	-0.298839	-0.397821
C37	C	1.378710	-0.349091	-0.633721
C38	C	1.384375	-0.466647	-0.671612
C39	C	1.529748	0.044966	-0.456512
C40	C	1.654877	0.038953	-0.496839
C41	C	1.301072	0.273609	-0.315908
C42	C	1.295055	0.398725	-0.275593
N43	N	1.251004	0.138587	-0.049109
N44	N	1.394781	-0.005057	-0.723307
C45	C	1.491082	-0.101296	0.158313
C46	C	1.520111	-0.130306	0.022129
C47	C	1.452836	-0.063086	0.004312
C48	C	1.356529	0.033151	0.122694
C49	C	1.327502	0.062169	0.258891
C50	C	1.289257	0.100380	0.104890
C51	C	1.192949	0.196616	0.223272
C52	C	1.163927	0.225629	0.359454
C53	C	1.231202	0.158409	0.377271
C54	C	1.318283	0.071361	-0.031307
C55	C	1.154704	0.234827	0.069271
C56	C	1.125675	0.263837	0.205455
H57	H	0.508833	0.093824	-0.230094
Cl58	Cl	1.226192	-0.294340	0.071290
Cl59	Cl	1.037815	0.020552	-0.620241
Cl60	Cl	0.683861	0.163346	0.071291
H61	H	1.099925	0.289566	0.054769
H62	H	1.248882	-0.544792	-0.058105
H63	H	0.924719	-0.017430	-0.783082
Cl64	Cl	1.352491	-0.799317	-0.559122
Cl65	Cl	0.532676	0.146678	0.010169
H66	H	1.390486	-0.686177	-0.721963
H67	H	1.476476	-0.086710	-0.106577
H68	H	1.025611	0.049508	-0.486056
Cl69	Cl	1.641176	-0.251282	-0.126686
H70	H	0.711418	-0.007175	-0.714331
Cl71	Cl	1.419570	-0.572140	-0.843709
H72	H	0.934347	0.140705	-0.058072
H73	H	1.545854	-0.156013	0.172833
Cl74	Cl	1.042868	0.346623	0.508278
Cl75	Cl	1.293203	-0.193373	-0.225727
Cl76	Cl	1.276609	-0.218364	-0.152173
Cl77	Cl	1.194702	0.194876	0.548481
H78	H	1.396885	-0.321683	-0.714334
Cl79	Cl	1.004606	0.384818	0.354287
H80	H	1.396697	-0.006994	-0.127683
