data_functionalizedCrystal
_audit_creation_method	'MofGen! by Chris Wilmer'
_symmetry_space_group_name_H-M	'P1'
_symmetry_Int_Tables_number	1
_symmetry_cell_setting	triclinic
loop_
_symmetry_equiv_pos_as_xyz
  x,y,z
_cell_length_a	16.120530
_cell_length_b	18.215405
_cell_length_c	18.215399
_cell_angle_alpha	90.032960
_cell_angle_beta	87.086235
_cell_angle_gamma	92.879755
loop_
_atom_site_label
_atom_site_type_symbol
_atom_site_fract_x
_atom_site_fract_y
_atom_site_fract_z
Zn1	Zn	1.274509	0.350098	-0.473075
Zn2	Zn	1.274412	0.473170	-0.349999
Zn3	Zn	1.135099	0.343878	-0.343791
Zn4	Zn	1.135053	0.466877	-0.466795
O5	O	1.204768	0.408505	-0.408415
O6	O	1.391161	0.371660	-0.461976
O7	O	1.255911	0.456049	-0.246190
O8	O	1.153652	0.241721	-0.360971
O9	O	1.391090	0.462081	-0.371552
O10	O	1.256075	0.246291	-0.455956
O11	O	1.153558	0.361059	-0.241629
O12	O	1.018428	0.354957	-0.354881
O13	O	1.153574	0.451355	-0.570613
O14	O	1.018394	0.445324	-0.445251
O15	O	1.256031	0.365558	-0.575228
O16	O	1.255866	0.575317	-0.365462
O17	O	1.153480	0.570693	-0.451271
C18	C	1.204680	0.599708	-0.408376
C19	C	1.204719	0.681508	-0.408387
C20	C	0.988161	0.398783	-0.398711
C21	C	0.895496	0.394641	-0.394577
C22	C	1.204808	0.408448	-0.600370
C23	C	1.204825	0.408424	-0.682170
C24	C	0.725835	0.387063	-0.387036
C25	C	0.684543	0.430002	-0.429848
C26	C	0.590137	0.425785	-0.425652
C27	C	0.820248	0.391279	-0.391231
C28	C	1.422221	0.418266	-0.418157
C29	C	1.514887	0.422426	-0.422309
C30	C	1.204879	0.216557	-0.408472
C31	C	1.204927	0.134761	-0.408496
C32	C	1.258157	0.872091	-0.363798
C33	C	1.258194	0.948951	-0.363818
C34	C	1.151487	0.944173	-0.453089
C35	C	1.151454	0.867314	-0.453073
C36	C	1.204788	0.831275	-0.408424
C37	C	1.204858	0.984994	-0.408459
C38	C	1.204898	1.068329	-0.408481
C39	C	1.204749	0.747934	-0.408403
C40	C	1.151575	0.358933	-0.867991
C41	C	1.151589	0.358919	-0.944851
C42	C	1.258174	0.457832	-0.949590
C43	C	1.258155	0.457849	-0.872732
C44	C	1.204856	0.408395	-0.831935
C45	C	1.204890	0.408364	-0.985652
C46	C	1.204906	0.408349	-1.068987
C47	C	1.204839	0.408411	-0.748595
C48	C	1.204777	0.408511	-0.217209
C49	C	1.204922	0.408335	-0.135417
H50	H	0.720092	0.469929	-0.469652
H51	H	1.301545	0.498130	-0.843374
F52	F	1.094870	0.306281	-0.983221
H53	H	0.690287	0.347138	-0.347236
F54	F	1.314920	0.833738	-0.316279
F55	F	1.094848	0.306302	-0.824574
F56	F	1.314998	0.992388	-0.316323
H57	H	1.108063	0.973525	-0.489440
F58	F	1.094653	0.823872	-0.500576
H59	H	1.301568	0.498095	-0.982816
