data_functionalizedCrystal
_audit_creation_method	'MofGen! by Chris Wilmer'
_symmetry_space_group_name_H-M	'P1'
_symmetry_Int_Tables_number	1
_symmetry_cell_setting	triclinic
loop_
_symmetry_equiv_pos_as_xyz
  x,y,z
_cell_length_a	21.395364
_cell_length_b	11.169416
_cell_length_c	21.395063
_cell_angle_alpha	89.647532
_cell_angle_beta	89.932496
_cell_angle_gamma	90.008673
loop_
_atom_site_label
_atom_site_type_symbol
_atom_site_fract_x
_atom_site_fract_y
_atom_site_fract_z
Zn1	Zn	0.958213	-0.473954	-0.354309
Zn2	Zn	1.458213	0.026046	0.145691
Zn3	Zn	0.958074	-0.675821	-0.249542
Zn4	Zn	1.458074	-0.175821	0.250458
Zn5	Zn	0.853349	-0.475145	-0.249542
Zn6	Zn	1.353349	0.024855	0.250458
Zn7	Zn	0.853434	-0.674588	-0.354285
Zn8	Zn	1.353434	-0.174588	0.145715
O9	O	0.905767	-0.574877	-0.301920
O10	O	1.405767	-0.074877	0.198080
O11	O	1.045872	-0.500750	-0.340422
O12	O	1.545872	-0.000750	0.159578
O13	O	0.944089	-0.650215	-0.161861
O14	O	1.444089	-0.150215	0.338139
O15	O	0.867282	-0.307037	-0.263450
O16	O	1.367282	0.192963	0.236550
O17	O	1.045770	-0.649060	-0.263450
O18	O	1.545770	-0.149060	0.236550
O19	O	0.944325	-0.306162	-0.340421
O20	O	1.444325	0.193838	0.159579
O21	O	0.867148	-0.502779	-0.161861
O22	O	1.367148	-0.002779	0.338139
O23	O	0.765683	-0.501584	-0.263427
O24	O	1.265683	-0.001584	0.236573
O25	O	0.867427	-0.646959	-0.441969
O26	O	1.367427	-0.146959	0.058031
O27	O	0.765745	-0.648114	-0.340381
O28	O	1.265745	-0.148114	0.159619
O29	O	0.944407	-0.499554	-0.441987
O30	O	1.444407	0.000446	0.058013
O31	O	0.944171	-0.843607	-0.263427
O32	O	1.444171	-0.343607	0.236573
O33	O	0.867292	-0.842701	-0.340381
O34	O	1.367292	-0.342701	0.159619
C35	C	0.742980	-0.574845	-0.301902
C36	C	1.242980	-0.074845	0.198098
C37	C	0.673339	-0.574860	-0.301909
C38	C	1.173339	-0.074860	0.198091
C39	C	0.905743	-0.886702	-0.301915
C40	C	1.405743	-0.386702	0.198085
C41	C	0.905789	-1.020101	-0.301934
C42	C	1.405789	-0.520101	0.198066
C43	C	0.171591	-0.651316	-0.341951
C44	C	0.671591	-0.151316	0.158049
C45	C	0.237027	-0.651316	-0.341945
C46	C	0.737027	-0.151316	0.158055
C47	C	0.269700	-0.574903	-0.301940
C48	C	0.769700	-0.074903	0.198060
C49	C	0.236933	-0.498505	-0.261927
C50	C	0.736933	0.001495	0.238073
C51	C	0.171499	-0.498515	-0.261930
C52	C	0.671499	0.001485	0.238070
C53	C	0.373365	-0.466797	-0.297081
C54	C	0.873365	0.033203	0.202919
C55	C	0.438798	-0.466785	-0.297082
C56	C	0.938798	0.033215	0.202918
C57	C	0.471521	-0.574871	-0.301926
C58	C	0.971521	-0.074871	0.198074
C59	C	0.438803	-0.682973	-0.306782
C60	C	0.938803	-0.182973	0.193218
C61	C	0.373369	-0.682984	-0.306785
C62	C	0.873369	-0.182984	0.193215
C63	C	0.340653	-0.574884	-0.301931
C64	C	0.840653	-0.074884	0.198069
C65	C	0.575233	-0.651271	-0.341926
C66	C	1.075233	-0.151271	0.158074
C67	C	0.640669	-0.651273	-0.341915
C68	C	1.140669	-0.151273	0.158085
C69	C	0.640575	-0.498451	-0.261900
C70	C	1.140575	0.001549	0.238100
C71	C	0.575139	-0.498459	-0.261908
C72	C	1.075139	0.001541	0.238092
C73	C	0.542472	-0.574867	-0.301924
C74	C	1.042472	-0.074867	0.198076
C75	C	1.069191	-0.574910	-0.301938
C76	C	1.569191	-0.074910	0.198062
C77	C	1.138832	-0.574924	-0.301946
C78	C	1.638832	-0.074924	0.198054
C79	C	0.905942	-0.572986	-0.465348
C80	C	1.405942	-0.072986	0.034652
C81	C	0.906016	-0.572181	-0.534992
C82	C	1.406016	-0.072181	-0.034992
C83	C	0.905809	-0.261834	-0.301938
C84	C	1.405809	0.238166	0.198062
C85	C	0.905827	-0.128434	-0.301946
C86	C	1.405827	0.371566	0.198054
C87	C	0.905630	-0.576673	-0.139127
C88	C	1.405630	-0.076673	0.360873
C89	C	0.905677	-0.577141	-0.069483
C90	C	1.405677	-0.077141	0.430517
C91	C	0.945479	-0.499530	-0.037287
C92	C	1.445479	0.000470	0.462713
C93	C	0.945525	-0.498927	0.028146
C94	C	1.445525	0.001073	0.528146
C95	C	0.905757	-0.575921	0.061381
C96	C	1.405757	-0.075921	0.561381
C97	C	0.865953	-0.653547	0.029177
C98	C	1.365953	-0.153547	0.529177
C99	C	0.865913	-0.654157	-0.036255
C100	C	1.365913	-0.154157	0.463745
C101	C	0.849407	-0.585205	0.165205
C102	C	1.349407	-0.085205	0.665205
C103	C	0.849446	-0.584587	0.230636
C104	C	1.349446	-0.084587	0.730636
C105	C	0.905881	-0.574048	0.263196
C106	C	1.405881	-0.074048	0.763196
C107	C	0.962279	-0.564102	0.230317
C108	C	1.462279	-0.064102	0.730317
C109	C	0.962239	-0.564712	0.164884
C110	C	1.462239	-0.064712	0.664884
C111	C	0.905797	-0.575269	0.132331
C112	C	1.405797	-0.075269	0.632331
C113	C	0.945736	-0.495779	0.366343
C114	C	1.445736	0.004221	0.866343
C115	C	0.945783	-0.495184	0.431778
C116	C	1.445783	0.004816	0.931778
C117	C	0.866205	-0.649798	0.432807
C118	C	1.366205	-0.149798	0.932807
C119	C	0.866164	-0.650399	0.367374
C120	C	1.366164	-0.150399	0.867374
C121	C	0.905929	-0.573383	0.334145
C122	C	1.405929	-0.073383	0.834145
H123	H	0.144998	-0.713538	-0.374533
H124	H	0.644998	-0.213538	0.125467
H125	H	0.346728	-0.378776	-0.293126
H126	H	0.846728	0.121224	0.206874
Br127	Br	0.772908	-0.598067	0.275252
Br128	Br	1.272908	-0.098067	0.775252
H129	H	0.833500	-0.717359	-0.062469
H130	H	1.333500	-0.217359	0.437531
Br131	Br	0.812144	-0.755735	0.323676
Br132	Br	1.312144	-0.255735	0.823676
H133	H	0.803448	-0.593788	0.138701
H134	H	1.303448	-0.093788	0.638701
Br135	Br	0.812243	-0.754311	0.477905
Br136	Br	1.312243	-0.254311	0.977905
Br137	Br	0.811986	-0.758049	0.074280
Br138	Br	1.311986	-0.258049	0.574280
H139	H	0.263704	-0.713524	-0.374524
H140	H	0.763704	-0.213524	0.125476
H141	H	0.667177	-0.436238	-0.229325
H142	H	1.167177	0.063762	0.270675
Br143	Br	0.328967	-0.829685	-0.313373
Br144	Br	0.828967	-0.329685	0.186627
H145	H	0.465444	-0.770987	-0.310731
H146	H	0.965444	-0.270987	0.189269
Br147	Br	0.483195	-0.320076	-0.290504
Br148	Br	0.983195	0.179924	0.209496
H149	H	0.977861	-0.436823	-0.064338
H150	H	1.477861	0.063177	0.435662
H151	H	0.548634	-0.713488	-0.374509
H152	H	1.048634	-0.213488	0.125491
Br153	Br	0.685130	-0.754970	-0.396206
Br154	Br	1.185130	-0.254970	0.103794
H155	H	0.548466	-0.436248	-0.229334
H156	H	1.048466	0.063752	0.270666
Br157	Br	0.281274	-0.394808	-0.207629
Br158	Br	0.781274	0.105192	0.292371
H159	H	0.144827	-0.436304	-0.229353
H160	H	0.644827	0.063696	0.270647
Br161	Br	0.999547	-0.393592	0.071851
Br162	Br	1.499547	0.106408	0.571851
H163	H	1.008233	-0.555517	0.256825
H164	H	1.508233	-0.055517	0.756825
Br165	Br	1.038775	-0.551231	0.120264
Br166	Br	1.538775	-0.051231	0.620264
Br167	Br	0.999811	-0.389856	0.475474
Br168	Br	1.499811	0.110144	0.975474
Br169	Br	0.999687	-0.391234	0.321243
Br170	Br	1.499687	0.108766	0.821243
