data_functionalizedCrystal
_audit_creation_method	'MofGen! by Chris Wilmer'
_symmetry_space_group_name_H-M	'P1'
_symmetry_Int_Tables_number	1
_symmetry_cell_setting	triclinic
loop_
_symmetry_equiv_pos_as_xyz
  x,y,z
_cell_length_a	16.956995
_cell_length_b	18.266242
_cell_length_c	16.992695
_cell_angle_alpha	89.993686
_cell_angle_beta	96.638653
_cell_angle_gamma	90.012304
loop_
_atom_site_label
_atom_site_type_symbol
_atom_site_fract_x
_atom_site_fract_y
_atom_site_fract_z
O1	O	1.060104	0.060932	-0.032364
O2	O	1.560104	0.560932	0.467636
O3	O	0.829694	0.060922	-0.059778
O4	O	1.329694	0.560922	0.440222
O5	O	0.943976	0.060921	0.068012
O6	O	1.443976	0.560921	0.568012
O7	O	0.945823	0.060933	-0.160154
O8	O	1.445823	0.560933	0.339846
O9	O	0.943955	-0.060841	0.068016
O10	O	1.443955	0.439159	0.568016
O11	O	0.829673	-0.060840	-0.059773
O12	O	1.329673	0.439160	0.440227
O13	O	1.060083	-0.060830	-0.032359
O14	O	1.560083	0.439170	0.467641
Zn15	Zn	0.944875	-0.080167	-0.046066
Zn16	Zn	1.444875	0.419833	0.453934
Zn17	Zn	0.944903	0.080259	-0.046072
Zn18	Zn	1.444903	0.580259	0.453928
O19	O	0.945802	-0.060829	-0.160149
O20	O	1.445802	0.439171	0.339851
C21	C	0.800065	0.000040	-0.061179
C22	C	1.300065	0.500040	0.438821
C23	C	0.711811	0.000036	-0.065352
C24	C	1.211811	0.500036	0.434648
N25	N	0.944862	-0.189654	-0.046060
N26	N	1.444862	0.310346	0.453940
C27	C	0.214500	0.000065	-0.096570
C28	C	0.714500	0.500065	0.403430
C29	C	0.297425	0.000065	-0.092643
C30	C	0.797425	0.500065	0.407357
C31	C	0.343815	0.000055	-0.018931
C32	C	0.843815	0.500055	0.481069
C33	C	0.307278	0.000054	0.050860
C34	C	0.807278	0.500054	0.550860
C35	C	0.224354	0.000060	0.046932
C36	C	0.724354	0.500060	0.546932
C37	C	0.592349	0.000041	0.000510
C38	C	1.092349	0.500041	0.500510
C39	C	0.675278	0.000033	0.004433
C40	C	1.175278	0.500033	0.504433
C41	C	0.665419	0.000045	-0.139071
C42	C	1.165419	0.500045	0.360929
C43	C	0.582495	0.000047	-0.142992
C44	C	1.082495	0.500047	0.357008
C45	C	0.545964	0.000049	-0.073202
C46	C	1.045964	0.500049	0.426798
N47	N	0.428578	0.000052	-0.014915
N48	N	0.928578	0.500052	0.485085
N49	N	0.461203	0.000058	-0.077218
N50	N	0.961203	0.500058	0.422782
C51	C	0.995485	-0.227964	0.010500
C52	C	1.495485	0.272036	0.510500
C53	C	0.995490	-0.304609	0.010504
C54	C	1.495490	0.195391	0.510504
C55	C	0.944880	-0.342941	-0.046065
C56	C	1.444880	0.157059	0.453935
C57	C	0.894247	-0.304623	-0.102630
C58	C	1.394247	0.195377	0.397370
C59	C	0.894238	-0.227979	-0.102628
C60	C	1.394238	0.272021	0.397372
N61	N	0.939175	-0.463270	-0.115816
N62	N	1.439175	0.036730	0.384184
N63	N	0.939188	-0.536078	-0.115816
N64	N	1.439188	-0.036078	0.384184
C65	C	0.944903	-0.573864	-0.046075
C66	C	1.444903	-0.073864	0.453925
N67	N	0.950619	-0.536090	0.023668
N68	N	1.450619	-0.036090	0.523668
N69	N	0.950610	-0.463275	0.023667
N70	N	1.450610	0.036725	0.523667
C71	C	0.944884	-0.426048	-0.046074
C72	C	1.444884	0.073952	0.453926
C73	C	0.995534	-0.695280	0.010494
C74	C	1.495534	-0.195280	0.510494
C75	C	0.995533	-0.771926	0.010499
C76	C	1.495533	-0.271926	0.510499
C77	C	0.894294	-0.771939	-0.102642
C78	C	1.394294	-0.271939	0.397358
C79	C	0.894291	-0.695294	-0.102640
C80	C	1.394291	-0.195294	0.397360
C81	C	0.944915	-0.656969	-0.046073
C82	C	1.444915	-0.156969	0.453927
C83	C	1.089713	0.000053	-0.030958
C84	C	1.589713	0.500053	0.469042
C85	C	1.177967	0.000062	-0.026785
C86	C	1.677967	0.500062	0.473215
C87	C	0.941589	0.000040	0.097073
C88	C	1.441589	0.500040	0.597073
C89	C	0.934498	0.000040	0.183657
C90	C	1.434498	0.500040	0.683657
N91	N	0.944922	0.189746	-0.046071
N92	N	1.444922	0.689746	0.453929
C93	C	0.948189	0.000053	-0.189210
C94	C	1.448189	0.500053	0.310790
C95	C	0.955280	0.000058	-0.275795
C96	C	1.455280	0.500058	0.224205
C97	C	1.002913	0.000042	0.238332
C98	C	1.502913	0.500042	0.738332
C99	C	0.996246	0.000049	0.319686
C100	C	1.496246	0.500049	0.819686
C101	C	0.921163	0.000048	0.346365
C102	C	1.421163	0.500048	0.846365
C103	C	0.852743	0.000048	0.291683
C104	C	1.352743	0.500048	0.791683
C105	C	0.859411	0.000047	0.210331
C106	C	1.359411	0.500047	0.710331
C107	C	0.893527	0.000057	0.588171
C108	C	1.393527	0.500057	1.088171
C109	C	0.886865	0.000056	0.669531
C110	C	1.386865	0.500056	1.169531
C111	C	1.030368	0.000058	0.697528
C112	C	1.530368	0.500058	1.197528
C113	C	1.037029	0.000052	0.616172
C114	C	1.537029	0.500052	1.116172
C115	C	0.968609	0.000056	0.561498
C116	C	1.468609	0.500056	1.061498
N117	N	0.914346	0.000053	0.429522
N118	N	1.414346	0.500053	0.929522
N119	N	0.975427	0.000057	0.478343
N120	N	1.475427	0.500057	0.978343
H121	H	0.176733	0.000067	-0.156595
H122	H	0.676733	0.500067	0.343405
H123	H	0.345056	0.000051	0.110878
H124	H	0.845056	0.500051	0.610878
N125	N	0.334758	0.000069	-0.163917
N126	N	0.834758	0.500069	0.336083
N127	N	0.379947	0.051393	-0.177735
N128	N	0.879947	0.551393	0.322265
H129	H	0.406317	0.051397	-0.228074
H130	H	0.906317	0.551397	0.271926
H131	H	0.695172	0.000044	-0.195890
H132	H	1.195172	0.500044	0.304110
H133	H	0.853038	-0.335837	-0.148689
H134	H	1.353038	0.164163	0.351311
H135	H	1.051957	0.000049	0.364200
H136	H	1.551957	0.500049	0.864200
H137	H	1.036715	-0.335806	0.056564
H138	H	1.536715	0.164194	0.556564
H139	H	1.064053	0.000038	0.216618
H140	H	1.564053	0.500038	0.716618
N141	N	0.842541	-0.188832	-0.160410
N142	N	1.342541	0.311168	0.339590
N143	N	0.842547	-0.120401	-0.160405
N144	N	1.342547	0.379599	0.339595
H145	H	0.806039	-0.092750	-0.201216
H146	H	1.306039	0.407250	0.298784
N147	N	0.776040	0.000051	0.318915
N148	N	1.276040	0.500051	0.818915
N149	N	0.728750	0.051373	0.300447
N150	N	1.228750	0.551373	0.800447
H151	H	0.674575	0.051373	0.319675
H152	H	1.174575	0.551373	0.819675
H153	H	0.853072	-0.664100	-0.148700
H154	H	1.353072	-0.164100	0.351300
H155	H	0.544728	0.000056	-0.203017
H156	H	1.044728	0.500056	0.296983
H157	H	0.713048	0.000029	0.064462
H158	H	1.213048	0.500029	0.564462
H159	H	0.853084	-0.803149	-0.148699
H160	H	1.353084	-0.303149	0.351301
H161	H	0.803700	0.000045	0.165814
H162	H	1.303700	0.500045	0.665814
H163	H	1.098170	0.000053	0.594458
H164	H	1.598170	0.500053	1.094458
H165	H	0.562616	0.000042	0.057338
H166	H	1.062616	0.500042	0.557338
H167	H	1.036753	-0.664075	0.056557
H168	H	1.536753	-0.164075	0.556557
N169	N	1.100261	0.000053	0.753365
N170	N	1.600261	0.500053	1.253365
N171	N	1.149039	-0.051271	0.753656
N172	N	1.649039	0.448729	1.253656
H173	H	1.198405	-0.051274	0.793091
H174	H	1.698405	0.448726	1.293091
N175	N	0.810168	0.000037	0.696788
N176	N	1.310168	0.500037	1.196788
N177	N	0.762864	-0.051293	0.678337
N178	N	1.262864	0.448707	1.178337
H179	H	0.708700	-0.051312	0.697590
H180	H	1.208700	0.448688	1.197590
N181	N	0.187047	0.000062	0.118223
N182	N	0.687047	0.500062	0.618223
N183	N	0.228474	0.000055	0.184034
N184	N	0.728474	0.500055	0.684034
H185	H	0.202128	0.000059	0.234387
H186	H	0.702128	0.500059	0.734387
N187	N	1.047270	-0.188829	0.068225
N188	N	1.547270	0.311171	0.568225
N189	N	1.092514	-0.223049	0.118681
N190	N	1.592514	0.276951	0.618681
H191	H	1.129115	-0.195409	0.159427
H192	H	1.629115	0.304591	0.659427
H193	H	1.036754	-0.803119	0.056561
H194	H	1.536754	-0.303119	0.556561
H195	H	0.837815	0.000060	0.543665
H196	H	1.337815	0.500060	1.043665
