data_functionalizedCrystal
_audit_creation_method	'MofGen! by Chris Wilmer'
_symmetry_space_group_name_H-M	'P1'
_symmetry_Int_Tables_number	1
_symmetry_cell_setting	triclinic
loop_
_symmetry_equiv_pos_as_xyz
  x,y,z
_cell_length_a	17.639929
_cell_length_b	12.645331
_cell_length_c	17.640968
_cell_angle_alpha	78.779715
_cell_angle_beta	65.676070
_cell_angle_gamma	78.803852
loop_
_atom_site_label
_atom_site_type_symbol
_atom_site_fract_x
_atom_site_fract_y
_atom_site_fract_z
Zn1	Zn	-0.233874	1.792494	-0.399594
Zn2	Zn	0.266126	2.292494	0.100406
Zn3	Zn	-0.399554	1.792394	-0.233933
Zn4	Zn	0.100446	2.292394	0.266067
Zn5	Zn	-0.261762	1.585414	-0.261800
Zn6	Zn	0.238238	2.085414	0.238200
Zn7	Zn	-0.371648	1.644998	-0.371722
Zn8	Zn	0.128352	2.144998	0.128278
O9	O	-0.316710	1.703825	-0.316762
O10	O	0.183290	2.203825	0.183238
O11	O	-0.255859	1.940831	-0.377621
O12	O	0.244141	2.440831	0.122379
O13	O	-0.404625	1.739960	-0.122297
O14	O	0.095375	2.239960	0.377703
O15	O	-0.142738	1.587989	-0.303405
O16	O	0.357262	2.087989	0.196595
O17	O	-0.377583	1.940757	-0.255910
O18	O	0.122417	2.440757	0.244090
O19	O	-0.122249	1.740130	-0.404642
O20	O	0.377751	2.240130	0.095358
O21	O	-0.303390	1.587892	-0.142771
O22	O	0.196610	2.087892	0.357229
O23	O	-0.276332	1.444968	-0.276379
O24	O	0.223668	1.944968	0.223621
O25	O	-0.330022	1.689542	-0.490752
O26	O	0.169978	2.189542	0.009248
O27	O	-0.357064	1.488744	-0.357139
O28	O	0.142936	1.988744	0.142861
O29	O	-0.228801	1.797907	-0.511229
O30	O	0.271199	2.297907	-0.011229
O31	O	-0.511177	1.797737	-0.228885
O32	O	-0.011177	2.297737	0.271115
O33	O	-0.490675	1.689445	-0.330118
O34	O	0.009325	2.189445	0.169882
C35	C	-0.316697	1.428391	-0.316759
C36	C	0.183303	1.928391	0.183241
C37	C	-0.316707	1.310568	-0.316773
C38	C	0.183293	1.810568	0.183227
C39	C	-0.530825	1.750078	-0.273471
C40	C	-0.030825	2.250078	0.226529
C41	C	-0.622418	1.769969	-0.254978
C42	C	-0.122418	2.269969	0.245022
C43	C	-0.367623	1.293264	-0.367463
C44	C	0.132377	1.793264	0.132537
C45	C	-0.367923	1.170720	-0.367222
C46	C	0.132077	1.670720	0.132778
C47	C	-0.357483	1.128826	-0.225126
C48	C	0.142517	1.628826	0.274874
C49	C	-0.357859	1.251601	-0.225404
C50	C	0.142141	1.751601	0.274596
C51	C	-0.225033	1.251465	-0.356996
C52	C	0.274967	1.751465	0.143004
C53	C	-0.225127	1.129378	-0.358813
C54	C	0.274873	1.629378	0.141187
C55	C	-0.762152	1.854439	-0.176261
C56	C	-0.262152	2.354439	0.323739
C57	C	-0.676085	1.835742	-0.193644
C58	C	-0.176085	2.335742	0.306356
C59	C	-0.654804	1.722871	-0.298957
C60	C	-0.154804	2.222871	0.201043
C61	C	-0.740870	1.741562	-0.281586
C62	C	-0.240870	2.241562	0.218414
C63	C	-0.794539	1.807346	-0.220237
C64	C	-0.294539	2.307346	0.279763
C65	C	-0.773257	1.694470	-0.325562
C66	C	-0.273257	2.194470	0.174438
C67	C	-0.859316	1.713156	-0.308189
C68	C	-0.359316	2.213156	0.191811
C69	C	-0.912990	1.778934	-0.246841
C70	C	-0.412990	2.278934	0.253159
C71	C	-0.880598	1.826032	-0.202864
C72	C	-0.380598	2.326032	0.297136
C73	C	-0.719588	1.628680	-0.386907
C74	C	-0.219588	2.128680	0.113093
C75	C	-0.751974	1.581587	-0.430883
C76	C	-0.251974	2.081587	0.069117
C77	C	-0.838034	1.600279	-0.413515
C78	C	-0.338034	2.100279	0.086485
C79	C	-0.891708	1.666057	-0.352166
C80	C	-0.391708	2.166057	0.147834
C81	C	-0.870426	1.553181	-0.457491
C82	C	-0.370426	2.053181	0.042509
C83	C	-0.956486	1.571867	-0.440118
C84	C	-0.456486	2.071867	0.059882
C85	C	-0.977768	1.684743	-0.334793
C86	C	-0.477768	2.184743	0.165207
C87	C	-0.101755	1.657424	-0.360241
C88	C	0.398245	2.157424	0.139759
C89	C	-0.010154	1.637651	-0.378769
C90	C	0.489846	2.137651	0.121231
C91	C	-0.273188	1.750382	-0.531731
C92	C	0.226812	2.250382	-0.031731
C93	C	-0.254642	1.770221	-0.623338
C94	C	0.245358	2.270221	-0.123338
C95	C	-0.316723	1.980335	-0.316766
C96	C	0.183277	2.480335	0.183234
C97	C	-0.316729	2.098167	-0.316768
C98	C	0.183271	2.598167	0.183232
C99	C	-0.457156	1.553415	-0.871313
C100	C	0.042844	2.053415	-0.371313
C101	C	-0.439718	1.572078	-0.957394
C102	C	0.060282	2.072078	-0.457394
C103	C	-0.334325	1.684908	-0.978705
C104	C	0.165675	2.184908	-0.478705
C105	C	-0.351751	1.666251	-0.892625
C106	C	0.148249	2.166251	-0.392625
C107	C	-0.413168	1.600504	-0.838935
C108	C	0.086832	2.100504	-0.338935
C109	C	-0.307763	1.713340	-0.860246
C110	C	0.192237	2.213340	-0.360246
C111	C	-0.325191	1.694689	-0.774173
C112	C	0.174809	2.194689	-0.274173
C113	C	-0.386607	1.628948	-0.720478
C114	C	0.113393	2.128948	-0.220478
C115	C	-0.430596	1.581853	-0.752862
C116	C	0.069404	2.081853	-0.252862
C117	C	-0.246350	1.779093	-0.913936
C118	C	0.253650	2.279093	-0.413936
C119	C	-0.202362	1.826182	-0.881558
C120	C	0.297638	2.326182	-0.381558
C121	C	-0.219786	1.807524	-0.795484
C122	C	0.280214	2.307524	-0.295484
C123	C	-0.281202	1.741784	-0.741789
C124	C	0.218798	2.241784	-0.241789
C125	C	-0.175797	1.854619	-0.763101
C126	C	0.324203	2.354619	-0.263101
C127	C	-0.193225	1.835968	-0.677027
C128	C	0.306775	2.335968	-0.177027
C129	C	-0.298630	1.723132	-0.655716
C130	C	0.201370	2.223132	-0.155716
C131	C	-0.360003	1.657498	-0.102642
C132	C	0.139997	2.157498	0.397358
C133	C	-0.378317	1.637813	-0.011082
C134	C	0.121683	2.137813	0.488918
H135	H	-0.340434	1.151482	-0.434610
H136	H	0.159566	1.651482	0.065390
H137	H	-0.232165	1.794279	-0.984022
H138	H	0.267835	2.294279	-0.484022
H139	H	-0.186886	1.260177	-0.320294
H140	H	0.313114	1.760177	0.179706
F141	F	-0.486540	1.521950	-0.991849
F142	F	0.013460	2.021950	-0.491849
H143	H	-0.284322	1.738442	-1.022429
H144	H	0.215678	2.238442	-0.522429
F145	F	-0.137003	1.896155	-0.938706
F146	F	0.362997	2.396155	-0.438706
H147	H	-0.611098	1.669305	-0.348906
H148	H	-0.111098	2.169305	0.151094
H149	H	-0.649515	1.613456	-0.401042
H150	H	-0.149515	2.113456	0.098958
F151	F	-0.331874	1.346114	-0.455759
F152	F	0.168126	1.846114	0.044241
H153	H	-0.125797	1.908159	-0.806826
H154	H	0.374203	2.408159	-0.306826
H155	H	-0.400798	1.613768	-0.650392
H156	H	0.099202	2.113768	-0.150392
F157	F	-0.813300	1.483164	-0.522777
F158	F	-0.313300	1.983164	-0.022777
H159	H	-0.805851	1.908019	-0.126312
H160	H	-0.305851	2.408019	0.373688
F161	F	-1.004579	1.798859	-0.228375
F162	F	-0.504579	2.298859	0.271625
F163	F	-0.455423	1.347457	-0.331138
F164	F	0.044577	1.847457	0.168862
F165	F	-0.456259	1.146362	-0.330573
F166	F	0.043741	1.646362	0.169427
F167	F	-0.312718	1.263959	-0.173084
F168	F	0.187282	1.763959	0.326916
F169	F	-0.146410	1.886089	-0.642565
F170	F	0.353590	2.386089	-0.142565
F171	F	-0.495957	1.511868	-0.695718
F172	F	0.004043	2.011868	-0.195718
F173	F	-0.446118	1.301545	-0.183613
F174	F	0.053882	1.801545	0.316387
F175	F	-0.990957	1.521736	-0.486916
F176	F	-0.490957	2.021736	0.013084
F177	F	-0.522517	1.483430	-0.814169
F178	F	-0.022517	1.983430	-0.314169
H179	H	-0.708268	1.528022	-0.480832
H180	H	-0.208268	2.028022	0.019168
F181	F	-0.363990	1.653147	-0.598572
F182	F	0.136010	2.153147	-0.098572
H183	H	-0.424380	1.107517	-0.192957
H184	H	0.075620	1.607517	0.307043
F185	F	-0.180882	1.303558	-0.444074
F186	F	0.319118	1.803558	0.055926
F187	F	-0.311501	1.064241	-0.173398
F188	F	0.188499	1.564241	0.326602
H189	H	-0.183781	1.078651	-0.326027
H190	H	0.316219	1.578651	0.173973
F191	F	-0.185363	1.104558	-0.447080
F192	F	0.314637	1.604558	0.052920
F193	F	-1.034889	1.754769	-0.269505
F194	F	-0.534889	2.254769	0.230495
H195	H	-0.924297	1.879612	-0.152915
H196	H	-0.424297	2.379612	0.347085
F197	F	-0.641623	1.885859	-0.146826
F198	F	-0.141623	2.385859	0.353174
