data_functionalizedCrystal
_audit_creation_method	'MofGen! by Chris Wilmer'
_symmetry_space_group_name_H-M	'P1'
_symmetry_Int_Tables_number	1
_symmetry_cell_setting	triclinic
loop_
_symmetry_equiv_pos_as_xyz
  x,y,z
_cell_length_a	10.686285
_cell_length_b	10.685969
_cell_length_c	10.686551
_cell_angle_alpha	89.648066
_cell_angle_beta	99.084519
_cell_angle_gamma	98.371884
loop_
_atom_site_label
_atom_site_type_symbol
_atom_site_fract_x
_atom_site_fract_y
_atom_site_fract_z
Zn1	Zn	-0.617473	-2.015779	0.511373
Zn2	Zn	-0.846045	-2.015677	0.282879
Zn3	Zn	-0.615066	-1.789736	0.317933
Zn4	Zn	-0.813405	-1.819812	0.511371
O5	O	-0.722997	-1.910251	0.405889
O6	O	-0.662461	-2.192336	0.466394
O7	O	-0.828057	-1.973076	0.110949
O8	O	-0.436721	-1.807177	0.358264
O9	O	-0.830392	-2.192261	0.298520
O10	O	-0.438490	-1.973250	0.500384
O11	O	-0.658358	-1.807078	0.136703
O12	O	-0.626708	-1.617156	0.358262
O13	O	-0.774762	-1.858437	0.687951
O14	O	-0.772428	-1.639252	0.500380
O15	O	-0.630812	-2.002413	0.687953
O16	O	-1.020379	-2.002239	0.298518
O17	O	-0.996399	-1.858338	0.466390
C18	C	-0.695766	-1.582421	0.433125
C19	C	-0.684145	-1.442179	0.444805
C20	C	-1.054715	-1.933577	0.378675
C21	C	-1.196632	-1.943675	0.367065
C22	C	-0.389985	-1.886870	0.433234
C23	C	-0.248075	-1.876907	0.444887
C24	C	-0.699415	-1.933791	0.735017
C25	C	-0.689365	-1.943822	0.875272
C26	C	-0.750325	-1.239359	0.378534
C27	C	-0.761941	-1.379601	0.366842
C28	C	-0.746402	-1.886869	0.078042
C29	C	-0.756112	-1.877057	-0.062203
H30	H	-0.608651	-1.388465	0.520494
Br31	Br	-0.581311	-2.051909	0.964889
H32	H	-0.820948	-1.812225	0.884028
H33	H	-0.837450	-1.433322	0.291158
Br34	Br	-1.140527	-1.768751	0.570745
Br35	Br	-1.304184	-2.051813	0.241182
