data_functionalizedCrystal
_audit_creation_method	'MofGen! by Chris Wilmer'
_symmetry_space_group_name_H-M	'P1'
_symmetry_Int_Tables_number	1
_symmetry_cell_setting	triclinic
loop_
_symmetry_equiv_pos_as_xyz
  x,y,z
_cell_length_a	14.044220
_cell_length_b	14.044220
_cell_length_c	12.503572
_cell_angle_alpha	86.156832
_cell_angle_beta	86.160255
_cell_angle_gamma	86.811123
loop_
_atom_site_label
_atom_site_type_symbol
_atom_site_fract_x
_atom_site_fract_y
_atom_site_fract_z
O1	O	1.282207	-0.225110	-0.089324
O2	O	1.782207	0.274890	0.410676
O3	O	1.005535	-0.216804	-0.089326
O4	O	1.505535	0.283196	0.410674
O5	O	1.139717	-0.082622	-0.089314
O6	O	1.639717	0.417378	0.410686
O7	O	1.148024	-0.359292	-0.089336
O8	O	1.648024	0.140708	0.410664
O9	O	1.129628	-0.092731	0.089327
O10	O	1.629628	0.407269	0.589327
O11	O	0.995445	-0.226913	0.089315
O12	O	1.495445	0.273087	0.589315
O13	O	1.272117	-0.235219	0.089317
O14	O	1.772117	0.264781	0.589317
Cu15	Cu	1.132860	-0.231989	0.105627
Cu16	Cu	1.632860	0.268011	0.605627
Cu17	Cu	1.144792	-0.220034	-0.105636
Cu18	Cu	1.644792	0.279966	0.394364
O19	O	1.137934	-0.369402	0.089305
O20	O	1.637934	0.130598	0.589305
C21	C	1.131037	-0.052055	0.000007
C22	C	1.631037	0.447945	0.500007
C23	C	1.120192	0.054088	0.000008
C24	C	1.620192	0.554088	0.500008
C25	C	0.964868	-0.218223	-0.000006
C26	C	1.464868	0.281777	0.499994
C27	C	0.858726	-0.207378	-0.000007
C28	C	1.358726	0.292622	0.499993
C29	C	1.312784	-0.233800	-0.000005
C30	C	1.812784	0.266200	0.499995
C31	C	1.418927	-0.244644	-0.000012
C32	C	1.918927	0.255356	0.499988
C33	C	1.613264	-0.264470	-0.000012
C34	C	2.113264	0.235530	0.499988
C35	C	1.664394	-0.187556	-0.000006
C36	C	2.164394	0.312444	0.499994
C37	C	1.772530	-0.198588	-0.000006
C38	C	2.272530	0.301412	0.499994
C39	C	1.505118	-0.253440	-0.000012
C40	C	2.005118	0.246560	0.499988
C41	C	1.146615	-0.399968	-0.000018
C42	C	1.646615	0.100032	0.499982
C43	C	1.157460	-0.506111	-0.000026
C44	C	1.657460	-0.006111	0.499974
N45	N	1.124474	-0.240398	0.254219
N46	N	1.624474	0.259602	0.754219
C47	C	1.100367	0.248427	-0.000008
C48	C	1.600367	0.748427	0.499992
C49	C	1.177281	0.299557	-0.000010
C50	C	1.677281	0.799557	0.499990
C51	C	1.166250	0.407693	-0.000019
C52	C	1.666250	0.907693	0.499981
C53	C	1.111396	0.140280	0.000001
C54	C	1.611396	0.640280	0.500001
N55	N	1.153185	-0.211618	-0.254228
N56	N	1.653185	0.288382	0.245772
C57	C	1.112139	-0.252777	0.473333
C58	C	1.612139	0.247223	0.973333
C59	C	1.165517	-0.199243	0.526665
C60	C	1.665517	0.300757	1.026665
C61	C	1.158653	-0.206130	0.648587
C62	C	1.658653	0.293870	1.148587
C63	C	1.119001	-0.245890	0.351399
C64	C	1.619001	0.254110	0.851399
H65	H	1.650702	-0.338598	-0.000019
H66	H	2.150702	0.161402	0.499981
O67	O	1.265683	0.254801	-0.000140
O68	O	1.765683	0.754801	0.499860
C69	C	1.281882	0.202582	-0.092666
C70	C	1.781882	0.702582	0.407334
H71	H	1.210442	0.186002	-0.123520
H72	H	1.710442	0.686002	0.376480
H73	H	1.324169	0.132918	-0.071843
H74	H	1.824169	0.632918	0.428157
H75	H	1.324132	0.246597	-0.157450
H76	H	1.824132	0.746597	0.342550
O77	O	1.011921	0.293051	-0.000196
O78	O	1.511921	0.793051	0.499804
C79	C	0.967245	0.271525	-0.092696
C80	C	1.467245	0.771525	0.407304
H81	H	1.023982	0.250031	-0.157366
H82	H	1.523982	0.750031	0.342634
H83	H	0.923384	0.337111	-0.123751
H84	H	1.423384	0.837111	0.376249
H85	H	0.918243	0.210029	-0.071771
H86	H	1.418243	0.710029	0.428229
O87	O	1.226068	-0.138182	0.472065
O88	O	1.726068	0.361818	0.972065
C89	C	1.200790	-0.043973	0.499633
C90	C	1.700790	0.456027	0.999633
H91	H	1.122568	-0.038955	0.530569
H92	H	1.622568	0.461045	1.030569
H93	H	1.211761	0.007250	0.425715
H94	H	1.711761	0.507250	0.925715
H95	H	1.247599	-0.024031	0.564907
H96	H	1.747599	0.475969	1.064907
O97	O	1.051561	-0.313608	0.528257
O98	O	1.551561	0.186392	1.028257
C99	C	1.058103	-0.307019	0.639525
C100	C	1.558103	0.192981	1.139525
H101	H	1.130087	-0.278506	0.654737
H102	H	1.630087	0.221494	1.154737
H103	H	1.051352	-0.380812	0.682358
H104	H	1.551352	0.119188	1.182358
H105	H	0.998161	-0.256411	0.671456
H106	H	1.498161	0.243589	1.171456
H107	H	1.626959	-0.113419	-0.000078
H108	H	2.126959	0.386581	0.499922
