data_functionalizedCrystal
_audit_creation_method	'MofGen! by Chris Wilmer'
_symmetry_space_group_name_H-M	'P1'
_symmetry_Int_Tables_number	1
_symmetry_cell_setting	triclinic
loop_
_symmetry_equiv_pos_as_xyz
  x,y,z
_cell_length_a	10.908878
_cell_length_b	18.266242
_cell_length_c	11.026607
_cell_angle_alpha	90.001939
_cell_angle_beta	84.335404
_cell_angle_gamma	90.008770
loop_
_atom_site_label
_atom_site_type_symbol
_atom_site_fract_x
_atom_site_fract_y
_atom_site_fract_z
O1	O	1.662467	0.060869	-0.179077
O2	O	1.309532	0.060872	-0.088537
O3	O	1.456749	0.060868	-0.304557
O4	O	1.515250	0.060873	0.036943
O5	O	1.456715	-0.060894	-0.304556
O6	O	1.309499	-0.060890	-0.088536
O7	O	1.662434	-0.060893	-0.179076
Zn8	Zn	1.485961	-0.080224	-0.133806
Zn9	Zn	1.486005	0.080203	-0.133807
O10	O	1.515217	-0.060889	0.036944
C11	C	1.263630	-0.000008	-0.080075
C12	C	1.126902	-0.000007	-0.054876
N13	N	1.485940	-0.189711	-0.133807
C14	C	1.056640	-0.000008	-0.146821
C15	C	0.915324	-0.000007	-0.120779
C16	C	1.576604	-0.228013	-0.078454
C17	C	1.576623	-0.304658	-0.078461
C18	C	1.485959	-0.342998	-0.133803
C19	C	1.395287	-0.304686	-0.189170
C20	C	1.395278	-0.228042	-0.189171
N21	N	1.377768	-0.463349	-0.115284
N22	N	1.377782	-0.536157	-0.115276
C23	C	1.485985	-0.573920	-0.133804
N24	N	1.594179	-0.536124	-0.152317
N25	N	1.594165	-0.463309	-0.152318
C26	C	1.485960	-0.426105	-0.133808
C27	C	1.576677	-0.695330	-0.078457
C28	C	1.576697	-0.771976	-0.078473
C29	C	1.395352	-0.772002	-0.189172
C30	C	1.395341	-0.695357	-0.189165
C31	C	1.486003	-0.657026	-0.133801
C32	C	1.708336	-0.000011	-0.187538
C33	C	1.845063	-0.000007	-0.212737
C34	C	1.445939	-0.000012	-0.347589
C35	C	1.413766	-0.000009	-0.475811
N36	N	1.486033	0.189690	-0.133817
C37	C	1.502601	-0.000009	-0.567544
C38	C	1.469351	-0.000006	-0.700068
C39	C	1.526026	-0.000007	0.079976
C40	C	1.558199	-0.000006	0.208198
H41	H	1.101105	-0.000006	-0.244817
H42	H	0.870864	-0.000002	-0.022776
H43	H	1.650432	-0.196808	-0.033377
C44	C	1.752625	0.062586	-0.816474
C45	C	1.694114	-0.000007	-0.765401
H46	H	1.836529	0.062586	-0.800167
H47	H	1.748107	0.062581	-0.902057
H48	H	1.712931	0.105043	-0.781816
H49	H	1.733803	-0.042464	-0.800066
H50	H	1.698640	-0.000009	-0.679802
H51	H	1.603272	-0.000014	-0.547968
H52	H	1.313096	-0.000003	-0.495386
H53	H	1.650454	-0.335850	-0.033383
C54	C	1.179272	-0.671801	-0.193308
C55	C	1.295660	-0.653255	-0.249991
H56	H	1.117731	-0.645806	-0.230860
H57	H	1.166320	-0.722928	-0.201233
H58	H	1.174828	-0.659233	-0.109391
H59	H	1.300107	-0.665828	-0.333906
H60	H	1.308615	-0.602117	-0.242077
C61	C	1.792765	-0.795531	-0.074278
C62	C	1.676367	-0.814078	-0.017623
H63	H	1.854296	-0.821520	-0.036704
H64	H	1.797234	-0.808097	-0.158185
H65	H	1.805711	-0.744397	-0.066347
H66	H	1.663416	-0.865212	-0.025562
H67	H	1.671895	-0.801517	0.066305
H68	H	0.889522	-0.000004	-0.310740
H69	H	1.650500	-0.664118	-0.033377
H70	H	1.082437	-0.000002	0.043120
H71	H	1.368674	0.000000	-0.719637
H72	H	1.321446	-0.196857	-0.234247
C73	C	1.314714	-0.422187	-0.238225
C74	C	1.295623	-0.346824	-0.249999
H75	H	1.253179	-0.448198	-0.275778
H76	H	1.393681	-0.434764	-0.276620
H77	H	1.310209	-0.434708	-0.154287
H78	H	1.300137	-0.334302	-0.333937
H79	H	1.216636	-0.334242	-0.211607
H80	H	1.321532	-0.803218	-0.234235
