data_functionalizedCrystal
_audit_creation_method	'MofGen! by Chris Wilmer'
_symmetry_space_group_name_H-M	'P1'
_symmetry_Int_Tables_number	1
_symmetry_cell_setting	triclinic
loop_
_symmetry_equiv_pos_as_xyz
  x,y,z
_cell_length_a	12.759401
_cell_length_b	25.639239
_cell_length_c	12.759393
_cell_angle_alpha	89.962948
_cell_angle_beta	89.981504
_cell_angle_gamma	90.038847
loop_
_atom_site_label
_atom_site_type_symbol
_atom_site_fract_x
_atom_site_fract_y
_atom_site_fract_z
Zn1	Zn	1.606080	-0.208118	-0.593941
Zn2	Zn	1.605901	-0.295564	-0.418245
Zn3	Zn	1.430382	-0.208145	-0.418281
Zn4	Zn	1.430297	-0.295524	-0.593886
O5	O	1.518165	-0.251838	-0.506088
O6	O	1.753078	-0.219723	-0.570643
O7	O	1.582579	-0.283996	-0.271228
O8	O	1.453799	-0.134976	-0.441621
O9	O	1.752946	-0.283970	-0.441559
O10	O	1.582884	-0.134956	-0.570678
O11	O	1.453626	-0.219770	-0.271255
O12	O	1.283350	-0.219731	-0.441567
O13	O	1.453655	-0.283901	-0.740914
O14	O	1.283288	-0.283928	-0.570584
O15	O	1.582802	-0.219684	-0.740955
O16	O	1.582496	-0.368724	-0.441505
O17	O	1.453481	-0.368695	-0.570549
C18	C	1.245198	-0.251828	-0.506074
C19	C	1.128421	-0.251837	-0.506093
C20	C	1.073554	-0.285318	-0.573160
C21	C	0.963830	-0.285324	-0.573172
C22	C	0.963850	-0.218368	-0.439039
C23	C	1.073572	-0.218359	-0.439033
C24	C	1.073542	-0.323976	-0.650598
C25	C	0.963818	-0.323983	-0.650609
C26	C	1.517989	-0.387680	-0.506040
C27	C	1.518009	-0.445795	-0.506055
C28	C	1.585519	-0.806160	-0.439010
C29	C	1.585560	-0.860765	-0.439024
O30	O	1.642775	-0.889004	-0.381967
N31	N	1.518350	-0.888077	-0.506158
C32	C	1.451103	-0.860782	-0.573289
O33	O	1.393940	-0.889027	-0.630394
C34	C	1.451068	-0.806179	-0.573280
C35	C	1.518275	-0.778869	-0.506134
C36	C	1.652721	-0.778851	-0.371870
C37	C	1.652678	-0.724250	-0.371855
C38	C	1.585434	-0.696959	-0.438980
C39	C	1.518232	-0.724269	-0.506119
C40	C	1.383827	-0.778885	-0.640416
C41	C	1.383799	-0.724278	-0.640401
C42	C	1.451005	-0.696968	-0.573256
C43	C	1.450946	-0.642377	-0.573228
N44	N	1.518155	-0.615065	-0.506094
C45	C	1.585399	-0.642356	-0.438970
C46	C	1.451182	-0.975453	-0.573306
C47	C	1.451210	-1.030055	-0.573311
C48	C	1.585669	-1.030034	-0.439046
C49	C	1.585634	-0.975430	-0.439037
C50	C	1.518391	-0.948140	-0.506172
C51	C	1.585305	-0.527691	-0.438943
C52	C	1.585253	-0.473086	-0.438930
C53	C	1.450799	-0.473111	-0.573198
C54	C	1.450846	-0.527712	-0.573207
C55	C	1.518108	-0.555000	-0.506076
O56	O	1.393762	-0.614103	-0.630258
O57	O	1.642562	-0.614104	-0.381885
C58	C	1.792198	-0.251848	-0.506103
C59	C	1.908975	-0.251852	-0.506109
C60	C	1.518239	-0.251785	-0.780122
C61	C	1.518270	-0.251763	-0.896898
C62	C	1.518371	-0.115465	-0.506159
C63	C	1.518459	-0.057351	-0.506190
C64	C	1.585526	-0.218322	-0.951783
C65	C	1.585551	-0.218303	-1.061507
C66	C	1.451061	-0.285170	-1.061452
C67	C	1.451032	-0.285186	-0.951730
C68	C	1.663176	-0.179718	-0.951816
C69	C	1.663201	-0.179699	-1.061540
C70	C	1.518152	-0.251853	-0.233121
C71	C	1.518325	-0.251728	-0.116345
H72	H	0.933988	-0.364467	-0.628669
O73	O	1.755261	-0.197039	-0.911025
C74	C	1.854250	-0.215624	-0.754611
C75	C	1.749905	-0.196007	-0.800668
H76	H	1.849963	-0.214786	-0.665382
H77	H	1.869257	-0.257257	-0.782088
H78	H	1.920815	-0.189317	-0.782278
H79	H	1.683276	-0.222276	-0.773022
H80	H	1.734990	-0.154366	-0.773196
O81	O	0.910611	-0.185777	-0.374009
C82	C	0.877158	-0.096816	-0.323294
C83	C	0.937495	-0.133663	-0.397025
H84	H	0.898887	-0.054674	-0.341862
H85	H	0.789299	-0.102527	-0.334825
H86	H	0.898674	-0.105973	-0.238549
H87	H	0.916067	-0.124528	-0.481799
H88	H	1.025338	-0.127945	-0.385403
H89	H	1.634120	-0.141226	-1.095595
O90	O	1.108947	-0.311061	-0.747761
C91	C	1.063219	-0.287607	-0.924839
C92	C	1.022981	-0.302215	-0.814850
H93	H	0.993737	-0.280462	-0.979117
H94	H	1.112853	-0.250707	-0.919731
H95	H	1.112870	-0.320879	-0.957111
H96	H	0.973287	-0.268977	-0.782513
H97	H	0.973404	-0.339131	-0.820024
O98	O	1.760306	-0.192671	-1.096896
C99	C	1.937243	-0.216257	-1.051078
C100	C	1.827323	-0.201584	-1.010896
H101	H	1.991462	-0.223457	-0.981568
H102	H	1.931950	-0.253141	-1.100652
H103	H	1.969711	-0.182995	-1.100775
H104	H	1.794791	-0.234813	-0.961156
H105	H	1.832682	-0.164684	-0.961378
O106	O	0.923143	-0.306816	-0.742892
C107	C	0.815038	-0.326905	-0.892349
C108	C	0.861011	-0.346409	-0.787852
H109	H	0.764812	-0.358911	-0.928741
H110	H	0.764714	-0.290929	-0.877560
H111	H	0.881623	-0.316445	-0.948146
H112	H	0.794493	-0.356899	-0.732003
H113	H	0.911363	-0.382368	-0.802722
O114	O	1.385581	-0.317591	-0.898362
C115	C	1.243735	-0.324622	-0.774417
C116	C	1.317779	-0.287865	-0.834811
H117	H	1.188913	-0.300604	-0.723005
H118	H	1.195606	-0.348499	-0.832403
H119	H	1.291929	-0.351982	-0.723075
H120	H	1.269666	-0.260473	-0.886155
H121	H	1.365912	-0.264024	-0.776768
H122	H	1.639981	-0.450852	-0.384249
H123	H	1.396046	-0.450883	-0.627847
H124	H	1.329043	-0.702061	-0.695074
O125	O	1.113919	-0.369880	-0.615677
C126	C	1.077391	-0.456122	-0.549912
C127	C	1.031524	-0.404168	-0.589467
H128	H	1.010798	-0.483854	-0.528689
H129	H	1.127647	-0.474357	-0.614032
H130	H	1.127697	-0.448600	-0.477655
H131	H	0.981171	-0.411646	-0.661705
H132	H	0.981328	-0.385949	-0.525283
H133	H	1.640078	-0.549903	-0.384280
H134	H	1.707407	-0.702018	-0.317183
O135	O	1.718075	-0.805437	-0.306820
C136	C	1.777837	-0.889539	-0.247394
C137	C	1.703749	-0.859501	-0.321105
H138	H	1.766265	-0.933254	-0.258901
H139	H	1.862528	-0.878765	-0.266001
H140	H	1.759516	-0.878828	-0.162646
H141	H	1.721976	-0.870195	-0.405877
H142	H	1.619081	-0.870277	-0.302408
O143	O	1.385527	-0.554163	-0.638526
C144	C	1.252125	-0.548414	-0.771661
C145	C	1.326052	-0.518399	-0.697747
H146	H	1.204004	-0.519513	-0.819545
H147	H	1.300306	-0.573912	-0.826719
H148	H	1.197280	-0.574045	-0.723378
H149	H	1.380911	-0.492741	-0.745945
H150	H	1.277805	-0.492934	-0.642686
O151	O	1.650890	-1.056545	-0.373728
C152	C	1.702098	-1.073342	-0.195111
C153	C	1.628160	-1.043281	-0.268935
H154	H	1.683763	-1.062621	-0.110371
H155	H	1.690540	-1.117059	-0.206617
H156	H	1.786791	-1.062572	-0.213704
H157	H	1.543439	-1.054008	-0.250387
H158	H	1.639809	-0.999571	-0.257416
O159	O	1.385884	-1.056499	-0.638627
C160	C	1.252473	-1.050742	-0.771752
C161	C	1.326415	-1.020732	-0.697845
H162	H	1.204358	-1.021837	-0.819633
H163	H	1.300643	-1.076245	-0.826812
H164	H	1.197625	-1.076368	-0.723463
H165	H	1.381279	-0.995078	-0.746049
H166	H	1.278181	-0.995263	-0.642782
H167	H	1.641442	-0.139227	-0.922068
O168	O	1.126920	-0.185777	-0.374042
C169	C	1.250918	-0.115190	-0.360179
C170	C	1.190547	-0.152049	-0.433903
H171	H	1.302392	-0.087919	-0.408545
H172	H	1.192915	-0.091227	-0.312269
H173	H	1.302196	-0.139166	-0.305128
H174	H	1.139268	-0.128114	-0.489017
H175	H	1.248606	-0.176014	-0.481739
H176	H	1.640360	-0.953198	-0.384362
O177	O	1.385795	-0.948888	-0.638369
C178	C	1.243841	-0.887339	-0.652370
C179	C	1.317839	-0.917377	-0.578568
H180	H	1.188866	-0.861864	-0.604050
H181	H	1.291962	-0.861695	-0.707334
H182	H	1.195864	-0.916254	-0.700370
H183	H	1.365832	-0.888500	-0.530500
H184	H	1.269657	-0.943029	-0.523674
O185	O	1.318512	-0.805324	-0.705745
C186	C	1.185120	-0.799558	-0.838888
C187	C	1.259056	-0.769553	-0.764967
H188	H	1.137015	-0.770650	-0.886772
H189	H	1.233293	-0.825060	-0.893944
H190	H	1.130261	-0.825183	-0.790609
H191	H	1.313929	-0.743899	-0.813160
H192	H	1.210817	-0.744083	-0.709907
O193	O	1.385854	-0.317622	-1.114880
C194	C	1.326247	-0.347210	-1.283888
C195	C	1.400164	-0.310439	-1.223515
H196	H	1.337775	-0.341407	-1.371730
H197	H	1.344629	-0.389385	-1.262366
H198	H	1.241551	-0.338035	-1.262250
H199	H	1.484884	-0.319568	-1.245120
H200	H	1.381692	-0.268275	-1.245042
