data_functionalizedCrystal
_audit_creation_method	'MofGen! by Chris Wilmer'
_symmetry_space_group_name_H-M	'P1'
_symmetry_Int_Tables_number	1
_symmetry_cell_setting	triclinic
loop_
_symmetry_equiv_pos_as_xyz
  x,y,z
_cell_length_a	12.837943
_cell_length_b	22.610064
_cell_length_c	12.837942
_cell_angle_alpha	89.994876
_cell_angle_beta	94.828940
_cell_angle_gamma	90.007937
loop_
_atom_site_label
_atom_site_type_symbol
_atom_site_fract_x
_atom_site_fract_y
_atom_site_fract_z
O1	O	1.402342	0.049173	0.272127
O2	O	1.902342	0.549173	0.772127
O3	O	1.099208	0.049177	0.258684
O4	O	1.599208	0.549177	0.758684
O5	O	1.244053	0.049172	0.113838
O6	O	1.744053	0.549172	0.613838
O7	O	1.257497	0.049179	0.416972
O8	O	1.757497	0.549179	0.916972
O9	O	1.244027	-0.049198	0.113859
O10	O	1.744027	0.450802	0.613859
O11	O	1.099182	-0.049192	0.258704
O12	O	1.599182	0.450808	0.758704
O13	O	1.402316	-0.049196	0.272148
O14	O	1.902316	0.450804	0.772148
Zn15	Zn	1.250745	-0.064812	0.265429
Zn16	Zn	1.750745	0.435188	0.765429
Zn17	Zn	1.250779	0.064793	0.265402
Zn18	Zn	1.750779	0.564793	0.765402
O19	O	1.257470	-0.049190	0.416993
O20	O	1.757470	0.450810	0.916993
C21	C	1.060126	-0.000007	0.254153
C22	C	1.560126	0.499993	0.754153
C23	C	0.943711	-0.000006	0.240608
C24	C	1.443711	0.499994	0.740608
C25	C	0.718837	-0.000011	0.403437
C26	C	1.218837	0.499989	0.903437
C27	C	0.609454	-0.000010	0.390716
C28	C	1.109454	0.499990	0.890716
C29	C	0.615562	-0.000008	0.202445
C30	C	1.115562	0.499992	0.702445
C31	C	0.724944	-0.000009	0.215166
C32	C	1.224944	0.499991	0.715166
C33	C	0.776578	-0.000009	0.315666
C34	C	1.276578	0.499991	0.815666
C35	C	0.885962	-0.000006	0.328386
C36	C	1.385962	0.499994	0.828386
C37	C	0.892067	-0.000008	0.140116
C38	C	1.392067	0.499992	0.640116
C39	C	0.782685	-0.000007	0.127395
C40	C	1.282685	0.499993	0.627395
N41	N	1.250729	-0.153265	0.265448
N42	N	1.750729	0.346735	0.765448
C43	C	1.314921	-0.561908	0.201276
C44	C	1.814921	-0.061908	0.701276
C45	C	1.314925	-0.623828	0.201269
C46	C	1.814925	-0.123828	0.701269
O47	O	1.369461	-0.655849	0.146718
O48	O	1.869461	-0.155849	0.646718
N49	N	1.250776	-0.654802	0.265380
N50	N	1.750776	-0.154802	0.765380
C51	C	1.186610	-0.623852	0.329495
C52	C	1.686610	-0.123852	0.829495
O53	O	1.132046	-0.655883	0.384025
O54	O	1.632046	-0.155883	0.884025
C55	C	1.186601	-0.561933	0.329496
C56	C	1.686601	-0.061933	0.829496
C57	C	1.250762	-0.530963	0.265388
C58	C	1.750762	-0.030963	0.765388
C59	C	1.379076	-0.530938	0.137172
C60	C	1.879076	-0.030938	0.637172
C61	C	1.379073	-0.469022	0.137181
C62	C	1.879073	0.030978	0.637181
C63	C	1.314914	-0.438077	0.201293
C64	C	1.814914	0.061923	0.701293
C65	C	1.250759	-0.469047	0.265397
C66	C	1.750759	0.030953	0.765397
C67	C	1.122430	-0.530985	0.393604
C68	C	1.622430	-0.030985	0.893604
C69	C	1.122426	-0.469062	0.393599
C70	C	1.622426	0.030938	0.893599
C71	C	1.186587	-0.438092	0.329491
C72	C	1.686587	0.061908	0.829491
C73	C	1.186597	-0.376187	0.329518
C74	C	1.686597	0.123813	0.829518
N75	N	1.250746	-0.345213	0.265406
N76	N	1.750746	0.154787	0.765406
C77	C	1.314905	-0.376158	0.201294
C78	C	1.814905	0.123842	0.701294
C79	C	1.186633	-0.753886	0.329487
C80	C	1.686633	-0.253886	0.829487
C81	C	1.186647	-0.815803	0.329493
C82	C	1.686647	-0.315803	0.829493
C83	C	1.314961	-0.815775	0.201265
C84	C	1.814961	-0.315775	0.701265
C85	C	1.314952	-0.753857	0.201265
C86	C	1.814952	-0.253857	0.701265
C87	C	1.250783	-0.722912	0.265376
C88	C	1.750783	-0.222912	0.765376
C89	C	1.314893	-0.246131	0.201318
C90	C	1.814893	0.253869	0.701318
C91	C	1.314887	-0.184210	0.201336
C92	C	1.814887	0.315790	0.701336
C93	C	1.186570	-0.184243	0.329559
C94	C	1.686570	0.315757	0.829559
C95	C	1.186579	-0.246159	0.329546
C96	C	1.686579	0.253841	0.829546
C97	C	1.250744	-0.277101	0.265417
C98	C	1.750744	0.222899	0.765417
O99	O	1.132086	-0.344126	0.384037
O100	O	1.632086	0.155874	0.884037
O101	O	1.369450	-0.344120	0.146763
O102	O	1.869450	0.155880	0.646763
C103	C	1.441398	-0.000010	0.276679
C104	C	1.941398	0.499990	0.776679
C105	C	1.557813	-0.000008	0.290223
C106	C	2.057813	0.499992	0.790223
C107	C	1.239499	-0.000013	0.074780
C108	C	1.739499	0.499987	0.574780
C109	C	1.225954	-0.000011	-0.041635
C110	C	1.725954	0.499989	0.458365
N111	N	1.250802	0.153246	0.265376
N112	N	1.750802	0.653246	0.765376
C113	C	1.388784	-0.000001	-0.266510
C114	C	1.888784	0.499999	0.233490
C115	C	1.376062	0.000000	-0.375892
C116	C	1.876062	0.500000	0.124108
C117	C	1.187791	-0.000004	-0.369785
C118	C	1.687791	0.499996	0.130215
C119	C	1.200513	-0.000005	-0.260402
C120	C	1.700513	0.499995	0.239598
C121	C	1.301012	-0.000004	-0.208769
C122	C	1.801012	0.499996	0.291231
C123	C	1.313732	-0.000010	-0.099384
C124	C	1.813732	0.499990	0.400616
C125	C	1.125462	-0.000010	-0.093279
C126	C	1.625462	0.499990	0.406721
C127	C	1.112741	-0.000008	-0.202661
C128	C	1.612741	0.499992	0.297339
C129	C	1.262025	-0.000005	0.456052
C130	C	1.762025	0.499995	0.956052
C131	C	1.275569	-0.000002	0.572467
C132	C	1.775569	0.499998	1.072467
H133	H	0.740630	-0.000014	0.045571
H134	H	1.240630	0.499986	0.545571
F135	F	0.953527	0.000001	0.046697
F136	F	1.453527	0.500001	0.546697
F137	F	1.383181	-0.151252	0.133103
F138	F	1.883181	0.348748	0.633103
H139	H	0.573502	-0.000056	0.120623
H140	H	1.073502	0.499944	0.620623
F141	F	1.080841	0.000010	-0.424755
F142	F	1.580841	0.500010	0.075245
F143	F	1.032043	-0.000019	-0.031819
F144	F	1.532043	0.499981	0.468181
H145	H	1.030917	-0.000007	-0.244717
H146	H	1.530917	0.499993	0.255283
H147	H	1.070168	-0.443870	0.445804
H148	H	1.570168	0.056130	0.945804
H149	H	0.928000	-0.000007	0.410218
H150	H	1.428000	0.499993	0.910218
H151	H	1.367141	-0.271317	0.149097
H152	H	1.867141	0.228683	0.649097
H153	H	0.760878	-0.000010	0.485268
H154	H	1.260878	0.499990	0.985268
H155	H	0.562446	-0.000013	0.462189
H156	H	1.062446	0.499987	0.962189
H157	H	1.431315	-0.443810	0.084976
H158	H	1.931315	0.056190	0.584976
H159	H	1.431321	-0.556128	0.084960
H160	H	1.931321	-0.056128	0.584960
F161	F	1.118303	-0.279119	0.397790
F162	F	1.618303	0.220881	0.897790
H163	H	1.367197	-0.728644	0.149063
H164	H	1.867197	-0.228644	0.649063
F165	F	1.383243	-0.848721	0.133029
F166	F	1.883243	-0.348721	0.633029
H167	H	1.070184	-0.556192	0.445806
H168	H	1.570184	-0.056192	0.945806
F169	F	1.495741	-0.000013	-0.211555
F170	F	1.995741	0.499987	0.288445
H171	H	1.134413	-0.841015	0.381707
H172	H	1.634413	-0.341015	0.881707
F173	F	1.118339	-0.720958	0.397734
F174	F	1.618339	-0.220958	0.897734
H175	H	1.134336	-0.159038	0.381762
H176	H	1.634336	0.340962	0.881762
H177	H	1.395564	-0.000012	-0.057346
H178	H	1.895564	0.499988	0.442654
F179	F	1.469481	0.000006	-0.437341
F180	F	1.969481	0.500006	0.062659
