data_functionalizedCrystal
_audit_creation_method	'MofGen! by Chris Wilmer'
_symmetry_space_group_name_H-M	'P1'
_symmetry_Int_Tables_number	1
_symmetry_cell_setting	triclinic
loop_
_symmetry_equiv_pos_as_xyz
  x,y,z
_cell_length_a	21.395364
_cell_length_b	18.050589
_cell_length_c	21.395356
_cell_angle_alpha	90.022373
_cell_angle_beta	89.983509
_cell_angle_gamma	89.950351
loop_
_atom_site_label
_atom_site_type_symbol
_atom_site_fract_x
_atom_site_fract_y
_atom_site_fract_z
Zn1	Zn	0.957792	0.295378	-0.354287
Zn2	Zn	1.207792	0.545378	-0.104287
Zn3	Zn	1.457792	0.795378	0.145713
Zn4	Zn	1.707792	1.045378	0.395713
Zn5	Zn	0.957702	0.419571	-0.249520
Zn6	Zn	1.207702	0.669571	0.000480
Zn7	Zn	1.457702	0.919571	0.250480
Zn8	Zn	1.707702	1.169571	0.500480
Zn9	Zn	0.853022	0.295432	-0.249523
Zn10	Zn	1.103022	0.545432	0.000477
Zn11	Zn	1.353022	0.795432	0.250477
Zn12	Zn	1.603022	1.045432	0.500477
Zn13	Zn	0.852969	0.419564	-0.354260
Zn14	Zn	1.102969	0.669564	-0.104260
Zn15	Zn	1.352969	0.919564	0.145740
Zn16	Zn	1.602969	1.169564	0.395740
O17	O	0.905371	0.357486	-0.301898
O18	O	1.155371	0.607486	-0.051898
O19	O	1.405371	0.857486	0.198102
O20	O	1.655371	1.107486	0.448102
O21	O	1.045458	0.311834	-0.340399
O22	O	1.295458	0.561834	-0.090399
O23	O	1.545458	0.811834	0.159601
O24	O	1.795458	1.061834	0.409601
O25	O	0.943800	0.403129	-0.161842
O26	O	1.193800	0.653129	0.088158
O27	O	1.443800	0.903129	0.338158
O28	O	1.693800	1.153129	0.588158
O29	O	0.866980	0.191500	-0.263433
O30	O	1.116980	0.441500	-0.013433
O31	O	1.366980	0.691500	0.236567
O32	O	1.616980	0.941500	0.486567
O33	O	1.045392	0.403078	-0.263427
O34	O	1.295392	0.653078	-0.013427
O35	O	1.545392	0.903078	0.236573
O36	O	1.795392	1.153078	0.486573
O37	O	0.943954	0.191461	-0.340402
O38	O	1.193954	0.441461	-0.090402
O39	O	1.443954	0.691461	0.159598
O40	O	1.693954	0.941461	0.409598
O41	O	0.866892	0.311925	-0.161845
O42	O	1.116892	0.561925	0.088155
O43	O	1.366892	0.811925	0.338155
O44	O	1.616892	1.061925	0.588155
O45	O	0.765337	0.311917	-0.263407
O46	O	1.015337	0.561917	-0.013407
O47	O	1.265337	0.811917	0.236593
O48	O	1.515337	1.061917	0.486593
O49	O	0.866890	0.403064	-0.441942
O50	O	1.116890	0.653064	-0.191942
O51	O	1.366890	0.903064	0.058058
O52	O	1.616890	1.153064	0.308058
O53	O	0.765298	0.403116	-0.340357
O54	O	1.015298	0.653116	-0.090357
O55	O	1.265298	0.903116	0.159643
O56	O	1.515298	1.153116	0.409643
O57	O	0.943903	0.311826	-0.441961
O58	O	1.193903	0.561826	-0.191961
O59	O	1.443903	0.811826	0.058039
O60	O	1.693903	1.061826	0.308039
O61	O	0.943749	0.523495	-0.263401
O62	O	1.193749	0.773495	-0.013401
O63	O	1.443749	1.023495	0.236599
O64	O	1.693749	1.273495	0.486599
O65	O	0.866802	0.523489	-0.340353
O66	O	1.116802	0.773489	-0.090353
O67	O	1.366802	1.023489	0.159647
O68	O	1.616802	1.273489	0.409647
C69	C	0.742584	0.357522	-0.301880
C70	C	0.992584	0.607522	-0.051880
C71	C	1.242584	0.857522	0.198120
C72	C	1.492584	1.107522	0.448120
C73	C	0.672942	0.357556	-0.301887
C74	C	0.922942	0.607556	-0.051887
C75	C	1.172942	0.857556	0.198113
C76	C	1.422942	1.107556	0.448113
C77	C	0.640286	0.310123	-0.342028
C78	C	0.890286	0.560123	-0.092028
C79	C	1.140286	0.810123	0.157972
C80	C	1.390286	1.060123	0.407972
C81	C	0.574851	0.310103	-0.342031
C82	C	0.824851	0.560103	-0.092031
C83	C	1.074851	0.810103	0.157969
C84	C	1.324851	1.060103	0.407969
C85	C	0.542074	0.357529	-0.301899
C86	C	0.792074	0.607529	-0.051899
C87	C	1.042074	0.857529	0.198101
C88	C	1.292074	1.107529	0.448101
C89	C	0.574738	0.404966	-0.261750
C90	C	0.824738	0.654966	-0.011750
C91	C	1.074738	0.904966	0.238250
C92	C	1.324738	1.154966	0.488250
C93	C	0.640172	0.404979	-0.261744
C94	C	0.890172	0.654979	-0.011744
C95	C	1.140172	0.904979	0.238256
C96	C	1.390172	1.154979	0.488256
C97	C	0.438346	0.424411	-0.296867
C98	C	0.688346	0.674411	-0.046867
C99	C	0.938346	0.924411	0.203133
C100	C	1.188346	1.174411	0.453133
C101	C	0.372913	0.424399	-0.296877
C102	C	0.622913	0.674399	-0.046877
C103	C	0.872913	0.924399	0.203123
C104	C	1.122913	1.174399	0.453123
C105	C	0.340253	0.357489	-0.301913
C106	C	0.590253	0.607489	-0.051913
C107	C	0.840253	0.857489	0.198087
C108	C	1.090253	1.107489	0.448087
C109	C	0.373034	0.290588	-0.306951
C110	C	0.623034	0.540588	-0.056951
C111	C	0.873034	0.790588	0.193049
C112	C	1.123034	1.040588	0.443049
C113	C	0.438468	0.290601	-0.306946
C114	C	0.688468	0.540601	-0.056946
C115	C	0.938468	0.790601	0.193054
C116	C	1.188468	1.040601	0.443054
C117	C	0.471122	0.357520	-0.301900
C118	C	0.721122	0.607520	-0.051900
C119	C	0.971122	0.857520	0.198100
C120	C	1.221122	1.107520	0.448100
C121	C	0.236644	0.310030	-0.342059
C122	C	0.486644	0.560030	-0.092059
C123	C	0.736644	0.810030	0.157941
C124	C	0.986644	1.060030	0.407941
C125	C	0.171208	0.310009	-0.342057
C126	C	0.421208	0.560009	-0.092057
C127	C	0.671208	0.810009	0.157943
C128	C	0.921208	1.060009	0.407943
C129	C	0.171097	0.404879	-0.261779
C130	C	0.421097	0.654879	-0.011779
C131	C	0.671097	0.904879	0.238221
C132	C	0.921097	1.154879	0.488221
C133	C	0.236532	0.404893	-0.261777
C134	C	0.486532	0.654893	-0.011777
C135	C	0.736532	0.904893	0.238223
C136	C	0.986532	1.154893	0.488223
C137	C	0.269302	0.357470	-0.301921
C138	C	0.519302	0.607470	-0.051921
C139	C	0.769302	0.857470	0.198079
C140	C	1.019302	1.107470	0.448079
C141	C	0.905277	0.550438	-0.301888
C142	C	1.155277	0.800438	-0.051888
C143	C	1.405277	1.050438	0.198112
C144	C	1.655277	1.300438	0.448112
C145	C	0.905294	0.632984	-0.301904
C146	C	1.155294	0.882984	-0.051904
C147	C	1.405294	1.132984	0.198096
C148	C	1.655294	1.382984	0.448096
C149	C	0.863473	0.832459	-0.343737
C150	C	1.113473	1.082459	-0.093737
C151	C	1.363473	1.332459	0.156263
C152	C	1.613473	1.582459	0.406263
C153	C	0.848198	0.881903	-0.286564
C154	C	1.098198	1.131903	-0.036564
C155	C	1.348198	1.381903	0.213436
C156	C	1.598198	1.631903	0.463436
C157	C	0.905341	0.784115	-0.301913
C158	C	1.155341	1.034115	-0.051913
C159	C	1.405341	1.284115	0.198087
C160	C	1.655341	1.534115	0.448087
C161	C	0.920633	0.881752	-0.359093
C162	C	1.170633	1.131752	-0.109093
C163	C	1.420633	1.381752	0.140907
C164	C	1.670633	1.631752	0.390907
C165	C	0.905386	0.930100	-0.301926
C166	C	1.155386	1.180100	-0.051926
C167	C	1.405386	1.430100	0.198074
C168	C	1.655386	1.680100	0.448074
C169	C	0.890037	0.832471	-0.244710
C170	C	1.140037	1.082471	0.005290
C171	C	1.390037	1.332471	0.255290
C172	C	1.640037	1.582471	0.505290
C173	C	0.962498	0.832317	-0.317277
C174	C	1.212498	1.082317	-0.067277
C175	C	1.462498	1.332317	0.182723
C176	C	1.712498	1.582317	0.432723
C177	C	0.947245	0.881738	-0.260065
C178	C	1.197245	1.131738	-0.010065
C179	C	1.447245	1.381738	0.239935
C180	C	1.697245	1.631738	0.489935
C181	C	0.905314	0.700016	-0.301906
C182	C	1.155314	0.950016	-0.051906
C183	C	1.405314	1.200016	0.198094
C184	C	1.655314	1.450016	0.448094
C185	C	0.905413	1.014196	-0.301927
C186	C	1.155413	1.264196	-0.051927
C187	C	1.405413	1.514196	0.198073
C188	C	1.655413	1.764196	0.448073
C189	C	1.068794	0.357451	-0.301916
C190	C	1.318794	0.607451	-0.051916
C191	C	1.568794	0.857451	0.198084
C192	C	1.818794	1.107451	0.448084
C193	C	1.138436	0.357435	-0.301923
C194	C	1.388436	0.607435	-0.051923
C195	C	1.638436	0.857435	0.198077
C196	C	1.888436	1.107435	0.448077
C197	C	0.905400	0.357439	-0.465321
C198	C	1.155400	0.607439	-0.215321
C199	C	1.405400	0.857439	0.034679
C200	C	1.655400	1.107439	0.284679
C201	C	0.905413	0.357418	-0.534962
C202	C	1.155413	0.607418	-0.284962
C203	C	1.405413	0.857418	-0.034962
C204	C	1.655413	1.107418	0.215038
C205	C	0.905459	1.163781	-0.301922
C206	C	1.155459	1.413781	-0.051922
C207	C	1.405459	1.663781	0.198078
C208	C	1.655459	1.913781	0.448078
C209	C	0.905435	1.081235	-0.301934
C210	C	1.155435	1.331235	-0.051934
C211	C	1.405435	1.581235	0.198066
C212	C	1.655435	1.831235	0.448066
C213	C	0.945572	0.309792	-1.036770
C214	C	1.195572	0.559792	-0.786770
C215	C	1.445572	0.809792	-0.536770
C216	C	1.695572	1.059792	-0.286770
C217	C	0.945567	0.309810	-0.971334
C218	C	1.195567	0.559810	-0.721334
C219	C	1.445567	0.809810	-0.471334
C220	C	1.695567	1.059810	-0.221334
C221	C	0.905466	0.357319	-0.938601
C222	C	1.155466	0.607319	-0.688601
C223	C	1.405466	0.857319	-0.438601
C224	C	1.655466	1.107319	-0.188601
C225	C	0.865379	0.404828	-0.971308
C226	C	1.115379	0.654828	-0.721308
C227	C	1.365379	0.904828	-0.471308
C228	C	1.615379	1.154828	-0.221308
C229	C	0.865389	0.404814	-1.036742
C230	C	1.115389	0.654814	-0.786742
C231	C	1.365389	0.904814	-0.536742
C232	C	1.615389	1.154814	-0.286742
C233	C	0.848997	0.363218	-0.834925
C234	C	1.098997	0.613218	-0.584925
C235	C	1.348997	0.863218	-0.334925
C236	C	1.598997	1.113218	-0.084925
C237	C	0.848985	0.363227	-0.769492
C238	C	1.098985	0.613227	-0.519492
C239	C	1.348985	0.863227	-0.269492
C240	C	1.598985	1.113227	-0.019492
C241	C	0.905434	0.357367	-0.736780
C242	C	1.155434	0.607367	-0.486780
C243	C	1.405434	0.857367	-0.236780
C244	C	1.655434	1.107367	0.013220
C245	C	0.961896	0.351482	-0.769509
C246	C	1.211896	0.601482	-0.519509
C247	C	1.461896	0.851482	-0.269509
C248	C	1.711896	1.101482	-0.019509
C249	C	0.961907	0.351468	-0.834943
C250	C	1.211907	0.601468	-0.584943
C251	C	1.461907	0.851468	-0.334943
C252	C	1.711907	1.101468	-0.084943
C253	C	0.905451	0.357340	-0.867648
C254	C	1.155451	0.607340	-0.617648
C255	C	1.405451	0.857340	-0.367648
C256	C	1.655451	1.107340	-0.117648
C257	C	0.945517	0.309884	-0.633128
C258	C	1.195517	0.559884	-0.383128
C259	C	1.445517	0.809884	-0.133128
C260	C	1.695517	1.059884	0.116872
C261	C	0.945513	0.309908	-0.567691
C262	C	1.195513	0.559908	-0.317691
C263	C	1.445513	0.809908	-0.067691
C264	C	1.695513	1.059908	0.182309
C265	C	0.865319	0.404921	-0.567666
C266	C	1.115319	0.654921	-0.317666
C267	C	1.365319	0.904921	-0.067666
C268	C	1.615319	1.154921	0.182334
C269	C	0.865328	0.404902	-0.633102
C270	C	1.115328	0.654902	-0.383102
C271	C	1.365328	0.904902	-0.133102
C272	C	1.615328	1.154902	0.116898
C273	C	0.905427	0.357380	-0.665829
C274	C	1.155427	0.607380	-0.415829
C275	C	1.405427	0.857380	-0.165829
C276	C	1.655427	1.107380	0.084171
C277	C	0.905378	0.357480	-0.139110
C278	C	1.155378	0.607480	0.110890
C279	C	1.405378	0.857480	0.360890
C280	C	1.655378	1.107480	0.610890
C281	C	0.905487	0.357291	-0.069469
C282	C	1.155487	0.607291	0.180531
C283	C	1.405487	0.857291	0.430531
C284	C	1.655487	1.107291	0.680531
H285	H	0.263327	0.271411	-0.374742
H286	H	0.513327	0.521411	-0.124742
H287	H	0.763327	0.771411	0.125258
H288	H	1.013327	1.021411	0.375258
Br289	Br	0.804386	0.796390	-0.402606
Br290	Br	1.054386	1.046390	-0.152606
Br291	Br	1.304386	1.296390	0.097394
Br292	Br	1.554386	1.546390	0.347394
H293	H	0.978167	0.271188	-0.659776
H294	H	1.228167	0.521188	-0.409776
H295	H	1.478167	0.771188	-0.159776
H296	H	1.728167	1.021188	0.090224
Br297	Br	1.043009	0.795988	-0.338962
Br298	Br	1.293009	1.045988	-0.088962
Br299	Br	1.543009	1.295988	0.161038
Br300	Br	1.793009	1.545988	0.411038
Br301	Br	0.810904	0.469411	-0.523249
Br302	Br	1.060904	0.719411	-0.273249
Br303	Br	1.310904	0.969411	-0.023249
Br304	Br	1.560904	1.219411	0.226751
Br305	Br	0.126887	0.245625	-0.396534
Br306	Br	0.376887	0.495625	-0.146534
Br307	Br	0.626887	0.745625	0.103466
Br308	Br	0.876887	0.995625	0.353466
Br309	Br	0.684495	0.469354	-0.207259
Br310	Br	0.934495	0.719354	0.042741
Br311	Br	1.184495	0.969354	0.292741
Br312	Br	1.434495	1.219354	0.542741
Br313	Br	0.280855	0.469264	-0.207292
Br314	Br	0.530855	0.719264	0.042708
Br315	Br	0.780855	0.969264	0.292708
Br316	Br	1.030855	1.219264	0.542708
H317	H	0.346444	0.236103	-0.311052
H318	H	0.596444	0.486103	-0.061052
H319	H	0.846444	0.736103	0.188948
H320	H	1.096444	0.986103	0.438948
Br321	Br	0.482955	0.199813	-0.313782
Br322	Br	0.732955	0.449813	-0.063782
Br323	Br	0.982955	0.699813	0.186218
Br324	Br	1.232955	0.949813	0.436218
H325	H	0.832684	0.443578	-0.659726
H326	H	1.082684	0.693578	-0.409726
H327	H	1.332684	0.943578	-0.159726
H328	H	1.582684	1.193578	0.090274
Br329	Br	0.999973	0.245344	-0.926947
Br330	Br	1.249973	0.495344	-0.676947
Br331	Br	1.499973	0.745344	-0.426947
Br332	Br	1.749973	0.995344	-0.176947
H333	H	0.799883	0.903699	-0.273581
H334	H	1.049883	1.153699	-0.023581
H335	H	1.299883	1.403699	0.226419
H336	H	1.549883	1.653699	0.476419
H337	H	0.464933	0.478901	-0.292766
H338	H	0.714933	0.728901	-0.042766
H339	H	0.964933	0.978901	0.207234
H340	H	1.214933	1.228901	0.457234
H341	H	0.933549	0.903400	-0.407444
H342	H	1.183549	1.153400	-0.157444
H343	H	1.433549	1.403400	0.092556
H344	H	1.683549	1.653400	0.342556
Br345	Br	1.000017	0.245329	-1.081182
Br346	Br	1.250017	0.495329	-0.831182
Br347	Br	1.500017	0.745329	-0.581182
Br348	Br	1.750017	0.995329	-0.331182
H349	H	1.007880	0.346679	-0.861588
H350	H	1.257880	0.596679	-0.611588
H351	H	1.507880	0.846679	-0.361588
H352	H	1.757880	1.096679	-0.111588
Br353	Br	1.038512	0.343542	-0.725122
Br354	Br	1.288512	0.593542	-0.475122
Br355	Br	1.538512	0.843542	-0.225122
Br356	Br	1.788512	1.093542	0.024878
Br357	Br	1.006295	0.917577	-0.201060
Br358	Br	1.256295	1.167577	0.048940
Br359	Br	1.506295	1.417577	0.298940
Br360	Br	1.756295	1.667577	0.548940
H361	H	0.978160	0.271230	-0.541069
H362	H	1.228160	0.521230	-0.291069
H363	H	1.478160	0.771230	-0.041069
H364	H	1.728160	1.021230	0.208931
H365	H	0.144411	0.443494	-0.229102
H366	H	0.394411	0.693494	0.020898
H367	H	0.644411	0.943494	0.270898
H368	H	0.894411	1.193494	0.520898
H369	H	0.803011	0.368018	-0.742849
H370	H	1.053011	0.618018	-0.492849
H371	H	1.303011	0.868018	-0.242849
H372	H	1.553011	1.118018	0.007151
Br373	Br	0.772380	0.371162	-0.879314
Br374	Br	1.022380	0.621162	-0.629314
Br375	Br	1.272380	0.871162	-0.379314
Br376	Br	1.522380	1.121162	-0.129314
H377	H	0.346228	0.478873	-0.292777
H378	H	0.596228	0.728873	-0.042777
H379	H	0.846228	0.978873	0.207223
H380	H	1.096228	1.228873	0.457223
H381	H	0.548047	0.443580	-0.229073
H382	H	0.798047	0.693580	0.020927
H383	H	1.048047	0.943580	0.270927
H384	H	1.298047	1.193580	0.520927
H385	H	0.832729	0.443511	-0.944652
H386	H	1.082729	0.693511	-0.694652
H387	H	1.332729	0.943511	-0.444652
H388	H	1.582729	1.193511	-0.194652
H389	H	0.832746	0.443494	-1.063366
H390	H	1.082746	0.693494	-0.813366
H391	H	1.332746	0.943494	-0.563366
H392	H	1.582746	1.193494	-0.313366
H393	H	0.877064	0.810913	-0.196345
H394	H	1.127064	1.060913	0.053655
H395	H	1.377064	1.310913	0.303655
H396	H	1.627064	1.560913	0.553655
H397	H	0.666963	0.271507	-0.374716
H398	H	0.916963	0.521507	-0.124716
H399	H	1.166963	0.771507	0.125284
H400	H	1.416963	1.021507	0.375284
H401	H	0.548257	0.271474	-0.374718
H402	H	0.798257	0.521474	-0.124718
H403	H	1.048257	0.771474	0.125282
H404	H	1.298257	1.021474	0.375282
