data_functionalizedCrystal
_audit_creation_method	'MofGen! by Chris Wilmer'
_symmetry_space_group_name_H-M	'P1'
_symmetry_Int_Tables_number	1
_symmetry_cell_setting	triclinic
loop_
_symmetry_equiv_pos_as_xyz
  x,y,z
_cell_length_a	25.639239
_cell_length_b	13.032831
_cell_length_c	13.032268
_cell_angle_alpha	89.113023
_cell_angle_beta	82.858283
_cell_angle_gamma	82.842759
loop_
_atom_site_label
_atom_site_type_symbol
_atom_site_fract_x
_atom_site_fract_y
_atom_site_fract_z
Zn1	Zn	-0.353075	1.498234	0.780741
Zn2	Zn	-0.430970	1.519922	0.608740
Zn3	Zn	-0.331235	1.348108	0.586988
Zn4	Zn	-0.428143	1.326172	0.758866
O5	O	-0.385856	1.423109	0.683834
O6	O	-0.373731	1.645024	0.776183
O7	O	-0.409782	1.515387	0.461940
O8	O	-0.260977	1.368126	0.612741
O9	O	-0.430960	1.660959	0.649815
O10	O	-0.277023	1.478423	0.755090
O11	O	-0.336508	1.389156	0.445959
O12	O	-0.333767	1.201284	0.591530
O13	O	-0.426142	1.330740	0.905683
O14	O	-0.404965	1.185169	0.717808
O15	O	-0.370990	1.457153	0.921754
O16	O	-0.503750	1.494117	0.628604
O17	O	-0.501673	1.351770	0.738901
C18	C	-0.366689	1.155911	0.649935
C19	C	-0.358504	1.041600	0.635458
C20	C	-0.521683	1.422942	0.683765
C21	C	-0.579799	1.422960	0.683782
C22	C	-0.390128	0.982702	0.691390
C23	C	-0.381668	0.864555	0.676428
C24	C	-0.941263	1.497387	0.626536
C25	C	-0.995870	1.497425	0.626555
O26	O	-1.025027	1.560532	0.577808
N27	N	-1.022111	1.423281	0.683925
C28	C	-0.993742	1.349101	0.741288
O29	O	-1.021077	1.286040	0.790088
C30	C	-0.939136	1.349068	0.741275
C31	C	-0.912897	1.423210	0.683893
C32	C	-0.915024	1.571523	0.569160
C33	C	-0.860419	1.571484	0.569140
C34	C	-0.832054	1.497307	0.626496
C35	C	-0.858293	1.423171	0.683872
C36	C	-0.910769	1.274894	0.798643
C37	C	-0.856159	1.274868	0.798625
C38	C	-0.829920	1.349010	0.741243
C39	C	-0.775323	1.348955	0.741209
N40	N	-0.749082	1.423098	0.683839
C41	C	-0.777448	1.497275	0.626482
C42	C	-1.108419	1.349176	0.741314
C43	C	-1.163024	1.349204	0.741322
C44	C	-1.165149	1.497529	0.626590
C45	C	-1.110542	1.497496	0.626577
C46	C	-1.082179	1.423320	0.683944
C47	C	-0.662774	1.497185	0.626444
C48	C	-0.608165	1.497137	0.626425
C49	C	-0.606046	1.348815	0.741161
C50	C	-0.660650	1.348860	0.741176
C51	C	-0.689013	1.423054	0.683815
O52	O	-0.746133	1.285883	0.789934
O53	O	-0.750108	1.560333	0.577701
C54	C	-0.249501	1.423302	0.683929
C55	C	-0.191395	1.423384	0.683970
C56	C	-0.400687	1.389080	0.952077
C57	C	-0.407007	1.374579	1.066386
C58	C	-0.405097	1.691350	0.717865
C59	C	-0.413297	1.805658	0.732368
C60	C	-0.371048	1.457064	0.416642
C61	C	-0.364595	1.471765	0.302358
C62	C	-0.382537	1.430661	1.125301
C63	C	-0.389069	1.415675	1.243446
H64	H	-0.423463	1.019744	0.750355
Cl65	Cl	-1.200818	1.590779	0.554483
Cl66	Cl	-0.464764	0.862831	0.823425
Cl67	Cl	-0.342710	1.521897	1.068140
Cl68	Cl	-0.307030	0.984417	0.544427
H69	H	-0.938113	1.631932	0.522454
H70	H	-0.348327	0.827516	0.617466
H71	H	-0.414852	1.356556	1.280468
Cl72	Cl	-0.698423	1.590457	0.554329
H73	H	-0.839059	1.631859	0.522418
H74	H	-1.184382	1.288821	0.788038
H75	H	-0.582942	1.288419	0.787857
Cl76	Cl	-0.324789	1.563046	1.245210
Cl77	Cl	-0.446816	1.283312	1.123544
Cl78	Cl	-0.575182	1.590351	0.554283
H79	H	-1.089182	1.557869	0.579852
H80	H	-1.085327	1.288765	0.788025
H81	H	-0.833068	1.214465	0.845344
Cl82	Cl	-0.693634	1.255634	0.813290
Cl83	Cl	-0.943743	1.181691	0.870799
