data_functionalizedCrystal
_audit_creation_method	'MofGen! by Chris Wilmer'
_symmetry_space_group_name_H-M	'P1'
_symmetry_Int_Tables_number	1
_symmetry_cell_setting	triclinic
loop_
_symmetry_equiv_pos_as_xyz
  x,y,z
_cell_length_a	18.101398
_cell_length_b	18.101397
_cell_length_c	13.897441
_cell_angle_alpha	90.034904
_cell_angle_beta	90.027215
_cell_angle_gamma	90.015732
loop_
_atom_site_label
_atom_site_type_symbol
_atom_site_fract_x
_atom_site_fract_y
_atom_site_fract_z
Zn1	Zn	1.132197	-0.294899	0.545519
Zn2	Zn	1.132110	-0.418755	0.384208
Zn3	Zn	1.008350	-0.294922	0.384219
Zn4	Zn	1.008330	-0.418693	0.545443
O5	O	1.070246	-0.356817	0.464847
O6	O	1.235818	-0.311346	0.524148
O7	O	1.115664	-0.402363	0.249228
O8	O	1.024823	-0.191286	0.405652
O9	O	1.235754	-0.402342	0.405634
O10	O	1.115813	-0.191269	0.524159
O11	O	1.024738	-0.311384	0.249236
O12	O	0.904714	-0.311324	0.405578
O13	O	1.024789	-0.402237	0.680435
O14	O	0.904699	-0.402258	0.524029
O15	O	1.115794	-0.311286	0.680491
O16	O	1.115645	-0.522380	0.405560
O17	O	1.024704	-0.522335	0.524018
C18	C	0.877836	-0.356787	0.464797
C19	C	0.795522	-0.356792	0.464798
C20	C	1.070183	-0.549228	0.464801
C21	C	1.070224	-0.631542	0.464813
C22	C	0.496431	-0.356839	0.464879
C23	C	0.527741	-0.299339	0.390717
C24	C	0.613359	-0.299493	0.390401
C25	C	0.644813	-0.356815	0.464839
C26	C	0.613709	-0.434828	0.437059
C27	C	0.528063	-0.434509	0.436544
C28	C	0.528046	-0.337003	0.566996
C29	C	0.613696	-0.335266	0.566438
C30	C	0.728673	-0.356806	0.464818
C31	C	0.412571	-0.356852	0.464898
C32	C	1.070318	-0.930633	0.464901
C33	C	1.127376	-0.899305	0.390170
C34	C	1.127574	-0.813687	0.390364
C35	C	1.070271	-0.782250	0.464856
C36	C	1.091431	-0.813254	0.566533
C37	C	1.091873	-0.898899	0.566126
C38	C	0.991948	-0.899137	0.438835
C39	C	0.992335	-0.813488	0.436565
C40	C	1.070244	-0.698391	0.464837
C41	C	1.070348	-1.014492	0.464927
C42	C	1.263408	-0.356848	0.464898
C43	C	1.345722	-0.356861	0.464920
C44	C	1.070299	-0.356752	0.716440
C45	C	1.070321	-0.356724	0.823654
C46	C	1.070330	-0.163655	0.464915
C47	C	1.070366	-0.081341	0.464944
C48	C	1.070237	-0.356829	0.214233
C49	C	1.070358	-0.356648	0.107020
C50	C	1.070341	-0.356674	1.019950
C51	C	1.070328	-0.356704	0.910717
H52	H	0.634389	-0.241643	0.407814
H53	H	1.114335	-0.792729	0.314973
O54	O	1.039213	-0.926341	0.642397
H55	H	0.995502	-0.960448	0.608209
H56	H	0.507799	-0.378884	0.622253
H57	H	0.947536	-0.792096	0.487008
H58	H	1.149158	-0.918821	0.588205
O59	O	1.110500	-0.927241	0.290152
H60	H	1.061208	-0.963675	0.292611
H61	H	0.507352	-0.478801	0.488204
O62	O	0.640694	-0.493106	0.506360
H63	H	0.676651	-0.467023	0.561467
O64	O	0.935663	-0.926126	0.510869
H65	H	0.951457	-0.907087	0.583975
O66	O	0.640445	-0.316836	0.290159
H67	H	0.619666	-0.371973	0.267973
H68	H	0.506191	-0.312304	0.315491
O69	O	1.038077	-0.786275	0.642283
H70	H	0.995813	-0.750395	0.608185
O71	O	1.166466	-0.784784	0.596278
H72	H	1.188808	-0.748563	0.538816
H73	H	0.508052	-0.451329	0.361892
O74	O	0.500429	-0.222489	0.413508
H75	H	0.518835	-0.206593	0.486850
O76	O	0.642062	-0.457500	0.339238
H77	H	0.678297	-0.413336	0.310248
O78	O	1.203858	-0.927730	0.412754
H79	H	1.201410	-0.964072	0.476973
O80	O	1.204467	-0.786469	0.413210
H81	H	1.241655	-0.834479	0.424173
H82	H	0.972699	-0.920800	0.365977
H83	H	0.506464	-0.281106	0.592252
H84	H	0.634030	-0.277857	0.587385
H85	H	0.635111	-0.374093	0.624656
H86	H	0.976380	-0.793232	0.361740
