data_functionalizedCrystal
_audit_creation_method	'MofGen! by Chris Wilmer'
_symmetry_space_group_name_H-M	'P1'
_symmetry_Int_Tables_number	1
_symmetry_cell_setting	triclinic
loop_
_symmetry_equiv_pos_as_xyz
  x,y,z
_cell_length_a	16.974800
_cell_length_b	19.188924
_cell_length_c	16.053802
_cell_angle_alpha	92.554672
_cell_angle_beta	91.074188
_cell_angle_gamma	83.266364
loop_
_atom_site_label
_atom_site_type_symbol
_atom_site_fract_x
_atom_site_fract_y
_atom_site_fract_z
O1	O	1.048768	0.089000	0.001457
O2	O	0.819269	0.099688	-0.014058
O3	O	0.940644	-0.007281	-0.005843
O4	O	0.927394	0.195970	-0.006759
O5	O	0.933963	-0.001417	0.132564
O6	O	0.812589	0.105552	0.124349
O7	O	1.042087	0.094864	0.139863
Zn8	Zn	0.926277	0.101139	0.154081
Zn9	Zn	0.935080	0.093413	-0.028276
O10	O	0.920713	0.201833	0.131648
C11	C	0.786568	0.102106	0.053160
C12	C	0.699081	0.100567	0.047246
C13	C	0.654342	0.103038	0.119915
C14	C	0.572140	0.101580	0.114361
C15	C	0.534677	0.097656	0.036137
C16	C	0.579422	0.095183	-0.036538
C17	C	0.661624	0.096635	-0.030982
C18	C	0.289223	0.092964	0.011432
C19	C	0.207015	0.091514	0.005882
C20	C	0.199739	0.097910	0.156782
C21	C	0.281941	0.099367	0.162330
C22	C	0.326680	0.096889	0.089656
N23	N	0.450653	0.096169	0.030457
N24	N	0.410703	0.098372	0.095336
C25	C	0.936875	-0.030362	0.063332
C26	C	0.935590	-0.107873	0.063247
C27	C	0.938632	-0.147471	-0.012239
C28	C	0.937413	-0.220299	-0.012328
C29	C	0.933168	-0.253529	0.063075
C30	C	0.930122	-0.213921	0.138571
C31	C	0.931332	-0.141093	0.138657
N32	N	0.973406	-0.370617	0.122130
N33	N	0.972258	-0.439801	0.122043
C34	C	0.929518	-0.472955	0.062821
N35	N	0.887980	-0.434313	0.003676
N36	N	0.889132	-0.365123	0.003761
C37	C	0.931854	-0.332498	0.062990
C38	C	0.931237	-0.591522	-0.012767
C39	C	0.930013	-0.664351	-0.012853
C40	C	0.922730	-0.657972	0.138048
C41	C	0.923946	-0.585144	0.138132
C42	C	0.928203	-0.551923	0.062722
C43	C	1.074789	0.092446	0.072643
C44	C	1.162277	0.093985	0.078551
C45	C	0.924482	0.224914	0.062471
C46	C	0.925767	0.302425	0.062550
N47	N	0.920276	0.106411	0.278535
N48	N	0.941087	0.088136	-0.152730
C49	C	0.971940	0.060912	0.325726
C50	C	0.967749	0.064606	0.412849
C51	C	0.911898	0.113804	0.452780
C52	C	0.860228	0.159305	0.405583
C53	C	0.864416	0.155607	0.318461
C54	C	0.893606	0.129939	0.712952
C55	C	0.889423	0.133635	0.800080
C56	C	0.996944	0.038935	0.807340
C57	C	1.001129	0.035244	0.720216
C58	C	0.949457	0.080742	0.673027
N59	N	0.907614	0.117583	0.541834
N60	N	0.953738	0.076960	0.583974
H61	H	0.942096	-0.120427	-0.073644
O62	O	0.318309	0.103052	0.238340
C63	C	0.305131	0.044238	0.283515
H64	H	0.291056	-0.000258	0.238279
H65	H	0.360605	0.026367	0.321604
H66	H	0.253077	0.059047	0.327190
O67	O	0.690609	0.106819	0.195970
C68	C	0.633488	0.108703	0.258917
H69	H	0.579301	0.084648	0.233064
H70	H	0.659815	0.077490	0.313639
H71	H	0.615159	0.165493	0.280950
O72	O	0.528672	0.103851	0.184933
C73	C	0.490040	0.042791	0.186851
H74	H	0.523267	-0.000806	0.146139
H75	H	0.488969	0.025319	0.253727
H76	H	0.426649	0.054485	0.162241
O77	O	0.928491	-0.102563	0.211943
C78	C	0.997227	-0.068046	0.221134
H79	H	1.023325	-0.062500	0.157179
H80	H	0.981192	-0.013733	0.252088
H81	H	1.042746	-0.099991	0.261565
H82	H	1.017423	0.020853	0.293220
H83	H	0.176516	0.088321	-0.057820
O84	O	1.047207	-0.005300	0.853056
C85	C	1.097382	-0.049531	0.799128
H86	H	1.101163	-0.023536	0.737074
H87	H	1.159147	-0.058976	0.828546
H88	H	1.072412	-0.101847	0.788157
H89	H	0.926663	-0.240981	0.199965
O90	O	0.918569	-0.690127	0.211368
C91	C	0.916170	-0.639558	0.278017
H92	H	0.893157	-0.585733	0.254273
H93	H	0.875017	-0.654006	0.328174
H94	H	0.978394	-0.638044	0.305499
H95	H	0.934699	-0.564472	-0.074171
O96	O	0.806007	0.207186	0.444277
C97	C	0.819605	0.275430	0.423832
H98	H	0.853027	0.272731	0.362623
H99	H	0.760386	0.309544	0.416840
H100	H	0.856398	0.299200	0.475497
O101	O	1.055042	-0.012767	0.681279
C102	C	1.047475	-0.006436	0.594252
H103	H	1.018846	0.048622	0.580251
H104	H	1.108671	-0.015982	0.564971
H105	H	1.008791	-0.046829	0.567162
O106	O	0.156265	0.100184	0.227350
C107	C	0.117626	0.039129	0.229265
H108	H	0.150852	-0.004471	0.188557
H109	H	0.116544	0.021659	0.296140
H110	H	0.054237	0.050828	0.204647
O111	O	0.835268	0.181498	0.838910
C112	C	0.874895	0.226806	0.892139
H113	H	0.938303	0.227022	0.870068
H114	H	0.842491	0.282265	0.890934
H115	H	0.875933	0.207769	0.958457
O116	O	0.940381	-0.258671	-0.085732
C117	C	0.944358	-0.213728	-0.152273
H118	H	0.969125	-0.163732	-0.128420
H119	H	0.984784	-0.241373	-0.202496
H120	H	0.882385	-0.199739	-0.179711
O121	O	0.843381	0.174211	0.667246
C122	C	0.793179	0.218415	0.721175
H123	H	0.822508	0.221915	0.785452
H124	H	0.782167	0.273078	0.695168
H125	H	0.734269	0.196000	0.726512
H126	H	1.009817	0.027557	0.451271
O127	O	0.332552	0.090585	-0.059244
C128	C	0.281859	0.086794	-0.129474
H129	H	0.218857	0.108785	-0.111540
H130	H	0.303031	0.118839	-0.180992
H131	H	0.282696	0.029693	-0.152680
O132	O	0.814268	0.199734	0.272490
C133	C	0.829952	0.185932	0.187034
H134	H	0.860176	0.129987	0.177146
H135	H	0.771833	0.192151	0.149899
H136	H	0.870527	0.224495	0.164952
O137	O	0.542904	0.091402	-0.112459
C138	C	0.460759	0.090634	-0.101782
H139	H	0.443062	0.115268	-0.037928
H140	H	0.426721	0.121907	-0.152429
H141	H	0.446070	0.034109	-0.106356
H142	H	0.698049	0.094624	-0.090157
H143	H	0.932487	-0.696590	-0.074326
H144	H	0.921476	-0.552903	0.199601
