data_functionalizedCrystal
_audit_creation_method	'MofGen! by Chris Wilmer'
_symmetry_space_group_name_H-M	'P1'
_symmetry_Int_Tables_number	1
_symmetry_cell_setting	triclinic
loop_
_symmetry_equiv_pos_as_xyz
  x,y,z
_cell_length_a	16.625548
_cell_length_b	12.645330
_cell_length_c	12.645323
_cell_angle_alpha	90.024870
_cell_angle_beta	90.022465
_cell_angle_gamma	90.018760
loop_
_atom_site_label
_atom_site_type_symbol
_atom_site_fract_x
_atom_site_fract_y
_atom_site_fract_z
Zn1	Zn	1.232722	-0.422001	0.599440
Zn2	Zn	1.566056	-0.088667	0.932774
Zn3	Zn	1.899389	0.244666	1.266107
Zn4	Zn	1.232632	-0.599289	0.422180
Zn5	Zn	1.565966	-0.265955	0.755514
Zn6	Zn	1.899299	0.067378	1.088847
Zn7	Zn	1.097880	-0.422043	0.422185
Zn8	Zn	1.431213	-0.088710	0.755519
Zn9	Zn	1.764546	0.244624	1.088852
Zn10	Zn	1.097866	-0.599226	0.599396
Zn11	Zn	1.431199	-0.265893	0.932730
Zn12	Zn	1.764532	0.067441	1.266063
O13	O	1.165275	-0.510640	0.510801
O14	O	1.498608	-0.177306	0.844134
O15	O	1.831942	0.156027	1.177467
O16	O	1.345543	-0.445527	0.575943
O17	O	1.678876	-0.112194	0.909276
O18	O	2.012209	0.221140	1.242609
O19	O	1.214725	-0.575821	0.273834
O20	O	1.548059	-0.242487	0.607167
O21	O	1.881392	0.090846	0.940500
O22	O	1.115810	-0.273690	0.445719
O23	O	1.449144	0.059643	0.779052
O24	O	1.782477	0.392977	1.112386
O25	O	1.345477	-0.575780	0.445711
O26	O	1.678810	-0.242446	0.779044
O27	O	2.012143	0.090887	1.112377
O28	O	1.214879	-0.273659	0.575948
O29	O	1.548212	0.059674	0.909281
O30	O	1.881545	0.393008	1.242614
O31	O	1.115723	-0.445599	0.273837
O32	O	1.449056	-0.112266	0.607171
O33	O	1.782390	0.221068	0.940504
O34	O	0.985045	-0.445538	0.445677
O35	O	1.318379	-0.112205	0.779010
O36	O	1.651712	0.221129	1.112343
O37	O	1.115787	-0.575673	0.747750
O38	O	1.449120	-0.242339	1.081083
O39	O	1.782453	0.090994	1.414416
O40	O	0.985035	-0.575714	0.575873
O41	O	1.318369	-0.242380	0.909206
O42	O	1.651702	0.090953	1.242539
O43	O	1.214865	-0.445466	0.747782
O44	O	1.548199	-0.112133	1.081115
O45	O	1.881532	0.221201	1.414449
O46	O	1.214712	-0.747628	0.445668
O47	O	1.548045	-0.414294	0.779001
O48	O	1.881378	-0.080961	1.112335
O49	O	1.115699	-0.747582	0.575868
O50	O	1.449033	-0.414248	0.909201
O51	O	1.782366	-0.080915	1.242535
C52	C	0.955784	-0.510624	0.510771
C53	C	1.289118	-0.177291	0.844104
C54	C	1.622451	0.156042	1.177438
C55	C	0.866163	-0.510644	0.510783
C56	C	1.199496	-0.177310	0.844117
C57	C	1.532830	0.156023	1.177450
C58	C	0.537987	-0.510650	0.510829
C59	C	0.871321	-0.177317	0.844162
C60	C	1.204654	0.156016	1.177495
C61	C	0.629296	-0.510646	0.510813
C62	C	0.962629	-0.177312	0.844146
C63	C	1.295963	0.156021	1.177479
C64	C	0.702072	-0.510648	0.510805
C65	C	1.035406	-0.177314	0.844139
C66	C	1.368739	0.156019	1.177472
C67	C	0.793387	-0.510642	0.510791
C68	C	1.126720	-0.177308	0.844124
C69	C	1.460053	0.156025	1.177458
C70	C	1.165216	-0.786069	0.510786
C71	C	1.498550	-0.452736	0.844119
C72	C	1.831883	-0.119403	1.177452
C73	C	1.165265	-0.903899	0.510815
C74	C	1.498598	-0.570566	0.844148
C75	C	1.831931	-0.237233	1.177482
C76	C	1.103233	-1.071478	0.592976
C77	C	1.436566	-0.738145	0.926310
C78	C	1.769900	-0.404812	1.259643
C79	C	1.102916	-0.948919	0.592712
C80	C	1.436249	-0.615586	0.926045
C81	C	1.769582	-0.282252	1.259379
C82	C	1.142260	-0.948494	0.399093
C83	C	1.475594	-0.615161	0.732426
C84	C	1.808927	-0.281827	1.065760
C85	C	1.141882	-1.071092	0.399592
C86	C	1.475215	-0.737759	0.732925
C87	C	1.808548	-0.404426	1.066258
C88	C	1.250681	-1.070987	0.539469
C89	C	1.584014	-0.737653	0.872803
C90	C	1.917347	-0.404320	1.206136
C91	C	1.250157	-0.948380	0.541912
C92	C	1.583491	-0.615046	0.875246
C93	C	1.916824	-0.281713	1.208579
C94	C	1.375584	-0.510656	0.510831
C95	C	1.708917	-0.177322	0.844164
C96	C	2.042251	0.156011	1.177498
C97	C	1.465205	-0.510662	0.510844
C98	C	1.798538	-0.177329	0.844177
C99	C	2.131872	0.156004	1.177511
C100	C	1.165334	-0.510558	0.787306
C101	C	1.498668	-0.177224	1.120639
C102	C	1.832001	0.156109	1.453973
C103	C	1.165360	-0.510523	0.905136
C104	C	1.498693	-0.177189	1.238470
C105	C	1.832026	0.156144	1.571803
C106	C	1.165356	-0.234134	0.510839
C107	C	1.498689	0.099199	0.844172
C108	C	1.832023	0.432532	1.177505
C109	C	1.165391	-0.116304	0.510855
C110	C	1.498724	0.217029	0.844188
C111	C	1.832057	0.550362	1.177522
C112	C	1.165262	-0.510645	0.235371
C113	C	1.498596	-0.177311	0.568704
C114	C	1.831929	0.156022	0.902038
C115	C	1.165393	-0.510381	0.117541
C116	C	1.498727	-0.177048	0.450875
C117	C	1.832060	0.156286	0.784208
C118	C	1.102837	-0.592050	1.072680
C119	C	1.436170	-0.258716	1.406013
C120	C	1.769504	0.074617	1.739347
C121	C	1.103001	-0.592453	0.950120
C122	C	1.436334	-0.259120	1.283453
C123	C	1.769667	0.074213	1.616787
C124	C	1.250318	-0.540839	0.949656
C125	C	1.583651	-0.207506	1.282989
C126	C	1.916985	0.125828	1.616322
C127	C	1.249975	-0.541350	1.072254
C128	C	1.583308	-0.208017	1.405587
C129	C	1.916642	0.125316	1.738921
C130	C	1.143727	-0.398223	1.072334
C131	C	1.477061	-0.064890	1.405668
C132	C	1.810394	0.268443	1.739001
C133	C	1.141832	-0.398896	0.949728
C134	C	1.475165	-0.065563	1.283061
C135	C	1.808498	0.267770	1.616394
H136	H	1.117309	-0.918765	0.675553
H137	H	1.450642	-0.585431	1.008886
H138	H	1.783975	-0.252098	1.342220
H139	H	1.186098	-0.919335	0.336234
H140	H	1.519431	-0.586001	0.669568
H141	H	1.852764	-0.252668	1.002901
F142	F	1.274735	-0.646882	0.909545
F143	F	1.608069	-0.313549	1.242879
F144	F	1.941402	0.019785	1.576212
F145	F	1.021105	-1.111888	0.568533
F146	F	1.354438	-0.778555	0.901866
F147	F	1.687772	-0.445222	1.235199
H148	H	1.185190	-1.100749	0.336318
H149	H	1.518523	-0.767415	0.669652
H150	H	1.851857	-0.434082	1.002985
H151	H	1.184066	-0.334832	0.919106
H152	H	1.517399	-0.001499	1.252440
H153	H	1.850733	0.331835	1.585773
H154	H	1.267506	-0.919229	0.624134
H155	H	1.600839	-0.585895	0.957467
H156	H	1.934172	-0.252562	1.290800
H157	H	1.117494	-1.100890	0.676089
H158	H	1.450827	-0.767557	1.009422
H159	H	1.784161	-0.434223	1.342756
F160	F	1.060107	-0.369015	0.911705
F161	F	1.393440	-0.035682	1.245039
F162	F	1.726774	0.297651	1.578372
F163	F	1.061615	-0.908491	0.366836
F164	F	1.394949	-0.575158	0.700169
F165	F	1.728282	-0.241825	1.033502
F166	F	1.203280	-0.318692	1.110255
F167	F	1.536614	0.014641	1.443588
F168	F	1.869947	0.347974	1.776922
F169	F	1.311213	-1.108891	0.461304
F170	F	1.644546	-0.775557	0.794637
F171	F	1.977880	-0.442224	1.127971
F172	F	1.020268	-0.910704	0.567938
F173	F	1.353602	-0.577371	0.901272
F174	F	1.686935	-0.244037	1.234605
F175	F	1.273978	-0.648516	1.109653
F176	F	1.607311	-0.315183	1.442987
F177	F	1.940644	0.018151	1.776320
H178	H	1.079534	-1.099785	0.375352
H179	H	1.412867	-0.766452	0.708685
H180	H	1.746201	-0.433119	1.042018
F181	F	1.064161	-0.362103	1.112725
F182	F	1.397494	-0.028770	1.446058
F183	F	1.730827	0.304564	1.779391
F184	F	1.278110	-1.111300	0.644144
F185	F	1.611443	-0.777966	0.977477
F186	F	1.944777	-0.444633	1.310810
F187	F	1.313880	-0.908310	0.469433
F188	F	1.647213	-0.574976	0.802766
F189	F	1.980546	-0.241643	1.136099
H190	H	1.040001	-0.573482	0.920018
H191	H	1.373335	-0.240149	1.253352
H192	H	1.706668	0.093184	1.586685
H193	H	1.039651	-0.573261	1.102154
H194	H	1.372984	-0.239928	1.435487
H195	H	1.706318	0.093405	1.768821
H196	H	1.117000	-0.674677	1.103499
H197	H	1.450334	-0.341344	1.436832
H198	H	1.783667	-0.008011	1.770166
H199	H	1.117303	-0.675601	0.920806
H200	H	1.450637	-0.342267	1.254139
H201	H	1.783970	-0.008934	1.587473
F202	F	1.312875	-0.465550	0.911577
F203	F	1.646208	-0.132217	1.244910
F204	F	1.979542	0.201117	1.578244
F205	F	1.312928	-0.466930	1.111049
F206	F	1.646261	-0.133596	1.444382
F207	F	1.979595	0.199737	1.777716
