data_functionalizedCrystal
_audit_creation_method	'MofGen! by Chris Wilmer'
_symmetry_space_group_name_H-M	'P1'
_symmetry_Int_Tables_number	1
_symmetry_cell_setting	triclinic
loop_
_symmetry_equiv_pos_as_xyz
  x,y,z
_cell_length_a	29.839134
_cell_length_b	29.839131
_cell_length_c	18.101389
_cell_angle_alpha	89.971836
_cell_angle_beta	90.031063
_cell_angle_gamma	89.966655
loop_
_atom_site_label
_atom_site_type_symbol
_atom_site_fract_x
_atom_site_fract_y
_atom_site_fract_z
Zn1	Zn	0.686752	0.178987	0.418922
Zn2	Zn	0.686676	0.254104	0.295059
Zn3	Zn	0.611626	0.178979	0.295068
Zn4	Zn	0.611584	0.254082	0.418833
O5	O	0.649160	0.216538	0.356970
O6	O	0.749609	0.188965	0.402524
O7	O	0.676707	0.244145	0.191427
O8	O	0.621641	0.116113	0.311539
O9	O	0.749554	0.244152	0.311523
O10	O	0.676836	0.116119	0.402533
O11	O	0.621568	0.188951	0.191434
O12	O	0.548753	0.188929	0.311453
O13	O	0.621569	0.244114	0.522478
O14	O	0.548722	0.244106	0.402382
O15	O	0.676795	0.188943	0.522543
O16	O	0.676666	0.316968	0.311437
O17	O	0.621496	0.316952	0.402373
C18	C	0.532437	0.216515	0.356909
C19	C	0.482503	0.216516	0.356901
C20	C	0.125919	0.187765	0.309720
C21	C	0.313592	0.187752	0.309675
O22	O	0.337860	0.163269	0.269492
N23	N	0.337057	0.216523	0.356938
C24	C	0.313602	0.245297	0.404218
O25	O	0.337866	0.269764	0.444423
C26	C	0.125929	0.245307	0.404267
C27	C	0.102467	0.216537	0.356996
C28	C	0.102456	0.158998	0.262454
C29	C	0.055541	0.159003	0.262462
C30	C	0.032088	0.187775	0.309738
C31	C	0.055551	0.216543	0.357004
C32	C	0.102474	0.274078	0.451550
C33	C	0.055553	0.274077	0.451560
C34	C	0.032090	0.245308	0.404289
C35	C	-0.014817	0.245320	0.404289
N36	N	-0.038282	0.216550	0.357026
C37	C	-0.014830	0.187777	0.309751
C38	C	0.412132	0.245290	0.404189
C39	C	0.459050	0.245288	0.404176
C40	C	0.459037	0.187743	0.309634
C41	C	0.412119	0.187747	0.309643
C42	C	0.388667	0.216519	0.356926
C43	C	-0.113355	0.187790	0.309772
C44	C	-0.160275	0.187799	0.309783
C45	C	-0.160258	0.245343	0.404328
C46	C	-0.113343	0.245336	0.404315
C47	C	-0.089893	0.216556	0.357035
O48	O	-0.039114	0.269787	0.444457
O49	O	-0.039103	0.163306	0.269564
C50	C	0.172835	0.187760	0.309711
C51	C	0.196297	0.216527	0.356978
C52	C	0.172845	0.245300	0.404253
C53	C	0.243215	0.216525	0.356965
C54	C	0.266668	0.187753	0.309690
C55	C	0.243203	0.158982	0.262427
C56	C	0.196287	0.158987	0.262436
C57	C	0.196310	0.274070	0.451516
C58	C	0.243226	0.274063	0.451503
C59	C	0.266678	0.245291	0.404227
C60	C	0.649080	0.333261	0.356911
C61	C	0.649087	0.383195	0.356910
C62	C	0.677849	0.692807	0.404429
C63	C	0.677880	0.880480	0.404478
O64	O	0.702289	0.904717	0.444829
N65	N	0.649171	0.903980	0.357068
C66	C	0.620451	0.880560	0.309646
O67	O	0.596030	0.904854	0.269327
C68	C	0.620418	0.692887	0.309601
C69	C	0.649131	0.669389	0.357009
C70	C	0.706559	0.669309	0.451834
C71	C	0.706553	0.622393	0.451819
C72	C	0.677836	0.598976	0.404398
C73	C	0.649125	0.622474	0.356994
C74	C	0.591696	0.669468	0.262183
C75	C	0.591689	0.622547	0.262178
C76	C	0.620403	0.599048	0.309586
C77	C	0.620402	0.552141	0.309558
N78	N	0.649110	0.528641	0.356968
C79	C	0.677827	0.552058	0.404388
C80	C	0.620471	0.979090	0.309671
C81	C	0.620480	1.026008	0.309681
C82	C	0.677908	1.025925	0.404515
C83	C	0.677901	0.979006	0.404501
C84	C	0.649180	0.955590	0.357081
C85	C	0.677812	0.453532	0.404352
C86	C	0.677804	0.406612	0.404330
C87	C	0.620375	0.406700	0.309499
C88	C	0.620384	0.453615	0.309518
C89	C	0.649104	0.477030	0.356950
O90	O	0.596002	0.527874	0.269234
O91	O	0.702237	0.527755	0.444713
C92	C	0.677855	0.739722	0.404445
C93	C	0.649144	0.763220	0.357040
C94	C	0.620427	0.739803	0.309620
C95	C	0.649153	0.810138	0.357050
C96	C	0.677870	0.833555	0.404470
C97	C	0.706578	0.810055	0.451881
C98	C	0.706572	0.763139	0.451865
C99	C	0.591719	0.763303	0.262210
C100	C	0.591728	0.810219	0.262229
C101	C	0.620445	0.833636	0.309649
C102	C	0.766338	0.216562	0.357032
C103	C	0.816272	0.216572	0.357059
C104	C	0.649186	0.216527	0.550132
C105	C	0.649197	0.216522	0.632447
C106	C	0.649228	1.099360	0.357052
C107	C	0.649197	1.049425	0.357102
C108	C	0.649160	0.216517	0.164560
C109	C	0.649236	0.216395	0.082246
C110	C	0.649223	0.216438	0.931538
C111	C	0.614357	0.251040	0.900172
C112	C	0.614451	0.251200	0.814553
C113	C	0.649209	0.216479	0.783155
C114	C	0.696540	0.229336	0.814266
C115	C	0.696346	0.229564	0.899911
C116	C	0.637170	0.168902	0.899973
C117	C	0.636117	0.169176	0.814322
C118	C	0.649205	0.216502	0.699296
C119	C	0.649231	0.216416	1.015397
H120	H	0.393042	0.268721	0.442694
H121	H	0.701195	0.472591	0.442981
H122	H	0.701188	0.387482	0.442935
H123	H	0.568333	0.744241	0.223596
F124	F	0.666892	0.133690	0.786396
F125	F	0.484016	0.275914	0.454478
H126	H	0.393018	0.164319	0.271154
H127	H	0.701282	0.959877	0.443105
H128	H	0.729933	0.603264	0.490424
F129	F	0.171356	0.304696	0.501836
F130	F	0.127435	0.304698	0.501864
H131	H	0.601286	0.159481	0.793986
H132	H	0.729944	0.688370	0.490454
H133	H	0.568347	0.829347	0.223616
H134	H	0.706936	0.263717	0.792817
H135	H	0.579353	0.243154	0.793516
H136	H	-0.179376	0.164371	0.271287
H137	H	-0.094268	0.164353	0.271276
F138	F	0.708471	1.050855	0.454983
F139	F	0.568341	0.240629	0.927065
F140	F	0.484005	0.157121	0.259319
F141	F	0.589830	0.478624	0.259053
F142	F	0.670363	0.135205	0.926490
H143	H	-0.179362	0.268770	0.442816
F144	F	0.624632	0.296808	0.928339
H145	H	0.036461	0.297506	0.490067
F146	F	0.709702	0.274983	0.926023
H147	H	-0.094238	0.268765	0.442801
F148	F	0.731432	0.198033	0.927039
F149	F	0.171322	0.128366	0.212125
H150	H	0.597103	1.045136	0.271069
F151	F	0.624872	0.297250	0.787767
F152	F	0.268191	0.304688	0.501815
H153	H	0.597082	0.960028	0.271055
F154	F	0.561133	0.694466	0.211726
H155	H	0.603257	0.157189	0.921556
H156	H	0.036442	0.135576	0.223970
F157	F	0.731408	0.197431	0.787691
H158	H	0.596995	0.387626	0.270888
H159	H	0.262306	0.135556	0.223931
F160	F	0.127409	0.128370	0.212134
F161	F	0.561119	0.597628	0.211707
F162	F	0.737133	0.738137	0.502324
F163	F	0.737143	0.834986	0.502346
