data_functionalizedCrystal
_audit_creation_method	'MofGen! by Chris Wilmer'
_symmetry_space_group_name_H-M	'P1'
_symmetry_Int_Tables_number	1
_symmetry_cell_setting	triclinic
loop_
_symmetry_equiv_pos_as_xyz
  x,y,z
_cell_length_a	13.185407
_cell_length_b	13.339070
_cell_length_c	15.455313
_cell_angle_alpha	93.394339
_cell_angle_beta	88.232705
_cell_angle_gamma	83.801389
loop_
_atom_site_label
_atom_site_type_symbol
_atom_site_fract_x
_atom_site_fract_y
_atom_site_fract_z
O1	O	1.376473	-0.248775	-0.072111
O2	O	1.876473	0.251225	0.427889
O3	O	1.087641	-0.154038	-0.072116
O4	O	1.587641	0.345962	0.427884
O5	O	1.198908	-0.339645	-0.072111
O6	O	1.698908	0.160355	0.427889
O7	O	1.265206	-0.063168	-0.072115
O8	O	1.765206	0.436832	0.427885
O9	O	1.192535	-0.329065	0.072151
O10	O	1.692535	0.170935	0.572151
O11	O	1.081268	-0.143458	0.072146
O12	O	1.581268	0.356542	0.572146
O13	O	1.370100	-0.238195	0.072151
O14	O	1.870100	0.261805	0.572151
Cu15	Cu	1.225102	-0.189861	0.085321
Cu16	Cu	1.725102	0.310139	0.585321
Cu17	Cu	1.232639	-0.202373	-0.085285
Cu18	Cu	1.732639	0.297627	0.414715
O19	O	1.258833	-0.052588	0.072147
O20	O	1.758833	0.447412	0.572147
C21	C	1.046732	-0.139144	0.000015
C22	C	1.546732	0.360856	0.500015
C23	C	0.934328	-0.110537	0.000013
C24	C	1.434328	0.389463	0.500013
C25	C	1.184523	-0.368996	0.000018
C26	C	1.684523	0.131004	0.500018
C27	C	1.151142	-0.472210	0.000014
C28	C	1.651142	0.027790	0.500014
C29	C	0.562465	-0.383551	0.000020
C30	C	1.062465	0.116449	0.500020
C31	C	0.668074	-0.410431	0.000028
C32	C	1.168074	0.089569	0.500028
C33	C	0.734642	-0.335460	0.000024
C34	C	1.234642	0.164540	0.500024
C35	C	0.695592	-0.233604	0.000013
C36	C	1.195592	0.266396	0.500013
C37	C	0.589972	-0.206721	0.000012
C38	C	1.089972	0.293279	0.500012
C39	C	0.762150	-0.158630	0.000015
C40	C	1.262150	0.341370	0.500015
C41	C	0.723099	-0.056774	0.000004
C42	C	1.223099	0.443226	0.500004
C43	C	0.617490	-0.029896	0.000003
C44	C	1.117490	0.470104	0.500003
C45	C	0.550921	-0.104867	0.000007
C46	C	1.050921	0.395133	0.500007
C47	C	0.867769	-0.185513	0.000016
C48	C	1.367769	0.314487	0.500016
C49	C	0.895276	-0.008683	0.000008
C50	C	1.395276	0.491317	0.500008
C51	C	0.789668	0.018197	0.000000
C52	C	1.289668	0.518197	0.500000
C53	C	1.410697	-0.907667	0.000019
C54	C	1.910697	-0.407667	0.500019
C55	C	1.442063	-0.810693	0.000028
C56	C	1.942063	-0.310693	0.500028
C57	C	1.369335	-0.726068	0.000024
C58	C	1.869335	-0.226068	0.500024
C59	C	1.265236	-0.738425	0.000012
C60	C	1.765236	-0.238425	0.500012
C61	C	1.233867	-0.835408	0.000011
C62	C	1.733867	-0.335408	0.500011
C63	C	1.192505	-0.653809	0.000016
C64	C	1.692505	-0.153809	0.500016
C65	C	1.088406	-0.666166	0.000004
C66	C	1.588406	-0.166166	0.500004
C67	C	1.057042	-0.763140	0.000001
C68	C	1.557042	-0.263140	0.500001
C69	C	1.129770	-0.847766	0.000005
C70	C	1.629770	-0.347766	0.500005
C71	C	1.223875	-0.556826	0.000017
C72	C	1.723875	-0.056826	0.500017
C73	C	1.047045	-0.484567	0.000009
C74	C	1.547045	0.015433	0.500009
C75	C	1.015679	-0.581541	-0.000000
C76	C	1.515679	-0.081541	0.500000
C77	C	1.411009	-0.253090	0.000019
C78	C	1.911009	0.246910	0.500019
C79	C	1.523414	-0.281697	0.000015
C80	C	2.023414	0.218303	0.500015
C81	C	1.273218	-0.023238	0.000015
C82	C	1.773218	0.476762	0.500015
C83	C	1.306600	0.079976	0.000014
C84	C	1.806600	0.579976	0.500014
N85	N	1.219808	-0.181063	0.205316
N86	N	1.719808	0.318937	0.705316
N87	N	1.237939	-0.211180	-0.205281
N88	N	1.737939	0.288820	0.294719
C89	C	1.267108	-0.259899	0.250712
C90	C	1.767108	0.240101	0.750712
C91	C	1.263117	-0.253240	0.341520
C92	C	1.763117	0.246760	0.841520
C93	C	1.211831	-0.167740	0.386930
C94	C	1.711831	0.332260	0.886930
C95	C	1.164525	-0.088899	0.341528
C96	C	1.664525	0.411101	0.841528
C97	C	1.168511	-0.095563	0.250722
C98	C	1.668511	0.404437	0.750722
C99	C	1.194619	-0.139003	0.658511
C100	C	1.694619	0.360997	1.158511
C101	C	1.190639	-0.132344	0.749323
C102	C	1.690639	0.367656	1.249323
C103	C	1.289229	-0.296686	0.749309
C104	C	1.789229	0.203314	1.249309
C105	C	1.293216	-0.303339	0.658502
C106	C	1.793216	0.196661	1.158502
C107	C	1.245905	-0.224501	0.613107
C108	C	1.745905	0.275499	1.113107
N109	N	1.207752	-0.160929	0.479750
N110	N	1.707752	0.339071	0.979750
N111	N	1.249978	-0.231315	0.520289
N112	N	1.749978	0.268685	1.020289
H113	H	0.899553	-0.268445	0.000024
H114	H	1.399553	0.231555	0.500024
H115	H	1.122761	-0.019285	0.378506
H116	H	1.622761	0.480715	0.878506
H117	H	0.464925	-0.082987	-0.000003
H118	H	0.964925	0.417013	0.499997
H119	H	1.104236	-0.926733	-0.000005
H120	H	1.604236	-0.426733	0.499995
H121	H	0.972278	-0.773196	-0.000002
H122	H	1.472278	-0.273196	0.499998
H123	H	1.301631	-0.317435	0.378481
H124	H	1.801631	0.182565	0.878481
H125	H	0.820633	-0.357352	0.000029
H126	H	1.320633	0.142648	0.500029
H127	H	1.129993	-0.031367	0.213761
H128	H	1.629993	0.468633	0.713761
H129	H	0.699861	-0.493361	0.000040
H130	H	1.199861	0.006639	0.500040
H131	H	1.327746	-0.360873	0.786278
H132	H	1.827746	0.139127	1.286278
H133	H	1.148874	-0.062715	0.786292
H134	H	1.648874	0.437285	1.286292
H135	H	0.930919	-0.591617	-0.000009
H136	H	1.430919	-0.091617	0.499991
H137	H	1.308876	-0.329519	0.213745
H138	H	1.808876	0.170481	0.713745
H139	H	1.334977	-0.372960	0.621531
H140	H	1.834977	0.127040	1.121531
H141	H	1.156099	-0.074808	0.621558
H142	H	1.656099	0.425192	1.121558
H143	H	0.508256	-0.444579	0.000048
H144	H	1.008256	0.055421	0.500048
H145	H	0.757857	0.101129	-0.000008
H146	H	1.257857	0.601129	0.499992
H147	H	0.585698	0.053042	0.000003
H148	H	1.085698	0.553042	0.500003
H149	H	0.949477	0.052364	0.000007
H150	H	1.449477	0.552364	0.500007
H151	H	1.308633	-0.546776	0.000027
H152	H	1.808633	-0.046776	0.500027
H153	H	1.394880	-0.647109	0.000032
H154	H	1.894880	-0.147109	0.500032
H155	H	0.987823	-0.415663	0.000010
H156	H	1.487823	0.084337	0.500010
H157	H	1.526820	-0.800639	0.000039
H158	H	2.026820	-0.300639	0.500039
H159	H	1.469900	-0.976573	0.000029
H160	H	1.969900	-0.476573	0.500029
