data_functionalizedCrystal
_audit_creation_method	'MofGen! by Chris Wilmer'
_symmetry_space_group_name_H-M	'P1'
_symmetry_Int_Tables_number	1
_symmetry_cell_setting	triclinic
loop_
_symmetry_equiv_pos_as_xyz
  x,y,z
_cell_length_a	11.792241
_cell_length_b	14.044220
_cell_length_c	10.268362
_cell_angle_alpha	90.006985
_cell_angle_beta	89.996518
_cell_angle_gamma	88.691147
loop_
_atom_site_label
_atom_site_type_symbol
_atom_site_fract_x
_atom_site_fract_y
_atom_site_fract_z
O1	O	1.519105	0.129988	0.108177
O2	O	1.769105	0.379988	0.358177
O3	O	2.019105	0.629988	0.608177
O4	O	2.269105	0.879988	0.858177
O5	O	1.190022	0.143385	0.108207
O6	O	1.440022	0.393385	0.358207
O7	O	1.690022	0.643385	0.608207
O8	O	1.940022	0.893385	0.858207
O9	O	1.349624	-0.001323	0.108180
O10	O	1.599624	0.248677	0.358180
O11	O	1.849624	0.498677	0.608180
O12	O	2.099624	0.748677	0.858180
O13	O	1.359503	0.274697	0.108204
O14	O	1.609503	0.524697	0.358204
O15	O	1.859503	0.774697	0.608204
O16	O	2.109503	1.024697	0.858204
O17	O	1.349621	-0.001332	-0.108421
O18	O	1.599621	0.248668	0.141579
O19	O	1.849621	0.498668	0.391579
O20	O	2.099621	0.748668	0.641579
O21	O	1.190019	0.143376	-0.108393
O22	O	1.440019	0.393376	0.141607
O23	O	1.690019	0.643376	0.391607
O24	O	1.940019	0.893376	0.641607
O25	O	1.519102	0.129980	-0.108424
O26	O	1.769102	0.379980	0.141576
O27	O	2.019102	0.629980	0.391576
O28	O	2.269102	0.879980	0.641576
Cu29	Cu	1.354560	0.136677	-0.128186
Cu30	Cu	1.604560	0.386677	0.121814
Cu31	Cu	1.854560	0.636677	0.371814
Cu32	Cu	2.104560	0.886677	0.621814
Cu33	Cu	1.354564	0.136687	0.127969
Cu34	Cu	1.604564	0.386687	0.377969
Cu35	Cu	1.854564	0.636687	0.627969
Cu36	Cu	2.104564	0.886687	0.877969
O37	O	1.359500	0.274688	-0.108396
O38	O	1.609500	0.524688	0.141604
O39	O	1.859500	0.774688	0.391604
O40	O	2.109500	1.024688	0.641604
C41	C	1.147650	0.142539	-0.000089
C42	C	1.397650	0.392539	0.249911
C43	C	1.647650	0.642539	0.499911
C44	C	1.897650	0.892539	0.749911
C45	C	1.021400	0.140020	-0.000078
C46	C	1.271400	0.390020	0.249922
C47	C	1.521400	0.640020	0.499922
C48	C	1.771400	0.890020	0.749922
C49	C	0.790253	0.135389	-0.000116
C50	C	1.040253	0.385389	0.249884
C51	C	1.290253	0.635389	0.499884
C52	C	1.540253	0.885389	0.749884
C53	C	0.918880	0.137962	-0.000095
C54	C	1.168880	0.387962	0.249905
C55	C	1.418880	0.637962	0.499905
C56	C	1.668880	0.887962	0.749905
C57	C	1.345298	-0.036664	-0.000121
C58	C	1.595298	0.213336	0.249879
C59	C	1.845298	0.463336	0.499879
C60	C	2.095298	0.713336	0.749879
C61	C	1.332399	-0.141956	-0.000121
C62	C	1.582399	0.108044	0.249879
C63	C	1.832399	0.358044	0.499879
C64	C	2.082399	0.608044	0.749879
C65	C	1.308817	-0.334739	-0.000100
C66	C	1.558817	-0.084739	0.249900
C67	C	1.808817	0.165261	0.499900
C68	C	2.058817	0.415261	0.749900
C69	C	1.400302	-0.391902	-0.000105
C70	C	1.650302	-0.141902	0.249895
C71	C	1.900302	0.108098	0.499895
C72	C	2.150302	0.358098	0.749895
C73	C	1.387181	-0.499173	-0.000093
C74	C	1.637181	-0.249173	0.249907
C75	C	1.887181	0.000827	0.499907
C76	C	2.137181	0.250827	0.749907
C77	C	1.321937	-0.227458	-0.000112
C78	C	1.571937	0.022542	0.249888
C79	C	1.821937	0.272542	0.499888
C80	C	2.071937	0.522542	0.749888
C81	C	1.561474	0.130826	-0.000125
C82	C	1.811474	0.380826	0.249875
C83	C	2.061474	0.630826	0.499875
C84	C	2.311474	0.880826	0.749875
C85	C	1.687724	0.133344	-0.000127
C86	C	1.937724	0.383344	0.249873
C87	C	2.187724	0.633344	0.499873
C88	C	2.437724	0.883344	0.749873
C89	C	1.363826	0.310029	-0.000093
C90	C	1.613826	0.560029	0.249907
C91	C	1.863826	0.810029	0.499907
C92	C	2.113826	1.060029	0.749907
C93	C	1.376725	0.415321	-0.000084
C94	C	1.626725	0.665321	0.249916
C95	C	1.876725	0.915321	0.499916
C96	C	2.126725	1.165321	0.749916
N97	N	1.354566	0.136687	0.308135
N98	N	1.604566	0.386687	0.558135
N99	N	1.854566	0.636687	0.808135
N100	N	2.104566	0.886687	1.058135
N101	N	1.354566	0.136670	-0.308352
N102	N	1.604566	0.386670	-0.058352
N103	N	1.854566	0.636670	0.191648
N104	N	2.104566	0.886670	0.441648
C105	C	1.354563	0.136682	0.573806
C106	C	1.604563	0.386682	0.823806
C107	C	1.854563	0.636682	1.073806
C108	C	2.104563	0.886682	1.323806
C109	C	1.354562	0.136688	0.425968
C110	C	1.604562	0.386688	0.675968
C111	C	1.854562	0.636688	0.925968
C112	C	2.104562	0.886688	1.175968
H113	H	1.488479	-0.360278	-0.000026
H114	H	1.738479	-0.110278	0.249974
H115	H	1.988479	0.139722	0.499974
H116	H	2.238479	0.389722	0.749974
C117	C	1.191345	-0.377081	-0.000163
C118	C	1.441345	-0.127081	0.249837
C119	C	1.691345	0.122919	0.499837
C120	C	1.941345	0.372919	0.749837
C121	C	1.201523	-0.476604	-0.000192
C122	C	1.451523	-0.226604	0.249808
C123	C	1.701523	0.023396	0.499808
C124	C	1.951523	0.273396	0.749808
C125	C	1.093334	-0.515654	-0.000273
C126	C	1.343334	-0.265654	0.249727
C127	C	1.593334	-0.015654	0.499727
C128	C	1.843334	0.234346	0.749727
H129	H	1.151151	-0.356594	0.075347
H130	H	1.401151	-0.106594	0.325347
H131	H	1.651151	0.143406	0.575347
H132	H	1.901151	0.393406	0.825347
H133	H	1.151248	-0.356559	-0.075729
H134	H	1.401248	-0.106559	0.174271
H135	H	1.651248	0.143441	0.424271
H136	H	1.901248	0.393441	0.674271
H137	H	1.241603	-0.497118	0.075368
H138	H	1.491603	-0.247118	0.325368
H139	H	1.741603	0.002882	0.575368
H140	H	1.991603	0.252882	0.825368
H141	H	1.241696	-0.497118	-0.075696
H142	H	1.491696	-0.247118	0.174304
H143	H	1.741696	0.002882	0.424304
H144	H	1.991696	0.252882	0.674304
H145	H	1.053237	-0.495132	-0.075839
H146	H	1.303237	-0.245132	0.174161
H147	H	1.553237	0.004868	0.424161
H148	H	1.803237	0.254868	0.674161
H149	H	1.053150	-0.495159	0.075238
H150	H	1.303150	-0.245159	0.325238
H151	H	1.553150	0.004841	0.575238
H152	H	1.803150	0.254841	0.825238
H153	H	1.100226	-0.583183	-0.000304
H154	H	1.350226	-0.333183	0.249696
H155	H	1.600226	-0.083183	0.499696
H156	H	1.850226	0.166817	0.749696
