data_functionalizedCrystal
_audit_creation_method	'MofGen! by Chris Wilmer'
_symmetry_space_group_name_H-M	'P1'
_symmetry_Int_Tables_number	1
_symmetry_cell_setting	triclinic
loop_
_symmetry_equiv_pos_as_xyz
  x,y,z
_cell_length_a	10.654583
_cell_length_b	9.730223
_cell_length_c	19.288865
_cell_angle_alpha	89.994753
_cell_angle_beta	83.817388
_cell_angle_gamma	89.991465
loop_
_atom_site_label
_atom_site_type_symbol
_atom_site_fract_x
_atom_site_fract_y
_atom_site_fract_z
O1	O	-1.665724	0.114489	-0.097660
O2	O	-1.300053	0.114454	-0.106930
O3	O	-1.493455	0.114445	-0.001235
O4	O	-1.472322	0.114498	-0.203356
O5	O	-1.493442	-0.114135	-0.001241
O6	O	-1.300040	-0.114126	-0.106936
O7	O	-1.665712	-0.114091	-0.097666
Zn8	Zn	-1.482874	-0.150400	-0.102302
Zn9	Zn	-1.482890	0.150763	-0.102294
O10	O	-1.472310	-0.114082	-0.203361
C11	C	-1.253264	0.000159	-0.106248
C12	C	-1.113867	0.000144	-0.104197
N13	N	-1.482872	-0.355937	-0.102307
C14	C	-1.492768	0.000151	0.024643
C15	C	-1.490727	0.000139	0.101760
C16	C	-1.048350	-0.124448	-0.103243
C17	C	-0.917370	-0.124433	-0.101322
C18	C	-0.917434	0.124778	-0.101310
C19	C	-1.048413	0.124761	-0.103227
C20	C	-1.048311	-0.268328	-0.103253
C21	C	-0.917332	-0.268313	-0.101331
C22	C	-0.712503	0.000193	-0.098338
C23	C	-0.851908	0.000176	-0.100359
C24	C	-1.558790	-0.427857	-0.144826
C25	C	-1.558809	-0.571740	-0.144813
C26	C	-1.406981	-0.571770	-0.059760
C27	C	-1.406970	-0.427890	-0.059770
C28	C	-1.646443	-0.427840	-0.193933
C29	C	-1.646462	-0.571723	-0.193920
N30	N	-1.482902	0.356300	-0.102284
C31	C	-1.472996	0.000215	-0.229239
C32	C	-1.475037	0.000236	-0.306357
C33	C	-1.604207	0.000143	0.145706
C34	C	-1.602289	0.000165	0.218166
C35	C	-1.486886	0.000154	0.246677
C36	C	-1.373391	0.000158	0.202721
C37	C	-1.375312	0.000150	0.130263
C38	C	-1.396160	-0.079921	0.355562
C39	C	-1.394244	-0.079922	0.428019
C40	C	-1.480956	0.000185	0.470162
C41	C	-1.569606	0.080274	0.439839
C42	C	-1.571526	0.080266	0.367381
C43	C	-1.484790	0.000164	0.325245
C44	C	-1.592364	0.000214	0.592677
C45	C	-1.590442	0.000244	0.665138
C46	C	-1.361541	0.000224	0.649691
C47	C	-1.363466	0.000207	0.577232
C48	C	-1.478882	0.000196	0.548730
H49	H	-0.864125	0.226236	-0.100520
O50	O	-1.663162	0.166667	0.485277
H51	H	-1.650599	0.276439	0.470482
O52	O	-1.110963	-0.341524	-0.039680
H53	H	-1.037761	-0.377333	-0.007030
H54	H	-1.686342	0.000211	0.569469
O55	O	-1.603932	-0.623486	-0.266460
H56	H	-1.583082	-0.534721	-0.301982
O57	O	-1.728684	0.000170	0.114962
H58	H	-1.807272	0.000196	0.157698
O59	O	-1.086069	-0.327483	-0.170341
H60	H	-1.000162	-0.358834	-0.204359
O61	O	-1.241064	0.000188	0.529831
H62	H	-1.261787	0.000194	0.474657
H63	H	-0.888825	-0.312973	-0.050677
O64	O	-1.298639	-0.166301	0.460724
H65	H	-1.238650	-0.221985	0.419248
H66	H	-1.325546	-0.145161	0.321255
O67	O	-0.854635	-0.341466	-0.164907
H68	H	-0.789332	-0.269698	-0.195518
H69	H	-1.282900	0.000146	0.094482
H70	H	-1.682854	0.000255	0.700918
O71	O	-1.237063	0.000206	0.680430
H72	H	-1.254790	0.000203	0.738198
H73	H	-1.345163	-0.369338	-0.025139
H74	H	-1.279429	0.000152	0.225939
H75	H	-1.605794	-0.383226	-0.246231
O76	O	-1.119074	0.259147	-0.104247
H77	H	-1.190186	0.265081	-0.057860
O78	O	-1.772378	-0.630821	-0.165030
H79	H	-1.839123	-0.545795	-0.149726
O80	O	-1.325107	-0.649374	-0.013886
H81	H	-1.337862	-0.761507	-0.021025
O82	O	-1.724688	0.000151	0.265579
H83	H	-1.805264	0.000131	0.233586
H84	H	-1.745858	-0.388769	-0.176875
H85	H	-1.643705	0.145480	0.342696
