data_functionalizedCrystal
_audit_creation_method	'MofGen! by Chris Wilmer'
_symmetry_space_group_name_H-M	'P1'
_symmetry_Int_Tables_number	1
_symmetry_cell_setting	triclinic
loop_
_symmetry_equiv_pos_as_xyz
  x,y,z
_cell_length_a	19.288864
_cell_length_b	15.944551
_cell_length_c	17.766277
_cell_angle_alpha	89.992686
_cell_angle_beta	89.976791
_cell_angle_gamma	83.317492
loop_
_atom_site_label
_atom_site_type_symbol
_atom_site_fract_x
_atom_site_fract_y
_atom_site_fract_z
O1	O	0.921629	0.104784	-0.062837
O2	O	1.421629	0.604784	0.437163
O3	O	0.719406	0.118919	-0.062786
O4	O	1.219406	0.618919	0.437214
O5	O	0.826040	-0.010445	-0.062806
O6	O	1.326040	0.489555	0.437194
O7	O	0.814995	0.234147	-0.062817
O8	O	1.314995	0.734147	0.437183
O9	O	0.826021	-0.010451	0.062382
O10	O	1.326021	0.489549	0.562382
O11	O	0.719387	0.118912	0.062403
O12	O	1.219387	0.618912	0.562403
O13	O	0.921610	0.104777	0.062351
O14	O	1.421610	0.604777	0.562351
Cu15	Cu	0.820497	0.111844	0.073808
Cu16	Cu	1.320497	0.611844	0.573808
Cu17	Cu	0.820519	0.111852	-0.074242
Cu18	Cu	1.320519	0.611852	0.425758
O19	O	0.814976	0.234141	0.062372
O20	O	1.314976	0.734141	0.562372
C21	C	0.693519	0.118461	-0.000185
C22	C	1.193519	0.618461	0.499815
C23	C	0.616411	0.117095	-0.000165
C24	C	1.116411	0.617095	0.499835
C25	C	0.825572	-0.041740	-0.000212
C26	C	1.325572	0.458260	0.499788
C27	C	0.824197	-0.134981	-0.000211
C28	C	1.324197	0.365019	0.499789
C29	C	0.571915	0.193000	-0.000181
C30	C	1.071915	0.693000	0.499819
C31	C	0.499465	0.191717	-0.000189
C32	C	0.999465	0.691717	0.499811
C33	C	0.471514	0.114526	-0.000197
C34	C	0.971514	0.614526	0.499803
C35	C	0.516020	0.038611	-0.000178
C36	C	1.016020	0.538611	0.499822
C37	C	0.588469	0.039896	-0.000162
C38	C	1.088469	0.539896	0.499838
C39	C	0.363099	0.053847	-0.044079
C40	C	0.863099	0.553847	0.455921
C41	C	0.290651	0.052565	-0.044099
C42	C	0.790651	0.552565	0.455901
C43	C	0.248058	0.110560	-0.000242
C44	C	0.748058	0.610560	0.499758
C45	C	0.277920	0.169850	0.043625
C46	C	0.777920	0.669850	0.543625
C47	C	0.350369	0.171135	0.043641
C48	C	0.850369	0.671135	0.543641
C49	C	0.392956	0.113124	-0.000214
C50	C	0.892956	0.613124	0.499786
C51	C	0.125002	0.185079	-0.000265
C52	C	0.625002	0.685079	0.499735
C53	C	0.052550	0.183793	-0.000269
C54	C	0.552550	0.683793	0.499731
C55	C	0.069107	0.030684	-0.000265
C56	C	0.569107	0.530684	0.499735
C57	C	0.141557	0.031972	-0.000254
C58	C	0.641557	0.531972	0.499746
C59	C	0.169500	0.109172	-0.000258
C60	C	0.669500	0.609172	0.499742
C61	C	0.754815	-0.349571	-0.000204
C62	C	1.254815	0.150429	0.499796
C63	C	0.787024	-0.410715	0.061514
C64	C	1.287024	0.089285	0.561514
C65	C	0.821710	-0.305697	-0.000216
C66	C	1.321710	0.194303	0.499784
C67	C	0.787059	-0.410692	-0.061912
C68	C	1.287059	0.089308	0.438088
C69	C	0.819303	-0.470601	-0.000224
C70	C	1.319303	0.029399	0.499776
C71	C	0.853938	-0.365614	0.061552
C72	C	1.353938	0.134386	0.561552
C73	C	0.853963	-0.365585	-0.061929
C74	C	1.353963	0.134415	0.438071
C75	C	0.886222	-0.426712	-0.000197
C76	C	1.386222	0.073288	0.499803
C77	C	0.823095	-0.210700	-0.000211
C78	C	1.323095	0.289300	0.499789
C79	C	0.817924	-0.565597	-0.000224
C80	C	1.317924	-0.065597	0.499776
C81	C	0.947497	0.105235	-0.000251
C82	C	1.447497	0.605235	0.499749
C83	C	1.024605	0.106600	-0.000276
C84	C	1.524605	0.606600	0.499724
C85	C	0.815444	0.265436	-0.000225
C86	C	1.315444	0.765436	0.499775
C87	C	0.816819	0.358677	-0.000230
C88	C	1.316819	0.858677	0.499770
N89	N	0.820486	0.111838	0.177938
N90	N	1.320486	0.611838	0.677938
N91	N	0.820535	0.111851	-0.178373
N92	N	1.320535	0.611851	0.321627
C93	C	0.867719	0.054584	0.217316
C94	C	1.367719	0.554584	0.717316
C95	C	0.867723	0.054580	0.296118
C96	C	1.367723	0.554580	0.796118
C97	C	0.820501	0.111845	0.335539
C98	C	1.320501	0.611845	0.835539
C99	C	0.773259	0.169103	0.296151
C100	C	1.273259	0.669103	0.796151
C101	C	0.773252	0.169100	0.217351
C102	C	1.273252	0.669100	0.717351
C103	C	0.811404	0.188378	0.460375
C104	C	1.311404	0.688378	0.960375
C105	C	0.811416	0.188382	0.539173
C106	C	1.311416	0.688382	1.039173
C107	C	0.820520	0.111855	0.578585
C108	C	1.320520	0.611855	1.078585
C109	C	0.829626	0.035319	0.539188
C110	C	1.329626	0.535319	1.039188
C111	C	0.829618	0.035316	0.460387
C112	C	1.329618	0.535316	0.960387
C113	C	0.820503	0.111854	0.420984
C114	C	1.320503	0.611854	0.920984
C115	C	0.867759	0.054592	0.703409
C116	C	1.367759	0.554592	1.203409
C117	C	0.867759	0.054587	0.782212
C118	C	1.367759	0.554587	1.282212
C119	C	0.773298	0.169117	0.782244
C120	C	1.273298	0.669117	1.282244
C121	C	0.773295	0.169115	0.703442
C122	C	1.273295	0.669115	1.203442
C123	C	0.820530	0.111853	0.664029
C124	C	1.320530	0.611853	1.164029
H125	H	0.594661	0.255862	-0.000185
H126	H	1.094661	0.755862	0.499815
H127	H	0.734809	0.215728	0.328251
H128	H	1.234809	0.715728	0.828251
N129	N	0.725062	0.227625	0.822490
N130	N	1.225062	0.727625	1.322490
N131	N	0.682896	0.278749	0.787316
N132	N	1.182896	0.778749	1.287316
H133	H	0.648827	0.320072	0.815742
H134	H	1.148827	0.820072	1.315742
N135	N	0.955937	-0.468584	-0.000158
N136	N	1.455937	0.031416	0.499842
N137	N	0.976118	-0.517594	0.052371
N138	N	1.476118	-0.017594	0.552371
H139	H	1.025354	-0.547167	0.052403
H140	H	1.525354	-0.047167	0.552403
H141	H	0.906219	0.007963	0.671318
H142	H	1.406219	0.507963	1.171318
N143	N	0.380886	0.231686	0.088443
N144	N	0.880886	0.731686	0.588443
N145	N	0.415805	0.283534	0.057813
N146	N	0.915805	0.783534	0.557813
H147	H	0.437360	0.326297	0.089456
H148	H	0.937360	0.826297	0.589456
H149	H	0.699288	-0.316049	-0.000128
H150	H	1.199288	0.183951	0.499872
N151	N	0.633915	-0.037651	-0.000143
N152	N	1.133915	0.462349	0.499857
N153	N	0.608955	-0.106569	-0.000142
N154	N	1.108955	0.393431	0.499858
H155	H	0.641052	-0.161338	-0.000129
H156	H	1.141052	0.338662	0.499871
H157	H	0.803978	0.250700	0.428292
H158	H	1.303978	0.750700	0.928292
H159	H	0.046351	-0.032167	-0.000319
H160	H	0.546351	0.467833	0.499681
N161	N	0.889446	-0.340448	-0.127395
N162	N	1.389446	0.159552	0.372605
N163	N	0.943233	-0.304306	-0.120578
N164	N	1.443233	0.195694	0.379422
H165	H	0.968290	-0.286551	-0.166818
H166	H	1.468290	0.213449	0.333182
N167	N	0.915966	-0.003911	0.336357
N168	N	1.415966	0.496089	0.836357
N169	N	0.915022	-0.081551	0.327580
N170	N	1.415022	0.418449	0.827580
H171	H	0.949093	-0.122859	0.355999
H172	H	1.449093	0.377141	0.855999
H173	H	0.758764	-0.430657	-0.114093
H174	H	1.258764	0.069343	0.385907
H175	H	0.463229	0.253530	-0.000199
H176	H	0.963229	0.753530	0.499801
H177	H	0.758722	-0.430717	0.113705
H178	H	1.258722	0.069283	0.613705
N179	N	0.916008	-0.003913	0.822427
N180	N	1.416008	0.496087	1.322427
N181	N	0.958173	-0.055033	0.787223
N182	N	1.458173	0.444967	1.287223
H183	H	0.992250	-0.096351	0.815625
H184	H	1.492250	0.403649	1.315625
H185	H	0.906179	0.007956	0.185228
H186	H	1.406179	0.507956	0.685228
H187	H	0.734837	0.215740	0.671378
H188	H	1.234837	0.715740	1.171378
N189	N	0.724996	0.227590	0.177135
N190	N	1.224996	0.727590	0.677135
N191	N	0.682831	0.278712	0.212336
N192	N	1.182831	0.778712	0.712336
H193	H	0.648749	0.320023	0.183933
H194	H	1.148749	0.820023	0.683933
N195	N	0.838925	-0.042855	0.420144
N196	N	1.338925	0.457145	0.920144
N197	N	0.893450	-0.092459	0.428916
N198	N	1.393450	0.407541	0.928916
H199	H	0.900021	-0.147670	0.400493
H200	H	1.400021	0.352330	0.900493
H201	H	0.243242	0.217075	0.079338
H202	H	0.743242	0.717075	0.579338
N203	N	0.889387	-0.340697	0.127091
N204	N	1.389387	0.159303	0.627091
N205	N	0.913611	-0.395033	0.173765
N206	N	1.413611	0.104967	0.673765
H207	H	0.938644	-0.377435	0.220053
H208	H	1.438644	0.122565	0.720053
H209	H	0.837039	-0.026997	0.571275
H210	H	1.337039	0.473003	1.071275
N211	N	0.802124	0.266565	0.579401
N212	N	1.302124	0.766565	1.079401
N213	N	0.793989	0.334887	0.544206
N214	N	1.293989	0.834887	1.044206
H215	H	0.787427	0.390107	0.572615
H216	H	1.287427	0.890107	1.072615
N217	N	0.153540	0.263938	-0.000250
N218	N	0.653540	0.763938	0.499750
N219	N	0.139878	0.315043	0.052522
N220	N	0.639878	0.815043	0.552522
H221	H	0.160031	0.370739	0.052535
H222	H	0.660031	0.870739	0.552535
N223	N	0.007105	0.261340	-0.000275
N224	N	0.507105	0.761340	0.499725
N225	N	0.032067	0.330257	-0.000276
N226	N	0.532067	0.830257	0.499724
H227	H	-0.000028	0.385027	-0.000280
H228	H	0.499972	0.885027	0.499720
N229	N	0.187013	-0.045564	-0.000233
N230	N	0.687013	0.454436	0.499767
N231	N	0.184435	-0.096966	0.052539
N232	N	0.684435	0.403034	0.552539
H233	H	0.216539	-0.151730	0.052557
H234	H	0.716539	0.348270	0.552557
N235	N	0.260165	-0.008007	-0.088907
N236	N	0.760165	0.491993	0.411093
N237	N	0.276613	-0.085177	-0.077839
N238	N	0.776613	0.414823	0.422161
H239	H	0.255087	-0.127960	-0.109486
H240	H	0.755087	0.372040	0.390514
N241	N	0.406606	-0.005408	-0.088868
N242	N	0.906606	0.494592	0.411132
N243	N	0.406872	-0.082867	-0.077811
N244	N	0.906872	0.417133	0.422189
H245	H	0.437600	-0.124716	-0.109440
H246	H	0.937600	0.375284	0.390560
N247	N	0.487461	-0.040231	-0.000178
N248	N	0.987461	0.459769	0.499822
N249	N	0.422774	-0.041369	-0.000193
N250	N	0.922774	0.458631	0.499807
H251	H	0.402604	-0.097054	-0.000189
H252	H	0.902604	0.402946	0.499811
