data_functionalizedCrystal
_audit_creation_method	'MofGen! by Chris Wilmer'
_symmetry_space_group_name_H-M	'P1'
_symmetry_Int_Tables_number	1
_symmetry_cell_setting	triclinic
loop_
_symmetry_equiv_pos_as_xyz
  x,y,z
_cell_length_a	16.625548
_cell_length_b	19.121063
_cell_length_c	16.625539
_cell_angle_alpha	92.408661
_cell_angle_beta	89.979432
_cell_angle_gamma	92.470058
loop_
_atom_site_label
_atom_site_type_symbol
_atom_site_fract_x
_atom_site_fract_y
_atom_site_fract_z
Zn1	Zn	1.218959	-0.279593	-0.469577
Zn2	Zn	1.718959	0.220407	0.030423
Zn3	Zn	1.213098	-0.397050	-0.340486
Zn4	Zn	1.713098	0.102950	0.159514
Zn5	Zn	1.084119	-0.279620	-0.334759
Zn6	Zn	1.584119	0.220380	0.165241
Zn7	Zn	1.078329	-0.397010	-0.475274
Zn8	Zn	1.578329	0.102990	0.024726
O9	O	1.148626	-0.338318	-0.405024
O10	O	1.648626	0.161682	0.094976
O11	O	1.331013	-0.295179	-0.452466
O12	O	1.831013	0.204821	0.047534
O13	O	1.195959	-0.381501	-0.226895
O14	O	1.695959	0.118499	0.273105
O15	O	1.106883	-0.181331	-0.347862
O16	O	1.606883	0.318669	0.152138
O17	O	1.326707	-0.381475	-0.357623
O18	O	1.826707	0.118525	0.142377
O19	O	1.205949	-0.181312	-0.446912
O20	O	1.705949	0.318688	0.053088
O21	O	1.101199	-0.295225	-0.222688
O22	O	1.601199	0.204775	0.277312
O23	O	0.970519	-0.295186	-0.353386
O24	O	1.470519	0.204814	0.146614
O25	O	1.097013	-0.381406	-0.587349
O26	O	1.597013	0.118594	-0.087349
O27	O	0.966265	-0.381432	-0.456622
O28	O	1.466265	0.118568	0.043378
O29	O	1.200333	-0.295140	-0.583164
O30	O	1.700333	0.204860	-0.083164
O31	O	1.190344	-0.495330	-0.363147
O32	O	1.690344	0.004670	0.136853
O33	O	1.091330	-0.495300	-0.462175
O34	O	1.591330	0.004700	0.037825
C35	C	0.939136	-0.338308	-0.405001
C36	C	1.439136	0.161692	0.094999
C37	C	0.849514	-0.338321	-0.405011
C38	C	1.349514	0.161679	0.094989
C39	C	0.521338	-0.338325	-0.405046
C40	C	1.021338	0.161675	0.094954
C41	C	0.612647	-0.338322	-0.405034
C42	C	1.112647	0.161678	0.094966
C43	C	0.685423	-0.338323	-0.405028
C44	C	1.185423	0.161677	0.094972
C45	C	0.776738	-0.338319	-0.405017
C46	C	1.276738	0.161681	0.094983
C47	C	1.139594	-0.520799	-0.413918
C48	C	1.639594	-0.020799	0.086082
C49	C	1.135804	-0.598865	-0.417750
C50	C	1.635804	-0.098865	0.082250
C51	C	1.185615	-0.635533	-0.368035
C52	C	1.685615	-0.135533	0.131965
C53	C	1.182055	-0.708884	-0.371644
C54	C	1.682055	-0.208884	0.128356
C55	C	1.128680	-0.745566	-0.424964
C56	C	1.628680	-0.245566	0.075036
C57	C	1.078867	-0.708893	-0.474685
C58	C	1.578867	-0.208893	0.025315
C59	C	1.082431	-0.635543	-0.471080
C60	C	1.582431	-0.135543	0.028920
C61	C	1.115340	-0.967036	-0.438431
C62	C	1.615340	-0.467036	0.061569
C63	C	1.111778	-1.040391	-0.442031
C64	C	1.611778	-0.540391	0.057969
C65	C	1.214967	-1.040377	-0.338989
C66	C	1.714967	-0.540377	0.161011
C67	C	1.218524	-0.967025	-0.335386
C68	C	1.718524	-0.467025	0.164614
C69	C	1.168714	-0.930359	-0.385109
C70	C	1.668714	-0.430359	0.114891
C71	C	1.125038	-0.820543	-0.428653
C72	C	1.625038	-0.320543	0.071347
C73	C	1.172360	-0.855383	-0.381425
C74	C	1.672360	-0.355383	0.118575
C75	C	1.358934	-0.338329	-0.405048
C76	C	1.858934	0.161671	0.094952
C77	C	1.448555	-0.338333	-0.405058
C78	C	1.948555	0.161667	0.094942
C79	C	1.148681	-0.338266	-0.615331
C80	C	1.648681	0.161734	-0.115331
C81	C	1.148705	-0.338244	-0.704951
C82	C	1.648705	0.161756	-0.204951
C83	C	1.157715	-0.155125	-0.396113
C84	C	1.657715	0.344875	0.103887
C85	C	1.161589	-0.077059	-0.392315
C86	C	1.661589	0.422941	0.107685
C87	C	1.148746	-0.338165	-1.033123
C88	C	1.648746	0.161835	-0.533123
C89	C	1.148732	-0.338189	-0.941815
C90	C	1.648732	0.161811	-0.441815
C91	C	1.148725	-0.338205	-0.869040
C92	C	1.648725	0.161795	-0.369040
C93	C	1.148711	-0.338228	-0.777726
C94	C	1.648711	0.161772	-0.277726
C95	C	1.148620	-0.338320	-0.195533
C96	C	1.648620	0.161680	0.304467
C97	C	1.148763	-0.338144	-0.105904
C98	C	1.648763	0.161856	0.394096
H99	H	1.222616	-0.738735	-0.331159
H100	H	1.722616	-0.238735	0.168841
O101	O	1.237507	-0.599826	-0.316345
O102	O	1.737507	-0.099826	0.183655
C103	C	1.291638	-0.557343	-0.360210
C104	C	1.791638	-0.057343	0.139790
H105	H	1.263701	-0.546334	-0.420747
H106	H	1.763701	-0.046334	0.079253
H107	H	1.350014	-0.585564	-0.370513
H108	H	1.850014	-0.085564	0.129487
C109	C	1.343962	-0.501209	-0.238081
C110	C	1.843962	-0.001209	0.261919
C111	C	1.309646	-0.487682	-0.312431
C112	C	1.809646	0.012318	0.187569
H113	H	1.355074	-0.458240	-0.208608
H114	H	1.855074	0.041760	0.291392
H115	H	1.307495	-0.529832	-0.208528
H116	H	1.807495	-0.029832	0.291472
H117	H	1.392604	-0.524728	-0.246678
H118	H	1.892604	-0.024728	0.253322
H119	H	1.261000	-0.464172	-0.303834
H120	H	1.761000	0.035828	0.196166
H121	H	1.346105	-0.459054	-0.341982
H122	H	1.846105	0.040946	0.158018
O123	O	1.263473	-1.075915	-0.290732
O124	O	1.763473	-0.575915	0.209268
C125	C	1.344697	-1.057930	-0.307563
C126	C	1.844697	-0.557930	0.192437
H127	H	1.348932	-1.004653	-0.335945
H128	H	1.848932	-0.504653	0.164055
H129	H	1.369829	-1.099166	-0.351069
H130	H	1.869829	-0.599166	0.148931
C131	C	1.388550	-1.119982	-0.193982
C132	C	1.888550	-0.619982	0.306018
C133	C	1.393752	-1.054545	-0.228835
C134	C	1.893752	-0.554545	0.271165
H135	H	1.418811	-1.117897	-0.145419
H136	H	1.918811	-0.617897	0.354581
H137	H	1.333828	-1.132102	-0.182643
H138	H	1.833828	-0.632102	0.317357
H139	H	1.409492	-1.154339	-0.230244
H140	H	1.909492	-0.654339	0.269756
H141	H	1.372801	-1.020191	-0.192576
H142	H	1.872801	-0.520191	0.307424
H143	H	1.448472	-1.042419	-0.240165
H144	H	1.948472	-0.542419	0.259835
H145	H	1.261986	-0.937160	-0.291967
H146	H	1.761986	-0.437160	0.208033
H147	H	1.068323	-1.070256	-0.485465
H148	H	1.568323	-0.570256	0.014535
O149	O	1.066864	-0.931533	-0.486750
O150	O	1.566864	-0.431533	0.013250
C151	C	1.018999	-0.979641	-0.534591
C152	C	1.518999	-0.479641	-0.034591
H153	H	1.013696	-1.031951	-0.504132
H154	H	1.513696	-0.531951	-0.004132
H155	H	1.048105	-0.987380	-0.596241
H156	H	1.548105	-0.487380	-0.096241
C157	C	0.941073	-0.886830	-0.582123
C158	C	1.441073	-0.386830	-0.082123
C159	C	0.934554	-0.951076	-0.544710
C160	C	1.434554	-0.451076	-0.044710
H161	H	0.888984	-0.869209	-0.588369
H162	H	1.388984	-0.369209	-0.088369
H163	H	0.973322	-0.854418	-0.549895
H164	H	1.473322	-0.354418	-0.049895
H165	H	0.965331	-0.893288	-0.633495
H166	H	1.465331	-0.393288	-0.133495
H167	H	0.910306	-0.944616	-0.493336
H168	H	1.410306	-0.444616	0.006664
H169	H	0.902299	-0.983486	-0.576930
H170	H	1.402299	-0.483486	-0.076930
H171	H	1.041871	-0.605689	-0.511565
H172	H	1.541871	-0.105689	-0.011565
O173	O	1.027107	-0.744494	-0.526597
O174	O	1.527107	-0.244494	-0.026597
C175	C	1.045546	-0.726495	-0.606089
C176	C	1.545546	-0.226495	-0.106089
H177	H	1.110940	-0.706282	-0.609226
H178	H	1.610940	-0.206282	-0.109226
H179	H	1.004374	-0.683937	-0.625036
H180	H	1.504374	-0.183937	-0.125036
C181	C	0.952650	-0.816454	-0.659240
C182	C	1.452650	-0.316454	-0.159240
C183	C	1.032971	-0.791634	-0.663093
C184	C	1.532971	-0.291634	-0.163093
H185	H	0.944890	-0.856633	-0.694404
H186	H	1.444890	-0.356633	-0.194404
H187	H	0.940225	-0.828579	-0.605684
H188	H	1.440225	-0.328579	-0.105684
H189	H	0.918349	-0.780983	-0.675027
H190	H	1.418349	-0.280983	-0.175027
H191	H	1.067269	-0.827102	-0.647297
H192	H	1.567269	-0.327102	-0.147297
H193	H	1.045402	-0.779517	-0.716648
H194	H	1.545402	-0.279517	-0.216648
H195	H	1.215822	-0.825515	-0.338014
H196	H	1.715822	-0.325515	0.161986
H197	H	1.081578	-0.850418	-0.472065
H198	H	1.581578	-0.350418	0.027935
