data_functionalizedCrystal
_audit_creation_method	'MofGen! by Chris Wilmer'
_symmetry_space_group_name_H-M	'P1'
_symmetry_Int_Tables_number	1
_symmetry_cell_setting	triclinic
loop_
_symmetry_equiv_pos_as_xyz
  x,y,z
_cell_length_a	17.699083
_cell_length_b	12.837942
_cell_length_c	16.776229
_cell_angle_alpha	89.994225
_cell_angle_beta	89.998886
_cell_angle_gamma	89.055978
loop_
_atom_site_label
_atom_site_type_symbol
_atom_site_fract_x
_atom_site_fract_y
_atom_site_fract_z
O1	O	1.013707	0.131067	-0.066175
O2	O	0.794582	0.148119	-0.066201
O3	O	0.899286	-0.011297	-0.066184
O4	O	0.909003	0.290484	-0.066192
O5	O	0.899269	-0.011307	0.066393
O6	O	0.794565	0.148110	0.066376
O7	O	1.013691	0.131057	0.066401
Zn8	Zn	0.904126	0.139582	0.087438
Zn9	Zn	0.904147	0.139595	-0.087237
O10	O	0.908987	0.290474	0.066384
C11	C	0.766332	0.147503	0.000084
C12	C	0.682179	0.145670	0.000074
C13	C	0.895995	-0.049915	0.000104
C14	C	0.886204	-0.164967	0.000101
C15	C	0.640432	0.239245	0.000072
C16	C	0.561362	0.237516	0.000082
C17	C	0.524040	0.142212	0.000089
C18	C	0.565792	0.048631	0.000094
C19	C	0.644861	0.050360	0.000089
C20	C	0.246916	0.041653	0.000114
C21	C	0.167842	0.039931	0.000116
C22	C	0.163418	0.228809	0.000107
C23	C	0.242486	0.230539	0.000102
C24	C	0.284232	0.136958	0.000111
C25	C	0.369969	0.138833	0.000101
C26	C	0.438304	0.140336	0.000093
C27	C	1.003908	-0.406222	0.000099
C28	C	0.994712	-0.514324	0.000096
C29	C	0.858617	-0.489277	0.000088
C30	C	0.867813	-0.381174	0.000091
C31	C	0.940461	-0.339651	0.000097
C32	C	0.949656	-0.231546	0.000105
C33	C	0.813561	-0.206501	0.000092
C34	C	0.804365	-0.314604	0.000089
C35	C	1.041941	0.131673	0.000115
C36	C	1.126094	0.133506	0.000119
C37	C	0.912278	0.329091	0.000095
C38	C	0.922069	0.444144	0.000092
N39	N	0.904117	0.139572	0.206649
N40	N	0.904161	0.139596	-0.206449
C41	C	0.950497	0.069012	0.248374
C42	C	0.950502	0.069011	0.331826
C43	C	0.904128	0.139576	0.373552
C44	C	0.857742	0.210141	0.331821
C45	C	0.857735	0.210136	0.248371
C46	C	0.857771	0.210161	0.668369
C47	C	0.857784	0.210163	0.751825
C48	C	0.950538	0.069036	0.751824
C49	C	0.950530	0.069031	0.668373
C50	C	0.904142	0.139591	0.626650
C51	C	0.904137	0.139590	0.536162
C52	C	0.904137	0.139583	0.464039
H53	H	0.670814	0.316852	0.000065
H54	H	0.799470	-0.523105	0.000075
H55	H	0.819981	0.267593	0.365799
H56	H	0.745217	-0.348427	0.000081
H57	H	0.527375	0.313714	0.000079
N58	N	1.063144	-0.586128	0.000096
H59	H	1.110558	-0.543415	0.000100
H60	H	1.062289	-0.631533	0.049244
N61	N	0.745122	-0.134700	0.000094
H62	H	0.761969	-0.059915	0.000099
H63	H	0.713803	-0.148116	-0.049056
H64	H	0.535398	-0.028967	0.000111
N65	N	0.807744	0.286277	0.623385
H66	H	0.839963	0.332119	0.588751
H67	H	0.771382	0.246661	0.588818
N68	N	1.000538	-0.007084	0.623364
H69	H	1.036896	0.032460	0.588730
H70	H	1.029871	-0.051773	0.662507
N71	N	0.689892	-0.050565	0.000098
H72	H	0.654252	-0.111203	0.000103
H73	H	0.722795	-0.053963	-0.049049
H74	H	0.988263	0.011553	0.214406
N75	N	0.807715	0.286243	0.203361
H76	H	0.771352	0.246688	0.168748
H77	H	0.778389	0.330932	0.242503
H78	H	0.820019	0.267628	0.785797
H79	H	0.988308	0.011579	0.785804
H80	H	1.063061	-0.372413	0.000112
N81	N	0.282741	0.333329	0.000083
H82	H	0.244296	0.392348	0.000083
H83	H	0.315455	0.338161	0.049227
H84	H	0.988268	0.011554	0.365798
H85	H	0.129419	0.305007	0.000104
H86	H	0.280896	-0.034546	0.000122
N87	N	0.127584	-0.062865	0.000125
H88	H	0.166027	-0.121887	0.000132
H89	H	0.094874	-0.067690	0.049273
H90	H	1.008809	-0.197740	0.000113
