data_functionalizedCrystal
_audit_creation_method	'MofGen! by Chris Wilmer'
_symmetry_space_group_name_H-M	'P1'
_symmetry_Int_Tables_number	1
_symmetry_cell_setting	triclinic
loop_
_symmetry_equiv_pos_as_xyz
  x,y,z
_cell_length_a	12.594517
_cell_length_b	12.594516
_cell_length_c	12.594509
_cell_angle_alpha	90.026199
_cell_angle_beta	89.978673
_cell_angle_gamma	89.984147
loop_
_atom_site_label
_atom_site_type_symbol
_atom_site_fract_x
_atom_site_fract_y
_atom_site_fract_z
Zn1	Zn	1.627267	0.423716	-0.601875
Zn2	Zn	1.627158	0.601726	-0.423903
Zn3	Zn	1.449271	0.423761	-0.423904
Zn4	Zn	1.449253	0.601652	-0.601833
O5	O	1.538237	0.512714	-0.512879
O6	O	1.776198	0.447341	-0.578284
O7	O	1.603522	0.578169	-0.274957
O8	O	1.472936	0.274809	-0.447530
O9	O	1.776118	0.578124	-0.447528
O10	O	1.603709	0.274776	-0.578285
O11	O	1.472830	0.447419	-0.274958
O12	O	1.300323	0.447347	-0.447489
O13	O	1.472905	0.577998	-0.750784
O14	O	1.300310	0.578042	-0.578213
O15	O	1.603691	0.447269	-0.750815
O16	O	1.603505	0.750662	-0.447488
O17	O	1.472799	0.750608	-0.578212
C18	C	1.261696	0.512692	-0.512847
C19	C	1.143391	0.512709	-0.512859
C20	C	1.538167	0.789255	-0.512868
C21	C	1.538235	0.907560	-0.512899
C22	C	1.538308	0.512620	-0.790500
C23	C	1.538339	0.512581	-0.908805
C24	C	1.074114	0.441526	-0.441894
C25	C	1.003303	0.538615	-0.415718
C26	C	1.003403	0.415668	-0.539054
C27	C	1.074138	0.609849	-0.486632
C28	C	1.074244	0.486836	-0.610013
C29	C	1.003465	0.583991	-0.583874
C30	C	1.815858	0.512736	-0.512911
C31	C	1.934163	0.512745	-0.512924
C32	C	1.538336	0.235093	-0.512912
C33	C	1.538378	0.116787	-0.512927
C34	C	1.467137	0.976822	-0.583950
C35	C	1.441204	1.047688	-0.486827
C36	C	1.564265	1.047494	-0.610039
C37	C	1.512250	0.976867	-0.415725
C38	C	1.635357	0.976667	-0.539002
C39	C	1.609460	1.047500	-0.441812
C40	C	1.467227	0.583644	-0.978042
C41	C	1.564347	0.609650	-1.048833
C42	C	1.441294	0.486510	-1.048813
C43	C	1.635510	0.538638	-0.978038
C44	C	1.512391	0.415453	-0.978012
C45	C	1.609579	0.441422	-1.048772
C46	C	1.538227	0.512730	-0.236338
C47	C	1.538403	0.512470	-0.118033
H48	H	0.972144	0.560522	-0.333584
C49	C	1.482616	0.823995	-0.305814
C50	C	1.482469	0.935169	-0.304809
H51	H	1.464220	0.798254	-0.237343
H52	H	1.551335	0.799094	-0.324451
H53	H	1.432375	0.799242	-0.356319
H54	H	1.532715	0.959922	-0.254310
H55	H	1.413739	0.960081	-0.286159
H56	H	1.586329	0.691742	-1.079941
C57	C	1.177912	0.760636	-0.539803
C58	C	1.115899	0.720688	-0.456625
H59	H	1.203698	0.829059	-0.521271
H60	H	1.135965	0.765630	-0.602260
H61	H	1.236140	0.714318	-0.552274
H62	H	1.057665	0.767003	-0.444158
H63	H	1.157847	0.715701	-0.394149
H64	H	1.586224	1.078518	-0.692178
C65	C	1.814646	0.586741	-1.022094
C66	C	1.746371	0.568477	-0.936258
H67	H	1.883086	0.605157	-0.996296
H68	H	1.787587	0.643194	-1.064119
H69	H	1.819583	0.524247	-1.064069
H70	H	1.741429	0.630973	-0.894286
H71	H	1.773438	0.512020	-0.894214
C72	C	0.997128	0.230444	-0.494475
C73	C	0.961460	0.304863	-0.568937
H74	H	0.971241	0.162037	-0.512923
H75	H	0.971791	0.249325	-0.425979
H76	H	1.072546	0.229489	-0.494038
H77	H	0.886041	0.305823	-0.569368
H78	H	0.986792	0.285977	-0.637451
C79	C	1.741425	0.311024	-1.004530
C80	C	1.690894	0.360235	-1.090436
H81	H	1.791632	0.260912	-1.030254
H82	H	1.690089	0.275693	-0.962068
H83	H	1.776838	0.363096	-0.963018
H84	H	1.655473	0.308164	-1.131944
H85	H	1.742237	0.395567	-1.132916
C86	C	1.413578	0.766495	-0.971860
C87	C	1.386108	0.664890	-0.936105
H88	H	1.363505	0.816653	-0.945963
H89	H	1.413489	0.767455	-1.047268
H90	H	1.482365	0.784290	-0.946579
H91	H	1.317324	0.647092	-0.961392
H92	H	1.386186	0.663927	-0.860680
H93	H	1.490382	0.333385	-0.946881
H94	H	1.406905	0.945788	-0.643949
C95	C	1.256006	1.054139	-0.531517
C96	C	1.330414	1.089807	-0.457027
H97	H	1.187610	1.080145	-0.513126
H98	H	1.254993	0.978731	-0.531921
H99	H	1.274946	1.079367	-0.600022
H100	H	1.311478	1.064572	-0.388523
H101	H	1.331424	1.165230	-0.456613
C102	C	1.227172	0.360492	-0.362251
C103	C	1.116003	0.360343	-0.360787
H104	H	1.253031	0.310371	-0.312182
H105	H	1.252424	0.429258	-0.344338
H106	H	1.251455	0.341929	-0.431226
H107	H	1.091721	0.378913	-0.291815
H108	H	1.090742	0.291561	-0.378694
C109	C	1.256110	0.531385	-1.055071
C110	C	1.330470	0.456795	-1.090781
H111	H	1.187691	0.513041	-1.080974
H112	H	1.275055	0.599845	-1.080365
H113	H	1.255143	0.531838	-0.979652
H114	H	1.331442	0.456347	-1.166200
H115	H	1.311520	0.388317	-1.065492
H116	H	1.717406	0.945451	-0.561104
C117	C	0.999251	0.639101	-0.766305
C118	C	0.961845	0.665365	-0.664927
H119	H	0.973560	0.689345	-0.816337
H120	H	0.974893	0.570233	-0.785045
H121	H	1.074671	0.639933	-0.766288
H122	H	0.886424	0.664525	-0.664943
H123	H	0.986198	0.734251	-0.646182
C124	C	1.638664	1.151843	-0.284929
C125	C	1.690708	1.089146	-0.360627
H126	H	1.688821	1.177560	-0.234812
H127	H	1.586634	1.110386	-0.249425
H128	H	1.605255	1.210116	-0.319214
H129	H	1.724110	1.030868	-0.326342
H130	H	1.742756	1.130605	-0.396135
C131	C	1.080712	0.355499	-0.748096
C132	C	1.116354	0.457225	-0.720855
H133	H	1.106718	0.337210	-0.816522
H134	H	1.005305	0.354662	-0.748773
H135	H	1.105960	0.305635	-0.697475
H136	H	1.091100	0.507090	-0.771472
H137	H	1.191777	0.458070	-0.720187
