data_functionalizedCrystal
_audit_creation_method	'MofGen! by Chris Wilmer'
_symmetry_space_group_name_H-M	'P1'
_symmetry_Int_Tables_number	1
_symmetry_cell_setting	triclinic
loop_
_symmetry_equiv_pos_as_xyz
  x,y,z
_cell_length_a	17.699083
_cell_length_b	12.837942
_cell_length_c	16.776229
_cell_angle_alpha	89.994225
_cell_angle_beta	89.998886
_cell_angle_gamma	89.055978
loop_
_atom_site_label
_atom_site_type_symbol
_atom_site_fract_x
_atom_site_fract_y
_atom_site_fract_z
O1	O	1.013707	0.131067	-0.066175
O2	O	0.794582	0.148119	-0.066201
O3	O	0.899286	-0.011297	-0.066184
O4	O	0.909003	0.290484	-0.066192
O5	O	0.899269	-0.011307	0.066393
O6	O	0.794565	0.148110	0.066376
O7	O	1.013691	0.131057	0.066401
Zn8	Zn	0.904126	0.139582	0.087438
Zn9	Zn	0.904147	0.139595	-0.087237
O10	O	0.908987	0.290474	0.066384
C11	C	0.766332	0.147503	0.000084
C12	C	0.682179	0.145670	0.000074
C13	C	0.640432	0.239245	0.000072
C14	C	0.561362	0.237516	0.000082
C15	C	0.524040	0.142212	0.000089
C16	C	0.565792	0.048631	0.000094
C17	C	0.644861	0.050360	0.000089
C18	C	0.246916	0.041653	0.000114
C19	C	0.167842	0.039931	0.000116
C20	C	0.163418	0.228809	0.000107
C21	C	0.242486	0.230539	0.000102
C22	C	0.284232	0.136958	0.000111
C23	C	0.369969	0.138833	0.000101
C24	C	0.438304	0.140336	0.000093
C25	C	0.895995	-0.049915	0.000104
C26	C	0.886204	-0.164967	0.000101
C27	C	1.003908	-0.406222	0.000099
C28	C	0.994712	-0.514324	0.000096
C29	C	0.858617	-0.489277	0.000088
C30	C	0.867813	-0.381174	0.000091
C31	C	0.940461	-0.339651	0.000097
C32	C	0.949656	-0.231546	0.000105
C33	C	0.813561	-0.206501	0.000092
C34	C	0.804365	-0.314604	0.000089
C35	C	1.041941	0.131673	0.000115
C36	C	1.126094	0.133506	0.000119
C37	C	0.912278	0.329091	0.000095
C38	C	0.922069	0.444144	0.000092
N39	N	0.904117	0.139572	0.206649
N40	N	0.904161	0.139596	-0.206449
C41	C	0.950497	0.069012	0.248374
C42	C	0.950502	0.069011	0.331826
C43	C	0.904128	0.139576	0.373552
C44	C	0.857742	0.210141	0.331821
C45	C	0.857735	0.210136	0.248371
C46	C	0.857771	0.210161	0.668369
C47	C	0.857784	0.210163	0.751825
C48	C	0.950538	0.069036	0.751824
C49	C	0.950530	0.069031	0.668373
C50	C	0.904142	0.139591	0.626650
C51	C	0.904137	0.139590	0.536162
C52	C	0.904137	0.139583	0.464039
H53	H	0.129419	0.305007	0.000104
C54	C	1.077157	0.007941	0.777509
C55	C	1.001522	-0.008540	0.797687
H56	H	1.108630	-0.039946	0.805825
H57	H	1.083783	-0.002156	0.721843
H58	H	1.090353	0.077102	0.791186
H59	H	0.988324	-0.077698	0.784004
H60	H	0.994892	0.001549	0.853365
C61	C	0.736355	-0.057263	-0.068063
C62	C	0.690755	-0.052497	0.000089
H63	H	0.764690	-0.120762	-0.068056
H64	H	0.705416	-0.054017	-0.114285
H65	H	0.769892	-0.000249	-0.068058
H66	H	0.657214	-0.109507	0.000082
H67	H	0.721697	-0.055753	0.046324
C68	C	0.533244	0.397973	-0.068088
C69	C	0.515476	0.340378	0.000074
H70	H	0.504912	0.461476	-0.068093
H71	H	0.585669	0.412634	-0.068088
H72	H	0.521186	0.358873	-0.114309
H73	H	0.527539	0.379474	0.046295
H74	H	0.463038	0.325719	0.000081
C75	C	1.024185	-0.076955	0.000117
C76	C	1.029508	-0.185899	0.000111
H77	H	1.073484	-0.048779	0.000124
H78	H	0.997739	-0.054091	-0.046112
H79	H	0.997730	-0.054111	0.046353
H80	H	1.055958	-0.208743	-0.046128
H81	H	1.055964	-0.208772	0.046345
C82	C	1.137509	-0.441834	0.000105
C83	C	1.083759	-0.360572	0.000103
H84	H	1.186806	-0.413650	0.000102
H85	H	1.131091	-0.483479	0.046335
H86	H	1.131090	-0.483474	-0.046130
H87	H	1.090175	-0.318936	0.046342
H88	H	1.090181	-0.318909	-0.046131
H89	H	0.761898	-0.152287	0.000097
C90	C	0.715075	-0.421639	-0.068068
C91	C	0.724515	-0.360257	0.000085
H92	H	0.665780	-0.449826	-0.068065
H93	H	0.721487	-0.379977	-0.114290
H94	H	0.751552	-0.476754	-0.068061
H95	H	0.688042	-0.305137	0.000076
H96	H	0.718096	-0.401922	0.046319
C97	C	1.042178	-0.070497	0.256764
C98	C	1.001472	-0.008560	0.202513
H99	H	1.073643	-0.118393	0.228451
H100	H	1.072511	-0.027399	0.289301
H101	H	1.007985	-0.107717	0.289323
H102	H	1.035665	0.028667	0.169957
H103	H	0.971137	-0.051663	0.169961
C104	C	1.063330	-0.650406	-0.068057
C105	C	1.064456	-0.587499	0.000098
H106	H	1.106392	-0.695576	-0.068058
H107	H	1.018757	-0.690609	-0.068054
H108	H	1.064091	-0.607694	-0.114283
H109	H	1.063690	-0.630211	0.046324
H110	H	1.109041	-0.547293	0.000101
H111	H	0.819966	0.267592	0.214399
C112	C	0.243336	-0.145221	0.000119
C113	C	0.292796	-0.061209	0.000117
H114	H	0.271665	-0.208726	0.000116
H115	H	0.212406	-0.141967	0.046348
H116	H	0.212403	-0.141953	-0.046117
H117	H	0.323726	-0.064473	0.046356
H118	H	0.323739	-0.064465	-0.046117
C119	C	0.726791	0.350762	0.068207
C120	C	0.681457	0.344005	0.000061
H121	H	0.752119	0.415436	0.068197
H122	H	0.696039	0.346165	0.114433
H123	H	0.762968	0.295274	0.068198
H124	H	0.645276	0.399488	0.000072
H125	H	0.712211	0.348611	-0.046178
C126	C	0.731127	0.271213	0.357533
C127	C	0.806765	0.287702	0.377688
H128	H	0.699657	0.319094	0.385853
H129	H	0.724488	0.281315	0.301868
H130	H	0.717938	0.202050	0.371221
H131	H	0.819955	0.356863	0.363994
H132	H	0.813407	0.277608	0.433365
C133	C	0.956780	-0.072081	0.425674
C134	C	1.001490	-0.008552	0.377684
H135	H	0.988262	-0.119971	0.453979
H136	H	0.929171	-0.030063	0.462469
H137	H	0.922594	-0.109307	0.393118
H138	H	1.035673	0.028681	0.410241
H139	H	1.029112	-0.050575	0.340885
H140	H	0.799470	-0.523105	0.000075
H141	H	0.535398	-0.028967	0.000111
H142	H	0.988294	0.011574	0.634403
C143	C	0.766076	0.349652	0.743449
C144	C	0.806799	0.287725	0.797692
H145	H	0.734599	0.397527	0.771767
H146	H	0.800252	0.386887	0.710893
H147	H	0.735747	0.306537	0.710907
H148	H	0.837132	0.330838	0.830230
H149	H	0.772618	0.250487	0.830262
H150	H	0.820002	0.267615	0.634404
H151	H	0.272870	0.308145	0.000093
H152	H	0.137457	-0.037681	0.000123
