data_functionalizedCrystal
_audit_creation_method	'MofGen! by Chris Wilmer'
_symmetry_space_group_name_H-M	'P1'
_symmetry_Int_Tables_number	1
_symmetry_cell_setting	triclinic
loop_
_symmetry_equiv_pos_as_xyz
  x,y,z
_cell_length_a	14.044220
_cell_length_b	14.853566
_cell_length_c	13.330367
_cell_angle_alpha	89.995295
_cell_angle_beta	89.994700
_cell_angle_gamma	88.411646
loop_
_atom_site_label
_atom_site_type_symbol
_atom_site_fract_x
_atom_site_fract_y
_atom_site_fract_z
O1	O	0.123761	1.206175	-0.083360
O2	O	0.138506	0.944883	-0.083376
O3	O	-0.006856	1.071607	-0.083358
O4	O	0.269123	1.079451	-0.083378
O5	O	-0.006859	1.071587	0.083489
O6	O	0.138503	0.944863	0.083471
O7	O	0.123758	1.206155	0.083488
Cu8	Cu	0.131130	1.075507	0.098714
Cu9	Cu	0.131134	1.075531	-0.098602
O10	O	0.269120	1.079431	0.083469
C11	C	0.137836	0.911232	0.000045
C12	C	0.135835	0.810989	0.000039
C13	C	0.127371	0.387145	-0.090891
C14	C	0.127369	0.387144	0.091012
C15	C	0.129248	0.481327	0.091009
C16	C	0.130191	0.528423	0.000054
C17	C	0.129254	0.481336	-0.090897
C18	C	0.130195	0.528420	0.181958
C19	C	0.132075	0.622609	0.181959
C20	C	0.133011	0.669707	0.091003
C21	C	0.132073	0.622615	0.000048
C22	C	0.133016	0.669711	-0.090906
C23	C	0.132071	0.622620	-0.181863
C24	C	0.130190	0.528435	-0.181853
C25	C	0.134892	0.763893	0.090994
C26	C	0.134898	0.763903	-0.090912
C27	C	-0.042177	1.068163	0.000065
C28	C	-0.147416	1.057922	0.000066
C29	C	-0.340102	1.039198	0.000050
C30	C	-0.397640	1.111836	0.000052
C31	C	-0.504857	1.101418	0.000043
C32	C	-0.232875	1.049615	0.000059
C33	C	0.304441	1.082875	0.000044
C34	C	0.409680	1.093116	0.000036
C35	C	0.124427	1.239806	0.000064
C36	C	0.126429	1.340049	0.000063
N37	N	0.131127	1.075497	0.237495
N38	N	0.131130	1.075548	-0.237384
C39	C	0.195475	1.019413	0.710110
C40	C	0.066785	1.131673	0.710094
C41	C	0.066782	1.131662	0.605076
C42	C	0.131128	1.075527	0.552570
C43	C	0.195476	1.019403	0.605082
C44	C	0.002442	1.187792	0.552556
C45	C	0.002437	1.187785	0.447531
C46	C	0.066779	1.131645	0.395023
C47	C	0.131129	1.075517	0.447542
C48	C	0.195474	1.019382	0.395035
C49	C	0.259820	0.963249	0.447552
C50	C	0.259817	0.963263	0.552574
C51	C	0.066781	1.131631	0.290001
C52	C	0.195475	1.019372	0.290007
H53	H	0.132845	0.660978	-0.255918
H54	H	0.247870	0.973657	0.247263
H55	H	0.014396	1.177338	0.247247
H56	H	-0.371363	0.969191	0.000043
H57	H	0.312215	0.917548	0.404790
N58	N	0.325533	0.905934	0.606234
N59	N	0.325523	0.905956	0.700003
H60	H	0.371935	0.865470	0.737905
N61	N	-0.063266	1.245115	0.393857
N62	N	-0.033059	1.303479	0.335232
H63	H	-0.079458	1.343967	0.297315
N64	N	-0.063249	1.245134	0.606221
N65	N	-0.122143	1.211823	0.664859
H66	H	-0.168530	1.252327	0.702773
N67	N	0.261188	0.962077	0.763763
N68	N	0.261178	0.962084	0.857532
H69	H	0.307587	0.921589	0.895427
N70	N	0.001090	1.189027	0.763739
N71	N	0.001113	1.189041	0.857508
H72	H	-0.045282	1.229555	0.895400
H73	H	0.135663	0.802242	-0.164980
H74	H	0.129420	0.490085	-0.255904
N75	N	0.129225	0.480329	0.274869
N76	N	0.130068	0.522381	0.356068
H77	H	0.129383	0.488414	0.421691
N78	N	0.126397	0.339036	-0.183788
N79	N	0.124709	0.254942	-0.183776
H80	H	0.124020	0.220963	-0.249385
H81	H	0.126608	0.348792	0.165063
H82	H	0.132842	0.660942	0.256021
N83	N	0.135887	0.811979	0.183899
N84	N	0.135069	0.769918	0.265101
H85	H	0.135779	0.803877	0.330722
H86	H	-0.366377	1.181849	-0.000011
