data_functionalizedCrystal
_audit_creation_method	'MofGen! by Chris Wilmer'
_symmetry_space_group_name_H-M	'P1'
_symmetry_Int_Tables_number	1
_symmetry_cell_setting	triclinic
loop_
_symmetry_equiv_pos_as_xyz
  x,y,z
_cell_length_a	12.837943
_cell_length_b	12.784905
_cell_length_c	11.892095
_cell_angle_alpha	86.521160
_cell_angle_beta	94.310562
_cell_angle_gamma	83.968130
loop_
_atom_site_label
_atom_site_type_symbol
_atom_site_fract_x
_atom_site_fract_y
_atom_site_fract_z
O1	O	-1.357946	-0.267749	-0.093977
O2	O	-0.857946	0.232251	0.406023
O3	O	-1.057360	-0.254222	-0.093984
O4	O	-0.557360	0.245778	0.406016
O5	O	-1.229649	-0.108486	-0.093976
O6	O	-0.729649	0.391514	0.406024
O7	O	-1.185657	-0.413485	-0.093984
O8	O	-0.685657	0.086515	0.406016
O9	O	-1.215285	-0.120616	0.094031
O10	O	-0.715285	0.379384	0.594031
O11	O	-1.042997	-0.266353	0.094023
O12	O	-0.542997	0.233647	0.594023
O13	O	-1.343582	-0.279879	0.094030
O14	O	-0.843582	0.220121	0.594030
Zn15	Zn	-1.191009	-0.275042	0.123877
Zn16	Zn	-0.691009	0.224958	0.623877
Zn17	Zn	-1.209933	-0.259059	-0.123830
Zn18	Zn	-0.709933	0.240941	0.376170
O19	O	-1.171294	-0.425615	0.094023
O20	O	-0.671294	0.074385	0.594023
C21	C	-1.011969	-0.255718	0.000019
C22	C	-0.511969	0.244282	0.500019
C23	C	-0.898121	-0.242090	0.000016
C24	C	-0.398121	0.257910	0.500016
C25	C	-1.225328	-0.075242	0.000026
C26	C	-0.725328	0.424758	0.500026
C27	C	-1.233842	0.041890	0.000021
C28	C	-0.733842	0.541890	0.500021
C29	C	-1.388973	-0.278383	0.000025
C30	C	-0.888973	0.221617	0.500025
C31	C	-1.502822	-0.292011	0.000021
C32	C	-1.002822	0.207989	0.500021
C33	C	-0.642394	-0.405922	0.000029
C34	C	-0.142394	0.094078	0.500029
C35	C	-0.535422	-0.393123	0.000027
C36	C	-0.035422	0.106877	0.500027
C37	C	-0.577202	-0.203692	0.000019
C38	C	-0.077202	0.296308	0.500019
C39	C	-0.684174	-0.216492	0.000021
C40	C	-0.184174	0.283508	0.500021
C41	C	-0.716766	-0.317610	0.000024
C42	C	-0.216766	0.182390	0.500024
C43	C	-0.823741	-0.330408	0.000018
C44	C	-0.323741	0.169592	0.500018
C45	C	-0.865518	-0.140979	0.000018
C46	C	-0.365518	0.359021	0.500018
C47	C	-0.758546	-0.128180	0.000016
C48	C	-0.258546	0.371820	0.500016
C49	C	-1.175614	-0.458860	0.000019
C50	C	-0.675614	0.041140	0.500019
C51	C	-1.167101	-0.575991	0.000016
C52	C	-0.667101	-0.075991	0.500016
C53	C	-1.060398	0.255841	0.000028
C54	C	-0.560398	0.755841	0.500028
C55	C	-1.068392	0.365896	0.000024
C56	C	-0.568392	0.865896	0.500024
C57	C	-1.257822	0.372059	0.000016
C58	C	-0.757822	0.872059	0.500016
C59	C	-1.249828	0.262003	0.000020
C60	C	-0.749828	0.762003	0.500020
C61	C	-1.151113	0.203898	0.000025
C62	C	-0.651113	0.703898	0.500025
C63	C	-1.143120	0.093841	0.000021
C64	C	-0.643120	0.593841	0.500021
C65	C	-1.332549	0.100004	0.000021
C66	C	-0.832549	0.600004	0.500021
C67	C	-1.340543	0.210060	0.000017
C68	C	-0.840543	0.710060	0.500017
N69	N	-1.178101	-0.285949	0.292931
N70	N	-0.678101	0.214051	0.792931
N71	N	-1.222850	-0.248144	-0.292884
N72	N	-0.722850	0.251856	0.207116
C73	C	-1.312673	-0.172183	0.529584
C74	C	-0.812673	0.327817	1.029584
C75	C	-1.303657	-0.179816	0.647925
C76	C	-0.803657	0.320184	1.147925
C77	C	-1.151051	-0.308842	0.647957
C78	C	-0.651051	0.191158	1.147957
C79	C	-1.160066	-0.301209	0.529616
C80	C	-0.660066	0.198791	1.029616
C81	C	-1.240881	-0.232879	0.470433
C82	C	-0.740881	0.267121	0.970433
C83	C	-1.249900	-0.225252	0.352090
C84	C	-0.749900	0.274748	0.852090
C85	C	-1.097290	-0.354271	0.352123
C86	C	-0.597290	0.145729	0.852123
C87	C	-1.088274	-0.361904	0.470465
C88	C	-0.588274	0.138096	0.970465
H89	H	-0.850274	-0.412744	0.000022
H90	H	-0.350274	0.087256	0.500022
H91	H	-1.022474	-0.417535	0.518665
H92	H	-0.522474	0.082465	1.018665
H93	H	-0.926085	-0.069069	0.000007
H94	H	-0.426085	0.430931	0.500007
H95	H	-1.085247	-0.364467	0.696159
H96	H	-0.585247	0.135533	1.196159
H97	H	-1.378481	-0.116554	0.481397
H98	H	-0.878481	0.383446	0.981397
H99	H	-1.062741	0.046533	0.000022
H100	H	-0.562741	0.546533	0.500022
H101	H	-0.980021	0.208531	0.000023
H102	H	-0.480021	0.708531	0.500023
H103	H	-0.668930	-0.488256	0.000029
H104	H	-0.168930	0.011744	0.500029
H105	H	-0.731993	-0.045853	0.000027
H106	H	-0.231993	0.454147	0.500027
H107	H	-1.038835	-0.403697	0.303949
H108	H	-0.538835	0.096303	0.803949
H109	H	-0.994523	0.408183	0.000033
H110	H	-0.494523	0.908183	0.500033
H111	H	-1.362116	-0.130391	0.696083
H112	H	-0.862116	0.369609	1.196083
H113	H	-0.474871	-0.465036	0.000034
H114	H	0.025129	0.034964	0.500034
H115	H	-1.406423	0.057708	-0.000081
H116	H	-0.906423	0.557708	0.499919
H117	H	-0.550639	-0.121372	0.000110
H118	H	-0.050639	0.378628	0.500110
H119	H	-1.420914	0.257384	0.000018
H120	H	-0.920914	0.757384	0.500018
H121	H	-1.338190	0.419386	0.000026
H122	H	-0.838190	0.919386	0.500026
H123	H	-1.315706	-0.169617	0.303904
H124	H	-0.815706	0.330383	0.803904
