data_functionalizedCrystal
_audit_creation_method	'MofGen! by Chris Wilmer'
_symmetry_space_group_name_H-M	'P1'
_symmetry_Int_Tables_number	1
_symmetry_cell_setting	triclinic
loop_
_symmetry_equiv_pos_as_xyz
  x,y,z
_cell_length_a	17.077404
_cell_length_b	16.120507
_cell_length_c	16.120256
_cell_angle_alpha	95.613568
_cell_angle_beta	87.120369
_cell_angle_gamma	87.068191
loop_
_atom_site_label
_atom_site_type_symbol
_atom_site_fract_x
_atom_site_fract_y
_atom_site_fract_z
Zn1	Zn	1.159590	0.356806	0.489421
Zn2	Zn	1.159473	0.489492	0.356725
Zn3	Zn	1.035332	0.349733	0.349669
Zn4	Zn	1.021258	0.496533	0.496451
O5	O	1.093913	0.423141	0.423066
O6	O	1.269420	0.374421	0.471829
O7	O	1.148847	0.465047	0.238827
O8	O	1.057754	0.233706	0.362311
O9	O	1.269334	0.471905	0.374339
O10	O	1.149046	0.238903	0.464987
O11	O	1.057641	0.362366	0.233642
O12	O	0.923620	0.369193	0.369129
O13	O	1.033766	0.483904	0.612481
O14	O	0.913279	0.477046	0.476969
O15	O	1.135398	0.381248	0.607316
O16	O	1.135199	0.607392	0.381156
O17	O	1.033653	0.612564	0.483812
C18	C	0.889967	0.423117	0.423046
C19	C	0.802717	0.423127	0.423059
C20	C	0.761763	0.372467	0.473909
C21	C	0.679782	0.372472	0.473913
C22	C	0.638756	0.423143	0.423071
C23	C	0.679715	0.473806	0.372215
C24	C	0.761695	0.473795	0.372207
C25	C	0.508843	0.473826	0.372237
C26	C	0.426858	0.473838	0.372246
C27	C	0.426930	0.372503	0.473942
C28	C	0.508910	0.372492	0.473934
C29	C	0.549864	0.423156	0.423080
C30	C	1.082907	0.640307	0.434031
C31	C	1.078268	0.733212	0.438749
C32	C	1.118039	0.942122	0.398718
C33	C	1.069814	0.903307	0.447373
C34	C	1.074520	0.808658	0.442573
C35	C	1.113335	1.036780	0.403517
C36	C	1.298655	0.423167	0.423087
C37	C	1.385904	0.423177	0.423096
C38	C	1.083025	0.434150	0.641073
C39	C	1.078385	0.438842	0.733975
C40	C	1.104954	1.205128	0.412065
C41	C	1.109583	1.112222	0.407344
C42	C	1.104807	0.412115	0.205905
C43	C	1.109611	0.407188	0.112992
C44	C	1.118109	0.398655	0.942901
C45	C	1.069890	0.447372	0.904060
C46	C	1.074618	0.442624	0.809416
C47	C	1.113382	0.403401	1.037554
H48	H	0.646441	0.331221	0.515321
Br49	Br	0.995164	0.522834	0.967102
H50	H	1.162939	0.353385	0.905077
Br51	Br	0.995107	0.966394	0.522807
H52	H	0.542311	0.331236	0.515339
H53	H	1.162857	0.904273	0.353461
H54	H	0.393582	0.331249	0.515348
Br55	Br	0.817433	0.303701	0.542918
H56	H	0.795039	0.515048	0.330800
H57	H	0.393456	0.515100	0.330847
H58	H	0.646306	0.515059	0.330815
Br59	Br	0.564423	0.542590	0.303224
