data_functionalizedCrystal
_audit_creation_method	'MofGen! by Chris Wilmer'
_symmetry_space_group_name_H-M	'P1'
_symmetry_Int_Tables_number	1
_symmetry_cell_setting	triclinic
loop_
_symmetry_equiv_pos_as_xyz
  x,y,z
_cell_length_a	19.188928
_cell_length_b	27.732048
_cell_length_c	17.666332
_cell_angle_alpha	89.988553
_cell_angle_beta	90.026054
_cell_angle_gamma	97.106768
loop_
_atom_site_label
_atom_site_type_symbol
_atom_site_fract_x
_atom_site_fract_y
_atom_site_fract_z
O1	O	-0.925766	0.060343	-0.063249
O2	O	-0.722402	0.068468	-0.063187
O3	O	-0.830400	-0.005972	-0.063206
O4	O	-0.817768	0.134782	-0.063231
O5	O	-0.830381	-0.005976	0.062691
O6	O	-0.722384	0.068464	0.062709
O7	O	-0.925747	0.060339	0.062648
Cu8	Cu	-0.824064	0.064401	0.074174
Cu9	Cu	-0.824086	0.064405	-0.074714
O10	O	-0.817749	0.134779	0.062666
C11	C	-0.696384	0.068203	-0.000231
C12	C	-0.618884	0.067413	-0.000207
C13	C	-0.830126	-0.023982	-0.000255
C14	C	-0.829327	-0.077639	-0.000249
C15	C	-0.573682	0.111092	-0.000224
C16	C	-0.500862	0.110351	-0.000229
C17	C	-0.473249	0.065928	-0.000231
C18	C	-0.518462	0.022243	-0.000209
C19	C	-0.591279	0.022986	-0.000197
N20	N	-0.365492	0.031974	-0.043097
N21	N	-0.296318	0.031271	-0.043110
C22	C	-0.253855	0.063687	-0.000265
N23	N	-0.283177	0.096840	0.042585
N24	N	-0.352358	0.097544	0.042594
C25	C	-0.394292	0.065118	-0.000243
C26	C	-0.129693	0.106565	-0.000286
C27	C	-0.056872	0.105822	-0.000285
C28	C	-0.074473	0.017713	-0.000273
C29	C	-0.147292	0.018458	-0.000266
C30	C	-0.174897	0.062885	-0.000276
C31	C	-0.888120	-0.416275	-0.000306
C32	C	-0.885158	-0.617944	-0.000315
O33	O	-0.938920	-0.649035	-0.000365
N34	N	-0.821119	-0.637263	-0.000295
C35	C	-0.757817	-0.606161	-0.000277
O36	O	-0.703281	-0.627221	-0.000268
C37	C	-0.760781	-0.404494	-0.000273
C38	C	-0.824823	-0.385178	-0.000286
C39	C	-0.952157	-0.396958	-0.000319
C40	C	-0.952897	-0.346544	-0.000312
C41	C	-0.889600	-0.315447	-0.000292
C42	C	-0.825563	-0.334763	-0.000279
C43	C	-0.697479	-0.373393	-0.000261
C44	C	-0.698226	-0.322974	-0.000262
C45	C	-0.762268	-0.303657	-0.000274
C46	C	-0.763006	-0.253252	-0.000253
N47	N	-0.827044	-0.233933	-0.000273
C48	C	-0.890341	-0.265030	-0.000293
C49	C	-0.756266	-0.712040	-0.000278
C50	C	-0.755525	-0.762457	-0.000278
C51	C	-0.882866	-0.774236	-0.000317
C52	C	-0.883606	-0.723818	-0.000312
C53	C	-0.820304	-0.692721	-0.000298
C54	C	-0.891890	-0.159156	-0.000278
C55	C	-0.892624	-0.108737	-0.000269
C56	C	-0.765284	-0.096962	-0.000234
C57	C	-0.764549	-0.147377	-0.000239
C58	C	-0.827858	-0.178473	-0.000264
O59	O	-0.709272	-0.222132	-0.000212
O60	O	-0.944869	-0.243961	-0.000319
C61	C	-0.887380	-0.466689	-0.000312
C62	C	-0.823343	-0.486006	-0.000299
C63	C	-0.760046	-0.454908	-0.000279
C64	C	-0.822602	-0.536423	-0.000298
C65	C	-0.885899	-0.567520	-0.000318
C66	C	-0.949937	-0.548201	-0.000338
C67	C	-0.950677	-0.497787	-0.000332
C68	C	-0.696008	-0.474228	-0.000259
C69	C	-0.695273	-0.524642	-0.000264
C70	C	-0.758570	-0.555740	-0.000284
C71	C	0.048235	0.060605	-0.000297
C72	C	-0.029264	0.061399	-0.000286
C73	C	-0.818024	0.152788	-0.000286
C74	C	-0.818822	0.206446	-0.000298
N75	N	-0.824053	0.064397	0.178893
N76	N	-0.824102	0.064405	-0.179433
C77	C	-0.871890	0.031451	0.218495
C78	C	-0.871894	0.031449	0.297742
C79	C	-0.824068	0.064401	0.337385
C80	C	-0.776222	0.097349	0.297774
C81	C	-0.776215	0.097347	0.218528
N82	N	-0.814719	0.107191	0.461798
N83	N	-0.814730	0.107191	0.537079
C84	C	-0.824086	0.064408	0.576149
N85	N	-0.833445	0.021622	0.537096
N86	N	-0.833437	0.021623	0.461808
C87	C	-0.824070	0.064406	0.423314
C88	C	-0.871930	0.031456	0.701680
C89	C	-0.871929	0.031453	0.780929
C90	C	-0.776261	0.097358	0.780960
C91	C	-0.776258	0.097357	0.701712
C92	C	-0.824097	0.064406	0.662077
H93	H	-0.596152	0.147268	-0.000234
N94	N	-0.454688	0.154974	-0.000242
N95	N	-0.479345	0.194636	-0.000247
H96	H	-0.446737	0.226152	-0.000256
N97	N	-0.490271	-0.023138	-0.000220
N98	N	-0.530642	-0.062135	-0.000209
H99	H	-0.510734	-0.094188	-0.000214
N100	N	-0.629856	-0.544378	-0.000243
N101	N	-0.615221	-0.571206	0.052822
H102	H	-0.569022	-0.585144	0.052832
N103	N	-0.157897	0.151944	-0.000270
N104	N	-0.196539	0.162182	0.052805
H105	H	-0.216457	0.194231	0.052819
N106	N	-0.010706	0.150446	-0.000294
N107	N	-0.035367	0.190107	-0.000301
H108	H	-0.002761	0.221624	-0.000306
N109	N	-0.920786	-0.002203	0.821395
N110	N	-0.963954	0.013053	0.865600
H111	H	-0.998454	-0.010719	0.894185
N112	N	-0.727352	0.131012	0.178085
N113	N	-0.727823	0.175689	0.186923
H114	H	-0.693314	0.199467	0.158360
H115	H	-0.943442	-0.184469	-0.000302
H116	H	-0.704715	-0.686725	-0.000267
H117	H	-0.628084	-0.012584	-0.000183
H118	H	-0.737317	0.124186	0.813236
N119	N	-0.920710	-0.002263	0.661200
N120	N	-0.963358	-0.031721	0.696573
H121	H	-0.997778	-0.055559	0.667987
H122	H	-0.713749	-0.071634	-0.000215
N123	N	-0.727389	0.131014	0.661267
N124	N	-0.684687	0.160432	0.696668
H125	H	-0.650169	0.184203	0.668105
H126	H	-0.184097	-0.017110	-0.000256
H127	H	-0.051991	-0.018457	-0.000322
N128	N	-0.947522	-0.806007	-0.000358
N129	N	-0.990236	-0.804318	-0.053448
H130	H	-1.035897	-0.826758	-0.053483
H131	H	-0.944777	-0.093013	-0.000277
N132	N	-1.018322	-0.326825	-0.000328
N133	N	-1.074827	-0.354604	-0.000349
H134	H	-1.121037	-0.340682	-0.000362
H135	H	-0.910849	0.004619	0.329992
H136	H	-0.646677	-0.297656	-0.000252
N137	N	-1.016826	-0.428712	-0.000344
N138	N	-1.073992	-0.411449	-0.000359
H139	H	-1.119669	-0.433872	-0.000372
N140	N	-0.949029	-0.704097	-0.000321
N141	N	-1.005536	-0.731874	-0.000333
H142	H	-1.051745	-0.717950	-0.000340
N143	N	-0.690101	-0.782177	-0.000247
N144	N	-0.633594	-0.754400	-0.000229
H145	H	-0.587385	-0.768324	-0.000210
H146	H	-0.645329	-0.389111	-0.000255
N147	N	-0.699127	-0.167103	-0.000203
N148	N	-0.642617	-0.139329	-0.000174
H149	H	-0.596411	-0.153257	-0.000150
N150	N	-1.016102	-0.478068	-0.000342
N151	N	-1.072607	-0.505847	-0.000359
H152	H	-1.118817	-0.491924	-0.000366
N153	N	-0.631341	-0.442473	-0.000241
N154	N	-0.574174	-0.459734	-0.000224
H155	H	-0.528498	-0.437310	-0.000208
H156	H	-1.001476	-0.573530	-0.000351
H157	H	-0.910841	0.004620	0.186226
N158	N	-0.727369	0.131003	0.338276
N159	N	-0.727382	0.131000	0.409031
H160	H	-0.692876	0.154767	0.437636
