data_functionalizedCrystal
_audit_creation_method	'MofGen! by Chris Wilmer'
_symmetry_space_group_name_H-M	'P1'
_symmetry_Int_Tables_number	1
_symmetry_cell_setting	triclinic
loop_
_symmetry_equiv_pos_as_xyz
  x,y,z
_cell_length_a	16.992694
_cell_length_b	16.992695
_cell_length_c	15.455450
_cell_angle_alpha	92.817695
_cell_angle_beta	92.816438
_cell_angle_gamma	90.668223
loop_
_atom_site_label
_atom_site_type_symbol
_atom_site_fract_x
_atom_site_fract_y
_atom_site_fract_z
O1	O	-1.047595	-0.163653	0.072022
O2	O	-0.819194	-0.161820	0.072047
O3	O	-0.932479	-0.048537	0.072028
O4	O	-0.934310	-0.276936	0.072041
O5	O	-0.938989	-0.055070	-0.072232
O6	O	-0.825704	-0.168353	-0.072212
O7	O	-1.054105	-0.170186	-0.072238
Cu8	Cu	-0.940499	-0.169866	-0.085397
Cu9	Cu	-0.932800	-0.162140	0.085206
O10	O	-0.940820	-0.283469	-0.072218
C11	C	-0.793089	-0.162731	-0.000079
C12	C	-0.705604	-0.155702	-0.000070
C13	C	-0.933378	-0.022443	-0.000102
C14	C	-0.926350	0.065041	-0.000101
C15	C	-1.080210	-0.169275	-0.000109
C16	C	-1.167695	-0.176304	-0.000113
C17	C	-0.939921	-0.309563	-0.000087
C18	C	-0.946949	-0.397047	-0.000082
C19	C	-0.659613	-0.223520	-0.000066
C20	C	-0.577412	-0.216911	-0.000079
C21	C	-0.541205	-0.142484	-0.000088
C22	C	-0.587202	-0.074661	-0.000094
C23	C	-0.669401	-0.081271	-0.000088
C24	C	-0.295891	-0.115091	-0.000113
C25	C	-0.213686	-0.108486	-0.000116
C26	C	-0.203902	-0.250737	-0.000103
C27	C	-0.286103	-0.257340	-0.000091
C28	C	-0.332093	-0.189517	-0.000102
N29	N	-0.457183	-0.135727	-0.000098
N30	N	-0.416114	-0.196275	-0.000098
N31	N	-0.945920	-0.175300	-0.205390
C32	C	-0.994168	0.111032	-0.000109
C33	C	-0.987559	0.193233	-0.000100
C34	C	-0.913131	0.229442	-0.000089
C35	C	-0.845307	0.183445	-0.000078
C36	C	-0.851917	0.101246	-0.000081
C37	C	-0.885735	0.474757	-0.000074
C38	C	-0.879131	0.556962	-0.000074
C39	C	-1.021383	0.566744	-0.000094
C40	C	-1.027987	0.484543	-0.000102
C41	C	-0.960163	0.438554	-0.000087
N42	N	-0.906373	0.313464	-0.000082
N43	N	-0.966921	0.354533	-0.000087
C44	C	-0.897252	-0.126595	-0.250806
C45	C	-0.901371	-0.130714	-0.341612
C46	C	-0.954162	-0.183536	-0.387000
C47	C	-1.002832	-0.232247	-0.341577
C48	C	-0.998708	-0.228131	-0.250773
C49	C	-0.971931	-0.201295	-0.658573
C50	C	-0.976053	-0.205406	-0.749384
C51	C	-0.874591	-0.103874	-0.749413
C52	C	-0.870475	-0.099758	-0.658607
C53	C	-0.919142	-0.148472	-0.613192
N54	N	-0.958376	-0.187747	-0.479818
N55	N	-0.914924	-0.144265	-0.520375
N56	N	-0.927385	-0.156700	0.205199
H57	H	-0.689087	-0.284126	-0.000058
H58	H	-0.166449	-0.305954	-0.000096
H59	H	-0.315577	-0.317946	-0.000074
O60	O	-0.845902	-0.075263	-0.206855
C61	C	-0.803843	-0.033146	-0.266418
H62	H	-0.804231	-0.068378	-0.331143
H63	H	-0.740447	-0.023159	-0.240198
H64	H	-0.832841	0.026157	-0.276075
O65	O	-0.178641	-0.036125	-0.000164
C66	C	-0.236857	0.022322	-0.000148
H67	H	-0.295253	-0.004472	-0.027460
H68	H	-0.218418	0.072077	-0.042033
H69	H	-0.243975	0.046624	0.069058
O70	O	-0.532651	-0.282729	0.000049
C71	C	-0.481443	-0.279782	0.074770
H72	H	-0.472245	-0.215909	0.099664
H73	H	-0.422332	-0.306005	0.057969
H74	H	-0.508342	-0.315048	0.127097
H75	H	-0.706846	-0.026046	-0.000090
O76	O	-0.340634	-0.049259	0.000003
C77	C	-0.385076	-0.045429	0.074730
H78	H	-0.392022	-0.107043	0.099640
H79	H	-0.445707	-0.020726	0.057931
H80	H	-0.353438	-0.005420	0.127045
H81	H	-0.557715	-0.014061	-0.000114
H82	H	-1.011563	-0.240958	-0.621607
H83	H	-0.818520	0.586440	-0.000079
H84	H	-0.796692	0.063801	-0.000073
H85	H	-0.861741	-0.091053	-0.378586
O86	O	-1.027357	-0.256788	-0.793341
C87	C	-1.069443	-0.298888	-0.733786
H88	H	-1.034204	-0.298494	-0.669065
H89	H	-1.079392	-0.362285	-0.760022
H90	H	-1.128762	-0.269929	-0.724114
O91	O	-1.053520	0.237789	-0.000153
C92	C	-1.120628	0.188205	-0.000149
H93	H	-1.105716	0.126941	-0.027459
H94	H	-1.170348	0.213482	-0.042042
H95	H	-1.140084	0.184095	0.069053
O96	O	-1.087314	0.611341	0.000015
C97	C	-1.128812	0.597622	0.074735
H98	H	-1.112261	0.537675	0.099642
H99	H	-1.194864	0.598526	0.057928
H100	H	-1.112871	0.645572	0.127055
H101	H	-0.830508	0.437322	-0.000061
H102	H	-0.827489	-0.056743	-0.621658
O103	O	-1.054093	-0.283491	-0.385798
C104	C	-1.047286	-0.276694	-0.475684
H105	H	-1.021678	-0.216214	-0.488099
H106	H	-1.107977	-0.283973	-0.510179
H107	H	-1.006702	-0.324399	-0.501459
H108	H	-1.088594	0.455068	-0.000112
H109	H	-1.054776	0.081557	-0.000124
H110	H	-0.784706	0.212933	-0.000063
H111	H	-0.834968	-0.064215	-0.786400
H112	H	-1.038337	-0.267794	-0.213796
