data_functionalizedCrystal
_audit_creation_method	'MofGen! by Chris Wilmer'
_symmetry_space_group_name_H-M	'P1'
_symmetry_Int_Tables_number	1
_symmetry_cell_setting	triclinic
loop_
_symmetry_equiv_pos_as_xyz
  x,y,z
_cell_length_a	14.971486
_cell_length_b	19.288865
_cell_length_c	13.448316
_cell_angle_alpha	89.988163
_cell_angle_beta	89.998199
_cell_angle_gamma	83.375189
loop_
_atom_site_label
_atom_site_type_symbol
_atom_site_fract_x
_atom_site_fract_y
_atom_site_fract_z
O1	O	1.186458	0.090517	-0.082589
O2	O	0.925999	0.101357	-0.082618
O3	O	1.063755	-0.005169	-0.082583
O4	O	1.048703	0.197043	-0.082624
O5	O	1.063737	-0.005175	0.082801
O6	O	0.925982	0.101350	0.082766
O7	O	1.186441	0.090511	0.082794
Cu8	Cu	1.056210	0.095930	0.097881
Cu9	Cu	1.056230	0.095938	-0.097704
O10	O	1.048685	0.197036	0.082760
C11	C	0.892669	0.100869	0.000071
C12	C	0.793379	0.099416	0.000061
C13	C	0.735816	0.161997	0.000049
C14	C	0.642524	0.160628	0.000065
C15	C	0.606797	0.096677	0.000084
C16	C	0.664368	0.034092	0.000098
C17	C	0.757658	0.035461	0.000090
C18	C	0.469921	0.031241	0.000112
C19	C	0.376624	0.029871	0.000118
C20	C	0.354786	0.156407	0.000087
C21	C	0.448077	0.157777	0.000079
C22	C	0.505641	0.095191	0.000091
C23	C	1.063262	-0.031050	0.000112
C24	C	1.061808	-0.108158	0.000120
C25	C	1.142636	-0.152591	0.000134
C26	C	1.141271	-0.225043	0.000118
C27	C	1.059071	-0.253058	0.000109
C28	C	0.978232	-0.208615	0.000089
C29	C	0.979600	-0.136166	0.000095
C30	C	0.994447	-0.361558	0.058032
C31	C	0.993083	-0.434007	0.058032
C32	C	1.054848	-0.476517	0.000086
C33	C	1.117994	-0.446571	-0.057848
C34	C	1.119362	-0.374121	-0.057842
C35	C	1.057579	-0.331617	0.000101
C36	C	1.134201	-0.599511	0.000081
C37	C	1.132832	-0.671963	0.000059
C38	C	0.969791	-0.655535	0.000040
C39	C	0.971163	-0.583084	0.000052
C40	C	1.053370	-0.555077	0.000077
C41	C	1.219771	0.090999	0.000104
C42	C	1.319061	0.092452	0.000107
C43	C	1.049178	0.222918	0.000063
C44	C	1.050632	0.300026	0.000048
N45	N	1.056202	0.095924	0.235445
N46	N	1.056245	0.095938	-0.235269
C47	C	1.117219	0.048774	0.287501
C48	C	1.117224	0.048773	0.391604
C49	C	1.056217	0.095927	0.443650
C50	C	0.995193	0.143079	0.391587
C51	C	0.995184	0.143076	0.287486
C52	C	0.995218	0.143084	0.608567
C53	C	0.995228	0.143088	0.712675
C54	C	1.117258	0.048781	0.712686
C55	C	1.117249	0.048778	0.608584
C56	C	1.056227	0.095932	0.556529
H57	H	0.635272	-0.017978	0.000128
O58	O	0.482670	0.219944	-0.000079
C59	C	0.492576	0.328495	-0.085827
C60	C	0.453327	0.258121	-0.085761
H61	H	0.468883	0.359375	-0.155103
H62	H	0.468824	0.359473	-0.016668
H63	H	0.569140	0.318711	-0.085785
H64	H	0.376763	0.267841	-0.085838
H65	H	0.477149	0.227166	-0.154913
H66	H	0.945497	0.181469	0.245103
O67	O	1.180570	-0.344943	-0.114185
C68	C	1.204796	-0.265436	-0.247117
C69	C	1.135387	-0.298416	-0.183359
H70	H	1.168292	-0.227824	-0.303074
H71	H	1.248764	-0.235842	-0.197036
H72	H	1.248725	-0.308274	-0.288489
H73	H	1.091397	-0.255622	-0.141978
H74	H	1.091482	-0.328027	-0.233492
O75	O	0.889864	-0.682625	-0.000014
C76	C	0.728297	-0.658684	0.000028
C77	C	0.818754	-0.627908	0.000070
H78	H	0.670782	-0.614461	0.000117
H79	H	0.723526	-0.692154	-0.069206
H80	H	0.723622	-0.692230	0.069220
H81	H	0.823490	-0.594331	-0.069075
H82	H	0.823487	-0.594478	0.069350
O83	O	1.176380	0.002904	0.442210
C84	C	1.195841	-0.091909	0.559808
C85	C	1.128746	-0.040009	0.502546
H86	H	1.157356	-0.126608	0.608618
H87	H	1.239433	-0.125655	0.504766
H88	H	1.240418	-0.061846	0.608484
H89	H	1.084111	-0.070016	0.453868
H90	H	1.085217	-0.006264	0.557641
H91	H	0.905343	-0.546906	0.000046
H92	H	0.945515	0.181470	0.433968
H93	H	1.166902	0.010379	0.245132
O94	O	0.931663	-0.462978	0.114331
C95	C	0.807940	-0.442872	0.229305
C96	C	0.877437	-0.409973	0.165573
H97	H	0.764093	-0.400034	0.270767
H98	H	0.763905	-0.472393	0.179203
H99	H	0.844423	-0.480558	0.285184
H100	H	0.841029	-0.372256	0.109688
H101	H	0.921469	-0.380495	0.215737
H102	H	1.201139	-0.576706	0.000097
H103	H	0.595658	0.211588	0.000054
O104	O	0.298961	0.217250	0.000213
C105	C	0.251713	0.324962	0.085894
C106	C	0.315005	0.256096	0.085870
H107	H	0.264648	0.356382	0.155151
H108	H	0.264672	0.356478	0.016716
H109	H	0.178907	0.312980	0.085860
H110	H	0.387833	0.268014	0.085939
H111	H	0.301968	0.224600	0.155042
O112	O	1.176418	0.002998	0.557867
C113	C	1.298267	-0.011891	0.439897
C114	C	1.231446	0.040080	0.497364
H115	H	1.342762	0.018069	0.390951
H116	H	1.341963	-0.045692	0.494803
H117	H	1.259495	-0.046534	0.391337
H118	H	1.270145	0.074769	0.545926
H119	H	1.187751	0.073832	0.442404
H120	H	0.944148	-0.326952	0.105224
H121	H	0.911305	-0.231430	0.000079
H122	H	0.516788	-0.019723	0.000124
O123	O	1.176501	0.002879	0.763135
C124	C	1.229393	-0.117828	0.795057
C125	C	1.162263	-0.065927	0.737842
H126	H	1.217893	-0.173469	0.774645
H127	H	1.301007	-0.108735	0.774552
H128	H	1.218936	-0.109696	0.878397
H129	H	1.172638	-0.074028	0.654489
H130	H	1.090673	-0.075033	0.758429
O131	O	0.900997	-0.093099	0.000131
C132	C	0.739142	-0.084450	0.000047
C133	C	0.828093	-0.133304	0.000026
H134	H	0.680176	-0.116935	-0.000059
H135	H	0.735637	-0.050147	0.069281
H136	H	0.735766	-0.050091	-0.069145
H137	H	0.831528	-0.167706	0.069171
H138	H	0.831561	-0.167558	-0.069253
H139	H	0.347539	-0.022204	0.000136
O140	O	1.222568	-0.125501	0.000108
C141	C	1.384134	-0.149445	0.000198
C142	C	1.293676	-0.180219	0.000205
H143	H	1.441649	-0.193669	0.000297
H144	H	1.388925	-0.115951	-0.069028
H145	H	1.388792	-0.115924	0.069398
H146	H	1.288957	-0.213771	-0.068948
H147	H	1.288924	-0.213673	0.069476
H148	H	1.207093	-0.261227	0.000125
O149	O	1.177876	-0.487873	-0.114265
C150	C	1.199030	-0.571954	-0.247142
C151	C	1.131118	-0.525199	-0.183342
H152	H	1.161252	-0.602156	-0.302992
H153	H	1.244380	-0.538134	-0.288618
H154	H	1.241743	-0.610224	-0.196989
H155	H	1.088344	-0.486923	-0.233423
H156	H	1.085830	-0.559063	-0.141856
O157	O	0.935868	0.188908	0.763080
C158	C	0.814835	0.282453	0.752091
C159	C	0.882004	0.230593	0.694884
H160	H	0.771282	0.316178	0.696979
H161	H	0.770234	0.252428	0.800814
H162	H	0.853315	0.317178	0.800843
H163	H	0.843597	0.195854	0.646078
H164	H	0.926605	0.260661	0.646223
O165	O	0.936065	0.188918	0.557888
C166	C	0.916633	0.283778	0.440366
C167	C	0.983715	0.231900	0.497681
H168	H	0.955132	0.318553	0.391691
H169	H	0.872083	0.253769	0.391578
H170	H	0.873015	0.317452	0.495462
H171	H	1.027393	0.198213	0.442657
H172	H	1.028204	0.261952	0.546484
H173	H	0.804527	-0.015498	0.000099
H174	H	0.764896	0.214073	0.000033
H175	H	1.198655	-0.708141	0.000065
