data_functionalizedCrystal
_audit_creation_method	'MofGen! by Chris Wilmer'
_symmetry_space_group_name_H-M	'P1'
_symmetry_Int_Tables_number	1
_symmetry_cell_setting	triclinic
loop_
_symmetry_equiv_pos_as_xyz
  x,y,z
_cell_length_a	6.817900
_cell_length_b	19.453103
_cell_length_c	19.453114
_cell_angle_alpha	96.316406
_cell_angle_beta	101.709288
_cell_angle_gamma	101.709178
loop_
_atom_site_label
_atom_site_type_symbol
_atom_site_fract_x
_atom_site_fract_y
_atom_site_fract_z
V1	V	-3.997997	-0.097914	-0.219328
O2	O	-3.995098	0.003953	-0.214817
O3	O	-3.941017	-0.193423	-0.218151
O4	O	-3.941018	-0.096738	-0.314837
O5	O	-3.995097	-0.093402	-0.117462
V6	V	-4.483849	-0.085690	-0.207105
O7	O	-4.254148	-0.124727	-0.246141
O8	O	-4.677895	-0.058877	-0.180292
O9	O	-4.317623	0.009819	-0.208282
O10	O	-4.604145	-0.187557	-0.211616
O11	O	-4.604146	-0.090202	-0.308971
O12	O	-4.317621	-0.086866	-0.111596
C13	C	-3.784208	-0.216695	-0.214774
C14	C	-3.818849	-0.294777	-0.214449
C15	C	-4.016582	-0.335044	-0.217808
C16	C	-4.049135	-0.408411	-0.217509
C17	C	-3.883937	-0.441507	-0.213837
C18	C	-3.686178	-0.401231	-0.210481
C19	C	-3.653634	-0.327867	-0.210787
N20	N	-3.779057	-0.547627	-0.170551
N21	N	-3.809984	-0.617320	-0.170259
C22	C	-3.981979	-0.662551	-0.212916
N23	N	-4.121905	-0.635454	-0.255867
N24	N	-4.090980	-0.565754	-0.256156
C25	C	-3.919205	-0.521058	-0.213505
C26	C	-4.215023	-0.782371	-0.215953
C27	C	-4.247572	-0.855741	-0.215658
C28	C	-3.884605	-0.848558	-0.208622
C29	C	-3.852066	-0.775191	-0.208924
C30	C	-4.017281	-0.742102	-0.212586
C31	C	-3.784208	-0.093363	-0.338106
C32	C	-3.818848	-0.093034	-0.416187
C33	C	-4.016587	-0.096405	-0.456456
C34	C	-4.049136	-0.096095	-0.529822
C35	C	-3.883941	-0.092429	-0.562918
C36	C	-3.686172	-0.089054	-0.522640
C37	C	-3.653625	-0.089356	-0.449274
N38	N	-3.820865	-0.129523	-0.681832
N39	N	-3.851796	-0.129237	-0.751526
C40	C	-3.981989	-0.091516	-0.783963
N41	N	-4.080118	-0.054100	-0.744075
N42	N	-4.049192	-0.054389	-0.674375
C43	C	-3.919211	-0.092100	-0.642470
C44	C	-4.215033	-0.094550	-0.903783
C45	C	-4.247572	-0.094236	-0.977150
C46	C	-3.884605	-0.087202	-0.969967
C47	C	-3.852068	-0.087509	-0.896601
C48	C	-4.017291	-0.091187	-0.863515
C49	C	-4.137773	0.033088	-0.211656
C50	C	-4.082370	0.111169	-0.211986
C51	C	-4.137773	-0.090243	-0.088323
C52	C	-4.082372	-0.090569	-0.010241
H53	H	-4.210158	-0.441203	-0.220245
H54	H	-3.750096	-0.084210	-0.996913
H55	H	-3.492614	-0.295081	-0.208052
O56	O	-3.660000	-0.084158	-0.857420
C57	C	-3.380857	-0.019366	-0.760611
C58	C	-3.598343	-0.023043	-0.804947
H59	H	-3.330958	0.030034	-0.718167
H60	H	-3.268201	-0.016662	-0.796805
H61	H	-3.382465	-0.068785	-0.734008
H62	H	-3.596934	0.026365	-0.831556
H63	H	-3.710906	-0.025782	-0.768719
O64	O	-3.525814	-0.085401	-0.554852
C65	C	-3.320036	-0.019788	-0.623749
C66	C	-3.501725	-0.023851	-0.587316
H67	H	-3.300475	0.029978	-0.649992
H68	H	-3.351867	-0.068848	-0.665820
H69	H	-3.173152	-0.017466	-0.582355
H70	H	-3.648687	-0.026151	-0.628657
H71	H	-3.469717	0.025207	-0.545231
H72	H	-4.349566	-0.097542	-0.876842
O73	O	-4.176944	-0.302853	-0.221247
C74	C	-4.319006	-0.214428	-0.164535
C75	C	-4.137280	-0.250835	-0.160540
H76	H	-4.286983	-0.172353	-0.115468
H77	H	-4.465965	-0.255780	-0.166842
H78	H	-4.338549	-0.188162	-0.214288
H79	H	-4.117547	-0.277099	-0.110792
H80	H	-3.990419	-0.209453	-0.158272
O81	O	-3.525702	-0.433389	-0.206786
C82	C	-3.320066	-0.502351	-0.141212
C83	C	-3.501823	-0.465950	-0.145296
H84	H	-3.300729	-0.528697	-0.091509
H85	H	-3.173052	-0.460988	-0.138815
H86	H	-3.351954	-0.544359	-0.190324
H87	H	-3.470134	-0.423945	-0.096196
H88	H	-3.648778	-0.507354	-0.147727
H89	H	-3.691049	-0.742405	-0.206184
O90	O	-4.375367	-0.750169	-0.219390
C91	C	-4.517384	-0.661736	-0.162668
C92	C	-4.335685	-0.698156	-0.158678
H93	H	-4.485346	-0.619666	-0.113596
H94	H	-4.664360	-0.703082	-0.164980
H95	H	-4.536905	-0.635463	-0.212416
H96	H	-4.315974	-0.724427	-0.108934
H97	H	-4.188806	-0.656780	-0.156404
H98	H	-4.210166	-0.098844	-0.562615
H99	H	-4.408596	-0.888526	-0.218398
O100	O	-3.724122	-0.880709	-0.204929
C101	C	-3.518480	-0.949672	-0.139359
C102	C	-3.700244	-0.913274	-0.143442
H103	H	-3.499144	-0.976022	-0.089659
H104	H	-3.371469	-0.908306	-0.136959
H105	H	-3.550361	-0.991677	-0.188474
H106	H	-3.668563	-0.871273	-0.094340
H107	H	-3.847197	-0.954681	-0.145877
H108	H	-4.151127	-0.099397	-0.429521
O109	O	-4.439562	-0.097383	-1.016281
C110	C	-4.655124	-0.039981	-1.093579
C111	C	-4.437608	-0.036320	-1.049277
H112	H	-4.653607	0.009375	-1.120280
H113	H	-4.767686	-0.042619	-1.057353
H114	H	-4.705084	-0.089446	-1.135944
H115	H	-4.387457	0.013140	-1.006908
H116	H	-4.325177	-0.033721	-1.085548
H117	H	-3.492597	-0.086606	-0.416487
