data_functionalizedCrystal
_audit_creation_method	'MofGen! by Chris Wilmer'
_symmetry_space_group_name_H-M	'P1'
_symmetry_Int_Tables_number	1
_symmetry_cell_setting	triclinic
loop_
_symmetry_equiv_pos_as_xyz
  x,y,z
_cell_length_a	29.839134
_cell_length_b	19.805405
_cell_length_c	19.805399
_cell_angle_alpha	90.030709
_cell_angle_beta	90.025669
_cell_angle_gamma	90.021271
loop_
_atom_site_label
_atom_site_type_symbol
_atom_site_fract_x
_atom_site_fract_y
_atom_site_fract_z
Zn1	Zn	-0.686783	0.269562	-0.382870
Zn2	Zn	-0.353450	0.602896	-0.049537
Zn3	Zn	-0.020116	0.936229	0.283797
Zn4	Zn	-0.686730	0.382753	-0.269678
Zn5	Zn	-0.353397	0.716087	0.063655
Zn6	Zn	-0.020063	1.049420	0.396988
Zn7	Zn	-0.611661	0.269574	-0.269677
Zn8	Zn	-0.278327	0.602907	0.063656
Zn9	Zn	0.055006	0.936240	0.396989
Zn10	Zn	-0.611633	0.382704	-0.382808
Zn11	Zn	-0.278300	0.716038	-0.049475
Zn12	Zn	0.055034	1.049371	0.283859
O13	O	-0.649202	0.326148	-0.326258
O14	O	-0.315868	0.659482	0.007075
O15	O	0.017465	0.992815	0.340408
O16	O	-0.749643	0.284593	-0.367881
O17	O	-0.416310	0.617926	-0.034548
O18	O	-0.082976	0.951260	0.298785
O19	O	-0.676761	0.367765	-0.174962
O20	O	-0.343428	0.701098	0.158372
O21	O	-0.010095	1.034432	0.491705
O22	O	-0.621660	0.174855	-0.284718
O23	O	-0.288326	0.508189	0.048615
O24	O	0.045007	0.841522	0.381948
O25	O	-0.749604	0.367754	-0.284720
O26	O	-0.416271	0.701087	0.048613
O27	O	-0.082937	1.034421	0.381947
O28	O	-0.676852	0.174847	-0.367880
O29	O	-0.343518	0.508180	-0.034547
O30	O	-0.010185	0.841514	0.298786
O31	O	-0.621608	0.284612	-0.174961
O32	O	-0.288275	0.617946	0.158372
O33	O	0.045058	0.951279	0.491706
O34	O	-0.548790	0.284565	-0.284658
O35	O	-0.215457	0.617898	0.048675
O36	O	0.117877	0.951232	0.382009
O37	O	-0.621612	0.367671	-0.477533
O38	O	-0.288279	0.701004	-0.144199
O39	O	0.045054	1.034337	0.189134
O40	O	-0.548770	0.367682	-0.367774
O41	O	-0.215436	0.701015	-0.034441
O42	O	0.117897	1.034348	0.298892
O43	O	-0.676825	0.284546	-0.477578
O44	O	-0.343491	0.617879	-0.144245
O45	O	-0.010158	0.951212	0.189088
O46	O	-0.676734	0.477463	-0.284660
O47	O	-0.343401	0.810797	0.048674
O48	O	-0.010068	1.144130	0.382007
O49	O	-0.621561	0.477428	-0.367775
O50	O	-0.288228	0.810761	-0.034442
O51	O	0.045106	1.144094	0.298891
C52	C	-0.649151	0.502004	-0.326226
C53	C	-0.315818	0.835338	0.007108
C54	C	0.017516	1.168671	0.340441
C55	C	-0.649171	0.577236	-0.326234
C56	C	-0.315837	0.910570	0.007099
C57	C	0.017496	1.243903	0.340432
C58	C	-0.532479	0.326120	-0.326210
C59	C	-0.199146	0.659453	0.007124
C60	C	0.134188	0.992786	0.340457
C61	C	-0.482545	0.326124	-0.326205
C62	C	-0.149211	0.659457	0.007129
C63	C	0.184122	0.992790	0.340462
C64	C	-0.766380	0.326178	-0.326308
C65	C	-0.433047	0.659511	0.007025
C66	C	-0.099713	0.992844	0.340359
C67	C	-0.816314	0.326190	-0.326329
C68	C	-0.482981	0.659524	0.007004
C69	C	-0.149648	0.992857	0.340338
C70	C	-0.172900	0.369491	-0.369484
C71	C	0.160433	0.702825	-0.036151
C72	C	0.493767	1.036158	0.297183
C73	C	0.014773	0.369510	-0.369514
C74	C	0.348106	0.702844	-0.036181
C75	C	0.681440	1.036177	0.297152
O76	O	0.039039	0.406351	-0.406283
O77	O	0.372372	0.739685	-0.072950
O78	O	0.705705	1.073018	0.260384
N79	N	0.038240	0.326173	-0.326309
N80	N	0.371574	0.659507	0.007024
N81	N	0.704907	0.992840	0.340357
C82	C	0.014787	0.282825	-0.283097
C83	C	0.348120	0.616158	0.050236
C84	C	0.681453	0.949492	0.383570
O85	O	0.039054	0.245960	-0.246354
O86	O	0.372387	0.579293	0.086979
O87	O	0.705720	0.912626	0.420312
C88	C	-0.172885	0.282803	-0.283071
C89	C	0.160448	0.616136	0.050262
C90	C	0.493781	0.949470	0.383596
C91	C	-0.196350	0.326148	-0.326274
C92	C	0.136983	0.659481	0.007060
C93	C	0.470316	0.992815	0.340393
C94	C	-0.196365	0.412832	-0.412684
C95	C	0.136968	0.746165	-0.079351
C96	C	0.470301	1.079499	0.253983
C97	C	-0.243281	0.412830	-0.412673
C98	C	0.090053	0.746163	-0.079340
C99	C	0.423386	1.079496	0.253993
C100	C	-0.266731	0.369486	-0.369463
C101	C	0.066602	0.702819	-0.036130
C102	C	0.399936	1.036153	0.297204
C103	C	-0.243266	0.326145	-0.326263
C104	C	0.090067	0.659479	0.007070
C105	C	0.423401	0.992812	0.340403
C106	C	-0.196338	0.239452	-0.239863
C107	C	0.136995	0.572785	0.093471
C108	C	0.470328	0.906119	0.426804
C109	C	-0.243259	0.239449	-0.239861
C110	C	0.090074	0.572782	0.093472
C111	C	0.423407	0.906116	0.426806
C112	C	-0.266724	0.282794	-0.283064
C113	C	0.066609	0.616127	0.050269
C114	C	0.399942	0.949461	0.383603
C115	C	-0.313632	0.282799	-0.283042
C116	C	0.019702	0.616133	0.050291
C117	C	0.353035	0.949466	0.383624
N118	N	-0.337099	0.326136	-0.326247
N119	N	-0.003766	0.659470	0.007086
N120	N	0.329567	0.992803	0.340420
C121	C	-0.313649	0.369480	-0.369457
C122	C	0.019684	0.702813	-0.036124
C123	C	0.353018	1.036147	0.297209
C124	C	0.113317	0.282841	-0.283113
C125	C	0.446651	0.616174	0.050220
C126	C	0.779984	0.949507	0.383554
C127	C	0.160235	0.282847	-0.283119
C128	C	0.493569	0.616180	0.050215
C129	C	0.826902	0.949513	0.383548
C130	C	0.160218	0.369531	-0.369537
C131	C	0.493551	0.702865	-0.036203
C132	C	0.826885	1.036198	0.297130
C133	C	0.113299	0.369528	-0.369527
C134	C	0.446633	0.702861	-0.036194
C135	C	0.779966	1.036195	0.297139
C136	C	0.089850	0.326178	-0.326318
C137	C	0.423183	0.659511	0.007016
C138	C	0.756517	0.992844	0.340349
C139	C	-0.412175	0.369472	-0.369432
C140	C	-0.078841	0.702805	-0.036098
C141	C	0.254492	1.036138	0.297235
C142	C	-0.459094	0.369467	-0.369415
C143	C	-0.125761	0.702800	-0.036082
C144	C	0.207572	1.036134	0.297251
C145	C	-0.459073	0.282780	-0.283000
C146	C	-0.125740	0.616114	0.050334
C147	C	0.207594	0.949447	0.383667
C148	C	-0.412158	0.282787	-0.283013
C149	C	-0.078824	0.616120	0.050320
C150	C	0.254509	0.949454	0.383653
C151	C	-0.388710	0.326135	-0.326235
C152	C	-0.055376	0.659468	0.007099
C153	C	0.277957	0.992802	0.340432
O154	O	-0.337926	0.245972	-0.246298
O155	O	-0.004593	0.579306	0.087035
O156	O	0.328740	0.912639	0.420369
O157	O	-0.337924	0.406329	-0.406205
O158	O	-0.004590	0.739663	-0.072872
O159	O	0.328743	1.072996	0.260461
C160	C	-0.125985	0.369494	-0.369495
C161	C	0.207349	0.702827	-0.036161
C162	C	0.540682	1.036161	0.297172
C163	C	-0.102520	0.326153	-0.326295
C164	C	0.230814	0.659486	0.007038
C165	C	0.564147	0.992820	0.340372
C166	C	-0.125970	0.282810	-0.283084
C167	C	0.207363	0.616143	0.050249
C168	C	0.540697	0.949476	0.383582
C169	C	-0.055602	0.326159	-0.326300
C170	C	0.277732	0.659493	0.007033
C171	C	0.611065	0.992826	0.340366
C172	C	-0.032151	0.369503	-0.369511
C173	C	0.301182	0.702836	-0.036178
C174	C	0.634515	1.036169	0.297156
C175	C	-0.055619	0.412840	-0.412716
C176	C	0.277714	0.746173	-0.079382
C177	C	0.611048	1.079507	0.253951
C178	C	-0.102534	0.412837	-0.412705
C179	C	0.230799	0.746171	-0.079372
C180	C	0.564132	1.079504	0.253962
C181	C	-0.102502	0.239473	-0.239880
C182	C	0.230831	0.572806	0.093454
C183	C	0.564164	0.906139	0.426787
C184	C	-0.055587	0.239479	-0.239893
C185	C	0.277746	0.572813	0.093440
C186	C	0.611080	0.906146	0.426773
C187	C	-0.032137	0.282823	-0.283104
C188	C	0.301197	0.616156	0.050230
C189	C	0.634530	0.949489	0.383563
C190	C	-0.649221	0.326101	-0.502801
C191	C	-0.315888	0.659435	-0.169468
C192	C	0.017445	0.992768	0.163865
C193	C	-0.649230	0.326081	-0.578033
C194	C	-0.315896	0.659415	-0.244700
C195	C	0.017437	0.992748	0.088633
C196	C	-0.649265	0.149606	-0.326306
C197	C	-0.315931	0.482939	0.007027
C198	C	0.017402	0.816272	0.340361
C199	C	-0.649291	0.074374	-0.326326
C200	C	-0.315958	0.407707	0.007007
C201	C	0.017375	0.741040	0.340340
C202	C	-0.677927	0.612577	-0.283001
C203	C	-0.344594	0.945910	0.050332
C204	C	-0.011261	1.279243	0.383665
C205	C	-0.677946	0.683265	-0.283016
C206	C	-0.344613	1.016599	0.050317
C207	C	-0.011280	1.349932	0.383650
C208	C	-0.649206	0.718612	-0.326261
C209	C	-0.315873	1.051945	0.007072
C210	C	0.017461	1.385279	0.340405
C211	C	-0.620448	0.683267	-0.369499
C212	C	-0.287115	1.016600	-0.036166
C213	C	0.046218	1.349933	0.297168
C214	C	-0.620432	0.612579	-0.369487
C215	C	-0.287098	0.945913	-0.036154
C216	C	0.046235	1.279246	0.297180
C217	C	-0.620514	0.968340	-0.369549
C218	C	-0.287181	1.301673	-0.036216
C219	C	0.046152	1.635007	0.297117
C220	C	-0.620532	1.039032	-0.369557
C221	C	-0.287199	1.372365	-0.036223
C222	C	0.046134	1.705699	0.297110
C223	C	-0.678029	1.039026	-0.283078
C224	C	-0.344696	1.372359	0.050255
C225	C	-0.011362	1.705692	0.383588
C226	C	-0.678013	0.968338	-0.283066
C227	C	-0.344679	1.301672	0.050267
C228	C	-0.011346	1.635005	0.383600
C229	C	-0.649257	0.932999	-0.326306
C230	C	-0.315923	1.266333	0.007027
C231	C	0.017410	1.599666	0.340360
C232	C	-0.649237	0.856351	-0.326291
C233	C	-0.315903	1.189684	0.007043
C234	C	0.017430	1.523018	0.340376
C235	C	-0.649223	0.795259	-0.326274
C236	C	-0.315890	1.128592	0.007059
C237	C	0.017443	1.461926	0.340392
C238	C	-0.620520	0.282780	-0.613376
C239	C	-0.287186	0.616113	-0.280043
C240	C	0.046147	0.949446	0.053290
C241	C	-0.620526	0.282767	-0.684065
C242	C	-0.287193	0.616100	-0.350732
C243	C	0.046141	0.949433	-0.017398
C244	C	-0.649245	0.326052	-0.719409
C245	C	-0.315911	0.659385	-0.386076
C246	C	0.017422	0.992719	-0.052742
C247	C	-0.677956	0.369359	-0.684061
C248	C	-0.344623	0.702692	-0.350727
C249	C	-0.011289	1.036025	-0.017394
C250	C	-0.677947	0.369375	-0.613374
C251	C	-0.344614	0.702708	-0.280040
C252	C	-0.011280	1.036041	0.053293
C253	C	-0.677992	0.369295	-0.969134
C254	C	-0.344658	0.702629	-0.635801
C255	C	-0.011325	1.035962	-0.302468
C256	C	-0.677999	0.369274	-1.039826
C257	C	-0.344666	0.702608	-0.706493
C258	C	-0.011332	1.035941	-0.373160
C259	C	-0.620570	0.282687	-1.039826
C260	C	-0.287237	0.616020	-0.706492
C261	C	0.046096	0.949354	-0.373159
C262	C	-0.620562	0.282703	-0.969138
C263	C	-0.287228	0.616037	-0.635805
C264	C	0.046105	0.949370	-0.302472
C265	C	-0.649271	0.326012	-0.933796
C266	C	-0.315938	0.659345	-0.600463
C267	C	0.017396	0.992679	-0.267130
C268	C	-0.649263	0.326027	-0.857148
C269	C	-0.315930	0.659360	-0.523815
C270	C	0.017403	0.992693	-0.190481
C271	C	-0.649255	0.326035	-0.796056
C272	C	-0.315922	0.659368	-0.462723
C273	C	0.017412	0.992701	-0.129389
C274	C	-0.649208	0.326146	-0.150402
C275	C	-0.315875	0.659480	0.182931
C276	C	0.017459	0.992813	0.516264
C277	C	-0.649287	0.325976	-0.075171
C278	C	-0.315953	0.659309	0.258162
C279	C	0.017380	0.992642	0.591496
H280	H	-0.478197	0.404766	-0.404597
H281	H	-0.144864	0.738100	-0.071263
H282	H	0.188469	1.071433	0.262070
Br283	Br	-0.716978	0.731225	-0.224344
Br284	Br	-0.383644	1.064558	0.108989
Br285	Br	-0.050311	1.397892	0.442322
H286	H	0.179337	0.247558	-0.247932
H287	H	0.512670	0.580891	0.085402
H288	H	0.846003	0.914224	0.418735
H289	H	-0.393089	0.404768	-0.404628
H290	H	-0.059756	0.738101	-0.071295
H291	H	0.273578	1.071435	0.262039
H292	H	0.094229	0.247539	-0.247923
H293	H	0.427562	0.580872	0.085410
H294	H	0.760896	0.914205	0.418743
H295	H	-0.597146	0.247508	-0.712838
H296	H	-0.263812	0.580842	-0.379505
H297	H	0.069521	0.914175	-0.046172
H298	H	-0.701414	0.939561	-0.247850
H299	H	-0.368080	1.272895	0.085483
H300	H	-0.034747	1.606228	0.418817
Br301	Br	-0.717057	1.086989	-0.224396
Br302	Br	-0.383724	1.420323	0.108937
Br303	Br	-0.050391	1.753656	0.442270
Br304	Br	-0.023784	0.471667	-0.471353
Br305	Br	0.309549	0.805000	-0.138020
Br306	Br	0.642883	1.138334	0.195313
H307	H	-0.701329	0.583802	-0.247783
H308	H	-0.367995	0.917135	0.085550
H309	H	-0.034662	1.250469	0.418883
H310	H	-0.036486	0.204183	-0.204706
H311	H	0.296848	0.537517	0.128627
H312	H	0.630181	0.870850	0.461961
H313	H	-0.597136	0.247528	-0.584605
H314	H	-0.263803	0.580861	-0.251271
H315	H	0.069530	0.914194	0.082062
Br316	Br	-0.134373	0.471666	-0.471340
Br317	Br	0.198961	0.805000	-0.138007
Br318	Br	0.532294	1.138333	0.195327
H319	H	-0.121591	0.204176	-0.204692
H320	H	0.211742	0.537510	0.128642
H321	H	0.545076	0.870843	0.461975
H322	H	-0.597129	1.067809	-0.404777
H323	H	-0.263796	1.401143	-0.071444
H324	H	0.069538	1.734476	0.261890
Br325	Br	-0.581489	0.920388	-0.428232
Br326	Br	-0.248155	1.253722	-0.094899
Br327	Br	0.085178	1.587055	0.238434
H328	H	-0.597049	0.712052	-0.404713
H329	H	-0.263716	1.045385	-0.071380
H330	H	0.069617	1.378718	0.261954
H331	H	0.094197	0.404822	-0.404708
H332	H	0.427531	0.738156	-0.071375
H333	H	0.760864	1.071489	0.261959
H334	H	-0.597016	0.583806	-0.404693
H335	H	-0.263682	0.917139	-0.071359
H336	H	0.069651	1.250473	0.261974
Br337	Br	-0.581588	0.223953	-0.921175
Br338	Br	-0.248254	0.557286	-0.587842
Br339	Br	0.085079	0.890619	-0.254508
Br340	Br	-0.716909	0.428149	-0.565407
Br341	Br	-0.383575	0.761482	-0.232073
Br342	Br	-0.050242	1.094815	0.101260
H343	H	-0.597193	0.247425	-1.068610
H344	H	-0.263859	0.580758	-0.735276
H345	H	0.069474	0.914092	-0.401943
Br346	Br	-0.716977	0.428023	-1.087793
Br347	Br	-0.383644	0.761356	-0.754460
Br348	Br	-0.050311	1.094690	-0.421127
Br349	Br	-0.716957	0.428067	-0.921179
Br350	Br	-0.383624	0.761401	-0.587846
Br351	Br	-0.050290	1.094734	-0.254512
Br352	Br	-0.716928	0.428111	-0.732027
Br353	Br	-0.383595	0.761444	-0.398693
Br354	Br	-0.050261	1.094777	-0.065360
H355	H	-0.262382	0.448124	-0.447855
H356	H	0.070952	0.781457	-0.114522
H357	H	0.404285	1.114791	0.218812
Br358	Br	0.192052	0.428351	-0.428183
Br359	Br	0.525386	0.761684	-0.094850
Br360	Br	0.858719	1.095017	0.238483
H361	H	-0.177241	0.204158	-0.204680
H362	H	0.156092	0.537491	0.128653
H363	H	0.489426	0.870824	0.461986
Br364	Br	-0.380311	0.223975	-0.224368
Br365	Br	-0.046978	0.557308	0.108966
Br366	Br	0.286356	0.890641	0.442299
Br367	Br	-0.275081	0.180611	-0.181218
Br368	Br	0.058252	0.513944	0.152115
Br369	Br	0.391586	0.847278	0.485448
H370	H	-0.177277	0.448128	-0.447875
H371	H	0.156056	0.781461	-0.114541
H372	H	0.489390	1.114794	0.218792
Br373	Br	-0.490908	0.223960	-0.224359
Br374	Br	-0.157574	0.557294	0.108974
Br375	Br	0.175759	0.890627	0.442307
