data_functionalizedCrystal
_audit_creation_method	'MofGen! by Chris Wilmer'
_symmetry_space_group_name_H-M	'P1'
_symmetry_Int_Tables_number	1
_symmetry_cell_setting	triclinic
loop_
_symmetry_equiv_pos_as_xyz
  x,y,z
_cell_length_a	29.917948
_cell_length_b	29.917021
_cell_length_c	29.913391
_cell_angle_alpha	60.005297
_cell_angle_beta	60.010472
_cell_angle_gamma	59.993667
loop_
_atom_site_label
_atom_site_type_symbol
_atom_site_fract_x
_atom_site_fract_y
_atom_site_fract_z
O1	O	0.061938	-0.653075	0.546110
O2	O	0.023328	-0.508466	0.440017
O3	O	0.114898	-0.599963	0.439941
O4	O	-0.029633	-0.561578	0.546186
O5	O	0.145278	-0.569587	0.470242
O6	O	0.053708	-0.478090	0.470318
O7	O	0.092318	-0.622699	0.576411
Zn8	Zn	0.077836	-0.545572	0.528175
Zn9	Zn	0.037809	-0.585593	0.488253
O10	O	0.000747	-0.531202	0.576487
N11	N	0.105154	-0.518262	0.555424
N12	N	0.010496	-0.612908	0.461004
C13	C	0.164136	-0.309209	0.614352
C14	C	0.164251	-0.459335	0.764424
C15	C	0.164150	-0.459313	0.614341
C16	C	0.314282	-0.459305	0.614278
C17	C	0.180666	-0.358742	0.630849
C18	C	0.180732	-0.442815	0.714891
C19	C	0.264747	-0.442797	0.630809
C20	C	0.180676	-0.442802	0.630843
C21	C	0.143097	-0.246161	0.593354
C22	C	0.143120	-0.480326	0.593337
C23	C	0.201706	-0.421790	0.651848
C24	C	0.405963	-0.443499	0.565998
C25	C	0.463273	-0.462598	0.546874
C26	C	0.463297	-0.555329	0.582235
C27	C	0.405988	-0.536228	0.601360
C28	C	0.156905	-0.217495	0.537012
C29	C	0.137776	-0.160180	0.517926
C30	C	0.091035	-0.160201	0.611524
C31	C	0.110164	-0.217516	0.630611
C32	C	0.086772	-0.466488	0.607209
C33	C	0.067659	-0.485590	0.588108
C34	C	0.161236	-0.532368	0.541277
C35	C	0.180352	-0.513266	0.560371
C36	C	0.086942	-0.466529	0.856152
C37	C	0.067877	-0.485647	0.913465
C38	C	0.161489	-0.532436	0.913415
C39	C	0.180552	-0.513318	0.856101
C40	C	0.143277	-0.480363	0.827471
C41	C	0.377323	-0.480313	0.593239
C42	C	-0.111377	-0.650681	0.422736
C43	C	-0.027364	-0.650787	0.422929
C44	C	-0.048335	-0.671770	0.401835
C45	C	-0.064214	-0.763416	0.450041
C46	C	-0.045160	-0.820731	0.469172
C47	C	0.047573	-0.820841	0.433980
C48	C	0.028517	-0.763527	0.414847
C49	C	-0.140115	-0.664483	0.479060
C50	C	-0.197425	-0.645309	0.498058
C51	C	-0.197256	-0.598535	0.404405
C52	C	-0.139946	-0.617709	0.385407
C53	C	-0.041168	-0.594444	0.409067
C54	C	-0.022104	-0.575374	0.428250
C55	C	0.024568	-0.668986	0.475143
C56	C	0.005504	-0.688059	0.455967
C57	C	-0.041000	-0.594453	0.310105
C58	C	-0.021803	-0.575386	0.252792
C59	C	0.024951	-0.669004	0.252854
C60	C	0.005755	-0.688070	0.310168
C61	C	-0.027222	-0.650793	0.338792
C62	C	-0.027377	-0.734817	0.422881
N63	N	0.491125	-0.518235	0.555255
O64	O	0.678406	-0.527360	0.420422
O65	O	0.678588	-0.633782	0.564887
O66	O	0.678516	-0.633539	0.473265
O67	O	0.678478	-0.527602	0.512044
O68	O	0.587469	-0.603251	0.503685
O69	O	0.587541	-0.603493	0.595307
O70	O	0.587359	-0.497071	0.450842
Zn71	Zn	0.572994	-0.545473	0.527905
Zn72	Zn	0.692953	-0.585380	0.487825
O73	O	0.587431	-0.497313	0.542465
N74	N	0.774821	-0.612618	0.460470
N75	N	0.105125	-0.132348	0.555445
O76	O	-0.029633	0.055031	0.546198
O77	O	0.114837	0.055047	0.439777
O78	O	0.023189	0.055024	0.440050
O79	O	0.062016	0.055054	0.545925
O80	O	0.053572	-0.036031	0.470398
O81	O	0.145220	-0.036008	0.470125
O82	O	0.000750	-0.036024	0.576546
Zn83	Zn	0.077809	-0.050473	0.528154
Zn84	Zn	0.037778	0.069496	0.488169
O85	O	0.092399	-0.036001	0.576273
N86	N	0.010456	0.151371	0.460879
N87	N	0.105414	-0.518315	0.941279
O88	O	0.096182	-0.653057	1.128644
O89	O	-0.010215	-0.508539	1.128670
O90	O	-0.009968	-0.600172	1.128636
O91	O	0.095935	-0.561424	1.128678
O92	O	0.020367	-0.569808	1.037586
O93	O	0.020121	-0.478175	1.037620
O94	O	0.126517	-0.622693	1.037594
Zn95	Zn	0.078135	-0.545613	1.023151
Zn96	Zn	0.038167	-0.585619	1.143113
O97	O	0.126270	-0.531061	1.037628
N98	N	0.010887	-0.612923	1.224985
C99	C	0.034899	-0.475056	0.440551
C100	C	0.148298	-0.588365	0.440456
C101	C	0.080746	-0.656109	0.575876
C102	C	-0.032653	-0.542801	0.575971
C103	C	0.633086	-0.633292	0.598298
C104	C	0.632998	-0.632993	0.484834
C105	C	0.632857	-0.497559	0.417433
C106	C	0.632949	-0.497860	0.530895
C107	C	0.148191	0.009634	0.440259
C108	C	0.034733	0.009493	0.440634
C109	C	-0.032641	0.009502	0.576027
C110	C	0.080854	0.009529	0.575690
C111	C	-0.009699	-0.475150	1.083148
C112	C	-0.009388	-0.588620	1.083088
C113	C	0.126001	-0.656082	1.083116
C114	C	0.125697	-0.542605	1.083155
H115	H	0.022003	-0.474373	0.936811
C116	C	0.632988	-0.677290	0.473677
C117	C	0.632919	-0.657432	0.420244
C118	C	0.632902	-0.698220	0.409950
H119	H	0.664753	-0.708436	0.477689
H120	H	0.601249	-0.687279	0.498926
H121	H	0.664655	-0.647451	0.395003
H122	H	0.601156	-0.626292	0.416220
H123	H	0.601163	-0.708208	0.435198
H124	H	0.664668	-0.729363	0.413964
H125	H	0.632850	-0.684750	0.373697
C126	C	0.046321	-0.430629	0.642899
C127	C	0.013428	-0.382904	0.614130
C128	C	-0.023838	-0.349854	0.646989
H129	H	0.023926	-0.450007	0.675318
H130	H	0.065753	-0.421197	0.652278
H131	H	-0.006002	-0.392337	0.604759
H132	H	0.035808	-0.363512	0.581714
H133	H	-0.004406	-0.340422	0.656367
H134	H	-0.046229	-0.369237	0.679406
H135	H	-0.046156	-0.317467	0.627472
C136	C	0.203599	-0.599276	0.395908
C137	C	0.196396	-0.593187	0.350139
C138	C	0.247327	-0.603242	0.309094
H139	H	0.220054	-0.573990	0.385863
H140	H	0.226577	-0.635523	0.409156
H141	H	0.173426	-0.556946	0.336893
H142	H	0.179950	-0.618472	0.360166
H143	H	0.270306	-0.639488	0.322342
H144	H	0.263778	-0.577954	0.299053
H145	H	0.242448	-0.599116	0.278037
C146	C	0.091834	-0.711543	0.620229
C147	C	0.145264	-0.745229	0.600451
C148	C	0.155494	-0.796300	0.641290
H149	H	0.087788	-0.706875	0.651369
H150	H	0.066579	-0.728010	0.630202
H151	H	0.170511	-0.728765	0.590486
H152	H	0.149322	-0.749912	0.569316
H153	H	0.130240	-0.812767	0.651263
H154	H	0.151446	-0.791627	0.672427
H155	H	0.191745	-0.819164	0.627875
H156	H	0.226235	-0.524529	0.549071
H157	H	-0.074131	0.009496	0.609437
C158	C	-0.053756	-0.599546	1.082935
C159	C	-0.068330	-0.562228	1.036083
C160	C	-0.109206	-0.572271	1.035928
H161	H	-0.040434	-0.635770	1.082887
H162	H	-0.084927	-0.595438	1.114659
H163	H	-0.037165	-0.566341	1.004367
H164	H	-0.081662	-0.526000	1.036122
H165	H	-0.140376	-0.568163	1.067652
H166	H	-0.095879	-0.608496	1.035881
H167	H	-0.119103	-0.546950	1.004142
C168	C	0.092053	0.009499	0.619986
C169	C	0.145505	0.009491	0.600129
C170	C	0.155844	0.009452	0.640923
H171	H	0.066850	0.041240	0.629994
H172	H	0.088020	-0.022270	0.651120
H173	H	0.149533	0.041257	0.569005
H174	H	0.170720	-0.022247	0.590125
H175	H	0.151812	-0.022317	0.672057
H176	H	0.130638	0.041193	0.650928
H177	H	0.192114	0.009442	0.627458
C178	C	0.170466	-0.711468	1.083131
C179	C	0.150846	-0.745259	1.083125
C180	C	0.191789	-0.796286	1.083145
H181	H	0.201596	-0.706748	1.051391
H182	H	0.180412	-0.727884	1.114898
H183	H	0.140908	-0.728846	1.051362
H184	H	0.119722	-0.749995	1.114863
H185	H	0.201735	-0.812703	1.114912
H186	H	0.222916	-0.791561	1.051404
H187	H	0.178481	-0.819221	1.083146
C188	C	0.023766	0.009393	0.396255
C189	C	0.061071	-0.037448	0.381658
C190	C	0.050993	-0.037557	0.340771
H191	H	-0.012457	0.009358	0.409576
H192	H	0.027860	0.041128	0.365093
H193	H	0.056972	-0.069174	0.412814
H194	H	0.097298	-0.037422	0.368328
H195	H	0.055087	-0.005822	0.309609
H196	H	0.014769	-0.037591	0.354097
H197	H	0.076305	-0.069335	0.330859
C198	C	0.170080	-0.531487	1.083050
C199	C	0.182526	-0.487465	1.036207
C200	C	0.223415	-0.477212	1.036087
H201	H	0.157494	-0.522764	1.114769
H202	H	0.201966	-0.563117	1.083014
H203	H	0.150646	-0.455842	1.036247
H204	H	0.195121	-0.496177	1.004480
H205	H	0.255301	-0.508842	1.036052
H206	H	0.210824	-0.468491	1.067808
H207	H	0.231868	-0.447346	1.004302
C208	C	0.046382	-0.430775	0.825169
C209	C	-0.007035	-0.422762	0.862556
C210	C	-0.044411	-0.389838	0.834034
H211	H	0.051799	-0.396390	0.802813
H212	H	0.051841	-0.448269	0.802823
H213	H	-0.012491	-0.405267	0.884893
H214	H	-0.012469	-0.457138	0.884913
H215	H	-0.038953	-0.407332	0.811688
H216	H	-0.038989	-0.355455	0.811679
H217	H	-0.080658	-0.384401	0.859397
C218	C	-0.054181	-0.419782	1.083185
C219	C	-0.034570	-0.385999	1.083215
C220	C	-0.075533	-0.334992	1.083257
H221	H	-0.064161	-0.403328	1.051440
H222	H	-0.085291	-0.424553	1.114946
H223	H	-0.003469	-0.381226	1.051457
H224	H	-0.024593	-0.402435	1.114958
H225	H	-0.106643	-0.339763	1.115018
H226	H	-0.085510	-0.318543	1.051511
H227	H	-0.062234	-0.312066	1.083282
C228	C	-0.087975	-0.531829	0.620479
C229	C	-0.097642	-0.487835	0.633005
C230	C	-0.148595	-0.477718	0.674009
H231	H	-0.115875	-0.523135	0.607968
H232	H	-0.088075	-0.563505	0.652315
H233	H	-0.097547	-0.456166	0.601176
H234	H	-0.069754	-0.496518	0.645525
H235	H	-0.148695	-0.509394	0.705845
H236	H	-0.176491	-0.469025	0.661494
H237	H	-0.155159	-0.447871	0.682517
C238	C	0.202046	-0.568229	0.944401
C239	C	0.255464	-0.576265	0.907016
C240	C	0.292838	-0.609247	0.935540
H241	H	0.196627	-0.550784	0.966765
H242	H	0.196587	-0.602605	0.966739
H243	H	0.260920	-0.541896	0.884687
H244	H	0.260900	-0.593717	0.884651
H245	H	0.287379	-0.643623	0.957878
H246	H	0.287414	-0.591798	0.957904
H247	H	0.329086	-0.614708	0.910179
H248	H	0.226428	-0.524588	0.832752
C249	C	0.201750	-0.568108	0.505472
C250	C	0.255188	-0.576127	0.497405
C251	C	0.292521	-0.609040	0.464418
H252	H	0.196330	-0.602492	0.522923
H253	H	0.196252	-0.550602	0.471108
H254	H	0.260684	-0.593634	0.531763
H255	H	0.260626	-0.541753	0.479947
H256	H	0.287023	-0.591534	0.430054
H257	H	0.287095	-0.643421	0.481873
H258	H	0.328782	-0.614481	0.458937
C259	C	-0.228656	-0.660186	0.559209
C260	C	-0.261547	-0.612315	0.572880
C261	C	-0.290317	-0.626001	0.629207
H262	H	-0.251065	-0.679575	0.568616
H263	H	-0.203449	-0.682547	0.578737
H264	H	-0.286751	-0.589963	0.553358
H265	H	-0.239152	-0.592920	0.563486
H266	H	-0.265110	-0.648362	0.648736
H267	H	-0.312723	-0.645391	0.638609
H268	H	-0.312633	-0.593524	0.638491
H269	H	0.632798	-0.464146	0.375944
H270	H	0.632941	-0.464583	0.539193
H271	H	0.021776	-0.474310	0.599390
H272	H	0.189596	0.009891	0.406765
C273	C	0.192751	-0.248623	0.496586
C274	C	0.243358	-0.281511	0.504780
C275	C	0.276396	-0.310191	0.467546
H276	H	0.175325	-0.271030	0.502067
H277	H	0.198269	-0.223358	0.460287
H278	H	0.237839	-0.306773	0.541070
H279	H	0.260799	-0.259118	0.499295
H280	H	0.281913	-0.284926	0.431247
H281	H	0.258965	-0.332594	0.473030
H282	H	0.310737	-0.332504	0.473097
H283	H	0.486634	-0.600858	0.588843
C284	C	0.374994	-0.576284	0.630900
C285	C	0.412369	-0.629336	0.633901
C286	C	0.383838	-0.666251	0.661103
H287	H	0.352654	-0.574897	0.666830
H288	H	0.352632	-0.566726	0.611380
H289	H	0.434722	-0.638891	0.653422
H290	H	0.434711	-0.630740	0.597980
H291	H	0.361476	-0.656693	0.641582
H292	H	0.361499	-0.664859	0.697030
H293	H	0.409193	-0.702250	0.663137
H294	H	0.633132	-0.666701	0.639790
H295	H	0.486593	-0.432619	0.524694
H296	H	0.382624	-0.397967	0.559385
H297	H	0.149018	-0.136838	0.472047
C298	C	0.020573	-0.749253	0.471048
C299	C	0.053450	-0.777814	0.504073
C300	C	0.067350	-0.834186	0.517968
H301	H	-0.011806	-0.758680	0.490457
H302	H	0.040089	-0.758694	0.438657
H303	H	0.033933	-0.768378	0.536459
H304	H	0.085835	-0.768404	0.484674
H305	H	0.086866	-0.843627	0.485577
H306	H	0.034968	-0.843607	0.537376
H307	H	0.089662	-0.853572	0.540373
C308	C	0.055268	-0.129197	0.652061
C309	C	0.047266	-0.166571	0.705490
C310	C	0.014314	-0.138032	0.742847
H311	H	0.072720	-0.106831	0.646617
H312	H	0.020884	-0.106855	0.646608
H313	H	0.081644	-0.188902	0.710940
H314	H	0.029808	-0.188937	0.710951
H315	H	-0.020070	-0.115690	0.737394
H316	H	0.031769	-0.115667	0.737398
H317	H	0.008876	-0.163385	0.779102
H318	H	-0.033030	-0.529506	0.229442
C319	C	0.095303	-0.248690	0.691772
C320	C	0.143184	-0.281580	0.705425
C321	C	0.129522	-0.310304	0.761763
H322	H	0.072981	-0.223468	0.711273
H323	H	0.075884	-0.271096	0.701225
H324	H	0.162595	-0.259176	0.695978
H325	H	0.165512	-0.306812	0.685938
H326	H	0.110103	-0.332710	0.771216
H327	H	0.107200	-0.285078	0.781260
H328	H	0.162007	-0.332627	0.771033
H329	H	-0.067855	-0.564093	0.333408
H330	H	0.051792	-0.699362	0.229554
H331	H	-0.220518	-0.571693	0.374008
C332	C	0.020639	-0.749250	0.341285
C333	C	0.001170	-0.772800	0.327285
C334	C	0.014863	-0.829155	0.355944
H335	H	0.059292	-0.765462	0.331989
H336	H	0.004469	-0.755291	0.379523
H337	H	0.017341	-0.766763	0.289056
H338	H	-0.037483	-0.756604	0.336582
H339	H	-0.001306	-0.835195	0.394181
H340	H	0.053517	-0.845361	0.346645
H341	H	0.001651	-0.845140	0.346452
C342	C	-0.037109	-0.514179	0.413105
C343	C	-0.069952	-0.485618	0.380046
C344	C	-0.083772	-0.429246	0.366072
H345	H	-0.056625	-0.504670	0.445450
H346	H	-0.004684	-0.504820	0.393695
H347	H	-0.102372	-0.494973	0.399456
H348	H	-0.050447	-0.495110	0.347694
H349	H	-0.051348	-0.419888	0.346662
H350	H	-0.103286	-0.419743	0.398419
H351	H	-0.106054	-0.409861	0.343636
H352	H	-0.067926	-0.564092	0.382165
H353	H	0.058518	-0.740243	0.392731
C354	C	0.108279	-0.851990	0.425149
C355	C	0.137672	-0.838103	0.368964
C356	C	0.193594	-0.866791	0.360806
H357	H	0.120179	-0.842640	0.442468
H358	H	0.114377	-0.890226	0.440401
H359	H	0.131578	-0.799876	0.353719
H360	H	0.125789	-0.847454	0.351633
H361	H	0.199691	-0.905027	0.376059
H362	H	0.205488	-0.857439	0.378129
H363	H	0.213543	-0.857376	0.322685
C364	C	-0.085240	-0.851683	0.498632
C365	C	-0.111854	-0.837716	0.463734
C366	C	-0.148802	-0.866199	0.490880
H367	H	-0.065984	-0.889943	0.508911
H368	H	-0.111516	-0.842208	0.530438
H369	H	-0.085582	-0.847194	0.431938
H370	H	-0.131121	-0.799460	0.453452
H371	H	-0.175078	-0.856724	0.522686
H372	H	-0.129541	-0.904458	0.501158
H373	H	-0.166867	-0.856722	0.467207
C374	C	-0.124871	-0.732168	0.458639
C375	C	-0.132450	-0.699261	0.407764
C376	C	-0.188319	-0.670458	0.415660
H377	H	-0.144147	-0.757342	0.477525
H378	H	-0.138349	-0.709767	0.479614
H379	H	-0.118979	-0.721661	0.386798
H380	H	-0.113187	-0.674077	0.388871
H381	H	-0.201797	-0.648056	0.436634
H382	H	-0.207591	-0.695636	0.434546
H383	H	-0.193468	-0.648124	0.381143
C384	C	-0.108768	-0.602804	0.324245
C385	C	-0.122654	-0.622277	0.300597
C386	C	-0.093938	-0.608564	0.244258
H387	H	-0.118093	-0.564146	0.308061
H388	H	-0.070540	-0.618962	0.318255
H389	H	-0.160874	-0.606118	0.306583
H390	H	-0.113327	-0.660935	0.316765
H391	H	-0.055710	-0.624722	0.238268
H392	H	-0.103266	-0.569905	0.228079
H393	H	-0.103352	-0.621779	0.228206
C394	C	-0.109165	-0.700344	0.519646
C395	C	-0.123175	-0.748016	0.552511
C396	C	-0.094681	-0.781061	0.589911
H397	H	-0.070909	-0.709850	0.500334
H398	H	-0.118597	-0.680917	0.542043
H399	H	-0.113740	-0.767440	0.530117
H400	H	-0.161426	-0.738527	0.571835
H401	H	-0.104113	-0.761633	0.612309
H402	H	-0.056426	-0.790562	0.570594
H403	H	-0.104187	-0.813407	0.612218
C404	C	0.023791	-0.419643	0.396178
C405	C	-0.029649	-0.385967	0.415947
C406	C	-0.039903	-0.334919	0.375084
H407	H	0.049019	-0.403134	0.386166
H408	H	0.027848	-0.424369	0.365062
H409	H	-0.033700	-0.381239	0.447054
H410	H	-0.054888	-0.402458	0.425955
H411	H	-0.035847	-0.339645	0.343967
H412	H	-0.014672	-0.318415	0.365075
H413	H	-0.076164	-0.312065	0.388490
H414	H	0.051334	-0.699339	0.502037
