data_functionalizedCrystal
_audit_creation_method	'MofGen! by Chris Wilmer'
_symmetry_space_group_name_H-M	'P1'
_symmetry_Int_Tables_number	1
_symmetry_cell_setting	triclinic
loop_
_symmetry_equiv_pos_as_xyz
  x,y,z
_cell_length_a	19.805407
_cell_length_b	16.625545
_cell_length_c	19.805399
_cell_angle_alpha	89.974296
_cell_angle_beta	90.019573
_cell_angle_gamma	89.975963
loop_
_atom_site_label
_atom_site_type_symbol
_atom_site_fract_x
_atom_site_fract_y
_atom_site_fract_z
Zn1	Zn	1.034747	0.321020	0.382728
Zn2	Zn	1.534747	0.821020	0.882728
Zn3	Zn	1.034666	0.455857	0.269544
Zn4	Zn	1.534666	0.955857	0.769544
Zn5	Zn	0.921561	0.321043	0.269553
Zn6	Zn	1.421561	0.821043	0.769553
Zn7	Zn	0.921530	0.455815	0.382691
Zn8	Zn	1.421530	0.955815	0.882691
O9	O	0.978126	0.388434	0.326129
O10	O	1.478126	0.888434	0.826129
O11	O	1.129453	0.338915	0.367726
O12	O	1.629453	0.838915	0.867726
O13	O	1.019642	0.438001	0.174829
O14	O	1.519642	0.938001	0.674829
O15	O	0.936623	0.208207	0.284586
O16	O	1.436623	0.708207	0.784586
O17	O	1.129394	0.437980	0.284570
O18	O	1.629394	0.937980	0.784570
O19	O	1.019780	0.208191	0.367735
O20	O	1.519780	0.708191	0.867735
O21	O	0.936545	0.338953	0.174835
O22	O	1.436545	0.838953	0.674835
O23	O	0.826841	0.338912	0.284549
O24	O	1.326841	0.838912	0.784549
O25	O	0.936569	0.437907	0.477412
O26	O	1.436569	0.937907	0.977412
O27	O	0.826817	0.437928	0.367671
O28	O	1.326817	0.937928	0.867671
O29	O	1.019749	0.338874	0.477440
O30	O	1.519749	0.838874	0.977440
O31	O	1.019612	0.568684	0.284533
O32	O	1.519612	1.068684	0.784533
O33	O	0.936491	0.568653	0.367662
O34	O	1.436491	1.068653	0.867662
C35	C	0.802270	0.388418	0.326107
C36	C	1.302270	0.888418	0.826107
C37	C	0.727038	0.388431	0.326114
C38	C	1.227038	0.888431	0.826114
C39	C	0.978057	0.597925	0.326107
C40	C	1.478057	1.097925	0.826107
C41	C	0.978090	0.687546	0.326121
C42	C	1.478090	1.187546	0.826121
C43	C	0.691699	0.440067	0.369325
C44	C	1.191699	0.940067	0.869325
C45	C	0.621011	0.440068	0.369335
C46	C	1.121011	0.940068	0.869335
C47	C	0.585663	0.388437	0.326129
C48	C	1.085663	0.888437	0.826129
C49	C	0.621006	0.336796	0.282916
C50	C	1.121006	0.836796	0.782916
C51	C	0.691693	0.336791	0.282910
C52	C	1.191693	0.836791	0.782910
C53	C	0.335933	0.336814	0.282938
C54	C	0.835933	0.836814	0.782938
C55	C	0.265241	0.336825	0.282946
C56	C	0.765241	0.836825	0.782946
C57	C	0.265251	0.440091	0.369363
C58	C	0.765251	0.940091	0.869363
C59	C	0.335938	0.440086	0.369357
C60	C	0.835938	0.940086	0.869357
C61	C	0.371275	0.388442	0.326147
C62	C	0.871275	0.888442	0.826147
C63	C	0.447924	0.388440	0.326138
C64	C	0.947924	0.888440	0.826138
C65	C	0.509015	0.388443	0.326134
C66	C	1.009015	0.888443	0.826134
C67	C	0.978200	1.015721	0.326202
C68	C	1.478200	1.515721	0.826202
C69	C	0.978167	0.924413	0.326181
C70	C	1.478167	1.424413	0.826181
C71	C	0.978144	0.851636	0.326161
C72	C	1.478144	1.351636	0.826161
C73	C	0.978113	0.760322	0.326141
C74	C	1.478113	1.260322	0.826141
C75	C	1.154669	0.388450	0.326151
C76	C	1.654669	0.888450	0.826151
C77	C	1.229901	0.388457	0.326161
C78	C	1.729901	0.888457	0.826161
C79	C	0.978164	0.388383	0.502672
C80	C	1.478164	0.888383	1.002672
C81	C	0.978180	0.388361	0.577904
C82	C	1.478180	0.888361	1.077904
C83	C	0.978208	1.178125	0.326174
C84	C	1.478208	1.678125	0.826174
C85	C	0.978228	1.088504	0.326213
C86	C	1.478228	1.588504	0.826213
C87	C	0.978127	0.388426	0.150273
C88	C	1.478127	0.888426	0.650273
C89	C	0.978242	0.388221	0.075041
C90	C	1.478242	0.888221	0.575041
C91	C	1.021493	0.336792	0.613264
C92	C	1.521493	0.836792	1.113264
C93	C	1.021500	0.336769	0.683952
C94	C	1.521500	0.836769	1.183952
C95	C	0.978197	0.388319	0.719280
C96	C	1.478197	0.888319	1.219280
C97	C	0.934879	0.439890	0.683915
C98	C	1.434879	0.939890	1.183915
C99	C	0.934870	0.439909	0.613228
C100	C	1.434870	0.939909	1.113228
C101	C	0.934918	0.439815	0.968988
C102	C	1.434918	0.939815	1.468988
C103	C	0.934932	0.439794	1.039680
C104	C	1.434932	0.939794	1.539680
C105	C	1.021548	0.336675	1.039713
C106	C	1.521548	0.836675	1.539713
C107	C	1.021538	0.336694	0.969025
C108	C	1.521538	0.836694	1.469025
C109	C	0.978218	0.388262	0.933667
C110	C	1.478218	0.888262	1.433667
C111	C	0.978210	0.388285	0.857019
C112	C	1.478210	0.888285	1.357019
C113	C	0.978208	0.388300	0.795927
C114	C	1.478208	0.888300	1.295927
H115	H	0.720475	0.482113	0.404506
H116	H	1.220475	0.982113	0.904506
H117	H	0.899667	0.481774	1.068442
H118	H	1.399667	0.981774	1.568442
H119	H	1.056819	0.294683	1.068510
H120	H	1.556819	0.794683	1.568510
F121	F	0.729303	0.281832	0.236920
F122	F	1.229303	0.781832	0.736920
H123	H	0.364696	0.294769	0.247748
H124	H	0.864696	0.794769	0.747748
F125	F	0.888813	0.494698	0.931366
F126	F	1.388813	0.994698	1.431366
F127	F	1.067629	0.281830	0.931431
F128	F	1.567629	0.781830	1.431431
F129	F	0.583384	0.281842	0.236937
F130	F	1.083384	0.781842	0.736937
H131	H	1.056758	0.294817	0.584505
H132	H	1.556758	0.794817	1.084505
H133	H	0.236470	0.482139	0.404549
H134	H	0.736470	0.982139	0.904549
H135	H	0.899619	0.481861	0.712684
H136	H	1.399619	0.981861	1.212684
F137	F	0.888768	0.494794	0.575596
F138	F	1.388768	0.994794	1.075596
H139	H	0.236462	0.294776	0.247762
H140	H	0.736462	0.794776	0.747762
H141	H	0.592241	0.482116	0.404521
H142	H	1.092241	0.982116	0.904521
F143	F	0.373555	0.495041	0.415340
F144	F	0.873555	0.995041	0.915340
H145	H	1.056771	0.294778	0.712739
H146	H	1.556771	0.794778	1.212739
