data_functionalizedCrystal
_audit_creation_method	'MofGen! by Chris Wilmer'
_symmetry_space_group_name_H-M	'P1'
_symmetry_Int_Tables_number	1
_symmetry_cell_setting	triclinic
loop_
_symmetry_equiv_pos_as_xyz
  x,y,z
_cell_length_a	23.532361
_cell_length_b	23.532407
_cell_length_c	18.266242
_cell_angle_alpha	89.988983
_cell_angle_beta	89.995239
_cell_angle_gamma	82.839173
loop_
_atom_site_label
_atom_site_type_symbol
_atom_site_fract_x
_atom_site_fract_y
_atom_site_fract_z
O1	O	0.755280	0.069009	-0.060815
O2	O	0.589413	0.079040	-0.060834
O3	O	0.677349	-0.008908	-0.060810
O4	O	0.667345	0.156957	-0.060838
O5	O	0.677334	-0.008912	0.060952
O6	O	0.589398	0.079036	0.060928
O7	O	0.755266	0.069005	0.060947
Zn8	Zn	0.672330	0.074020	0.080270
Zn9	Zn	0.672349	0.074026	-0.080157
O10	O	0.667330	0.156953	0.060924
C11	C	0.568189	0.078787	0.000045
C12	C	0.504971	0.078032	0.000039
C13	C	0.231735	0.074731	-0.066329
C14	C	0.291135	0.075446	-0.066331
O15	O	0.321868	0.075798	-0.122777
N16	N	0.320832	0.075804	0.000042
C17	C	0.291128	0.075442	0.066421
O18	O	0.321843	0.075813	0.122876
C19	C	0.231730	0.074723	0.066422
C20	C	0.202035	0.074370	0.000045
C21	C	0.202040	0.074377	-0.132700
C22	C	0.142644	0.073663	-0.132698
C23	C	0.112944	0.073303	-0.066324
C24	C	0.142639	0.073657	0.000047
C25	C	0.202027	0.074357	0.132800
C26	C	0.142625	0.073638	0.132796
C27	C	0.112930	0.073285	0.066419
C28	C	0.053542	0.072582	0.066423
N29	N	0.023845	0.072224	0.000051
C30	C	0.053545	0.072584	-0.066323
C31	C	0.415868	0.076951	0.066413
C32	C	0.475265	0.077674	0.066413
C33	C	0.475268	0.077677	-0.066339
C34	C	0.415869	0.076958	-0.066338
C35	C	0.386171	0.076593	0.000041
C36	C	-0.071190	0.071085	-0.066314
C37	C	-0.130592	0.070374	-0.066305
C38	C	-0.130589	0.070369	0.066446
C39	C	-0.071193	0.071083	0.066438
C40	C	-0.041495	0.071440	0.000053
O41	O	0.022772	0.072228	0.122840
O42	O	0.022825	0.072206	-0.122769
C43	C	0.677086	-0.030126	0.000073
C44	C	0.676320	-0.093343	0.000078
C45	C	0.723555	-0.492454	0.000043
C46	C	0.722844	-0.551854	0.000038
O47	O	0.766630	-0.588606	0.000016
N48	N	0.670566	-0.574471	0.000032
C49	C	0.618997	-0.537685	0.000025
O50	O	0.574465	-0.562377	0.000019
C51	C	0.619709	-0.478286	0.000026
C52	C	0.671990	-0.455672	0.000038
C53	C	0.775832	-0.469839	0.000055
C54	C	0.776543	-0.410443	0.000062
C55	C	0.724977	-0.373662	0.000057
C56	C	0.672701	-0.396276	0.000045
C57	C	0.568140	-0.441501	0.000013
C58	C	0.568857	-0.382099	0.000013
C59	C	0.621137	-0.359485	0.000026
C60	C	0.621847	-0.300099	0.000047
N61	N	0.674124	-0.277481	0.000053
C62	C	0.725690	-0.314263	0.000058
C63	C	0.617505	-0.662427	0.000023
C64	C	0.616793	-0.721825	0.000028
C65	C	0.720640	-0.735990	0.000039
C66	C	0.721352	-0.676591	0.000039
C67	C	0.669783	-0.639810	0.000028
C68	C	0.727179	-0.189526	0.000073
C69	C	0.727886	-0.130124	0.000083
C70	C	0.624039	-0.115965	0.000068
C71	C	0.623332	-0.175361	0.000062
C72	C	0.674907	-0.212141	0.000062
O73	O	0.578083	-0.263312	0.000067
O74	O	0.770214	-0.289562	0.000054
C75	C	0.776489	0.069258	0.000067
C76	C	0.839708	0.070014	0.000068
C77	C	0.667592	0.178171	0.000039
C78	C	0.668358	0.241388	0.000029
N79	N	0.672320	0.074015	0.189757
N80	N	0.672363	0.074025	-0.189643
C81	C	0.711271	0.035091	0.228076
C82	C	0.711274	0.035088	0.304721
C83	C	0.672333	0.074020	0.343044
C84	C	0.633375	0.112947	0.304716
C85	C	0.633369	0.112945	0.228072
N86	N	0.664799	0.124456	0.463367
N87	N	0.664808	0.124456	0.536175
C88	C	0.672349	0.074028	0.573966
N89	N	0.679891	0.023598	0.536199
N90	N	0.679885	0.023598	0.463384
C91	C	0.672335	0.074026	0.426151
C92	C	0.711306	0.035097	0.695393
C93	C	0.711305	0.035094	0.772039
C94	C	0.633409	0.112958	0.772032
C95	C	0.633407	0.112956	0.695387
C96	C	0.672358	0.074027	0.657072
H97	H	0.499461	0.077970	-0.120384
H98	H	-0.047017	0.071376	-0.120371
C99	C	0.832563	-0.510291	0.000069
N100	N	0.875297	-0.540756	0.000087
C101	C	0.777363	-0.776461	0.000037
N102	N	0.820084	-0.806946	0.000034
C103	C	-0.163252	0.069981	-0.139328
N104	N	-0.187850	0.069683	-0.194328
C105	C	0.834056	-0.385576	0.000069
N106	N	0.877379	-0.366851	0.000070
H107	H	0.601700	0.144655	0.803234
C108	C	-0.038528	0.071476	0.139456
N109	N	-0.013928	0.071766	0.194454
H110	H	0.574220	-0.740232	0.000030
C111	C	0.560771	-0.621972	0.000021
N112	N	0.518039	-0.591505	0.000018
C113	C	0.754113	-0.007738	0.185934
N114	N	0.786381	-0.040000	0.154191
H115	H	0.743020	0.003397	0.664195
H116	H	0.743022	0.003394	0.803239
C117	C	0.109989	0.073263	-0.205719
N118	N	0.085397	0.072957	-0.260722
C119	C	0.510626	-0.466362	-0.000006
N120	N	0.467303	-0.485086	-0.000023
C121	C	0.785401	-0.105253	0.000095
N122	N	0.828721	-0.086523	0.000102
H123	H	0.582056	-0.086007	0.000067
H124	H	-0.154782	0.070078	0.120486
H125	H	0.742994	0.003390	0.335926
H126	H	0.769176	-0.219466	0.000070
H127	H	0.226216	0.074669	-0.186753
C128	C	0.590598	0.155818	0.653234
N129	N	0.558366	0.188116	0.621485
H130	H	0.526862	-0.352154	0.000003
C131	C	0.590537	0.155770	0.346872
N132	N	0.558268	0.188023	0.378624
H133	H	0.763923	-0.658183	0.000049
H134	H	0.391695	0.076670	-0.120388
H135	H	0.499436	0.077971	0.120464
H136	H	0.580761	-0.193774	0.000072
C137	C	0.590543	0.155792	0.185920
N138	N	0.558296	0.188073	0.154169
H139	H	0.391690	0.076661	0.120470
H140	H	0.118447	0.073345	0.186850
C141	C	0.234679	0.074740	0.205822
N142	N	0.259273	0.075026	0.260826
