data_functionalizedCrystal
_audit_creation_method	'MofGen! by Chris Wilmer'
_symmetry_space_group_name_H-M	'P1'
_symmetry_Int_Tables_number	1
_symmetry_cell_setting	triclinic
loop_
_symmetry_equiv_pos_as_xyz
  x,y,z
_cell_length_a	31.640171
_cell_length_b	23.196402
_cell_length_c	23.196401
_cell_angle_alpha	90.011712
_cell_angle_beta	60.001246
_cell_angle_gamma	59.980780
loop_
_atom_site_label
_atom_site_type_symbol
_atom_site_fract_x
_atom_site_fract_y
_atom_site_fract_z
Zr1	Zr	0.462801	0.555046	-0.075848
O2	O	0.551007	0.462917	-0.167930
O3	O	0.374595	0.583328	-0.047597
O4	O	0.462802	0.583242	-0.167901
O5	O	0.462798	0.463025	0.047245
O6	O	0.462803	0.678112	-0.167904
O7	O	0.462799	0.463002	-0.047626
O8	O	0.305016	0.678265	0.047297
O9	O	0.620586	0.462872	-0.167956
O10	O	0.410876	0.666142	-0.035579
O11	O	0.410874	0.595359	0.035225
O12	O	0.514727	0.595258	-0.106417
O13	O	0.514726	0.524475	-0.035613
Zr14	Zr	0.462801	0.706389	0.075455
Zr15	Zr	0.462803	0.706352	-0.075853
Zr16	Zr	0.462799	0.555082	0.075461
Zr17	Zr	0.573771	0.554974	-0.075890
Zr18	Zr	0.351831	0.706460	0.075497
O19	O	0.551007	0.678107	0.047204
O20	O	0.551010	0.678055	-0.167937
O21	O	0.551005	0.462968	0.047212
O22	O	0.374595	0.798518	0.167537
O23	O	0.374597	0.798466	-0.047605
O24	O	0.374592	0.583379	0.167545
O25	O	0.462803	0.798409	-0.047638
O26	O	0.462799	0.678192	0.167508
O27	O	0.462798	0.583322	0.167511
O28	O	0.462802	0.798432	0.047233
O29	O	0.620587	0.583141	-0.167960
O30	O	0.305014	0.678294	0.167568
O31	O	0.305016	0.798562	0.167563
O32	O	0.305017	0.798534	0.047293
O33	O	0.620584	0.462901	-0.047686
O34	O	0.620586	0.583169	-0.047690
O35	O	0.410874	0.666176	0.106024
O36	O	0.410876	0.736960	0.035220
O37	O	0.514727	0.666076	-0.035618
O38	O	0.514726	0.595292	0.035186
C39	C	0.323994	0.630807	-0.000144
C40	C	0.276885	0.630837	-0.000126
C41	C	-0.097681	0.683025	0.052077
C42	C	0.079272	0.683088	0.052116
O43	O	0.069539	0.727592	0.096565
N44	N	0.139747	0.630792	-0.000158
C45	C	0.155984	0.578480	-0.052449
O46	O	0.211482	0.534005	-0.096915
C47	C	-0.020969	0.578421	-0.052490
C48	C	-0.081444	0.630716	-0.000208
C49	C	-0.158154	0.735316	0.104355
C50	C	-0.202389	0.735298	0.104347
C51	C	-0.186152	0.682988	0.052061
C52	C	-0.125680	0.630697	-0.000216
C53	C	-0.004732	0.526112	-0.104783
C54	C	-0.048976	0.526103	-0.104790
C55	C	-0.109452	0.578398	-0.052508
C56	C	-0.153678	0.578370	-0.052509
N57	N	-0.214153	0.630665	-0.000235
C58	C	-0.230390	0.682975	0.052050
C59	C	0.248884	0.578514	-0.052423
C60	C	0.293122	0.578528	-0.052412
C61	C	0.216406	0.683136	0.052153
C62	C	0.172168	0.683119	0.052144
C63	C	0.188408	0.630809	-0.000148
C64	C	-0.323284	0.682932	0.052030
C65	C	-0.367520	0.682907	0.052019
C66	C	-0.290801	0.578301	-0.052547
C67	C	-0.246569	0.578323	-0.052535
C68	C	-0.262815	0.630645	-0.000243
O69	O	-0.143990	0.533893	-0.096940
O70	O	-0.285891	0.727452	0.096501
C71	C	-0.053446	0.683043	0.052085
C72	C	0.007026	0.630752	-0.000192
C73	C	0.023263	0.578443	-0.052477
C74	C	0.051264	0.630766	-0.000181
C75	C	0.035027	0.683076	0.052104
C76	C	-0.025448	0.735371	0.104379
C77	C	-0.069683	0.735353	0.104371
C78	C	0.083738	0.526148	-0.104752
C79	C	0.127970	0.526170	-0.104739
C80	C	0.111733	0.578479	-0.052454
C81	C	0.462799	0.441456	-0.000190
C82	C	0.462798	0.377222	-0.000188
C83	C	0.408590	0.384048	0.036782
C84	C	0.408589	0.323694	0.036785
C85	C	0.462799	0.256514	-0.000195
C86	C	0.517014	0.249691	-0.037167
C87	C	0.517014	0.310045	-0.037163
C88	C	0.504332	0.132543	-0.062122
C89	C	0.504331	0.072192	-0.062128
C90	C	0.462804	0.070360	-0.000206
C91	C	0.421269	0.128894	0.061720
C92	C	0.421268	0.189248	0.061724
C93	C	0.462806	0.191066	-0.000203
C94	C	0.408592	0.011745	0.036770
C95	C	0.408593	-0.048612	0.036775
C96	C	0.517020	-0.122615	-0.037184
C97	C	0.517017	-0.062258	-0.037182
C98	C	0.462801	0.004920	-0.000207
C99	C	0.601607	0.630628	-0.000249
C100	C	0.648717	0.630598	-0.000266
C101	C	0.462803	0.630672	-0.189461
C102	C	0.462804	0.630657	-0.253695
C103	C	0.462803	0.819979	-0.000203
C104	C	0.462804	0.884212	-0.000205
C105	C	0.517012	0.593659	-0.320845
C106	C	0.517012	0.593677	-0.381200
C107	C	0.462802	0.630683	-0.374402
C108	C	0.408587	0.667688	-0.307240
C109	C	0.408588	0.667675	-0.246887
C110	C	0.421269	0.625460	-0.441703
C111	C	0.421271	0.625468	-0.502057
C112	C	0.462798	0.630728	-0.560549
C113	C	0.504333	0.635965	-0.558688
C114	C	0.504334	0.635952	-0.498335
C115	C	0.462795	0.630702	-0.439840
C116	C	0.517010	0.593748	-0.693146
C117	C	0.517009	0.593771	-0.753501
C118	C	0.408582	0.667777	-0.679538
C119	C	0.408585	0.667759	-0.619185
C120	C	0.462801	0.630740	-0.625994
C121	C	0.462799	0.630763	0.189068
C122	C	0.462798	0.630778	0.253303
C123	C	0.323996	0.820068	-0.000151
C124	C	0.276888	0.884332	-0.000135
C125	C	0.323992	0.630852	0.189120
C126	C	0.276882	0.630898	0.253373
C127	C	0.323994	0.820113	0.189114
C128	C	0.276885	0.884393	0.253364
C129	C	0.601607	0.441321	-0.189506
C130	C	0.648717	0.377042	-0.253757
C131	C	0.601605	0.441367	-0.000242
C132	C	0.648714	0.377103	-0.000258
C133	C	0.601609	0.630583	-0.189513
C134	C	0.648720	0.630537	-0.253765
C135	C	0.254765	0.877545	-0.037091
C136	C	0.210507	0.937922	-0.037090
C137	C	0.188370	1.005085	-0.000130
C138	C	0.210497	1.011871	0.036827
C139	C	0.254757	0.951494	0.036822
C140	C	0.254758	0.667885	0.320509
C141	C	0.210499	0.667925	0.380887
C142	C	0.188362	0.630982	0.374127
C143	C	0.210489	0.593990	0.306983
C144	C	0.254751	0.593946	0.246607
C145	C	0.254762	0.951533	0.246577
C146	C	0.210504	1.011936	0.306941
C147	C	0.188366	1.005197	0.374091
C148	C	0.210492	0.938049	0.380876
C149	C	0.254753	0.877648	0.320513
C150	C	0.670845	0.309901	-0.246970
C151	C	0.715117	0.249498	-0.307334
C152	C	0.737257	0.256237	-0.374484
C153	C	0.715128	0.323385	-0.381269
C154	C	0.670860	0.383787	-0.320906
C155	C	0.670842	0.383889	0.036691
C156	C	0.715112	0.323512	0.036674
C157	C	0.737250	0.256349	-0.000288
C158	C	0.715121	0.249564	-0.037242
C159	C	0.670855	0.309940	-0.037228
C160	C	0.670844	0.667488	-0.246983
C161	C	0.715103	0.667458	-0.307349
C162	C	0.737241	0.630474	-0.374497
C163	C	0.715113	0.593522	-0.381278
C164	C	0.670851	0.593556	-0.320913
H165	H	-0.416763	0.725492	0.094596
H166	H	0.561158	0.304482	-0.067267
C167	C	0.139678	1.071495	-0.000126
N168	N	0.103002	1.121512	-0.000122
C169	C	0.186129	0.930648	0.454748
N170	N	0.167774	0.925075	0.510390
H171	H	0.364443	0.697909	-0.674001
H172	H	0.733153	0.194871	-0.067336
H173	H	0.152326	1.054386	0.423237
C174	C	0.646513	0.302462	-0.077869
N175	N	0.628179	0.296825	-0.108480
H176	H	0.538149	0.024538	-0.112553
C177	C	0.785942	0.189940	-0.000292
N178	N	0.822614	0.139923	-0.000290
H179	H	0.096968	0.483551	-0.147330
H180	H	0.272788	0.822863	-0.067197
H181	H	0.342361	0.535936	-0.094977
H182	H	0.652844	0.438454	-0.326440
C183	C	0.139667	0.631045	0.440550
N184	N	0.102987	0.631098	0.490582
H185	H	0.192467	1.066563	0.066918
C186	C	0.576645	0.553053	-0.827371
N187	N	0.621564	0.522376	-0.883010
C188	C	0.279081	0.803794	0.327990
N189	N	0.297404	0.748168	0.333627
C190	C	0.576646	0.175792	-0.077849
N191	N	0.621562	0.120130	-0.108491
C192	C	0.785949	0.189787	-0.440879
N193	N	0.822622	0.139733	-0.490885
C194	C	0.279082	0.958972	0.077486
N195	N	0.297400	0.964609	0.108118
C196	C	0.186167	1.085792	0.299462
N197	N	0.167837	1.141419	0.293827
C198	C	0.739450	0.175642	-0.299855
N199	N	0.757777	0.120016	-0.294219
C200	C	0.739484	0.330787	-0.455141
N201	N	0.757826	0.336359	-0.510783
C202	C	0.739441	0.330992	0.077334
N203	N	0.757763	0.336628	0.107961
H204	H	-0.035746	0.483507	-0.147375
C205	C	0.739438	0.708106	-0.299873
N206	N	0.757767	0.738721	-0.294241
C207	C	0.550018	0.134548	-0.130245
N208	N	0.584427	0.136058	-0.181554
C209	C	0.646497	0.708181	-0.173125
N210	N	0.628159	0.738837	-0.117497
C211	C	0.348953	0.708372	-0.173016
N212	N	0.304034	0.739023	-0.117375
C213	C	0.785931	0.630443	-0.440894
N214	N	0.822606	0.630420	-0.490903
H215	H	0.272778	0.697969	0.326027
C216	C	0.348951	0.457941	0.077462
N217	N	0.304030	0.513598	0.108105
H218	H	0.652820	0.304400	-0.192299
H219	H	0.652820	0.438572	0.066795
H220	H	0.192488	0.698051	0.435552
C221	C	0.739450	0.552871	-0.455148
N222	N	0.757776	0.522261	-0.510789
C223	C	0.186128	0.553359	0.299559
N224	N	0.167775	0.522759	0.293969
H225	H	0.192496	0.932383	-0.067184
C226	C	0.348951	0.708451	-0.545316
N227	N	0.304032	0.739103	-0.489675
H228	H	0.272781	0.957034	0.191906
C229	C	0.646528	0.552894	-0.328386
N230	N	0.628211	0.522263	-0.334020
H231	H	0.364446	0.066444	0.066893
H232	H	-0.336521	0.725537	0.094611
H233	H	0.387453	0.621200	-0.503567
H234	H	-0.251628	0.777883	0.146918
H235	H	0.122928	0.725702	0.094717
C236	C	-0.176028	0.792864	0.161880
N237	N	-0.189497	0.836209	0.205215
H238	H	0.272758	0.563829	0.191944
H239	H	0.262117	0.535914	-0.095007
C240	C	0.061785	0.468588	-0.162303
N241	N	0.111888	0.425259	-0.205634
C242	C	0.198553	0.740680	0.109664
N243	N	0.185111	0.784024	0.152975
H244	H	-0.197326	0.535723	-0.095090
H245	H	-0.118922	0.777937	0.146944
C246	C	-0.272951	0.520765	-0.110060
N247	N	-0.259507	0.477432	-0.153382
C248	C	-0.043301	0.792914	0.161891
N249	N	-0.056743	0.836256	0.205203
C250	C	0.348954	0.331199	0.077454
N251	N	0.304037	0.336855	0.108084
C252	C	0.375584	0.253630	0.129844
N253	N	0.341175	0.302122	0.181154
C254	C	0.194494	0.468638	-0.162258
N255	N	0.244598	0.425310	-0.205585
H256	H	0.364449	-0.043048	0.066885
C257	C	0.375588	0.126884	0.129841
N258	N	0.341183	0.125367	0.181148
C259	C	0.576650	-0.069768	-0.077864
N260	N	0.621569	-0.075427	-0.108508
C261	C	0.576647	0.552976	-0.455076
N262	N	0.621565	0.522318	-0.510718
H263	H	0.561159	-0.177312	-0.067295
H264	H	0.561158	0.563519	-0.326395
H265	H	0.538152	0.640218	-0.496822
C266	C	0.550015	0.641754	-0.623027
N267	N	0.584421	0.646113	-0.671489
H268	H	0.561156	0.563606	-0.698690
H269	H	0.364449	0.697819	-0.301708
C270	C	0.375585	0.619671	-0.377364
N271	N	0.341177	0.615310	-0.328905
