data_functionalizedCrystal
_audit_creation_method	'MofGen! by Chris Wilmer'
_symmetry_space_group_name_H-M	'P1'
_symmetry_Int_Tables_number	1
_symmetry_cell_setting	triclinic
loop_
_symmetry_equiv_pos_as_xyz
  x,y,z
_cell_length_a	11.792241
_cell_length_b	19.288864
_cell_length_c	10.868271
_cell_angle_alpha	89.981837
_cell_angle_beta	90.005281
_cell_angle_gamma	96.335169
loop_
_atom_site_label
_atom_site_type_symbol
_atom_site_fract_x
_atom_site_fract_y
_atom_site_fract_z
O1	O	0.141581	-0.922152	0.102718
O2	O	0.641581	-0.422152	0.602718
O3	O	0.160680	-0.720000	0.102634
O4	O	0.660680	-0.220000	0.602634
O5	O	-0.014114	-0.825982	0.102669
O6	O	0.485886	-0.325982	0.602669
O7	O	0.316376	-0.816171	0.102682
O8	O	0.816376	-0.316171	0.602682
O9	O	-0.014121	-0.825973	-0.101976
O10	O	0.485879	-0.325973	0.398024
O11	O	0.160674	-0.719991	-0.102011
O12	O	0.660674	-0.219991	0.397989
O13	O	0.141575	-0.922144	-0.101927
O14	O	0.641575	-0.422144	0.398073
Zn15	Zn	0.151123	-0.821066	-0.134461
Zn16	Zn	0.651123	-0.321066	0.365539
Zn17	Zn	0.151132	-0.821078	0.135167
Zn18	Zn	0.651132	-0.321078	0.635167
O19	O	0.316369	-0.816162	-0.101962
O20	O	0.816369	-0.316162	0.398038
C21	C	0.160063	-0.694116	0.000300
C22	C	0.660063	-0.194116	0.500300
C23	C	0.158218	-0.617002	0.000268
C24	C	0.658218	-0.117002	0.500268
C25	C	-0.056399	-0.825361	0.000347
C26	C	0.443601	-0.325361	0.500347
C27	C	-0.182385	-0.823517	0.000347
C28	C	0.317615	-0.323517	0.500347
C29	C	0.142192	-0.948028	0.000409
C30	C	0.642192	-0.448028	0.500409
C31	C	0.144037	-1.025142	0.000449
C32	C	0.644037	-0.525142	0.500449
C33	C	-0.413046	-0.820125	0.000366
C34	C	0.086954	-0.320125	0.500366
C35	C	-0.284689	-0.822009	0.000356
C36	C	0.215311	-0.322009	0.500356
C37	C	0.358654	-0.816782	0.000362
C38	C	0.858654	-0.316782	0.500362
C39	C	0.484640	-0.818627	0.000370
C40	C	0.984640	-0.318627	0.500370
N41	N	0.151116	-0.821063	-0.318475
N42	N	0.651116	-0.321063	0.181525
C43	C	0.260779	-0.572888	0.000292
C44	C	0.760779	-0.072888	0.500292
C45	C	0.259046	-0.500431	0.000305
C46	C	0.759046	-0.000431	0.500305
C47	C	0.154746	-0.472091	0.000320
C48	C	0.654746	0.027909	0.500320
C49	C	0.052171	-0.516215	0.000290
C50	C	0.552171	-0.016215	0.500290
C51	C	0.053907	-0.588670	0.000264
C52	C	0.553907	-0.088670	0.500264
C53	C	0.072756	-0.363366	0.072054
C54	C	0.572756	0.136634	0.572054
C55	C	0.071024	-0.290912	0.072088
C56	C	0.571024	0.209088	0.572088
C57	C	0.149387	-0.248615	0.000394
C58	C	0.649387	0.251385	0.500394
C59	C	0.229500	-0.278780	-0.071317
C60	C	0.729500	0.221220	0.428683
C61	C	0.231236	-0.351235	-0.071343
C62	C	0.731236	0.148765	0.428657
C63	C	0.152852	-0.393526	0.000347
C64	C	0.652852	0.106474	0.500347
C65	C	0.250076	-0.125935	0.000431
C66	C	0.750076	0.374065	0.500431
C67	C	0.248339	-0.053477	0.000436
C68	C	0.748339	0.446523	0.500436
C69	C	0.041460	-0.069262	0.000433
C70	C	0.541460	0.430738	0.500433
C71	C	0.043201	-0.141718	0.000415
C72	C	0.543201	0.358282	0.500415
C73	C	0.147512	-0.170050	0.000419
C74	C	0.647512	0.329950	0.500419
C75	C	0.151130	-0.821074	-0.569481
C76	C	0.651130	-0.321074	-0.069481
C77	C	0.151126	-0.821066	-0.429803
C78	C	0.651126	-0.321066	0.070197
N79	N	0.151130	-0.821086	0.319181
N80	N	0.651130	-0.321086	0.819181
H81	H	0.345717	-0.595951	0.000298
H82	H	0.845717	-0.095951	0.500298
C83	C	0.361171	-0.004951	0.000444
C84	C	0.861171	0.495049	0.500444
N85	N	0.446158	0.031600	0.000447
N86	N	0.946158	0.531600	0.500447
C87	C	0.319348	-0.384415	-0.150236
C88	C	0.819348	0.115585	0.349764
N89	N	0.385711	-0.409406	-0.209666
N90	N	0.885711	0.090594	0.290334
H91	H	0.342567	-0.464507	0.000321
H92	H	0.842567	0.035493	0.500321
C93	C	0.315703	-0.232258	-0.150191
C94	C	0.815703	0.267742	0.349809
N95	N	0.380628	-0.197215	-0.209596
N96	N	0.880628	0.302785	0.290404
H97	H	0.005796	-0.266358	0.130484
H98	H	0.505796	0.233642	0.630484
H99	H	0.335012	-0.149004	0.000416
H100	H	0.835012	0.350996	0.500416
H101	H	0.008942	-0.397800	0.130443
H102	H	0.508942	0.102200	0.630443
C103	C	-0.073272	-0.038092	0.000448
C104	C	0.426728	0.461908	0.500448
N105	N	-0.159692	-0.014612	0.000457
N106	N	0.340308	0.485388	0.500457
H107	H	-0.040316	-0.177637	0.000403
H108	H	0.459684	0.322363	0.500403
C109	C	-0.062560	-0.485039	0.000307
C110	C	0.437440	0.014961	0.500307
N111	N	-0.148979	-0.461558	0.000317
N112	N	0.351021	0.038442	0.500317
C113	C	-0.058924	-0.637197	0.000246
C114	C	0.441076	-0.137197	0.500246
N115	N	-0.143910	-0.673749	0.000237
N116	N	0.356090	-0.173749	0.500237
