data_functionalizedCrystal
_audit_creation_method	'MofGen! by Chris Wilmer'
_symmetry_space_group_name_H-M	'P1'
_symmetry_Int_Tables_number	1
_symmetry_cell_setting	triclinic
loop_
_symmetry_equiv_pos_as_xyz
  x,y,z
_cell_length_a	16.120484
_cell_length_b	13.897449
_cell_length_c	16.120256
_cell_angle_alpha	87.125877
_cell_angle_beta	95.616173
_cell_angle_gamma	87.074300
loop_
_atom_site_label
_atom_site_type_symbol
_atom_site_fract_x
_atom_site_fract_y
_atom_site_fract_z
Zn1	Zn	-0.356769	-1.424977	-0.489549
Zn2	Zn	-0.023436	-1.091644	-0.156215
Zn3	Zn	0.309897	-0.758310	0.177118
Zn4	Zn	-0.489455	-1.424856	-0.356858
Zn5	Zn	-0.156122	-1.091522	-0.023525
Zn6	Zn	0.177212	-0.758189	0.309808
Zn7	Zn	-0.349700	-1.272287	-0.349784
Zn8	Zn	-0.016367	-0.938954	-0.016451
Zn9	Zn	0.316966	-0.605620	0.316883
Zn10	Zn	-0.496500	-1.255016	-0.496571
Zn11	Zn	-0.163166	-0.921683	-0.163237
Zn12	Zn	0.170167	-0.588349	0.170096
O13	O	-0.423106	-1.344284	-0.423190
O14	O	-0.089773	-1.010951	-0.089857
O15	O	0.243561	-0.677617	0.243476
O16	O	-0.374380	-1.559941	-0.471969
O17	O	-0.041047	-1.226607	-0.138636
O18	O	0.292286	-0.893274	0.194698
O19	O	-0.465009	-1.411794	-0.238958
O20	O	-0.131676	-1.078461	0.094375
O21	O	0.201657	-0.745128	0.427709
O22	O	-0.233673	-1.299820	-0.362425
O23	O	0.099661	-0.966487	-0.029091
O24	O	0.432994	-0.633153	0.304242
O25	O	-0.471864	-1.559851	-0.374482
O26	O	-0.138531	-1.226518	-0.041149
O27	O	0.194803	-0.893185	0.292185
O28	O	-0.238866	-1.412001	-0.465109
O29	O	0.094467	-1.078667	-0.131776
O30	O	0.427801	-0.745334	0.201557
O31	O	-0.362332	-1.299703	-0.233760
O32	O	-0.028999	-0.966369	0.099573
O33	O	0.304334	-0.633036	0.432906
O34	O	-0.369163	-1.135016	-0.369234
O35	O	-0.035830	-0.801683	-0.035900
O36	O	0.297503	-0.468349	0.297433
O37	O	-0.483871	-1.270385	-0.612601
O38	O	-0.150537	-0.937051	-0.279268
O39	O	0.182796	-0.603718	0.054065
O40	O	-0.477016	-1.122327	-0.477077
O41	O	-0.143683	-0.788994	-0.143744
O42	O	0.189651	-0.455661	0.189589
O43	O	-0.381211	-1.395254	-0.607442
O44	O	-0.047878	-1.061921	-0.274109
O45	O	0.285455	-0.728587	0.059224
O46	O	-0.607355	-1.395047	-0.381291
O47	O	-0.274021	-1.061714	-0.047958
O48	O	0.059312	-0.728381	0.285376
O49	O	-0.612530	-1.270267	-0.483937
O50	O	-0.279197	-0.936934	-0.150604
O51	O	0.054136	-0.603600	0.182730
C52	C	-0.423088	-1.093673	-0.423150
C53	C	-0.089754	-0.760340	-0.089817
C54	C	0.243579	-0.427006	0.243516
C55	C	-0.423101	-0.986458	-0.423154
C56	C	-0.089768	-0.653125	-0.089821
C57	C	0.243566	-0.319791	0.243513
C58	C	-0.423103	-0.899388	-0.423165
C59	C	-0.089770	-0.566054	-0.089831
C60	C	0.243563	-0.232721	0.243502
C61	C	-0.423109	-0.790153	-0.423186
C62	C	-0.089775	-0.456820	-0.089852
C63	C	0.243558	-0.123487	0.243481
C64	C	-0.640271	-1.330795	-0.434162
C65	C	-0.306938	-0.997462	-0.100828
C66	C	0.026395	-0.664128	0.232505
C67	C	-0.733177	-1.325111	-0.438883
C68	C	-0.399844	-0.991778	-0.105550
C69	C	-0.066510	-0.658444	0.227783
C70	C	-0.903277	-1.314738	-0.447521
C71	C	-0.569944	-0.981405	-0.114187
C72	C	-0.236611	-0.648071	0.219146
C73	C	-0.942095	-1.374002	-0.398874
C74	C	-0.608762	-1.040668	-0.065541
C75	C	-0.275428	-0.707335	0.267793
C76	C	-1.036744	-1.368230	-0.403680
C77	C	-0.703411	-1.034897	-0.070346
C78	C	-0.370078	-0.701563	0.262987
C79	C	-0.808619	-1.320508	-0.442716
C80	C	-0.475286	-0.987175	-0.109383
C81	C	-0.141952	-0.653842	0.223951
C82	C	-0.205094	-1.357850	-0.412195
C83	C	0.128240	-1.024517	-0.078861
C84	C	0.461573	-0.691184	0.254472
C85	C	-0.112190	-1.363632	-0.407509
C86	C	0.221144	-1.030298	-0.074175
C87	C	0.554477	-0.696965	0.259158
C88	C	-0.434115	-1.330906	-0.641197
C89	C	-0.100782	-0.997573	-0.307863
C90	C	0.232551	-0.664240	0.025470
C91	C	-0.438807	-1.325206	-0.734098
C92	C	-0.105474	-0.991872	-0.400765
C93	C	0.227860	-0.658539	-0.067431
C94	C	-0.423121	-0.595874	-0.423221
C95	C	-0.089788	-0.262541	-0.089888
C96	C	0.243546	0.070793	0.243446
C97	C	-0.423117	-0.703089	-0.423207
C98	C	-0.089784	-0.369756	-0.089874
C99	C	0.243549	-0.036422	0.243459
C100	C	-0.398619	-1.374012	-0.943027
C101	C	-0.065285	-1.040679	-0.609694
C102	C	0.268048	-0.707345	-0.276360
C103	C	-0.447338	-1.314768	-0.904182
C104	C	-0.114004	-0.981434	-0.570849
C105	C	0.219329	-0.648101	-0.237516
C106	C	-0.442590	-1.320577	-0.809538
C107	C	-0.109256	-0.987244	-0.476205
C108	C	0.224077	-0.653910	-0.142872
C109	C	-0.403366	-1.368204	-1.037679
C110	C	-0.070032	-1.034870	-0.704346
C111	C	0.263301	-0.701537	-0.371012
C112	C	-0.412079	-1.357669	-0.206029
C113	C	-0.078746	-1.024335	0.127304
C114	C	0.254588	-0.691002	0.460637
C115	C	-0.407152	-1.363571	-0.113117
C116	C	-0.073819	-1.030237	0.220217
C117	C	0.259515	-0.696904	0.553550
H118	H	-0.904243	-1.429073	-0.353616
H119	H	-0.570910	-1.095739	-0.020283
H120	H	-0.237577	-0.762406	0.313051
H121	H	-0.353347	-1.429092	-0.905206
H122	H	-0.020014	-1.095759	-0.571872
H123	H	0.313319	-0.762425	-0.238539
H124	H	-0.492609	-1.259679	-0.942006
H125	H	-0.159275	-0.926345	-0.608672
H126	H	0.174058	-0.593012	-0.275339
H127	H	-0.941126	-1.259670	-0.492774
H128	H	-0.607793	-0.926337	-0.159441
H129	H	-0.274459	-0.593003	0.173893
