data_functionalizedCrystal
_audit_creation_method	'MofGen! by Chris Wilmer'
_symmetry_space_group_name_H-M	'P1'
_symmetry_Int_Tables_number	1
_symmetry_cell_setting	triclinic
loop_
_symmetry_equiv_pos_as_xyz
  x,y,z
_cell_length_a	10.654550
_cell_length_b	12.837942
_cell_length_c	9.730223
_cell_angle_alpha	89.996108
_cell_angle_beta	89.999957
_cell_angle_gamma	89.656935
loop_
_atom_site_label
_atom_site_type_symbol
_atom_site_fract_x
_atom_site_fract_y
_atom_site_fract_z
O1	O	1.683741	0.145723	-0.114186
O2	O	1.319778	0.159606	-0.114211
O3	O	1.493689	0.001704	-0.114190
O4	O	1.509830	0.303625	-0.114206
O5	O	1.493676	0.001699	0.114390
O6	O	1.319765	0.159602	0.114369
O7	O	1.683728	0.145718	0.114394
Zn8	Zn	1.501744	0.152660	0.150674
Zn9	Zn	1.501761	0.152665	-0.150490
O10	O	1.509817	0.303621	0.114374
C11	C	1.272862	0.158585	0.000076
C12	C	1.133086	0.155535	0.000067
C13	C	1.063746	0.248505	0.000066
C14	C	0.932411	0.245633	0.000090
C15	C	0.939770	0.056812	0.000110
C16	C	1.071101	0.059685	0.000096
C17	C	1.488230	-0.036958	0.000099
C18	C	1.471967	-0.152152	0.000095
C19	C	1.667472	-0.391705	0.000080
C20	C	1.652197	-0.499941	0.000077
C21	C	1.426146	-0.476861	0.000075
C22	C	1.441420	-0.368626	0.000079
C23	C	1.562087	-0.326052	0.000083
C24	C	1.577360	-0.217814	0.000096
C25	C	1.351309	-0.194737	0.000085
C26	C	1.336035	-0.302972	0.000082
C27	C	1.730644	0.146740	0.000104
C28	C	1.870420	0.149790	0.000105
C29	C	1.515276	0.342283	0.000082
C30	C	1.531538	0.457477	0.000076
N31	N	1.501742	0.152655	0.356210
N32	N	1.501773	0.152662	-0.356027
C33	C	1.578782	0.082766	0.428145
C34	C	1.578795	0.082766	0.572028
C35	C	1.424724	0.222554	0.572028
C36	C	1.424705	0.222548	0.428148
H37	H	0.889286	-0.021225	0.000142
C38	C	1.147381	-0.042587	0.000091
H39	H	1.091658	-0.100083	0.000090
H40	H	1.198775	-0.045391	0.079795
H41	H	1.198757	-0.045387	-0.079637
C42	C	1.800195	-0.344870	0.000095
H43	H	1.860773	-0.399474	0.000090
H44	H	1.810844	-0.303131	0.079808
H45	H	1.810857	-0.303123	-0.079624
H46	H	1.675613	-0.183153	0.000105
H47	H	1.738013	-0.553393	0.000070
C48	C	0.856142	0.347901	0.000079
H49	H	0.911872	0.405393	0.000049
H50	H	0.804764	0.350712	0.079795
H51	H	0.804751	0.350700	-0.079637
H52	H	1.237791	-0.337651	0.000073
H53	H	1.327904	-0.511544	0.000057
H54	H	1.265497	-0.141269	0.000099
H55	H	1.641508	0.025853	0.369577
C56	C	1.663544	0.005892	0.651151
H57	H	1.709425	-0.035727	0.587696
H58	H	1.613178	-0.037648	0.707293
H59	H	1.720338	0.043628	0.707263
H60	H	1.362004	0.279461	0.630615
C61	C	1.339969	0.299436	0.349008
H62	H	1.350986	0.289414	0.253016
H63	H	1.361905	0.368786	0.372572
H64	H	1.254731	0.287522	0.372596
C65	C	1.131925	0.353935	0.000048
H66	H	1.071813	0.408892	0.000064
H67	H	1.182998	0.358984	-0.079668
H68	H	1.183009	0.358978	0.079764
