data_functionalizedCrystal
_audit_creation_method	'MofGen! by Chris Wilmer'
_symmetry_space_group_name_H-M	'P1'
_symmetry_Int_Tables_number	1
_symmetry_cell_setting	triclinic
loop_
_symmetry_equiv_pos_as_xyz
  x,y,z
_cell_length_a	29.839134
_cell_length_b	29.839131
_cell_length_c	29.839135
_cell_angle_alpha	90.007589
_cell_angle_beta	90.016207
_cell_angle_gamma	90.036281
loop_
_atom_site_label
_atom_site_type_symbol
_atom_site_fract_x
_atom_site_fract_y
_atom_site_fract_z
Zn1	Zn	0.686694	-0.179023	0.254125
Zn2	Zn	0.686634	-0.254122	0.178995
Zn3	Zn	0.611584	-0.179000	0.178995
Zn4	Zn	0.611524	-0.254120	0.254083
O5	O	0.649109	-0.216566	0.216549
O6	O	0.749553	-0.188995	0.244176
O7	O	0.676678	-0.244148	0.116128
O8	O	0.621598	-0.116136	0.188978
O9	O	0.749509	-0.244170	0.188979
O10	O	0.676781	-0.116153	0.244176
O11	O	0.621540	-0.188956	0.116127
O12	O	0.548709	-0.188954	0.188938
O13	O	0.621496	-0.244167	0.316956
O14	O	0.548665	-0.244144	0.244105
O15	O	0.676723	-0.188994	0.316987
O16	O	0.676620	-0.316988	0.188938
O17	O	0.621438	-0.316987	0.244105
C18	C	0.532387	-0.216547	0.216517
C19	C	0.482452	-0.216550	0.216514
C20	C	0.172795	-0.245346	0.245240
C21	C	-0.014878	-0.245359	0.245260
O22	O	-0.039154	-0.269821	0.269665
N23	N	-0.038333	-0.216582	0.216583
C24	C	-0.014867	-0.187799	0.187902
O25	O	-0.039123	-0.163320	0.163514
C26	C	0.172805	-0.187784	0.187884
C27	C	0.196258	-0.216566	0.216560
C28	C	0.196248	-0.274125	0.273913
C29	C	0.243164	-0.274123	0.273906
C30	C	0.266626	-0.245343	0.245226
C31	C	0.243173	-0.216564	0.216553
C32	C	0.196270	-0.158999	0.159205
C33	C	0.243191	-0.158997	0.159204
C34	C	0.266644	-0.187778	0.187880
C35	C	0.313551	-0.187782	0.187865
N36	N	0.337007	-0.216558	0.216542
C37	C	0.313544	-0.245338	0.245222
C38	C	-0.113398	-0.187809	0.187912
C39	C	-0.160316	-0.187813	0.187916
C40	C	-0.160323	-0.245373	0.245275
C41	C	-0.113404	-0.245371	0.245268
C42	C	-0.089942	-0.216585	0.216589
C43	C	0.412070	-0.245333	0.245205
C44	C	0.458990	-0.245330	0.245194
C45	C	0.458993	-0.187769	0.187837
C46	C	0.412077	-0.187773	0.187846
C47	C	0.388617	-0.216557	0.216534
O48	O	0.337857	-0.163328	0.163477
O49	O	0.337809	-0.269807	0.269613
C50	C	0.125880	-0.245348	0.245247
C51	C	0.102427	-0.216569	0.216574
C52	C	0.125890	-0.187789	0.187893
C53	C	0.055509	-0.216573	0.216577
C54	C	0.032047	-0.245354	0.245258
C55	C	0.055502	-0.274130	0.273934
C56	C	0.102417	-0.274128	0.273927
C57	C	0.102434	-0.159012	0.159217
C58	C	0.055519	-0.159017	0.159226
C59	C	0.032056	-0.187797	0.187906
C60	C	0.649028	-0.333289	0.216527
C61	C	0.649034	-0.383223	0.216533
C62	C	0.677895	-0.692854	0.187866
C63	C	0.677950	-0.880527	0.187883
O64	O	0.702424	-0.904782	0.163493
N65	N	0.649202	-0.904008	0.216583
C66	C	0.620440	-0.880567	0.245283
O67	O	0.595993	-0.904845	0.269698
C68	C	0.620388	-0.692895	0.245268
C69	C	0.649134	-0.669417	0.216562
C70	C	0.706640	-0.669376	0.159163
C71	C	0.706624	-0.622461	0.159158
C72	C	0.677863	-0.599023	0.187854
C73	C	0.649118	-0.622502	0.216557
C74	C	0.591628	-0.669456	0.273969
C75	C	0.591618	-0.622535	0.273964
C76	C	0.620365	-0.599056	0.245259
C77	C	0.620342	-0.552149	0.245247
N78	N	0.649090	-0.528668	0.216547
C79	C	0.677851	-0.552106	0.187851
C80	C	0.620470	-0.979098	0.245289
C81	C	0.620482	-1.026016	0.245292
C82	C	0.677993	-1.025973	0.187893
C83	C	0.677978	-0.979054	0.187887
C84	C	0.649218	-0.955617	0.216589
C85	C	0.677815	-0.453580	0.187841
C86	C	0.677795	-0.406660	0.187836
C87	C	0.620286	-0.406708	0.245237
C88	C	0.620304	-0.453623	0.245240
C89	C	0.649072	-0.477058	0.216540
O90	O	0.595885	-0.527865	0.269629
O91	O	0.702301	-0.527820	0.163447
C92	C	0.677911	-0.739770	0.187872
C93	C	0.649166	-0.763248	0.216574
C94	C	0.620405	-0.739811	0.245271
C95	C	0.649179	-0.810166	0.216577
C96	C	0.677939	-0.833603	0.187881
C97	C	0.706687	-0.810123	0.159181
C98	C	0.706671	-0.763207	0.159175
C99	C	0.591657	-0.763291	0.273971
C100	C	0.591675	-0.810207	0.273974
C101	C	0.620436	-0.833644	0.245277
C102	C	0.766287	-0.216585	0.216582
C103	C	0.816222	-0.216594	0.216596
C104	C	0.649109	-0.216583	0.333728
C105	C	0.649110	-0.216590	0.383662
C106	C	0.649203	-0.099388	0.216582
C107	C	0.649243	-0.049453	0.216595
C108	C	0.677865	-0.187840	0.693324
C109	C	0.677869	-0.187835	0.880998
O110	O	0.702308	-0.163392	0.905278
N111	N	0.649117	-0.216561	0.904447
C112	C	0.620360	-0.245289	0.880976
O113	O	0.595901	-0.269719	0.905227
C114	C	0.620355	-0.245291	0.693304
C115	C	0.649112	-0.216567	0.669856
C116	C	0.706619	-0.159118	0.669877
C117	C	0.706620	-0.159121	0.622962
C118	C	0.677866	-0.187847	0.599494
C119	C	0.649112	-0.216570	0.622941
C120	C	0.591596	-0.274016	0.669833
C121	C	0.591596	-0.274013	0.622912
C122	C	0.620353	-0.245289	0.599465
C123	C	0.620359	-0.245299	0.552557
N124	N	0.649111	-0.216573	0.529108
C125	C	0.677865	-0.187847	0.552576
C126	C	0.620365	-0.245286	0.979506
C127	C	0.620367	-0.245286	1.026424
C128	C	0.677875	-0.187832	1.026443
C129	C	0.677875	-0.187834	0.979524
C130	C	0.649117	-0.216560	0.956057
C131	C	0.677864	-0.187856	0.454050
C132	C	0.677863	-0.187864	0.407130
C133	C	0.620354	-0.245316	0.407116
C134	C	0.620356	-0.245311	0.454031
C135	C	0.649112	-0.216577	0.477497
O136	O	0.595929	-0.269726	0.528247
O137	O	0.702312	-0.163414	0.528316
C138	C	0.677865	-0.187837	0.740240
C139	C	0.649110	-0.216560	0.763687
C140	C	0.620357	-0.245286	0.740219
C141	C	0.649112	-0.216560	0.810605
C142	C	0.677866	-0.187834	0.834073
C143	C	0.706618	-0.159108	0.810624
C144	C	0.706618	-0.159111	0.763708
C145	C	0.591605	-0.274012	0.763669
C146	C	0.591607	-0.274007	0.810584
C147	C	0.620361	-0.245281	0.834052
C148	C	0.649109	-0.216561	1.099827
C149	C	0.649121	-0.216560	1.049892
H150	H	-0.094299	-0.164368	0.164556
Br151	Br	0.716992	-0.947196	0.148929
Br152	Br	0.552587	-0.590731	0.312919
H153	H	0.730080	-0.744095	0.135801
H154	H	0.596898	-0.472740	0.268615
Br155	Br	0.134269	-0.119947	0.120291
Br156	Br	0.164415	-0.313189	0.312842
H157	H	0.478105	-0.164338	0.164485
Br158	Br	0.552580	-0.312998	0.842400
Br159	Br	0.581347	-0.284280	1.058240
Br160	Br	0.275030	-0.119928	0.120281
Br161	Br	0.023696	-0.119954	0.120303
H162	H	0.568218	-0.688563	0.297342
H163	H	0.478083	-0.268769	0.268545
Br164	Br	0.552622	-0.731491	0.312921
H165	H	0.596868	-0.387618	0.268600
Br166	Br	0.716898	-0.148847	1.058301
Br167	Br	0.716895	-0.148879	0.375312
H168	H	0.121508	-0.297565	0.297278
H169	H	0.701279	-0.164457	0.473150
Br170	Br	0.745717	-0.841940	0.120234
Br171	Br	0.581332	-0.284298	0.485854
H172	H	0.036390	-0.297565	0.297285
H173	H	0.597070	-1.045128	0.268662
H174	H	0.568179	-0.297407	0.688916
H175	H	0.568190	-0.297406	0.744566
H176	H	0.730035	-0.135720	0.744621
Br177	Br	0.716810	-0.374800	0.148876
Br178	Br	0.380247	-0.148721	0.148921
Br179	Br	-0.081580	-0.284432	0.284186
H180	H	0.730036	-0.135729	0.603875
Br181	Br	0.552657	-0.842064	0.312933
Br182	Br	-0.192174	-0.284429	0.284201
H183	H	0.701411	-1.045063	0.164527
Br184	Br	0.716857	-0.485377	0.148891
H185	H	0.730034	-0.135723	0.688980
Br186	Br	0.745646	-0.590605	0.120205
Br187	Br	0.581332	-0.284299	0.375257
H188	H	0.701291	-0.164443	0.960436
H189	H	0.568172	-0.297401	0.603807
Br190	Br	-0.192138	-0.148758	0.148991
H191	H	0.597049	-0.960019	0.268661
Br192	Br	0.581332	-0.284275	0.947665
H193	H	0.730062	-0.688454	0.135795
H194	H	0.730031	-0.135719	0.829740
H195	H	0.262255	-0.297559	0.297257
Br196	Br	0.380238	-0.284396	0.284139
H197	H	0.177183	-0.135563	0.135854
