data_functionalizedCrystal
_audit_creation_method	'MofGen! by Chris Wilmer'
_symmetry_space_group_name_H-M	'P1'
_symmetry_Int_Tables_number	1
_symmetry_cell_setting	triclinic
loop_
_symmetry_equiv_pos_as_xyz
  x,y,z
_cell_length_a	19.188929
_cell_length_b	12.811438
_cell_length_c	11.892095
_cell_angle_alpha	80.666371
_cell_angle_beta	86.145777
_cell_angle_gamma	96.406048
loop_
_atom_site_label
_atom_site_type_symbol
_atom_site_fract_x
_atom_site_fract_y
_atom_site_fract_z
O1	O	-0.082767	1.409327	-0.238520
O2	O	-0.094483	1.101435	-0.206969
O3	O	0.013027	1.264261	-0.223585
O4	O	-0.190277	1.246501	-0.221905
O5	O	0.004077	1.250685	-0.034192
O6	O	-0.103433	1.087859	-0.017576
O7	O	-0.091717	1.395751	-0.049128
Zn8	Zn	-0.098996	1.239649	-0.003282
Zn9	Zn	-0.087204	1.257536	-0.252815
O10	O	-0.199227	1.232925	-0.032512
C11	C	-0.098576	1.055257	-0.108235
C12	C	-0.097429	0.937885	-0.096203
C13	C	-0.100690	0.765055	0.023986
C14	C	-0.101769	0.875336	0.012687
C15	C	-0.092012	0.890145	-0.193801
C16	C	-0.090933	0.779865	-0.182501
C17	C	-0.095272	0.717323	-0.073604
C18	C	-0.094188	0.607041	-0.062306
C19	C	-0.084435	0.621852	-0.268792
C20	C	-0.085514	0.732133	-0.280092
C21	C	-0.220762	1.240290	-0.127285
C22	C	-0.298264	1.242021	-0.127516
C23	C	-0.343184	1.146476	-0.117702
C24	C	-0.416009	1.148097	-0.117843
C25	C	-0.443912	1.245267	-0.127775
C26	C	-0.398982	1.340825	-0.137597
C27	C	-0.326158	1.339202	-0.137468
N28	N	-0.554934	1.314917	-0.070860
N29	N	-0.624115	1.316452	-0.070980
C30	C	-0.663326	1.250163	-0.128168
N31	N	-0.630746	1.182263	-0.185216
N32	N	-0.561560	1.180725	-0.185091
C33	C	-0.522877	1.247038	-0.127917
C34	C	-0.787211	1.156369	-0.118508
C35	C	-0.860037	1.157994	-0.118656
C36	C	-0.843010	1.350725	-0.138399
C37	C	-0.770185	1.349097	-0.138262
C38	C	-0.742291	1.251916	-0.128311
C39	C	0.034562	1.256896	-0.128814
C40	C	0.112065	1.255166	-0.128590
C41	C	-0.087624	1.441930	-0.147864
C42	C	-0.088771	1.559302	-0.159903
N43	N	-0.107044	1.227450	0.167017
N44	N	-0.079151	1.269745	-0.423115
C45	C	-0.023113	1.354636	0.390686
C46	C	-0.028743	1.346116	0.509898
C47	C	-0.123930	1.201886	0.524654
C48	C	-0.118300	1.210406	0.405443
C49	C	-0.067890	1.286784	0.338463
C50	C	-0.062264	1.295308	0.219249
C51	C	-0.157448	1.151074	0.234008
C52	C	-0.163078	1.142554	0.353219
H53	H	-0.080025	0.582977	-0.348257
H54	H	-0.896610	1.080187	-0.110671
H55	H	-0.289584	1.417010	-0.145461
H56	H	0.017929	1.416833	0.336149
O57	O	-0.104775	0.704276	0.129734
C58	C	-0.048762	0.583373	0.261075
C59	C	-0.044040	0.652176	0.141289
H60	H	0.000329	0.541214	0.270447
H61	H	-0.052774	0.636390	0.328937
H62	H	-0.097372	0.521515	0.272492
H63	H	0.004567	0.714042	0.129761
H64	H	-0.040067	0.599090	0.073487
H65	H	-0.764499	1.077237	-0.110398
H66	H	-0.097725	0.556120	0.026364
O67	O	0.014789	1.412141	0.560441
C68	C	0.109830	1.556046	0.533225
C69	C	0.060559	1.481358	0.475836
H70	H	0.146857	1.612012	0.464849
H71	H	0.077177	1.604818	0.583567
H72	H	0.141965	1.506541	0.593765
H73	H	0.028414	1.530780	0.415243
H74	H	0.093253	1.432582	0.425565
O75	O	-0.107002	0.921539	0.107603
C76	C	-0.116607	0.895199	0.313604
C77	C	-0.110666	0.842741	0.206202
H78	H	-0.119586	0.831512	0.393348
H79	H	-0.068498	0.956326	0.312576
H80	H	-0.166190	0.936597	0.314393
H81	H	-0.061112	0.801285	0.205343
H82	H	-0.158810	0.781671	0.207272
O83	O	-0.869987	1.445214	-0.148106
C84	C	-0.845416	1.636196	-0.167605
C85	C	-0.814766	1.529261	-0.156640
H86	H	-0.800786	1.704175	-0.174483
H87	H	-0.875347	1.647531	-0.247448
H88	H	-0.882820	1.636035	-0.088913
H89	H	-0.777334	1.529346	-0.235271
H90	H	-0.784878	1.517968	-0.076749
H91	H	-0.320477	1.067344	-0.109610
O92	O	-0.726510	1.441898	-0.147983
C93	C	-0.629790	1.558921	-0.257379
C94	C	-0.679216	1.453802	-0.246515
H95	H	-0.591531	1.568568	-0.337024
H96	H	-0.662204	1.628697	-0.264580
H97	H	-0.599014	1.557283	-0.178515
H98	H	-0.710003	1.455335	-0.325355
H99	H	-0.646763	1.384071	-0.239259
H100	H	-0.452589	1.070290	-0.109849
H101	H	-0.164968	1.139693	0.579205
H102	H	-0.088486	0.941084	-0.282459
H103	H	-0.021220	1.357502	0.164714
O104	O	-0.081274	0.793052	-0.385783
C105	C	-0.078652	0.969500	-0.494705
C106	C	-0.083446	0.900641	-0.374939
H107	H	-0.080421	1.056496	-0.485978
H108	H	-0.027171	0.961452	-0.544395
H109	H	-0.124868	0.941507	-0.542412
H110	H	-0.037267	0.928589	-0.327136
H111	H	-0.134955	0.908694	-0.325335
O112	O	-0.426161	1.435161	-0.147388
C113	C	-0.493876	1.555902	-0.257148
C114	C	-0.463152	1.449026	-0.246175
H115	H	-0.523777	1.567157	-0.337025
H116	H	-0.531296	1.555820	-0.178496
H117	H	-0.449249	1.623895	-0.264083
H118	H	-0.507732	1.380975	-0.239274
H119	H	-0.425713	1.449200	-0.324830
O120	O	-0.212026	1.068456	0.418453
C121	C	-0.262860	0.991367	0.608648
C122	C	-0.207403	1.075345	0.534909
H123	H	-0.259131	0.996893	0.702819
H124	H	-0.317671	1.006564	0.583869
H125	H	-0.252800	0.908413	0.593840
H126	H	-0.217397	1.158332	0.549679
H127	H	-0.152611	1.060055	0.559704
H128	H	-0.193911	1.095828	0.191474
