data_functionalizedCrystal
_audit_creation_method	'MofGen! by Chris Wilmer'
_symmetry_space_group_name_H-M	'P1'
_symmetry_Int_Tables_number	1
_symmetry_cell_setting	triclinic
loop_
_symmetry_equiv_pos_as_xyz
  x,y,z
_cell_length_a	14.044202
_cell_length_b	14.519709
_cell_length_c	12.996460
_cell_angle_alpha	90.007122
_cell_angle_beta	90.001683
_cell_angle_gamma	91.563577
loop_
_atom_site_label
_atom_site_type_symbol
_atom_site_fract_x
_atom_site_fract_y
_atom_site_fract_z
O1	O	-1.258079	0.222411	0.085519
O2	O	-1.008079	0.472411	0.335519
O3	O	-0.758079	0.722411	0.585519
O4	O	-0.508079	0.972411	0.835519
O5	O	-0.982096	0.214378	0.085532
O6	O	-0.732096	0.464378	0.335532
O7	O	-0.482096	0.714378	0.585532
O8	O	-0.232096	0.964378	0.835532
O9	O	-1.127405	0.084746	0.085516
O10	O	-0.877405	0.334746	0.335516
O11	O	-0.627405	0.584746	0.585516
O12	O	-0.377405	0.834746	0.835516
O13	O	-1.112770	0.352042	0.085535
O14	O	-0.862770	0.602042	0.335535
O15	O	-0.612770	0.852042	0.585535
O16	O	-0.362770	1.102042	0.835535
O17	O	-1.127402	0.084737	-0.085618
O18	O	-0.877402	0.334737	0.164382
O19	O	-0.627402	0.584737	0.414382
O20	O	-0.377402	0.834737	0.664382
O21	O	-0.982094	0.214368	-0.085602
O22	O	-0.732094	0.464368	0.164398
O23	O	-0.482094	0.714368	0.414398
O24	O	-0.232094	0.964368	0.664398
O25	O	-1.258077	0.222401	-0.085615
O26	O	-1.008077	0.472401	0.164385
O27	O	-0.758077	0.722401	0.414385
O28	O	-0.508077	0.972401	0.664385
Cu29	Cu	-1.120085	0.218384	-0.101234
Cu30	Cu	-0.870085	0.468384	0.148766
Cu31	Cu	-0.620085	0.718384	0.398766
Cu32	Cu	-0.370085	0.968384	0.648766
Cu33	Cu	-1.120088	0.218395	0.101151
Cu34	Cu	-0.870088	0.468395	0.351151
Cu35	Cu	-0.620088	0.718395	0.601151
Cu36	Cu	-0.370088	0.968395	0.851151
O37	O	-1.112768	0.352033	-0.085599
O38	O	-0.862768	0.602033	0.164401
O39	O	-0.612768	0.852033	0.414401
O40	O	-0.362768	1.102033	0.664401
C41	C	-0.946774	0.210859	-0.000033
C42	C	-0.696774	0.460859	0.249967
C43	C	-0.446774	0.710859	0.499967
C44	C	-0.196774	0.960859	0.749967
C45	C	-0.841531	0.200379	-0.000028
C46	C	-0.591531	0.450379	0.249972
C47	C	-0.341531	0.700379	0.499972
C48	C	-0.091531	0.950379	0.749972
C49	C	-1.126722	0.050327	-0.000051
C50	C	-0.876722	0.300327	0.249949
C51	C	-0.626722	0.550327	0.499949
C52	C	-0.376722	0.800327	0.749949
C53	C	-1.124678	-0.052219	-0.000052
C54	C	-0.874678	0.197781	0.249948
C55	C	-0.624678	0.447781	0.499948
C56	C	-0.374678	0.697781	0.749948
C57	C	-0.591338	0.255542	-0.000034
C58	C	-0.341338	0.505542	0.249966
C59	C	-0.091338	0.755542	0.499966
C60	C	0.158662	1.005542	0.749966
C61	C	-0.648841	0.181233	-0.000038
C62	C	-0.398841	0.431233	0.249962
C63	C	-0.148841	0.681233	0.499962
C64	C	0.101159	0.931233	0.749962
C65	C	-0.756063	0.191888	-0.000032
C66	C	-0.506063	0.441888	0.249968
C67	C	-0.256063	0.691888	0.499968
C68	C	-0.006063	0.941888	0.749968
C69	C	-0.484106	0.244889	-0.000039
C70	C	-0.234106	0.494889	0.249961
C71	C	0.015894	0.744889	0.499961
C72	C	0.265894	0.994889	0.749961
C73	C	-1.117154	-0.427722	-0.000024
C74	C	-0.867154	-0.177722	0.249976
C75	C	-0.617154	0.072278	0.499976
C76	C	-0.367154	0.322278	0.749976
C77	C	-1.119243	-0.323246	-0.000032
C78	C	-0.869243	-0.073246	0.249968
C79	C	-0.619243	0.176754	0.499968
C80	C	-0.369243	0.426754	0.749968
C81	C	-1.120916	-0.239974	-0.000039
C82	C	-0.870916	0.010026	0.249961
C83	C	-0.620916	0.260026	0.499961
C84	C	-0.370916	0.510026	0.749961
C85	C	-1.123005	-0.135491	-0.000045
C86	C	-0.873005	0.114509	0.249955
C87	C	-0.623005	0.364509	0.499955
C88	C	-0.373005	0.614509	0.749955
C89	C	-0.293398	0.225918	-0.000047
C90	C	-0.043398	0.475918	0.249953
C91	C	0.206602	0.725918	0.499953
C92	C	0.456602	0.975918	0.749953
C93	C	-0.398643	0.236393	-0.000044
C94	C	-0.148643	0.486393	0.249956
C95	C	0.101357	0.736393	0.499956
C96	C	0.351357	0.986393	0.749956
C97	C	-1.113451	0.386452	-0.000029
C98	C	-0.863451	0.636452	0.249971
C99	C	-0.613451	0.886452	0.499971
C100	C	-0.363451	1.136452	0.749971
C101	C	-1.115495	0.488999	-0.000022
C102	C	-0.865495	0.738999	0.249978
C103	C	-0.615495	0.988999	0.499978
C104	C	-0.365495	1.238999	0.749978
N105	N	-1.120090	0.218396	0.243499
N106	N	-0.870090	0.468396	0.493499
N107	N	-0.620090	0.718396	0.743499
N108	N	-0.370090	0.968396	0.993499
N109	N	-1.120090	0.218376	-0.243581
N110	N	-0.870090	0.468376	0.006419
N111	N	-0.620090	0.718376	0.256419
N112	N	-0.370090	0.968376	0.506419
C113	C	-1.120086	0.218387	0.663313
C114	C	-0.870086	0.468387	0.913313
C115	C	-0.620086	0.718387	1.163313
C116	C	-0.370086	0.968387	1.413313
C117	C	-1.120084	0.218392	0.546508
C118	C	-0.870084	0.468392	0.796508
C119	C	-0.620084	0.718392	1.046508
C120	C	-0.370084	0.968392	1.296508
C121	C	-1.120087	0.218391	0.453409
C122	C	-0.870087	0.468391	0.703409
C123	C	-0.620087	0.718391	0.953409
C124	C	-0.370087	0.968391	1.203409
C125	C	-1.120087	0.218397	0.336597
C126	C	-0.870087	0.468397	0.586597
C127	C	-0.620087	0.718397	0.836597
C128	C	-0.370087	0.968397	1.086597
H129	H	-0.617544	0.109613	0.000030
H130	H	-0.367544	0.359613	0.250030
H131	H	-0.117544	0.609613	0.500030
H132	H	0.132456	0.859613	0.750030
O133	O	-0.628823	0.340914	0.000027
O134	O	-0.378823	0.590914	0.250027
O135	O	-0.128823	0.840914	0.500027
O136	O	0.121177	1.090914	0.750027
C137	C	-0.729087	0.332679	0.000006
C138	C	-0.479087	0.582679	0.250006
C139	C	-0.229087	0.832679	0.500006
C140	C	0.020913	1.082679	0.750006
H141	H	-0.752056	0.262574	0.032392
H142	H	-0.502056	0.512574	0.282392
H143	H	-0.252056	0.762574	0.532392
H144	H	-0.002056	1.012574	0.782392
H145	H	-0.759641	0.389435	0.049703
H146	H	-0.509641	0.639435	0.299703
H147	H	-0.259641	0.889435	0.549703
H148	H	-0.009641	1.139435	0.799703
H149	H	-0.756640	0.339370	-0.082093
H150	H	-0.506640	0.589370	0.167907
H151	H	-0.256640	0.839370	0.417907
H152	H	-0.006640	1.089370	0.667907
