data_functionalizedCrystal
_audit_creation_method	'MofGen! by Chris Wilmer'
_symmetry_space_group_name_H-M	'P1'
_symmetry_Int_Tables_number	1
_symmetry_cell_setting	triclinic
loop_
_symmetry_equiv_pos_as_xyz
  x,y,z
_cell_length_a	14.044220
_cell_length_b	10.654550
_cell_length_c	9.130313
_cell_angle_alpha	90.000110
_cell_angle_beta	89.995534
_cell_angle_gamma	88.836890
loop_
_atom_site_label
_atom_site_type_symbol
_atom_site_fract_x
_atom_site_fract_y
_atom_site_fract_z
O1	O	-1.259693	-0.302980	-0.121637
O2	O	-0.759693	0.197020	0.378363
O3	O	-0.983652	-0.292047	-0.121674
O4	O	-0.483652	0.207953	0.378326
O5	O	-1.128019	-0.115412	-0.121649
O6	O	-0.628019	0.384588	0.378351
O7	O	-1.115326	-0.479615	-0.121662
O8	O	-0.615326	0.020385	0.378338
O9	O	-1.128017	-0.115417	0.121950
O10	O	-0.628017	0.384583	0.621950
O11	O	-0.983650	-0.292052	0.121925
O12	O	-0.483650	0.207948	0.621925
O13	O	-1.259691	-0.302985	0.121962
O14	O	-0.759691	0.197015	0.621962
Cu15	Cu	-1.121671	-0.297519	0.144186
Cu16	Cu	-0.621671	0.202481	0.644186
Cu17	Cu	-1.121673	-0.297513	-0.143898
Cu18	Cu	-0.621673	0.202487	0.356102
O19	O	-1.115324	-0.479620	0.121937
O20	O	-0.615324	0.020380	0.621937
C21	C	-0.948305	-0.287263	0.000121
C22	C	-0.448305	0.212737	0.500121
C23	C	-0.842986	-0.272988	0.000106
C24	C	-0.342986	0.227012	0.500106
C25	C	-1.127086	-0.068523	0.000149
C26	C	-0.627086	0.431477	0.500149
C27	C	-1.124298	0.071201	0.000143
C28	C	-0.624298	0.571201	0.500143
C29	C	-1.295038	-0.307769	0.000164
C30	C	-0.795038	0.192231	0.500164
C31	C	-1.400358	-0.322044	0.000169
C32	C	-0.900358	0.177956	0.500169
C33	C	-0.650153	-0.246889	0.000136
C34	C	-0.150153	0.253111	0.500136
C35	C	-0.593185	-0.348137	0.000139
C36	C	-0.093185	0.151863	0.500139
C37	C	-0.485886	-0.333615	0.000156
C38	C	0.014114	0.166385	0.500156
C39	C	-0.757461	-0.261409	0.000120
C40	C	-0.257461	0.238591	0.500120
C41	C	-1.116257	-0.526509	0.000136
C42	C	-0.616257	-0.026509	0.500136
C43	C	-1.119045	-0.666233	0.000132
C44	C	-0.619045	-0.166233	0.500132
N45	N	-1.121676	-0.297523	0.346809
N46	N	-0.621676	0.202477	0.846809
C47	C	-1.209299	0.142144	0.000159
C48	C	-0.709299	0.642144	0.500159
C49	C	-1.206673	0.273429	0.000148
C50	C	-0.706673	0.773429	0.500148
C51	C	-1.034038	0.262814	0.000112
C52	C	-0.534038	0.762814	0.500112
C53	C	-1.036664	0.131532	0.000112
C54	C	-0.536664	0.631532	0.500112
C55	C	-1.296932	0.081813	0.000190
C56	C	-0.796932	0.581813	0.500190
C57	C	-1.381941	0.152758	0.000207
C58	C	-0.881941	0.652758	0.500207
C59	C	-1.379315	0.284043	0.000197
C60	C	-0.879315	0.784043	0.500197
C61	C	-1.291681	0.344383	0.000169
C62	C	-0.791681	0.844383	0.500169
N63	N	-1.121675	-0.297500	-0.346520
N64	N	-0.621675	0.202500	0.153480
C65	C	-1.185618	-0.219340	0.423472
C66	C	-0.685618	0.280660	0.923472
C67	C	-1.185616	-0.219324	0.576808
C68	C	-0.685616	0.280676	1.076808
C69	C	-1.057725	-0.375686	0.576806
C70	C	-0.557725	0.124314	1.076806
C71	C	-1.057724	-0.375694	0.423472
C72	C	-0.557724	0.124306	0.923472
C73	C	-1.249570	-0.141169	0.346809
C74	C	-0.749570	0.358831	0.846809
C75	C	-1.313518	-0.062980	0.423472
C76	C	-0.813518	0.437020	0.923472
C77	C	-1.313516	-0.062965	0.576809
C78	C	-0.813516	0.437035	1.076809
C79	C	-1.249565	-0.141138	0.653482
C80	C	-0.749565	0.358862	1.153482
H81	H	-0.624998	-0.445725	0.000129
H82	H	-0.124998	0.054275	0.500129
O83	O	-0.608026	-0.117626	0.000140
O84	O	-0.108026	0.382374	0.500140
H85	H	-0.529137	-0.126364	0.000138
H86	H	-0.029137	0.373636	0.500138
O87	O	-0.944985	0.055005	0.000100
O88	O	-0.444985	0.555005	0.500100
H89	H	-0.942058	-0.005067	0.099381
H90	H	-0.442058	0.494933	0.599381
O91	O	-1.299761	-0.059786	0.000198
O92	O	-0.799761	0.440214	0.500198
H93	H	-1.374976	-0.089822	0.000212
H94	H	-0.874976	0.410178	0.500212
O95	O	-1.382493	0.021355	0.659491
O96	O	-0.882493	0.521355	1.159491
H97	H	-1.369785	0.120691	0.630039
H98	H	-0.869785	0.620691	1.130039
O99	O	-0.988766	-0.460023	0.659487
O100	O	-0.488766	0.039977	1.159487
H101	H	-0.942320	-0.401931	0.729356
H102	H	-0.442320	0.098069	1.229356
H103	H	-1.453289	0.103620	0.000194
H104	H	-0.953289	0.603620	0.500194
O105	O	-1.470994	0.360568	0.000222
O106	O	-0.970994	0.860568	0.500222
H107	H	-1.532368	0.296556	0.000258
H108	H	-1.032368	0.796556	0.500258
O109	O	-1.288843	0.485984	0.000160
O110	O	-0.788843	0.985984	0.500160
H111	H	-1.362673	0.525183	0.000182
H112	H	-0.862673	1.025183	0.500182
H113	H	-0.962690	0.311954	0.000091
H114	H	-0.462690	0.811954	0.500091
H115	H	-1.249580	-0.141177	0.221954
H116	H	-0.749580	0.358823	0.721954
H117	H	-1.365580	0.000674	0.361036
H118	H	-0.865580	0.500674	0.861036
H119	H	-1.005656	-0.439357	0.361052
H120	H	-0.505656	0.060643	0.861052
O121	O	-1.249559	-0.141128	0.818869
O122	O	-0.749559	0.358872	1.318869
H123	H	-1.304769	-0.073632	0.859301
H124	H	-0.804769	0.426368	1.359301
