data_functionalizedCrystal
_audit_creation_method	'MofGen! by Chris Wilmer'
_symmetry_space_group_name_H-M	'P1'
_symmetry_Int_Tables_number	1
_symmetry_cell_setting	triclinic
loop_
_symmetry_equiv_pos_as_xyz
  x,y,z
_cell_length_a	25.639243
_cell_length_b	25.639239
_cell_length_c	25.639233
_cell_angle_alpha	89.981253
_cell_angle_beta	90.015962
_cell_angle_gamma	89.958590
loop_
_atom_site_label
_atom_site_type_symbol
_atom_site_fract_x
_atom_site_fract_y
_atom_site_fract_z
Zn1	Zn	0.799225	0.208176	0.295656
Zn2	Zn	0.799149	0.295595	0.208220
Zn3	Zn	0.711801	0.208180	0.208229
Zn4	Zn	0.711746	0.295587	0.295619
O5	O	0.755480	0.251885	0.251931
O6	O	0.872380	0.219775	0.284069
O7	O	0.787553	0.284004	0.135056
O8	O	0.723453	0.135014	0.219846
O9	O	0.872324	0.284001	0.219830
O10	O	0.787683	0.135012	0.284077
O11	O	0.723379	0.219781	0.135063
O12	O	0.638629	0.219772	0.219810
O13	O	0.723360	0.283987	0.368789
O14	O	0.638589	0.283990	0.284016
O15	O	0.787630	0.219767	0.368816
O16	O	0.787499	0.368759	0.219795
O17	O	0.723286	0.368753	0.284007
C18	C	0.619638	0.251881	0.251910
C19	C	0.561524	0.251892	0.251914
C20	C	0.201184	0.218495	0.285436
C21	C	0.146580	0.218494	0.285439
O22	O	0.118363	0.190088	0.313915
N23	N	0.119241	0.251883	0.251945
C24	C	0.146510	0.285271	0.218443
O25	O	0.118242	0.313670	0.189954
C26	C	0.201113	0.285268	0.218437
C27	C	0.228449	0.251881	0.251937
C28	C	0.228520	0.185109	0.318932
C29	C	0.283121	0.185111	0.318930
C30	C	0.310385	0.218497	0.285431
C31	C	0.283049	0.251882	0.251934
C32	C	0.228380	0.318653	0.184932
C33	C	0.282987	0.318647	0.184929
C34	C	0.310323	0.285260	0.218429
C35	C	0.364915	0.285270	0.218432
N36	N	0.392253	0.251881	0.251926
C37	C	0.364989	0.218494	0.285425
C38	C	0.031839	0.285273	0.218456
C39	C	-0.022763	0.285279	0.218464
C40	C	-0.022689	0.218501	0.285460
C41	C	0.031914	0.218499	0.285454
C42	C	0.059178	0.251884	0.251950
C43	C	0.479654	0.218500	0.285417
C44	C	0.534259	0.218506	0.285413
C45	C	0.534180	0.285281	0.218415
C46	C	0.479580	0.285278	0.218421
C47	C	0.452318	0.251883	0.251924
O48	O	0.393166	0.313659	0.189969
O49	O	0.393263	0.190095	0.313904
C50	C	0.755392	0.387727	0.251907
C51	C	0.755403	0.445841	0.251914
C52	C	0.755497	0.251875	0.388304
C53	C	0.755504	0.251871	0.446418
C54	C	0.891853	0.251888	0.251952
C55	C	0.949967	0.251890	0.251961
C56	C	0.755583	0.115512	0.251967
C57	C	0.755627	0.057397	0.251982
C58	C	0.789004	0.806195	0.218553
C59	C	0.789024	0.860799	0.218560
O60	O	0.817502	0.889028	0.190169
N61	N	0.755572	0.888124	0.251966
C62	C	0.722102	0.860841	0.285371
O63	O	0.693651	0.889096	0.313786
C64	C	0.722085	0.806238	0.285366
C65	C	0.755535	0.778916	0.251954
C66	C	0.822452	0.778873	0.185144
C67	C	0.822431	0.724273	0.185137
C68	C	0.788962	0.696994	0.218538
C69	C	0.755514	0.724315	0.251946
C70	C	0.688617	0.778956	0.318773
C71	C	0.688603	0.724349	0.318765
C72	C	0.722053	0.697027	0.285354
C73	C	0.722024	0.642436	0.285340
N74	N	0.755475	0.615112	0.251934
C75	C	0.788944	0.642390	0.218533
C76	C	0.722141	0.975511	0.285379
C77	C	0.722155	1.030114	0.285381
C78	C	0.789078	1.030068	0.218571
C79	C	0.789061	0.975465	0.218566
C80	C	0.755593	0.948187	0.251973
C81	C	0.788897	0.527725	0.218519
C82	C	0.788872	0.473120	0.218513
C83	C	0.721951	0.473170	0.285325
C84	C	0.721974	0.527771	0.285329
C85	C	0.755452	0.555047	0.251925
O86	O	0.693562	0.614173	0.313718
O87	O	0.817396	0.614128	0.190127
C88	C	0.755494	0.251856	0.116089
C89	C	0.755588	0.251713	0.057975
C90	C	0.789012	0.218333	0.806801
C91	C	0.789019	0.218318	0.861405
O92	O	0.817466	0.189864	0.889659
N93	N	0.755562	0.251749	0.888701
C94	C	0.722093	0.285192	0.861389
O95	O	0.693636	0.313626	0.889620
C96	C	0.722084	0.285204	0.806786
C97	C	0.755547	0.251775	0.779493
C98	C	0.822472	0.184906	0.779508
C99	C	0.822466	0.184921	0.724908
C100	C	0.789001	0.218363	0.697600
C101	C	0.755541	0.251790	0.724893
C102	C	0.688613	0.318644	0.779475
C103	C	0.688607	0.318653	0.724868
C104	C	0.722069	0.285223	0.697576
C105	C	0.722070	0.285247	0.642984
N106	N	0.755526	0.251817	0.615689
C107	C	0.788992	0.218375	0.642996
C108	C	0.722113	0.285165	0.976060
C109	C	0.722124	0.285157	1.030662
C110	C	0.789049	0.218282	1.030675
C111	C	0.789041	0.218293	0.976071
C112	C	0.755570	0.251735	0.948764
C113	C	0.788977	0.218410	0.528331
C114	C	0.788970	0.218429	0.473726
C115	C	0.722043	0.285302	0.473719
C116	C	0.722052	0.285285	0.528319
C117	C	0.755521	0.251834	0.555624
O118	O	0.693635	0.313686	0.614696
O119	O	0.817439	0.189941	0.614759
H120	H	0.305183	0.345834	0.157644
C121	C	-0.052533	0.321514	0.182155
C122	C	-0.106189	0.314383	0.189331
C123	C	-0.133627	0.347758	0.155895
H124	H	-0.043652	0.313844	0.147018
H125	H	-0.043635	0.356665	0.189750
H126	H	-0.115084	0.279240	0.181732
H127	H	-0.115086	0.322057	0.224462
H128	H	-0.124729	0.382909	0.163490
H129	H	-0.124741	0.340086	0.120760
H130	H	-0.170036	0.342928	0.160763
H131	H	0.054034	0.312464	0.191174
H132	H	0.457464	0.191305	0.312697
C133	C	0.825261	0.557240	0.182192
C134	C	0.854535	0.521617	0.152926
C135	C	0.888030	0.548786	0.119449
H136	H	0.848086	0.578509	0.202154
H137	H	0.805296	0.578560	0.159365
H138	H	0.874499	0.500305	0.175751
H139	H	0.831723	0.500346	0.132954
H140	H	0.868065	0.570106	0.096622
H141	H	0.910852	0.570054	0.139415
H142	H	0.907893	0.524620	0.099585
C143	C	0.825294	0.945776	0.182229
C144	C	0.795706	0.914482	0.148676
C145	C	0.829068	0.887134	0.115189
H146	H	0.848067	0.924402	0.202187
H147	H	0.845218	0.969831	0.162307
H148	H	0.775791	0.890430	0.168595
H149	H	0.772934	0.935843	0.128706
H150	H	0.848991	0.911188	0.095267
H151	H	0.851839	0.865762	0.135152
H152	H	0.808997	0.865901	0.092416
H153	H	0.054168	0.191310	0.312732
C154	C	0.858723	0.148528	0.809176
C155	C	0.829156	0.114993	0.840514
C156	C	0.862537	0.081469	0.867841
H157	H	0.881506	0.168460	0.830519
H158	H	0.878635	0.128594	0.785109
H159	H	0.809253	0.134924	0.864578
H160	H	0.806374	0.095049	0.819184
H161	H	0.882449	0.061536	0.843774
H162	H	0.885319	0.101406	0.889181
H163	H	0.842480	0.058709	0.889103
C164	C	0.449832	0.321445	0.182023
C165	C	0.418490	0.291790	0.148572
C166	C	0.391079	0.325086	0.115035
H167	H	0.473834	0.341341	0.162024
H168	H	0.428488	0.344247	0.201965
H169	H	0.439832	0.268996	0.128631
H170	H	0.394479	0.271895	0.168557
H171	H	0.369735	0.347888	0.134978
H172	H	0.415084	0.344980	0.095040
H173	H	0.369807	0.304970	0.092338
C174	C	0.858783	0.694545	0.148950
C175	C	0.892256	0.663141	0.178583
C176	C	0.925749	0.635747	0.145266
H177	H	0.878768	0.718557	0.129050
H178	H	0.838810	0.673245	0.126153
H179	H	0.912228	0.684440	0.201371
H180	H	0.872286	0.639120	0.198482
H181	H	0.905776	0.614446	0.122468
H182	H	0.945730	0.659762	0.125367
H183	H	0.948461	0.614432	0.165366
H184	H	0.816288	0.191071	0.953853
H185	H	0.816221	0.191207	0.451507
H186	H	0.661376	0.801192	0.345978
C187	C	0.858812	0.148564	0.695374
C188	C	0.888106	0.119267	0.730985
C189	C	0.921589	0.085760	0.703803
H190	H	0.881626	0.168506	0.674072
H191	H	0.838837	0.125758	0.674086
H192	H	0.908080	0.142070	0.752265
H193	H	0.865307	0.099314	0.752289
H194	H	0.901614	0.062954	0.682514
H195	H	0.944399	0.105707	0.682501
H196	H	0.941466	0.065875	0.727961
C197	C	-0.052203	0.182228	0.321885
C198	C	-0.016581	0.152993	0.351230
C199	C	-0.043751	0.119581	0.384793
H200	H	-0.073496	0.159375	0.301982
H201	H	-0.073500	0.202251	0.344659
H202	H	0.004707	0.132971	0.328459
H203	H	0.004714	0.175833	0.371144
H204	H	-0.065047	0.139604	0.407566
H205	H	-0.065043	0.096731	0.364885
H206	H	-0.019585	0.099744	0.404711
H207	H	0.694738	0.550017	0.312538
C208	C	0.685668	0.321602	0.557860
C209	C	0.656353	0.350885	0.522255
C210	C	0.622822	0.384338	0.549445
H211	H	0.705594	0.344423	0.579168
H212	H	0.662875	0.301606	0.579144
H213	H	0.679144	0.370880	0.500980
H214	H	0.636417	0.328078	0.500947
H215	H	0.600029	0.364342	0.570729
H216	H	0.642752	0.407156	0.570752
H217	H	0.602925	0.404207	0.525291
C218	C	0.825358	1.059686	0.182241
C219	C	0.814021	1.046481	0.130483
C220	C	0.847424	1.073771	0.097013
H221	H	0.860499	1.050728	0.189864
H222	H	0.820559	1.096119	0.187017
H223	H	0.818825	1.010057	0.125710
H224	H	0.778887	1.055441	0.122844
H225	H	0.842625	1.110204	0.101789
H226	H	0.882563	1.064811	0.104640
H227	H	0.839734	1.064819	0.061892
C228	C	0.825467	0.182033	1.060304
C229	C	0.877191	0.193425	1.047046
C230	C	0.910750	0.160050	1.074338
H231	H	0.817907	0.146886	1.051382
H232	H	0.820709	0.186821	1.096737
H233	H	0.881947	0.188633	1.010622
H234	H	0.884766	0.228565	1.055970
H235	H	0.905992	0.164838	1.110771
H236	H	0.903186	0.124906	1.065414
H237	H	0.945849	0.167778	1.065350
C238	C	0.563883	0.321469	0.182064
C239	C	0.617552	0.314308	0.189224
C240	C	0.644931	0.347627	0.155738
H241	H	0.554979	0.356633	0.189614
H242	H	0.554959	0.313756	0.146938
H243	H	0.626472	0.322024	0.224342
H244	H	0.626471	0.279150	0.181670
H245	H	0.636007	0.339914	0.120612
H246	H	0.636023	0.382789	0.163291
H247	H	0.681348	0.342769	0.160588
C248	C	0.652369	0.355009	0.809121
C249	C	0.681947	0.388531	0.840457
C250	C	0.648576	0.422047	0.867765
H251	H	0.629590	0.335071	0.830464
H252	H	0.632451	0.374952	0.785042
H253	H	0.701856	0.368591	0.864532
H254	H	0.704724	0.408481	0.819127
H255	H	0.628658	0.441990	0.843686
H256	H	0.625799	0.402104	0.889105
H257	H	0.668639	0.444799	0.889025
H258	H	0.694798	0.312531	0.451475
H259	H	0.305373	0.157922	0.346208
C260	C	0.563965	0.182341	0.321850
C261	C	0.595291	0.211994	0.355317
C262	C	0.622656	0.178698	0.388892
H263	H	0.585319	0.159519	0.301952
H264	H	0.539920	0.162466	0.341830
H265	H	0.619333	0.231860	0.335339
H266	H	0.573950	0.234814	0.375227
H267	H	0.598611	0.158823	0.408872
H268	H	0.644007	0.155878	0.368990
H269	H	0.643910	0.198813	0.411607
C270	C	0.199019	0.148840	0.355366
C271	C	0.234657	0.119616	0.384704
C272	C	0.207504	0.086205	0.418282
H273	H	0.177723	0.125979	0.335474
H274	H	0.177727	0.168864	0.378143
H275	H	0.255940	0.099594	0.361929
H276	H	0.255954	0.142463	0.404606
H277	H	0.186212	0.106229	0.441059
H278	H	0.186208	0.063348	0.398386
H279	H	0.231679	0.066376	0.438195
H280	H	0.206133	0.345840	0.157652
C281	C	0.685740	0.321476	1.060197
C282	C	0.656425	0.350755	1.024588
C283	C	0.622894	0.384211	1.051773
H284	H	0.705665	0.344300	1.081501
H285	H	0.662946	0.301482	1.081483
H286	H	0.679216	0.370747	1.003310
H287	H	0.636489	0.327945	1.003282
H288	H	0.600101	0.364217	1.073060
H289	H	0.642824	0.407031	1.073077
H290	H	0.602997	0.404077	1.027617
C291	C	0.685712	0.321396	0.946389
C292	C	0.652203	0.291806	0.915049
C293	C	0.618660	0.325163	0.887717
H294	H	0.705631	0.344194	0.925047
H295	H	0.665761	0.341293	0.970453
H296	H	0.672152	0.271918	0.890987
H297	H	0.632273	0.269009	0.936378
H298	H	0.598709	0.345060	0.911782
H299	H	0.638583	0.347960	0.866378
H300	H	0.595917	0.305091	0.866454
C301	C	0.652254	0.355027	0.695316
C302	C	0.622966	0.384309	0.730910
C303	C	0.589482	0.417830	0.703707
H304	H	0.629437	0.335097	0.674007
H305	H	0.672228	0.377842	0.674033
H306	H	0.602994	0.361496	0.752184
H307	H	0.645769	0.404250	0.752220
H308	H	0.609456	0.440646	0.682423
H309	H	0.566668	0.397896	0.682399
H310	H	0.569610	0.437705	0.727853
H311	H	0.816111	0.450876	0.191304
H312	H	0.661350	0.702142	0.345971
H313	H	0.694912	1.052354	0.312583
C314	C	0.858811	0.808390	0.148817
C315	C	0.888086	0.772765	0.119554
C316	C	0.921579	0.799932	0.086074
H317	H	0.881636	0.829662	0.168777
H318	H	0.838845	0.829707	0.125988
H319	H	0.908051	0.751457	0.142380
H320	H	0.865275	0.751492	0.099584
H321	H	0.901613	0.821250	0.063245
H322	H	0.944401	0.821204	0.106037
H323	H	0.941443	0.775765	0.066212
C324	C	0.685739	0.945992	0.321666
C325	C	0.656441	0.981614	0.350909
C326	C	0.622898	0.954443	0.384337
H327	H	0.705655	0.924659	0.344513
H328	H	0.662935	0.924736	0.301654
H329	H	0.679242	1.002861	0.370920
H330	H	0.636514	1.002948	0.328075
H331	H	0.600094	0.933187	0.364325
H332	H	0.642818	0.933111	0.407182
H333	H	0.603012	0.978608	0.404179
H334	H	0.694699	0.450951	0.312518
C335	C	0.825374	0.182075	0.557877
C336	C	0.854681	0.152818	0.522279
C337	C	0.888222	0.119350	0.549477
H338	H	0.805457	0.159238	0.579179
H339	H	0.848172	0.202059	0.579168
H340	H	0.831886	0.132836	0.500998
H341	H	0.874610	0.175642	0.500977
H342	H	0.911021	0.139333	0.570768
H343	H	0.868301	0.096516	0.570778
H344	H	0.908115	0.099499	0.525329
