data_functionalizedCrystal
_audit_creation_method	'MofGen! by Chris Wilmer'
_symmetry_space_group_name_H-M	'P1'
_symmetry_Int_Tables_number	1
_symmetry_cell_setting	triclinic
loop_
_symmetry_equiv_pos_as_xyz
  x,y,z
_cell_length_a	17.077404
_cell_length_b	12.759400
_cell_length_c	17.077404
_cell_angle_alpha	89.991553
_cell_angle_beta	90.008318
_cell_angle_gamma	89.978115
loop_
_atom_site_label
_atom_site_type_symbol
_atom_site_fract_x
_atom_site_fract_y
_atom_site_fract_z
Zn1	Zn	1.199975	0.418442	0.443856
Zn2	Zn	1.199910	0.594089	0.312596
Zn3	Zn	1.068732	0.418425	0.312604
Zn4	Zn	1.068677	0.594080	0.443819
O5	O	1.134324	0.506259	0.378219
O6	O	1.309813	0.441752	0.426456
O7	O	1.182505	0.570783	0.202750
O8	O	1.086192	0.271406	0.330034
O9	O	1.309766	0.570799	0.330020
O10	O	1.182615	0.271419	0.426464
O11	O	1.086129	0.441724	0.202756
O12	O	0.958878	0.441715	0.329998
O13	O	1.086098	0.570785	0.553671
O14	O	0.958838	0.570768	0.426401
O15	O	1.182562	0.441744	0.553698
O16	O	1.182452	0.741109	0.329984
O17	O	1.086036	0.741102	0.426393
C18	C	0.930376	0.506240	0.378197
C19	C	0.843126	0.506257	0.378207
C20	C	0.802135	0.573556	0.428323
C21	C	0.720155	0.573558	0.428336
C22	C	0.679166	0.506266	0.378227
C23	C	0.720163	0.438959	0.328108
C24	C	0.802142	0.438953	0.328100
C25	C	0.549293	0.438980	0.328127
C26	C	0.467308	0.438988	0.328134
C27	C	0.467306	0.573586	0.428363
C28	C	0.549285	0.573579	0.428355
C29	C	0.590275	0.506274	0.378235
C30	C	1.134252	0.779226	0.378201
C31	C	1.134293	0.896003	0.378220
C32	C	1.184470	0.950792	0.428471
C33	C	1.184494	1.060516	0.428488
C34	C	1.084164	1.060652	0.327996
C35	C	1.084136	0.950930	0.327983
C36	C	1.234627	0.895864	0.478707
C37	C	1.284809	0.950653	0.528962
C38	C	1.284833	1.060377	0.528979
C39	C	1.234676	1.115312	0.478741
C40	C	1.339068	0.506279	0.378241
C41	C	1.426318	0.506287	0.378251
C42	C	1.134389	1.232226	0.378249
C43	C	1.134345	1.115449	0.378249
C44	C	1.134331	0.506265	0.582963
C45	C	1.134334	0.506268	0.670213
C46	C	1.184557	0.439088	0.711218
C47	C	1.184550	0.439086	0.793199
C48	C	1.134324	0.506271	0.834172
C49	C	1.084097	0.573455	0.793161
C50	C	1.084100	0.573450	0.711182
C51	C	1.084095	0.573461	0.964031
C52	C	1.084092	0.573468	1.046016
C53	C	1.184545	0.439098	1.046048
C54	C	1.184548	0.439093	0.964069
C55	C	1.134321	0.506278	0.923063
C56	C	1.134312	0.506280	1.174271
C57	C	1.134315	0.506288	1.087021
H58	H	0.686784	0.628361	0.469145
C59	C	0.847233	0.364923	0.272969
C60	C	0.903569	0.410306	0.211277
C61	C	0.948658	0.336268	0.156148
C62	C	0.937412	0.216848	0.162710
C63	C	0.881073	0.171459	0.224405
C64	C	0.835984	0.245496	0.279535
H65	H	0.911897	0.498713	0.206417
H66	H	0.990364	0.369869	0.110477
H67	H	0.970790	0.162041	0.121900
H68	H	0.872746	0.083051	0.229266
H69	H	0.794278	0.211895	0.325205
H70	H	1.043277	0.906321	0.287065
C71	C	1.340028	1.120648	0.584257
C72	C	1.305991	1.196084	0.645868
C73	C	1.361191	1.256353	0.701144
C74	C	1.450429	1.241188	0.694809
C75	C	1.484471	1.165749	0.633195
C76	C	1.429270	1.105480	0.577919
H77	H	1.239928	1.207313	0.650561
H78	H	1.335991	1.312198	0.746755
H79	H	1.491292	1.285803	0.735727
H80	H	1.550534	1.154520	0.628502
H81	H	1.454471	1.049635	0.532308
H82	H	1.043329	1.105389	0.287094
C83	C	1.028858	0.647352	0.666070
C84	C	0.939624	0.638773	0.677324
C85	C	0.884379	0.712673	0.632211
C86	C	0.918369	0.795152	0.575844
C87	C	1.007608	0.803734	0.564587
C88	C	1.062853	0.729834	0.609700
H89	H	0.914458	0.577714	0.719053
H90	H	0.818318	0.706319	0.640545
H91	H	0.877473	0.849857	0.542448
H92	H	1.032774	0.864793	0.522858
H93	H	1.128914	0.736188	0.601366
H94	H	1.234691	1.204657	0.478768
C95	C	1.239797	0.365185	0.838301
C96	C	1.329031	0.373771	0.827045
C97	C	1.384280	0.299862	0.872145
C98	C	1.350294	0.217366	0.928501
C99	C	1.261055	0.208776	0.939760
C100	C	1.205807	0.282685	0.894659
H101	H	1.354194	0.434843	0.785325
H102	H	1.450340	0.306222	0.863811
H103	H	1.391192	0.162654	0.961887
H104	H	1.235893	0.147704	0.981480
H105	H	1.139746	0.276325	0.902994
H106	H	0.582655	0.628380	0.469153
H107	H	1.043182	0.628154	0.930647
C108	C	1.339977	0.890231	0.584223
C109	C	1.333508	0.905280	0.673457
C110	C	1.388678	0.844861	0.728720
C111	C	1.450317	0.769393	0.694749
C112	C	1.456789	0.754341	0.605511
C113	C	1.401619	0.814759	0.550248
H114	H	1.287877	0.961149	0.698608
H115	H	1.383887	0.856005	0.794780
H116	H	1.491157	0.724668	0.735658
H117	H	1.502420	0.698472	0.580360
H118	H	1.406410	0.803616	0.484188
H119	H	0.835502	0.628357	0.469125
C120	C	1.239795	0.365190	1.091150
C121	C	1.239793	0.365185	1.181323
C122	C	1.295044	0.291286	1.226429
C123	C	1.350297	0.217392	1.181361
C124	C	1.350301	0.217395	1.091182
C125	C	1.295050	0.291294	1.046077
H126	H	1.198889	0.419888	1.214690
H127	H	1.295041	0.291284	1.293186
H128	H	1.391197	0.162687	1.214751
H129	H	1.391205	0.162692	1.057816
H130	H	1.295053	0.291296	0.979320
C131	C	0.594388	0.364942	0.272999
C132	C	0.583147	0.245521	0.279561
C133	C	0.628244	0.171488	0.224435
C134	C	0.684582	0.216876	0.162746
C135	C	0.695825	0.336304	0.156182
C136	C	0.650728	0.410337	0.211308
H137	H	0.541440	0.211916	0.325229
H138	H	0.619920	0.083079	0.229295
H139	H	0.717965	0.162072	0.121939
H140	H	0.737532	0.369908	0.110514
H141	H	0.659052	0.498745	0.206449
C142	C	1.028853	0.647361	0.838236
C143	C	1.062847	0.729848	0.894585
C144	C	1.007607	0.803759	0.939661
C145	C	0.918371	0.795182	0.928387
C146	C	0.884372	0.712691	0.872035
C147	C	0.939613	0.638781	0.826960
H148	H	1.128909	0.736200	0.902933
H149	H	1.032776	0.864824	0.981376
H150	H	0.877479	0.849895	0.961755
H151	H	0.818310	0.706339	0.863688
H152	H	0.914443	0.577715	0.785244
C153	C	1.028872	0.647407	1.091089
C154	C	0.973640	0.721330	1.045989
C155	C	0.918435	0.795290	1.091062
C156	C	0.918461	0.795327	1.181236
C157	C	0.973694	0.721402	1.226341
C158	C	1.028900	0.647442	1.181268
H159	H	0.973619	0.721304	0.979232
H160	H	0.877547	0.850014	1.057671
H161	H	0.877594	0.850077	1.214602
H162	H	0.973715	0.721427	1.293097
H163	H	1.069788	0.592717	1.214658
H164	H	1.234615	0.806521	0.478698
H165	H	0.433927	0.628386	0.469175
H166	H	0.433938	0.384180	0.287340
H167	H	1.225451	0.384391	0.930710
H168	H	1.225459	0.384381	0.677864
H169	H	0.686784	0.384164	0.287312
