data_functionalizedCrystal
_audit_creation_method	'MofGen! by Chris Wilmer'
_symmetry_space_group_name_H-M	'P1'
_symmetry_Int_Tables_number	1
_symmetry_cell_setting	triclinic
loop_
_symmetry_equiv_pos_as_xyz
  x,y,z
_cell_length_a	19.077105
_cell_length_b	17.640280
_cell_length_c	19.076919
_cell_angle_alpha	98.508881
_cell_angle_beta	89.923776
_cell_angle_gamma	76.093206
loop_
_atom_site_label
_atom_site_type_symbol
_atom_site_fract_x
_atom_site_fract_y
_atom_site_fract_z
Zn1	Zn	1.129876	-0.382634	0.374495
Zn2	Zn	1.158314	-0.509803	0.235079
Zn3	Zn	1.015111	-0.372039	0.254114
Zn4	Zn	1.036046	-0.509326	0.347913
O5	O	1.084837	-0.443450	0.302900
O6	O	1.232847	-0.404137	0.359159
O7	O	1.142458	-0.487294	0.140002
O8	O	1.009672	-0.262768	0.289173
O9	O	1.253740	-0.497568	0.256731
O10	O	1.093989	-0.270552	0.377617
O11	O	1.037247	-0.386079	0.153987
O12	O	0.918689	-0.385616	0.263398
O13	O	1.045353	-0.496755	0.449041
O14	O	0.934070	-0.486481	0.332312
O15	O	1.114289	-0.403674	0.468571
O16	O	1.162758	-0.620416	0.230956
O17	O	1.072929	-0.620066	0.313855
C18	C	0.900659	-0.434848	0.297037
C19	C	0.821869	-0.431187	0.294542
C20	C	0.792897	-0.482056	0.329166
C21	C	0.718864	-0.478606	0.326827
C22	C	0.673806	-0.424291	0.289859
C23	C	0.702782	-0.373417	0.255233
C24	C	0.776813	-0.376864	0.257577
C25	C	0.451534	-0.408341	0.279014
C26	C	0.377499	-0.404900	0.276671
C27	C	0.393586	-0.510088	0.348266
C28	C	0.467618	-0.513532	0.350603
C29	C	0.496587	-0.462656	0.315981
N30	N	0.598132	-0.420765	0.287465
N31	N	0.572258	-0.466178	0.318379
C32	C	1.123220	-0.648940	0.267471
C33	C	1.139704	-0.736853	0.252340
C34	C	0.959888	-1.025193	0.418115
C35	C	0.975380	-1.107800	0.403874
C36	C	1.068973	-1.108106	0.317643
C37	C	1.053491	-1.025498	0.331879
C38	C	0.998948	-0.984048	0.382115
C39	C	1.092551	-0.984353	0.295879
C40	C	1.077068	-0.901751	0.310111
C41	C	1.022525	-0.860295	0.360343
C42	C	0.983465	-0.901447	0.396347
C43	C	1.147091	-1.025804	0.245640
C44	C	1.186150	-0.984658	0.209640
C45	C	1.170671	-0.902056	0.223875
C46	C	1.116128	-0.860600	0.274107
C47	C	1.209731	-0.860904	0.187872
C48	C	1.194248	-0.778303	0.202104
C49	C	1.100645	-0.777998	0.288339
C50	C	1.269734	-0.452087	0.308787
C51	C	1.348526	-0.455768	0.311295
C52	C	1.078984	-0.451343	0.484821
C53	C	1.076490	-0.454707	0.562344
C54	C	1.046323	-0.237160	0.338484
C55	C	1.029910	-0.149252	0.353647
C56	C	1.090696	-0.435533	0.121699
C57	C	1.093286	-0.431953	0.044218
C58	C	1.111208	-0.407827	0.608934
C59	C	1.108856	-0.410984	0.681775
C60	C	1.071789	-0.461025	0.708026
C61	C	1.037067	-0.507907	0.661431
C62	C	1.039416	-0.504745	0.588591
C63	C	1.060912	-0.475673	0.924783
C64	C	1.058568	-0.478833	0.997629
C65	C	1.130356	-0.381909	1.017969
C66	C	1.132705	-0.378755	0.945126
C67	C	1.097980	-0.425634	0.898538
N68	N	1.069386	-0.464255	0.782482
N69	N	1.100379	-0.422399	0.824084
H70	H	1.056235	-0.744249	0.329252
O71	O	0.511437	-0.566185	0.386578
C72	C	0.544403	-0.525182	0.440808
H73	H	0.545075	-0.464656	0.426985
H74	H	0.512609	-0.517493	0.493086
C75	C	0.621630	-0.646878	0.465081
C76	C	0.622461	-0.572542	0.448099
H77	H	0.669779	-0.676093	0.469581
H78	H	0.599419	-0.674504	0.428546
H79	H	0.595132	-0.640460	0.508644
H80	H	0.648951	-0.578961	0.404533
H81	H	0.644679	-0.544919	0.484626
H82	H	1.158626	-0.343742	1.055908
H83	H	1.028383	-0.519584	1.018998
O84	O	1.147310	-0.359330	0.583388
C85	C	1.202850	-0.404661	0.534933
H86	H	1.218156	-0.468110	0.546277
H87	H	1.183219	-0.403966	0.478560
C88	C	1.250562	-0.291480	0.528898
C89	C	1.269365	-0.369408	0.542835
H90	H	1.291590	-0.269733	0.533769
H91	H	1.213142	-0.260938	0.561541
H92	H	1.234202	-0.290912	0.481921
H93	H	1.285715	-0.369974	0.589813
H94	H	1.306789	-0.399949	0.510200
O95	O	0.479686	-0.358850	0.245494
C96	C	0.511721	-0.311568	0.295425
H97	H	0.486759	-0.308123	0.350484
H98	H	0.572321	-0.338740	0.295354
C99	C	0.529231	-0.232101	0.208064
C100	C	0.498568	-0.227863	0.275687
H101	H	0.521121	-0.180469	0.195888
H102	H	0.507651	-0.263957	0.174423
H103	H	0.579729	-0.254747	0.208013
H104	H	0.448070	-0.205226	0.275735
H105	H	0.520140	-0.196002	0.309328
H106	H	1.226054	-0.744802	0.172788
O107	O	0.365565	-0.559577	0.381919
C108	C	0.421206	-0.608236	0.415070
H109	H	0.475392	-0.612148	0.387700
H110	H	0.421995	-0.582024	0.473307
C111	C	0.341170	-0.686709	0.443202
C112	C	0.407721	-0.691519	0.409581
H113	H	0.332851	-0.738081	0.439819
H114	H	0.303682	-0.653925	0.420870
H115	H	0.341836	-0.664863	0.491730
H116	H	0.407051	-0.713356	0.361052
H117	H	0.445209	-0.724309	0.431905
H118	H	0.943577	-1.141299	0.433202
O119	O	0.333823	-0.352063	0.240754
C120	C	0.375268	-0.307909	0.210683
H121	H	0.426624	-0.308913	0.241390
H122	H	0.390230	-0.334840	0.152941
C123	C	0.267881	-0.220709	0.176643
C124	C	0.330954	-0.221936	0.214361
H125	H	0.240545	-0.167678	0.178909
H126	H	0.239957	-0.250457	0.196900
H127	H	0.280358	-0.243156	0.128528
H128	H	0.318475	-0.199499	0.262477
H129	H	0.358874	-0.192182	0.194113
O130	O	1.142650	-0.365422	0.726930
C131	C	1.175858	-0.320567	0.688143
H132	H	1.186033	-0.350825	0.630710
H133	H	1.138939	-0.258948	0.689928
C134	C	1.235765	-0.276769	0.791483
C135	C	1.248267	-0.313936	0.720944
H136	H	1.280429	-0.272675	0.811717
H137	H	1.213390	-0.306986	0.817616
H138	H	1.204997	-0.225424	0.792961
H139	H	1.279027	-0.365283	0.719467
H140	H	1.270649	-0.283727	0.694812
O141	O	0.659004	-0.320762	0.219231
C142	C	0.626006	-0.361756	0.165022
H143	H	0.660093	-0.424887	0.150587
H144	H	0.569727	-0.362846	0.184332
C145	C	0.578070	-0.242248	0.116952
C146	C	0.619940	-0.319784	0.099218
H147	H	0.574325	-0.216357	0.076362
H148	H	0.600299	-0.214628	0.153475
H149	H	0.531176	-0.243166	0.133044
H150	H	0.666835	-0.318864	0.083135
H151	H	0.597719	-0.347403	0.062691
H152	H	0.800399	-0.335437	0.229387
H153	H	1.113380	-1.141866	0.276739
H154	H	1.009915	-0.793035	0.371925
O155	O	1.168714	-0.330073	0.919750
C156	C	1.198869	-0.289387	0.976490
H157	H	1.167648	-0.287543	1.027959
H158	H	1.257864	-0.321201	0.980958
C159	C	1.232634	-0.206720	0.899691
C160	C	1.194284	-0.204450	0.962906
H161	H	1.229810	-0.154328	0.891311
H162	H	1.212321	-0.234133	0.861463
H163	H	1.281793	-0.233236	0.903422
H164	H	1.145125	-0.177943	0.959170
H165	H	1.214589	-0.177030	1.001133
H166	H	0.939055	-0.867697	0.437259
H167	H	1.032649	-0.513857	0.886858
O168	O	0.906869	-0.985043	0.466923
C169	C	0.875730	-1.039071	0.495671
H170	H	0.885243	-1.096606	0.456877
H171	H	0.901594	-1.051334	0.547974
C172	C	0.782244	-0.933136	0.556471
C173	C	0.793923	-1.003800	0.508821
H174	H	0.731782	-0.911378	0.564585
H175	H	0.803224	-0.896735	0.537105
H176	H	0.803802	-0.943365	0.600051
H177	H	0.772373	-0.993568	0.465238
H178	H	0.772937	-1.040198	0.528179
O179	O	1.162073	-1.106035	0.231702
C180	C	1.151267	-1.129920	0.159501
H181	H	1.112397	-1.079661	0.137854
H182	H	1.205188	-1.145573	0.128403
C183	C	1.166873	-1.264485	0.178470
C184	C	1.119127	-1.202759	0.151885
H185	H	1.147051	-1.309418	0.173771
H186	H	1.174156	-1.248395	0.227113
H187	H	1.211803	-1.277519	0.152552
H188	H	1.074201	-1.189719	0.177809
H189	H	1.111836	-1.218848	0.103246
O190	O	1.239203	-1.024974	0.160934
C191	C	1.292612	-1.076588	0.193902
H192	H	1.290520	-1.054268	0.253267
H193	H	1.282343	-1.138285	0.184802
C194	C	1.370223	-1.107192	0.089102
C195	C	1.367657	-1.079774	0.162014
H196	H	1.416514	-1.109160	0.069430
H197	H	1.334239	-1.072421	0.066889
H198	H	1.361661	-1.158603	0.081528
H199	H	1.376210	-1.028359	0.169587
H200	H	1.403644	-1.114536	0.184228
O201	O	1.262783	-0.901220	0.139164
C202	C	1.316194	-0.952835	0.172130
H203	H	1.314103	-0.930517	0.231495
H204	H	1.305923	-1.014532	0.163028
C205	C	1.393801	-0.983435	0.067327
C206	C	1.391237	-0.956020	0.140240
H207	H	1.440091	-0.985404	0.047655
H208	H	1.357816	-0.948663	0.045116
H209	H	1.385239	-1.034847	0.059752
H210	H	1.399790	-0.904606	0.147814
H211	H	1.427225	-0.990784	0.162452
H212	H	1.006884	-0.548648	0.682810
H213	H	1.011136	-0.542911	0.550659
H214	H	0.829580	-0.526287	0.359267
H215	H	0.695279	-0.520029	0.355021
