data_functionalizedCrystal
_audit_creation_method	'MofGen! by Chris Wilmer'
_symmetry_space_group_name_H-M	'P1'
_symmetry_Int_Tables_number	1
_symmetry_cell_setting	triclinic
loop_
_symmetry_equiv_pos_as_xyz
  x,y,z
_cell_length_a	16.625548
_cell_length_b	12.759400
_cell_length_c	12.759393
_cell_angle_alpha	90.025341
_cell_angle_beta	90.021668
_cell_angle_gamma	90.004115
loop_
_atom_site_label
_atom_site_type_symbol
_atom_site_fract_x
_atom_site_fract_y
_atom_site_fract_z
Zn1	Zn	1.232798	-0.418174	0.594116
Zn2	Zn	1.232744	-0.593893	0.418455
Zn3	Zn	1.097957	-0.418232	0.418445
Zn4	Zn	1.097976	-0.593815	0.594087
O5	O	1.165369	-0.506029	0.506276
O6	O	1.345623	-0.441492	0.570830
O7	O	1.214834	-0.570648	0.271433
O8	O	1.115859	-0.271203	0.441757
O9	O	1.345584	-0.570592	0.441773
O10	O	1.214926	-0.271161	0.570821
O11	O	1.115807	-0.441591	0.271426
O12	O	0.985127	-0.441515	0.441728
O13	O	1.115891	-0.570459	0.741112
O14	O	0.985141	-0.570515	0.570771
O15	O	1.214944	-0.441417	0.741133
O16	O	1.214852	-0.740904	0.441745
O17	O	1.115839	-0.740846	0.570781
C18	C	1.165364	-0.778996	0.506283
C19	C	1.165435	-0.895773	0.506322
C20	C	0.955878	-0.506014	0.506246
C21	C	0.866257	-0.506032	0.506259
C22	C	1.165425	-0.505923	0.780309
C23	C	1.165449	-0.505877	0.897086
C24	C	0.538081	-0.506039	0.506304
C25	C	0.629390	-0.506035	0.506288
C26	C	0.702166	-0.506037	0.506280
C27	C	0.793481	-0.506031	0.506266
C28	C	1.375678	-0.506044	0.506306
C29	C	1.465299	-0.506051	0.506319
C30	C	1.165396	-0.231995	0.506291
C31	C	1.165408	-0.115219	0.506297
C32	C	1.113839	-0.060377	0.439104
C33	C	1.113850	0.049347	0.439119
C34	C	1.217006	0.049378	0.573523
C35	C	1.216990	-0.060344	0.573513
C36	C	1.054285	-0.060394	0.361504
C37	C	1.054296	0.049330	0.361518
C38	C	1.165359	-0.506058	0.233308
C39	C	1.165491	-0.505808	0.116532
C40	C	1.217034	-0.438679	0.951961
C41	C	1.217053	-0.438641	1.061685
C42	C	1.113901	-0.573009	1.061650
C43	C	1.113879	-0.573041	0.951928
C44	C	1.276590	-0.361105	0.951982
C45	C	1.276609	-0.361067	1.061706
H46	H	1.258978	-0.104992	0.628233
C47	C	1.057958	-0.646163	0.892409
C48	C	1.075506	-0.750113	0.919063
C49	C	1.024010	-0.817501	0.864248
H50	H	1.003764	-0.630898	0.910349
H51	H	1.065330	-0.636637	0.819197
H52	H	1.068128	-0.759635	0.992259
H53	H	1.129691	-0.765411	0.901120
H54	H	1.031381	-0.807975	0.791035
H55	H	0.969819	-0.802227	0.882192
H56	H	1.035913	-0.888039	0.882317
C57	C	1.057783	-0.645802	1.121140
C58	C	0.978002	-0.622908	1.094460
C59	C	0.926284	-0.689937	1.149250
H60	H	1.069465	-0.716438	1.103197
H61	H	1.065128	-0.636149	1.194356
H62	H	0.970661	-0.632570	1.021260
H63	H	0.966295	-0.552285	1.112406
H64	H	0.933629	-0.680283	1.222466
H65	H	0.937973	-0.760568	1.131303
H66	H	0.872147	-0.674406	1.131163
H67	H	1.071014	0.079078	0.280155
H68	H	1.259870	-0.279741	0.922216
C69	C	1.355744	-0.399962	0.906799
C70	C	1.408202	-0.425682	0.988712
C71	C	1.481129	-0.461469	0.947129
H72	H	1.346258	-0.460266	0.864899
H73	H	1.379123	-0.346472	0.864939
H74	H	1.384828	-0.479168	1.030555
H75	H	1.417711	-0.365395	1.030620
H76	H	1.504508	-0.407979	0.905269
H77	H	1.471635	-0.521770	0.905229
H78	H	1.516733	-0.478916	1.002700
C79	C	1.272980	0.109149	0.646377
C80	C	1.261970	0.216977	0.631991
C81	C	1.313529	0.272067	0.699077
H82	H	1.261242	0.091317	0.717006
H83	H	1.327168	0.091216	0.630998
H84	H	1.207795	0.234902	0.647377
H85	H	1.273714	0.234840	0.561376
H86	H	1.367717	0.254135	0.683698
H87	H	1.301786	0.254227	0.769702
H88	H	1.306071	0.345235	0.689318
C89	C	1.246829	-0.257888	1.106901
C90	C	1.227073	-0.189573	1.024998
C91	C	1.199647	-0.094515	1.066594
H92	H	1.200562	-0.270205	1.148780
H93	H	1.287904	-0.227416	1.148786
H94	H	1.186002	-0.220038	0.983131
H95	H	1.273328	-0.177225	0.983112
H96	H	1.240721	-0.064044	1.108478
H97	H	1.153382	-0.106843	1.108472
H98	H	1.186246	-0.048149	1.011029
H99	H	1.339061	-0.382858	1.091491
C100	C	1.083932	-0.105956	0.258430
C101	C	1.023257	-0.167674	0.213848
C102	C	1.050538	-0.209668	0.118899
H103	H	1.097369	-0.050625	0.211831
H104	H	1.130156	-0.147927	0.270869
H105	H	0.977048	-0.125704	0.201405
H106	H	1.009814	-0.223021	0.260417
H107	H	1.096761	-0.251639	0.131338
H108	H	1.063974	-0.154330	0.072309
H109	H	1.009377	-0.251555	0.088643
H110	H	0.994983	0.083378	0.390654
C111	C	0.970979	-0.099879	0.390617
C112	C	0.920036	-0.014338	0.408435
C113	C	0.843294	-0.050671	0.435271
H114	H	0.950109	-0.141232	0.334975
H115	H	0.974348	-0.141188	0.452395
H116	H	0.916664	0.026953	0.346665
H117	H	0.940880	0.027023	0.464082
H118	H	0.846663	-0.091980	0.497048
H119	H	0.822432	-0.092024	0.379625
H120	H	0.808722	0.007362	0.447373
