data_functionalizedCrystal
_audit_creation_method	'MofGen! by Chris Wilmer'
_symmetry_space_group_name_H-M	'P1'
_symmetry_Int_Tables_number	1
_symmetry_cell_setting	triclinic
loop_
_symmetry_equiv_pos_as_xyz
  x,y,z
_cell_length_a	16.974885
_cell_length_b	14.971486
_cell_length_c	14.048226
_cell_angle_alpha	90.006640
_cell_angle_beta	93.645561
_cell_angle_gamma	96.496699
loop_
_atom_site_label
_atom_site_type_symbol
_atom_site_fract_x
_atom_site_fract_y
_atom_site_fract_z
O1	O	1.049242	-0.113969	0.001596
O2	O	0.819053	-0.128497	-0.016123
O3	O	0.940317	0.008982	-0.006782
O4	O	0.927978	-0.251448	-0.007745
O5	O	0.940302	0.008990	0.151538
O6	O	0.819038	-0.128489	0.142197
O7	O	1.049228	-0.113961	0.159916
Zn8	Zn	0.934130	-0.121224	0.176193
Zn9	Zn	0.934150	-0.121234	-0.032400
O10	O	0.927963	-0.251440	0.150575
C11	C	0.789587	-0.127942	0.060769
C12	C	0.701810	-0.126288	0.054013
C13	C	0.207723	-0.116951	0.006652
C14	C	0.290199	-0.118505	0.013013
C15	C	0.331420	-0.119284	0.102495
C16	C	0.290162	-0.118500	0.185621
C17	C	0.207688	-0.116940	0.179259
C18	C	0.578078	-0.123944	0.130777
C19	C	0.660557	-0.125507	0.137133
C20	C	0.660588	-0.125510	-0.035476
C21	C	0.578113	-0.123955	-0.041830
C22	C	0.536863	-0.123167	0.041296
N23	N	0.415723	-0.120875	0.108999
N24	N	0.452562	-0.121569	0.034790
C25	C	0.939758	0.042310	0.072335
C26	C	0.938104	0.141603	0.072207
C27	C	1.078693	-0.114516	0.083021
C28	C	1.166470	-0.116170	0.089772
C29	C	0.928522	-0.284768	0.071455
C30	C	0.930176	-0.384061	0.071577
N31	N	0.934123	-0.121216	0.318553
C32	C	1.009344	0.199004	0.077692
C33	C	1.007785	0.292300	0.077562
C34	C	0.934986	0.328192	0.071955
C35	C	0.863741	0.270783	0.066467
C36	C	0.865301	0.177489	0.066590
C37	C	0.860496	0.465237	0.066214
C38	C	0.858936	0.558538	0.066093
C39	C	1.002981	0.580048	0.077186
C40	C	1.004540	0.486754	0.077309
C41	C	0.933295	0.429352	0.071823
N42	N	0.934163	-0.121235	-0.174760
C43	C	0.987836	-0.060365	0.372509
C44	C	0.987841	-0.060365	0.472167
C45	C	0.934137	-0.121220	0.517868
C46	C	0.880418	-0.182074	0.463905
C47	C	0.880410	-0.182069	0.364248
C48	C	0.880441	-0.182080	0.671621
C49	C	0.880451	-0.182086	0.771284
C50	C	0.987873	-0.060376	0.779540
C51	C	0.987864	-0.060371	0.679883
C52	C	0.934146	-0.121226	0.625927
H53	H	1.068625	0.169789	0.082263
O54	O	0.334694	-0.119348	-0.076637
H55	H	0.311887	-0.179990	-0.119779
H56	H	1.031571	-0.010814	0.335307
H57	H	0.836671	-0.231619	0.320318
H58	H	1.031578	-0.010815	0.516098
O59	O	0.163265	-0.116092	-0.089861
H60	H	0.205812	-0.116881	-0.146590
O61	O	0.822490	-0.247714	0.613437
H62	H	0.784020	-0.210075	0.565104
O63	O	0.533649	-0.123072	0.220473
H64	H	0.556522	-0.062431	0.263582
O65	O	0.334615	-0.119346	0.282137
H66	H	0.398894	-0.120574	0.272599
O67	O	0.533658	-0.123060	-0.138342
H68	H	0.576203	-0.123838	-0.195073
O69	O	0.163143	-0.116556	0.268907
H70	H	0.098851	-0.115497	0.249450
O71	O	0.785224	0.309499	0.060424
H72	H	0.750995	0.286437	-0.006744
H73	H	1.065796	0.339033	0.082030
O74	O	1.045782	0.005269	0.630587
H75	H	1.107432	-0.006082	0.654440
H76	H	1.031611	-0.010825	0.823476
H77	H	0.694183	-0.126151	-0.103152
H78	H	0.836718	-0.231640	0.808488
H79	H	0.836687	-0.231620	0.501120
O80	O	0.788465	0.115570	0.060685
H81	H	0.737580	0.156200	0.056776
H82	H	0.694117	-0.126148	0.210003
H83	H	1.060991	0.626790	0.081650
O84	O	1.083060	0.448044	0.083345
H85	H	1.117298	0.471119	0.150503
O86	O	0.780420	0.597256	0.060029
H87	H	0.731141	0.541669	0.056217
O88	O	0.783655	0.403320	0.060306
H89	H	0.732771	0.443949	0.056400
