data_functionalizedCrystal
_audit_creation_method	'MofGen! by Chris Wilmer'
_symmetry_space_group_name_H-M	'P1'
_symmetry_Int_Tables_number	1
_symmetry_cell_setting	triclinic
loop_
_symmetry_equiv_pos_as_xyz
  x,y,z
_cell_length_a	13.262522
_cell_length_b	14.044220
_cell_length_c	11.804365
_cell_angle_alpha	77.070841
_cell_angle_beta	62.659257
_cell_angle_gamma	91.357939
loop_
_atom_site_label
_atom_site_type_symbol
_atom_site_fract_x
_atom_site_fract_y
_atom_site_fract_z
O1	O	1.520632	-0.013849	-0.591493
O2	O	2.020632	0.486151	-0.091493
O3	O	1.195712	-0.047994	-0.486267
O4	O	1.695712	0.452006	0.013733
O5	O	1.353294	0.106776	-0.537295
O6	O	1.853294	0.606776	-0.037295
O7	O	1.363050	-0.168619	-0.540465
O8	O	1.863050	0.331381	-0.040465
O9	O	1.311804	0.066069	-0.325804
O10	O	1.811804	0.566069	0.174196
O11	O	1.154222	-0.088701	-0.274777
O12	O	1.654222	0.411299	0.225223
O13	O	1.479143	-0.054556	-0.380002
O14	O	1.979143	0.445444	0.119998
Cu15	Cu	1.312894	-0.075345	-0.308079
Cu16	Cu	1.812894	0.424655	0.191921
Cu17	Cu	1.361960	-0.027205	-0.558191
Cu18	Cu	1.861960	0.472795	-0.058191
O19	O	1.321561	-0.209326	-0.328975
O20	O	1.821561	0.290674	0.171025
C21	C	1.133133	-0.070178	-0.366974
C22	C	1.633133	0.429822	0.133026
C23	C	1.008480	-0.075619	-0.326605
C24	C	1.508480	0.424381	0.173395
C25	C	0.927308	-0.100367	-0.192349
C26	C	1.427308	0.399633	0.307651
C27	C	0.810189	-0.105473	-0.154410
C28	C	1.310189	0.394527	0.345590
C29	C	0.774230	-0.085838	-0.250723
C30	C	1.274230	0.414162	0.249277
C31	C	0.855402	-0.061095	-0.384982
C32	C	1.355402	0.438905	0.115018
C33	C	0.972533	-0.055982	-0.422925
C34	C	1.472533	0.444018	0.077075
C35	C	0.819455	-0.041452	-0.481299
C36	C	1.319455	0.458548	0.018701
C37	C	0.900627	-0.016710	-0.615558
C38	C	1.400627	0.483290	-0.115558
C39	C	1.017746	-0.011599	-0.653494
C40	C	1.517746	0.488401	-0.153494
C41	C	1.053705	-0.031234	-0.557181
C42	C	1.553705	0.468766	-0.057181
C43	C	0.702323	-0.046566	-0.443356
C44	C	1.202323	0.453434	0.056644
C45	C	0.747548	-0.002180	-0.673932
C46	C	1.247548	0.497820	-0.173932
C47	C	0.864667	0.002925	-0.711871
C48	C	1.364667	0.502925	-0.211871
C49	C	1.346575	-0.224036	-0.436104
C50	C	1.846575	0.275964	0.063896
C51	C	1.359312	-0.328514	-0.440233
C52	C	1.859312	0.171486	0.059767
C53	C	1.382595	-0.519811	-0.447768
C54	C	1.882595	-0.019811	0.052232
C55	C	1.292267	-0.582742	-0.418514
C56	C	1.792267	-0.082742	0.081486
C57	C	1.305222	-0.689186	-0.422707
C58	C	1.805222	-0.189186	0.077293
C59	C	1.369641	-0.413356	-0.443576
C60	C	1.869641	0.086644	0.056424
C61	C	1.541722	-0.032372	-0.499299
C62	C	2.041722	0.467628	0.000701
C63	C	1.666376	-0.026929	-0.539676
C64	C	2.166376	0.473071	-0.039676
C65	C	1.328279	0.121487	-0.430168
C66	C	1.828279	0.621487	0.069832
C67	C	1.315544	0.225966	-0.426048
C68	C	1.815544	0.725966	0.073952
N69	N	1.278392	-0.109203	-0.132166
N70	N	1.778392	0.390797	0.367834
N71	N	1.396470	0.006662	-0.734107
N72	N	1.896470	0.506662	-0.234107
C73	C	1.479320	0.087986	0.176719
C74	C	1.979320	0.587986	0.676719
C75	C	1.505420	0.113604	0.043606
C76	C	2.005420	0.613604	0.543606
C77	C	1.448665	0.057904	-0.000344
C78	C	1.948665	0.557904	0.499656
C79	C	1.365807	-0.023418	0.088833
C80	C	1.865807	0.476582	0.588833
C81	C	1.339711	-0.049043	0.221957
C82	C	1.839711	0.450957	0.721957
C83	C	1.309056	-0.079124	0.044894
C84	C	1.809056	0.420876	0.544894
C85	C	1.226198	-0.160446	0.134071
C86	C	1.726198	0.339554	0.634071
C87	C	1.200106	-0.186066	0.267182
C88	C	1.700106	0.313934	0.767182
C89	C	1.256861	-0.130367	0.311132
C90	C	1.756861	0.369633	0.811132
C91	C	1.335151	-0.053499	-0.088230
C92	C	1.835151	0.446501	0.411770
C93	C	1.195542	-0.190528	-0.042991
C94	C	1.695542	0.309472	0.457009
C95	C	1.169443	-0.216145	0.090122
C96	C	1.669443	0.283855	0.590122
H97	H	0.678865	-0.089997	-0.219825
H98	H	1.178865	0.410003	0.280175
O99	O	1.105298	0.015103	-0.798300
O100	O	1.605298	0.515103	-0.298300
H101	H	1.156216	-0.046271	-0.819962
H102	H	1.656216	0.453729	-0.319962
H103	H	1.525529	0.133325	0.212511
H104	H	2.025529	0.633325	0.712511
O105	O	1.134320	-0.250599	-0.090390
O106	O	1.634320	0.249401	0.409610
H107	H	1.150990	-0.328145	-0.071888
H108	H	1.650990	0.171855	0.428112
H109	H	1.572882	0.179814	-0.028997
H110	H	2.072882	0.679814	0.471003
H111	H	1.205205	-0.556678	-0.390318
H112	H	1.705205	-0.056678	0.109682
H113	H	1.469648	-0.545875	-0.475956
H114	H	1.969648	-0.045875	0.024044
H115	H	1.149071	-0.027081	-0.588064
H116	H	1.649071	0.472919	-0.088064
H117	H	1.235608	-0.151222	0.419523
H118	H	1.735608	0.348778	0.919523
H119	H	0.744107	-0.125605	-0.045097
H120	H	1.244107	0.374395	0.454903
H121	H	0.930774	0.023070	-0.821187
H122	H	1.430774	0.523070	-0.321187
H123	H	0.718272	0.013807	-0.752359
H124	H	1.218272	0.513807	-0.252359
H125	H	1.402614	0.012713	-0.160826
H126	H	1.902614	0.512713	0.339174
H127	H	1.469918	0.078766	-0.108731
H128	H	1.969918	0.578766	0.391269
H129	H	1.132648	-0.252289	0.339788
H130	H	1.632648	0.247711	0.839788
H131	H	1.101978	-0.282360	0.162746
H132	H	1.601978	0.217640	0.662746
O133	O	0.614617	-0.073549	-0.298610
O134	O	1.114617	0.426451	0.201390
H135	H	0.563505	-0.012318	-0.276716
H136	H	1.063505	0.487682	0.223284
O137	O	0.966089	-0.121546	-0.088476
O138	O	1.466089	0.378454	0.411524
H139	H	1.061169	-0.113839	-0.137418
H140	H	1.561169	0.386161	0.362582
