data_functionalizedCrystal
_audit_creation_method	'MofGen! by Chris Wilmer'
_symmetry_space_group_name_H-M	'P1'
_symmetry_Int_Tables_number	1
_symmetry_cell_setting	triclinic
loop_
_symmetry_equiv_pos_as_xyz
  x,y,z
_cell_length_a	16.974897
_cell_length_b	7.681481
_cell_length_c	16.992695
_cell_angle_alpha	96.134400
_cell_angle_beta	87.027201
_cell_angle_gamma	87.911497
loop_
_atom_site_label
_atom_site_type_symbol
_atom_site_fract_x
_atom_site_fract_y
_atom_site_fract_z
O1	O	1.041352	0.294672	0.114940
O2	O	0.813504	0.262241	0.126010
O3	O	0.926515	0.278312	0.006326
O4	O	0.928341	0.278600	0.234624
O5	O	0.940423	-0.012567	-0.008439
O6	O	0.827411	-0.028639	0.111245
O7	O	1.055260	0.003792	0.100175
Zn8	Zn	0.943544	-0.058607	0.103366
Zn9	Zn	0.925220	0.324640	0.122819
O10	O	0.942248	-0.012280	0.219859
C11	C	0.791168	0.112632	0.117930
C12	C	0.703895	0.100209	0.115843
N13	N	0.956055	-0.320162	0.090090
C14	C	0.655306	0.252919	0.122912
C15	C	0.573304	0.241220	0.120962
C16	C	0.539893	0.076811	0.111938
C17	C	0.588488	-0.075910	0.104871
C18	C	0.670488	-0.064210	0.106826
C19	C	0.295463	0.024818	0.105232
C20	C	0.213456	0.013129	0.103274
C21	C	0.198278	0.330261	0.119367
C22	C	0.280281	0.341946	0.121317
C23	C	0.328868	0.189225	0.114254
N24	N	0.456074	0.064850	0.109942
N25	N	0.412685	0.201188	0.116256
C26	C	1.077595	0.153405	0.108255
C27	C	1.164868	0.165839	0.110343
C28	C	0.931119	0.132538	-0.030283
C29	C	0.924107	0.131541	-0.117371
N30	N	0.912714	0.586196	0.136090
C31	C	0.991761	0.141168	-0.167193
C32	C	0.985168	0.140247	-0.249019
C33	C	0.910919	0.129684	-0.281023
C34	C	0.843260	0.120061	-0.231195
C35	C	0.849854	0.120995	-0.149369
C36	C	0.883590	0.125819	-0.524789
C37	C	0.877001	0.124880	-0.606621
C38	C	1.018910	0.145069	-0.624440
C39	C	1.025497	0.145992	-0.542612
C40	C	0.957837	0.136377	-0.492791
N41	N	0.904178	0.128736	-0.364663
N42	N	0.964579	0.137338	-0.409152
C43	C	0.937644	0.133498	0.256469
C44	C	0.944656	0.134507	0.343557
H45	H	0.682503	0.386799	0.130258
O46	O	1.008794	-0.402177	0.033975
C47	C	0.988918	-0.360135	-0.041489
H48	H	0.952338	-0.231452	-0.034859
H49	H	1.045183	-0.345989	-0.079492
H50	H	0.953165	-0.468965	-0.071136
H51	H	0.158710	0.454598	0.125119
O52	O	0.817793	0.116368	-0.476517
C53	C	0.750847	0.106875	-0.522313
H54	H	0.769587	0.054106	-0.586050
H55	H	0.707168	0.015623	-0.496732
H56	H	0.721653	0.243216	-0.521187
H57	H	1.052223	0.149759	-0.141142
O58	O	0.860017	-0.331681	0.192207
C59	C	0.879864	-0.373797	0.267667
H60	H	0.945159	-0.415274	0.265851
H61	H	0.867631	-0.254215	0.313047
H62	H	0.842853	-0.485954	0.285125
O63	O	0.771070	0.109876	-0.262147
C64	C	0.712773	0.101539	-0.200625
H65	H	0.735642	0.160235	-0.142113
H66	H	0.657208	0.178661	-0.213745
H67	H	0.698327	-0.041014	-0.196270
O68	O	0.180968	-0.146543	0.094378
C69	C	0.138603	-0.162139	0.024938
H70	H	0.162250	-0.068204	-0.017327
H71	H	0.145931	-0.302303	-0.004963
H72	H	0.073372	-0.128526	0.040953
O73	O	1.050971	0.149521	-0.297308
C74	C	1.117916	0.159072	-0.251513
H75	H	1.104444	0.101710	-0.193369
H76	H	1.169669	0.081403	-0.285677
H77	H	1.133769	0.301822	-0.238462
H78	H	0.794762	0.113156	-0.108804
H79	H	1.085958	0.154592	-0.516561
H80	H	0.561278	-0.209776	0.097528
H81	H	0.335014	-0.099539	0.099475
O82	O	0.526222	0.389737	0.127796
C83	C	0.573294	0.537356	0.136192
H84	H	0.635665	0.499437	0.110432
H85	H	0.546890	0.645226	0.103219
H86	H	0.575392	0.586774	0.201712
H87	H	0.710049	-0.188563	0.101074
H88	H	0.307478	0.475826	0.128660
H89	H	1.073994	0.152899	-0.665013
O90	O	0.804905	0.114866	-0.637794
C91	C	0.789645	0.264386	-0.676930
H92	H	0.847864	0.323229	-0.694367
H93	H	0.756607	0.225571	-0.732423
H94	H	0.752126	0.365263	-0.635646
