data_functionalizedCrystal
_audit_creation_method	'MofGen! by Chris Wilmer'
_symmetry_space_group_name_H-M	'P1'
_symmetry_Int_Tables_number	1
_symmetry_cell_setting	triclinic
loop_
_symmetry_equiv_pos_as_xyz
  x,y,z
_cell_length_a	15.698487
_cell_length_b	20.875492
_cell_length_c	20.875641
_cell_angle_alpha	60.662107
_cell_angle_beta	90.002858
_cell_angle_gamma	58.317647
loop_
_atom_site_label
_atom_site_type_symbol
_atom_site_fract_x
_atom_site_fract_y
_atom_site_fract_z
Zr1	Zr	0.775935	0.731494	-0.117926
O2	O	0.635883	0.864492	-0.223408
O3	O	0.825353	0.593213	-0.080691
O4	O	0.822950	0.723874	-0.216339
O5	O	0.632806	0.741684	0.013667
O6	O	0.963134	0.723872	-0.216335
O7	O	0.638287	0.733832	-0.087761
O8	O	0.967434	0.490143	0.026313
O9	O	0.628507	0.975412	-0.228981
O10	O	0.943213	0.652044	-0.070727
O11	O	0.834504	0.657906	0.004965
O12	O	0.831675	0.811743	-0.154742
O13	O	0.722966	0.817605	-0.079050
Zr14	Zr	0.990772	0.744014	0.043846
Zr15	Zr	0.999513	0.731490	-0.117920
Zr16	Zr	0.767194	0.744017	0.043840
Zr17	Zr	0.764170	0.908398	-0.126814
Zr18	Zr	1.002537	0.567109	0.052734
O19	O	0.941353	0.882294	0.006612
O20	O	0.953783	0.864487	-0.223399
O21	O	0.623454	0.882299	0.006603
O22	O	1.130823	0.611015	0.149328
O23	O	1.143252	0.593208	-0.080683
O24	O	0.812924	0.611020	0.149320
O25	O	1.133901	0.733823	-0.087747
O26	O	0.943757	0.751633	0.142259
O27	O	0.803572	0.751636	0.142255
O28	O	1.128420	0.741676	0.013681
O29	O	0.806221	0.975409	-0.228976
O30	O	0.960485	0.500098	0.154896
O31	O	1.138200	0.500095	0.154901
O32	O	1.145148	0.490140	0.026318
O33	O	0.621558	0.985367	-0.100398
O34	O	0.799273	0.985364	-0.100393
O35	O	0.935032	0.663765	0.080662
O36	O	1.043740	0.657903	0.004971
O37	O	0.932202	0.817601	-0.079045
O38	O	0.823494	0.823463	-0.003353
C39	C	0.898070	0.516473	-0.025923
C40	C	0.903064	0.441373	-0.022150
C41	C	0.827134	0.462893	-0.079340
C42	C	0.831830	0.392339	-0.075822
C43	C	0.912454	0.300266	-0.015110
C44	C	0.988392	0.278746	0.042083
C45	C	0.983699	0.349299	0.038561
C46	C	0.934888	0.083168	0.001741
C47	C	0.939573	0.012614	0.005260
C48	C	0.783012	0.126212	-0.112646
C49	C	0.778322	0.196762	-0.116160
C50	C	0.854263	0.175236	-0.058969
N51	N	0.917255	0.228147	-0.011511
N52	N	0.849466	0.247354	-0.062572
C53	C	0.603691	0.737758	-0.037048
C54	C	0.508777	0.737760	-0.037050
C55	C	0.431694	0.737763	-0.037049
C56	C	0.334997	0.737758	-0.037040
C57	C	1.163015	0.737749	-0.037032
C58	C	1.257930	0.737747	-0.037030
C59	C	0.894288	0.722088	-0.239385
C60	C	0.897998	0.716772	-0.308059
C61	C	0.868637	0.959034	-0.048157
C62	C	0.863642	1.034135	-0.051930
C63	C	0.841522	0.797633	-0.384177
C64	C	0.845023	0.792632	-0.448701
C65	C	0.904994	0.706769	-0.437105
C66	C	0.961477	0.625902	-0.360979
C67	C	0.957982	0.630904	-0.296457
C68	C	0.921696	0.682870	-0.625373
C69	C	0.925185	0.677875	-0.689903
C70	C	0.808731	0.844605	-0.777620
C71	C	0.805236	0.849599	-0.713093
C72	C	0.861724	0.768733	-0.636973
N73	N	0.908571	0.701655	-0.503057
N74	N	0.858152	0.773847	-0.571022
C75	C	0.872419	0.753419	0.165305
C76	C	0.868708	0.758736	0.233979
C77	C	1.177732	0.516468	-0.025915
C78	C	1.277641	0.441366	-0.022140
C79	C	0.887135	0.532138	0.176422
C80	C	0.888419	0.462354	0.248869
C81	C	1.166797	0.532134	0.176430
C82	C	1.262996	0.462348	0.248880
C83	C	0.599909	0.943374	-0.250510
C84	C	0.503711	1.013159	-0.322960
C85	C	0.588975	0.959039	-0.048165
C86	C	0.489066	1.034141	-0.051940
C87	C	0.879571	0.943369	-0.250502
C88	C	0.878288	1.013153	-0.322949
C89	C	1.272085	0.403039	-0.059887
C90	C	1.365952	0.332481	-0.056355
C91	C	1.465374	0.300247	-0.015070
C92	C	1.470927	0.338582	0.022677
C93	C	1.377061	0.409143	0.019140
C94	C	0.941496	0.432642	0.322412
C95	C	0.942697	0.367083	0.390489
C96	C	0.890827	0.331233	0.385023
C97	C	0.837744	0.360952	0.311473
C98	C	0.836537	0.426514	0.243397
C99	C	1.364926	0.426516	0.243392
C100	C	1.455322	0.360955	0.311460
C101	C	1.443787	0.331221	0.385014
C102	C	1.341847	0.367060	0.390500
C103	C	1.251452	0.432625	0.322433
C104	C	0.401780	1.049000	-0.317473
C105	C	0.311382	1.114583	-0.385541
C106	C	0.322917	1.144320	-0.459096
C107	C	0.424858	1.108477	-0.464581
C108	C	0.515254	1.042899	-0.396513
C109	C	0.494621	1.072475	-0.014200
C110	C	0.400754	1.143051	-0.017751
C111	C	0.301332	1.175287	-0.059038
C112	C	0.295779	1.136950	-0.096782
C113	C	0.389645	1.066380	-0.093236
C114	C	0.930168	1.048982	-0.317458
C115	C	0.928983	1.114543	-0.385523
C116	C	0.875910	1.144277	-0.459079
C117	C	0.824028	1.108441	-0.464569
C118	C	0.825220	1.042877	-0.396504
H119	H	0.721186	0.143728	-0.159209
O120	O	0.406754	1.184383	0.022972
H121	H	0.491660	1.150093	0.052289
H122	H	0.224908	1.232750	-0.061919
H123	H	0.769999	0.409870	-0.122392
H124	H	1.005228	-0.062359	0.054703
O125	O	1.383069	0.450463	0.059870
H126	H	1.301101	0.504947	0.050480
H127	H	0.891818	0.277848	0.440461
H128	H	0.971230	1.143715	-0.381038
O129	O	0.784104	0.879850	-0.530799
H130	H	0.796618	0.861950	-0.573719
H131	H	0.228386	1.143756	-0.381060
H132	H	0.756404	0.919518	-0.722544
O133	O	0.779402	0.458409	0.164110
H134	H	0.693683	0.490013	0.155888
O135	O	0.225414	1.215061	-0.532511
H136	H	0.152601	1.234981	-0.516330
O137	O	1.026165	0.533296	-0.348477
H138	H	1.111162	0.494289	-0.315068
O139	O	0.601844	1.037733	0.030321
H140	H	0.609772	1.010302	0.092663
O141	O	0.997440	0.471306	0.328316
H142	H	1.034534	0.439630	0.390897
O143	O	1.329413	0.334983	0.469836
H144	H	1.287896	0.303340	0.478014
O145	O	0.776837	0.890242	-0.396685
H146	H	0.738163	0.945629	-0.460458
O147	O	1.359953	0.291138	-0.097067
H148	H	1.317567	0.260749	-0.072604
O149	O	0.987429	1.016908	-0.238126
H150	H	1.023314	1.052835	-0.245755
O151	O	1.018930	0.543703	-0.214346
H152	H	0.962407	0.541980	-0.182827
H153	H	0.598248	1.013718	-0.400990
O154	O	1.075356	0.179438	0.107562
H155	H	1.127374	0.176328	0.146733
O156	O	1.141514	0.471251	0.328356
H157	H	1.148692	0.439545	0.390940
O158	O	0.874613	1.215007	-0.532488
H159	H	0.957735	1.187927	-0.531074
O160	O	0.188543	1.171722	-0.141312
H161	H	0.124215	1.227227	-0.137426
H162	H	0.434237	1.132697	-0.524477
O163	O	1.065601	0.326095	0.100238
H164	H	1.024787	0.357805	0.130995
O165	O	0.389326	1.016938	-0.238143
H166	H	0.303253	1.052896	-0.245777
H167	H	0.780817	1.132661	-0.524467
O168	O	1.578162	0.303811	0.067208
H169	H	1.624207	0.229351	0.114788
O170	O	1.566614	0.224135	-0.011251
H171	H	1.546037	0.202897	-0.044430
H172	H	0.985928	0.342893	0.450370
H173	H	0.385107	1.035170	-0.123966
O174	O	0.747828	0.931823	-0.859718
H175	H	0.760342	0.913925	-0.902639
H176	H	0.712685	0.271729	-0.165609
O177	O	0.769244	1.004246	-0.402431
H178	H	0.732132	1.035950	-0.465017
H179	H	0.974020	0.607951	-0.680452
H180	H	0.761470	0.537861	-0.128771
H181	H	1.517402	0.277833	0.440433
H182	H	0.795513	0.331753	0.307034
O183	O	1.016784	0.059951	0.063427
H184	H	1.073625	-0.015925	0.106239
H185	H	1.191140	0.429282	-0.093514
O186	O	0.982609	0.595651	-0.543279
H187	H	0.953437	0.554730	-0.534643
O188	O	1.377386	0.458587	0.164065
H189	H	1.425002	0.398846	0.160477
O190	O	1.565266	0.322296	0.305536
H191	H	1.558092	0.353976	0.242953
