data_functionalizedCrystal
_audit_creation_method	'MofGen! by Chris Wilmer'
_symmetry_space_group_name_H-M	'P1'
_symmetry_Int_Tables_number	1
_symmetry_cell_setting	triclinic
loop_
_symmetry_equiv_pos_as_xyz
  x,y,z
_cell_length_a	11.295657
_cell_length_b	16.992694
_cell_length_c	12.811442
_cell_angle_alpha	92.656844
_cell_angle_beta	90.842240
_cell_angle_gamma	94.327904
loop_
_atom_site_label
_atom_site_type_symbol
_atom_site_fract_x
_atom_site_fract_y
_atom_site_fract_z
O1	O	0.122015	-1.035293	0.214354
O2	O	0.622015	-0.535293	0.714354
O3	O	0.121788	-0.807011	0.211927
O4	O	0.621788	-0.307011	0.711927
O5	O	0.105569	-0.927672	0.061937
O6	O	0.605569	-0.427672	0.561937
O7	O	0.138234	-0.914632	0.364345
O8	O	0.638234	-0.414632	0.864345
O9	O	-0.091039	-0.937056	0.075249
O10	O	0.408961	-0.437056	0.575249
O11	O	-0.074820	-0.816395	0.225239
O12	O	0.425180	-0.316395	0.725239
O13	O	-0.074594	-1.044677	0.227666
O14	O	0.425406	-0.544677	0.727666
Cu15	Cu	-0.092659	-0.931393	0.227668
Cu16	Cu	0.407341	-0.431393	0.727668
Cu17	Cu	0.139853	-0.920295	0.211925
Cu18	Cu	0.639853	-0.420295	0.711925
O19	O	-0.058375	-0.924016	0.377657
O20	O	0.441625	-0.424016	0.877657
C21	C	0.023151	-0.782496	0.215464
C22	C	0.523151	-0.282496	0.715464
C23	C	0.022160	-0.695468	0.206157
C24	C	0.522160	-0.195468	0.706157
C25	C	0.003069	-0.931920	0.029719
C26	C	0.503069	-0.431920	0.529719
C27	C	-0.009434	-0.930586	-0.086114
C28	C	0.490566	-0.430586	0.413886
N29	N	-0.256196	-0.939204	0.238741
N30	N	0.243804	-0.439204	0.738741
C31	C	-0.518234	-0.856179	0.121075
C32	C	-0.018234	-0.356179	0.621075
C33	C	-0.641990	-0.862100	0.129450
C34	C	-0.141990	-0.362100	0.629450
C35	C	-0.627466	-0.956961	0.263871
C36	C	-0.127466	-0.456961	0.763871
C37	C	-0.503710	-0.951041	0.255496
C38	C	-0.003710	-0.451041	0.755496
C39	C	-0.449098	-0.900649	0.184094
C40	C	0.050902	-0.400649	0.684094
C41	C	-0.325340	-0.894733	0.175714
C42	C	0.174660	-0.394733	0.675714
C43	C	-0.310818	-0.989590	0.310140
C44	C	0.189182	-0.489590	0.810140
C45	C	-0.434575	-0.995511	0.318515
C46	C	0.065425	-0.495511	0.818515
N47	N	0.303389	-0.912490	0.200845
N48	N	0.803389	-0.412490	0.700845
C49	C	0.024046	-1.069192	0.224129
C50	C	0.524046	-0.569192	0.724129
C51	C	0.025045	-1.156219	0.233436
C52	C	0.525045	-0.656219	0.733436
C53	C	0.031858	-0.645062	0.295949
C54	C	0.531858	-0.145062	0.795949
C55	C	0.030896	-0.563292	0.287200
C56	C	0.530896	-0.063292	0.787200
C57	C	0.020245	-0.531930	0.188656
C58	C	0.520245	-0.031930	0.688656
C59	C	0.010543	-0.582343	0.098857
C60	C	0.510543	-0.082343	0.598857
C61	C	0.011496	-0.664112	0.107608
C62	C	0.511496	-0.164112	0.607608
C63	C	0.016296	-0.288401	0.152387
C64	C	0.516296	0.211599	0.652387
C65	C	0.015347	-0.206626	0.143643
C66	C	0.515347	0.293374	0.643643
C67	C	0.035698	-0.187581	0.331987
C68	C	0.535698	0.312419	0.831987
C69	C	0.036658	-0.269351	0.340729
C70	C	0.536658	0.230649	0.840729
C71	C	0.026949	-0.319757	0.250930
C72	C	0.526949	0.180243	0.750930
N73	N	0.019266	-0.448348	0.179711
N74	N	0.519266	0.051652	0.679711
N75	N	0.027920	-0.403338	0.259877
N76	N	0.527920	0.096662	0.759877
C77	C	-0.134226	-0.933826	-0.242121
C78	C	0.365774	-0.433826	0.257879
C79	C	-0.122481	-0.935076	-0.133286
C80	C	0.377519	-0.435076	0.366714
C81	C	0.091874	-0.924845	-0.147785
C82	C	0.591874	-0.424845	0.352215
C83	C	0.080129	-0.923595	-0.256620
C84	C	0.580129	-0.423595	0.243380
C85	C	-0.032925	-0.928087	-0.303785
C86	C	0.467075	-0.428087	0.196215
C87	C	-0.044669	-0.926843	-0.412623
C88	C	0.455331	-0.426843	0.087377
C89	C	0.169685	-0.916606	-0.427119
C90	C	0.669685	-0.416606	0.072881
C91	C	0.181430	-0.917856	-0.318283
C92	C	0.681430	-0.417856	0.181717
C93	C	0.044128	-0.919768	0.409874
C94	C	0.544128	-0.419768	0.909874
C95	C	0.056639	-0.921101	0.525706
C96	C	0.556639	-0.421101	1.025706
H97	H	-0.473769	-0.815152	0.062932
H98	H	0.026231	-0.315152	0.562932
H99	H	-0.479056	-1.036537	0.376651
H100	H	0.020944	-0.536537	0.876651
H101	H	0.040532	-0.670590	0.376194
H102	H	0.540532	-0.170590	0.876194
O103	O	0.278952	-0.910384	-0.493630
O104	O	0.778952	-0.410384	0.006370
H105	H	0.359533	-0.907465	-0.442544
H106	H	0.859533	-0.407465	0.057456
H107	H	0.008389	-0.329432	0.079266
H108	H	0.508389	0.170568	0.579266
O109	O	0.001040	-0.718485	0.010762
O110	O	0.501040	-0.218485	0.510762
H111	H	-0.006516	-0.682941	-0.059234
H112	H	0.493484	-0.182941	0.440766
H113	H	0.001853	-0.556803	0.018622
H114	H	0.501853	-0.056803	0.518622
H115	H	0.273475	-0.914196	-0.279867
H116	H	0.773475	-0.414196	0.220133
O117	O	-0.166598	-0.931683	-0.463500
O118	O	0.333402	-0.431683	0.036500
H119	H	-0.235065	-0.935874	-0.402332
H120	H	0.264935	-0.435874	0.097668
H121	H	0.038795	-0.522254	0.360319
H122	H	0.538795	-0.022254	0.860319
H123	H	-0.254515	-1.025802	0.361454
H124	H	0.245485	-0.525802	0.861454
H125	H	0.045345	-0.294879	0.420973
H126	H	0.545345	0.205121	0.920973
O127	O	0.046145	-0.133218	0.428841
O128	O	0.546145	0.366782	0.928841
H129	H	0.043679	-0.071090	0.406207
H130	H	0.543679	0.428910	0.906207
O131	O	-0.256153	-0.938673	-0.293004
O132	O	0.243847	-0.438673	0.206996
H133	H	-0.324624	-0.942871	-0.231839
H134	H	0.175376	-0.442871	0.268161
O135	O	-0.266428	-0.840380	0.098713
O136	O	0.233572	-0.340380	0.598713
H137	H	-0.335298	-0.810445	0.056309
H138	H	0.164702	-0.310445	0.556309
O139	O	0.003847	-0.172795	0.037353
O140	O	0.503847	0.327205	0.537353
H141	H	-0.002756	-0.221583	-0.023620
H142	H	0.497244	0.278417	0.476380
O143	O	-0.686397	-1.011305	0.340873
O144	O	-0.186397	-0.511305	0.840873
H145	H	-0.653820	-0.992955	0.421142
H146	H	-0.153820	-0.492955	0.921142
O147	O	-0.231743	-0.941278	-0.066779
O148	O	0.268257	-0.441278	0.433221
H149	H	-0.284870	-0.890079	-0.079359
H150	H	0.215130	-0.390079	0.420641
O151	O	-0.716566	-0.814158	0.061455
O152	O	-0.216566	-0.314158	0.561455
H153	H	-0.657796	-0.778135	0.010388
H154	H	-0.157796	-0.278135	0.510388
O155	O	0.213804	-0.919989	-0.096907
O156	O	0.713804	-0.419989	0.403093
H157	H	0.204946	-0.921821	-0.010867
H158	H	0.704946	-0.421821	0.489133
