data_functionalizedCrystal
_audit_creation_method	'MofGen! by Chris Wilmer'
_symmetry_space_group_name_H-M	'P1'
_symmetry_Int_Tables_number	1
_symmetry_cell_setting	triclinic
loop_
_symmetry_equiv_pos_as_xyz
  x,y,z
_cell_length_a	12.827893
_cell_length_b	12.594516
_cell_length_c	12.827885
_cell_angle_alpha	89.971598
_cell_angle_beta	90.019272
_cell_angle_gamma	89.973298
loop_
_atom_site_label
_atom_site_type_symbol
_atom_site_fract_x
_atom_site_fract_y
_atom_site_fract_z
Zn1	Zn	1.597587	0.423691	0.590859
Zn2	Zn	1.597447	0.601707	0.416123
Zn3	Zn	1.422829	0.423743	0.416132
Zn4	Zn	1.422779	0.601628	0.590823
O5	O	1.510161	0.512693	0.503484
O6	O	1.743805	0.447317	0.567691
O7	O	1.574245	0.578155	0.269888
O8	O	1.446090	0.274791	0.439329
O9	O	1.743701	0.578105	0.439313
O10	O	1.574485	0.274753	0.567700
O11	O	1.445954	0.447405	0.269895
O12	O	1.276586	0.447329	0.439294
O13	O	1.446006	0.577970	0.737064
O14	O	1.276550	0.578020	0.567639
O15	O	1.574437	0.447240	0.737090
O16	O	1.574197	0.750643	0.439279
O17	O	1.445870	0.750585	0.567630
C18	C	1.238651	0.512672	0.503464
C19	C	1.122497	0.512689	0.503481
C20	C	1.070722	0.577460	0.566892
C21	C	0.950672	0.577479	0.566910
C22	C	1.510041	0.789234	0.503472
C23	C	1.510086	0.907539	0.503502
C24	C	1.440269	0.976799	0.573263
C25	C	1.414794	1.047668	0.477907
C26	C	1.535618	1.047470	0.598873
C27	C	1.484561	0.976849	0.408096
C28	C	1.605429	0.976645	0.529126
C29	C	1.579990	1.047481	0.433705
C30	C	1.782731	0.512714	0.503505
C31	C	1.898884	0.512723	0.503514
C32	C	1.510232	0.512590	0.776055
C33	C	1.510262	0.512547	0.892208
C34	C	1.510263	1.235072	0.503518
C35	C	1.510189	1.116766	0.503528
C36	C	1.510150	0.512718	0.231974
C37	C	1.510322	0.512461	0.115822
C38	C	1.573820	0.447845	0.944006
C39	C	1.573853	0.447799	1.064056
H40	H	1.115273	0.632895	0.621170
O41	O	1.638722	0.381561	1.117072
C42	C	1.689479	0.200526	1.150741
C43	C	1.615964	0.275424	1.090616
H44	H	1.671091	0.114698	1.129390
H45	H	1.773763	0.219123	1.129323
H46	H	1.677958	0.212317	1.238089
H47	H	1.627392	0.263674	1.003254
H48	H	1.531707	0.256809	1.112120
H49	H	1.334214	1.078888	0.456256
O50	O	1.701586	0.939573	0.555069
C51	C	1.877830	0.983692	0.603489
C52	C	1.768977	1.025821	0.574130
H53	H	1.932352	1.053402	0.618886
H54	H	1.871850	0.932605	0.676631
H55	H	1.909894	0.933868	0.536603
H56	H	1.736850	1.075690	0.640948
H57	H	1.775022	1.076850	0.500956
O58	O	1.561216	1.084353	0.695156
C59	C	1.516426	1.090317	0.877473
C60	C	1.487341	1.048461	0.768495
H61	H	1.456701	1.061334	0.936794
H62	H	1.597061	1.059853	0.899961
H63	H	1.517012	1.180825	0.876326
H64	H	1.486694	0.957957	0.769559
H65	H	1.406724	1.079006	0.746050
H66	H	1.462914	0.945956	0.327431
O67	O	1.638681	0.381902	0.890729
C68	C	1.697716	0.321751	0.722502
C69	C	1.624221	0.396503	0.782703
H70	H	1.686035	0.333514	0.635153
H71	H	1.782017	0.340429	0.743827
H72	H	1.679454	0.235907	0.743971
H73	H	1.642389	0.482373	0.761267
H74	H	1.539942	0.377734	0.761374
H75	H	1.455908	0.567862	1.071284
H76	H	1.455865	0.567899	0.936739
H77	H	0.943402	0.457271	0.449219
O78	O	0.897401	0.643538	0.631646
C79	C	0.729175	0.703865	0.690614
C80	C	0.789376	0.628980	0.617262
H81	H	0.641825	0.692137	0.678994
H82	H	0.750540	0.685288	0.774947
H83	H	0.750602	0.789673	0.672150
H84	H	0.767980	0.543147	0.635632
H85	H	0.768005	0.647647	0.532950
O86	O	1.369813	0.939586	0.643531
C87	C	1.291382	0.785641	0.722822
C88	C	1.371228	0.827643	0.643234
H89	H	1.292483	0.695131	0.722592
H90	H	1.312300	0.815824	0.803944
H91	H	1.210188	0.814887	0.700797
H92	H	1.452449	0.798415	0.665162
H93	H	1.350220	0.797469	0.562133
O94	O	1.069319	0.446705	0.438605
C95	C	0.945865	0.432366	0.297696
C96	C	1.006035	0.507213	0.371095
H97	H	0.894669	0.481256	0.243110
H98	H	1.003478	0.383622	0.249873
H99	H	0.894846	0.376795	0.345827
H100	H	1.057055	0.562849	0.323044
H101	H	0.948365	0.555882	0.418922
H102	H	1.639076	1.078321	0.374653
