data_functionalizedCrystal
_audit_creation_method	'MofGen! by Chris Wilmer'
_symmetry_space_group_name_H-M	'P1'
_symmetry_Int_Tables_number	1
_symmetry_cell_setting	triclinic
loop_
_symmetry_equiv_pos_as_xyz
  x,y,z
_cell_length_a	18.215407
_cell_length_b	12.827892
_cell_length_c	18.215399
_cell_angle_alpha	89.976162
_cell_angle_beta	89.980167
_cell_angle_gamma	90.015840
loop_
_atom_site_label
_atom_site_type_symbol
_atom_site_fract_x
_atom_site_fract_y
_atom_site_fract_z
Zn1	Zn	1.125121	-0.416031	-0.416137
Zn2	Zn	1.125049	-0.590790	-0.293079
Zn3	Zn	1.002053	-0.416065	-0.293084
Zn4	Zn	1.002039	-0.590732	-0.416104
O5	O	1.063566	-0.503405	-0.354601
O6	O	1.228095	-0.439223	-0.399825
O7	O	1.108710	-0.567651	-0.190096
O8	O	1.018414	-0.269825	-0.309423
O9	O	1.228043	-0.567618	-0.309415
O10	O	1.108831	-0.269800	-0.399829
O11	O	1.018345	-0.439282	-0.190099
O12	O	0.899067	-0.439225	-0.309392
O13	O	1.018390	-0.567519	-0.519093
O14	O	0.899057	-0.567552	-0.399774
O15	O	1.108818	-0.439167	-0.519117
O16	O	1.108696	-0.737019	-0.309383
O17	O	1.018321	-0.736976	-0.399769
C18	C	0.872359	-0.503387	-0.354580
C19	C	0.790560	-0.503405	-0.354589
C20	C	1.063520	-0.774915	-0.354588
C21	C	1.063567	-0.891068	-0.354607
C22	C	0.602380	-0.570329	-0.401592
C23	C	0.525522	-0.570333	-0.401601
C24	C	0.525503	-0.436499	-0.307627
C25	C	0.602360	-0.436491	-0.307622
C26	C	0.640797	-0.503413	-0.354603
C27	C	0.487081	-0.503424	-0.354617
C28	C	0.403747	-0.503427	-0.354627
C29	C	0.724136	-0.503408	-0.354595
C30	C	1.108341	-0.942839	-0.309931
C31	C	1.108391	-1.062889	-0.309950
C32	C	1.255518	-0.503424	-0.354623
C33	C	1.337317	-0.503432	-0.354632
C34	C	1.063610	-0.503333	-0.546554
C35	C	1.063629	-0.503302	-0.628353
C36	C	1.063632	-0.230835	-0.354630
C37	C	1.063660	-0.114682	-0.354643
C38	C	1.110732	-0.436407	-0.816561
C39	C	1.110741	-0.436376	-0.893420
C40	C	1.016579	-0.570036	-0.893383
C41	C	1.016567	-0.570060	-0.816526
C42	C	1.063648	-0.503247	-0.778117
C43	C	1.063668	-0.503192	-0.931833
C44	C	1.063678	-0.503160	-1.015167
C45	C	1.063638	-0.503278	-0.694778
C46	C	1.063563	-0.503401	-0.163395
C47	C	1.063687	-0.503138	-0.081597
H48	H	0.494246	-0.624822	-0.439864
H49	H	1.146721	-1.107412	-0.271699
C50	C	0.964766	-0.643586	-0.774235
C51	C	0.906989	-0.598305	-0.721399
C52	C	0.855185	-0.671821	-0.679109
C53	C	0.861158	-0.790619	-0.689655
C54	C	0.918937	-0.835906	-0.742493
C55	C	0.970741	-0.762390	-0.784783
H56	H	0.902565	-0.510359	-0.713590
H57	H	0.812413	-0.638296	-0.639994
H58	H	0.822810	-0.845040	-0.658349
H59	H	0.923361	-0.923852	-0.750303
H60	H	1.013514	-0.795915	-0.823898
H61	H	0.494198	-0.382016	-0.269375
C62	C	0.644624	-0.362883	-0.255928
C63	C	0.602348	-0.289285	-0.204241
C64	C	0.644613	-0.215680	-0.152550
C65	C	0.729153	-0.215673	-0.152546
C66	C	0.771433	-0.289273	-0.204234
C67	C	0.729169	-0.362879	-0.255925
H68	H	0.539763	-0.289288	-0.204242
H69	H	0.613314	-0.161196	-0.114287
H70	H	0.760440	-0.161186	-0.114281
H71	H	0.834019	-0.289270	-0.204233
H72	H	0.760468	-0.417363	-0.294188
H73	H	1.146639	-0.898288	-0.271671
C74	C	1.011870	-1.054552	-0.406320
C75	C	0.954127	-0.979590	-0.374318
C76	C	0.902337	-0.919451	-0.425996
C77	C	0.908290	-0.934274	-0.509675
C78	C	0.966036	-1.009239	-0.541681
C79	C	1.017826	-1.069378	-0.490004
H80	H	0.949718	-0.968615	-0.312370
H81	H	0.859590	-0.863957	-0.402302
H82	H	0.869952	-0.889756	-0.547929
H83	H	0.970445	-1.020214	-0.603629
H84	H	1.060573	-1.124872	-0.513697
C85	C	1.162513	-0.362906	-0.774310
C86	C	1.214301	-0.289377	-0.816601
C87	C	1.266081	-0.215871	-0.774353
C88	C	1.266073	-0.215894	-0.689812
C89	C	1.214283	-0.289425	-0.647516
C90	C	1.162503	-0.362931	-0.689765
H91	H	1.214308	-0.289358	-0.879187
H92	H	1.304419	-0.161439	-0.805663
H93	H	1.304404	-0.161480	-0.658537
H94	H	1.214276	-0.289444	-0.584930
H95	H	1.124165	-0.417363	-0.658454
C96	C	1.162536	-0.362852	-0.935707
C97	C	1.246194	-0.371392	-0.925157
C98	C	1.297991	-0.297862	-0.967444
C99	C	1.266129	-0.215792	-1.020281
C100	C	1.182467	-0.207248	-1.030834
C101	C	1.130670	-0.280778	-0.988547
H102	H	1.269784	-0.432149	-0.886042
H103	H	1.359924	-0.304188	-0.959632
H104	H	1.304473	-0.161361	-1.051585
H105	H	1.158877	-0.146492	-1.069949
H106	H	1.068737	-0.274453	-0.996359
H107	H	1.025275	-0.935621	-0.392873
C108	C	0.964804	-0.643536	-0.935642
C109	C	0.996695	-0.725560	-0.988471
C110	C	0.944923	-0.799065	-1.030730
C111	C	0.861259	-0.790546	-1.020160
C112	C	0.829363	-0.708519	-0.967329
C113	C	0.881136	-0.635014	-0.925069
H114	H	1.058632	-0.731869	-0.996297
H115	H	0.968534	-0.859787	-1.069839
H116	H	0.822934	-0.844959	-1.051443
H117	H	0.767427	-0.702210	-0.959502
H118	H	0.857524	-0.574292	-0.885960
C119	C	0.644662	-0.643932	-0.453275
C120	C	0.602401	-0.717535	-0.504964
C121	C	0.644680	-0.791138	-0.556651
C122	C	0.729220	-0.791138	-0.556648
C123	C	0.771486	-0.717532	-0.504957
C124	C	0.729207	-0.643929	-0.453270
H125	H	0.539815	-0.717538	-0.504968
H126	H	0.613392	-0.845625	-0.594916
H127	H	0.760517	-0.845623	-0.594910
H128	H	0.834072	-0.717529	-0.504953
H129	H	0.760495	-0.589442	-0.415005
