data_functionalizedCrystal
_audit_creation_method	'MofGen! by Chris Wilmer'
_symmetry_space_group_name_H-M	'P1'
_symmetry_Int_Tables_number	1
_symmetry_cell_setting	triclinic
loop_
_symmetry_equiv_pos_as_xyz
  x,y,z
_cell_length_a	17.699097
_cell_length_b	27.732048
_cell_length_c	16.176319
_cell_angle_alpha	89.988239
_cell_angle_beta	89.988988
_cell_angle_gamma	82.965542
loop_
_atom_site_label
_atom_site_type_symbol
_atom_site_fract_x
_atom_site_fract_y
_atom_site_fract_z
O1	O	1.003533	0.061157	-0.068824
O2	O	1.503533	0.561157	0.431176
O3	O	0.783086	0.069104	-0.068812
O4	O	1.283086	0.569104	0.431188
O5	O	0.900156	-0.005241	-0.068803
O6	O	1.400156	0.494759	0.431197
O7	O	0.886463	0.135502	-0.068833
O8	O	1.386463	0.635502	0.431167
O9	O	0.900140	-0.005246	0.068691
O10	O	1.400140	0.494754	0.568691
O11	O	0.783070	0.069099	0.068681
O12	O	1.283070	0.569099	0.568681
O13	O	1.003517	0.061153	0.068669
O14	O	1.503517	0.561153	0.568669
Cu15	Cu	0.893292	0.065125	0.081229
Cu16	Cu	1.393292	0.565125	0.581229
Cu17	Cu	0.893311	0.065131	-0.081372
Cu18	Cu	1.393311	0.565131	0.418628
O19	O	0.886447	0.135498	0.068660
O20	O	1.386447	0.635498	0.568660
C21	C	0.754884	0.068815	-0.000064
C22	C	1.254884	0.568815	0.499936
C23	C	0.670874	0.067958	-0.000058
C24	C	1.170874	0.567958	0.499942
C25	C	0.899861	-0.023252	-0.000054
C26	C	1.399861	0.476748	0.499946
C27	C	0.898995	-0.076910	-0.000047
C28	C	1.398995	0.423090	0.499953
C29	C	0.155211	0.062705	-0.075038
C30	C	0.655211	0.562705	0.424962
C31	C	0.234148	0.063507	-0.075034
C32	C	0.734148	0.563507	0.424966
C33	C	0.273601	0.063907	-0.000083
C34	C	0.773601	0.563907	0.499917
C35	C	0.234115	0.063499	0.074869
C36	C	0.734115	0.563499	0.574869
C37	C	0.155180	0.062693	0.074864
C38	C	0.655180	0.562693	0.574864
C39	C	0.552451	0.066748	0.074890
C40	C	1.052451	0.566748	0.574890
C41	C	0.631391	0.067555	0.074889
C42	C	1.131391	0.567555	0.574889
C43	C	0.631418	0.067562	-0.075008
C44	C	1.131418	0.567562	0.424992
C45	C	0.552483	0.066756	-0.075013
C46	C	1.052483	0.566756	0.424987
C47	C	0.513004	0.066346	-0.000062
C48	C	1.013004	0.566346	0.499938
C49	C	0.427412	0.065475	-0.000067
C50	C	0.927412	0.565475	0.499933
C51	C	0.359192	0.064781	-0.000077
C52	C	0.859192	0.564781	0.499923
C53	C	0.962727	-0.415494	-0.000093
C54	C	1.462727	0.084506	0.499907
C55	C	0.959516	-0.617165	-0.000104
C56	C	1.459516	-0.117165	0.499896
O57	O	1.017794	-0.648209	-0.000144
O58	O	1.517794	-0.148209	0.499856
N59	N	0.890098	-0.636540	-0.000100
N60	N	1.390098	-0.136540	0.499900
C61	C	0.821478	-0.605495	-0.000098
C62	C	1.321478	-0.105495	0.499902
O63	O	0.762361	-0.626602	-0.000102
O64	O	1.262361	-0.126602	0.499898
C65	C	0.824691	-0.403824	-0.000092
C66	C	1.324691	0.096176	0.499908
C67	C	0.894113	-0.384452	-0.000088
C68	C	1.394113	0.115548	0.499912
C69	C	1.032144	-0.396121	-0.000090
C70	C	1.532144	0.103879	0.499910
C71	C	1.032946	-0.345706	-0.000083
C72	C	1.532946	0.154294	0.499917
C73	C	0.964331	-0.314664	-0.000078
C74	C	1.464331	0.185336	0.499922
C75	C	0.894915	-0.334037	-0.000081
C76	C	1.394915	0.165963	0.499919
C77	C	0.756072	-0.372780	-0.000096
C78	C	1.256072	0.127220	0.499904
C79	C	0.756881	-0.322359	-0.000097
C80	C	1.256881	0.177641	0.499903
C81	C	0.826303	-0.302987	-0.000093
C82	C	1.326303	0.197013	0.499907
C83	C	0.827102	-0.252580	-0.000069
C84	C	1.327102	0.247420	0.499931
N85	N	0.896520	-0.233205	-0.000074
N86	N	1.396520	0.266795	0.499926
C87	C	0.965135	-0.264247	-0.000078
C88	C	1.465135	0.235753	0.499922
C89	C	0.819797	-0.711375	-0.000099
C90	C	1.319797	-0.211375	0.499901
C91	C	0.818994	-0.761792	-0.000099
C92	C	1.318994	-0.261792	0.499901
C93	C	0.957031	-0.773459	-0.000107
C94	C	1.457031	-0.273459	0.499893
C95	C	0.957834	-0.723041	-0.000101
C96	C	1.457834	-0.223041	0.499899
C97	C	0.889215	-0.691999	-0.000103
C98	C	1.389215	-0.191999	0.499897
C99	C	0.966814	-0.158371	-0.000062
C100	C	1.466814	0.341629	0.499938
C101	C	0.967610	-0.107952	-0.000051
C102	C	1.467610	0.392048	0.499949
C103	C	0.829573	-0.096289	-0.000048
C104	C	1.329573	0.403711	0.499952
C105	C	0.828776	-0.146705	-0.000054
C106	C	1.328776	0.353295	0.499946
C107	C	0.897403	-0.177745	-0.000064
C108	C	1.397403	0.322255	0.499936
O109	O	0.768855	-0.221508	-0.000039
O110	O	1.268855	0.278492	0.499961
O111	O	1.024244	-0.243130	-0.000092
O112	O	1.524244	0.256870	0.499908
C113	C	0.961925	-0.465909	-0.000100
C114	C	1.461925	0.034091	0.499900
C115	C	0.892509	-0.485282	-0.000103
C116	C	1.392509	0.014718	0.499897
C117	C	0.823894	-0.454240	-0.000099
C118	C	1.323894	0.045760	0.499901
C119	C	0.891705	-0.535699	-0.000103
C120	C	1.391705	-0.035699	0.499897
C121	C	0.960320	-0.566741	-0.000107
C122	C	1.460320	-0.066741	0.499893
C123	C	1.029738	-0.547365	-0.000112
C124	C	1.529738	-0.047365	0.499888
C125	C	1.030540	-0.496950	-0.000105
C126	C	1.530540	0.003050	0.499895
C127	C	0.754476	-0.473615	-0.000094
C128	C	1.254476	0.026385	0.499906
C129	C	0.753680	-0.524031	-0.000100
C130	C	1.253680	-0.024031	0.499900
C131	C	0.822294	-0.555072	-0.000105
C132	C	1.322294	-0.055072	0.499895
C133	C	1.031720	0.061441	-0.000081
C134	C	1.531720	0.561441	0.499919
C135	C	1.115730	0.062298	-0.000092
C136	C	1.615730	0.562298	0.499908
C137	C	0.886743	0.153508	-0.000091
C138	C	1.386743	0.653508	0.499909
C139	C	0.887608	0.207166	-0.000103
C140	C	1.387608	0.707166	0.499897
N141	N	0.893285	0.065121	0.195595
N142	N	1.393285	0.565121	0.695595
N143	N	0.893325	0.065131	-0.195737
N144	N	1.393325	0.565131	0.304263
C145	C	0.945139	0.032215	0.238863
C146	C	1.445139	0.532215	0.738863
C147	C	0.945142	0.032214	0.325410
C148	C	1.445142	0.532214	0.825410
C149	C	0.893295	0.065123	0.368687
C150	C	1.393295	0.565123	0.868687
C151	C	0.841436	0.098031	0.325413
C152	C	1.341436	0.598031	0.825413
C153	C	0.841429	0.098029	0.238867
C154	C	1.341429	0.598029	0.738867
C155	C	0.841462	0.098040	0.674441
C156	C	1.341462	0.598040	1.174441
C157	C	0.841474	0.098041	0.760993
C158	C	1.341474	0.598041	1.260993
C159	C	0.945175	0.032225	0.760984
C160	C	1.445175	0.532225	1.260984
C161	C	0.945168	0.032223	0.674438
C162	C	1.445168	0.532223	1.174438
C163	C	0.893307	0.065129	0.631171
C164	C	1.393307	0.565129	1.131171
C165	C	0.893302	0.065129	0.537327
C166	C	1.393302	0.565129	1.037327
C167	C	0.893303	0.065126	0.462530
C168	C	1.393303	0.565126	0.962530
H169	H	0.123092	0.062383	-0.136072
H170	H	0.623092	0.562383	0.363928
O171	O	0.116728	0.062363	0.147614
O172	O	0.616728	0.562363	0.647614
C173	C	0.062018	0.103748	0.152100
C174	C	0.562018	0.603748	0.652100
H175	H	0.047186	0.117583	0.087023
H176	H	0.547186	0.617583	0.587023
H177	H	0.008543	0.093766	0.183818
H178	H	0.508543	0.593766	0.683818
H179	H	0.086084	0.133359	0.189085
H180	H	0.586084	0.633359	0.689085
H181	H	0.987365	0.005419	0.360639
H182	H	1.487365	0.505419	0.860639
O183	O	0.272536	0.063822	0.147623
O184	O	0.772536	0.563822	0.647623
C185	C	0.327245	0.022437	0.152128
C186	C	0.827245	0.522437	0.652128
H187	H	0.342104	0.008609	0.087058
H188	H	0.842104	0.508609	0.587058
H189	H	0.380707	0.032415	0.183850
H190	H	0.880707	0.532415	0.683850
H191	H	0.303163	-0.007178	0.189120
H192	H	0.803163	0.492822	0.689120
O193	O	1.035117	-0.089214	-0.000088
O194	O	1.535117	0.410786	0.499912
C195	C	1.095503	-0.127428	-0.000076
C196	C	1.595503	0.372572	0.499924
H197	H	1.074696	-0.161652	-0.026109
H198	H	1.574696	0.338348	0.473891
H199	H	1.144011	-0.116938	-0.039996
H200	H	1.644011	0.383062	0.460004
H201	H	1.116632	-0.134595	0.065884
H202	H	1.616632	0.365405	0.565884
H203	H	0.799217	0.124824	0.360654
H204	H	1.299217	0.624824	0.860654
H205	H	0.987389	0.005428	0.639205
H206	H	1.487389	0.505428	1.139205
O207	O	0.272378	0.063921	-0.147911
O208	O	0.772378	0.563921	0.352089
C209	C	0.220631	0.063385	-0.214064
C210	C	0.720631	0.563385	0.285936
H211	H	0.161049	0.078111	-0.192097
H212	H	0.661049	0.578111	0.307903
H213	H	0.238373	0.087076	-0.266489
H214	H	0.738373	0.587076	0.233511
H215	H	0.220629	0.024537	-0.237101
H216	H	0.720629	0.524537	0.262899
O217	O	0.669840	0.068021	-0.147765
O218	O	1.169840	0.568021	0.352235
C219	C	0.706426	0.110339	-0.152263
C220	C	1.206426	0.610339	0.347737
H221	H	0.715219	0.124407	-0.087190
H222	H	1.215219	0.624407	0.412810
H223	H	0.763976	0.101496	-0.183982
H224	H	1.263976	0.601496	0.316018
H225	H	0.669668	0.139335	-0.189254
H226	H	1.169668	0.639335	0.310746
H227	H	0.701001	-0.297087	-0.000100
H228	H	1.201001	0.202913	0.499900
H229	H	0.697144	-0.539798	-0.000096
H230	H	1.197144	-0.039798	0.499904
O231	O	0.514219	0.066377	0.147768
O232	O	1.014219	0.566377	0.647768
C233	C	0.565973	0.066893	0.213919
C234	C	1.065973	0.566893	0.713919
H235	H	0.618931	0.082765	0.191940
H236	H	1.118931	0.582765	0.691940
H237	H	0.538078	0.090118	0.266332
H238	H	1.038078	0.590118	0.766332
H239	H	0.582758	0.028216	0.236975
H240	H	1.082758	0.528216	0.736975
O241	O	0.995620	0.000235	0.802886
O242	O	1.495620	0.500235	1.302886
C243	C	1.041366	-0.028818	0.746129
C244	C	1.541366	0.471182	1.246129
H245	H	1.041985	-0.008999	0.684431
H246	H	1.541985	0.491001	1.184431
H247	H	1.101895	-0.036242	0.771120
H248	H	1.601895	0.463758	1.271120
H249	H	1.017211	-0.064707	0.736940
H250	H	1.517211	0.435293	1.236940
H251	H	0.520363	0.066433	-0.136046
H252	H	1.020363	0.566433	0.363954
H253	H	0.799203	0.124824	0.203639
H254	H	1.299203	0.624824	0.703639
O255	O	0.791060	0.130053	0.632547
O256	O	1.291060	0.630053	1.132547
C257	C	0.745292	0.159091	0.689307
C258	C	1.245292	0.659091	1.189307
H259	H	0.776325	0.159613	0.750987
H260	H	1.276325	0.659613	1.250987
H261	H	0.733288	0.197703	0.664290
H262	H	1.233288	0.697703	1.164290
H263	H	0.689257	0.143439	0.698539
H264	H	1.189257	0.643439	1.198539
O265	O	0.995430	0.000171	0.196883
O266	O	1.495430	0.500171	0.696883
C267	C	0.983684	-0.047662	0.218099
C268	C	1.483684	0.452338	0.718099
H269	H	0.923088	-0.047837	0.241896
H270	H	1.423088	0.452163	0.741896
H271	H	0.992675	-0.071943	0.161209
H272	H	1.492675	0.428057	0.661209
H273	H	1.025788	-0.061884	0.268347
H274	H	1.525788	0.438116	0.768347
O275	O	0.669815	0.067875	0.147648
O276	O	1.169815	0.567875	0.647648
C277	C	0.724523	0.026488	0.152140
C278	C	1.224523	0.526488	0.652140
H279	H	0.739378	0.012665	0.087066
H280	H	1.239378	0.512665	0.587066
H281	H	0.777988	0.036464	0.183860
H282	H	1.277988	0.536464	0.683860
H283	H	0.700444	-0.003129	0.189128
H284	H	1.200444	0.496871	0.689128
H285	H	1.088021	-0.421391	-0.000097
H286	H	1.588021	0.078609	0.499903
H287	H	1.022697	-0.183639	-0.000074
H288	H	1.522697	0.316361	0.499926
H289	H	1.089477	-0.329938	-0.000083
H290	H	1.589477	0.170062	0.499917
H291	H	1.014364	-0.707271	-0.000099
H292	H	1.514364	-0.207271	0.499901
O293	O	0.688613	-0.391565	-0.000252
O294	O	1.188613	0.108435	0.499748
C295	C	0.646837	-0.375669	-0.071453
C296	C	1.146837	0.124331	0.428547
H297	H	0.687459	-0.365223	-0.121218
H298	H	1.187459	0.134777	0.378782
H299	H	0.614995	-0.406169	-0.095364
H300	H	1.114995	0.093831	0.404636
H301	H	0.604277	-0.342762	-0.055354
H302	H	1.104277	0.157238	0.444646
H303	H	0.799251	0.124840	0.796228
H304	H	1.299251	0.624840	1.296228
H305	H	0.762463	-0.777560	-0.000087
H306	H	1.262463	-0.277560	0.499913
O307	O	1.023665	-0.803637	-0.000264
O308	O	1.523665	-0.303637	0.499736
C309	C	1.027313	-0.833146	-0.071467
C310	C	1.527313	-0.333146	0.428533
H311	H	0.988390	-0.814630	-0.121227
H312	H	1.488390	-0.314630	0.378773
H313	H	1.088345	-0.838880	-0.095384
H314	H	1.588345	-0.338880	0.404616
H315	H	1.008155	-0.869790	-0.055367
H316	H	1.508155	-0.369790	0.444633
H317	H	0.763915	-0.686105	-0.000101
H318	H	1.263915	-0.186105	0.499899
O319	O	0.761274	-0.165446	-0.000091
O320	O	1.261274	0.334554	0.499909
C321	C	0.700886	-0.127233	-0.000062
C322	C	1.200886	0.372767	0.499938
H323	H	0.721699	-0.092999	-0.026078
H324	H	1.221699	0.407001	0.473922
H325	H	0.652391	-0.137709	-0.039987
H326	H	1.152391	0.362291	0.460013
H327	H	0.679737	-0.120092	0.065902
H328	H	1.179737	0.379908	0.565902
H329	H	0.773708	-0.071006	-0.000041
H330	H	1.273708	0.428994	0.499959
H331	H	1.087070	-0.481182	-0.000102
H332	H	1.587070	0.018818	0.499898
O333	O	1.096371	-0.577544	-0.000265
O334	O	1.596371	-0.077544	0.499735
C335	C	1.100024	-0.607053	-0.071469
C336	C	1.600024	-0.107053	0.428531
H337	H	1.061107	-0.588536	-0.121232
H338	H	1.561107	-0.088536	0.378768
H339	H	1.161058	-0.612788	-0.095379
H340	H	1.661058	-0.112788	0.404621
H341	H	1.080863	-0.643696	-0.055373
H342	H	1.580863	-0.143696	0.444627
H343	H	0.698601	-0.448345	-0.000092
H344	H	1.198601	0.051655	0.499908
