data_functionalizedCrystal
_audit_creation_method	'MofGen! by Chris Wilmer'
_symmetry_space_group_name_H-M	'P1'
_symmetry_Int_Tables_number	1
_symmetry_cell_setting	triclinic
loop_
_symmetry_equiv_pos_as_xyz
  x,y,z
_cell_length_a	12.759401
_cell_length_b	17.640280
_cell_length_c	12.759393
_cell_angle_alpha	78.768143
_cell_angle_beta	89.982620
_cell_angle_gamma	78.801088
loop_
_atom_site_label
_atom_site_type_symbol
_atom_site_fract_x
_atom_site_fract_y
_atom_site_fract_z
Zn1	Zn	1.690805	-0.314619	-0.509515
Zn2	Zn	1.726234	-0.446816	-0.298344
Zn3	Zn	1.515121	-0.314661	-0.333844
Zn4	Zn	1.550610	-0.446755	-0.474002
O5	O	1.620692	-0.380713	-0.403926
O6	O	1.842528	-0.332163	-0.481509
O7	O	1.698204	-0.429329	-0.156021
O8	O	1.508747	-0.204048	-0.386866
O9	O	1.868557	-0.429288	-0.326362
O10	O	1.637821	-0.204017	-0.515931
O11	O	1.543101	-0.332235	-0.182102
O12	O	1.372806	-0.332175	-0.352430
O13	O	1.569232	-0.429184	-0.625746
O14	O	1.398879	-0.429224	-0.455404
O15	O	1.672233	-0.332104	-0.651837
O16	O	1.732616	-0.557415	-0.291927
O17	O	1.603586	-0.557370	-0.420982
C18	C	1.347721	-0.380698	-0.403916
C19	C	1.230948	-0.380711	-0.403931
C20	C	1.189712	-0.431325	-0.457417
C21	C	1.079990	-0.431335	-0.457426
C22	C	1.052751	-0.330114	-0.350455
C23	C	1.162469	-0.330101	-0.350453
C24	C	1.205438	-0.489767	-0.519172
C25	C	1.095716	-0.489777	-0.519181
C26	C	1.675825	-0.586072	-0.348772
C27	C	1.699507	-0.673925	-0.325211
C28	C	1.441214	-0.962885	-0.583294
C29	C	1.463469	-1.045436	-0.561122
C30	C	1.597911	-1.045418	-0.426873
C31	C	1.575671	-0.962864	-0.449037
C32	C	1.497320	-0.921604	-0.527248
C33	C	1.631777	-0.921584	-0.392991
C34	C	1.609535	-0.839038	-0.415150
C35	C	1.531186	-0.797772	-0.493355
C36	C	1.475078	-0.839058	-0.549407
C37	C	1.710122	-0.962846	-0.314775
C38	C	1.766229	-0.921565	-0.258729
C39	C	1.743992	-0.839018	-0.280893
C40	C	1.665643	-0.797752	-0.359098
C41	C	1.800100	-0.797732	-0.224841
C42	C	1.777858	-0.715185	-0.247000
C43	C	1.643400	-0.715206	-0.381257
C44	C	1.894730	-0.380728	-0.403937
C45	C	2.011508	-0.380734	-0.403942
C46	C	1.620739	-0.380632	-0.677981
C47	C	1.620759	-0.380598	-0.794767
C48	C	1.565373	-0.174552	-0.459320
C49	C	1.541800	-0.086698	-0.482925
C50	C	1.540023	-0.330032	-0.863218
C51	C	1.540048	-0.330008	-0.972949
C52	C	1.701556	-0.431119	-0.945767
C53	C	1.701525	-0.431146	-0.836038
C54	C	1.446780	-0.271653	-0.878913
C55	C	1.446805	-0.271630	-0.988644
C56	C	1.620691	-0.380736	-0.130953
C57	C	1.620815	-0.380548	-0.014227
H58	H	1.082370	-0.550978	-0.480818
H59	H	1.375397	-0.293542	-1.016787
H60	H	1.369796	-0.288046	-0.844735
H61	H	1.196037	-0.288881	-0.306908
O62	O	1.462950	-0.202357	-0.856753
C63	C	1.480177	-0.127867	-0.720367
C64	C	1.461882	-0.206391	-0.745312
H65	H	1.479297	-0.131096	-0.630270
H66	H	1.560807	-0.116524	-0.750913
H67	H	1.413889	-0.077821	-0.761469
H68	H	1.528105	-0.256485	-0.704218
H69	H	1.381216	-0.217665	-0.714789
O70	O	0.986088	-0.281036	-0.298511
C71	C	0.804982	-0.236166	-0.251151
C72	C	0.880356	-0.291799	-0.310005
H73	H	0.719478	-0.244837	-0.260443
H74	H	0.830156	-0.249974	-0.162673
H75	H	0.809509	-0.172454	-0.286834
H76	H	0.875866	-0.355530	-0.274412
H77	H	0.855158	-0.277922	-0.398480
O78	O	1.453278	-0.198561	-1.043642
C79	C	1.464901	-0.065424	-1.033613
C80	C	1.457598	-0.148137	-0.971196
H81	H	1.468373	-0.024629	-0.975069
H82	H	1.540106	-0.069364	-1.082153
H83	H	1.391545	-0.041032	-1.089842
H84	H	1.530899	-0.172578	-0.914911
H85	H	1.382348	-0.144148	-0.922726
H86	H	1.767313	-0.472273	-0.979383
H87	H	1.230857	-0.473442	-0.604962
H88	H	1.255073	-0.547885	-0.474285
H89	H	1.417786	-1.079044	-0.606780
H90	H	1.055844	-0.467926	-0.602399
H91	H	1.579607	-0.681610	-0.444952
O92	O	1.509571	-0.717586	-0.514692
C93	C	1.450667	-0.599184	-0.445755
C94	C	1.475131	-0.689993	-0.421438
H95	H	1.422796	-0.576847	-0.370381
H96	H	1.525951	-0.576671	-0.473604
H97	H	1.385067	-0.576807	-0.511317
H98	H	1.540697	-0.712437	-0.355857
H99	H	1.399795	-0.712452	-0.393649
O100	O	1.842446	-0.961690	-0.182892
C101	C	2.009340	-1.054866	-0.143850
C102	C	1.923121	-1.009460	-0.229849
H103	H	2.074576	-1.093512	-0.181778
H104	H	2.045711	-1.011222	-0.107598
H105	H	1.971514	-1.093522	-0.078480
H106	H	1.960865	-0.970803	-0.295283
H107	H	1.886757	-1.053146	-0.266016
H108	H	1.863885	-0.831338	-0.161155
O109	O	1.779840	-0.480247	-0.769387
C110	C	1.851401	-0.525075	-0.588304
C111	C	1.762630	-0.469438	-0.663663
H112	H	1.837531	-0.516343	-0.502814
H113	H	1.850048	-0.588817	-0.592670
H114	H	1.932397	-0.511213	-0.613661
H115	H	1.681591	-0.483229	-0.638357
H116	H	1.764079	-0.405712	-0.659288
H117	H	1.728232	-1.030060	-0.296739
H118	H	1.411284	-0.805463	-0.613102
O119	O	1.365051	-0.922920	-0.659284
C120	C	1.234112	-0.931640	-0.790193
C121	C	1.320308	-0.976998	-0.704145
H122	H	1.197928	-0.975343	-0.826504
H123	H	1.168733	-0.893063	-0.752330
H124	H	1.271922	-0.892925	-0.855507
H125	H	1.282595	-1.015756	-0.638805
H126	H	1.385677	-1.015525	-0.742087
O127	O	1.673896	-1.085460	-0.350758
C128	C	1.731850	-1.110707	-0.165313
C129	C	1.645704	-1.065331	-0.251402
H130	H	1.709099	-1.094438	-0.084968
H131	H	1.738117	-1.176808	-0.158995
H132	H	1.812161	-1.094427	-0.188267
H133	H	1.565348	-1.081546	-0.228511
H134	H	1.639531	-0.999242	-0.257703
H135	H	1.823545	-0.681575	-0.201361
