data_functionalizedCrystal
_audit_creation_method	'MofGen! by Chris Wilmer'
_symmetry_space_group_name_H-M	'P1'
_symmetry_Int_Tables_number	1
_symmetry_cell_setting	triclinic
loop_
_symmetry_equiv_pos_as_xyz
  x,y,z
_cell_length_a	15.538191
_cell_length_b	17.038272
_cell_length_c	14.750779
_cell_angle_alpha	76.426773
_cell_angle_beta	97.572172
_cell_angle_gamma	69.191825
loop_
_atom_site_label
_atom_site_type_symbol
_atom_site_fract_x
_atom_site_fract_y
_atom_site_fract_z
O1	O	1.211348	-0.226027	-0.079834
O2	O	0.944163	-0.137757	-0.079834
O3	O	1.076169	-0.295259	-0.079826
O4	O	1.079341	-0.068524	-0.079842
O5	O	1.113486	-0.339779	0.079826
O6	O	0.981480	-0.182277	0.079818
O7	O	1.248665	-0.270547	0.079819
Zn8	Zn	1.120997	-0.233481	0.105167
Zn9	Zn	1.071830	-0.174823	-0.105182
O10	O	1.116658	-0.113045	0.079811
C11	C	0.928466	-0.150782	-0.000008
C12	C	0.826097	-0.123272	-0.000008
C13	C	0.516405	-0.396569	-0.000005
C14	C	0.420212	-0.370700	-0.000007
C15	C	0.409427	-0.225194	-0.000017
C16	C	0.505622	-0.251052	-0.000010
C17	C	0.559104	-0.336740	-0.000005
C18	C	0.548321	-0.191224	-0.000010
C19	C	0.644507	-0.217079	-0.000007
C20	C	0.697994	-0.302762	-0.000005
C21	C	0.655290	-0.362595	-0.000003
C22	C	0.494837	-0.105535	-0.000021
C23	C	0.537536	-0.045706	-0.000021
C24	C	0.633725	-0.071563	-0.000012
C25	C	0.687212	-0.157246	-0.000010
C26	C	0.676429	-0.011730	-0.000015
C27	C	0.772615	-0.037585	-0.000013
C28	C	0.783398	-0.183101	-0.000008
C29	C	1.091939	-0.345828	-0.000000
C30	C	1.083321	-0.430177	-0.000001
C31	C	1.162445	-0.502729	0.000001
C32	C	1.154339	-0.581979	-0.000008
C33	C	1.067111	-0.588678	-0.000012
C34	C	0.987981	-0.516117	-0.000016
C35	C	0.996085	-0.436867	-0.000014
C36	C	1.038479	-0.826313	-0.000025
C37	C	1.030381	-0.905573	-0.000025
C38	C	1.196740	-0.971428	-0.000019
C39	C	1.204838	-0.892175	-0.000011
C40	C	1.125706	-0.819621	-0.000020
C41	C	1.058825	-0.669684	-0.000018
C42	C	1.133992	-0.738614	-0.000020
C43	C	1.264361	-0.257522	-0.000009
C44	C	1.366729	-0.285029	-0.000016
C45	C	1.100888	-0.062475	-0.000017
C46	C	1.109505	0.021876	-0.000023
N47	N	1.154558	-0.273515	0.248725
N48	N	1.038276	-0.134797	-0.248740
C49	C	0.944540	-0.023020	0.600530
C50	C	0.968065	-0.051070	0.701031
C51	C	1.084986	-0.190507	0.701000
C52	C	1.061467	-0.162470	0.600498
C53	C	0.991244	-0.078725	0.550271
C54	C	1.108172	-0.218176	0.550238
C55	C	1.084658	-0.190139	0.449744
C56	C	1.014440	-0.106396	0.399510
C57	C	0.967731	-0.050688	0.449777
C58	C	1.178399	-0.301918	0.600467
C59	C	1.225103	-0.357624	0.550208
C60	C	1.201585	-0.329589	0.449712
C61	C	1.131367	-0.245847	0.399478
C62	C	1.248294	-0.385297	0.399446
C63	C	1.224781	-0.357260	0.298952
C64	C	1.107854	-0.217810	0.298984
H65	H	0.632868	0.058040	-0.000029
H66	H	0.416516	-0.084486	-0.000026
H67	H	0.987804	-0.675148	-0.000019
H68	H	1.233477	-0.497286	0.000009
O69	O	0.991426	-0.079104	0.301890
C70	C	0.894908	-0.060533	0.268342
H71	H	0.855454	-0.045657	0.326271
H72	H	0.863163	-0.000970	0.201117
H73	H	0.888059	-0.119954	0.250508
O74	O	1.039745	-0.136393	0.250226
C75	C	1.066502	-0.071800	0.274791
H76	H	1.146732	-0.100015	0.302405
H77	H	1.043520	-0.011999	0.208700
H78	H	1.030892	-0.051156	0.333129
H79	H	0.776312	-0.323808	-0.000017
O80	O	1.270049	-0.411428	0.250131
C81	C	1.254807	-0.489741	0.274654
H82	H	1.187520	-0.476982	0.302323
H83	H	1.246848	-0.512620	0.208528
H84	H	1.317725	-0.542946	0.332937
H85	H	0.559954	-0.466346	0.000005
H86	H	0.807383	0.011131	-0.000004
H87	H	1.218771	-0.641051	-0.000005
O88	O	0.876431	0.058397	0.551772
C89	C	0.903188	0.122989	0.576337
H90	H	0.983418	0.094775	0.603951
H91	H	0.880206	0.182791	0.510246
H92	H	0.867578	0.143634	0.634675
O93	O	1.289633	-0.885810	-0.000047
C94	C	1.357741	-0.966849	-0.000019
H95	H	1.320519	-1.005256	-0.030255
H96	H	1.407430	-0.954054	-0.046360
H97	H	1.400348	-1.006767	0.076577
H98	H	0.910542	0.017502	0.408880
H99	H	0.493977	0.024062	-0.000029
O100	O	0.922829	0.003076	0.749892
C101	C	0.989529	0.020037	0.808029
H102	H	1.055182	0.009201	0.777730
H103	H	0.957085	0.091129	0.809173
H104	H	1.010255	-0.026501	0.884191
H105	H	0.974043	-0.767247	-0.000032
H106	H	1.261164	-1.030509	-0.000013
H107	H	0.959349	-0.911023	-0.000012
O108	O	1.316384	-0.466693	0.448289
C109	C	1.276891	-0.516092	0.506457
H110	H	1.197070	-0.488363	0.476190
H111	H	1.309869	-0.587821	0.507597
H112	H	1.291799	-0.512038	0.582616
H113	H	0.826947	-0.252878	0.000001
H114	H	0.698839	-0.432372	0.000007
H115	H	0.931654	-0.377793	-0.000015
O116	O	0.903267	-0.522694	-0.000148
C117	C	0.874266	-0.543484	-0.082845
H118	H	0.938826	-0.576258	-0.110411
H119	H	0.837712	-0.590465	-0.064248
H120	H	0.822808	-0.480544	-0.140745
O121	O	1.218642	-0.731966	-0.000145
C122	C	1.208986	-0.665048	-0.082842
H123	H	1.131537	-0.616903	-0.110415
H124	H	1.254225	-0.628434	-0.064241
H125	H	1.233388	-0.695692	-0.140738
O126	O	1.153144	-0.271842	0.749944
C127	C	1.163903	-0.284636	0.849420
H128	H	1.096183	-0.239149	0.863166
H129	H	1.178445	-0.356088	0.887611
H130	H	1.225779	-0.269019	0.877923
O131	O	1.201092	-0.329178	0.698087
C132	C	1.120277	-0.329308	0.731685
H133	H	1.068200	-0.334664	0.673780
H134	H	1.142204	-0.387852	0.798911
H135	H	1.085080	-0.265516	0.749533
O136	O	1.293261	-0.438958	0.599151
C137	C	1.304020	-0.451752	0.698627
H138	H	1.236301	-0.406265	0.712373
H139	H	1.318562	-0.523204	0.736819
H140	H	1.365897	-0.436135	0.727130
H141	H	0.385450	-0.419425	-0.000009
H142	H	0.365869	-0.155426	-0.000025
