data_functionalizedCrystal
_audit_creation_method	'MofGen! by Chris Wilmer'
_symmetry_space_group_name_H-M	'P1'
_symmetry_Int_Tables_number	1
_symmetry_cell_setting	triclinic
loop_
_symmetry_equiv_pos_as_xyz
  x,y,z
_cell_length_a	17.077404
_cell_length_b	21.295417
_cell_length_c	17.077396
_cell_angle_alpha	89.966808
_cell_angle_beta	89.980499
_cell_angle_gamma	90.030732
loop_
_atom_site_label
_atom_site_type_symbol
_atom_site_fract_x
_atom_site_fract_y
_atom_site_fract_z
Zn1	Zn	1.200013	-0.250605	-0.443817
Zn2	Zn	1.700013	0.249395	0.056183
Zn3	Zn	1.199903	-0.355878	-0.312540
Zn4	Zn	1.699903	0.144122	0.187460
Zn5	Zn	1.068745	-0.250628	-0.312565
Zn6	Zn	1.568745	0.249372	0.187435
Zn7	Zn	1.068695	-0.355841	-0.443764
Zn8	Zn	1.568695	0.144159	0.056236
O9	O	1.134339	-0.303238	-0.378171
O10	O	1.634339	0.196762	0.121829
O11	O	1.309845	-0.264577	-0.426415
O12	O	1.809845	0.235423	0.073585
O13	O	1.182479	-0.341942	-0.202697
O14	O	1.682479	0.158058	0.297303
O15	O	1.086225	-0.162535	-0.330008
O16	O	1.586225	0.337465	0.169992
O17	O	1.309764	-0.341920	-0.329966
O18	O	1.809764	0.158080	0.170034
O19	O	1.182667	-0.162519	-0.426439
O20	O	1.682667	0.337481	0.073561
O21	O	1.086118	-0.264614	-0.202715
O22	O	1.586118	0.235386	0.297285
O23	O	0.958891	-0.264578	-0.329957
O24	O	1.458891	0.235422	0.170043
O25	O	1.086140	-0.341857	-0.553618
O26	O	1.586140	0.158143	-0.053618
O27	O	0.958855	-0.341878	-0.426348
O28	O	1.458855	0.158122	0.073652
O29	O	1.182619	-0.264540	-0.553657
O30	O	1.682619	0.235460	-0.053657
O31	O	1.182431	-0.443963	-0.329915
O32	O	1.682431	0.056037	0.170085
O33	O	1.086033	-0.443935	-0.426324
O34	O	1.586033	0.056065	0.073676
C35	C	0.930391	-0.303227	-0.378150
C36	C	1.430391	0.196773	0.121850
C37	C	0.843141	-0.303237	-0.378159
C38	C	1.343141	0.196763	0.121841
C39	C	0.802153	-0.343548	-0.428270
C40	C	1.302153	0.156452	0.071730
C41	C	0.720172	-0.343549	-0.428282
C42	C	1.220172	0.156451	0.071718
C43	C	0.679182	-0.303242	-0.378180
C44	C	1.179182	0.196758	0.121820
C45	C	0.720176	-0.262927	-0.328067
C46	C	1.220176	0.237073	0.171933
C47	C	0.802155	-0.262923	-0.328059
C48	C	1.302155	0.237077	0.171941
C49	C	0.549306	-0.262940	-0.328086
C50	C	1.049306	0.237060	0.171914
C51	C	0.467322	-0.262944	-0.328093
C52	C	0.967322	0.237056	0.171907
C53	C	0.467323	-0.343566	-0.428309
C54	C	0.967323	0.156434	0.071691
C55	C	0.549302	-0.343562	-0.428301
C56	C	1.049302	0.156438	0.071699
C57	C	0.590291	-0.303247	-0.378187
C58	C	1.090291	0.196753	0.121813
C59	C	1.134236	-0.466790	-0.378128
C60	C	1.634236	0.033210	0.121872
C61	C	1.134264	-0.536758	-0.378136
C62	C	1.634264	-0.036758	0.121864
C63	C	1.184503	-0.569618	-0.327987
C64	C	1.684503	-0.069618	0.172013
C65	C	1.184539	-0.635360	-0.328004
C66	C	1.684539	-0.135360	0.171996
C67	C	1.134323	-0.668240	-0.378163
C68	C	1.634323	-0.168240	0.121837
C69	C	1.084081	-0.635372	-0.428321
C70	C	1.584081	-0.135372	0.071679
C71	C	1.084051	-0.569631	-0.428308
C72	C	1.584051	-0.069631	0.071692
N73	N	1.065655	-0.771506	-0.384140
N74	N	1.565655	-0.271506	0.115860
N75	N	1.065685	-0.833958	-0.384148
N76	N	1.565685	-0.333958	0.115852
C77	C	1.134411	-0.866315	-0.378208
C78	C	1.634411	-0.366315	0.121792
N79	N	1.203107	-0.833862	-0.372244
N80	N	1.703107	-0.333862	0.127756
N81	N	1.203076	-0.771405	-0.372231
N82	N	1.703076	-0.271405	0.127769
C83	C	1.134351	-0.739526	-0.378183
C84	C	1.634351	-0.239526	0.121817
C85	C	1.184694	-0.970461	-0.328075
C86	C	1.684694	-0.470461	0.171925
C87	C	1.184732	-1.036204	-0.328098
C88	C	1.684732	-0.536204	0.171902
C89	C	1.084267	-1.036215	-0.428411
C90	C	1.584267	-0.536215	0.071589
C91	C	1.084236	-0.970473	-0.428392
C92	C	1.584236	-0.470473	0.071608
C93	C	1.134449	-0.937599	-0.378220
C94	C	1.634449	-0.437599	0.121780
C95	C	1.339083	-0.303250	-0.378194
C96	C	1.839083	0.196750	0.121806
C97	C	1.426333	-0.303255	-0.378203
C98	C	1.926333	0.196745	0.121797
C99	C	1.134386	-0.303192	-0.582916
C100	C	1.634386	0.196808	-0.082916
C101	C	1.134407	-0.303172	-0.670166
C102	C	1.634407	0.196828	-0.170166
C103	C	1.134464	-0.139048	-0.378232
C104	C	1.634464	0.360952	0.121768
C105	C	1.134517	-0.069080	-0.378258
C106	C	1.634517	0.430920	0.121742
C107	C	1.184645	-0.262910	-0.711177
C108	C	1.684645	0.237090	-0.211177
C109	C	1.184654	-0.262889	-0.793158
C110	C	1.684654	0.237111	-0.293158
C111	C	1.134429	-0.303134	-0.834125
C112	C	1.634429	0.196866	-0.334125
C113	C	1.084185	-0.343397	-0.793108
C114	C	1.584185	0.156603	-0.293108
C115	C	1.084172	-0.343415	-0.711129
C116	C	1.584172	0.156585	-0.211129
C117	C	1.084217	-0.343360	-0.963978
C118	C	1.584217	0.156640	-0.463978
C119	C	1.084231	-0.343343	-1.045963
C120	C	1.584231	0.156657	-0.545963
C121	C	1.184699	-0.262834	-1.046007
C122	C	1.684699	0.237166	-0.546007
C123	C	1.184686	-0.262851	-0.964028
C124	C	1.684686	0.237149	-0.464028
C125	C	1.134443	-0.303116	-0.923016
C126	C	1.634443	0.196884	-0.423016
C127	C	1.134337	-0.303239	-0.174224
C128	C	1.634337	0.196761	0.325776
C129	C	1.134469	-0.303081	-0.086974
C130	C	1.634469	0.196919	0.413026
H131	H	0.433946	-0.376389	-0.469116
H132	H	0.933946	0.123611	0.030884
C133	C	1.029530	-0.670954	-0.482866
C134	C	1.529530	-0.170954	0.017134
C135	C	0.985539	-0.628101	-0.526797
C136	C	1.485539	-0.128101	-0.026797
C137	C	0.935287	-0.660855	-0.577064
C138	C	1.435287	-0.160855	-0.077064
H139	H	0.995286	-0.696644	-0.452900
H140	H	1.495286	-0.196644	0.047100
H141	H	1.059534	-0.696545	-0.517141
H142	H	1.559534	-0.196545	-0.017141
H143	H	0.955537	-0.602522	-0.492526
H144	H	1.455537	-0.102522	0.007474
H145	H	1.019762	-0.602410	-0.556779
H146	H	1.519762	-0.102410	-0.056779
H147	H	0.965291	-0.686446	-0.611340
H148	H	1.465291	-0.186446	-0.111340
H149	H	0.901048	-0.686544	-0.547092
H150	H	1.401048	-0.186544	-0.047092
H151	H	0.905438	-0.631785	-0.606883
H152	H	1.405438	-0.131785	-0.106883
C153	C	1.239130	-0.934651	-0.273643
C154	C	1.739130	-0.434651	0.226357
C155	C	1.228333	-0.870044	-0.284345
C156	C	1.728333	-0.370044	0.215655
C157	C	1.278459	-0.837038	-0.234209
C158	C	1.778459	-0.337038	0.265791
H159	H	1.291902	-0.945302	-0.285135
H160	H	1.791902	-0.445302	0.214865
H161	H	1.227673	-0.945430	-0.220875
H162	H	1.727673	-0.445430	0.279125
H163	H	1.239797	-0.859269	-0.337101
H164	H	1.739797	-0.359269	0.162899
H165	H	1.175572	-0.859374	-0.272848
H166	H	1.675572	-0.359374	0.227152
H167	H	1.267002	-0.847818	-0.181442
H168	H	1.767002	-0.347818	0.318558
H169	H	1.331228	-0.847695	-0.245705
H170	H	1.831228	-0.347695	0.254295
H171	H	1.271135	-0.793199	-0.241459
H172	H	1.771135	-0.293199	0.258541
C173	C	0.846794	-0.387286	-0.482583
C174	C	1.346794	0.112714	0.017417
C175	C	0.927362	-0.378669	-0.471839
C176	C	1.427362	0.121331	0.028161
C177	C	0.968508	-0.418955	-0.521855
C178	C	1.468508	0.081045	-0.021855
H179	H	0.833482	-0.378167	-0.535379
H180	H	1.333482	0.121833	-0.035379
H181	H	0.833374	-0.429584	-0.470992
H182	H	1.333374	0.070416	0.029008
H183	H	0.940777	-0.336381	-0.483436
H184	H	1.440777	0.163619	0.016564
H185	H	0.940698	-0.387793	-0.419054
H186	H	1.440698	0.112207	0.080946
H187	H	0.955087	-0.461253	-0.510264
H188	H	1.455087	0.038747	-0.010264
H189	H	0.955188	-0.409832	-0.574648
H190	H	1.455188	0.090168	-0.074648
H191	H	1.023177	-0.413118	-0.514567
H192	H	1.523177	0.086882	-0.014567
H193	H	1.225453	-0.662120	-0.287167
H194	H	1.725453	-0.162120	0.212833
H195	H	0.686795	-0.230106	-0.287276
H196	H	1.186795	0.269894	0.212724
H197	H	0.835527	-0.230095	-0.287258
H198	H	1.335527	0.269905	0.212742
H199	H	1.043255	-0.376194	-0.677738
H200	H	1.543255	0.123806	-0.177738
H201	H	1.043288	-0.376163	-0.826470
H202	H	1.543288	0.123837	-0.326470
C203	C	1.239113	-0.534041	-0.273495
C204	C	1.739113	-0.034041	0.226505
C205	C	1.283134	-0.576895	-0.229596
C206	C	1.783134	-0.076895	0.270404
C207	C	1.333459	-0.544144	-0.179401
C208	C	1.833459	-0.044144	0.320599
H209	H	1.209185	-0.508433	-0.239190
H210	H	1.709185	-0.008433	0.260810
H211	H	1.273329	-0.508369	-0.303535
H212	H	1.773329	-0.008369	0.196465
H213	H	1.248922	-0.602557	-0.199559
H214	H	1.748922	-0.102557	0.300441
H215	H	1.313078	-0.602506	-0.263881
H216	H	1.813078	-0.102506	0.236119
H217	H	1.367675	-0.518472	-0.209441
H218	H	1.867675	-0.018472	0.290559
H219	H	1.303525	-0.518536	-0.145101
H220	H	1.803525	-0.018536	0.354899
H221	H	1.363339	-0.573215	-0.149615
H222	H	1.863339	-0.073215	0.350385
H223	H	1.043331	-0.376113	-1.079316
H224	H	1.543331	0.123887	-0.579316
C225	C	1.239312	-1.071770	-0.273562
C226	C	1.739312	-0.571770	0.226438
C227	C	1.283260	-1.028907	-0.229609
C228	C	1.783260	-0.528907	0.270391
C229	C	1.333539	-1.061648	-0.179354
C230	C	1.833539	-0.561648	0.320646
H231	H	1.273582	-1.097374	-0.303537
H232	H	1.773582	-0.597374	0.196463
H233	H	1.209330	-1.097446	-0.239299
H234	H	1.709330	-0.597446	0.260701
H235	H	1.313240	-1.003241	-0.263867
H236	H	1.813240	-0.503241	0.236133
H237	H	1.249011	-1.003302	-0.199618
H238	H	1.749011	-0.503302	0.300382
H239	H	1.303558	-1.087324	-0.145091
H240	H	1.803558	-0.587324	0.354909
H241	H	1.367804	-1.087250	-0.209335
H242	H	1.867804	-0.587250	0.290665
H243	H	1.363359	-1.032570	-0.149520
H244	H	1.863359	-0.532570	0.350480
C245	C	0.422759	-0.219271	-0.273632
C246	C	0.922759	0.280729	0.226368
C247	C	0.375649	-0.254846	-0.223223
C248	C	0.875649	0.245154	0.276777
C249	C	0.334588	-0.214631	-0.173050
C250	C	0.834588	0.285369	0.326950
H251	H	0.390753	-0.191880	-0.303669
H252	H	0.890753	0.308120	0.196331
H253	H	0.458872	-0.195257	-0.243742
H254	H	0.958872	0.304743	0.256258
H255	H	0.339540	-0.278850	-0.253110
H256	H	0.839540	0.221150	0.246890
H257	H	0.407635	-0.282236	-0.193170
H258	H	0.907635	0.217764	0.306830
H259	H	0.370701	-0.190616	-0.143160
H260	H	0.870701	0.309384	0.356840
H261	H	0.302587	-0.187242	-0.203093
H262	H	0.802587	0.312758	0.296907
H263	H	0.302625	-0.238763	-0.138837
H264	H	0.802625	0.261237	0.361163
H265	H	1.225565	-0.230105	-0.826546
H266	H	1.725565	0.269895	-0.326546
C267	C	0.593668	-0.219151	-0.273584
C268	C	1.093668	0.280849	0.226416
C269	C	0.540227	-0.183868	-0.229688
C270	C	1.040227	0.316132	0.270312
C271	C	0.581064	-0.143536	-0.179462
C272	C	1.081064	0.356464	0.320538
H273	H	0.625685	-0.191694	-0.303577
H274	H	1.125685	0.308306	0.196423
H275	H	0.625598	-0.243187	-0.239284
H276	H	1.125598	0.256813	0.260716
H277	H	0.508310	-0.159834	-0.263984
H278	H	1.008310	0.340166	0.236016
H279	H	0.508208	-0.211308	-0.199679
H280	H	1.008208	0.288692	0.300321
H281	H	0.612994	-0.167572	-0.145162
H282	H	1.112994	0.332428	0.354838
H283	H	0.613079	-0.116083	-0.209461
H284	H	1.113079	0.383917	0.290539
H285	H	0.544810	-0.119595	-0.149668
H286	H	1.044810	0.380405	0.350332
C287	C	1.029779	-1.072019	-0.482789
C288	C	1.529779	-0.572019	0.017211
C289	C	1.040546	-1.136626	-0.472058
C290	C	1.540546	-0.636626	0.027942
C291	C	0.990360	-1.169631	-0.522134
C292	C	1.490360	-0.669631	-0.022134
H293	H	1.041184	-1.061278	-0.535570
H294	H	1.541184	-0.561278	-0.035570
H295	H	0.977020	-1.061328	-0.471244
H296	H	1.477020	-0.561328	0.028756
H297	H	1.093292	-1.147312	-0.483608
H298	H	1.593292	-0.647312	0.016392
H299	H	1.029135	-1.147385	-0.419287
H300	H	1.529135	-0.647385	0.080713
H301	H	0.937601	-1.158940	-0.510589
H302	H	1.437601	-0.658940	-0.010589
H303	H	1.001769	-1.158885	-0.574912
H304	H	1.501769	-0.658885	-0.074912
H305	H	0.997653	-1.213470	-0.514855
H306	H	1.497653	-0.713470	-0.014855
C307	C	1.029595	-0.934905	-0.482862
C308	C	1.529595	-0.434905	0.017138
C309	C	0.985609	-0.977768	-0.526779
C310	C	1.485609	-0.477768	-0.026779
C311	C	0.935257	-0.945027	-0.576960
C312	C	1.435257	-0.445027	-0.076960
H313	H	1.059501	-0.909214	-0.517157
H314	H	1.559501	-0.409214	-0.017157
H315	H	0.995357	-0.909317	-0.452812
H316	H	1.495357	-0.409317	0.047188
H317	H	1.019842	-1.003346	-0.556827
H318	H	1.519842	-0.503346	-0.056827
H319	H	0.955687	-1.003461	-0.492505
H320	H	1.455687	-0.503461	0.007495
H321	H	0.901019	-0.919439	-0.546910
H322	H	1.401019	-0.419439	-0.046910
H323	H	0.965169	-0.919337	-0.611250
H324	H	1.465169	-0.419337	-0.111250
H325	H	0.905402	-0.974105	-0.606759
H326	H	1.405402	-0.474105	-0.106759
C327	C	1.239080	-0.219108	-0.666746
C328	C	1.739080	0.280892	-0.166746
C329	C	1.222020	-0.156821	-0.686696
C330	C	1.722020	0.343179	-0.186696
C331	C	1.272142	-0.116450	-0.645776
C332	C	1.772142	0.383550	-0.145776
H333	H	1.291845	-0.228236	-0.680154
H334	H	1.791845	0.271764	-0.180154
H335	H	1.231874	-0.224840	-0.612040
H336	H	1.731874	0.275160	-0.112040
H337	H	1.229233	-0.151091	-0.741390
H338	H	1.729233	0.348909	-0.241390
H339	H	1.169264	-0.147673	-0.673285
H340	H	1.669264	0.352327	-0.173285
H341	H	1.264936	-0.122182	-0.591071
H342	H	1.764936	0.377818	-0.091071
H343	H	1.324904	-0.125583	-0.659189
H344	H	1.824904	0.374417	-0.159189
H345	H	1.260569	-0.074183	-0.659302
H346	H	1.760569	0.425817	-0.159302
H347	H	0.686803	-0.376375	-0.469086
H348	H	1.186803	0.123625	0.030914
H349	H	1.225588	-0.230084	-0.930675
H350	H	1.725588	0.269916	-0.430675
C351	C	1.029654	-0.387157	-0.919590
C352	C	1.529654	0.112843	-0.419590
C353	C	0.985694	-0.422417	-0.973012
C354	C	1.485694	0.077583	-0.473012
C355	C	0.935442	-0.462782	-0.932151
C356	C	1.435442	0.037218	-0.432151
H357	H	0.995389	-0.363165	-0.887602
H358	H	1.495389	0.136835	-0.387602
H359	H	1.059655	-0.414622	-0.887631
H360	H	1.559655	0.085378	-0.387631
H361	H	0.955695	-0.394955	-1.004958
H362	H	1.455695	0.105045	-0.504958
H363	H	1.019938	-0.446422	-1.005002
H364	H	1.519938	0.053578	-0.505002
H365	H	0.965443	-0.490247	-0.900191
H366	H	1.465443	0.009753	-0.400191
H367	H	0.901183	-0.438785	-0.900164
H368	H	1.401183	0.061215	-0.400164
H369	H	0.905614	-0.486715	-0.968391
H370	H	1.405614	0.013285	-0.468391
H371	H	0.582674	-0.376386	-0.469094
H372	H	1.082674	0.123614	0.030906
H373	H	1.043140	-0.542876	-0.469146
H374	H	1.543140	-0.042876	0.030854
H375	H	1.225607	-0.230048	-1.079403
H376	H	1.725607	0.269952	-0.579403
