data_functionalizedCrystal
_audit_creation_method	'MofGen! by Chris Wilmer'
_symmetry_space_group_name_H-M	'P1'
_symmetry_Int_Tables_number	1
_symmetry_cell_setting	triclinic
loop_
_symmetry_equiv_pos_as_xyz
  x,y,z
_cell_length_a	18.215407
_cell_length_b	21.295411
_cell_length_c	18.215405
_cell_angle_alpha	89.979957
_cell_angle_beta	90.025333
_cell_angle_gamma	89.975315
loop_
_atom_site_label
_atom_site_type_symbol
_atom_site_fract_x
_atom_site_fract_y
_atom_site_fract_z
Zn1	Zn	1.125107	-0.355921	-0.293059
Zn2	Zn	1.625107	0.144079	0.206941
Zn3	Zn	1.125005	-0.250649	-0.416108
Zn4	Zn	1.625005	0.249351	0.083892
Zn5	Zn	1.002029	-0.250665	-0.293061
Zn6	Zn	1.502029	0.249335	0.206939
Zn7	Zn	1.002006	-0.355880	-0.416090
Zn8	Zn	1.502006	0.144120	0.083910
O9	O	1.063537	-0.303279	-0.354579
O10	O	1.563537	0.196721	0.145421
O11	O	1.228078	-0.341966	-0.309389
O12	O	1.728078	0.158034	0.190611
O13	O	1.108659	-0.162562	-0.399794
O14	O	1.608659	0.337438	0.100206
O15	O	1.018408	-0.264651	-0.190076
O16	O	1.518408	0.235349	0.309924
O17	O	1.228003	-0.264623	-0.399792
O18	O	1.728003	0.235377	0.100208
O19	O	1.108833	-0.341982	-0.190075
O20	O	1.608833	0.158018	0.309925
O21	O	1.018310	-0.162574	-0.309392
O22	O	1.518310	0.337426	0.190608
O23	O	0.899042	-0.264612	-0.309374
O24	O	1.399042	0.235388	0.190626
O25	O	1.018368	-0.443975	-0.399761
O26	O	1.518368	0.056025	0.100239
O27	O	0.899024	-0.341913	-0.399763
O28	O	1.399024	0.158087	0.100237
O29	O	1.108810	-0.444005	-0.309371
O30	O	1.608810	0.055995	0.190629
O31	O	1.108636	-0.264584	-0.519090
O32	O	1.608636	0.235416	-0.019090
O33	O	1.018269	-0.341897	-0.519076
O34	O	1.518269	0.158103	-0.019076
C35	C	0.872331	-0.303261	-0.354567
C36	C	1.372331	0.196739	0.145433
C37	C	0.790532	-0.303268	-0.354579
C38	C	1.290532	0.196732	0.145421
C39	C	0.602348	-0.343468	-0.401719
C40	C	1.102348	0.156532	0.098281
C41	C	0.525489	-0.343476	-0.401721
C42	C	1.025489	0.156524	0.098279
C43	C	0.525478	-0.263103	-0.307454
C44	C	1.025478	0.236897	0.192546
C45	C	0.602335	-0.263099	-0.307448
C46	C	1.102335	0.236901	0.192552
C47	C	0.640768	-0.303280	-0.354585
C48	C	1.140768	0.196720	0.145415
C49	C	0.487052	-0.303293	-0.354593
C50	C	0.987052	0.196707	0.145407
C51	C	0.403718	-0.303301	-0.354595
C52	C	0.903718	0.196699	0.145405
C53	C	0.724107	-0.303273	-0.354582
C54	C	1.224107	0.196727	0.145418
C55	C	1.063598	-0.467469	-0.354564
C56	C	1.563598	0.032531	0.145436
C57	C	1.063624	-0.537437	-0.354557
C58	C	1.563624	-0.037437	0.145443
C59	C	1.110715	-0.570320	-0.307489
C60	C	1.610715	-0.070320	0.192511
C61	C	1.110714	-0.636063	-0.307457
C62	C	1.610714	-0.136063	0.192543
C63	C	1.063630	-0.668920	-0.354507
C64	C	1.563630	-0.168920	0.145493
C65	C	1.016529	-0.636029	-0.401578
C66	C	1.516529	-0.136029	0.098422
C67	C	1.016526	-0.570288	-0.401603
C68	C	1.516526	-0.070288	0.098397
N69	N	1.057958	-0.772137	-0.418886
N70	N	1.557958	-0.272137	0.081114
N71	N	1.057965	-0.834588	-0.418860
N72	N	1.557965	-0.334588	0.081140
C73	C	1.063634	-0.866995	-0.354432
C74	C	1.563634	-0.366995	0.145568
N75	N	1.069311	-0.834590	-0.290030
N76	N	1.569311	-0.334590	0.209970
N77	N	1.069307	-0.772133	-0.290057
N78	N	1.569307	-0.272133	0.209943
C79	C	1.063627	-0.740205	-0.354484
C80	C	1.563627	-0.240205	0.145516
C81	C	1.110727	-0.971163	-0.307325
C82	C	1.610727	-0.471163	0.192675
C83	C	1.110721	-1.036907	-0.307292
C84	C	1.610721	-0.536907	0.192708
C85	C	1.016540	-1.036872	-0.401419
C86	C	1.516540	-0.536872	0.098581
C87	C	1.016542	-0.971129	-0.401446
C88	C	1.516542	-0.471129	0.098554
C89	C	1.063640	-0.938279	-0.354400
C90	C	1.563640	-0.438279	0.145600
C91	C	1.255490	-0.303297	-0.354593
C92	C	1.755490	0.196703	0.145407
C93	C	1.337289	-0.303305	-0.354598
C94	C	1.837289	0.196695	0.145402
C95	C	1.063459	-0.303248	-0.545786
C96	C	1.563459	0.196752	-0.045786
C97	C	1.063493	-0.303257	-0.627585
C98	C	1.563493	0.196743	-0.127585
C99	C	1.063518	-0.139727	-0.354542
C100	C	1.563518	0.360273	0.145458
C101	C	1.063635	-0.069759	-0.354341
C102	C	1.563635	0.430241	0.145659
C103	C	1.110658	-0.263074	-0.815761
C104	C	1.610658	0.236926	-0.315761
C105	C	1.110691	-0.263089	-0.892620
C106	C	1.610691	0.236911	-0.392620
C107	C	1.016510	-0.343529	-0.892646
C108	C	1.516510	0.156471	-0.392646
C109	C	1.016481	-0.343517	-0.815788
C110	C	1.516481	0.156483	-0.315788
C111	C	1.063554	-0.303285	-0.777348
C112	C	1.563554	0.196715	-0.277348
C113	C	1.063616	-0.303313	-0.931064
C114	C	1.563616	0.196687	-0.431064
C115	C	1.063651	-0.303330	-1.014398
C116	C	1.563651	0.196670	-0.514398
C117	C	1.063520	-0.303269	-0.694009
C118	C	1.563520	0.196731	-0.194009
C119	C	1.063635	-0.303323	-0.162627
C120	C	1.563635	0.196677	0.337373
C121	C	1.063677	-0.303342	-0.080828
C122	C	1.563677	0.196658	0.419172
H123	H	0.633618	-0.230373	-0.269062
H124	H	1.133618	0.269627	0.230938
N125	N	1.161487	-0.219714	-0.934055
N126	N	1.661487	0.280286	-0.434055
H127	H	1.195591	-0.245327	-0.965898
H128	H	1.695591	0.254673	-0.465898
H129	H	1.191252	-0.194234	-0.897995
H130	H	1.691252	0.305766	-0.397995
H131	H	0.494211	-0.376202	-0.440101
H132	H	0.994211	0.123798	0.059899
H133	H	1.149065	-0.543578	-0.269180
H134	H	1.649065	-0.043578	0.230820
H135	H	0.978184	-0.376283	-0.923953
H136	H	1.478184	0.123717	-0.423953
H137	H	0.978200	-0.944356	-0.439778
H138	H	1.478200	-0.444356	0.060222
H139	H	0.978176	-0.543515	-0.439931
H140	H	1.478176	-0.043515	0.060069
H141	H	1.149072	-0.944415	-0.269014
H142	H	1.649072	-0.444415	0.230986
N143	N	0.965733	-0.671463	-0.452313
N144	N	1.465733	-0.171463	0.047687
H145	H	0.972878	-0.718100	-0.445154
H146	H	1.472878	-0.218100	0.054846
H147	H	0.977148	-0.659977	-0.504881
H148	H	1.477148	-0.159977	-0.004881
N149	N	0.965676	-0.386891	-0.774350
N150	N	1.465676	0.113109	-0.274350
H151	H	0.935856	-0.412376	-0.810363
H152	H	1.435856	0.087624	-0.310363
H153	H	0.931625	-0.361233	-0.742505
H154	H	1.431625	0.138767	-0.242505
N155	N	0.643804	-0.386809	-0.452549
N156	N	1.143804	0.113191	0.047451
H157	H	0.675662	-0.361174	-0.486610
H158	H	1.175662	0.138826	0.013390
H159	H	0.607754	-0.412261	-0.482358
H160	H	1.107754	0.087739	0.017642
H161	H	0.494176	-0.230388	-0.269078
H162	H	0.994176	0.269612	0.230922
H163	H	1.149060	-0.662841	-0.269125
H164	H	1.649060	-0.162841	0.230875
H165	H	1.149067	-1.063679	-0.268959
H166	H	1.649067	-0.563679	0.231041
N167	N	0.965752	-1.072305	-0.452160
N168	N	1.465752	-0.572305	0.047840
H169	H	0.995641	-1.099592	-0.486256
H170	H	1.495641	-0.599592	0.013744
H171	H	0.935929	-1.041457	-0.481936
H172	H	1.435929	-0.541457	0.018064
N173	N	1.161430	-0.219687	-0.774299
N174	N	1.661430	0.280313	-0.274299
H175	H	1.191276	-0.194217	-0.810299
H176	H	1.691276	0.305783	-0.310299
H177	H	1.195458	-0.245335	-0.742367
H178	H	1.695458	0.254665	-0.242367
