data_functionalizedCrystal
_audit_creation_method	'MofGen! by Chris Wilmer'
_symmetry_space_group_name_H-M	'P1'
_symmetry_Int_Tables_number	1
_symmetry_cell_setting	triclinic
loop_
_symmetry_equiv_pos_as_xyz
  x,y,z
_cell_length_a	29.839134
_cell_length_b	29.839131
_cell_length_c	21.395355
_cell_angle_alpha	90.027826
_cell_angle_beta	90.034273
_cell_angle_gamma	90.030088
loop_
_atom_site_label
_atom_site_type_symbol
_atom_site_fract_x
_atom_site_fract_y
_atom_site_fract_z
Zn1	Zn	0.686793	-0.178967	0.354383
Zn2	Zn	0.686718	-0.254082	0.249589
Zn3	Zn	0.611660	-0.178960	0.249602
Zn4	Zn	0.611632	-0.254064	0.354311
O5	O	0.649201	-0.216518	0.301971
O6	O	0.749650	-0.188942	0.340507
O7	O	0.676741	-0.244122	0.161913
O8	O	0.621670	-0.116094	0.263538
O9	O	0.749595	-0.244128	0.263515
O10	O	0.676870	-0.116099	0.340520
O11	O	0.621597	-0.188930	0.161923
O12	O	0.548789	-0.188912	0.263468
O13	O	0.621622	-0.244097	0.441999
O14	O	0.548769	-0.244091	0.340397
O15	O	0.676843	-0.188924	0.442052
O16	O	0.676714	-0.316947	0.263445
O17	O	0.621549	-0.316933	0.340384
C18	C	0.532478	-0.216499	0.301926
C19	C	0.482544	-0.216502	0.301922
C20	C	0.172899	-0.245292	0.341979
C21	C	-0.014774	-0.245305	0.342007
O22	O	-0.039040	-0.269762	0.376039
N23	N	-0.038241	-0.216535	0.302019
C24	C	-0.014788	-0.187758	0.262023
O25	O	-0.039054	-0.163284	0.228015
C26	C	0.172885	-0.187743	0.261999
C27	C	0.196350	-0.216518	0.301986
C28	C	0.196364	-0.274065	0.381963
C29	C	0.243280	-0.274063	0.381954
C30	C	0.266730	-0.245289	0.341960
C31	C	0.243265	-0.216516	0.301976
C32	C	0.196338	-0.158964	0.222007
C33	C	0.243259	-0.158962	0.222006
C34	C	0.266724	-0.187737	0.261992
C35	C	0.313631	-0.187740	0.261972
N36	N	0.337098	-0.216510	0.301961
C37	C	0.313648	-0.245285	0.341955
C38	C	-0.113318	-0.187768	0.262038
C39	C	-0.160236	-0.187772	0.262043
C40	C	-0.160219	-0.245319	0.342028
C41	C	-0.113300	-0.245317	0.342019
C42	C	-0.089851	-0.216538	0.302026
C43	C	0.412174	-0.245279	0.341931
C44	C	0.459093	-0.245276	0.341915
C45	C	0.459072	-0.187728	0.261933
C46	C	0.412157	-0.187732	0.261946
C47	C	0.388709	-0.216509	0.301949
O48	O	0.337926	-0.163292	0.227963
O49	O	0.337923	-0.269748	0.375967
C50	C	0.125984	-0.245294	0.341989
C51	C	0.102519	-0.216521	0.302005
C52	C	0.125969	-0.187747	0.262011
C53	C	0.055601	-0.216526	0.302010
C54	C	0.032150	-0.245300	0.342004
C55	C	0.055618	-0.274070	0.381993
C56	C	0.102533	-0.274068	0.381983
C57	C	0.102502	-0.158977	0.222023
C58	C	0.055586	-0.158982	0.222035
C59	C	0.032136	-0.187756	0.262029
C60	C	0.649132	-0.333241	0.301919
C61	C	0.649144	-0.383175	0.301917
C62	C	0.677937	-0.692786	0.342113
C63	C	0.677986	-0.880459	0.342151
O64	O	0.702400	-0.904697	0.376288
N65	N	0.649277	-0.903960	0.302041
C66	C	0.620552	-0.880540	0.261922
O67	O	0.596131	-0.904836	0.227811
C68	C	0.620501	-0.692868	0.261888
C69	C	0.649215	-0.669369	0.301996
C70	C	0.706649	-0.669288	0.382218
C71	C	0.706638	-0.622372	0.382206
C72	C	0.677916	-0.598955	0.342089
C73	C	0.649204	-0.622454	0.301983
C74	C	0.591774	-0.669449	0.221772
C75	C	0.591763	-0.622528	0.221768
C76	C	0.620477	-0.599029	0.261876
C77	C	0.620472	-0.552122	0.261854
N78	N	0.649181	-0.528621	0.301964
C79	C	0.677903	-0.552038	0.342081
C80	C	0.620581	-0.979071	0.261942
C81	C	0.620594	-1.025989	0.261949
C82	C	0.678028	-1.025905	0.342179
C83	C	0.678017	-0.978986	0.342168
C84	C	0.649290	-0.955570	0.302051
C85	C	0.677878	-0.453512	0.342052
C86	C	0.677866	-0.406592	0.342034
C87	C	0.620431	-0.406680	0.261807
C88	C	0.620444	-0.453596	0.261822
C89	C	0.649170	-0.477010	0.301950
O90	O	0.596067	-0.527855	0.227740
O91	O	0.702313	-0.527734	0.376196
C92	C	0.677948	-0.739702	0.342125
C93	C	0.649237	-0.763200	0.302020
C94	C	0.620515	-0.739784	0.261903
C95	C	0.649250	-0.810118	0.302028
C96	C	0.677972	-0.833535	0.342145
C97	C	0.706681	-0.810034	0.382255
C98	C	0.706670	-0.763119	0.382243
C99	C	0.591806	-0.763284	0.221793
C100	C	0.591819	-0.810200	0.221808
C101	C	0.620541	-0.833617	0.261925
C102	C	0.766379	-0.216538	0.302017
C103	C	0.816314	-0.216546	0.302037
C104	C	0.649238	-0.216509	0.465395
C105	C	0.649254	-0.216505	0.535036
C106	C	0.649282	-0.099340	0.302038
C107	C	0.649316	-0.049406	0.302067
C108	C	0.649190	-0.216495	0.139184
C109	C	0.649261	-0.216372	0.069543
C110	C	0.678006	-0.187775	0.567778
C111	C	0.678006	-0.187756	0.633213
C112	C	0.649258	-0.216475	0.665904
C113	C	0.620500	-0.245207	0.633155
C114	C	0.620498	-0.245222	0.567721
C115	C	0.645686	-0.256926	0.769560
C116	C	0.645691	-0.256911	0.834993
C117	C	0.649260	-0.216427	0.867725
C118	C	0.652834	-0.175957	0.835017
C119	C	0.652832	-0.175972	0.769582
C120	C	0.649256	-0.216461	0.736857
C121	C	0.678013	-0.187674	0.971420
C122	C	0.678010	-0.187654	1.036856
C123	C	0.620506	-0.245109	1.036797
C124	C	0.620508	-0.245125	0.971361
C125	C	0.649264	-0.216408	0.938677
H126	H	0.393051	-0.164302	0.229384
O127	O	0.592640	-1.048791	0.223050
C128	C	0.547859	-1.037343	0.236667
H129	H	0.545572	-1.024429	0.286717
H130	H	0.525670	-1.068215	0.231238
H131	H	0.536123	-1.010130	0.203056
O132	O	0.705962	-0.159911	0.665095
C133	C	0.734965	-0.185492	0.702947
H134	H	0.719091	-0.219531	0.712727
H135	H	0.741003	-0.167186	0.748971
H136	H	0.768252	-0.190443	0.677753
H137	H	0.701250	-0.387461	0.374695
H138	H	0.701426	-0.164289	0.944806
H139	H	0.701266	-0.472570	0.374732
H140	H	0.597082	-0.268617	0.541063
H141	H	0.597188	-0.960009	0.229272
H142	H	0.730018	-0.603243	0.414867
O143	O	0.563836	-0.692198	0.182793
C144	C	0.538493	-0.661460	0.147381
H145	H	0.536928	-0.628007	0.173041
H146	H	0.503099	-0.675040	0.140651
H147	H	0.554956	-0.656478	0.099817
O148	O	0.734595	-0.691961	0.421210
C149	C	0.759921	-0.661151	0.456612
H150	H	0.761468	-0.627718	0.430940
H151	H	0.795322	-0.674668	0.463350
H152	H	0.743453	-0.656152	0.504173
H153	H	0.568369	-0.603465	0.189101
H154	H	0.393088	-0.268711	0.374507
H155	H	0.597094	-0.268487	1.063413
H156	H	0.262349	-0.135523	0.189441
H157	H	0.478196	-0.268710	0.374478
H158	H	0.597097	-0.268522	0.944703
O159	O	0.592512	-0.476356	0.222839
C160	C	0.567170	-0.445624	0.187414
H161	H	0.565601	-0.412167	0.213065
H162	H	0.531777	-0.459206	0.180683
H163	H	0.583636	-0.440648	0.139852
H164	H	0.730052	-0.743990	0.414903
O165	O	0.705863	-1.048676	0.381219
C166	C	0.680271	-1.075825	0.421633
H167	H	0.644884	-1.061708	0.425441
H168	H	0.696496	-1.076329	0.469880
H169	H	0.678737	-1.111392	0.402260
H170	H	0.730069	-0.829108	0.414918
O171	O	0.656214	-0.136629	0.866827
C172	C	0.617974	-0.130834	0.904650
H173	H	0.589076	-0.151459	0.884902
H174	H	0.608217	-0.093905	0.905382
H175	H	0.625706	-0.142452	0.954249
O176	O	0.592597	-0.273168	0.664839
C177	C	0.602390	-0.317949	0.648856
H178	H	0.619657	-0.318893	0.601359
H179	H	0.569953	-0.338088	0.646588
H180	H	0.625478	-0.333077	0.685697
H181	H	-0.094198	-0.268747	0.374581
H182	H	0.597047	-0.387607	0.229142
H183	H	-0.179337	-0.164345	0.229475
H184	H	0.701422	-0.164256	1.063513
H185	H	0.642784	-0.289864	0.861619
O186	O	0.563882	-0.832954	0.182823
C187	C	0.538539	-0.802219	0.147405
H188	H	0.536973	-0.768764	0.173060
H189	H	0.503146	-0.815800	0.140675
H190	H	0.555003	-0.797240	0.099841
O191	O	0.266049	-0.301964	0.420893
C192	C	0.254604	-0.292214	0.483362
H193	H	0.241729	-0.256327	0.486617
H194	H	0.285468	-0.296116	0.514311
H195	H	0.227362	-0.316315	0.499674
O196	O	0.173569	-0.301955	0.420882
C197	C	0.146451	-0.276432	0.461421
H198	H	0.160600	-0.241049	0.465389
H199	H	0.145942	-0.292735	0.509592
H200	H	0.110882	-0.274873	0.442063
O201	O	-0.183073	-0.273226	0.380861
C202	C	-0.229514	-0.267064	0.372275
H203	H	-0.235911	-0.232374	0.351842
H204	H	-0.247327	-0.270154	0.419199
H205	H	-0.242858	-0.293679	0.338843
O206	O	0.642192	-0.296292	0.737864
C207	C	0.639008	-0.332005	0.780762
H208	H	0.654152	-0.321382	0.827405
H209	H	0.658018	-0.362232	0.761841
H210	H	0.602281	-0.341278	0.787728
O211	O	-0.090612	-0.159797	0.223124
C212	C	-0.121391	-0.134401	0.187846
H213	H	-0.154843	-0.152808	0.185637
H214	H	-0.107862	-0.129555	0.138490
H215	H	-0.126357	-0.100306	0.210884
O216	O	0.125327	-0.131089	0.183137
C217	C	0.152421	-0.156623	0.142581
H218	H	0.159451	-0.190689	0.164587
H219	H	0.185415	-0.138311	0.134217
H220	H	0.134307	-0.161515	0.096144
H221	H	0.177240	-0.135533	0.189444
H222	H	0.478174	-0.164302	0.229369
O223	O	0.032813	-0.301956	0.420911
C224	C	0.005699	-0.276416	0.461435
H225	H	0.019863	-0.241039	0.465398
H226	H	0.005177	-0.292713	0.509611
H227	H	-0.029867	-0.274845	0.442067
O228	O	0.125254	-0.302033	0.420888
C229	C	0.094488	-0.327434	0.456174
H230	H	0.061054	-0.309033	0.458392
H231	H	0.108061	-0.332278	0.505527
H232	H	0.089469	-0.361530	0.433138
O233	O	0.705920	-0.956231	0.381192
C234	C	0.731280	-0.986966	0.416587
H235	H	0.712886	-1.020424	0.418727
H236	H	0.736050	-0.973390	0.465961
H237	H	0.765410	-0.991937	0.393697
H238	H	0.568416	-0.744222	0.189125
H239	H	0.655740	-0.143020	0.742954
O240	O	0.705950	-0.159835	0.536126
C241	C	0.731335	-0.134481	0.579062
H242	H	0.712937	-0.132913	0.625692
H243	H	0.736152	-0.099089	0.560170
H244	H	0.765444	-0.150937	0.586043
O245	O	0.032865	-0.130985	0.183168
C246	C	0.063630	-0.105598	0.147860
H247	H	0.097088	-0.104075	0.173523
H248	H	0.050092	-0.070193	0.141280
H249	H	0.068585	-0.121996	0.100227
