data_functionalizedCrystal
_audit_creation_method	'MofGen! by Chris Wilmer'
_symmetry_space_group_name_H-M	'P1'
_symmetry_Int_Tables_number	1
_symmetry_cell_setting	triclinic
loop_
_symmetry_equiv_pos_as_xyz
  x,y,z
_cell_length_a	15.625950
_cell_length_b	19.188924
_cell_length_c	14.185569
_cell_angle_alpha	76.888872
_cell_angle_beta	120.545593
_cell_angle_gamma	83.721390
loop_
_atom_site_label
_atom_site_type_symbol
_atom_site_fract_x
_atom_site_fract_y
_atom_site_fract_z
O1	O	1.290584	0.018083	0.385885
O2	O	1.002323	0.048795	0.281059
O3	O	1.154779	-0.068767	0.336512
O4	O	1.138128	0.135645	0.330433
O5	O	1.199816	-0.103493	0.519727
O6	O	1.047360	0.014070	0.464275
O7	O	1.335621	-0.016643	0.569101
Cu8	Cu	1.195602	-0.004457	0.533417
Cu9	Cu	1.142341	0.036610	0.316743
O10	O	1.183165	0.100920	0.513649
C11	C	0.987962	0.033480	0.359256
C12	C	0.878074	0.039574	0.319296
C13	C	0.639287	-0.034965	0.687090
C14	C	0.536015	-0.029215	0.649489
C15	C	0.486969	0.008639	0.449774
C16	C	0.590238	0.002896	0.487357
C17	C	0.666390	-0.018907	0.606017
C18	C	0.617341	0.018953	0.406284
C19	C	0.720601	0.013207	0.443866
C20	C	0.796759	-0.008597	0.562520
C21	C	0.769650	-0.024654	0.643598
C22	C	0.541188	0.040751	0.287626
C23	C	0.568291	0.056808	0.206552
C24	C	0.671552	0.051067	0.244133
C25	C	0.747710	0.029263	0.362787
C26	C	0.698661	0.067123	0.163055
C27	C	0.801922	0.061377	0.200636
C28	C	0.850971	0.023517	0.400369
C29	C	1.176760	-0.112106	0.427925
C30	C	1.175146	-0.189505	0.427341
C31	C	1.149843	-0.206925	0.327196
C32	C	1.148309	-0.279646	0.326630
C33	C	1.172101	-0.334947	0.426223
C34	C	1.197402	-0.317520	0.526380
C35	C	1.198924	-0.244798	0.526938
N36	N	1.244317	-0.472250	0.520170
N37	N	1.242871	-0.541331	0.519633
C38	C	1.167513	-0.554052	0.424545
N39	N	1.093663	-0.495082	0.330002
N40	N	1.095113	-0.425995	0.330537
C41	C	1.170452	-0.413803	0.425628
C42	C	1.140544	-0.650323	0.323780
C43	C	1.139006	-0.723044	0.323217
C44	C	1.188109	-0.760919	0.522972
C45	C	1.189636	-0.688197	0.523529
C46	C	1.165858	-0.632903	0.423931
C47	C	1.349981	-0.001327	0.490902
C48	C	1.459867	-0.007420	0.530855
C49	C	1.161183	0.144259	0.422233
C50	C	1.162796	0.221659	0.422810
N51	N	1.233071	-0.033342	0.685816
N52	N	1.104881	0.065489	0.164347
C53	C	0.994799	0.150323	0.966800
C54	C	1.023187	0.128447	1.082147
C55	C	1.158214	0.024379	1.131221
C56	C	1.129834	0.046245	1.015875
C57	C	1.048126	0.109218	0.933673
C58	C	1.183161	0.005139	0.982747
C59	C	1.154786	0.027005	0.867412
C60	C	1.073084	0.089976	0.785204
C61	C	1.019751	0.131083	0.818337
C62	C	1.264873	-0.057831	1.064953
C63	C	1.318200	-0.098937	1.031826
C64	C	1.289821	-0.077074	0.916487
C65	C	1.208119	-0.014102	0.834279
C66	C	1.343153	-0.118181	0.883354
C67	C	1.314778	-0.096315	0.768019
C68	C	1.179743	0.007763	0.718944
H69	H	0.506276	0.074557	0.109939
H70	H	1.118395	-0.737223	0.241661
H71	H	0.424953	0.026387	0.353161
C72	C	1.089820	0.077012	0.628499
N73	N	1.022082	0.129160	0.560373
H74	H	1.207472	-0.805944	0.604060
C75	C	1.296084	-0.081883	1.191826
N76	N	1.319590	-0.099999	1.287385
C77	C	0.506209	-0.046883	0.738687
N78	N	0.483760	-0.060192	0.805869
C79	C	0.929828	0.200332	0.727893
N80	N	0.862089	0.252480	0.659766
H81	H	0.636645	0.084868	0.066443
H82	H	1.216770	-0.362550	0.607468
H83	H	1.210249	-0.674016	0.605081
H84	H	1.049985	0.107781	0.691293
H85	H	1.219525	-0.230617	0.608490
H86	H	1.121176	-0.605299	0.242679
H87	H	0.928257	0.201598	0.899864
C88	C	0.964513	0.173671	1.118579
N89	N	0.920322	0.207733	1.146020
H90	H	0.701293	-0.052708	0.783714
H91	H	1.130477	-0.161908	0.246094
C92	C	0.427598	0.047071	0.246288
N93	N	0.342042	0.051833	0.215154
C94	C	0.853424	-0.048633	0.774130
N95	N	0.916521	-0.066696	0.872443
H96	H	1.127698	-0.293831	0.245075
H97	H	0.823987	0.074456	0.134618
C98	C	1.408074	-0.168208	1.122259
N99	N	1.475765	-0.220386	1.190371
C100	C	1.433033	-0.187448	0.973791
N101	N	1.500731	-0.239621	1.041909
C102	C	1.373439	-0.141536	0.731575
N103	N	1.417625	-0.175596	0.704127
H104	H	0.880840	-0.013276	0.593117
C105	C	0.934744	-0.000463	0.530901
N106	N	0.997842	-0.018526	0.629213
H107	H	1.224744	-0.026893	1.198164
