data_functionalizedCrystal
_audit_creation_method	'MofGen! by Chris Wilmer'
_symmetry_space_group_name_H-M	'P1'
_symmetry_Int_Tables_number	1
_symmetry_cell_setting	triclinic
loop_
_symmetry_equiv_pos_as_xyz
  x,y,z
_cell_length_a	8.965430
_cell_length_b	11.792241
_cell_length_c	11.792241
_cell_angle_alpha	95.806584
_cell_angle_beta	89.999725
_cell_angle_gamma	90.000368
loop_
_atom_site_label
_atom_site_type_symbol
_atom_site_fract_x
_atom_site_fract_y
_atom_site_fract_z
O1	O	0.123895	-1.506909	0.155559
O2	O	0.123930	-1.176567	0.171592
O3	O	0.123901	-1.349754	-0.001595
O4	O	0.123924	-1.333722	0.328746
O5	O	-0.124178	-1.349740	-0.001583
O6	O	-0.124149	-1.176553	0.171604
O7	O	-0.124184	-1.506894	0.155571
Cu8	Cu	-0.146818	-1.341722	0.163588
Cu9	Cu	0.146564	-1.341739	0.163575
O10	O	-0.124155	-1.333707	0.328758
C11	C	-0.000105	-1.134269	0.170591
C12	C	-0.000092	-1.008255	0.167576
N13	N	-0.353167	-1.341718	0.163597
C14	C	-0.000138	-1.348740	-0.043880
C15	C	-0.000136	-1.345726	-0.169894
C16	C	-0.450460	-1.261600	0.243664
C17	C	-0.549883	-1.364301	0.266319
C18	C	-0.549872	-1.239061	0.140952
C19	C	-0.450401	-1.444471	0.186304
C20	C	-0.450381	-1.319163	0.060892
C21	C	-0.549759	-1.421938	0.083504
N22	N	0.352913	-1.341752	0.163557
C23	C	-0.000145	-1.549192	0.156572
C24	C	-0.000149	-1.675206	0.159587
C25	C	-0.000135	-0.777543	0.162034
C26	C	-0.000112	-0.905928	0.165113
C27	C	-0.000110	-1.340183	-0.400606
C28	C	-0.000124	-1.343262	-0.272221
C29	C	-0.000113	-1.334721	0.371043
C30	C	-0.000105	-1.337736	0.497057
H31	H	-0.406860	-1.193909	0.311436
H32	H	-0.406891	-1.531321	0.205544
C33	C	-0.608318	-1.513589	-0.007987
N34	N	-0.652433	-1.582624	-0.076890
H35	H	-0.406642	-1.300030	-0.025919
C36	C	-0.608893	-1.121757	0.115093
N37	N	-0.653341	-1.033400	0.095624
H38	H	-0.593587	-1.383402	0.353157
