data_functionalizedCrystal
_audit_creation_method	'MofGen! by Chris Wilmer'
_symmetry_space_group_name_H-M	'P1'
_symmetry_Int_Tables_number	1
_symmetry_cell_setting	triclinic
loop_
_symmetry_equiv_pos_as_xyz
  x,y,z
_cell_length_a	14.971486
_cell_length_b	14.971506
_cell_length_c	9.130313
_cell_angle_alpha	89.997059
_cell_angle_beta	90.001434
_cell_angle_gamma	83.618258
loop_
_atom_site_label
_atom_site_type_symbol
_atom_site_fract_x
_atom_site_fract_y
_atom_site_fract_z
O1	O	1.186952	0.116561	-0.121626
O2	O	0.926553	0.130520	-0.121665
O3	O	1.063722	-0.006658	-0.121640
O4	O	1.049782	0.253740	-0.121650
O5	O	1.063713	-0.006662	0.121958
O6	O	0.926543	0.130516	0.121934
O7	O	1.186943	0.116557	0.121973
Cu8	Cu	1.056742	0.123536	0.144196
Cu9	Cu	1.056753	0.123541	-0.143888
O10	O	1.049773	0.253736	0.121949
C11	C	0.893223	0.129894	0.000129
C12	C	0.793926	0.128023	0.000114
C13	C	0.736707	0.208612	0.000113
C14	C	0.643407	0.206849	0.000135
C15	C	0.607329	0.124496	0.000148
C16	C	0.664556	0.043901	0.000153
C17	C	0.757853	0.045665	0.000142
C18	C	0.470093	0.040230	0.000173
C19	C	0.376789	0.038466	0.000182
C20	C	0.355647	0.201414	0.000167
C21	C	0.448944	0.203178	0.000156
C22	C	0.506165	0.122582	0.000158
C23	C	1.063091	-0.039984	0.000157
C24	C	1.061213	-0.139281	0.000150
C25	C	1.134631	-0.577563	0.000162
C26	C	1.136389	-0.484263	0.000172
C27	C	1.055796	-0.427043	0.000154
C28	C	0.973441	-0.463127	0.000142
C29	C	0.971685	-0.556426	0.000143
C30	C	0.977108	-0.268664	0.000137
C31	C	0.978864	-0.175359	0.000134
C32	C	1.141812	-0.196501	0.000166
C33	C	1.140055	-0.289800	0.000166
C34	C	1.057700	-0.325878	0.000152
C35	C	1.220272	0.117184	0.000176
C36	C	1.319569	0.119054	0.000181
C37	C	1.050404	0.287062	0.000148
C38	C	1.052282	0.386358	0.000145
N39	N	1.056741	0.123533	0.346819
N40	N	1.056762	0.123538	-0.346510
C41	C	1.117500	0.062816	0.423481
C42	C	1.117508	0.062816	0.576818
C43	C	0.995996	0.184258	0.576816
C44	C	0.995984	0.184253	0.423482
H45	H	0.516680	-0.025399	0.000178
H46	H	0.946502	0.233696	0.361059
C47	C	1.184321	-0.003981	0.339156
H48	H	1.220502	-0.040147	0.406781
H49	H	1.221585	0.028251	0.279325
H50	H	1.152095	-0.041274	0.279358
H51	H	0.907821	-0.416531	0.000137
C52	C	0.881103	-0.596117	0.000123
H53	H	0.891599	-0.659877	0.000141
H54	H	0.847918	-0.576485	-0.084830
H55	H	0.847914	-0.576485	0.085077
C56	C	0.929177	0.251052	0.661150
H57	H	0.937892	0.242367	0.763451
H58	H	0.869471	0.241241	0.636038
H59	H	0.938961	0.310766	0.636003
C60	C	0.776385	0.299201	0.000099
H61	H	0.728941	0.346943	0.000115
H62	H	0.812335	0.303279	-0.084853
H63	H	0.812344	0.303274	0.085054
C64	C	0.580469	0.295496	0.000129
H65	H	0.615319	0.344794	0.000102
H66	H	0.543640	0.298199	0.085083
H67	H	0.543629	0.298193	-0.084824
C68	C	0.337103	-0.052119	0.000204
H69	H	0.384542	-0.099866	0.000224
H70	H	0.301144	-0.056196	-0.084740
H71	H	0.301151	-0.056186	0.085167
H72	H	0.478316	0.270236	0.000132
H73	H	0.635173	-0.023152	0.000184
C74	C	0.820795	-0.042982	0.000128
H75	H	0.785947	-0.092281	0.000121
H76	H	0.857638	-0.045685	0.085069
H77	H	0.857621	-0.045675	-0.084838
C78	C	1.223284	-0.640497	0.000182
H79	H	1.272579	-0.605644	0.000208
H80	H	1.225995	-0.677332	-0.084763
H81	H	1.225978	-0.677331	0.085144
H82	H	1.203445	-0.454893	0.000187
C83	C	0.292709	0.290066	0.000168
H84	H	0.231976	0.277224	0.000193
H85	H	0.303648	0.323828	-0.084788
H86	H	0.303661	0.323832	0.085119
H87	H	1.205681	-0.336387	0.000171
H88	H	1.208869	-0.167123	0.000043
C89	C	1.184347	-0.003970	0.661141
H90	H	1.220531	-0.040126	0.593518
H91	H	1.152142	-0.041259	0.720969
H92	H	1.221618	0.028278	0.720943
H93	H	0.910045	-0.298035	0.000145
C94	C	0.890218	-0.112415	0.000133
H95	H	0.903062	-0.051684	0.000121
H96	H	0.856455	-0.123363	0.085082
H97	H	0.856452	-0.123358	-0.084825
