data_functionalizedCrystal
_audit_creation_method	'MofGen! by Chris Wilmer'
_symmetry_space_group_name_H-M	'P1'
_symmetry_Int_Tables_number	1
_symmetry_cell_setting	triclinic
loop_
_symmetry_equiv_pos_as_xyz
  x,y,z
_cell_length_a	15.944551
_cell_length_b	16.109301
_cell_length_c	15.186229
_cell_angle_alpha	90.002208
_cell_angle_beta	90.006780
_cell_angle_gamma	96.519891
loop_
_atom_site_label
_atom_site_type_symbol
_atom_site_fract_x
_atom_site_fract_y
_atom_site_fract_z
O1	O	0.107969	-1.103162	0.073175
O2	O	0.607969	-0.603162	0.573175
O3	O	0.121405	-0.861104	0.073189
O4	O	0.621405	-0.361104	0.573189
O5	O	-0.007590	-0.988743	0.073174
O6	O	0.492410	-0.488743	0.573174
O7	O	0.236964	-0.975523	0.073190
O8	O	0.736964	-0.475523	0.573190
O9	O	-0.007597	-0.988742	-0.073284
O10	O	0.492403	-0.488742	0.426716
O11	O	0.121398	-0.861103	-0.073268
O12	O	0.621398	-0.361103	0.426732
O13	O	0.107961	-1.103161	-0.073282
O14	O	0.607961	-0.603161	0.426718
Zn15	Zn	0.114678	-0.982132	-0.096529
Zn16	Zn	0.614678	-0.482132	0.403471
Zn17	Zn	0.114689	-0.982133	0.096435
Zn18	Zn	0.614689	-0.482133	0.596435
O19	O	0.236957	-0.975522	-0.073267
O20	O	0.736957	-0.475522	0.426733
C21	C	0.120857	-0.830129	-0.000038
C22	C	0.620857	-0.330129	0.499962
C23	C	0.119226	-0.737833	-0.000033
C24	C	0.619226	-0.237833	0.499967
N25	N	0.114689	-0.982135	0.228128
N26	N	0.614689	-0.482135	0.728128
C27	C	-0.038887	-0.988194	-0.000055
C28	C	0.461113	-0.488194	0.499945
C29	C	-0.132133	-0.986548	-0.000056
C30	C	0.367867	-0.486548	0.499944
C31	C	-0.346962	-0.903499	-0.000039
C32	C	0.153038	-0.403499	0.499961
C33	C	-0.407996	-0.942064	-0.072253
C34	C	0.092004	-0.442064	0.427747
C35	C	-0.302858	-0.983572	-0.000049
C36	C	0.197142	-0.483572	0.499951
C37	C	-0.407972	-0.942084	0.072142
C38	C	0.092028	-0.442084	0.572142
C39	C	-0.467769	-0.980691	-0.000038
C40	C	0.032231	-0.480691	0.499962
C41	C	-0.362663	-1.022159	-0.072323
C42	C	0.137337	-0.522159	0.427677
C43	C	-0.362633	-1.022167	0.072137
C44	C	0.137367	-0.522167	0.572137
C45	C	-0.423649	-1.060790	-0.000095
C46	C	0.076351	-0.560790	0.499905
C47	C	-0.207856	-0.985229	-0.000055
C48	C	0.292144	-0.485229	0.499945
C49	C	-0.562770	-0.979039	-0.000038
C50	C	-0.062770	-0.479039	0.499962
C51	C	0.268254	-0.976071	-0.000036
C52	C	0.768254	-0.476071	0.499964
C53	C	0.361500	-0.977717	-0.000030
C54	C	0.861500	-0.477717	0.499970
C55	C	0.108510	-1.134136	-0.000054
C56	C	0.608510	-0.634136	0.499946
C57	C	0.110141	-1.226432	-0.000053
C58	C	0.610141	-0.726432	0.499947
C59	C	0.191975	-0.515584	-0.000038
C60	C	0.691975	-0.015584	0.499962
C61	C	0.190435	-0.428863	-0.000044
C62	C	0.690435	0.071137	0.499956
C63	C	0.037387	-0.448688	-0.000050
C64	C	0.537387	0.051312	0.499950
C65	C	0.038927	-0.535407	-0.000051
C66	C	0.538927	-0.035407	0.499949
C67	C	0.116224	-0.568853	-0.000040
C68	C	0.616224	-0.068853	0.499960
C69	C	0.113143	-0.395412	-0.000045
C70	C	0.613143	0.104588	0.499955
C71	C	0.111473	-0.301386	-0.000052
C72	C	0.611473	0.198614	0.499948
C73	C	0.117894	-0.662885	-0.000036
C74	C	0.617894	-0.162885	0.499964
N75	N	0.114671	-0.982137	-0.228221
N76	N	0.614671	-0.482137	0.271779
C77	C	0.057681	-1.038762	0.453844
C78	C	0.557681	-0.538762	0.953844
C79	C	0.057678	-1.038765	0.546034
C80	C	0.557678	-0.538765	1.046034
C81	C	0.171686	-0.925507	0.546056
C82	C	0.671686	-0.425507	1.046056
C83	C	0.171691	-0.925509	0.453868
C84	C	0.671691	-0.425509	0.953868
C85	C	0.114684	-0.982136	0.407764
C86	C	0.614684	-0.482136	0.907764
C87	C	0.114676	-0.982136	0.592142
C88	C	0.614676	-0.482136	1.092142
C89	C	0.114674	-0.982138	0.692098
C90	C	0.614674	-0.482138	1.192098
C91	C	0.114687	-0.982135	0.307802
C92	C	0.614687	-0.482135	0.807802
H93	H	-0.313632	-0.837035	-0.000107
H94	H	0.186368	-0.337035	0.499893
H95	H	0.254914	-0.542812	-0.000036
H96	H	0.754914	-0.042812	0.499964
Cl97	Cl	0.285669	-0.361900	-0.000042
Cl98	Cl	0.785669	0.138100	0.499958
H99	H	-0.025546	-0.421446	-0.000064
H100	H	0.474454	0.078554	0.499936
Cl101	Cl	-0.013985	-1.109957	0.603958
Cl102	Cl	0.486015	-0.609957	1.103958
H103	H	-0.022762	-0.578781	-0.000055
H104	H	0.477238	-0.078781	0.499945
H105	H	-0.428096	-0.908196	-0.133301
H106	H	0.071904	-0.408196	0.366699
Cl107	Cl	-0.013982	-1.109953	0.395889
Cl108	Cl	0.486018	-0.609953	0.895889
Cl109	Cl	0.243345	-0.854319	0.604019
Cl110	Cl	0.743345	-0.354319	1.104019
Cl111	Cl	-0.474882	-1.163494	-0.000160
Cl112	Cl	0.025118	-0.663494	0.499840
H113	H	0.218114	-0.879397	0.416348
H114	H	0.718114	-0.379397	0.916348
H115	H	-0.342510	-1.056006	0.133188
H116	H	0.157490	-0.556006	0.633188
Cl117	Cl	-0.331828	-1.074406	-0.166685
Cl118	Cl	0.168172	-0.574406	0.333315
Cl119	Cl	-0.438968	-0.889774	0.166394
Cl120	Cl	0.061032	-0.389774	0.666394
