data_functionalizedCrystal
_audit_creation_method	'MofGen! by Chris Wilmer'
_symmetry_space_group_name_H-M	'P1'
_symmetry_Int_Tables_number	1
_symmetry_cell_setting	triclinic
loop_
_symmetry_equiv_pos_as_xyz
  x,y,z
_cell_length_a	29.839134
_cell_length_b	29.839131
_cell_length_c	12.759395
_cell_angle_alpha	90.015590
_cell_angle_beta	90.017237
_cell_angle_gamma	90.036281
loop_
_atom_site_label
_atom_site_type_symbol
_atom_site_fract_x
_atom_site_fract_y
_atom_site_fract_z
Zn1	Zn	0.686699	-0.178987	0.594297
Zn2	Zn	0.686637	-0.254097	0.418598
Zn3	Zn	0.611588	-0.178975	0.418597
Zn4	Zn	0.611529	-0.254084	0.594199
O5	O	0.649113	-0.216536	0.506423
O6	O	0.749557	-0.188961	0.571031
O7	O	0.676680	-0.244131	0.271576
O8	O	0.621601	-0.116109	0.441944
O9	O	0.749512	-0.244144	0.441946
O10	O	0.676785	-0.116118	0.571030
O11	O	0.621542	-0.188940	0.271576
O12	O	0.548713	-0.188928	0.441850
O13	O	0.621502	-0.244123	0.741233
O14	O	0.548670	-0.244110	0.570864
O15	O	0.676728	-0.188949	0.741305
O16	O	0.676623	-0.316962	0.441851
O17	O	0.621442	-0.316953	0.570865
C18	C	0.532390	-0.216517	0.506347
C19	C	0.482456	-0.216519	0.506339
C20	C	0.649032	-0.333258	0.506371
C21	C	0.649038	-0.383193	0.506383
C22	C	0.172800	-0.245312	0.573518
C23	C	-0.014873	-0.245324	0.573565
O24	O	-0.039149	-0.269784	0.630638
N25	N	-0.038329	-0.216552	0.506502
C26	C	-0.014864	-0.187773	0.439427
O27	O	-0.039120	-0.163297	0.382394
C28	C	0.172809	-0.187758	0.439386
C29	C	0.196262	-0.216535	0.506446
C30	C	0.196253	-0.274087	0.640574
C31	C	0.243169	-0.274085	0.640557
C32	C	0.266631	-0.245308	0.573485
C33	C	0.243177	-0.216534	0.506430
C34	C	0.196273	-0.158976	0.372318
C35	C	0.243194	-0.158975	0.372315
C36	C	0.266647	-0.187752	0.439375
C37	C	0.313555	-0.187755	0.439342
N38	N	0.337011	-0.216528	0.506405
C39	C	0.313549	-0.245304	0.573477
C40	C	-0.113394	-0.187783	0.439452
C41	C	-0.160312	-0.187787	0.439460
C42	C	-0.160319	-0.245338	0.573600
C43	C	-0.113400	-0.245336	0.573585
C44	C	-0.089939	-0.216555	0.506515
C45	C	0.412074	-0.245299	0.573437
C46	C	0.458994	-0.245296	0.573411
C47	C	0.458996	-0.187743	0.439276
C48	C	0.412081	-0.187747	0.439297
C49	C	0.388621	-0.216527	0.506386
O50	O	0.337860	-0.163305	0.382307
O51	O	0.337813	-0.269769	0.630517
C52	C	0.125884	-0.245314	0.573535
C53	C	0.102431	-0.216539	0.506479
C54	C	0.125893	-0.187762	0.439407
C55	C	0.055513	-0.216543	0.506488
C56	C	0.032051	-0.245319	0.573560
C57	C	0.055507	-0.274092	0.640623
C58	C	0.102422	-0.274090	0.640606
C59	C	0.102437	-0.158990	0.372344
C60	C	0.055522	-0.158995	0.372365
C61	C	0.032060	-0.187771	0.439437
C62	C	0.677898	-0.692828	0.439343
C63	C	0.677954	-0.880501	0.439384
O64	O	0.702427	-0.904759	0.382344
N65	N	0.649206	-0.903978	0.506502
C66	C	0.620445	-0.880533	0.573619
O67	O	0.595998	-0.904808	0.630716
C68	C	0.620392	-0.692861	0.573583
C69	C	0.649138	-0.669387	0.506453
C70	C	0.706642	-0.669354	0.372220
C71	C	0.706626	-0.622439	0.372206
C72	C	0.677866	-0.598997	0.439316
C73	C	0.649122	-0.622471	0.506440
C74	C	0.591633	-0.669417	0.640705
C75	C	0.591623	-0.622496	0.640692
C76	C	0.620370	-0.599022	0.573562
C77	C	0.620346	-0.552115	0.573536
N78	N	0.649094	-0.528638	0.506418
C79	C	0.677854	-0.552079	0.439308
C80	C	0.620474	-0.979064	0.573632
C81	C	0.620487	-1.025982	0.573640
C82	C	0.677996	-1.025946	0.439406
C83	C	0.677981	-0.979028	0.439394
C84	C	0.649222	-0.955587	0.506514
C85	C	0.677818	-0.453554	0.439284
C86	C	0.677798	-0.406634	0.439274
C87	C	0.620291	-0.406673	0.573511
C88	C	0.620309	-0.453589	0.573518
C89	C	0.649076	-0.477028	0.506401
O90	O	0.595889	-0.527828	0.630554
O91	O	0.702304	-0.527797	0.382237
C92	C	0.677914	-0.739744	0.439357
C93	C	0.649170	-0.763218	0.506480
C94	C	0.620410	-0.739776	0.573590
C95	C	0.649182	-0.810136	0.506488
C96	C	0.677943	-0.833577	0.439378
C97	C	0.706690	-0.810100	0.372261
C98	C	0.706674	-0.763185	0.372247
C99	C	0.591662	-0.763253	0.640708
C100	C	0.591680	-0.810169	0.640715
C101	C	0.620440	-0.833610	0.573605
C102	C	0.766291	-0.216555	0.506499
C103	C	0.816226	-0.216563	0.506532
C104	C	0.649115	-0.216536	0.780456
C105	C	0.649117	-0.216536	0.897233
C106	C	0.649207	-0.099357	0.506498
C107	C	0.649247	-0.049423	0.506530
C108	C	0.706628	-0.159088	0.897327
C109	C	0.735384	-0.130366	0.952235
C110	C	0.735382	-0.130367	1.061957
C111	C	0.706621	-0.159093	1.116773
C112	C	0.677865	-0.187815	1.061865
C113	C	0.677871	-0.187811	0.952141
C114	C	0.620352	-0.245260	1.061771
C115	C	0.620355	-0.245262	0.952049
C116	C	0.591590	-0.273986	1.116587
C117	C	0.562836	-0.302711	1.061679
C118	C	0.562840	-0.302708	0.951950
C119	C	0.591599	-0.273984	0.897141
C120	C	0.649108	-0.216544	1.233455
C121	C	0.649108	-0.216538	1.116678
H122	H	0.478088	-0.268731	0.628020
H123	H	0.392984	-0.164315	0.384689
H124	H	0.539418	-0.326093	0.907251
N125	N	0.531814	-0.333681	1.120813
H126	H	0.550048	-0.354503	1.166350
H127	H	0.513601	-0.351848	1.069327
N128	N	0.737663	-0.694628	0.299819
H129	H	0.719427	-0.714116	0.251085
H130	H	0.758473	-0.714045	0.342629
H131	H	0.758795	-0.106976	1.106663
H132	H	0.591607	-0.273981	0.807800
N133	N	0.386775	-0.276339	0.645792
H134	H	0.408758	-0.294566	0.688261
H135	H	0.367290	-0.297103	0.602942
N136	N	0.268461	-0.305123	0.712888
H137	H	0.246473	-0.323349	0.755376
H138	H	0.287946	-0.286868	0.761586
N139	N	0.706606	-0.159084	1.235114
H140	H	0.729182	-0.136526	1.261580
H141	H	0.714820	-0.189917	1.261468
N142	N	0.127732	-0.127950	0.299988
H143	H	0.147178	-0.146172	0.251210
H144	H	0.147193	-0.107160	0.342827
N145	N	0.170952	-0.305129	0.712915
H146	H	0.192936	-0.323355	0.755384
H147	H	0.151471	-0.325894	0.670057
N148	N	0.589450	-0.953783	0.646021
H149	H	0.596401	-0.961933	0.721106
H150	H	0.557373	-0.961994	0.629522
H151	H	0.591589	-0.273983	1.205928
N152	N	-0.185628	-0.276377	0.645942
H153	H	-0.218909	-0.272010	0.635765
H154	H	-0.177413	-0.269431	0.721004
N155	N	0.766415	-0.099395	0.893114
H156	H	0.762059	-0.103756	0.815274
H157	H	0.798488	-0.106410	0.912334
H158	H	-0.094307	-0.268769	0.628193
N159	N	0.706624	-0.159095	0.778985
H160	H	0.737433	-0.167363	0.752567
H161	H	0.698374	-0.128268	0.752647
N162	N	-0.185606	-0.156755	0.367116
H163	H	-0.163619	-0.138526	0.324630
H164	H	-0.205054	-0.135993	0.409971
H165	H	-0.094296	-0.164345	0.384830
H166	H	0.568243	-0.744171	0.695358
N167	N	0.268499	-0.127929	0.299980
H168	H	0.246519	-0.109701	0.257506
H169	H	0.287946	-0.146179	0.251270
N170	N	0.737706	-0.835388	0.299867
H171	H	0.733350	-0.868671	0.310068
H172	H	0.769785	-0.827157	0.316295
N173	N	0.708838	-0.478833	0.366885
H174	H	0.729652	-0.498274	0.409626
H175	H	0.727012	-0.456811	0.324373
H176	H	0.177185	-0.135544	0.317707
H177	H	0.478108	-0.164315	0.384665
H178	H	0.121514	-0.297523	0.695214
N179	N	0.030228	-0.127954	0.300033
H180	H	0.010741	-0.146176	0.251268
H181	H	0.052242	-0.109731	0.257617
N182	N	0.030194	-0.305131	0.712959
H183	H	0.010747	-0.286904	0.761724
H184	H	0.052195	-0.323355	0.755375
N185	N	0.708805	-0.381315	0.366869
H186	H	0.727028	-0.403288	0.324364
H187	H	0.729575	-0.361823	0.409687
H188	H	0.701389	-0.959918	0.384731
N189	N	0.737638	-0.597123	0.299818
H190	H	0.755860	-0.619098	0.257318
H191	H	0.758408	-0.577635	0.342644
H192	H	0.701414	-1.045040	0.384763
H193	H	0.730082	-0.744076	0.317584
H194	H	0.597074	-1.045090	0.628294
H195	H	0.568268	-0.829277	0.695379
N196	N	0.560626	-0.694728	0.713104
H197	H	0.542409	-0.672752	0.755613
H198	H	0.578900	-0.714170	0.761780
H199	H	0.568205	-0.603413	0.695353
H200	H	0.596903	-0.472702	0.628184
H201	H	0.596873	-0.387580	0.628148
