data_functionalizedCrystal
_audit_creation_method	'MofGen! by Chris Wilmer'
_symmetry_space_group_name_H-M	'P1'
_symmetry_Int_Tables_number	1
_symmetry_cell_setting	triclinic
loop_
_symmetry_equiv_pos_as_xyz
  x,y,z
_cell_length_a	10.654554
_cell_length_b	19.188930
_cell_length_c	17.666332
_cell_angle_alpha	90.010342
_cell_angle_beta	90.009994
_cell_angle_gamma	83.815812
loop_
_atom_site_label
_atom_site_type_symbol
_atom_site_fract_x
_atom_site_fract_y
_atom_site_fract_z
O1	O	1.665771	0.098078	0.062971
O2	O	1.300096	0.107417	0.062971
O3	O	1.493486	0.001161	0.062956
O4	O	1.472381	0.204334	0.062986
O5	O	1.493452	0.001157	-0.062940
O6	O	1.300062	0.107413	-0.062926
O7	O	1.665737	0.098074	-0.062925
Cu8	Cu	1.482896	0.102744	-0.074421
Cu9	Cu	1.482937	0.102747	0.074466
O10	O	1.472347	0.204330	-0.062911
C11	C	1.253295	0.106729	0.000022
C12	C	1.113896	0.104675	0.000021
C13	C	0.932740	0.038251	0.000021
C14	C	1.063720	0.040180	0.000014
C15	C	1.033083	0.167244	0.000028
C16	C	0.902105	0.165315	0.000030
C17	C	0.950429	-0.035108	0.000017
C18	C	1.081410	-0.033179	0.000009
C19	C	1.492786	-0.024857	0.000006
C20	C	1.490734	-0.102374	-0.000001
C21	C	1.604209	-0.146555	-0.000004
C22	C	1.602282	-0.219392	0.000008
C23	C	1.486872	-0.248044	0.000008
C24	C	1.373382	-0.203854	0.000016
C25	C	1.375313	-0.131019	0.000011
N26	N	1.398644	-0.356628	-0.042837
N27	N	1.396818	-0.425819	-0.042834
C28	C	1.481048	-0.467491	0.000024
N29	N	1.567193	-0.437360	0.042869
N30	N	1.569023	-0.368163	0.042863
C31	C	1.484766	-0.327020	0.000014
C32	C	1.592441	-0.590650	0.000034
C33	C	1.590509	-0.663487	0.000051
C34	C	1.361607	-0.647947	0.000052
C35	C	1.363542	-0.575112	0.000042
C36	C	1.478963	-0.546467	0.000030
C37	C	1.712537	0.098762	0.000025
C38	C	1.851937	0.100816	0.000031
C39	C	1.473047	0.230348	0.000041
C40	C	1.475099	0.307865	0.000053
N41	N	1.482877	0.102740	-0.179140
C42	C	1.558794	0.145483	-0.218737
C43	C	1.558814	0.145481	-0.297985
C44	C	1.482894	0.102745	-0.337633
C45	C	1.406972	0.059993	-0.298026
C46	C	1.406964	0.059991	-0.218780
N47	N	1.372913	0.100304	-0.462073
N48	N	1.372924	0.100310	-0.537353
C49	C	1.482917	0.102747	-0.576397
N50	N	1.592899	0.105192	-0.537316
N51	N	1.592886	0.105189	-0.462028
C52	C	1.482895	0.102742	-0.423562
C53	C	1.558862	0.145490	-0.701923
C54	C	1.558885	0.145483	-0.781172
C55	C	1.407031	0.059999	-0.781212
C56	C	1.407020	0.060002	-0.701964
C57	C	1.482934	0.102751	-0.662324
N58	N	1.482966	0.102745	0.179186
H59	H	0.921659	-0.063801	-0.052672
H60	H	1.123766	-0.060815	0.052694
H61	H	0.915310	-0.058466	0.054373
C62	C	1.143687	-0.063125	-0.073429
H63	H	1.080787	-0.077800	-0.106126
H64	H	1.185405	-0.027997	-0.097823
H65	H	1.203280	-0.102060	-0.061642
C66	C	1.323458	0.012987	-0.341635
H67	H	1.334325	0.019115	-0.394503
H68	H	1.347053	-0.034664	-0.328659
H69	H	1.237462	0.025519	-0.328655
H70	H	1.271138	-0.539139	0.000041
H71	H	1.345141	0.025184	-0.186541
C72	C	1.731166	-0.115050	-0.000004
H73	H	1.798472	-0.151799	0.000003
H74	H	1.736672	-0.086966	-0.043906
H75	H	1.736686	-0.086955	0.043906
H76	H	1.073946	0.219757	0.000027
H77	H	1.694689	-0.255370	0.000008
C78	C	1.642384	0.192499	-0.658316
H79	H	1.687619	0.217946	-0.693252
H80	H	1.590753	0.224367	-0.627401
H81	H	1.700331	0.164176	-0.627402
H82	H	1.279416	-0.227187	0.000018
C83	C	1.250485	-0.082418	0.000008
H84	H	1.181473	-0.109911	0.000007
H85	H	1.246492	-0.053669	0.043906
H86	H	1.246472	-0.053696	-0.043905
H87	H	1.686424	-0.567326	0.000028
C88	C	1.642306	0.192499	-0.175138
H89	H	1.687530	0.217951	-0.210075
H90	H	1.590668	0.224363	-0.144222
H91	H	1.700263	0.164182	-0.144225
C92	C	1.715338	-0.712087	0.000046
H93	H	1.784350	-0.684592	0.000031
H94	H	1.719366	-0.740814	0.043951
H95	H	1.719319	-0.740831	-0.043861
H96	H	1.267638	-0.671275	0.000056
H97	H	1.345195	0.025199	-0.669724
C98	C	1.642398	0.192503	-0.824729
H99	H	1.687595	0.217965	-0.789768
H100	H	1.700359	0.164195	-0.855640
H101	H	1.590750	0.224369	-0.855643
C102	C	1.642320	0.192501	-0.341554
H103	H	1.631456	0.186375	-0.394427
H104	H	1.618715	0.240150	-0.328560
H105	H	1.728317	0.179973	-0.328560
C106	C	0.813220	0.234133	0.000035
H107	H	0.728028	0.223749	0.000030
H108	H	0.828406	0.260559	0.043938
H109	H	0.828379	0.260546	-0.043874
C110	C	1.323520	0.012990	-0.824815
H111	H	1.334391	0.019115	-0.877683
H112	H	1.347113	-0.034660	-0.811834
H113	H	1.237523	0.025524	-0.811837
