data_functionalizedCrystal
_audit_creation_method	'MofGen! by Chris Wilmer'
_symmetry_space_group_name_H-M	'P1'
_symmetry_Int_Tables_number	1
_symmetry_cell_setting	triclinic
loop_
_symmetry_equiv_pos_as_xyz
  x,y,z
_cell_length_a	14.044209
_cell_length_b	13.101039
_cell_length_c	14.044220
_cell_angle_alpha	93.667477
_cell_angle_beta	93.188415
_cell_angle_gamma	86.340786
loop_
_atom_site_label
_atom_site_type_symbol
_atom_site_fract_x
_atom_site_fract_y
_atom_site_fract_z
O1	O	-1.281968	0.085094	-0.225339
O2	O	-0.948635	0.418427	0.107995
O3	O	-0.615301	0.751761	0.441328
O4	O	-1.005298	0.085123	-0.217034
O5	O	-0.671965	0.418456	0.116300
O6	O	-0.338632	0.751790	0.449633
O7	O	-1.139480	0.085099	-0.082851
O8	O	-0.806146	0.418432	0.250482
O9	O	-0.472813	0.751766	0.583816
O10	O	-1.147787	0.085118	-0.359521
O11	O	-0.814453	0.418452	-0.026188
O12	O	-0.481120	0.751785	0.307145
O13	O	-1.129854	-0.085329	-0.092496
O14	O	-0.796521	0.248004	0.240837
O15	O	-0.463187	0.581337	0.574171
O16	O	-0.995672	-0.085305	-0.226679
O17	O	-0.662339	0.248028	0.106655
O18	O	-0.329006	0.581362	0.439988
O19	O	-1.272342	-0.085334	-0.234984
O20	O	-0.939009	0.247999	0.098350
O21	O	-0.605676	0.581333	0.431683
Zn22	Zn	-1.132479	-0.112379	-0.232362
Zn23	Zn	-0.799146	0.220955	0.100971
Zn24	Zn	-0.465812	0.554288	0.434304
Zn25	Zn	-1.145161	0.112168	-0.219655
Zn26	Zn	-0.811828	0.445501	0.113678
Zn27	Zn	-0.478495	0.778834	0.447012
O28	O	-1.138161	-0.085310	-0.369166
O29	O	-0.804827	0.248023	-0.035833
O30	O	-0.471494	0.581357	0.297500
C31	C	-0.964864	-0.000087	-0.218221
C32	C	-0.631530	0.333246	0.115113
C33	C	-0.298197	0.666579	0.448446
C34	C	-0.858721	-0.000077	-0.207376
C35	C	-0.525388	0.333257	0.125957
C36	C	-0.192055	0.666590	0.459290
C37	C	-0.664383	-0.000096	-0.187553
C38	C	-0.331049	0.333237	0.145781
C39	C	0.002284	0.666571	0.479114
C40	C	-0.613253	-0.000094	-0.264467
C41	C	-0.279919	0.333239	0.068866
C42	C	0.053414	0.666572	0.402199
C43	C	-0.505116	-0.000105	-0.253437
C44	C	-0.171783	0.333228	0.079896
C45	C	0.161551	0.666562	0.413229
C46	C	-0.772529	-0.000085	-0.198581
C47	C	-0.439196	0.333248	0.134752
C48	C	-0.105863	0.666582	0.468085
N49	N	-1.123830	-0.265626	-0.241035
N50	N	-0.790497	0.067708	0.092298
N51	N	-0.457164	0.401041	0.425632
C52	C	-1.112064	-0.474666	-0.252843
C53	C	-0.778731	-0.141333	0.080490
C54	C	-0.445398	0.192001	0.413824
C55	C	-1.165580	-0.525551	-0.199170
C56	C	-0.832247	-0.192218	0.134163
C57	C	-0.498913	0.141115	0.467496
C58	C	-1.159033	-0.641869	-0.205740
C59	C	-0.825700	-0.308535	0.127593
C60	C	-0.492367	0.024798	0.460926
C61	C	-1.118610	-0.358338	-0.246274
C62	C	-0.785277	-0.025005	0.087059
C63	C	-0.451943	0.308328	0.420393
C64	C	-0.312777	-0.000118	-0.233798
C65	C	0.020556	0.333215	0.099535
C66	C	0.353890	0.666548	0.432868
C67	C	-0.418920	-0.000114	-0.244648
C68	C	-0.085586	0.333220	0.088685
C69	C	0.247747	0.666553	0.422019
C70	C	-1.131031	-0.000115	-0.052052
C71	C	-0.797698	0.333218	0.281282
C72	C	-0.464364	0.666551	0.614615
C73	C	-1.120187	-0.000115	0.054091
C74	C	-0.786853	0.333218	0.387424
C75	C	-0.453520	0.666551	0.720758
N76	N	-1.153817	0.265415	-0.210975
N77	N	-0.820484	0.598748	0.122358
N78	N	-0.487150	0.932081	0.455691
C79	C	-1.146609	-0.000093	-0.399965
C80	C	-0.813276	0.333240	-0.066632
C81	C	-0.479943	0.666573	0.266701
C82	C	-1.157454	-0.000087	-0.506108
C83	C	-0.824121	0.333247	-0.172774
C84	C	-0.490788	0.666580	0.160559
C85	C	-1.100361	-0.000099	0.248429
C86	C	-0.767028	0.333235	0.581763
C87	C	-0.433695	0.666568	0.915096
C88	C	-1.177275	-0.000103	0.299560
C89	C	-0.843942	0.333230	0.632893
C90	C	-0.510609	0.666563	0.966226
C91	C	-1.166244	-0.000094	0.407696
C92	C	-0.832911	0.333239	0.741030
C93	C	-0.499578	0.666573	1.074363
C94	C	-1.111391	-0.000108	0.140283
C95	C	-0.778058	0.333225	0.473616
C96	C	-0.444724	0.666559	0.806950
H97	H	-0.626945	-0.000106	-0.113426
H98	H	-0.293612	0.333227	0.219907
H99	H	0.039722	0.666560	0.553241
N100	N	-1.007358	-0.000089	0.295369
N101	N	-0.674024	0.333245	0.628703
N102	N	-0.340691	0.666578	0.962036
N103	N	-0.954924	0.071747	0.285685
N104	N	-0.621591	0.405080	0.619018
N105	N	-0.288258	0.738413	0.952351
H106	H	-0.889239	0.071749	0.318843
H107	H	-0.555906	0.405082	0.652176
H108	H	-0.222572	0.738416	0.985510
H109	H	-0.650693	-0.000085	-0.338600
H110	H	-0.317359	0.333249	-0.005267
H111	H	0.015974	0.666582	0.328067
H112	H	-1.216314	-0.481758	-0.148286
H113	H	-0.882980	-0.148425	0.185047
H114	H	-0.549647	0.184908	0.518381
H115	H	-1.251412	-0.000042	0.262125
H116	H	-0.918079	0.333291	0.595458
H117	H	-0.584746	0.666624	0.928791
H118	H	-1.061335	-0.518454	-0.303725
H119	H	-0.728002	-0.185121	0.029608
H120	H	-0.394669	0.148213	0.362941
