data_functionalizedCrystal
_audit_creation_method	'MofGen! by Chris Wilmer'
_symmetry_space_group_name_H-M	'P1'
_symmetry_Int_Tables_number	1
_symmetry_cell_setting	triclinic
loop_
_symmetry_equiv_pos_as_xyz
  x,y,z
_cell_length_a	18.760490
_cell_length_b	20.875492
_cell_length_c	20.875641
_cell_angle_alpha	60.662107
_cell_angle_beta	90.019007
_cell_angle_gamma	58.342159
loop_
_atom_site_label
_atom_site_type_symbol
_atom_site_fract_x
_atom_site_fract_y
_atom_site_fract_z
Zr1	Zr	0.649131	0.731766	-0.117895
O2	O	0.531967	0.864716	-0.223383
O3	O	0.690474	0.593503	-0.080659
O4	O	0.688463	0.724163	-0.216306
O5	O	0.529392	0.741906	0.013693
O6	O	0.805738	0.724210	-0.216296
O7	O	0.533978	0.734056	-0.087735
O8	O	0.809335	0.490483	0.026352
O9	O	0.525796	0.975633	-0.228956
O10	O	0.789072	0.652375	-0.070689
O11	O	0.698129	0.658199	0.004998
O12	O	0.695762	0.812034	-0.154709
O13	O	0.604819	0.817858	-0.079021
Zr14	Zr	0.828859	0.744361	0.043886
Zr15	Zr	0.836172	0.731841	-0.117880
Zr16	Zr	0.641818	0.744287	0.043871
Zr17	Zr	0.639289	0.908666	-0.126783
Zr18	Zr	0.838702	0.567461	0.052774
O19	O	0.787517	0.882624	0.006649
O20	O	0.797915	0.864822	-0.223361
O21	O	0.521569	0.882518	0.006628
O22	O	0.946023	0.611412	0.149373
O23	O	0.956421	0.593609	-0.080637
O24	O	0.680076	0.611306	0.149352
O25	O	0.948598	0.734221	-0.087702
O26	O	0.789528	0.751965	0.142297
O27	O	0.672252	0.751918	0.142287
O28	O	0.944013	0.742072	0.013726
O29	O	0.674468	0.975692	-0.228944
O30	O	0.803522	0.500435	0.154934
O31	O	0.952195	0.500494	0.154946
O32	O	0.958008	0.490542	0.026364
O33	O	0.519983	0.985585	-0.100373
O34	O	0.668655	0.985644	-0.100361
O35	O	0.782229	0.664093	0.080700
O36	O	0.873172	0.658269	0.005012
O37	O	0.779861	0.817928	-0.079007
O38	O	0.688918	0.823752	-0.003320
C39	C	0.751307	0.516788	-0.025887
C40	C	0.755485	0.441690	-0.022114
C41	C	0.691963	0.463183	-0.079307
C42	C	0.695892	0.392631	-0.075789
C43	C	0.763340	0.300586	-0.015074
C44	C	0.826869	0.279093	0.042123
C45	C	0.822942	0.349644	0.038601
C46	C	0.782108	0.083496	0.001779
C47	C	0.786027	0.012944	0.005298
C48	C	0.655051	0.126487	-0.112615
C49	C	0.651128	0.197035	-0.116129
C50	C	0.714659	0.175536	-0.058935
N51	N	0.767356	0.228469	-0.011474
N52	N	0.710646	0.247652	-0.062538
C53	C	0.505036	0.737970	-0.037023
C54	C	0.425632	0.737939	-0.037030
C55	C	0.092156	0.733838	-0.092865
C56	C	0.087219	0.742488	0.018896
C57	C	0.161869	0.742440	0.018886
C58	C	0.201666	0.738089	-0.037000
C59	C	0.166814	0.733787	-0.092875
C60	C	0.196732	0.746733	0.074765
C61	C	0.271387	0.746684	0.074758
C62	C	0.311182	0.742340	0.018868
C63	C	0.276324	0.738038	-0.037010
C64	C	0.316122	0.733687	-0.092895
C65	C	0.281262	0.729392	-0.148777
C66	C	0.206609	0.729443	-0.148764
C67	C	0.385835	0.742289	0.018856
C68	C	0.390780	0.733636	-0.092905
C69	C	0.972955	0.738157	-0.036986
C70	C	1.052358	0.738189	-0.036979
C71	C	0.748143	0.722402	-0.239349
C72	C	0.751247	0.717087	-0.308023
C73	C	0.726684	0.959339	-0.048122
C74	C	0.722505	1.034438	-0.051896
C75	C	0.704000	0.797928	-0.384144
C76	C	0.706929	0.792928	-0.448667
C77	C	0.757100	0.707087	-0.437069
C78	C	0.804352	0.626239	-0.360940
C79	C	0.801428	0.631240	-0.296418
C80	C	0.771072	0.683194	-0.625336
C81	C	0.773990	0.678199	-0.689866
C82	C	0.676568	0.844889	-0.777588
C83	C	0.673644	0.849882	-0.713061
C84	C	0.720900	0.769035	-0.636939
N85	N	0.760092	0.701974	-0.503021
N86	N	0.717912	0.774148	-0.570988
C87	C	0.729848	0.753725	0.165340
C88	C	0.726743	0.759040	0.234014
C89	C	0.985266	0.516882	-0.025868
C90	C	1.068848	0.441815	-0.022088
C91	C	0.742159	0.532450	0.176458
C92	C	0.743233	0.462666	0.248905
C93	C	0.976119	0.532543	0.176477
C94	C	1.056596	0.462791	0.248930
C95	C	0.501872	0.943584	-0.250486
C96	C	0.421394	1.013336	-0.322939
C97	C	0.492724	0.959246	-0.048141
C98	C	0.409142	1.034313	-0.051921
C99	C	0.735831	0.943678	-0.250467
C100	C	0.734757	1.013461	-0.322914
C101	C	1.064201	0.403485	-0.059836
C102	C	1.142728	0.332960	-0.056300
C103	C	1.225902	0.300762	-0.015012
C104	C	1.230547	0.339098	0.022736
C105	C	1.152021	0.409626	0.019195
C106	C	0.787636	0.432972	0.322449
C107	C	0.788641	0.367414	0.390527
C108	C	0.745248	0.331545	0.385058
C109	C	0.700839	0.361246	0.311506
C110	C	0.699829	0.426808	0.243430
C111	C	1.141869	0.426995	0.243447
C112	C	1.217493	0.361465	0.311518
C113	C	1.207843	0.331728	0.385072
C114	C	1.122561	0.367531	0.390553
C115	C	1.046939	0.433064	0.322483
C116	C	0.336121	1.049141	-0.317457
C117	C	0.260496	1.114692	-0.385529
C118	C	0.270146	1.144433	-0.459083
C119	C	0.355427	1.108626	-0.464564
C120	C	0.431051	1.043080	-0.396493
C121	C	0.413790	1.072649	-0.014181
C122	C	0.335262	1.143192	-0.017735
C123	C	0.252088	1.175393	-0.059026
C124	C	0.247443	1.137054	-0.096771
C125	C	0.325969	1.066516	-0.093220
C126	C	0.778160	1.049309	-0.317421
C127	C	0.777168	1.114869	-0.385486
C128	C	0.732768	1.144585	-0.459044
C129	C	0.689365	1.108730	-0.464536
C130	C	0.690362	1.043167	-0.396471
H131	H	0.637030	0.538128	-0.128740
F132	F	0.502302	1.038393	0.029767
H133	H	0.178222	0.725945	-0.194261
H134	H	0.188154	1.232829	-0.061910
H135	H	0.063769	0.730345	-0.138365
H136	H	1.289836	0.243332	-0.012134
F137	F	0.189652	1.214194	-0.531525
H138	H	0.840953	-0.062006	0.054743
H139	H	1.138928	0.301755	-0.087040
H140	H	0.299764	0.750182	0.120259
H141	H	0.653215	1.132935	-0.524436
H142	H	0.191063	1.143836	-0.381051
H143	H	1.286926	0.332321	0.307041
H144	H	0.179712	1.163283	-0.130389
F145	F	1.288336	0.261979	0.457513
F146	F	1.112305	0.335873	0.468841
H147	H	0.663674	0.450976	0.183550
F148	F	0.956188	0.471151	0.328331
F149	F	0.857751	0.534880	-0.348598
H150	H	0.814315	1.025125	-0.257532
H151	H	0.328247	1.024929	-0.257571
H152	H	0.665509	0.332032	0.307066
F153	F	0.823361	1.153021	-0.379625
H154	H	0.874669	0.332137	0.085174
F155	F	0.644157	1.005028	-0.402330
F156	F	0.620213	0.941246	-0.725413
H157	H	0.363274	1.132850	-0.524460
F158	F	0.579336	0.294995	-0.180747
H159	H	0.500482	1.013928	-0.400966
F160	F	1.156981	0.450407	0.059379
F161	F	0.975688	0.437743	-0.103785
H162	H	0.644166	0.410140	-0.122361
F163	F	0.731712	1.214367	-0.531479
H164	H	0.638095	0.910710	-0.839572
F165	F	0.849718	0.060605	0.062654
F166	F	0.587443	0.149359	-0.173481
F167	F	0.898655	0.181130	0.106739
H168	H	0.423176	0.730098	-0.138417
F169	F	1.152159	0.458636	0.165172
H170	H	0.339062	1.174397	0.013005
F171	F	0.321009	1.025718	-0.133387
F172	F	1.319075	0.304818	0.066678
H173	H	0.313677	0.725844	-0.194277
H174	H	0.824807	0.343239	0.450409
F175	F	0.154383	0.751355	0.134244
F176	F	0.044870	0.747110	0.078375
H177	H	0.414218	0.745780	0.064357
H178	H	0.814845	0.608293	-0.680413
H179	H	0.668457	0.858758	-0.510646
F180	F	0.650599	0.889294	-0.396497
H181	H	0.809552	0.617363	-0.563362
H182	H	0.839902	0.565411	-0.234438
F183	F	0.833828	0.471132	0.328287
H184	H	0.746077	0.278161	0.440497
