data_functionalizedCrystal
_audit_creation_method	'MofGen! by Chris Wilmer'
_symmetry_space_group_name_H-M	'P1'
_symmetry_Int_Tables_number	1
_symmetry_cell_setting	triclinic
loop_
_symmetry_equiv_pos_as_xyz
  x,y,z
_cell_length_a	21.295417
_cell_length_b	17.077404
_cell_length_c	17.077396
_cell_angle_alpha	89.982756
_cell_angle_beta	89.965973
_cell_angle_gamma	90.030732
loop_
_atom_site_label
_atom_site_type_symbol
_atom_site_fract_x
_atom_site_fract_y
_atom_site_fract_z
Zn1	Zn	-0.250600	1.199996	-0.443817
Zn2	Zn	0.249400	1.699996	0.056183
Zn3	Zn	-0.355875	1.199890	-0.312540
Zn4	Zn	0.144125	1.699890	0.187460
Zn5	Zn	-0.250624	1.068733	-0.312565
Zn6	Zn	0.249376	1.568733	0.187435
Zn7	Zn	-0.355836	1.068678	-0.443764
Zn8	Zn	0.144164	1.568678	0.056236
O9	O	-0.303234	1.134324	-0.378171
O10	O	0.196766	1.634324	0.121829
O11	O	-0.264572	1.309829	-0.426415
O12	O	0.235428	1.809829	0.073585
O13	O	-0.341939	1.182471	-0.202697
O14	O	0.158061	1.682471	0.297303
O15	O	-0.162531	1.086212	-0.330008
O16	O	0.337469	1.586212	0.169992
O17	O	-0.341916	1.309751	-0.329966
O18	O	0.158084	1.809751	0.170034
O19	O	-0.162514	1.182650	-0.426439
O20	O	0.337486	1.682650	0.073561
O21	O	-0.264612	1.086110	-0.202715
O22	O	0.235388	1.586110	0.297285
O23	O	-0.264574	0.958878	-0.329957
O24	O	0.235426	1.458878	0.170043
O25	O	-0.341850	1.086119	-0.553618
O26	O	0.158150	1.586119	-0.053618
O27	O	-0.341873	0.958838	-0.426348
O28	O	0.158127	1.458838	0.073652
O29	O	-0.264534	1.182597	-0.553657
O30	O	0.235466	1.682597	-0.053657
O31	O	-0.443959	1.182418	-0.329915
O32	O	0.056041	1.682418	0.170085
O33	O	-0.443931	1.086017	-0.426324
O34	O	0.056069	1.586017	0.073676
C35	C	-0.303222	0.930376	-0.378150
C36	C	0.196778	1.430376	0.121850
C37	C	-0.303233	0.843126	-0.378159
C38	C	0.196767	1.343126	0.121841
C39	C	-0.343543	0.802136	-0.428270
C40	C	0.156457	1.302136	0.071730
C41	C	-0.343544	0.720155	-0.428282
C42	C	0.156456	1.220155	0.071718
C43	C	-0.303238	0.679167	-0.378180
C44	C	0.196762	1.179167	0.121820
C45	C	-0.262923	0.720163	-0.328067
C46	C	0.237077	1.220163	0.171933
C47	C	-0.262919	0.802142	-0.328059
C48	C	0.237081	1.302142	0.171941
C49	C	-0.262936	0.549293	-0.328086
C50	C	0.237064	1.049293	0.171914
C51	C	-0.262940	0.467309	-0.328093
C52	C	0.237060	0.967309	0.171907
C53	C	-0.343561	0.467306	-0.428309
C54	C	0.156439	0.967306	0.071691
C55	C	-0.343557	0.549285	-0.428301
C56	C	0.156443	1.049285	0.071699
C57	C	-0.303243	0.590276	-0.378187
C58	C	0.196757	1.090276	0.121813
C59	C	-0.466785	1.134221	-0.378128
C60	C	0.033215	1.634221	0.121872
C61	C	-0.536753	1.134249	-0.378136
C62	C	-0.036753	1.634249	0.121864
C63	C	-0.569614	1.184490	-0.327987
C64	C	-0.069614	1.684490	0.172013
C65	C	-0.635357	1.184526	-0.328004
C66	C	-0.135357	1.684526	0.171996
C67	C	-0.668236	1.134309	-0.378163
C68	C	-0.168236	1.634309	0.121837
C69	C	-0.635367	1.084064	-0.428321
C70	C	-0.135367	1.584064	0.071679
C71	C	-0.569626	1.084035	-0.428308
C72	C	-0.069626	1.584035	0.071692
N73	N	-0.771502	1.065640	-0.384140
N74	N	-0.271502	1.565640	0.115860
N75	N	-0.833953	1.065670	-0.384148
N76	N	-0.333953	1.565670	0.115852
C77	C	-0.866311	1.134396	-0.378208
C78	C	-0.366311	1.634396	0.121792
N79	N	-0.833857	1.203093	-0.372244
N80	N	-0.333857	1.703093	0.127756
N81	N	-0.771400	1.203061	-0.372231
N82	N	-0.271400	1.703061	0.127769
C83	C	-0.739521	1.134336	-0.378183
C84	C	-0.239521	1.634336	0.121817
C85	C	-0.970457	1.184681	-0.328075
C86	C	-0.470457	1.684681	0.171925
C87	C	-1.036200	1.184719	-0.328098
C88	C	-0.536200	1.684719	0.171902
C89	C	-1.036210	1.084250	-0.428411
C90	C	-0.536210	1.584250	0.071589
C91	C	-0.970468	1.084219	-0.428392
C92	C	-0.470468	1.584219	0.071608
C93	C	-0.937595	1.134434	-0.378220
C94	C	-0.437595	1.634434	0.121780
C95	C	-0.139043	1.134449	-0.378232
C96	C	0.360957	1.634449	0.121768
C97	C	-0.069075	1.134502	-0.378258
C98	C	0.430925	1.634502	0.121742
C99	C	-0.303185	1.134364	-0.582916
C100	C	0.196815	1.634364	-0.082916
C101	C	-0.303164	1.134380	-0.670166
C102	C	0.196836	1.634380	-0.170166
C103	C	-0.303246	1.339068	-0.378194
C104	C	0.196754	1.839068	0.121806
C105	C	-0.303251	1.426318	-0.378203
C106	C	0.196749	1.926318	0.121797
C107	C	-0.262895	1.084220	-0.711165
C108	C	0.237105	1.584220	-0.211165
C109	C	-0.262881	1.084233	-0.793145
C110	C	0.237119	1.584233	-0.293145
C111	C	-0.303133	1.134411	-0.834125
C112	C	0.196867	1.634411	-0.334125
C113	C	-0.343407	1.184573	-0.793120
C114	C	0.156593	1.684573	-0.293120
C115	C	-0.343424	1.184555	-0.711141
C116	C	0.156576	1.684555	-0.211141
C117	C	-0.343367	1.184607	-0.963991
C118	C	0.156633	1.684607	-0.463991
C119	C	-0.343350	1.184625	-1.045975
C120	C	0.156650	1.684625	-0.545975
C121	C	-0.262824	1.084285	-1.045994
C122	C	0.237176	1.584285	-0.545994
C123	C	-0.262841	1.084267	-0.964015
C124	C	0.237159	1.584267	-0.464015
C125	C	-0.303114	1.134431	-0.923016
C126	C	0.196886	1.634431	-0.423016
C127	C	-0.303237	1.134330	-0.174224
C128	C	0.196763	1.634330	0.325776
C129	C	-0.303080	1.134465	-0.086974
C130	C	0.196920	1.634465	0.413026
H131	H	-0.376369	0.686785	-0.469086
H132	H	0.123631	1.186785	0.030914
H133	H	-0.230062	1.043412	-0.930652
H134	H	0.269938	1.543412	-0.430652
Cl135	Cl	-0.528313	1.020869	-0.491357
Cl136	Cl	-0.028313	1.520869	0.008643
H137	H	-0.943691	1.225572	-0.287224
H138	H	-0.443691	1.725572	0.212776
Cl139	Cl	-0.212194	1.021224	-1.097535
Cl140	Cl	0.287806	1.521224	-0.597535
H141	H	-0.376126	1.225484	-1.079339
H142	H	0.123874	1.725484	-0.579339
Cl143	Cl	-0.528292	1.247628	-0.264925
Cl144	Cl	-0.028292	1.747628	0.235075
Cl145	Cl	-0.393999	1.247667	-0.912450
Cl146	Cl	0.106001	1.747667	-0.412450
Cl147	Cl	-0.212254	0.600823	-0.265085
Cl148	Cl	0.287746	1.100823	0.234915
Cl149	Cl	-0.394014	1.247648	-0.844638
Cl150	Cl	0.105986	1.747648	-0.344638
H151	H	-0.943711	1.043305	-0.469225
H152	H	-0.443711	1.543305	0.030775
H153	H	-0.230092	1.043385	-0.826523
H154	H	0.269908	1.543385	-0.326523
H155	H	-0.662117	1.225441	-0.287167
H156	H	-0.162117	1.725441	0.212833
Cl157	Cl	-0.676700	1.020937	-0.491381
Cl158	Cl	-0.176700	1.520937	0.008619
H159	H	-0.376367	0.835503	-0.469066
H160	H	0.123633	1.335503	0.030934
Cl161	Cl	-0.394232	0.600813	-0.491282
Cl162	Cl	0.105768	1.100813	0.008718
H163	H	-0.376210	1.225407	-0.677761
H164	H	0.123790	1.725407	-0.177761
H165	H	-1.062980	1.043365	-0.469255
H166	H	-0.562980	1.543365	0.030745
H167	H	-0.230113	1.043365	-0.677805
H168	H	0.269887	1.543365	-0.177805
Cl169	Cl	-0.394232	0.415776	-0.491320
Cl170	Cl	0.105768	0.915776	0.008680
Cl171	Cl	-1.077512	1.247891	-0.265054
Cl172	Cl	-0.577512	1.747891	0.234946
H173	H	-0.230103	0.686784	-0.287276
H174	H	0.269897	1.186784	0.212724
Cl175	Cl	-0.212240	0.853673	-0.265062
Cl176	Cl	0.287760	1.353673	0.234938
Cl177	Cl	-0.212272	0.415781	-0.265102
Cl178	Cl	0.287728	0.915781	0.234898
