data_functionalizedCrystal
_audit_creation_method	'MofGen! by Chris Wilmer'
_symmetry_space_group_name_H-M	'P1'
_symmetry_Int_Tables_number	1
_symmetry_cell_setting	triclinic
loop_
_symmetry_equiv_pos_as_xyz
  x,y,z
_cell_length_a	8.497374
_cell_length_b	8.497366
_cell_length_c	34.606111
_cell_angle_alpha	101.396595
_cell_angle_beta	89.996595
_cell_angle_gamma	90.036547
loop_
_atom_site_label
_atom_site_type_symbol
_atom_site_fract_x
_atom_site_fract_y
_atom_site_fract_z
Zn1	Zn	0.627890	-0.404488	0.604231
Zn2	Zn	0.891828	-0.140785	0.604193
Zn3	Zn	0.628032	-0.194057	0.538133
Zn4	Zn	0.891599	-0.457806	0.538159
O5	O	0.759837	-0.299284	0.571179
O6	O	0.662938	-0.324899	0.659524
O7	O	0.856990	0.072889	0.595402
O8	O	0.407251	-0.221952	0.546906
O9	O	0.856852	-0.131157	0.659495
O10	O	0.407146	-0.376555	0.595468
O11	O	0.663181	0.033750	0.546869
O12	O	0.662959	-0.273652	0.482839
O13	O	0.856461	-0.671474	0.546951
O14	O	0.856600	-0.467427	0.482858
O15	O	0.662716	-0.632302	0.595494
O16	O	1.112560	-0.182857	0.595428
O17	O	1.112391	-0.415772	0.546913
C18	C	0.759771	-0.382107	0.468511
C19	C	0.759781	-0.417577	0.424589
C20	C	0.254994	-0.030607	0.280030
C21	C	0.255035	-0.063957	0.238759
C22	C	0.456973	-0.265387	0.238806
C23	C	0.456944	-0.232059	0.280078
C24	C	0.355952	-0.114666	0.300687
C25	C	0.557902	-0.316119	0.300735
C26	C	0.557878	-0.282787	0.342003
C27	C	0.456897	-0.165396	0.362615
C28	C	0.355928	-0.081334	0.341955
C29	C	0.658901	-0.433504	0.280125
C30	C	0.759859	-0.517563	0.300782
C31	C	0.759828	-0.484240	0.342051
C32	C	0.658847	-0.366849	0.362663
C33	C	0.860797	-0.568301	0.362711
C34	C	0.860773	-0.534970	0.403980
C35	C	0.658823	-0.333517	0.403932
C36	C	1.169717	-0.299311	0.571174
C37	C	1.348361	-0.299276	0.571185
C38	C	0.759693	0.289254	0.571202
C39	C	0.760023	0.110568	0.571150
C40	C	0.759905	-0.216138	0.674248
C41	C	0.759933	-0.180707	0.718170
C42	C	0.860923	-0.029904	0.780062
C43	C	0.860885	-0.063210	0.738791
C44	C	0.658971	-0.264939	0.738816
C45	C	0.658986	-0.231645	0.780089
C46	C	0.759968	-0.114127	0.800708
C47	C	0.558030	-0.315867	0.800735
C48	C	0.558052	-0.282581	0.842003
C49	C	0.659029	-0.165072	0.862626
C50	C	0.759989	-0.080841	0.841977
C51	C	0.457057	-0.433392	0.780114
C52	C	0.356102	-0.517615	0.800761
C53	C	0.356114	-0.484321	0.842030
C54	C	0.457092	-0.366813	0.862652
C55	C	0.255154	-0.568553	0.862679
C56	C	0.255176	-0.535267	0.903948
C57	C	0.457114	-0.333526	0.903921
C58	C	0.356175	-0.382338	0.968489
C59	C	0.356158	-0.417749	0.924567
Zn60	Zn	0.224198	-0.141303	1.104179
Zn61	Zn	0.224266	-0.458242	1.038120
Zn62	Zn	0.487973	-0.404845	1.104202
Zn63	Zn	0.487996	-0.194291	1.038129
O64	O	0.356108	-0.299670	1.071158
O65	O	0.003444	-0.183516	1.095403
O66	O	0.259267	-0.671917	1.046892
O67	O	0.452944	-0.325363	1.159496
O68	O	0.003495	-0.416370	1.046870
O69	O	0.259150	-0.131740	1.159480
O70	O	0.453011	-0.632687	1.095442
O71	O	0.708738	-0.376744	1.095451
O72	O	0.452983	0.033496	1.046885
O73	O	0.708755	-0.222051	1.046907
O74	O	0.259172	0.072426	1.095412
O75	O	0.259289	-0.467751	0.982824
O76	O	0.453050	-0.273827	0.982831
C77	C	0.356037	-0.216685	1.174227
C78	C	0.356006	-0.181321	1.218149
C79	C	0.765988	-0.299340	1.071182
C80	C	0.944632	-0.299165	1.071184
C81	C	0.356072	0.111805	1.071151
C82	C	0.356070	0.290448	1.071150
H83	H	0.172732	0.064963	0.296811
Cl84	Cl	0.457026	-0.475233	0.728233
H85	H	0.172806	0.004492	0.221941
Cl86	Cl	0.531850	-0.185945	0.429843
Cl87	Cl	0.128236	-0.716303	0.836752
Cl88	Cl	0.583945	-0.412943	0.212894
H89	H	0.539334	-0.237822	0.920711
H90	H	0.658915	-0.460638	0.246522
Cl91	Cl	0.229169	-0.665353	0.774835
H92	H	0.576760	-0.360626	0.722022
Cl93	Cl	0.456872	-0.123482	0.414497
H94	H	0.842087	-0.613140	0.283997
H95	H	0.273666	0.014235	0.358736
H96	H	0.172965	-0.603846	0.920758
H97	H	0.842210	0.014864	0.858767
Cl98	Cl	0.987880	0.117828	0.805987
Cl99	Cl	0.987846	0.042653	0.712837
H100	H	0.659029	-0.137960	0.896229
H101	H	0.943031	-0.663871	0.345925
H102	H	0.942980	-0.603421	0.420799
