data_functionalizedCrystal
_audit_creation_method	'MofGen! by Chris Wilmer'
_symmetry_space_group_name_H-M	'P1'
_symmetry_Int_Tables_number	1
_symmetry_cell_setting	triclinic
loop_
_symmetry_equiv_pos_as_xyz
  x,y,z
_cell_length_a	16.109296
_cell_length_b	16.109301
_cell_length_c	15.186229
_cell_angle_alpha	90.002208
_cell_angle_beta	89.993523
_cell_angle_gamma	83.460385
loop_
_atom_site_label
_atom_site_type_symbol
_atom_site_fract_x
_atom_site_fract_y
_atom_site_fract_z
O1	O	-0.106869	-1.103125	0.073174
O2	O	-0.120169	-0.861063	0.073188
O3	O	0.007512	-0.988746	0.073174
O4	O	-0.234550	-0.975442	0.073189
O5	O	0.007520	-0.988745	-0.073284
O6	O	-0.120161	-0.861062	-0.073269
O7	O	-0.106862	-1.103124	-0.073283
Zn8	Zn	-0.113510	-0.982093	-0.096529
Zn9	Zn	-0.113520	-0.982094	0.096435
O10	O	-0.234543	-0.975441	-0.073268
C11	C	0.038491	-0.988207	-0.000055
C12	C	0.130787	-0.986594	-0.000055
C13	C	-0.119626	-0.830087	-0.000039
C14	C	-0.118011	-0.737792	-0.000033
C15	C	0.439786	-1.057083	-0.000047
C16	C	0.353065	-1.058607	-0.000051
C17	C	0.333192	-0.907118	-0.000054
C18	C	0.419911	-0.905595	-0.000056
C19	C	0.473206	-0.980580	-0.000048
C20	C	0.299767	-0.983626	-0.000050
C21	C	0.205740	-0.985278	-0.000055
C22	C	0.567238	-0.978929	-0.000046
C23	C	0.734479	-0.975984	-0.000041
C24	C	0.642186	-0.977613	-0.000044
N25	N	-0.113521	-0.982095	0.228127
C26	C	-0.107404	-1.134099	-0.000054
C27	C	-0.109019	-1.226394	-0.000054
C28	C	-0.190019	-0.515518	-0.000039
C29	C	-0.188495	-0.428798	-0.000045
C30	C	-0.037006	-0.448675	-0.000051
C31	C	-0.038531	-0.535394	-0.000051
C32	C	-0.115040	-0.568813	-0.000041
C33	C	-0.111991	-0.395374	-0.000046
C34	C	-0.110338	-0.301348	-0.000052
C35	C	-0.116693	-0.662845	-0.000036
N36	N	-0.113503	-0.982098	-0.228222
C37	C	-0.057093	-1.038742	0.453844
C38	C	-0.057091	-1.038745	0.546033
C39	C	-0.169937	-0.925448	0.546055
C40	C	-0.169942	-0.925450	0.453867
C41	C	-0.113516	-0.982096	0.407764
C42	C	-0.113508	-0.982097	0.592141
C43	C	-0.113506	-0.982099	0.692098
C44	C	-0.113518	-0.982096	0.307801
H45	H	0.483177	-1.118141	-0.000041
Cl46	Cl	0.059172	-0.406656	-0.000058
Cl47	Cl	0.311056	-1.154786	-0.000047
H48	H	-0.011148	-1.084872	0.583549
Cl49	Cl	0.266187	-0.812856	-0.000057
Cl50	Cl	0.461928	-0.809412	-0.000063
Cl51	Cl	-0.282759	-0.361802	-0.000043
Cl52	Cl	-0.286201	-0.557528	-0.000032
Cl53	Cl	0.055737	-0.602398	-0.000061
Cl54	Cl	0.013840	-1.109958	0.395889
H55	H	-0.215877	-0.879327	0.583602
H56	H	-0.215892	-0.879322	0.416347
