data_functionalizedCrystal
_audit_creation_method	'MofGen! by Chris Wilmer'
_symmetry_space_group_name_H-M	'P1'
_symmetry_Int_Tables_number	1
_symmetry_cell_setting	triclinic
loop_
_symmetry_equiv_pos_as_xyz
  x,y,z
_cell_length_a	10.654559
_cell_length_b	15.455313
_cell_length_c	10.654550
_cell_angle_alpha	87.307837
_cell_angle_beta	84.486794
_cell_angle_gamma	92.707446
loop_
_atom_site_label
_atom_site_type_symbol
_atom_site_fract_x
_atom_site_fract_y
_atom_site_fract_z
O1	O	1.673292	0.072133	0.171008
O2	O	1.307815	0.072134	0.187802
O3	O	1.498956	0.072130	-0.003333
O4	O	1.482150	0.072137	0.362144
O5	O	1.488025	-0.072132	0.007551
O6	O	1.296884	-0.072128	0.198687
O7	O	1.662361	-0.072129	0.181893
Cu8	Cu	1.478624	-0.085301	0.191284
Cu9	Cu	1.491551	0.085306	0.178412
O10	O	1.471220	-0.072125	0.373029
C11	C	1.255552	0.000003	0.192009
C12	C	1.116109	0.000003	0.188313
N13	N	1.469541	-0.205296	0.200337
C14	C	1.064569	-0.000001	0.072301
C15	C	0.933547	0.000005	0.068835
C16	C	0.905616	0.000017	0.297403
C17	C	1.036636	0.000016	0.300867
C18	C	1.080693	-0.000012	-0.059661
C19	C	0.949672	-0.000005	-0.063128
C20	C	1.550774	-0.250692	0.119166
C21	C	1.543916	-0.341499	0.126024
C22	C	1.455832	-0.386910	0.214060
C23	C	1.374591	-0.341508	0.295234
C24	C	1.381443	-0.250702	0.288369
C25	C	1.426255	-0.658491	0.243658
C26	C	1.419412	-0.749303	0.250520
C27	C	1.588736	-0.749288	0.081307
C28	C	1.595586	-0.658481	0.074455
C29	C	1.514340	-0.613087	0.155625
N30	N	1.448823	-0.479730	0.221075
N31	N	1.521344	-0.520268	0.148603
C32	C	1.714624	0.000004	0.177686
C33	C	1.854067	0.000010	0.181382
C34	C	1.492257	0.000000	-0.044689
C35	C	1.488565	0.000003	-0.184133
N36	N	1.500644	0.205301	0.169349
C37	C	1.601106	0.000001	-0.263614
C38	C	1.597630	0.000007	-0.394636
C39	C	1.369062	0.000015	-0.366681
C40	C	1.372540	0.000015	-0.235662
C41	C	1.733068	-0.000008	-0.279755
C42	C	1.729592	-0.000002	-0.410776
C43	C	1.477919	0.000007	0.414384
C44	C	1.481611	0.000009	0.553828
H45	H	1.078594	0.000034	0.395334
H46	H	0.918762	0.062284	-0.109858
Cl47	Cl	1.324126	-0.601430	0.345702
Cl48	Cl	1.279313	-0.193634	0.390413
H49	H	1.770370	-0.062297	-0.239427
H50	H	1.622507	-0.213724	0.047483
Cl51	Cl	1.143884	-0.096182	-0.113952
Cl52	Cl	1.706323	-0.601393	-0.036218
H53	H	1.654881	-0.786257	0.015221
Cl54	Cl	1.798449	0.096163	-0.488510
Cl55	Cl	0.897258	-0.093208	-0.135779
H56	H	1.302864	-0.378486	0.366911
Cl57	Cl	1.799288	-0.093209	-0.468225
H58	H	1.280899	0.000029	-0.170953
H59	H	1.610061	-0.378460	0.059928
Cl60	Cl	1.308668	-0.806385	0.361206
Cl61	Cl	1.223210	0.000031	-0.431471
H62	H	1.789257	0.060361	-0.254950
H63	H	0.840893	0.000028	0.389040
Cl64	Cl	1.152221	0.093188	-0.143474
