data_functionalizedCrystal
_audit_creation_method	'MofGen! by Chris Wilmer'
_symmetry_space_group_name_H-M	'P1'
_symmetry_Int_Tables_number	1
_symmetry_cell_setting	triclinic
loop_
_symmetry_equiv_pos_as_xyz
  x,y,z
_cell_length_a	6.817900
_cell_length_b	16.418049
_cell_length_c	16.015572
_cell_angle_alpha	77.934069
_cell_angle_beta	104.485554
_cell_angle_gamma	103.389670
loop_
_atom_site_label
_atom_site_type_symbol
_atom_site_fract_x
_atom_site_fract_y
_atom_site_fract_z
V1	V	-3.991464	-0.033756	-0.269482
O2	O	-3.980161	0.086040	-0.264039
O3	O	-3.942731	-0.148123	-0.267939
O4	O	-3.927893	0.003804	-0.386875
O5	O	-3.995101	-0.066939	-0.144280
V6	V	-4.477101	-0.023804	-0.254470
O7	O	-4.248085	-0.055588	-0.302411
O8	O	-4.670677	-0.001973	-0.221541
O9	O	-4.302628	0.090562	-0.256012
O10	O	-4.605801	-0.143600	-0.259913
O11	O	-4.590861	0.009378	-0.379671
O12	O	-4.317465	-0.061364	-0.137077
C13	C	-3.788141	-0.177160	-0.263766
C14	C	-3.829481	-0.270418	-0.263287
C15	C	-4.106096	-0.487922	-0.266521
C16	C	-4.144927	-0.575546	-0.266079
C17	C	-3.781827	-0.569636	-0.257436
C18	C	-3.743001	-0.482013	-0.257884
C19	C	-3.905141	-0.441159	-0.262423
C20	C	-3.982798	-0.616406	-0.261532
C21	C	-4.024899	-0.711412	-0.261053
C22	C	-3.863038	-0.346147	-0.262903
C23	C	-3.769214	0.016638	-0.415478
C24	C	-3.798519	0.046591	-0.511450
C25	C	-4.086378	-0.219271	-0.889781
C26	C	-4.113920	-0.191098	-0.979956
C27	C	-4.037357	-0.045343	-0.954866
C28	C	-4.009798	-0.073503	-0.864687
C29	C	-4.034315	-0.160468	-0.832152
C30	C	-3.957735	-0.014701	-0.807058
C31	C	-3.930190	-0.042859	-0.716886
C32	C	-3.954708	-0.129820	-0.684344
C33	C	-4.006770	-0.188626	-0.741980
C34	C	-3.933233	0.072263	-0.839595
C35	C	-3.881170	0.131066	-0.781966
C36	C	-3.853610	0.102908	-0.691793
C37	C	-3.878128	0.015947	-0.659250
C38	C	-3.801548	0.161714	-0.634156
C39	C	-3.774002	0.133556	-0.543985
C40	C	-3.850582	-0.012212	-0.569079
C41	C	-4.120560	0.119595	-0.260183
C42	C	-4.058457	0.212853	-0.260667
C43	C	-4.139487	-0.074203	-0.108469
C44	C	-4.089421	-0.104152	-0.012497
H45	H	-3.932283	-0.152746	-0.610920
C46	C	-3.653203	0.266658	-0.784186
C47	C	-3.854230	0.226656	-0.817728
H48	H	-3.636579	0.325673	-0.806258
H49	H	-3.557347	0.243147	-0.801315
H50	H	-3.629365	0.258291	-0.722235
H51	H	-3.878064	0.235017	-0.879679
H52	H	-3.950116	0.250175	-0.800605
C53	C	-4.358865	-0.309351	-1.033254
C54	C	-4.171152	-0.255740	-1.043306
H55	H	-4.394194	-0.349258	-1.072361
H56	H	-4.463749	-0.276601	-1.045693
H57	H	-4.345942	-0.338562	-0.974892
H58	H	-4.184080	-0.226524	-1.101667
H59	H	-4.066244	-0.288494	-1.030873
C60	C	-3.871415	0.246455	-0.498977
C61	C	-3.716763	0.198189	-0.480631
H62	H	-3.836073	0.286360	-0.459867
H63	H	-3.998740	0.210079	-0.492167
H64	H	-3.884288	0.275669	-0.557337
H65	H	-3.703901	0.168970	-0.422273
H66	H	-3.589404	0.234570	-0.487434
C67	C	-3.998520	-0.296512	-0.614890
C68	C	-4.033696	-0.284220	-0.706206
H69	H	-4.015130	-0.355525	-0.592806
H70	H	-4.094409	-0.273003	-0.597782
H71	H	-3.862145	-0.269356	-0.592153
H72	H	-4.170077	-0.311372	-0.728944
H73	H	-3.937804	-0.307740	-0.723323
H74	H	-3.781612	0.232521	-0.660661
H75	H	-4.238123	-0.454661	-0.270216
C76	C	-3.971061	-0.349303	-0.879113
C77	C	-4.112723	-0.314831	-0.853874
H78	H	-3.987162	-0.408286	-0.856909
H79	H	-3.834832	-0.321949	-0.856485
H80	H	-3.995144	-0.341065	-0.941066
H81	H	-4.088630	-0.323063	-0.791922
H82	H	-4.248983	-0.342194	-0.876499
C83	C	-4.045566	0.062547	-1.081951
C84	C	-4.010398	0.050247	-0.990635
H85	H	-4.028903	0.121561	-1.104029
H86	H	-4.181933	0.035409	-1.104692
H87	H	-3.949684	0.039023	-1.099061
H88	H	-4.106291	0.073765	-0.973524
H89	H	-3.874010	0.077395	-0.967886
H90	H	-3.870519	-0.083026	-0.542587
C91	C	-4.438080	-0.619011	-0.198707
C92	C	-4.365822	-0.626947	-0.270577
H93	H	-4.574454	-0.650748	-0.201483
H94	H	-4.438149	-0.560984	-0.199629
H95	H	-4.350657	-0.639934	-0.146268
H96	H	-4.453238	-0.606019	-0.323016
H97	H	-4.365768	-0.684986	-0.269663
C98	C	-3.460432	-0.391493	-0.178781
C99	C	-3.522091	-0.430603	-0.253374
H100	H	-3.324064	-0.359751	-0.176004
H101	H	-3.463948	-0.433568	-0.128197
H102	H	-3.551456	-0.354624	-0.181564
H103	H	-3.431076	-0.467477	-0.250588
H104	H	-3.518560	-0.388523	-0.303971
H105	H	-3.649823	-0.602911	-0.253739
H106	H	-3.955633	0.095188	-0.913019
