data_functionalizedCrystal
_audit_creation_method	'MofGen! by Chris Wilmer'
_symmetry_space_group_name_H-M	'P1'
_symmetry_Int_Tables_number	1
_symmetry_cell_setting	triclinic
loop_
_symmetry_equiv_pos_as_xyz
  x,y,z
_cell_length_a	13.033409
_cell_length_b	16.625545
_cell_length_c	13.032268
_cell_angle_alpha	97.146495
_cell_angle_beta	105.162573
_cell_angle_gamma	82.856342
loop_
_atom_site_label
_atom_site_type_symbol
_atom_site_fract_x
_atom_site_fract_y
_atom_site_fract_z
Zn1	Zn	1.547353	-0.511038	-0.393923
Zn2	Zn	2.047353	-0.011038	0.106077
Zn3	Zn	1.569785	-0.630683	-0.216326
Zn4	Zn	2.069785	-0.130683	0.283674
Zn5	Zn	1.392311	-0.480710	-0.238930
Zn6	Zn	1.892311	0.019290	0.261070
Zn7	Zn	1.369702	-0.630653	-0.416478
Zn8	Zn	1.869702	-0.130653	0.083522
O9	O	1.469787	-0.563271	-0.316414
O10	O	1.969787	-0.063271	0.183586
O11	O	1.698949	-0.539614	-0.351465
O12	O	2.198949	-0.039614	0.148535
O13	O	1.565092	-0.598109	-0.070696
O14	O	2.065092	-0.098109	0.429304
O15	O	1.412951	-0.371910	-0.259511
O16	O	1.912951	0.128090	0.240489
O17	O	1.715430	-0.627516	-0.220986
O18	O	2.215430	-0.127516	0.279014
O19	O	1.526860	-0.394192	-0.373383
O20	O	2.026860	0.105808	0.126617
O21	O	1.434702	-0.487925	-0.087303
O22	O	1.934702	0.012075	0.412697
O23	O	1.240691	-0.487896	-0.281381
O24	O	1.740691	0.012104	0.218619
O25	O	1.374418	-0.627465	-0.562114
O26	O	1.874418	-0.127465	-0.062114
O27	O	1.224080	-0.598058	-0.411825
O28	O	1.724080	-0.098058	0.088175
O29	O	1.504937	-0.539585	-0.545544
O30	O	2.004937	-0.039585	-0.045544
O31	O	1.543170	-0.743502	-0.242856
O32	O	2.043170	-0.243502	0.257144
O33	O	1.396170	-0.743480	-0.389906
O34	O	1.896170	-0.243480	0.110094
C35	C	1.193850	-0.539683	-0.351504
C36	C	1.693850	-0.039683	0.148496
C37	C	1.075799	-0.529614	-0.366541
C38	C	1.575799	-0.029614	0.133459
C39	C	0.909320	-0.558126	-0.324128
C40	C	1.409320	-0.058126	0.175872
C41	C	1.031333	-0.568536	-0.308582
C42	C	1.531333	-0.068536	0.191418
C43	C	1.469676	-0.772749	-0.316396
C44	C	1.969676	-0.272749	0.183604
C45	C	1.469721	-0.862376	-0.316411
C46	C	1.969721	-0.362376	0.183589
C47	C	1.469760	-0.935164	-0.316427
C48	C	1.969760	-0.435164	0.183573
C49	C	1.469819	-1.026480	-0.316442
C50	C	1.969819	-0.526480	0.183558
C51	C	1.469872	-1.099262	-0.316449
C52	C	1.969872	-0.599262	0.183551
C53	C	1.469930	-1.190583	-0.316463
C54	C	1.969930	-0.690583	0.183537
C55	C	1.746803	-0.586952	-0.281188
C56	C	2.246803	-0.086952	0.218812
C57	C	1.864850	-0.597043	-0.266177
C58	C	2.364850	-0.097043	0.233823
C59	C	1.434654	-0.586905	-0.593444
C60	C	1.934654	-0.086905	-0.093444
C61	C	1.419682	-0.596976	-0.711498
C62	C	1.919682	-0.096976	-0.211498
C63	C	1.469925	-0.352979	-0.316453
C64	C	1.969925	0.147021	0.183547
C65	C	1.469984	-0.263365	-0.316469
C66	C	1.969984	0.236635	0.183531
C67	C	1.477585	-0.557984	-0.755931
C68	C	1.977585	-0.057984	-0.255931
C69	C	1.462112	-0.568392	-0.877946
C70	C	1.962112	-0.068392	-0.377946
C71	C	1.504846	-0.539676	-0.040454
C72	C	2.004846	-0.039676	0.459546
C73	C	1.520023	-0.529396	0.077625
C74	C	2.020023	-0.029396	0.577625
H75	H	0.857063	-0.517105	-0.385256
H76	H	1.357063	-0.017105	0.114744
H77	H	1.401073	-0.609477	-0.930233
H78	H	1.901073	-0.109477	-0.430233
H79	H	1.083585	-0.609568	-0.247460
H80	H	1.583585	-0.109568	0.252540
C81	C	1.005960	-0.474913	-0.447962
C82	C	1.505960	0.025087	0.052038
C83	C	0.898829	-0.475441	-0.447174
C84	C	1.398829	0.024559	0.052826
C85	C	0.834465	-0.425055	-0.522154
C86	C	1.334465	0.074945	-0.022154
H87	H	1.014922	-0.494363	-0.517060
H88	H	1.514922	0.005637	-0.017060
H89	H	1.025999	-0.420917	-0.430245
H90	H	1.525999	0.079083	0.069755
H91	H	0.878796	-0.529426	-0.464897
H92	H	1.378796	-0.029426	0.035103
H93	H	0.889834	-0.455984	-0.378094
H94	H	1.389834	0.044016	0.121906
H95	H	0.854504	-0.371059	-0.504438
H96	H	1.354504	0.128941	-0.004438
H97	H	0.843436	-0.444509	-0.591247
H98	H	1.343436	0.055491	-0.091247
H99	H	0.761771	-0.425400	-0.521623
H100	H	1.261771	0.074600	-0.021623
H101	H	1.538609	-0.516894	-0.703642
H102	H	2.038609	-0.016894	-0.203642
C103	C	0.934704	-0.651679	-0.184689
C104	C	1.434704	-0.151679	0.315311
C105	C	1.041838	-0.651121	-0.185445
C106	C	1.541838	-0.151121	0.314555
C107	C	1.106216	-0.701435	-0.110382
C108	C	1.606216	-0.201435	0.389618
H109	H	0.914739	-0.705689	-0.202319
H110	H	1.414739	-0.205689	0.297681
H111	H	0.925678	-0.632167	-0.115618
H112	H	1.425678	-0.132167	0.384382
H113	H	1.050859	-0.670636	-0.254502
H114	H	1.550859	-0.170636	0.245498
H115	H	1.061836	-0.597124	-0.167804
H116	H	1.561836	-0.097124	0.332196
H117	H	1.097190	-0.681923	-0.041310
H118	H	1.597190	-0.181923	0.458690
H119	H	1.086241	-0.755441	-0.128019
H120	H	1.586241	-0.255441	0.371981
H121	H	1.178914	-0.701057	-0.110878
H122	H	1.678914	-0.201057	0.389122
H123	H	1.581050	-0.488300	-0.870091
H124	H	2.081050	0.011700	-0.370091
H125	H	1.358647	-0.638057	-0.763789
H126	H	1.858647	-0.138057	-0.263789
