data_functionalizedCrystal
_audit_creation_method	'MofGen! by Chris Wilmer'
_symmetry_space_group_name_H-M	'P1'
_symmetry_Int_Tables_number	1
_symmetry_cell_setting	triclinic
loop_
_symmetry_equiv_pos_as_xyz
  x,y,z
_cell_length_a	16.992695
_cell_length_b	9.065218
_cell_length_c	7.540329
_cell_angle_alpha	90.003038
_cell_angle_beta	89.996072
_cell_angle_gamma	92.157946
loop_
_atom_site_label
_atom_site_type_symbol
_atom_site_fract_x
_atom_site_fract_y
_atom_site_fract_z
O1	O	0.115065	-1.971074	-0.147490
O2	O	0.124504	-1.542664	-0.147492
O3	O	0.005630	-1.755152	-0.147477
O4	O	0.233939	-1.758586	-0.147505
O5	O	0.005628	-1.755138	0.147488
O6	O	0.124502	-1.542651	0.147473
O7	O	0.115064	-1.971060	0.147476
Cu8	Cu	0.119783	-1.756854	0.174407
Cu9	Cu	0.119785	-1.756870	-0.174424
O10	O	0.233938	-1.758573	0.147460
C11	C	0.123596	-1.487587	-0.000010
C12	C	0.120884	-1.323492	-0.000011
C13	C	-0.023615	-1.750726	0.000005
C14	C	-0.110753	-1.737542	0.000005
C15	C	0.115972	-2.026138	-0.000011
C16	C	0.118684	-2.190232	-0.000022
C17	C	-0.160090	-1.864748	0.000008
C18	C	-0.241964	-1.852352	-0.000009
C19	C	-0.274500	-1.712748	-0.000016
C20	C	-0.225157	-1.585533	-0.000024
C21	C	-0.143284	-1.597931	-0.000020
C22	C	-0.518463	-1.661364	-0.000041
C23	C	-0.600343	-1.648976	-0.000040
C24	C	-0.617144	-1.915797	-0.000028
C25	C	-0.535269	-1.928182	-0.000013
C26	C	-0.485933	-1.800967	-0.000031
N27	N	-0.358189	-1.700074	-0.000028
N28	N	-0.402245	-1.813642	-0.000032
C29	C	0.263183	-1.762998	-0.000026
C30	C	0.350320	-1.776182	-0.000037
N31	N	0.119781	-1.756853	0.419755
N32	N	0.119780	-1.756882	-0.419772
H33	H	-0.133606	-1.978428	0.000024
N34	N	-0.635434	-1.498394	-0.000065
H35	H	-0.694787	-1.509850	-0.000056
H36	H	-0.617457	-1.442291	0.109275
H37	H	-0.282132	-1.955937	-0.000003
H38	H	-0.478303	-1.557776	-0.000055
N39	N	-0.260242	-1.434955	-0.000019
H40	H	-0.242318	-1.378793	-0.109363
H41	H	-0.319588	-1.446521	0.000055
N42	N	-0.500181	-2.078757	-0.000066
H43	H	-0.440828	-2.067308	-0.000074
H44	H	-0.518160	-2.134866	0.109268
H45	H	-0.657322	-2.019368	-0.000018
H46	H	-0.103114	-1.494345	-0.000023
