data_functionalizedCrystal
_audit_creation_method	'MofGen! by Chris Wilmer'
_symmetry_space_group_name_H-M	'P1'
_symmetry_Int_Tables_number	1
_symmetry_cell_setting	triclinic
loop_
_symmetry_equiv_pos_as_xyz
  x,y,z
_cell_length_a	22.610064
_cell_length_b	23.532407
_cell_length_c	23.532407
_cell_angle_alpha	82.848678
_cell_angle_beta	89.981742
_cell_angle_gamma	90.003678
loop_
_atom_site_label
_atom_site_type_symbol
_atom_site_fract_x
_atom_site_fract_y
_atom_site_fract_z
O1	O	0.049117	-0.755256	-0.069142
O2	O	0.049135	-0.589393	-0.079146
O3	O	0.049114	-0.677326	0.008788
O4	O	0.049137	-0.667323	-0.157076
O5	O	-0.049255	-0.677325	0.008806
O6	O	-0.049234	-0.589392	-0.079128
O7	O	-0.049252	-0.755255	-0.069124
Zn8	Zn	-0.064862	-0.672323	-0.074123
Zn9	Zn	0.064744	-0.672325	-0.074147
O10	O	-0.049232	-0.667322	-0.157058
C11	C	-0.000048	-0.568176	-0.078882
C12	C	-0.000041	-0.504959	-0.078116
N13	N	-0.153314	-0.672327	-0.074106
N14	N	0.153196	-0.672326	-0.074159
C15	C	0.438041	-0.706606	-0.108573
C16	C	0.376122	-0.706606	-0.108577
O17	O	0.344100	-0.735764	-0.137852
N18	N	0.345149	-0.672335	-0.074141
C19	C	0.376099	-0.638065	-0.039695
O20	O	0.344069	-0.608915	-0.010405
C21	C	0.438018	-0.638068	-0.039689
C22	C	0.468987	-0.672338	-0.074131
C23	C	0.469011	-0.740873	-0.143012
C24	C	0.530927	-0.740872	-0.143009
C25	C	0.561873	-0.706603	-0.108567
C26	C	0.530903	-0.672336	-0.074128
C27	C	0.468967	-0.603802	-0.005240
C28	C	0.530890	-0.603809	-0.005237
C29	C	0.561860	-0.638078	-0.039679
C30	C	0.623765	-0.638067	-0.039683
N31	N	0.654738	-0.672338	-0.074119
C32	C	0.623791	-0.706607	-0.108561
C33	C	0.246066	-0.638062	-0.039710
C34	C	0.184148	-0.638055	-0.039719
C35	C	0.184175	-0.706597	-0.108600
C36	C	0.246093	-0.706600	-0.108594
C37	C	0.277038	-0.672333	-0.074146
C38	C	0.753819	-0.706601	-0.108553
C39	C	0.815740	-0.706595	-0.108548
C40	C	0.815708	-0.638056	-0.039665
C41	C	0.753792	-0.638059	-0.039672
C42	C	0.722849	-0.672336	-0.074117
O43	O	0.655825	-0.608926	-0.010421
O44	O	0.655829	-0.735758	-0.137841
C45	C	-0.000072	-0.677071	0.030013
C46	C	-0.000076	-0.676305	0.093230
C47	C	-0.000069	-0.776472	-0.069388
C48	C	-0.000071	-0.839689	-0.070154
C49	C	-0.000061	-0.105856	-0.125350
C50	C	-0.000065	-0.046456	-0.124638
O51	O	-0.000081	-0.009711	-0.168424
N52	N	-0.000071	-0.023830	-0.072362
C53	C	-0.000080	-0.060607	-0.020794
O54	O	-0.000086	-0.035908	0.023737
C55	C	-0.000080	-0.120006	-0.021506
C56	C	-0.000068	-0.142629	-0.073785
C57	C	-0.000050	-0.128479	-0.177625
C58	C	-0.000045	-0.187876	-0.178336
C59	C	-0.000052	-0.224649	-0.126772
C60	C	-0.000063	-0.202025	-0.074496
C61	C	-0.000093	-0.156783	0.030062
C62	C	-0.000094	-0.216185	0.029345
C63	C	-0.000082	-0.238808	-0.022934
C64	C	-0.000065	-0.298194	-0.023643
N65	N	-0.000059	-0.320820	-0.075920
C66	C	-0.000052	-0.284048	-0.127484
C67	C	-0.000080	0.064135	-0.019302
C68	C	-0.000075	0.123533	-0.018589
C69	C	-0.000061	0.137680	-0.122434
C70	C	-0.000062	0.078281	-0.123146
C71	C	-0.000074	0.041509	-0.071578
C72	C	-0.000042	-0.408784	-0.128974
C73	C	-0.000034	-0.468186	-0.129680
C74	C	-0.000051	-0.482329	-0.025836
C75	C	-0.000055	-0.422932	-0.025129
C76	C	-0.000052	-0.386160	-0.076702
O77	O	-0.000052	-0.334974	0.020119
O78	O	-0.000054	-0.308755	-0.172007
C79	C	-0.000045	-0.667577	-0.178283
C80	C	-0.000036	-0.668343	-0.241500
C81	C	-0.000049	-0.723539	0.492333
C82	C	-0.000044	-0.722827	0.551733
O83	O	-0.000027	-0.766613	0.588478
N84	N	-0.000039	-0.670551	0.574359
C85	C	-0.000032	-0.618983	0.537582
O86	O	-0.000027	-0.574452	0.562281
C87	C	-0.000033	-0.619695	0.478182
C88	C	-0.000044	-0.671974	0.455560
C89	C	-0.000060	-0.775814	0.469710
C90	C	-0.000065	-0.776525	0.410313
C91	C	-0.000060	-0.724961	0.373540
C92	C	-0.000050	-0.672685	0.396164
C93	C	-0.000022	-0.568127	0.441406
C94	C	-0.000021	-0.568844	0.382004
C95	C	-0.000033	-0.621123	0.359381
C96	C	-0.000050	-0.621832	0.299995
N97	N	-0.000056	-0.674109	0.277369
C98	C	-0.000061	-0.725673	0.314141
C99	C	-0.000031	-0.617491	0.662324
C100	C	-0.000034	-0.616778	0.721722
C101	C	-0.000045	-0.720623	0.735869
C102	C	-0.000046	-0.721335	0.676470
C103	C	-0.000036	-0.669767	0.639698
C104	C	-0.000073	-0.727163	0.189405
C105	C	-0.000081	-0.727869	0.130003
C106	C	-0.000067	-0.624025	0.115860
C107	C	-0.000062	-0.623318	0.175257
C108	C	-0.000063	-0.674891	0.212029
O109	O	-0.000065	-0.578070	0.263215
O110	O	-0.000058	-0.770196	0.289434
H111	H	0.840953	-0.734501	-0.136598
Br112	Br	-0.000033	-0.545825	0.752416
Br113	Br	-0.000097	-0.798825	0.099305
Br114	Br	0.288056	-0.591545	0.007039
H115	H	-0.000055	0.059867	-0.165717
H116	H	-0.000065	-0.582043	0.085909
H117	H	-0.000041	-0.378852	-0.170970
Br118	Br	-0.000062	-0.792288	0.645775
Br119	Br	0.711834	-0.753121	-0.155300
Br120	Br	0.142126	-0.591534	0.007015
H121	H	0.728575	-0.610147	-0.011633
Br122	Br	-0.000074	-0.797156	0.239299
Br123	Br	0.288117	-0.753112	-0.155337
H124	H	0.556137	-0.768780	-0.171053
H125	H	-0.000035	-0.206289	-0.220908
H126	H	0.556082	-0.575904	0.022816
H127	H	-0.000013	-0.526850	0.352066
Br128	Br	0.857718	-0.591549	0.007073
H129	H	-0.000024	-0.486602	-0.172255
Br130	Br	-0.000064	-0.847480	0.379621
H131	H	0.443821	-0.768781	-0.171059
Br132	Br	-0.000022	-0.547499	0.612424
H133	H	-0.000103	-0.138375	0.072634
Br134	Br	0.142164	-0.753106	-0.155342
H135	H	0.443762	-0.575897	0.022807
H136	H	-0.000046	-0.098544	-0.219617
Br137	Br	-0.000054	0.187598	-0.192415
H138	H	-0.000069	-0.580748	0.193677
Br139	Br	-0.000074	0.154227	0.052364
H140	H	-0.000056	-0.404512	0.017441
H141	H	-0.000084	0.034198	0.022693
H142	H	-0.000104	-0.246123	0.071339
H143	H	-0.000061	-0.817806	0.499645
H144	H	-0.000047	-0.762610	0.765821
H145	H	-0.000054	-0.512280	0.016146
Br146	Br	-0.000004	-0.497171	0.472092
