data_functionalizedCrystal
_audit_creation_method	'MofGen! by Chris Wilmer'
_symmetry_space_group_name_H-M	'P1'
_symmetry_Int_Tables_number	1
_symmetry_cell_setting	triclinic
loop_
_symmetry_equiv_pos_as_xyz
  x,y,z
_cell_length_a	16.120490
_cell_length_b	29.839131
_cell_length_c	16.120297
_cell_angle_alpha	87.128123
_cell_angle_beta	89.870317
_cell_angle_gamma	87.134072
loop_
_atom_site_label
_atom_site_type_symbol
_atom_site_fract_x
_atom_site_fract_y
_atom_site_fract_z
Zn1	Zn	1.247313	-0.227637	0.534529
Zn2	Zn	1.747313	0.272363	1.034529
Zn3	Zn	1.254222	-0.299154	0.395470
Zn4	Zn	1.754222	0.200846	0.895470
Zn5	Zn	1.115307	-0.220041	0.388450
Zn6	Zn	1.615307	0.279959	0.888450
Zn7	Zn	1.108178	-0.298736	0.527442
Zn8	Zn	1.608178	0.201264	1.027442
O9	O	1.181255	-0.261392	0.461473
O10	O	1.681255	0.238608	0.961473
O11	O	1.364594	-0.240477	0.521986
O12	O	1.864594	0.259523	1.021986
O13	O	1.241669	-0.285655	0.278173
O14	O	1.741669	0.214345	0.778173
O15	O	1.132910	-0.158185	0.407856
O16	O	1.632910	0.341815	0.907856
O17	O	1.369670	-0.293020	0.419819
O18	O	1.869670	0.206980	0.919819
O19	O	1.229895	-0.163765	0.515180
O20	O	1.729895	0.336235	1.015180
O21	O	1.139609	-0.227532	0.273016
O22	O	1.639609	0.272468	0.773016
O23	O	0.997996	-0.227127	0.400985
O24	O	1.497996	0.272873	0.900985
O25	O	1.120759	-0.292308	0.644748
O26	O	1.620759	0.207692	1.144748
O27	O	0.992758	-0.284943	0.503102
O28	O	1.492758	0.215057	1.003102
O29	O	1.222981	-0.240072	0.649955
O30	O	1.722981	0.259928	1.149955
O31	O	1.234756	-0.361962	0.412948
O32	O	1.734756	0.138038	0.912948
O33	O	1.127458	-0.361655	0.509908
O34	O	1.627458	0.138345	1.009908
C35	C	0.965205	-0.255166	0.450513
C36	C	1.465205	0.244834	0.950513
C37	C	0.872777	-0.252514	0.445844
C38	C	1.372777	0.247486	0.945844
C39	C	0.659802	-0.275146	0.485693
C40	C	1.159802	0.224854	0.985693
C41	C	0.703555	-0.247675	0.437318
C42	C	1.203555	0.252325	0.937318
C43	C	0.797719	-0.250368	0.442063
C44	C	1.297719	0.249632	0.942063
C45	C	0.565630	-0.272454	0.480949
C46	C	1.065630	0.227546	0.980949
C47	C	1.181105	-0.378109	0.461440
C48	C	1.681105	0.121891	0.961440
C49	C	1.181115	-0.428045	0.461457
C50	C	1.681115	0.071955	0.961457
C51	C	1.125419	-0.784493	0.511958
C52	C	1.625419	-0.284493	1.011958
C53	C	1.125311	-0.596816	0.511926
C54	C	1.625311	-0.096816	1.011926
O55	O	1.077775	-0.572427	0.554839
O56	O	1.577775	-0.072427	1.054839
N57	N	1.181202	-0.573493	0.461486
N58	N	1.681202	-0.073493	0.961486
C59	C	1.237128	-0.597092	0.411055
C60	C	1.737128	-0.097092	0.911055
O61	O	1.284671	-0.572949	0.368158
O62	O	1.784671	-0.072949	0.868158
C63	C	1.237240	-0.784769	0.411091
C64	C	1.737240	-0.284769	0.911091
C65	C	1.181339	-0.808089	0.461528
C66	C	1.681339	-0.308089	0.961528
C67	C	1.069524	-0.807813	0.562392
C68	C	1.569524	-0.307813	1.062392
C69	C	1.069548	-0.854729	0.562396
C70	C	1.569548	-0.354729	1.062396
C71	C	1.125469	-0.878325	0.511966
C72	C	1.625469	-0.378325	1.011966
C73	C	1.181364	-0.855005	0.461532
C74	C	1.681364	-0.355005	0.961532
C75	C	1.293170	-0.808367	0.360665
C76	C	1.793170	-0.308367	0.860665
C77	C	1.293194	-0.855290	0.360680
C78	C	1.793194	-0.355290	0.860680
C79	C	1.237293	-0.878610	0.411117
C80	C	1.737293	-0.378610	0.911117
C81	C	1.237309	-0.925517	0.411107
C82	C	1.737309	-0.425517	0.911107
N83	N	1.181418	-0.948840	0.461547
N84	N	1.681418	-0.448840	0.961547
C85	C	1.125497	-0.925244	0.511977
C86	C	1.625497	-0.425244	1.011977
C87	C	1.237065	-0.498560	0.411038
C88	C	1.737065	0.001440	0.911038
C89	C	1.237036	-0.451641	0.411028
C90	C	1.737036	0.048359	0.911028
C91	C	1.125219	-0.451367	0.511901
C92	C	1.625219	0.048633	1.011901
C93	C	1.125244	-0.498287	0.511906
C94	C	1.625244	0.001713	1.011906
C95	C	1.181173	-0.521882	0.461478
C96	C	1.681173	-0.021882	0.961478
C97	C	1.125553	-1.023771	0.511981
C98	C	1.625553	-0.523771	1.011981
C99	C	1.125580	-1.070692	0.511978
C100	C	1.625580	-0.570692	1.011978
C101	C	1.237400	-1.070961	0.411108
C102	C	1.737400	-0.570961	0.911108
C103	C	1.237370	-1.024045	0.411108
C104	C	1.737370	-0.524045	0.911108
C105	C	1.181443	-1.000451	0.461550
C106	C	1.681443	-0.500451	0.961550
O107	O	1.284826	-0.949935	0.368224
O108	O	1.784826	-0.449935	0.868224
O109	O	1.077974	-0.949396	0.554880
O110	O	1.577974	-0.449396	1.054880
C111	C	1.125394	-0.737576	0.511954
C112	C	1.625394	-0.237576	1.011954
C113	C	1.181290	-0.714256	0.461520
C114	C	1.681290	-0.214256	0.961520
C115	C	1.237210	-0.737852	0.411091
C116	C	1.737210	-0.237852	0.911091
C117	C	1.181261	-0.667337	0.461510
C118	C	1.681261	-0.167337	0.961510
C119	C	1.125341	-0.643741	0.511940
C120	C	1.625341	-0.143741	1.011940
C121	C	1.069450	-0.667064	0.562380
C122	C	1.569450	-0.167064	1.062380
C123	C	1.069474	-0.713980	0.562384
C124	C	1.569474	-0.213980	1.062384
C125	C	1.293102	-0.714529	0.360651
C126	C	1.793102	-0.214529	0.860651
C127	C	1.293072	-0.667613	0.360650
C128	C	1.793072	-0.167613	0.860650
C129	C	1.237152	-0.644017	0.411080
C130	C	1.737152	-0.144017	0.911080
C131	C	1.398148	-0.267643	0.472476
C132	C	1.898148	0.232357	0.972476
C133	C	1.490575	-0.270306	0.477165
C134	C	1.990575	0.229694	0.977165
C135	C	1.170304	-0.266990	0.678367
C136	C	1.670304	0.233010	1.178367
C137	C	1.165638	-0.269376	0.770795
C138	C	1.665638	0.230624	1.270795
C139	C	1.181427	-0.144220	0.461526
C140	C	1.681427	0.355780	0.961526
C141	C	1.181500	-0.094288	0.461548
C142	C	1.681500	0.405712	0.961548
C143	C	1.192211	-0.255784	0.245425
C144	C	1.692211	0.244216	0.745425
C145	C	1.197038	-0.253276	0.153006
C146	C	1.697038	0.246724	0.653006
C147	C	1.157088	-0.273721	0.940019
C148	C	1.657088	0.226279	1.440019
C149	C	1.205586	-0.248932	0.983787
C150	C	1.705586	0.251068	1.483787
C151	C	1.200829	-0.251350	1.077949
C152	C	1.700829	0.248650	1.577949
C153	C	1.161844	-0.271304	0.845848
C154	C	1.661844	0.228696	1.345848
H155	H	0.693061	-0.300685	0.530667
H156	H	1.193061	0.199315	1.030667
H157	H	0.670295	-0.222135	0.392340
H158	H	1.170295	0.277865	0.892340
H159	H	1.080057	-1.089677	0.553051
H160	H	1.580057	-0.589677	1.053051
H161	H	1.079729	-0.517271	0.552981
H162	H	1.579729	-0.017271	1.052981
H163	H	1.250679	-0.225894	0.950538
H164	H	1.750679	0.274106	1.450538
H165	H	1.111998	-0.296758	0.973265
H166	H	1.611998	0.203242	1.473265
C167	C	1.064031	-0.997825	0.567470
C168	C	1.564031	-0.497825	1.067470
N169	N	1.017690	-0.978283	0.609262
N170	N	1.517690	-0.478283	1.109262
H171	H	1.023987	-0.788605	0.603461
H172	H	1.523987	-0.288605	1.103461
C173	C	1.008058	-0.880375	0.617887
C174	C	1.508058	-0.380375	1.117887
N175	N	0.961742	-0.899689	0.659689
N176	N	1.461742	-0.399689	1.159689
H177	H	1.079685	-0.432148	0.552961
H178	H	1.579685	0.067852	1.052961
H179	H	1.282547	-0.432656	0.369948
H180	H	1.782547	0.067344	0.869948
H181	H	1.338690	-0.789387	0.319595
H182	H	1.838690	-0.289387	0.819595
C183	C	1.298588	-0.524508	0.355552
C184	C	1.798588	-0.024508	0.855552
N185	N	1.344924	-0.544051	0.313754
N186	N	1.844924	-0.044051	0.813754
C187	C	1.354719	-0.881242	0.305201
C188	C	1.854719	-0.381242	0.805201
N189	N	1.401058	-0.900788	0.263411
N190	N	1.901058	-0.400788	0.763411
H191	H	1.282881	-1.005057	0.370028
H192	H	1.782881	-0.505057	0.870028
H193	H	1.023955	-0.732963	0.603456
H194	H	1.523955	-0.232963	1.103456
C195	C	1.298906	-1.096926	0.355635
C196	C	1.798906	-0.596926	0.855635
N197	N	1.345235	-1.116484	0.313854
N198	N	1.845235	-0.616484	0.813854
H199	H	1.338592	-0.648629	0.319571
H200	H	1.838592	-0.148629	0.819571
C201	C	1.007939	-0.641099	0.617854
C202	C	1.507939	-0.141099	1.117854
N203	N	0.961615	-0.621541	0.659640
N204	N	1.461615	-0.121541	1.159640
H205	H	1.338641	-0.733737	0.319585
H206	H	1.838641	-0.233737	0.819585
