data_functionalizedCrystal
_audit_creation_method	'MofGen! by Chris Wilmer'
_symmetry_space_group_name_H-M	'P1'
_symmetry_Int_Tables_number	1
_symmetry_cell_setting	triclinic
loop_
_symmetry_equiv_pos_as_xyz
  x,y,z
_cell_length_a	6.817900
_cell_length_b	11.102183
_cell_length_c	14.858572
_cell_angle_alpha	93.467131
_cell_angle_beta	104.524003
_cell_angle_gamma	108.603876
loop_
_atom_site_label
_atom_site_type_symbol
_atom_site_fract_x
_atom_site_fract_y
_atom_site_fract_z
V1	V	-4.064537	-0.176638	-0.289959
O2	O	-4.024475	0.007665	-0.284441
O3	O	-4.041625	-0.349453	-0.287974
O4	O	-4.020827	-0.174282	-0.416420
O5	O	-4.045416	-0.168718	-0.155105
V6	V	-4.544254	-0.154551	-0.273829
O7	O	-4.334143	-0.225089	-0.325340
O8	O	-4.724846	-0.106100	-0.238448
O9	O	-4.343960	0.018263	-0.275814
O10	O	-4.701713	-0.338854	-0.279347
O11	O	-4.680771	-0.162472	-0.408683
O12	O	-4.364757	-0.156907	-0.147368
C13	C	-3.892674	-0.391570	-0.283399
C14	C	-3.955259	-0.532850	-0.282619
C15	C	-3.862503	-0.496103	-0.112284
C16	C	-3.845524	-0.544102	-0.026753
C17	C	-3.904335	-0.676848	-0.026025
C18	C	-3.980138	-0.761600	-0.110838
C19	C	-3.997117	-0.713601	-0.196369
C20	C	-3.938293	-0.580849	-0.197087
C21	C	-4.089886	-0.750348	-0.366703
C22	C	-4.031062	-0.617602	-0.367432
C23	C	-4.165689	-0.835100	-0.451515
C24	C	-4.182655	-0.787100	-0.537048
C25	C	-4.123836	-0.654346	-0.537772
C26	C	-4.048041	-0.569603	-0.452963
C27	C	-3.866143	-0.168121	-0.447244
C28	C	-3.911858	-0.167338	-0.550627
C29	C	-4.079176	-0.164478	-0.929195
C30	C	-4.032614	-0.165274	-0.823866
C31	C	-3.995519	-0.165909	-0.739915
C32	C	-3.948954	-0.166703	-0.634578
C33	C	-4.156253	0.060374	-0.280386
C34	C	-4.072907	0.201653	-0.281172
C35	C	-4.182783	-0.163072	-0.116539
C36	C	-4.116306	-0.163849	-0.013155
H37	H	-4.000112	-0.461510	-0.453543
O38	O	-3.805370	-0.367121	-0.112824
C39	C	-3.734774	-0.302609	-0.019630
H40	H	-3.806036	-0.370954	0.027410
H41	H	-3.550988	-0.268571	0.006466
C42	C	-3.722133	-0.101856	-0.074397
C43	C	-3.809674	-0.185795	-0.016624
H44	H	-3.768324	-0.029796	-0.072542
H45	H	-3.769687	-0.145317	-0.137184
H46	H	-3.568983	-0.073504	-0.052644
H47	H	-3.962819	-0.214157	-0.038384
H48	H	-3.762147	-0.142336	0.046160
O49	O	-3.772272	-0.461834	0.055643
C50	C	-3.932527	-0.489272	0.103237
H51	H	-4.097524	-0.540827	0.050524
H52	H	-3.898378	-0.553470	0.157763
C53	C	-3.728177	-0.299560	0.217519
C54	C	-3.930832	-0.362871	0.152775
H55	H	-3.727127	-0.221592	0.248080
H56	H	-3.620205	-0.281076	0.185457
H57	H	-3.699742	-0.353071	0.262948
H58	H	-3.959251	-0.309366	0.107340
H59	H	-4.038809	-0.381343	0.184831
H60	H	-4.028046	-0.869688	-0.110238
H61	H	-3.890514	-0.715927	0.043621
H62	H	-4.213586	-0.943188	-0.450917
H63	H	-4.244386	-0.856115	-0.606095
O64	O	-4.140379	-0.607935	-0.620939
C65	C	-4.219951	-0.711210	-0.695634
H66	H	-4.184632	-0.798199	-0.668538
H67	H	-4.401754	-0.736678	-0.725816
C68	C	-4.152376	-0.565270	-0.806334
C69	C	-4.108979	-0.672108	-0.773056
H70	H	-4.083933	-0.541150	-0.854094
H71	H	-4.098774	-0.495691	-0.756012
H72	H	-4.303880	-0.586508	-0.831480
H73	H	-3.957480	-0.650864	-0.747901
H74	H	-4.162553	-0.741683	-0.823376
