data_functionalizedCrystal
_audit_creation_method	'MofGen! by Chris Wilmer'
_symmetry_space_group_name_H-M	'P1'
_symmetry_Int_Tables_number	1
_symmetry_cell_setting	triclinic
loop_
_symmetry_equiv_pos_as_xyz
  x,y,z
_cell_length_a	14.853567
_cell_length_b	16.109301
_cell_length_c	15.186229
_cell_angle_alpha	90.005167
_cell_angle_beta	90.000386
_cell_angle_gamma	83.548206
loop_
_atom_site_label
_atom_site_type_symbol
_atom_site_fract_x
_atom_site_fract_y
_atom_site_fract_z
O1	O	-1.196184	-0.108546	-0.073171
O2	O	-0.696184	0.391454	0.426829
O3	O	-0.933703	-0.121477	-0.073186
O4	O	-0.433703	0.378523	0.426814
O5	O	-1.072154	0.006009	-0.073169
O6	O	-0.572154	0.506009	0.426831
O7	O	-1.057733	-0.236033	-0.073188
O8	O	-0.557733	0.263967	0.426812
O9	O	-1.072145	0.006011	0.073288
O10	O	-0.572145	0.506011	0.573288
O11	O	-0.933694	-0.121475	0.073271
O12	O	-0.433694	0.378525	0.573271
O13	O	-1.196175	-0.108545	0.073287
O14	O	-0.696175	0.391455	0.573287
Zn15	Zn	-1.064933	-0.115010	0.096532
Zn16	Zn	-0.564933	0.384990	0.596532
Zn17	Zn	-1.064945	-0.115012	-0.096432
Zn18	Zn	-0.564945	0.384988	0.403568
O19	O	-1.057724	-0.236031	0.073269
O20	O	-0.557724	0.263969	0.573269
C21	C	-1.071566	0.036986	0.000060
C22	C	-0.571566	0.536986	0.500060
C23	C	-1.069814	0.129284	0.000061
C24	C	-0.569814	0.629284	0.500061
C25	C	-0.900111	-0.120890	0.000041
C26	C	-0.400111	0.379110	0.500041
C27	C	-0.800030	-0.119135	0.000035
C28	C	-0.300030	0.380865	0.500035
C29	C	-1.229767	-0.109131	0.000058
C30	C	-0.729767	0.390869	0.500058
C31	C	-1.329848	-0.110887	0.000058
C32	C	-0.829848	0.389113	0.500058
C33	C	-0.387634	-0.035983	0.000061
C34	C	0.112366	0.464017	0.500061
C35	C	-0.366102	-0.187440	0.000049
C36	C	0.133898	0.312560	0.500049
C37	C	-0.460133	-0.189090	0.000046
C38	C	0.039867	0.310910	0.500046
C39	C	-0.517919	-0.114187	0.000049
C40	C	-0.017919	0.385813	0.500049
C41	C	-0.481674	-0.037632	0.000056
C42	C	0.018326	0.462368	0.500056
C43	C	-0.496386	-0.265644	0.000030
C44	C	0.003614	0.234356	0.500030
C45	C	-0.590422	-0.267298	0.000026
C46	C	-0.090422	0.232702	0.500026
C47	C	-0.648210	-0.192393	0.000036
C48	C	-0.148210	0.307607	0.500036
C49	C	-0.611959	-0.115835	0.000044
C50	C	-0.111959	0.384165	0.500044
C51	C	-0.669745	-0.040931	0.000047
C52	C	-0.169745	0.459069	0.500047
C53	C	-0.633496	0.035628	0.000061
C54	C	-0.133496	0.535628	0.500061
C55	C	-0.539461	0.037273	0.000065
C56	C	-0.039461	0.537273	0.500065
C57	C	-0.742245	-0.194038	0.000031
C58	C	-0.242245	0.305962	0.500031
C59	C	-0.763785	-0.042580	0.000041
C60	C	-0.263785	0.457420	0.500041
C61	C	-1.058313	-0.267007	0.000038
C62	C	-0.558313	0.232993	0.500038
C63	C	-1.060064	-0.359305	0.000031
C64	C	-0.560064	0.140695	0.500031
N65	N	-1.064931	-0.115007	0.228225
N66	N	-0.564931	0.384993	0.728225
C67	C	-1.147896	0.351446	0.000052
C68	C	-0.647896	0.851446	0.500052
C69	C	-1.146243	0.438169	0.000044
C70	C	-0.646243	0.938169	0.500044
C71	C	-0.981976	0.418525	0.000038
C72	C	-0.481976	0.918525	0.500038
C73	C	-0.983629	0.331804	0.000039
C74	C	-0.483629	0.831804	0.500039
C75	C	-1.066592	0.298267	0.000051
C76	C	-0.566592	0.798267	0.500051
C77	C	-1.063286	0.471711	0.000042
C78	C	-0.563286	0.971711	0.500042
C79	C	-1.061494	0.565740	0.000034
C80	C	-0.561494	1.065740	0.500034
C81	C	-1.068385	0.204233	0.000057
C82	C	-0.568385	0.704233	0.500057
N83	N	-1.064954	-0.115008	-0.228124
N84	N	-0.564954	0.384992	0.271876
C85	C	-1.126258	-0.058576	0.453955
C86	C	-0.626258	0.441424	0.953955
C87	C	-1.126261	-0.058574	0.546145
C88	C	-0.626261	0.441426	1.046145
C89	C	-1.003620	-0.171442	0.546139
C90	C	-0.503620	0.328558	1.046139
C91	C	-1.003614	-0.171439	0.453951
C92	C	-0.503614	0.328561	0.953951
C93	C	-1.064938	-0.115007	0.407861
C94	C	-0.564938	0.384993	0.907861
C95	C	-1.064947	-0.115008	0.592239
C96	C	-0.564947	0.384992	1.092239
C97	C	-1.064950	-0.115006	0.692195
C98	C	-0.564950	0.384994	1.192195
C99	C	-1.064934	-0.115008	0.307899
C100	C	-0.564934	0.384992	0.807899
H101	H	-0.680557	0.096614	0.000058
H102	H	-0.180557	0.596614	0.500058
N103	N	-0.895938	0.274433	0.000038
N104	N	-0.395938	0.774433	0.500038
H105	H	-0.859742	0.285224	-0.054254
H106	H	-0.359742	0.785224	0.445746
H107	H	-0.859811	0.285257	0.054365
H108	H	-0.359811	0.785257	0.554365
H109	H	-1.176191	-0.012624	0.416431
H110	H	-0.676191	0.487376	0.916431
N111	N	-0.937478	-0.232309	0.404223
N112	N	-0.437478	0.267691	0.904223
H113	H	-0.897574	-0.200466	0.365983
H114	H	-0.397574	0.299534	0.865983
H115	H	-0.898695	-0.268051	0.447459
H116	H	-0.398695	0.231949	0.947459
N117	N	-0.826101	0.038216	0.000045
N118	N	-0.326101	0.538216	0.500045
H119	H	-0.865591	0.040911	-0.054250
H120	H	-0.365591	0.540911	0.445750
H121	H	-0.865542	0.040860	0.054369
H122	H	-0.365542	0.540860	0.554369
N123	N	-0.500365	0.119841	0.000087
N124	N	-0.000365	0.619841	0.500087
H125	H	-0.432026	0.109517	0.000088
H126	H	0.067974	0.609517	0.500088
H127	H	-0.521500	0.152626	-0.054202
H128	H	-0.021500	0.652626	0.445798
H129	H	-1.215449	0.324144	0.000059
H130	H	-0.715449	0.824144	0.500059
H131	H	-1.176192	-0.012621	0.583672
H132	H	-0.676192	0.487379	1.083672
H133	H	-1.212449	0.481464	0.000044
H134	H	-0.712449	0.981464	0.500044
H135	H	-0.619928	-0.329636	0.000015
H136	H	-0.119928	0.170364	0.500015
H137	H	-0.358115	0.026349	0.000076
H138	H	0.141885	0.526349	0.500076
H139	H	-0.319048	-0.248423	0.000038
H140	H	0.180952	0.251577	0.500038
H141	H	-0.771754	-0.256371	0.000022
H142	H	-0.271754	0.243629	0.500022
N143	N	-0.434065	-0.346429	0.000017
N144	N	0.065935	0.153571	0.500017
H145	H	-0.368994	-0.333766	0.000027
H146	H	0.131006	0.166234	0.500027
H147	H	-0.445802	-0.379789	0.054304
H148	H	0.054198	0.120211	0.554304
N149	N	-0.892498	0.454698	0.000030
N150	N	-0.392498	0.954698	0.500030
H151	H	-0.903786	0.517705	0.000033
H152	H	-0.403786	1.017705	0.500033
H153	H	-0.856922	0.435253	0.054323
H154	H	-0.356922	0.935253	0.554323
H155	H	-0.953693	-0.217389	0.583674
H156	H	-0.453693	0.282611	1.083674
