data_functionalizedCrystal
_audit_creation_method	'MofGen! by Chris Wilmer'
_symmetry_space_group_name_H-M	'P1'
_symmetry_Int_Tables_number	1
_symmetry_cell_setting	triclinic
loop_
_symmetry_equiv_pos_as_xyz
  x,y,z
_cell_length_a	18.760492
_cell_length_b	23.096457
_cell_length_c	18.760492
_cell_angle_alpha	60.001197
_cell_angle_beta	90.001150
_cell_angle_gamma	60.003024
loop_
_atom_site_label
_atom_site_type_symbol
_atom_site_fract_x
_atom_site_fract_y
_atom_site_fract_z
Zr1	Zr	0.686771	0.633687	-0.093506
O2	O	0.572965	0.754471	-0.207318
O3	O	0.721648	0.512905	-0.058620
O4	O	0.721660	0.633685	-0.207321
O5	O	0.572956	0.633691	0.058686
O6	O	0.838964	0.633682	-0.207320
O7	O	0.572953	0.633691	-0.058617
O8	O	0.838944	0.417627	0.058679
O9	O	0.572976	0.849746	-0.207314
O10	O	0.824078	0.562581	-0.043736
O11	O	0.736537	0.562584	0.043804
O12	O	0.736551	0.704788	-0.131273
O13	O	0.649009	0.704791	-0.043732
Zr14	Zr	0.873863	0.633683	0.093580
Zr15	Zr	0.873858	0.633682	-0.093504
Zr16	Zr	0.686775	0.633688	0.093578
Zr17	Zr	0.686789	0.785639	-0.093499
Zr18	Zr	0.873844	0.481731	0.093573
O19	O	0.838985	0.754465	0.058694
O20	O	0.838979	0.754464	-0.207315
O21	O	0.572971	0.754473	0.058691
O22	O	0.987668	0.512898	0.207392
O23	O	0.987663	0.512897	-0.058617
O24	O	0.721654	0.512906	0.207389
O25	O	0.987678	0.633679	-0.058612
O26	O	0.838974	0.633685	0.207395
O27	O	0.721669	0.633688	0.207394
O28	O	0.987680	0.633679	0.058691
O29	O	0.721686	0.849742	-0.207312
O30	O	0.838947	0.417628	0.207386
O31	O	0.987657	0.417624	0.207388
O32	O	0.987653	0.417623	0.058681
O33	O	0.572980	0.849747	-0.058607
O34	O	0.721690	0.849743	-0.058605
O35	O	0.824082	0.562582	0.131347
O36	O	0.911624	0.562579	0.043806
O37	O	0.824096	0.704786	-0.043730
O38	O	0.736555	0.704789	0.043810
C39	C	0.546298	0.633692	0.000034
C40	C	0.466875	0.633694	0.000033
C41	C	0.780293	0.443616	0.000029
C42	C	0.780285	0.379108	0.000026
C43	C	0.429562	0.633697	0.064658
C44	C	0.429562	0.633687	-0.064588
C45	C	0.354942	0.633684	-0.064589
C46	C	0.317629	0.633687	0.000036
C47	C	0.354936	0.633692	0.064661
C48	C	0.317635	0.633671	-0.129207
C49	C	0.243011	0.633668	-0.129210
C50	C	0.205693	0.633677	-0.064589
C51	C	0.243004	0.633683	0.000038
C52	C	0.205691	0.633686	0.064663
C53	C	0.242997	0.633697	0.129287
C54	C	0.317618	0.633701	0.129282
C55	C	0.131072	0.633673	-0.064584
C56	C	0.131065	0.633681	0.064666
C57	C	0.844912	0.296322	0.064644
C58	C	0.844918	0.235700	0.064652
C59	C	0.780304	0.257870	0.000029
C60	C	0.715666	0.340671	-0.064595
C61	C	0.715657	0.401290	-0.064596
N62	N	0.760753	0.201760	-0.076604
N63	N	0.760767	0.144171	-0.076599
C64	C	0.780327	0.075231	0.000030
N65	N	0.799888	0.066047	0.076659
N66	N	0.799878	0.123640	0.076654
C67	C	0.780306	0.192144	0.000024
C68	C	0.844963	-0.073293	0.064662
C69	C	0.844963	-0.133913	0.064671
C70	C	0.715715	-0.028939	-0.064582
C71	C	0.715712	0.031679	-0.064584
C72	C	0.780340	0.009497	0.000038
C73	C	1.014335	0.633678	0.000040
C74	C	1.093758	0.633676	0.000041
C75	C	0.780311	0.633684	-0.233976
C76	C	0.780310	0.633683	-0.313398
C77	C	0.780340	0.823754	0.000045
C78	C	0.780348	0.888262	0.000048
C79	C	0.825998	0.559450	-0.305016
C80	C	0.734626	0.707916	-0.396408
C81	C	0.734626	0.707918	-0.471031
C82	C	0.780314	0.633685	-0.462649
C83	C	0.826002	0.559450	-0.379644
C84	C	0.688947	0.782153	-0.554040
C85	C	0.688947	0.782158	-0.628669
C86	C	0.734630	0.707923	-0.620288
C87	C	0.780319	0.633685	-0.537277
C88	C	0.826007	0.559452	-0.528895
C89	C	0.871691	0.485212	-0.445885
C90	C	0.871686	0.485215	-0.371263
C91	C	0.734635	0.707920	-0.694910
C92	C	0.826011	0.559451	-0.603523
C93	C	0.780322	0.633686	0.234050
C94	C	0.780324	0.633687	0.313472
C95	C	1.014311	0.443609	0.000032
C96	C	1.093727	0.379099	0.000030
C97	C	0.780298	0.443617	0.234042
C98	C	0.780292	0.379110	0.313461
C99	C	1.014316	0.443611	0.234045
C100	C	1.093734	0.379101	0.313465
C101	C	0.546317	0.823759	-0.233971
C102	C	0.466899	0.888269	-0.313391
C103	C	0.546322	0.823761	0.000042
C104	C	0.466906	0.888271	0.000044
C105	C	0.780335	0.823753	-0.233968
C106	C	0.780341	0.888260	-0.313387
C107	C	1.085324	0.348806	-0.045675
C108	C	1.159936	0.288200	-0.045694
C109	C	1.242951	0.257885	-0.000003
C110	C	1.251352	0.288184	0.045703
C111	C	1.176741	0.348793	0.045717
C112	C	0.825987	0.348816	0.396461
C113	C	0.825978	0.288213	0.471091
C114	C	0.780278	0.257901	0.462719
C115	C	0.734578	0.288202	0.379710
C116	C	0.734582	0.348808	0.305082
C117	C	1.176733	0.348805	0.305066
C118	C	1.251361	0.288200	0.379683
C119	C	1.242989	0.257888	0.462697
C120	C	1.159981	0.288190	0.471094
C121	C	1.085355	0.348798	0.396478
C122	C	0.383900	0.918572	-0.304992
C123	C	0.309272	0.979196	-0.379609
C124	C	0.317645	1.009511	-0.462623
C125	C	0.400652	0.979206	-0.471020
C126	C	0.475279	0.918587	-0.396404
C127	C	0.475309	0.918571	0.045741
C128	C	0.400697	0.979193	0.045740
C129	C	0.317682	1.009510	0.000046
C130	C	0.309281	0.979208	-0.045657
C131	C	0.383892	0.918591	-0.045660
C132	C	0.826049	0.918552	-0.304987
C133	C	0.826072	0.979155	-0.379602
C134	C	0.780381	1.009469	-0.462617
C135	C	0.734672	0.979171	-0.471016
C136	C	0.734654	0.918565	-0.396401
H137	H	0.100687	0.633688	0.117288
C138	C	0.876247	0.477791	-0.213716
H139	H	0.903452	0.433583	-0.219416
H140	H	0.919490	0.474696	-0.182693
H141	H	0.836791	0.474710	-0.182716
C142	C	0.994061	0.382108	0.405727
H143	H	0.999771	0.355364	0.465856
H144	H	0.963039	0.439332	0.378523
H145	H	0.963055	0.372158	0.378525
H146	H	0.377067	0.893893	-0.237404
H147	H	0.651757	0.842589	-0.560856
H148	H	0.863195	0.263550	0.538673
C149	C	0.876343	1.012482	-0.370349
H150	H	0.903536	0.985756	-0.310220
H151	H	0.919596	1.002544	-0.397546
H152	H	0.836900	1.069710	-0.397559
C153	C	0.638689	0.863816	-0.719970
H154	H	0.611473	0.908025	-0.714273
H155	H	0.678130	0.866902	-0.750983
H156	H	0.595439	0.866902	-0.750979
H157	H	0.697375	0.373465	0.237502
H158	H	0.347998	0.633710	0.181897
C159	C	1.342669	0.254822	0.095977
H160	H	1.336997	0.281541	0.123203
H161	H	1.373657	0.197598	0.139205
H162	H	1.373686	0.264754	0.056535
C163	C	0.201947	0.633701	0.200369
H164	H	0.152162	0.633700	0.191109
H165	H	0.243404	0.586219	0.256158
H166	H	0.184931	0.681202	0.197678
C167	C	0.684357	0.885260	-0.405647
H168	H	0.690886	0.844822	-0.349325
H169	H	0.624247	0.928788	-0.436659
H170	H	0.706920	0.861611	-0.436656
C171	C	1.185995	0.382100	0.096007
H172	H	1.246123	0.355355	0.123222
H173	H	1.158794	0.439324	0.056583
H174	H	1.158793	0.372151	0.139260
C175	C	0.374643	0.885256	-0.095918
H176	H	0.430963	0.844814	-0.089384
H177	H	0.343626	0.861621	-0.073346
H178	H	0.343638	0.928773	-0.156039
H179	H	1.153078	0.263538	-0.082914
H180	H	0.780402	1.058819	-0.523366
H181	H	0.863256	0.893880	-0.237399
C182	C	0.994015	0.382146	-0.095941
H183	H	0.950774	0.422579	-0.089389
H184	H	0.987472	0.405795	-0.156059
H185	H	0.987466	0.338630	-0.073376
C186	C	0.684381	0.789568	-0.405630
H187	H	0.657179	0.833779	-0.465754
H188	H	0.641137	0.792662	-0.378421
H189	H	0.723839	0.792643	-0.378416
H190	H	0.863201	0.373489	0.403295
C191	C	0.470595	0.633706	0.135741
H192	H	0.520384	0.633705	0.126490
H193	H	0.429131	0.681194	0.133062
H194	H	0.487602	0.586212	0.191530
H195	H	0.780282	0.208552	0.523493
H196	H	0.697371	0.263513	0.372906
H197	H	1.303697	0.208533	-0.000020
C198	C	0.684408	1.012529	-0.562334
H199	H	0.690961	1.052969	-0.605562
H200	H	0.706955	0.969028	-0.568901
H201	H	0.624284	1.036190	-0.568883
H202	H	0.459949	0.633678	-0.117200
C203	C	0.644569	0.492359	-0.135683
H204	H	0.606089	0.496885	-0.174173
H205	H	0.612648	0.518189	-0.109139
H206	H	0.671120	0.518186	-0.167607
C207	C	0.358677	0.633671	-0.200289
H208	H	0.408454	0.633687	-0.191041
H209	H	0.375686	0.586181	-0.197610
H210	H	0.317210	0.681163	-0.256077
C211	C	0.201974	0.633666	-0.200299
H212	H	0.234881	0.633671	-0.238790
H213	H	0.202089	0.586180	-0.173757
H214	H	0.143632	0.681162	-0.232221
H215	H	0.241691	1.003861	-0.372755
H216	H	0.663104	-0.010887	-0.117199
H217	H	0.863212	0.499001	-0.596688
H218	H	0.897584	-0.091355	0.117285
H219	H	0.697444	0.768365	-0.762492
H220	H	0.100704	0.633658	-0.117196
C221	C	0.235551	1.076179	-0.544692
H222	H	0.184923	1.089873	-0.527793
H223	H	0.235535	1.123478	-0.578460
H224	H	0.235540	1.056303	-0.578446
C225	C	1.185955	0.382143	0.213758
H226	H	1.129628	0.422575	0.170514
H227	H	1.216961	0.405791	0.207216
H228	H	1.216961	0.338626	0.207212
H229	H	1.153177	0.263501	0.538694
C230	C	0.409851	1.012551	-0.562338
H231	H	0.353514	1.052985	-0.605566
H232	H	0.440860	1.036198	-0.568899
H233	H	0.440840	0.969037	-0.568890
C234	C	0.566616	0.885232	0.096010
H235	H	0.560922	0.911972	0.123215
H236	H	0.597621	0.828009	0.139254
H237	H	0.597628	0.895166	0.056564
C238	C	0.921944	0.403561	-0.436673
H239	H	0.915398	0.414198	-0.493008
H240	H	0.982060	0.373050	-0.405660
H241	H	0.899360	0.373066	-0.405682
H242	H	0.407555	1.003855	0.082960
C243	C	1.342658	0.254871	0.370431
H244	H	1.336949	0.281597	0.310302
H245	H	1.373679	0.264808	0.397629
H246	H	1.373662	0.197643	0.397641
H247	H	0.542858	0.893914	-0.403253
C248	C	0.915993	0.271921	0.135732
H249	H	0.954479	0.213930	0.174222
H250	H	0.947910	0.293390	0.109189
H251	H	0.889437	0.293381	0.167656
H252	H	0.897545	0.168282	0.117274
C253	C	0.235618	1.076185	0.000059
H254	H	0.252520	1.089879	0.033828
H255	H	0.201858	1.123481	-0.058155
H256	H	0.201856	1.056318	0.024534
H257	H	0.897589	-0.201325	0.117296
H258	H	0.241680	1.003901	-0.082860
H259	H	1.303761	0.208537	0.523447
H260	H	0.663090	0.099090	-0.117208
H261	H	0.908881	0.424774	-0.303672
C262	C	0.644594	0.365059	-0.135680
H263	H	0.653860	0.317100	-0.126430
H264	H	0.588806	0.396554	-0.133000
H265	H	0.647279	0.396562	-0.191468
