data_functionalizedCrystal
_audit_creation_method	'MofGen! by Chris Wilmer'
_symmetry_space_group_name_H-M	'P1'
_symmetry_Int_Tables_number	1
_symmetry_cell_setting	triclinic
loop_
_symmetry_equiv_pos_as_xyz
  x,y,z
_cell_length_a	6.817900
_cell_length_b	17.458011
_cell_length_c	17.078481
_cell_angle_alpha	95.903756
_cell_angle_beta	99.306161
_cell_angle_gamma	106.367272
loop_
_atom_site_label
_atom_site_type_symbol
_atom_site_fract_x
_atom_site_fract_y
_atom_site_fract_z
V1	V	-3.994431	-0.110379	-0.248072
O2	O	-3.967309	0.005496	-0.242617
O3	O	-3.960837	-0.219047	-0.247080
O4	O	-3.925238	-0.108597	-0.355944
O5	O	-4.003154	-0.105719	-0.133000
V6	V	-4.478835	-0.096529	-0.234223
O7	O	-4.253757	-0.140760	-0.278451
O8	O	-4.669706	-0.066148	-0.203844
O9	O	-4.289222	0.012140	-0.235215
O10	O	-4.623354	-0.212404	-0.239678
O11	O	-4.587508	-0.101189	-0.349295
O12	O	-4.324821	-0.098311	-0.126352
C13	C	-3.810113	-0.245541	-0.243349
C14	C	-3.863794	-0.334379	-0.243256
C15	C	-4.185523	-0.834863	-0.243076
C16	C	-4.135073	-0.751392	-0.243173
C17	C	-3.927945	-0.705595	-0.239242
C18	C	-3.771256	-0.743272	-0.235206
C19	C	-3.821706	-0.826740	-0.235103
C20	C	-3.757554	-0.455524	-0.239117
C21	C	-3.707116	-0.372050	-0.239223
C22	C	-4.070936	-0.380176	-0.247189
C23	C	-4.121372	-0.463646	-0.247090
C24	C	-3.964678	-0.501315	-0.243050
N25	N	-3.876373	-0.620275	-0.239344
N26	N	-4.016249	-0.586633	-0.242942
C27	C	-3.764701	-0.104649	-0.382214
C28	C	-3.789510	-0.103911	-0.470404
C29	C	-3.983040	-0.107554	-0.515903
C30	C	-4.006339	-0.106860	-0.598767
C31	C	-3.836107	-0.102529	-0.636131
C32	C	-3.642559	-0.098884	-0.590625
C33	C	-3.619260	-0.099572	-0.507762
C34	C	-3.886284	-0.100038	-0.883518
C35	C	-3.909600	-0.099353	-0.966387
C36	C	-4.273377	-0.107327	-0.974523
C37	C	-4.250064	-0.108020	-0.891659
C38	C	-4.056517	-0.104370	-0.846160
N39	N	-3.859919	-0.101822	-0.720831
N40	N	-4.032704	-0.105071	-0.761460
C41	C	-4.103289	0.038629	-0.238945
C42	C	-4.028845	0.127466	-0.239042
C43	C	-4.148701	-0.102261	-0.100078
C44	C	-4.103131	-0.102995	-0.011887
H45	H	-4.262661	-0.720724	-0.246461
O46	O	-3.698308	-0.096668	-0.839430
C47	C	-3.638955	-0.163608	-0.868490
H48	H	-3.783651	-0.214319	-0.901453
H49	H	-3.528913	-0.145017	-0.911562
C50	C	-3.349595	-0.131053	-0.757038
C51	C	-3.527314	-0.193341	-0.797518
H52	H	-3.280720	-0.149392	-0.713261
H53	H	-3.389576	-0.085953	-0.737461
H54	H	-3.257916	-0.115567	-0.792939
H55	H	-3.619000	-0.208819	-0.761620
H56	H	-3.487346	-0.238444	-0.817088
O57	O	-4.194193	-0.110255	-0.642981
C58	C	-4.173073	-0.040579	-0.679959
H59	H	-4.031070	0.010068	-0.644836
H60	H	-4.152123	-0.054700	-0.744198
C61	C	-4.544534	-0.076015	-0.724158
C62	C	-4.370134	-0.013807	-0.681016
H63	H	-4.666093	-0.059501	-0.724814
H64	H	-4.558765	-0.122958	-0.699249
H65	H	-4.527048	-0.087776	-0.777687
H66	H	-4.387611	-0.002053	-0.627487
H67	H	-4.355911	0.033140	-0.705917
H68	H	-3.694122	-0.857412	-0.231825
H69	H	-4.198502	-0.349497	-0.250477
O70	O	-4.461509	-0.111016	-1.018714
C71	C	-4.611930	-0.183124	-1.012133
H72	H	-4.530868	-0.229570	-0.994802
H73	H	-4.701547	-0.170292	-0.964042
C74	C	-4.864248	-0.159442	-1.114608
C75	C	-4.764686	-0.216489	-1.093327
H76	H	-4.958482	-0.180022	-1.164690
H77	H	-4.762910	-0.110859	-1.119039
H78	H	-4.938912	-0.148753	-1.074525
H79	H	-4.690003	-0.227170	-1.133404
H80	H	-4.866016	-0.265075	-1.088904
O81	O	-3.605576	-0.492220	-0.235307
C82	C	-3.650394	-0.551051	-0.304115
H83	H	-3.824740	-0.570684	-0.330594
H84	H	-3.559778	-0.524447	-0.350577
C85	C	-3.372113	-0.600619	-0.248226
C86	C	-3.586251	-0.624738	-0.280743
H87	H	-3.332538	-0.646071	-0.233811
H88	H	-3.341911	-0.560981	-0.201870
H89	H	-3.296626	-0.578448	-0.286950
H90	H	-3.661734	-0.646898	-0.242017
H91	H	-3.616464	-0.664381	-0.327093
H92	H	-4.121669	-0.111086	-0.485489
H93	H	-3.503953	-0.095353	-0.621052
H94	H	-4.290033	-0.500929	-0.250292
H95	H	-4.388688	-0.111545	-0.861243
O96	O	-3.744072	-0.094993	-1.002626
C97	C	-3.582260	-0.023217	-0.968686
H98	H	-3.650511	0.022849	-0.940449
H99	H	-3.465576	-0.036842	-0.920589
C100	C	-3.387102	-0.045214	-1.069407
C101	C	-3.470932	0.011367	-1.034732
H102	H	-3.318422	-0.023882	-1.110146
H103	H	-3.496113	-0.093573	-1.092272
H104	H	-3.289878	-0.056563	-1.029319
H105	H	-3.568172	0.022708	-1.074818
H106	H	-3.361934	0.059729	-1.011876
H107	H	-4.354186	-0.872146	-0.246281
O108	O	-3.505780	-0.327674	-0.235358
C109	C	-3.378300	-0.378822	-0.231788
H110	H	-3.457878	-0.435563	-0.207623
H111	H	-3.352309	-0.396458	-0.294557
C112	C	-3.068921	-0.264531	-0.205418
C113	C	-3.166652	-0.334218	-0.175732
H114	H	-2.938362	-0.237017	-0.170844
H115	H	-3.154805	-0.230071	-0.207827
H116	H	-3.047282	-0.279238	-0.257726
H117	H	-3.188313	-0.319510	-0.123430
H118	H	-3.080766	-0.368674	-0.173313
H119	H	-3.602604	-0.705976	-0.232000
O120	O	-3.431219	-0.095900	-0.463503
C121	C	-3.361416	-0.026549	-0.404104
H122	H	-3.439863	0.019994	-0.423552
H123	H	-3.402914	-0.043860	-0.344934
C124	C	-3.026790	-0.047443	-0.368995
C125	C	-3.123126	0.009724	-0.392884
H126	H	-2.879801	-0.025069	-0.362070
H127	H	-3.073819	-0.094168	-0.409011
H128	H	-3.061393	-0.061864	-0.319689
H129	H	-3.088544	0.024137	-0.442194
H130	H	-3.076086	0.056453	-0.352876
