data_functionalizedCrystal
_audit_creation_method	'MofGen! by Chris Wilmer'
_symmetry_space_group_name_H-M	'P1'
_symmetry_Int_Tables_number	1
_symmetry_cell_setting	triclinic
loop_
_symmetry_equiv_pos_as_xyz
  x,y,z
_cell_length_a	21.295418
_cell_length_b	12.759399
_cell_length_c	12.759393
_cell_angle_alpha	90.031477
_cell_angle_beta	89.959719
_cell_angle_gamma	89.969069
loop_
_atom_site_label
_atom_site_type_symbol
_atom_site_fract_x
_atom_site_fract_y
_atom_site_fract_z
Zn1	Zn	0.962402	0.417766	-0.594606
Zn2	Zn	0.962339	0.593483	-0.418925
Zn3	Zn	0.857131	0.417867	-0.418877
Zn4	Zn	0.857122	0.593452	-0.594498
O5	O	0.909748	0.505642	-0.506726
O6	O	1.050483	0.441046	-0.571367
O7	O	0.948360	0.570243	-0.271897
O8	O	0.871125	0.270833	-0.442213
O9	O	1.050436	0.570145	-0.442295
O10	O	0.948467	0.270758	-0.571320
O11	O	0.871064	0.441219	-0.271862
O12	O	0.769041	0.441188	-0.442108
O13	O	0.871111	0.570091	-0.741533
O14	O	0.769034	0.570190	-0.571136
O15	O	0.948459	0.441015	-0.741613
O16	O	0.948352	0.740500	-0.442190
O17	O	0.871050	0.740477	-0.571182
C18	C	0.746197	0.505697	-0.506605
C19	C	0.676229	0.505746	-0.506579
C20	C	0.909710	0.778610	-0.506702
C21	C	0.909751	0.895386	-0.506727
C22	C	0.909791	0.505538	-0.780760
C23	C	0.909809	0.505494	-0.897537
C24	C	0.643375	0.573006	-0.573663
C25	C	0.577633	0.572980	-0.573710
C26	C	0.544746	0.505706	-0.506654
C27	C	0.577608	0.438433	-0.439565
C28	C	0.643349	0.438453	-0.439527
N29	N	0.441472	0.497510	-0.414762
N30	N	0.379021	0.497496	-0.414801
C31	C	0.346672	0.505639	-0.506766
N32	N	0.379133	0.513815	-0.598692
N33	N	0.441590	0.513834	-0.598652
C34	C	0.473461	0.505676	-0.506688
C35	C	0.242533	0.572874	-0.573907
C36	C	0.176789	0.572841	-0.573956
C37	C	0.176765	0.438298	-0.439801
C38	C	0.242507	0.438326	-0.439762
C39	C	0.275387	0.505620	-0.506813
C40	C	1.073939	0.505587	-0.506848
C41	C	1.143907	0.505564	-0.506900
C42	C	0.909804	0.231609	-0.506773
C43	C	0.909828	0.114832	-0.506793
C44	C	0.950048	0.950225	-0.439637
C45	C	0.950088	1.059949	-0.439673
C46	C	0.869529	1.059985	-0.573891
C47	C	0.869493	0.950263	-0.573860
C48	C	1.024390	1.209794	-0.402331
C49	C	1.064682	1.264637	-0.335224
C50	C	1.074368	1.229093	-0.232720
C51	C	1.043753	1.138709	-0.197301
C52	C	1.003457	1.083871	-0.264402
C53	C	0.993783	1.119413	-0.366921
C54	C	0.795190	0.800417	-0.611191
C55	C	0.754890	0.745577	-0.678288
C56	C	0.745198	0.781119	-0.780794
C57	C	0.775802	0.871507	-0.816209
C58	C	0.816101	0.926346	-0.749112
C59	C	0.825795	0.890797	-0.646607
C60	C	0.869594	0.438262	-1.062110
C61	C	0.869576	0.438297	-0.952386
C62	C	0.950066	0.572653	-0.952417
C63	C	0.950086	0.572611	-1.062139
C64	C	0.847084	0.314455	-0.802442
C65	C	0.806821	0.247309	-0.747566
C66	C	0.745408	0.231184	-0.783139
C67	C	0.724246	0.282221	-0.873586
C68	C	0.764505	0.349375	-0.928457
C69	C	0.825927	0.365480	-0.892886
C70	C	0.972572	0.696455	-1.212085
C71	C	1.012829	0.763615	-1.266957
C72	C	1.074243	0.779751	-1.231386
C73	C	1.095403	0.728732	-1.140936
C74	C	1.055146	0.661572	-1.086063
C75	C	0.993733	0.645435	-1.121641
C76	C	0.909743	0.505669	-0.233759
C77	C	0.909846	0.505418	-0.116983
H78	H	0.670142	0.627800	-0.628263
H79	H	0.550878	0.627751	-0.628342
H80	H	0.550827	0.383655	-0.384970
C81	C	0.741235	0.405506	-1.027944
H82	H	0.698892	0.386284	-1.041276
H83	H	0.743763	0.479186	-1.018122
H84	H	0.766690	0.385651	-1.085824
H85	H	0.149990	0.383517	-0.385208
C86	C	0.278703	0.646881	-0.647670
H87	H	0.249718	0.686924	-0.687643
H88	H	0.304303	0.692621	-0.607389
H89	H	0.304395	0.606744	-0.693502
C90	C	1.078424	0.605444	-0.986574
H91	H	1.120767	0.624663	-0.973249
H92	H	1.052968	0.625272	-0.928694
H93	H	1.075906	0.531759	-0.996414
C94	C	0.679492	0.364469	-0.365730
H95	H	0.723355	0.374114	-0.375315
H96	H	0.668666	0.379753	-0.295119
H97	H	0.668761	0.293889	-0.381244
H98	H	0.150041	0.627610	-0.628591
H99	H	1.107175	1.273753	-0.178082
H100	H	0.269257	0.383561	-0.385129
C101	C	0.765145	0.910612	-0.928964
H102	H	0.789139	0.972301	-0.940442
H103	H	0.777847	0.857933	-0.977168
H104	H	0.721868	0.925744	-0.938836
H105	H	0.982830	0.905547	-0.384975
H106	H	0.712380	0.736460	-0.835422
C107	C	1.013743	1.248883	-0.515092
H108	H	0.985367	1.203273	-0.549990
H109	H	0.996656	1.317648	-0.513279
H110	H	1.052639	1.249829	-0.551581
C111	C	0.805840	0.761330	-0.498425
H112	H	0.781831	0.699658	-0.486937
H113	H	0.849111	0.746195	-0.488526
H114	H	0.793131	0.814028	-0.450239
C115	C	0.969786	0.984454	-0.225456
H116	H	0.981326	0.971135	-0.154795
H117	H	0.925643	0.994343	-0.229616
H118	H	0.981631	0.926537	-0.267924
C119	C	1.054405	1.099619	-0.084541
H120	H	1.082792	1.145218	-0.049654
H121	H	1.015514	1.098670	-0.048044
H122	H	1.071494	1.030851	-0.086363
H123	H	1.089609	1.338228	-0.364072
H124	H	0.836752	1.104680	-0.628546
C125	C	1.162958	0.746474	-1.101805
H126	H	1.183905	0.793770	-1.147445
H127	H	1.161859	0.775059	-1.033069
H128	H	1.184793	0.681537	-1.100781
C129	C	0.849772	1.025765	-0.788071
H130	H	0.838233	1.039077	-0.858734
H131	H	0.837943	1.083683	-0.745603
H132	H	0.893917	1.015856	-0.783928
C133	C	1.118523	0.853629	-1.291745
H134	H	1.097128	0.881706	-1.350710
H135	H	1.131414	0.909131	-1.247030
H136	H	1.154345	0.815611	-1.314749
H137	H	0.995595	0.805156	-1.340608
H138	H	0.729975	0.671974	-0.649446
H139	H	0.836830	0.383545	-1.106761
H140	H	0.674235	0.269096	-0.902536
H141	H	0.982827	0.627361	-0.907749
C142	C	0.905037	0.678619	-1.251279
H143	H	0.898205	0.718609	-1.313017
H144	H	0.899138	0.606376	-1.266342
H145	H	0.876109	0.699869	-1.198678
H146	H	0.712626	0.176511	-0.738451
C147	C	0.914641	0.332182	-0.763321
H148	H	0.935592	0.379472	-0.808960
H149	H	0.913546	0.360765	-0.694584
H150	H	0.936470	0.267238	-0.762299
H151	H	0.824058	0.205755	-0.673924
