data_functionalizedCrystal
_audit_creation_method	'MofGen! by Chris Wilmer'
_symmetry_space_group_name_H-M	'P1'
_symmetry_Int_Tables_number	1
_symmetry_cell_setting	triclinic
loop_
_symmetry_equiv_pos_as_xyz
  x,y,z
_cell_length_a	17.699083
_cell_length_b	15.072220
_cell_length_c	17.699083
_cell_angle_alpha	89.991052
_cell_angle_beta	83.283015
_cell_angle_gamma	90.001563
loop_
_atom_site_label
_atom_site_type_symbol
_atom_site_fract_x
_atom_site_fract_y
_atom_site_fract_z
O1	O	-1.004076	0.073651	-0.095715
O2	O	-0.783697	0.073682	-0.108167
O3	O	-0.900113	0.073658	0.008248
O4	O	-0.887660	0.073675	-0.212130
O5	O	-0.900103	-0.073907	0.008259
O6	O	-0.783687	-0.073883	-0.108156
O7	O	-1.004066	-0.073914	-0.095704
Zn8	Zn	-0.893875	-0.097328	-0.101929
Zn9	Zn	-0.893888	0.097096	-0.101943
O10	O	-0.887650	-0.073890	-0.212119
C11	C	-0.755495	-0.000096	-0.107716
C12	C	-0.671477	-0.000085	-0.106377
N13	N	-0.893871	-0.230016	-0.101918
C14	C	-0.622856	-0.000079	-0.174710
C15	C	-0.543913	-0.000090	-0.173448
C16	C	-0.513592	-0.000100	-0.103852
C17	C	-0.562219	-0.000108	-0.035513
C18	C	-0.641161	-0.000104	-0.036776
C19	C	-0.243856	-0.000128	-0.030418
C20	C	-0.164908	-0.000130	-0.029160
C21	C	-0.146608	-0.000114	-0.167090
C22	C	-0.225550	-0.000110	-0.168353
C23	C	-0.274170	-0.000122	-0.100015
C24	C	-0.359769	-0.000112	-0.101384
C25	C	-0.427995	-0.000104	-0.102481
C26	C	-0.893880	-0.411014	-0.101928
C27	C	-0.956186	-0.448668	-0.039658
C28	C	-0.956412	-0.551494	-0.039823
C29	C	-0.893889	-0.589218	-0.101937
C30	C	-0.910665	-0.551869	-0.180975
C31	C	-0.911107	-0.449012	-0.180605
C32	C	-0.814610	-0.448923	-0.085873
C33	C	-0.815150	-0.551788	-0.084083
C34	C	-0.893892	-0.689931	-0.101947
C35	C	-0.893878	-0.310301	-0.101924
C36	C	-0.032268	-0.000131	-0.096156
C37	C	-0.116286	-0.000131	-0.097494
C38	C	-0.899662	-0.000125	0.036451
C39	C	-0.898323	-0.000125	0.120469
N40	N	-0.893898	0.229785	-0.101947
C41	C	-0.888102	-0.000105	-0.240322
C42	C	-0.889440	-0.000099	-0.324340
C43	C	-0.966656	-0.000136	0.169090
C44	C	-0.965394	-0.000128	0.248033
C45	C	-0.895798	-0.000115	0.278354
C46	C	-0.827459	-0.000102	0.229727
C47	C	-0.828722	-0.000103	0.150785
C48	C	-0.822364	-0.000094	0.548090
C49	C	-0.821106	-0.000095	0.627038
C50	C	-0.959036	-0.000118	0.645338
C51	C	-0.960299	-0.000120	0.566396
C52	C	-0.891961	-0.000102	0.517776
C53	C	-0.893330	-0.000109	0.432177
C54	C	-0.894427	-0.000114	0.363951
H55	H	-0.504328	-0.000085	-0.229092
O56	O	-0.255129	-0.000050	-0.235893
C57	C	-0.335231	-0.000063	-0.222354
H58	H	-0.353874	0.027860	-0.163254
H59	H	-0.359383	0.042795	-0.266876
H60	H	-0.357208	-0.070853	-0.225985
O61	O	-0.099269	-0.000149	-0.233406
C62	C	-0.023090	-0.000137	-0.217374
H63	H	-0.020174	-0.028085	-0.157931
H64	H	0.012751	-0.042974	-0.260940
H65	H	-0.000248	0.070656	-0.220287
O66	O	-0.688286	-0.000065	0.029673
C67	C	-0.644599	-0.000095	0.091372
H68	H	-0.585641	0.027841	0.072053
H69	H	-0.673807	0.042744	0.139239
H70	H	-0.639023	-0.070892	0.112717
O71	O	-0.759805	-0.000205	0.259087
C72	C	-0.718158	-0.076633	0.234252
H73	H	-0.738684	-0.102117	0.179542
H74	H	-0.655111	-0.059432	0.223174
H75	H	-0.727000	-0.130150	0.279957
H76	H	-0.773078	-0.000094	0.111198
O77	O	-0.757333	-0.582315	-0.134778
C78	C	-0.769369	-0.555735	-0.208811
H79	H	-0.807884	-0.494897	-0.205375
H80	H	-0.712458	-0.538730	-0.242756
H81	H	-0.797496	-0.612084	-0.238165
O82	O	-0.978860	-0.582641	-0.198105
C83	C	-1.011541	-0.637963	-0.138839
H84	H	-0.986821	-0.620709	-0.084026
H85	H	-1.075786	-0.627671	-0.130376
H86	H	-0.998444	-0.710241	-0.154189
O87	O	-1.026657	-0.580750	-0.051998
C88	C	-1.081069	-0.549262	0.006389
H89	H	-1.058170	-0.487470	0.033070
H90	H	-1.135861	-0.532064	-0.018398
H91	H	-1.093175	-0.602790	0.051705
H92	H	-0.647537	-0.000070	-0.231384
H93	H	-0.140225	-0.000139	0.027517
H94	H	-1.014680	-0.000129	0.684934
H95	H	-0.283434	-0.000139	0.025228
H96	H	-1.021038	-0.000139	0.287618
H97	H	-1.016971	-0.000134	0.541714
H98	H	-0.764429	-0.000086	0.651721
O99	O	-0.979992	-0.420369	-0.197624
C100	C	-0.969950	-0.368285	-0.264222
H101	H	-0.913641	-0.386313	-0.298832
H102	H	-1.018645	-0.381349	-0.299587
H103	H	-0.969443	-0.295077	-0.248099
H104	H	-0.537526	-0.000129	0.021154
H105	H	-0.867304	-0.424100	-0.228231
H106	H	-0.946492	-0.576748	0.018924
O107	O	-0.795367	-0.417943	-0.018538
C108	C	-0.853282	-0.361436	0.015097
H109	H	-0.909056	-0.377984	-0.008074
H110	H	-0.860310	-0.371125	0.079418
H111	H	-0.837313	-0.289509	0.001147
H112	H	-0.866472	-0.576302	-0.228438
O113	O	-0.755931	0.000032	0.500946
C114	C	-0.713679	0.076472	0.514651
H115	H	-0.732381	0.101951	0.574565
H116	H	-0.650544	0.059288	0.508990
H117	H	-0.723945	0.129986	0.471480
O118	O	-0.944690	-0.419138	0.030691
C119	C	-1.008866	-0.370716	0.062338
H120	H	-1.060708	-0.391932	0.034177
H121	H	-1.019568	-0.384254	0.126064
H122	H	-0.998219	-0.296809	0.052364
H123	H	-1.014688	-0.422810	-0.049779
O124	O	-0.759213	-0.419831	-0.139936
C125	C	-0.704972	-0.370717	-0.105116
H126	H	-0.707103	-0.391147	-0.042885
H127	H	-0.645763	-0.384380	-0.135609
H128	H	-0.718187	-0.296910	-0.108698
O129	O	-0.799844	-0.580792	-0.014717
C130	C	-0.729028	-0.546802	0.000703
H131	H	-0.715180	-0.484334	-0.034535
H132	H	-0.731776	-0.529955	0.063755
H133	H	-0.682866	-0.598629	-0.014642
O134	O	-1.034330	-0.000107	0.139765
C135	C	-1.094371	-0.000134	0.199612
H136	H	-1.073252	0.027805	0.253197
H137	H	-1.142972	0.042705	0.183200
H138	H	-1.115441	-0.070930	0.210831
