data_functionalizedCrystal
_audit_creation_method	'MofGen! by Chris Wilmer'
_symmetry_space_group_name_H-M	'P1'
_symmetry_Int_Tables_number	1
_symmetry_cell_setting	triclinic
loop_
_symmetry_equiv_pos_as_xyz
  x,y,z
_cell_length_a	10.489768
_cell_length_b	19.288855
_cell_length_c	17.766277
_cell_angle_alpha	89.992196
_cell_angle_beta	89.992921
_cell_angle_gamma	83.841365
loop_
_atom_site_label
_atom_site_type_symbol
_atom_site_fract_x
_atom_site_fract_y
_atom_site_fract_z
O1	O	-1.691818	-0.098085	0.062559
O2	O	-1.320419	-0.107263	0.062570
O3	O	-1.516856	-0.001615	0.062554
O4	O	-1.495380	-0.203732	0.062575
O5	O	-1.516821	-0.001612	-0.062634
O6	O	-1.320383	-0.107259	-0.062619
O7	O	-1.691783	-0.098081	-0.062629
Cu8	Cu	-1.506080	-0.102670	-0.074055
Cu9	Cu	-1.506121	-0.102674	0.073995
O10	O	-1.495345	-0.203729	-0.062614
C11	C	-1.272886	-0.106564	-0.000023
C12	C	-1.131305	-0.104478	-0.000020
C13	C	-0.980002	-0.036014	-0.000038
C14	C	-1.056601	-0.070242	-0.061756
C15	C	-1.056591	-0.070261	0.061670
C16	C	-0.955641	-0.135023	-0.061809
C17	C	-0.955626	-0.135033	0.061672
C18	C	-1.032175	-0.169308	-0.000061
C19	C	-1.516150	0.024267	-0.000041
C20	C	-1.514082	0.101385	-0.000044
C21	C	-0.739318	-0.098769	-0.000036
C22	C	-0.880907	-0.100822	-0.000040
C23	C	-1.513136	0.137601	0.068197
C24	C	-1.511174	0.210060	0.068202
C25	C	-1.510185	0.246303	-0.000037
C26	C	-1.511124	0.210078	-0.068286
C27	C	-1.513072	0.137620	-0.068290
C28	C	-1.581788	0.366052	-0.052315
C29	C	-1.579847	0.438510	-0.052309
C30	C	-1.504169	0.469790	-0.000030
C31	C	-1.430448	0.428604	0.052255
C32	C	-1.432397	0.356145	0.052252
C33	C	-1.508071	0.324872	-0.000042
C34	C	-1.501094	0.584574	0.068220
C35	C	-1.499125	0.657034	0.068222
C36	C	-1.499088	0.657052	-0.068268
C37	C	-1.501044	0.584592	-0.068268
C38	C	-1.502053	0.548358	-0.000022
C39	C	-1.496055	0.770389	-0.000019
C40	C	-1.498134	0.693272	-0.000018
N41	N	-1.506060	-0.102667	-0.178185
C42	C	-1.583156	-0.145212	-0.217564
C43	C	-1.583176	-0.145210	-0.296365
C44	C	-1.506077	-0.102671	-0.335786
C45	C	-1.428976	-0.060117	-0.296398
C46	C	-1.428967	-0.060115	-0.217597
C47	C	-1.391106	-0.100137	-0.460642
C48	C	-1.391111	-0.100144	-0.539441
C49	C	-1.506103	-0.102674	-0.578832
C50	C	-1.621091	-0.105210	-0.539415
C51	C	-1.621083	-0.105208	-0.460614
C52	C	-1.506077	-0.102668	-0.421231
C53	C	-1.583228	-0.145219	-0.703656
C54	C	-1.583250	-0.145212	-0.782460
C55	C	-1.429038	-0.060123	-0.782490
C56	C	-1.429027	-0.060126	-0.703689
C57	C	-1.506120	-0.102678	-0.664276
N58	N	-1.506151	-0.102672	0.178125
H59	H	-0.956559	0.020344	-0.000106
H60	H	-1.498272	0.686559	-0.123829
H61	H	-1.297457	-0.098082	-0.428576
H62	H	-1.366241	-0.025484	-0.671626
H63	H	-1.100683	-0.042882	-0.113942
H64	H	-1.645958	-0.179858	-0.328434
H65	H	-1.055372	-0.225708	-0.000089
H66	H	-0.911728	-0.162362	-0.114049
H67	H	-1.513837	0.108133	-0.123861
H68	H	-1.501825	0.555106	-0.123837
H69	H	-1.643413	0.340590	-0.094893
H70	H	-1.714711	-0.107272	-0.428524
H71	H	-0.911521	-0.162368	0.113860
H72	H	-1.100669	-0.042891	0.113850
H73	H	-1.645936	-0.179858	-0.185479
H74	H	-1.714728	-0.107274	-0.571485
H75	H	-1.639880	0.472038	-0.094881
H76	H	-1.366263	-0.025486	-0.814586
H77	H	-1.646002	-0.179866	-0.671565
H78	H	-1.297480	-0.098082	-0.571529
H79	H	-1.513954	0.108103	0.123768
H80	H	-1.510396	0.239552	0.123773
H81	H	-1.646040	-0.179855	-0.814520
H82	H	-1.366202	-0.025481	-0.328499
H83	H	-1.372368	0.322614	0.094823
H84	H	-1.498348	0.686519	0.123794
H85	H	-1.510314	0.239592	-0.123847
H86	H	-1.368824	0.454070	0.094826
H87	H	-1.501909	0.555070	0.123790
H88	H	-1.366184	-0.025469	-0.185536
