data_functionalizedCrystal
_audit_creation_method	'MofGen! by Chris Wilmer'
_symmetry_space_group_name_H-M	'P1'
_symmetry_Int_Tables_number	1
_symmetry_cell_setting	triclinic
loop_
_symmetry_equiv_pos_as_xyz
  x,y,z
_cell_length_a	13.635800
_cell_length_b	27.923496
_cell_length_c	25.235493
_cell_angle_alpha	84.977090
_cell_angle_beta	67.934442
_cell_angle_gamma	98.963946
loop_
_atom_site_label
_atom_site_type_symbol
_atom_site_fract_x
_atom_site_fract_y
_atom_site_fract_z
V1	V	-2.053041	-0.067741	0.178755
O2	O	-2.057314	0.002623	0.174980
O3	O	-2.017687	-0.133711	0.177890
O4	O	-2.051083	-0.066976	0.256553
O5	O	-2.023687	-0.064573	0.095773
V6	V	-2.293418	-0.059292	0.168786
O7	O	-2.186707	-0.086275	0.200622
O8	O	-2.384850	-0.040758	0.146919
O9	O	-2.217168	0.006678	0.169651
O10	O	-2.347843	-0.129656	0.172561
O11	O	-2.381470	-0.062459	0.251768
O12	O	-2.183772	-0.060056	0.090988
C13	C	-1.936755	-0.149784	0.175163
C14	C	-1.948641	-0.203717	0.174974
V15	V	-1.553041	-0.067741	0.178755
O16	O	-1.557314	0.002623	0.174980
O17	O	-1.517687	-0.133711	0.177890
O18	O	-1.551083	-0.066976	0.256553
O19	O	-1.523687	-0.064573	0.095773
V20	V	-1.793418	-0.059292	0.168786
O21	O	-1.686707	-0.086275	0.200622
O22	O	-1.884850	-0.040758	0.146919
O23	O	-1.717168	0.006678	0.169651
O24	O	-1.847843	-0.129656	0.172561
O25	O	-1.881470	-0.062459	0.251768
O26	O	-1.683772	-0.060056	0.090988
C27	C	-2.113960	-0.540651	0.176737
C28	C	-2.158704	-0.743358	0.176056
O29	O	-2.242290	-0.771682	0.178432
N30	N	-2.072832	-0.766223	0.173100
C31	C	-1.975770	-0.738408	0.170318
O32	O	-1.903762	-0.762508	0.167794
C33	C	-1.931030	-0.535703	0.171003
C34	C	-2.016904	-0.512840	0.173953
C35	C	-2.199827	-0.517789	0.179688
C36	C	-2.188638	-0.467114	0.179855
C37	C	-2.091583	-0.439303	0.177071
C38	C	-2.005716	-0.462166	0.174120
C39	C	-1.833972	-0.507890	0.168225
C40	C	-1.822795	-0.457210	0.168398
C41	C	-1.908669	-0.434348	0.171349
C42	C	-1.897472	-0.383681	0.171504
N43	N	-1.983343	-0.360816	0.174460
C44	C	-2.080399	-0.388627	0.177243
C45	C	-1.999265	-0.844831	0.169957
C46	C	-2.010449	-0.895507	0.169785
C47	C	-2.193383	-0.900454	0.175524
C48	C	-2.182195	-0.849776	0.175692
C49	C	-2.085136	-0.821966	0.172913
C50	C	-2.056895	-0.282208	0.177593
C51	C	-2.045696	-0.231529	0.177758
C52	C	-1.862766	-0.226587	0.172022
C53	C	-1.873961	-0.277261	0.171854
C54	C	-1.971035	-0.305071	0.174642
O55	O	-1.813924	-0.355327	0.169136
O56	O	-2.152402	-0.364520	0.179780
C57	C	-2.125148	-0.591325	0.176570
C58	C	-2.039281	-0.614188	0.173619
C59	C	-1.942225	-0.586377	0.170836
C60	C	-2.050465	-0.664864	0.173447
C61	C	-2.147520	-0.692675	0.176231
C62	C	-2.233392	-0.669811	0.179186
C63	C	-2.222203	-0.619137	0.179354
C64	C	-1.856354	-0.609242	0.167880
C65	C	-1.867549	-0.659916	0.167712
C66	C	-1.964605	-0.687727	0.170496
C67	C	-1.979354	-0.064657	0.275504
C68	C	-2.018321	-0.064468	0.339106
C69	C	-2.129771	0.022749	0.172377
C70	C	-2.107504	0.076682	0.172569
C71	C	-2.051799	-0.108842	0.377390
C72	C	-2.088430	-0.108672	0.437153
C73	C	-2.091575	-0.064128	0.458631
C74	C	-2.058097	-0.019751	0.420343
C75	C	-2.021474	-0.019921	0.360581
C76	C	-2.087171	-0.062377	0.072034
C77	C	-2.037823	-0.062563	0.008431
C78	C	-1.645816	-0.066108	-0.383055
C79	C	-1.599431	-0.066277	-0.442818
O80	O	-1.502406	-0.068414	-0.471243
N81	N	-1.662105	-0.063934	-0.475631
C82	C	-1.771169	-0.061418	-0.448680
O83	O	-1.820218	-0.059440	-0.482078
C84	C	-1.817549	-0.061245	-0.388919
C85	C	-1.754870	-0.063592	-0.356108
C86	C	-1.583143	-0.068454	-0.350244
C87	C	-1.629526	-0.068286	-0.290486
C88	C	-1.738580	-0.065771	-0.263538
C89	C	-1.801252	-0.063424	-0.296349
C90	C	-1.926609	-0.058725	-0.361970
C91	C	-1.972986	-0.058552	-0.302205
C92	C	-1.910306	-0.060899	-0.269393
C93	C	-1.956689	-0.060741	-0.209643
N94	N	-1.894015	-0.063083	-0.176830
C95	C	-1.784961	-0.065598	-0.203777
C96	C	-1.673759	-0.061780	-0.574182
C97	C	-1.627382	-0.061956	-0.633941
C98	C	-1.455647	-0.066814	-0.628075
C99	C	-1.502028	-0.066641	-0.568314
C100	C	-1.611085	-0.064122	-0.541368
C101	C	-1.882374	-0.065245	-0.078280
C102	C	-1.928769	-0.065079	-0.018516
C103	C	-2.100498	-0.060218	-0.024388
C104	C	-2.054109	-0.060387	-0.084146
C105	C	-1.945039	-0.062899	-0.111091
O106	O	-2.053706	-0.058602	-0.181179
O107	O	-1.735926	-0.067569	-0.170374
C108	C	-1.479354	-0.064657	0.275504
C109	C	-1.518321	-0.064468	0.339106
C110	C	-1.436755	-0.149784	0.175163
C111	C	-1.448641	-0.203717	0.174974
C112	C	-1.629771	0.022749	0.172377
C113	C	-1.607504	0.076682	0.172569
C114	C	-1.587171	-0.062377	0.072034
C115	C	-1.537823	-0.062563	0.008431
C116	C	-1.545696	-0.231529	0.177758
C117	C	-1.556884	-0.282206	0.177590
C118	C	-1.471013	-0.305071	0.174634
C119	C	-1.373951	-0.277256	0.171852
C120	C	-1.362767	-0.226580	0.172024
C121	C	-1.682943	0.104493	0.169787
C122	C	-1.662028	0.155170	0.169958
C123	C	-1.565677	0.178034	0.172915
C124	C	-1.490231	0.150220	0.175695
C125	C	-1.511144	0.099544	0.175520
C126	C	-1.428769	-0.065079	-0.018516
C127	C	-1.382384	-0.065248	-0.078279
C128	C	-1.445058	-0.062905	-0.111092
C129	C	-1.554122	-0.060389	-0.084141
C130	C	-1.600502	-0.060216	-0.024380
H131	H	-2.115628	-0.212916	0.180158
Cl132	Cl	-2.130505	-0.164465	0.485275
H133	H	-1.761404	0.085883	0.167379
Cl134	Cl	-1.539403	0.241742	0.173135
H135	H	-1.605140	-0.058480	-0.110867
H136	H	-2.049241	-0.145117	0.359911
Cl137	Cl	-2.178930	-0.317161	0.181097
Cl138	Cl	-1.902478	-0.924240	0.166063
Cl139	Cl	-1.369106	0.178972	0.179410
H140	H	-1.689305	-0.058171	-0.002444
Cl141	Cl	-1.849962	-0.068031	0.022729
Cl142	Cl	-1.266005	-0.306007	0.168132
H143	H	-1.407282	-0.063052	-0.159752
H144	H	-1.449712	0.076904	0.177791
H145	H	-1.764038	-0.526495	0.165819
Cl146	Cl	-1.745263	-0.068403	-0.112144
H147	H	-1.723472	0.177809	0.167694
H148	H	-1.635923	-0.304846	0.179854
H149	H	-2.258570	-0.448505	0.182261
H150	H	-1.762568	-0.059733	-0.552246
H151	H	-1.480134	-0.346335	0.174494
Cl152	Cl	-1.349955	-0.068023	0.022722
H153	H	-1.283730	-0.203939	0.169754
H154	H	-1.293578	-0.067297	-0.100214
Cl155	Cl	-2.137616	-0.063922	0.533763
H156	H	-2.278865	-0.540428	0.181956
Cl157	Cl	-1.979363	0.035870	0.312458
Cl158	Cl	-2.290158	-0.821041	0.179404
H159	H	-1.615626	-0.212919	0.180161
Cl160	Cl	-1.877235	-0.809876	0.166460
Cl161	Cl	-2.315399	-0.935426	0.179027
Cl162	Cl	-1.550714	-0.071233	-0.249247
Cl163	Cl	-2.330166	-0.590403	0.183060
Cl164	Cl	-2.110089	-0.055381	-0.268335
Cl165	Cl	-1.700772	-0.422253	0.164906
H166	H	-1.678432	-0.060052	-0.660650
Cl167	Cl	-1.740753	-0.191614	0.168516
Cl168	Cl	-1.766004	-0.306003	0.168145
H169	H	-2.060664	0.016516	0.437839
H170	H	-2.312416	-0.692463	0.181448
H171	H	-1.797610	-0.678525	0.165306
H172	H	-1.494341	-0.070500	-0.372179
H173	H	-1.977660	-0.056812	-0.388675
H174	H	-1.777320	-0.586603	0.165614
Cl175	Cl	-1.423221	-0.069591	-0.527072
H176	H	-1.366841	-0.068861	-0.650026
H177	H	-2.105152	-0.058483	-0.110862
Cl178	Cl	-2.237598	-0.057057	0.009500
