data_functionalizedCrystal
_audit_creation_method	'MofGen! by Chris Wilmer'
_symmetry_space_group_name_H-M	'P1'
_symmetry_Int_Tables_number	1
_symmetry_cell_setting	triclinic
loop_
_symmetry_equiv_pos_as_xyz
  x,y,z
_cell_length_a	15.712078
_cell_length_b	14.853567
_cell_length_c	14.750779
_cell_angle_alpha	77.343152
_cell_angle_beta	73.507109
_cell_angle_gamma	78.391960
loop_
_atom_site_label
_atom_site_type_symbol
_atom_site_fract_x
_atom_site_fract_y
_atom_site_fract_z
O1	O	1.128701	-0.507985	0.080016
O2	O	0.876973	-0.439321	0.079973
O3	O	1.009561	-0.344633	0.079998
O4	O	0.996114	-0.602674	0.079990
O5	O	1.047041	-0.317870	-0.079645
O6	O	0.914454	-0.412558	-0.079670
O7	O	1.166182	-0.481222	-0.079627
Zn8	Zn	1.046269	-0.442641	-0.104995
Zn9	Zn	0.996886	-0.477903	0.105341
O10	O	1.033595	-0.575911	-0.079653
C11	C	0.863499	-0.414723	0.000146
C12	C	0.767507	-0.381288	0.000129
C13	C	0.400738	-0.665140	0.000186
C14	C	0.310533	-0.633709	0.000211
C15	C	0.330958	-0.476199	0.000218
C16	C	0.421166	-0.507617	0.000198
C17	C	0.456049	-0.602088	0.000181
C18	C	0.476476	-0.444565	0.000193
C19	C	0.566677	-0.475981	0.000168
C20	C	0.601568	-0.570448	0.000148
C21	C	0.546250	-0.633504	0.000156
C22	C	0.441593	-0.350093	0.000203
C23	C	0.496904	-0.287041	0.000198
C24	C	0.587105	-0.318458	0.000180
C25	C	0.621996	-0.412925	0.000160
C26	C	0.642423	-0.255402	0.000172
C27	C	0.732624	-0.286817	0.000146
C28	C	0.712197	-0.444340	0.000135
C29	C	1.027691	-0.297463	0.000180
C30	C	1.025863	-0.196781	0.000188
C31	C	1.179656	-0.505821	0.000202
C32	C	1.275646	-0.539257	0.000225
C33	C	1.015464	-0.623081	0.000168
C34	C	1.017290	-0.723764	0.000166
N35	N	1.079978	-0.418578	-0.248545
C36	C	0.939389	0.244162	0.000154
C37	C	1.096906	0.213703	0.000182
C38	C	1.098622	0.119104	0.000188
C39	C	1.020720	0.087031	0.000176
C40	C	0.941102	0.149556	0.000157
C41	C	1.178240	0.056574	0.000196
C42	C	1.179959	-0.038031	0.000201
C43	C	1.102055	-0.070107	0.000196
C44	C	1.022434	-0.007576	0.000179
C45	C	0.944532	-0.039649	0.000166
C46	C	0.864909	0.022879	0.000156
C47	C	0.863198	0.117479	0.000152
C48	C	1.103765	-0.164707	0.000200
C49	C	0.946246	-0.134256	0.000170
C50	C	0.869041	-0.569127	-0.600404
C51	C	0.892668	-0.552273	-0.700898
C52	C	1.010099	-0.468479	-0.700838
C53	C	0.986478	-0.485323	-0.600342
C54	C	0.915950	-0.535648	-0.550132
C55	C	1.033387	-0.451843	-0.550070
C56	C	1.009771	-0.468690	-0.449582
C57	C	0.939247	-0.519015	-0.399366
C58	C	0.892334	-0.552494	-0.449645
C59	C	1.103920	-0.401524	-0.600281
C60	C	1.150828	-0.368045	-0.550010
C61	C	1.127209	-0.384885	-0.449520
C62	C	1.056685	-0.435211	-0.399304
C63	C	1.174122	-0.351406	-0.399242
C64	C	1.150506	-0.368252	-0.298754
C65	C	1.033069	-0.452057	-0.298816
N66	N	0.963185	-0.501961	0.248890
H67	H	0.265502	-0.685060	0.000211
H68	H	1.123147	-0.387814	-0.682105
C69	C	0.860553	-0.169535	0.000161
H70	H	0.872973	-0.234832	0.000169
H71	H	0.840976	-0.138442	-0.055512
H72	H	0.814846	-0.157109	0.055837
C73	C	0.791459	-0.624482	-0.545167
H74	H	0.766902	-0.642013	-0.589498
H75	H	0.746222	-0.586718	-0.505977
H76	H	0.813400	-0.678879	-0.505960
C77	C	0.841025	-0.589050	-0.756194
H78	H	0.795625	-0.621413	-0.711896
H79	H	0.881350	-0.630297	-0.795408
H80	H	0.814214	-0.538106	-0.795383
C81	C	0.604050	-0.151489	0.000185
H82	H	0.649913	-0.118434	0.000172
H83	H	0.556232	-0.145296	0.055861
H84	H	0.582346	-0.126622	-0.055488
H85	H	0.920023	-0.532734	-0.317542
H86	H	1.160332	0.239825	0.000184
C87	C	0.750576	-0.548258	0.000123
H88	H	0.812217	-0.557934	0.000113
H89	H	0.744648	-0.566138	-0.055542
H90	H	0.718548	-0.584809	0.055807
H91	H	0.834897	-0.593465	-0.408762
C92	C	1.251700	-0.296056	-0.454479
H93	H	1.259045	-0.290816	-0.521526
H94	H	1.305542	-0.327676	-0.437982
H95	H	1.238364	-0.235515	-0.438016
C96	C	1.263925	0.091857	0.000203
H97	H	1.251496	0.157152	0.000209
H98	H	1.309635	0.079432	-0.055465
H99	H	1.283498	0.060766	0.055884
H100	H	0.468492	-0.210120	0.000201
H101	H	0.798373	0.168398	0.000143
H102	H	1.244793	-0.088935	0.000210
C103	C	0.793466	-0.217466	0.000154
H104	H	0.759770	-0.156706	0.000180
H105	H	0.842132	-0.217102	-0.055523
H106	H	0.816020	-0.235798	0.055826
H107	H	1.067526	-0.427507	-0.741730
H108	H	1.208256	-0.327072	-0.590902
H109	H	1.188705	-0.340991	-0.257822
H110	H	0.801483	-0.003246	0.000140
H111	H	0.675017	-0.596024	0.000123
H112	H	0.874560	0.295076	0.000150
C113	C	1.191339	-0.233482	0.000208
H114	H	1.237488	-0.200831	0.000217
H115	H	1.208348	-0.261691	-0.055459
H116	H	1.182213	-0.280348	0.055890
H117	H	0.429141	-0.742068	0.000171
C118	C	0.584624	-0.737423	0.000148
H119	H	0.538766	-0.770479	0.000154
H120	H	0.606338	-0.762285	0.055809
H121	H	0.632438	-0.743613	-0.055540
H122	H	0.368148	-0.324516	0.000212
C123	C	0.292580	-0.372288	0.000242
H124	H	0.230937	-0.362608	0.000264
H125	H	0.324610	-0.335729	-0.055426
H126	H	0.298506	-0.354425	0.055923
H127	H	0.975631	-0.493028	-0.257934
