data_functionalizedCrystal
_audit_creation_method	'MofGen! by Chris Wilmer'
_symmetry_space_group_name_H-M	'P1'
_symmetry_Int_Tables_number	1
_symmetry_cell_setting	triclinic
loop_
_symmetry_equiv_pos_as_xyz
  x,y,z
_cell_length_a	19.288864
_cell_length_b	10.868271
_cell_length_c	19.288865
_cell_angle_alpha	90.010362
_cell_angle_beta	83.136245
_cell_angle_gamma	90.018163
loop_
_atom_site_label
_atom_site_type_symbol
_atom_site_fract_x
_atom_site_fract_y
_atom_site_fract_z
O1	O	0.921348	0.102731	0.086648
O2	O	0.719087	0.102649	0.098337
O3	O	0.826062	0.102668	-0.008638
O4	O	0.814373	0.102712	0.193623
O5	O	0.826053	-0.101977	-0.008642
O6	O	0.719079	-0.101996	0.098333
O7	O	0.921339	-0.101914	0.086644
Zn8	Zn	0.820208	-0.134447	0.092488
Zn9	Zn	0.820219	0.135181	0.092493
O10	O	0.814365	-0.101933	0.193619
C11	C	0.693207	0.000315	0.097959
C12	C	0.616103	0.000283	0.096830
C13	C	0.571407	0.000316	0.159598
C14	C	0.498960	0.000329	0.158537
C15	C	0.471212	0.000334	0.094705
C16	C	0.515918	0.000294	0.031929
C17	C	0.588364	0.000269	0.032991
C18	C	0.362953	0.072061	0.044527
C19	C	0.290509	0.072094	0.043467
C20	C	0.247767	0.000408	0.091425
C21	C	0.277476	-0.071295	0.140455
C22	C	0.349922	-0.071321	0.141517
C23	C	0.392658	0.000361	0.093546
C24	C	0.124514	0.000454	0.153047
C25	C	0.052066	0.000460	0.151984
C26	C	0.069026	0.000437	0.025374
C27	C	0.141473	0.000419	0.026439
C28	C	0.169212	0.000433	0.090278
N29	N	0.820205	-0.318461	0.092484
C30	C	0.820216	-0.569467	0.092492
C31	C	0.820207	-0.429789	0.092489
C32	C	0.947220	0.000422	0.087022
C33	C	1.024324	0.000463	0.088151
C34	C	0.825682	0.000342	-0.034516
C35	C	0.824553	0.000330	-0.111620
N36	N	0.820227	0.319196	0.092492
C37	C	0.887321	0.000350	-0.156316
C38	C	0.886260	0.000369	-0.228763
C39	C	0.822428	0.000344	-0.256511
C40	C	0.759652	0.000331	-0.211805
C41	C	0.760714	0.000324	-0.139359
C42	C	0.772245	-0.071359	-0.364800
C43	C	0.771185	-0.071360	-0.437244
C44	C	0.819148	0.000370	-0.479956
C45	C	0.868183	0.072085	-0.450217
C46	C	0.869245	0.072078	-0.377771
C47	C	0.821269	0.000352	-0.335065
C48	C	0.880770	0.000412	-0.603209
C49	C	0.879707	0.000438	-0.675657
C50	C	0.753097	0.000388	-0.658697
C51	C	0.754162	0.000374	-0.586250
C52	C	0.818000	0.000380	-0.558511
C53	C	0.814745	0.000396	0.219497
C54	C	0.815874	0.000415	0.296601
H55	H	0.015674	0.000479	0.203099
F56	F	0.635935	0.000233	-0.033818
H57	H	0.937375	0.000390	-0.265162
F58	F	0.258895	0.148418	-0.008708
F59	F	0.948712	0.000412	-0.573684
F60	F	0.451382	0.000361	0.225346
H61	H	0.177866	0.000399	-0.024674
F62	F	0.691717	0.000312	-0.241336
F63	F	0.486386	0.000294	-0.036006
H64	H	0.733186	-0.129777	-0.330028
H65	H	0.374108	-0.129708	0.181437
H66	H	0.397749	0.130444	0.005472
H67	H	0.939303	0.000359	-0.133736
H68	H	0.909169	0.130474	-0.353560
H69	H	0.701123	0.000374	-0.681288
H70	H	0.709599	0.000308	-0.102967
H71	H	0.046435	0.000518	-0.026600
H72	H	0.593987	0.000330	0.211580
F73	F	0.946517	0.000467	-0.723227
H74	H	0.242677	-0.129670	0.179506
F75	F	0.154039	0.000460	0.220989
H76	H	0.907238	0.130495	-0.484992
H77	H	0.703049	0.000351	-0.549857
H78	H	0.731256	-0.129748	-0.461452
