data_functionalizedCrystal
_audit_creation_method	'MofGen! by Chris Wilmer'
_symmetry_space_group_name_H-M	'P1'
_symmetry_Int_Tables_number	1
_symmetry_cell_setting	triclinic
loop_
_symmetry_equiv_pos_as_xyz
  x,y,z
_cell_length_a	16.120484
_cell_length_b	18.215407
_cell_length_c	18.215399
_cell_angle_alpha	90.017777
_cell_angle_beta	92.869789
_cell_angle_gamma	87.078910
loop_
_atom_site_label
_atom_site_type_symbol
_atom_site_fract_x
_atom_site_fract_y
_atom_site_fract_z
Zn1	Zn	-0.332012	-1.110208	-0.430925
Zn2	Zn	0.001321	-0.776874	-0.097591
Zn3	Zn	0.334654	-0.443541	0.235742
Zn4	Zn	-0.471433	-1.103874	-0.314094
Zn5	Zn	-0.138100	-0.770541	0.019239
Zn6	Zn	0.195233	-0.437208	0.352573
Zn7	Zn	-0.332028	-0.987140	-0.307877
Zn8	Zn	0.001305	-0.653806	0.025456
Zn9	Zn	0.334639	-0.320473	0.358789
Zn10	Zn	-0.471375	-0.980867	-0.437121
Zn11	Zn	-0.138042	-0.647534	-0.103787
Zn12	Zn	0.195291	-0.314200	0.229546
O13	O	-0.401712	-1.045522	-0.372504
O14	O	-0.068379	-0.712189	-0.039171
O15	O	0.264954	-0.378855	0.294162
O16	O	-0.350525	-1.212351	-0.415436
O17	O	-0.017191	-0.879018	-0.082102
O18	O	0.316142	-0.545684	0.251231
O19	O	-0.452972	-1.088364	-0.210286
O20	O	-0.119638	-0.755030	0.123047
O21	O	0.213695	-0.421697	0.456380
O22	O	-0.215360	-1.008741	-0.319005
O23	O	0.117973	-0.675407	0.014328
O24	O	0.451306	-0.342074	0.347662
O25	O	-0.452957	-1.207698	-0.329601
O26	O	-0.119623	-0.874365	0.003733
O27	O	0.213710	-0.541031	0.337066
O28	O	-0.215349	-1.099158	-0.409407
O29	O	0.117984	-0.765825	-0.076074
O30	O	0.451318	-0.432492	0.257259
O31	O	-0.350551	-1.002599	-0.205719
O32	O	-0.017218	-0.669266	0.127614
O33	O	0.316115	-0.335933	0.460948
O34	O	-0.350495	-0.883324	-0.325013
O35	O	-0.017162	-0.549991	0.008320
O36	O	0.316172	-0.216657	0.341654
O37	O	-0.452858	-0.998050	-0.539282
O38	O	-0.119524	-0.664716	-0.205948
O39	O	0.213809	-0.331383	0.127385
O40	O	-0.452873	-0.878716	-0.419968
O41	O	-0.119539	-0.545382	-0.086634
O42	O	0.213794	-0.212049	0.246699
O43	O	-0.350468	-1.093076	-0.534730
O44	O	-0.017135	-0.759743	-0.201396
O45	O	0.316198	-0.426409	0.131937
O46	O	-0.588091	-1.082281	-0.335609
O47	O	-0.254758	-0.748948	-0.002275
O48	O	0.078576	-0.415615	0.331058
O49	O	-0.588048	-0.991908	-0.425996
O50	O	-0.254715	-0.658575	-0.092663
O51	O	0.078618	-0.325242	0.240671
C52	C	-0.401680	-0.854317	-0.372488
C53	C	-0.068346	-0.520984	-0.039155
C54	C	0.264987	-0.187651	0.294178
C55	C	-0.401686	-0.772518	-0.372500
C56	C	-0.068353	-0.439185	-0.039167
C57	C	0.264981	-0.105852	0.294167
C58	C	-0.348453	-0.586742	-0.417272
C59	C	-0.015119	-0.253408	-0.083939
C60	C	0.318214	0.079925	0.249395
C61	C	-0.348457	-0.509883	-0.417274
C62	C	-0.015124	-0.176549	-0.083941
C63	C	0.318210	0.156784	0.249393
C64	C	-0.454959	-0.505055	-0.327742
C65	C	-0.121626	-0.171722	0.005592
C66	C	0.211707	0.161611	0.338925
C67	C	-0.454950	-0.581913	-0.327736
C68	C	-0.121617	-0.248580	0.005597
C69	C	0.211717	0.084754	0.338931
C70	C	-0.401698	-0.622754	-0.372506
C71	C	-0.068365	-0.289421	-0.039172
C72	C	0.264969	0.043913	0.294161
C73	C	-0.401712	-0.469037	-0.372513
C74	C	-0.068378	-0.135704	-0.039180
C75	C	0.264955	0.197629	0.294154
C76	C	-0.401717	-0.385704	-0.372515
C77	C	-0.068383	-0.052370	-0.039182
C78	C	0.264950	0.280963	0.294152
C79	C	-0.401692	-0.706093	-0.372503
C80	C	-0.068358	-0.372760	-0.039169
C81	C	0.264975	-0.039427	0.294164
C82	C	-0.618320	-1.035747	-0.382165
C83	C	-0.284986	-0.702414	-0.048832
C84	C	0.048347	-0.369080	0.284501
C85	C	-0.710985	-1.031632	-0.386323
C86	C	-0.377652	-0.698299	-0.052990
C87	C	-0.044319	-0.364966	0.280344
C88	C	-0.880647	-1.024125	-0.393929
C89	C	-0.547313	-0.690791	-0.060595
C90	C	-0.213980	-0.357458	0.272738
C91	C	-0.921937	-1.067052	-0.351092
C92	C	-0.588604	-0.733718	-0.017758
C93	C	-0.255271	-0.400385	0.315575
C94	C	-1.016343	-1.062874	-0.355324
C95	C	-0.683009	-0.729541	-0.021990
C96	C	-0.349676	-0.396208	0.311343
C97	C	-0.786233	-1.028301	-0.389698
C98	C	-0.452899	-0.694968	-0.056364
C99	C	-0.119566	-0.361634	0.276969
C100	C	-0.184259	-1.055356	-0.362822
C101	C	0.149074	-0.722022	-0.029488
C102	C	0.482408	-0.388689	0.303845
C103	C	-0.091593	-1.059546	-0.358695
C104	C	0.241740	-0.726213	-0.025362
C105	C	0.575073	-0.392879	0.307971
C106	C	-0.401655	-1.045570	-0.564455
C107	C	-0.068321	-0.712236	-0.231121
C108	C	0.265012	-0.378903	0.102212
C109	C	-0.401630	-1.045590	-0.646252
C110	C	-0.068297	-0.712256	-0.312919
C111	C	0.265036	-0.378923	0.020414
C112	C	-0.401736	-0.237474	-0.372518
C113	C	-0.068403	0.095859	-0.039185
C114	C	0.264930	0.429193	0.294148
C115	C	-0.401724	-0.319273	-0.372519
C116	C	-0.068390	0.014060	-0.039185
C117	C	0.264943	0.347393	0.294148
C118	C	-0.348266	-1.095089	-0.832075
C119	C	-0.014933	-0.761756	-0.498742
C120	C	0.318400	-0.428422	-0.165408
C121	C	-0.348242	-1.095099	-0.908933
C122	C	-0.014909	-0.761766	-0.575599
C123	C	0.318425	-0.428432	-0.242266
C124	C	-0.454865	-0.996148	-0.913662
C125	C	-0.121532	-0.662815	-0.580329
C126	C	0.211801	-0.329482	-0.246995
C127	C	-0.454885	-0.996136	-0.836805
C128	C	-0.121551	-0.662802	-0.503472
C129	C	0.211782	-0.329469	-0.170139
C130	C	-0.401587	-1.045610	-0.796014
C131	C	-0.068253	-0.712277	-0.462681
C132	C	0.265080	-0.378943	-0.129347
C133	C	-0.401543	-1.045633	-0.949728
C134	C	-0.068209	-0.712299	-0.616395
C135	C	0.265124	-0.378966	-0.283062
C136	C	-0.401517	-1.045643	-1.033061
C137	C	-0.068183	-0.712310	-0.699728
C138	C	0.265150	-0.378976	-0.366394
C139	C	-0.401611	-1.045599	-0.712676
C140	C	-0.068278	-0.712266	-0.379343
C141	C	0.265056	-0.378932	-0.046009
C142	C	-0.401709	-1.045520	-0.181298
C143	C	-0.068376	-0.712187	0.152036
C144	C	0.264957	-0.378853	0.485369
C145	C	-0.401499	-1.045653	-0.099490
C146	C	-0.068166	-0.712320	0.233843
C147	C	0.265168	-0.378986	0.567177
H148	H	-0.305098	-0.480565	-0.453726
H149	H	0.028235	-0.147231	-0.120393
H150	H	0.361569	0.186102	0.212940
H151	H	-0.304865	-1.135372	-0.798865
H152	H	0.028468	-0.802039	-0.465531
H153	H	0.361801	-0.468706	-0.132198
H154	H	-0.498316	-0.471793	-0.291293
H155	H	-0.164983	-0.138460	0.042041
H156	H	0.168351	0.194873	0.375374
H157	H	-0.305089	-0.619992	-0.453724
H158	H	0.028245	-0.286659	-0.120390
H159	H	0.361578	0.046674	0.212943
C160	C	-0.513526	-0.621530	-0.278493
C161	C	-0.180192	-0.288196	0.054840
C162	C	0.153141	0.045137	0.388174
H163	H	-0.545251	-0.586199	-0.251839
H164	H	-0.211917	-0.252866	0.081494
H165	H	0.121416	0.080467	0.414828
H166	H	-0.481586	-0.652938	-0.245047
H167	H	-0.148252	-0.319605	0.088286
H168	H	0.185081	0.013729	0.421619
H169	H	-0.549888	-0.649885	-0.308220
H170	H	-0.216555	-0.316552	0.025113
H171	H	0.116778	0.016782	0.358446
H172	H	-0.498304	-0.955839	-0.807444
H173	H	-0.164970	-0.622505	-0.474111
H174	H	0.168363	-0.289172	-0.140777
H175	H	-0.304822	-1.135389	-0.938290
H176	H	0.028511	-0.802055	-0.604957
H177	H	0.361845	-0.468722	-0.271623
H178	H	-0.886387	-1.106939	-0.311239
H179	H	-0.553053	-0.773606	0.022094
H180	H	-0.219720	-0.440273	0.355428
H181	H	-0.498261	-0.955870	-0.946884
H182	H	-0.164927	-0.622536	-0.613550
H183	H	0.168406	-0.289203	-0.280217
H184	H	-0.916195	-0.984239	-0.433777
H185	H	-0.582862	-0.650906	-0.100444
H186	H	-0.249528	-0.317572	0.232889
