data_functionalizedCrystal
_audit_creation_method	'MofGen! by Chris Wilmer'
_symmetry_space_group_name_H-M	'P1'
_symmetry_Int_Tables_number	1
_symmetry_cell_setting	triclinic
loop_
_symmetry_equiv_pos_as_xyz
  x,y,z
_cell_length_a	13.032831
_cell_length_b	13.032721
_cell_length_c	12.759393
_cell_angle_alpha	82.850774
_cell_angle_beta	97.194585
_cell_angle_gamma	90.902885
loop_
_atom_site_label
_atom_site_type_symbol
_atom_site_fract_x
_atom_site_fract_y
_atom_site_fract_z
Zn1	Zn	1.520308	-0.609339	0.865598
Zn2	Zn	1.498338	-0.781324	0.709064
Zn3	Zn	1.348311	-0.587516	0.665221
Zn4	Zn	1.326456	-0.759386	0.859989
O5	O	1.423354	-0.684391	0.774968
O6	O	1.661309	-0.650468	0.865529
O7	O	1.478389	-0.755663	0.556227
O8	O	1.389468	-0.446506	0.675800
O9	O	1.645168	-0.776824	0.750524
O10	O	1.515833	-0.462539	0.823016
O11	O	1.368165	-0.613272	0.524015
O12	O	1.201497	-0.592000	0.670361
O13	O	1.352219	-0.739435	1.007754
O14	O	1.185440	-0.718273	0.813456
O15	O	1.494641	-0.629196	1.011875
O16	O	1.457197	-0.922319	0.745085
O17	O	1.330916	-0.906201	0.855969
C18	C	1.156153	-0.650389	0.736543
C19	C	1.041841	-0.635867	0.720133
C20	C	1.389329	-0.951577	0.804703
C21	C	1.374867	-1.065891	0.817473
C22	C	0.982947	-0.691971	0.783533
C23	C	0.864799	-0.676963	0.766573
C24	C	1.430956	-1.124804	0.768358
C25	C	1.416010	-1.242954	0.781555
C26	C	1.691597	-0.718527	0.813543
C27	C	1.805906	-0.733074	0.829982
C28	C	1.423443	-0.684302	1.049001
C29	C	1.423481	-0.684265	1.165778
C30	C	1.457539	-0.416166	0.745143
C31	C	1.472107	-0.301865	0.732434
C32	C	1.423333	-0.684413	0.502001
C33	C	1.423531	-0.684187	0.385221
C34	C	1.497647	-0.626853	1.222787
C35	C	1.497670	-0.626811	1.332509
C36	C	1.349358	-0.741600	1.328203
C37	C	1.349331	-0.741636	1.218482
H38	H	0.827756	-0.617812	0.699738
H39	H	1.019995	-0.751109	0.850370
C40	C	1.485307	-1.097993	0.594032
C41	C	1.510719	-1.074821	0.698399
H42	H	1.534555	-1.067142	0.550844
H43	H	1.418419	-1.071718	0.566737
H44	H	1.485732	-1.170838	0.593736
H45	H	1.510287	-1.001977	0.698696
H46	H	1.577624	-1.101092	0.725700
C47	C	1.336873	-1.400302	0.851045
C48	C	1.336240	-1.292932	0.851514
H49	H	1.287622	-1.431154	0.894230
H50	H	1.403762	-1.426565	0.878354
H51	H	1.319646	-1.416002	0.780233
H52	H	1.353474	-1.277231	0.922326
H53	H	1.269336	-1.266660	0.824209
C54	C	1.526471	-1.275069	0.558107
C55	C	1.551880	-1.251894	0.662473
H56	H	1.575724	-1.244225	0.514921
H57	H	1.459587	-1.248789	0.530808
H58	H	1.526890	-1.347914	0.557814
H59	H	1.551454	-1.179049	0.662767
H60	H	1.618782	-1.278170	0.689780
C61	C	1.320515	-1.092706	0.991799
C62	C	1.295104	-1.115875	0.887432
H63	H	1.271275	-1.123568	1.034990
H64	H	1.320087	-1.019871	0.992100
H65	H	1.387414	-1.118981	1.019093
H66	H	1.228208	-1.089593	0.860135
H67	H	1.295522	-1.188724	0.887126
C68	C	0.963265	-0.812335	0.919556
C69	C	0.855901	-0.812921	0.920217
H70	H	0.994127	-0.861632	0.975260
H71	H	0.989608	-0.745478	0.929862
H72	H	0.978873	-0.829516	0.853101
H73	H	0.840293	-0.795733	0.986670
H74	H	0.829549	-0.879793	0.909919
H75	H	1.558022	-0.580135	1.179878
C76	C	1.202754	-0.855065	1.312926
C77	C	1.267860	-0.804669	1.386140
H78	H	1.152438	-0.893998	1.348693
H79	H	1.242537	-0.900114	1.280952
H80	H	1.169118	-0.805255	1.259487
H81	H	1.301501	-0.854479	1.439575
H82	H	1.228072	-0.759616	1.418131
H83	H	1.558061	-0.580059	1.378920
C84	C	1.317380	-0.878180	1.108402
C85	C	1.267804	-0.804747	1.155806
H86	H	1.267048	-0.917132	1.069702
H87	H	1.357170	-0.923205	1.162024
H88	H	1.361531	-0.843999	1.061315
H89	H	1.223659	-0.838928	1.202899
H90	H	1.227996	-0.759716	1.102177
C91	C	1.014889	-0.581366	0.531960
C92	C	0.991850	-0.556023	0.629898
H93	H	0.984036	-0.532068	0.476253
H94	H	0.988530	-0.648219	0.521663
H95	H	1.087731	-0.580980	0.531541
H96	H	0.919008	-0.556417	0.630321
H97	H	1.018204	-0.489153	0.640198
