data_functionalizedCrystal
_audit_creation_method	'MofGen! by Chris Wilmer'
_symmetry_space_group_name_H-M	'P1'
_symmetry_Int_Tables_number	1
_symmetry_cell_setting	triclinic
loop_
_symmetry_equiv_pos_as_xyz
  x,y,z
_cell_length_a	16.120490
_cell_length_b	10.686285
_cell_length_c	10.685314
_cell_angle_alpha	90.303498
_cell_angle_beta	91.677276
_cell_angle_gamma	82.516228
loop_
_atom_site_label
_atom_site_type_symbol
_atom_site_fract_x
_atom_site_fract_y
_atom_site_fract_z
Zn1	Zn	1.269532	-0.658195	-0.760370
Zn2	Zn	1.769532	-0.158195	-0.260370
Zn3	Zn	1.290738	-0.853682	-0.536035
Zn4	Zn	1.790738	-0.353682	-0.036035
Zn5	Zn	1.139841	-0.631514	-0.541493
Zn6	Zn	1.639841	-0.131514	-0.041493
Zn7	Zn	1.141484	-0.857367	-0.735253
Zn8	Zn	1.641484	-0.357367	-0.235253
O9	O	1.210398	-0.750189	-0.643288
O10	O	1.710398	-0.250189	-0.143288
O11	O	1.389084	-0.693751	-0.738838
O12	O	1.889084	-0.193751	-0.238838
O13	O	1.278908	-0.811502	-0.361785
O14	O	1.778908	-0.311502	0.138215
O15	O	1.147482	-0.458721	-0.583323
O16	O	1.647482	0.041279	-0.083323
O17	O	1.404664	-0.837374	-0.574021
O18	O	1.904664	-0.337374	-0.074021
O19	O	1.242766	-0.478324	-0.744131
O20	O	1.742766	0.021676	-0.244131
O21	O	1.168045	-0.648276	-0.365795
O22	O	1.668045	-0.148276	0.134205
O23	O	1.023320	-0.651849	-0.558969
O24	O	1.523320	-0.151849	-0.058969
O25	O	1.150283	-0.843654	-0.913559
O26	O	1.650283	-0.343654	-0.413559
O27	O	1.024527	-0.817783	-0.701323
O28	O	1.524527	-0.317783	-0.201323
O29	O	1.244359	-0.697324	-0.932012
O30	O	1.744359	-0.197324	-0.432012
O31	O	1.280501	-1.030502	-0.549666
O32	O	1.780501	-0.530502	-0.049666
O33	O	1.170845	-1.033210	-0.696031
O34	O	1.670845	-0.533210	-0.196031
C35	C	1.228174	-1.077581	-0.619560
C36	C	1.728174	-0.577581	-0.119560
C37	C	1.235852	-1.217650	-0.609456
C38	C	1.735852	-0.717650	-0.109456
C39	C	0.993654	-0.732322	-0.628013
C40	C	1.493654	-0.232322	-0.128013
C41	C	0.900930	-0.724710	-0.621506
C42	C	1.400930	-0.224710	-0.121506
C43	C	0.690481	-0.789661	-0.677043
C44	C	1.190481	-0.289661	-0.177043
C45	C	0.731168	-0.710825	-0.609624
C46	C	1.231168	-0.210825	-0.109624
C47	C	0.825633	-0.718553	-0.616237
C48	C	1.325633	-0.218553	-0.116237
C49	C	0.596008	-0.781935	-0.670431
C50	C	1.096008	-0.281935	-0.170431
C51	C	1.427989	-0.768128	-0.658622
C52	C	1.927989	-0.268128	-0.158622
C53	C	1.520714	-0.775772	-0.665157
C54	C	2.020714	-0.275772	-0.165157
C55	C	1.195138	-0.773877	-0.969423
C56	C	1.695138	-0.273877	-0.469423
C57	C	1.188636	-0.783971	-1.108402
C58	C	1.688636	-0.283971	-0.608402
C59	C	1.192575	-0.421523	-0.667137
C60	C	1.692575	0.078477	-0.167137
C61	C	1.184980	-0.281465	-0.677300
C62	C	1.684980	0.218535	-0.177300
C63	C	1.225642	-0.726507	-0.318431
C64	C	1.725642	-0.226507	0.181569
C65	C	1.232287	-0.716071	-0.179490
C66	C	1.732287	-0.216071	0.320510
H67	H	1.135552	-1.228945	-0.743116
H68	H	1.635552	-0.728945	-0.243116
Cl69	Cl	1.312162	-1.298738	-0.507819
Cl70	Cl	1.812162	-0.798738	-0.007819
H71	H	0.695057	-0.637528	-0.546937
H72	H	1.195057	-0.137528	-0.046937
Cl73	Cl	0.746232	-0.902833	-0.773806
Cl74	Cl	1.246232	-0.402833	-0.273806
Cl75	Cl	1.297659	-0.614376	-1.109304
Cl76	Cl	1.797659	-0.114376	-0.609304
Cl77	Cl	1.123251	-0.885656	-1.178593
Cl78	Cl	1.623251	-0.385656	-0.678593
