data_functionalizedCrystal
_audit_creation_method	'MofGen! by Chris Wilmer'
_symmetry_space_group_name_H-M	'P1'
_symmetry_Int_Tables_number	1
_symmetry_cell_setting	triclinic
loop_
_symmetry_equiv_pos_as_xyz
  x,y,z
_cell_length_a	29.839134
_cell_length_b	29.839131
_cell_length_c	29.839125
_cell_angle_alpha	89.982291
_cell_angle_beta	89.975687
_cell_angle_gamma	90.034165
loop_
_atom_site_label
_atom_site_type_symbol
_atom_site_fract_x
_atom_site_fract_y
_atom_site_fract_z
Zn1	Zn	0.686720	-0.179003	-0.254153
Zn2	Zn	1.186720	0.320997	0.245847
Zn3	Zn	0.686652	-0.254115	-0.179023
Zn4	Zn	1.186652	0.245885	0.320977
Zn5	Zn	0.611602	-0.178991	-0.179019
Zn6	Zn	1.111602	0.321009	0.320981
Zn7	Zn	0.611550	-0.254097	-0.254108
Zn8	Zn	1.111550	0.245903	0.245892
O9	O	0.649131	-0.216552	-0.216576
O10	O	1.149131	0.283448	0.283424
O11	O	0.749578	-0.188980	-0.244207
O12	O	1.249578	0.311020	0.255793
O13	O	0.676690	-0.244152	-0.116155
O14	O	1.176690	0.255848	0.383845
O15	O	0.621617	-0.116125	-0.189003
O16	O	1.121617	0.383875	0.310997
O17	O	0.749528	-0.244164	-0.189009
O18	O	1.249528	0.255836	0.310991
O19	O	0.676805	-0.116134	-0.244204
O20	O	1.176805	0.383866	0.255796
O21	O	0.621551	-0.188958	-0.116153
O22	O	1.121551	0.311042	0.383847
O23	O	0.548728	-0.188941	-0.188960
O24	O	1.048728	0.311059	0.311040
O25	O	0.621528	-0.244134	-0.316981
O26	O	1.121528	0.255866	0.183019
O27	O	0.548690	-0.244122	-0.244127
O28	O	1.048690	0.255878	0.255873
O29	O	0.676755	-0.188962	-0.317014
O30	O	1.176755	0.311038	0.182986
O31	O	0.676639	-0.316980	-0.188966
O32	O	1.176639	0.183020	0.311034
O33	O	0.621462	-0.316967	-0.244131
O34	O	1.121462	0.183033	0.255869
C35	C	0.532408	-0.216528	-0.216539
C36	C	1.032408	0.283472	0.283461
C37	C	0.482474	-0.216529	-0.216534
C38	C	0.982474	0.283471	0.283466
C39	C	0.125894	-0.187777	-0.187909
C40	C	0.625894	0.312223	0.312091
C41	C	0.313567	-0.187764	-0.187882
C42	C	0.813567	0.312236	0.312118
O43	O	0.337838	-0.163279	-0.163502
O44	O	0.837838	0.336721	0.336498
N45	N	0.337029	-0.216536	-0.216556
N46	N	0.837029	0.283464	0.283444
C47	C	0.313569	-0.245312	-0.245242
C48	C	0.813569	0.254688	0.254758
O49	O	0.337831	-0.269781	-0.269634
O50	O	0.837831	0.230219	0.230366
C51	C	0.125897	-0.245322	-0.245271
C52	C	0.625897	0.254678	0.254729
C53	C	0.102438	-0.216551	-0.216591
C54	C	0.602438	0.283449	0.283409
C55	C	0.102435	-0.159007	-0.159232
C56	C	0.602435	0.340993	0.340768
C57	C	0.055520	-0.159013	-0.159237
C58	C	0.555520	0.340987	0.340763
C59	C	0.032063	-0.187787	-0.187920
C60	C	0.532063	0.312213	0.312080
C61	C	0.055522	-0.216556	-0.216597
C62	C	0.555522	0.283444	0.283403
C63	C	0.102438	-0.274095	-0.273958
C64	C	0.602438	0.225905	0.226042
C65	C	0.055517	-0.274094	-0.273964
C66	C	0.555517	0.225906	0.226036
C67	C	0.032058	-0.245323	-0.245284
C68	C	0.532058	0.254677	0.254716
C69	C	-0.014849	-0.245336	-0.245284
C70	C	0.485151	0.254664	0.254716
N71	N	-0.038311	-0.216563	-0.216610
N72	N	0.461689	0.283437	0.283390
C73	C	-0.014854	-0.187789	-0.187927
C74	C	0.485146	0.312211	0.312073
C75	C	0.412100	-0.245305	-0.245224
C76	C	0.912100	0.254695	0.254776
C77	C	0.459018	-0.245303	-0.245216
C78	C	0.959018	0.254697	0.254784
C79	C	0.459013	-0.187755	-0.187856
C80	C	0.959013	0.312245	0.312144
C81	C	0.412094	-0.187759	-0.187862
C82	C	0.912094	0.312241	0.312138
C83	C	0.388638	-0.216533	-0.216549
C84	C	0.888638	0.283467	0.283451
C85	C	-0.113380	-0.187802	-0.187941
C86	C	0.386620	0.312198	0.312059
C87	C	-0.160300	-0.187811	-0.187947
C88	C	0.339700	0.312189	0.312053
C89	C	-0.160291	-0.245358	-0.245308
C90	C	0.339709	0.254642	0.254692
C91	C	-0.113375	-0.245351	-0.245300
C92	C	0.386625	0.254649	0.254700
C93	C	-0.089921	-0.216569	-0.216615
C94	C	0.410079	0.283431	0.283385
O95	O	-0.039149	-0.269804	-0.269654
O96	O	0.460851	0.230196	0.230346
O97	O	-0.039124	-0.163316	-0.163546
O98	O	0.460876	0.336684	0.336454
C99	C	0.172810	-0.187771	-0.187904
C100	C	0.672810	0.312229	0.312096
C101	C	0.196269	-0.216541	-0.216580
C102	C	0.696269	0.283459	0.283420
C103	C	0.172812	-0.245315	-0.245263
C104	C	0.672812	0.254685	0.254737
C105	C	0.243187	-0.216539	-0.216573
C106	C	0.743187	0.283461	0.283427
C107	C	0.266643	-0.187764	-0.187890
C108	C	0.766643	0.312236	0.312110
C109	C	0.243182	-0.158992	-0.159216
C110	C	0.743182	0.341008	0.340784
C111	C	0.196266	-0.158997	-0.159221
C112	C	0.696266	0.341003	0.340779
C113	C	0.196274	-0.274087	-0.273937
C114	C	0.696274	0.225913	0.226063
C115	C	0.243189	-0.274080	-0.273929
C116	C	0.743189	0.225920	0.226071
C117	C	0.266646	-0.245306	-0.245247
C118	C	0.766646	0.254694	0.254753
C119	C	0.649050	-0.333274	-0.216554
C120	C	1.149050	0.166726	0.283446
C121	C	0.649056	-0.383209	-0.216559
C122	C	1.149056	0.116791	0.283441
C123	C	0.677914	-0.692846	-0.187894
C124	C	1.177914	-0.192846	0.312106
C125	C	0.677969	-0.880519	-0.187911
C126	C	1.177969	-0.380519	0.312089
O127	O	0.702441	-0.904779	-0.163521
O128	O	1.202441	-0.404779	0.336479
N129	N	0.649224	-0.903994	-0.216610
N130	N	1.149224	-0.403994	0.283390
C131	C	0.620465	-0.880547	-0.245308
C132	C	1.120465	-0.380547	0.254692
O133	O	0.596020	-0.904820	-0.269722
O134	O	1.096020	-0.404820	0.230278
C135	C	0.620412	-0.692875	-0.245293
C136	C	1.120412	-0.192875	0.254707
C137	C	0.649156	-0.669403	-0.216589
C138	C	1.149156	-0.169403	0.283411
C139	C	0.706656	-0.669374	-0.159192
C140	C	1.206656	-0.169374	0.340808
C141	C	0.706640	-0.622459	-0.159187
C142	C	1.206640	-0.122459	0.340813
C143	C	0.677882	-0.599015	-0.187882
C144	C	1.177882	-0.099015	0.312118
C145	C	0.649140	-0.622487	-0.216583
C146	C	1.149140	-0.122487	0.283417
C147	C	0.591656	-0.669429	-0.273993
C148	C	1.091656	-0.169429	0.226007
C149	C	0.591646	-0.622508	-0.273988
C150	C	1.091646	-0.122508	0.226012
C151	C	0.620390	-0.599036	-0.245284
C152	C	1.120390	-0.099036	0.254716
C153	C	0.620367	-0.552128	-0.245273
C154	C	1.120367	-0.052128	0.254727
N155	N	0.649112	-0.528654	-0.216574
N156	N	1.149112	-0.028654	0.283426
C157	C	0.677869	-0.552097	-0.187879
C158	C	1.177869	-0.052097	0.312121
C159	C	0.620494	-0.979078	-0.245314
C160	C	1.120494	-0.479078	0.254686
C161	C	0.620507	-1.025995	-0.245317
C162	C	1.120507	-0.525995	0.254683
C163	C	0.678012	-1.025964	-0.187920
C164	C	1.178012	-0.525964	0.312080
C165	C	0.677996	-0.979046	-0.187915
C166	C	1.177996	-0.479046	0.312085
C167	C	0.649239	-0.955603	-0.216615
C168	C	1.149239	-0.455603	0.283385
C169	C	0.677834	-0.453572	-0.187868
C170	C	1.177834	0.046428	0.312132
C171	C	0.677814	-0.406652	-0.187864
C172	C	1.177814	0.093348	0.312136
C173	C	0.620311	-0.406687	-0.245262
C174	C	1.120311	0.093313	0.254738
C175	C	0.620329	-0.453603	-0.245265
C176	C	1.120329	0.046397	0.254735
C177	C	0.649094	-0.477044	-0.216567
C178	C	1.149094	0.022956	0.283433
O179	O	0.595912	-0.527840	-0.269653
O180	O	1.095912	-0.027840	0.230347
O181	O	0.702318	-0.527817	-0.163475
O182	O	1.202318	-0.027817	0.336525
C183	C	0.677930	-0.739762	-0.187899
C184	C	1.177930	-0.239762	0.312101
C185	C	0.649188	-0.763234	-0.216601
C186	C	1.149188	-0.263234	0.283399
C187	C	0.620430	-0.739790	-0.245296
C188	C	1.120430	-0.239790	0.254704
C189	C	0.649200	-0.810152	-0.216604
C190	C	1.149200	-0.310152	0.283396
C191	C	0.677958	-0.833595	-0.187909
C192	C	1.177958	-0.333595	0.312091
C193	C	0.706703	-0.810120	-0.159210
C194	C	1.206703	-0.310120	0.340790
C195	C	0.706687	-0.763205	-0.159204
C196	C	1.206687	-0.263205	0.340796
C197	C	0.591685	-0.763265	-0.273995
C198	C	1.091685	-0.263265	0.226005
C199	C	0.591703	-0.810180	-0.273998
C200	C	1.091703	-0.310180	0.226002
C201	C	0.620461	-0.833624	-0.245302
C202	C	1.120461	-0.333624	0.254698
C203	C	0.766309	-0.216575	-0.216613
C204	C	1.266309	0.283425	0.283387
C205	C	0.816244	-0.216586	-0.216629
C206	C	1.316244	0.283414	0.283371
C207	C	0.649143	-0.216548	-0.333754
C208	C	1.149143	0.283452	0.166246
C209	C	0.649148	-0.216546	-0.383689
C210	C	1.149148	0.283454	0.116311
C211	C	0.649225	-0.099373	-0.216608
C212	C	1.149225	0.400627	0.283392
C213	C	0.649265	-0.049439	-0.216622
C214	C	1.149265	0.450561	0.283378
C215	C	0.677935	-0.187743	-0.693352
C216	C	1.177935	0.312257	-0.193352
C217	C	0.677957	-0.187705	-0.881026
C218	C	1.177957	0.312295	-0.381026
O219	O	0.702399	-0.163258	-0.905307
O220	O	1.202399	0.336742	-0.405307
N221	N	0.649208	-0.216426	-0.904474
N222	N	1.149208	0.283574	-0.404474
C223	C	0.620449	-0.245156	-0.881001
C224	C	1.120449	0.254844	-0.381001
O225	O	0.595993	-0.269581	-0.905252
O226	O	1.095993	0.230419	-0.405252
C227	C	0.620424	-0.245192	-0.693329
C228	C	1.120424	0.254808	-0.193329
C229	C	0.649179	-0.216472	-0.669883
C230	C	1.149179	0.283528	-0.169883
C231	C	0.706687	-0.159025	-0.669906
C232	C	1.206687	0.340975	-0.169906
C233	C	0.706683	-0.159037	-0.622991
C234	C	1.206683	0.340963	-0.122991
C235	C	0.677927	-0.187766	-0.599521
C236	C	1.177927	0.312234	-0.099521
C237	C	0.649175	-0.216484	-0.622968
C238	C	1.149175	0.283516	-0.122968
C239	C	0.591663	-0.273920	-0.669857
C240	C	1.091663	0.226080	-0.169857
C241	C	0.591659	-0.273925	-0.622936
C242	C	1.091659	0.226075	-0.122936
C243	C	0.620414	-0.245206	-0.599490
C244	C	1.120414	0.254794	-0.099490
C245	C	0.620415	-0.245225	-0.552583
C246	C	1.120415	0.254775	-0.052583
N247	N	0.649164	-0.216504	-0.529134
N248	N	1.149164	0.283496	-0.029134
C249	C	0.677920	-0.187774	-0.552604
C250	C	1.177920	0.312226	-0.052604
C251	C	0.620464	-0.245136	-0.979532
C252	C	1.120464	0.254864	-0.479532
C253	C	0.620471	-0.245128	-1.026450
C254	C	1.120471	0.254872	-0.526450
C255	C	0.677979	-0.187675	-1.026471
C256	C	1.177979	0.312325	-0.526471
C257	C	0.677974	-0.187686	-0.979552
C258	C	1.177974	0.312314	-0.479552
C259	C	0.649214	-0.216415	-0.956084
C260	C	1.149214	0.283585	-0.456084
C261	C	0.677910	-0.187801	-0.454078
C262	C	1.177910	0.312199	0.045922
C263	C	0.677904	-0.187817	-0.407158
C264	C	1.177904	0.312183	0.092842
C265	C	0.620395	-0.245267	-0.407141
C266	C	1.120395	0.254733	0.092859
C267	C	0.620401	-0.245253	-0.454057
C268	C	1.120401	0.254747	0.045943
C269	C	0.649161	-0.216517	-0.477524
C270	C	1.149161	0.283483	0.022476
O271	O	0.595982	-0.269655	-0.528272
O272	O	1.095982	0.230345	-0.028272
O273	O	0.702366	-0.163346	-0.528345
O274	O	1.202366	0.336654	-0.028345
C275	C	0.677939	-0.187731	-0.740268
C276	C	1.177939	0.312269	-0.240268
C277	C	0.649187	-0.216449	-0.763714
C278	C	1.149187	0.283551	-0.263714
C279	C	0.620431	-0.245178	-0.740245
C280	C	1.120431	0.254822	-0.240245
C281	C	0.649194	-0.216441	-0.810632
C282	C	1.149194	0.283559	-0.310632
C283	C	0.677950	-0.187711	-0.834101
C284	C	1.177950	0.312289	-0.334101
C285	C	0.706699	-0.158990	-0.810653
C286	C	1.206699	0.341010	-0.310653
C287	C	0.706695	-0.159002	-0.763737
C288	C	1.206695	0.340998	-0.263737
C289	C	0.591682	-0.273899	-0.763693
C290	C	1.091682	0.226101	-0.263693
C291	C	0.591689	-0.273886	-0.810609
C292	C	1.091689	0.226114	-0.310609
C293	C	0.620445	-0.245156	-0.834078
C294	C	1.120445	0.254844	-0.334078
C295	C	0.649145	-0.216523	-0.099853
C296	C	1.149145	0.283477	0.400147
C297	C	0.649227	-0.216398	-0.049919
C298	C	1.149227	0.283602	0.450081
H299	H	0.262288	-0.135564	-0.135860
H300	H	0.762288	0.364436	0.364140
H301	H	0.568268	-0.744181	-0.297363
H302	H	1.068268	-0.244181	0.202637
H303	H	0.730097	-0.135650	-0.603905
H304	H	1.230097	0.364350	-0.103905
C305	C	-0.087585	-0.156145	-0.156386
C306	C	0.412415	0.343855	0.343614
C307	C	-0.094014	-0.105079	-0.160141
C308	C	0.405986	0.394921	0.339859
C309	C	-0.068218	-0.073425	-0.128584
C310	C	0.431782	0.426575	0.371416
C311	C	-0.035994	-0.092835	-0.093273
C312	C	0.464006	0.407165	0.406727
C313	C	-0.029563	-0.143902	-0.089516
C314	C	0.470437	0.356098	0.410484
C315	C	-0.055359	-0.175557	-0.121073
C316	C	0.444641	0.324443	0.378927
H317	H	-0.117869	-0.090709	-0.186282
H318	H	0.382131	0.409291	0.313718
H319	H	-0.072978	-0.035621	-0.131365
H320	H	0.427022	0.464379	0.368635
H321	H	-0.016898	-0.069402	-0.069913
H322	H	0.483102	0.430598	0.430087
H323	H	-0.005708	-0.158273	-0.063375
H324	H	0.494292	0.341727	0.436625
H325	H	-0.050599	-0.213361	-0.118292
H326	H	0.449401	0.286639	0.381708
H327	H	0.568292	-0.829287	-0.297372
H328	H	1.068292	-0.329287	0.202628
H329	H	0.701220	-0.387543	-0.164488
H330	H	1.201220	0.112457	0.335512
H331	H	0.262286	-0.297513	-0.297283
H332	H	0.762286	0.202487	0.202717
H333	H	0.701327	-0.164400	-0.473179
H334	H	1.201327	0.335600	0.026821
C335	C	-0.186105	-0.156160	-0.156399
C336	C	0.313895	0.343840	0.343601
C337	C	-0.218387	-0.175577	-0.121095
C338	C	0.281613	0.324423	0.378905
C339	C	-0.244191	-0.143927	-0.089549
C340	C	0.255809	0.356073	0.410451
C341	C	-0.237712	-0.092860	-0.093307
C342	C	0.262288	0.407140	0.406693
C343	C	-0.205429	-0.073441	-0.128613
C344	C	0.294571	0.426559	0.371387
C345	C	-0.179625	-0.105091	-0.160159
C346	C	0.320375	0.394909	0.339841
H347	H	-0.223184	-0.213382	-0.118312
H348	H	0.276816	0.286618	0.381688
H349	H	-0.268089	-0.158303	-0.063414
H350	H	0.231911	0.341697	0.436586
H351	H	-0.256813	-0.069431	-0.069955
H352	H	0.243187	0.430569	0.430045
H353	H	-0.200631	-0.035636	-0.131396
H354	H	0.299369	0.464364	0.368604
H355	H	-0.155727	-0.090715	-0.186294
H356	H	0.344273	0.409285	0.313706
H357	H	0.568233	-0.297315	-0.603831
H358	H	1.068233	0.202685	-0.103831
C359	C	0.738323	-0.127407	-0.737950
C360	C	1.238323	0.372593	-0.237950
C361	C	0.773579	-0.146881	-0.705706
C362	C	1.273579	0.353119	-0.205706
C363	C	0.805207	-0.115283	-0.679922
C364	C	1.305207	0.384717	-0.179922
C365	C	0.801579	-0.064211	-0.686382
C366	C	1.301579	0.435789	-0.186382
C367	C	0.766322	-0.044733	-0.718628
C368	C	1.266322	0.455267	-0.218628
C369	C	0.734693	-0.076331	-0.744412
C370	C	1.234693	0.423669	-0.244412
H371	H	0.776266	-0.184691	-0.700922
H372	H	1.276266	0.315309	-0.200922
H373	H	0.831308	-0.129702	-0.656051
H374	H	1.331308	0.370298	-0.156051
H375	H	0.824993	-0.040820	-0.667295
H376	H	1.324993	0.459180	-0.167295
H377	H	0.763635	-0.006924	-0.723412
H378	H	1.263635	0.493076	-0.223412
H379	H	0.708593	-0.061913	-0.768282
H380	H	1.208593	0.438087	-0.268282
H381	H	0.730115	-0.135600	-0.829770
H382	H	1.230115	0.364400	-0.329770
H383	H	0.701321	-0.164429	-0.388070
H384	H	1.201321	0.335571	0.111930
C385	C	0.560043	-0.305502	-0.737886
C386	C	1.060043	0.194498	-0.237886
C387	C	0.524777	-0.286037	-0.705627
C388	C	1.024777	0.213963	-0.205627
C389	C	0.493134	-0.317642	-0.679824
C390	C	0.993134	0.182358	-0.179824
C391	C	0.496757	-0.368713	-0.686279
C392	C	0.996757	0.131287	-0.186279
C393	C	0.532023	-0.388180	-0.718539
C394	C	1.032023	0.111820	-0.218539
C395	C	0.563666	-0.356575	-0.744342
C396	C	1.063666	0.143425	-0.244342
H397	H	0.522095	-0.248229	-0.700847
H398	H	1.022095	0.251771	-0.200847
H399	H	0.467028	-0.303231	-0.655943
H400	H	0.967028	0.196769	-0.155943
H401	H	0.473333	-0.392109	-0.667178
H402	H	0.973333	0.107891	-0.167178
H403	H	0.534706	-0.425988	-0.723318
H404	H	1.034706	0.074012	-0.223318
H405	H	0.589773	-0.370986	-0.768223
H406	H	1.089773	0.129014	-0.268223
H407	H	0.701402	-0.959938	-0.164542
H408	H	1.201402	-0.459938	0.335458
C409	C	0.128233	-0.305742	-0.305511
C410	C	0.628233	0.194258	0.194489
C411	C	0.121746	-0.356808	-0.301763
C412	C	0.621746	0.143192	0.198237
C413	C	0.147540	-0.388456	-0.333319
C414	C	0.647540	0.111544	0.166681
C415	C	0.179820	-0.369037	-0.368624
C416	C	0.679820	0.130963	0.131376
C417	C	0.186309	-0.317968	-0.372373
C418	C	0.686309	0.182032	0.127627
C419	C	0.160515	-0.286320	-0.340817
C420	C	0.660515	0.213680	0.159183
H421	H	0.097849	-0.371185	-0.275627
H422	H	0.597849	0.128815	0.224373
H423	H	0.142737	-0.426261	-0.330544
H424	H	0.642737	0.073739	0.169456
H425	H	0.198914	-0.392465	-0.391984
H426	H	0.698914	0.107535	0.108016
H427	H	0.210206	-0.303591	-0.398509
H428	H	0.710206	0.196409	0.101491
H429	H	0.165318	-0.248516	-0.343592
H430	H	0.665318	0.251484	0.156408
H431	H	0.478119	-0.164326	-0.164502
H432	H	0.978119	0.335674	0.335498
C433	C	0.588710	-0.479427	-0.276836
C434	C	1.088710	0.020573	0.223164
C435	C	0.537638	-0.473029	-0.273113
C436	C	1.037638	0.026971	0.226887
C437	C	0.506023	-0.498851	-0.304688
C438	C	1.006023	0.001149	0.195312
C439	C	0.525479	-0.531070	-0.339985
C440	C	1.025479	-0.031070	0.160015
C441	C	0.576554	-0.537468	-0.343709
C442	C	1.076554	-0.037468	0.156291
C443	C	0.608169	-0.511647	-0.312134
C444	C	1.108169	-0.011647	0.187866
H445	H	0.523233	-0.449178	-0.246983
H446	H	1.023233	0.050822	0.253017
H447	H	0.468214	-0.494114	-0.301931
H448	H	0.968214	0.005886	0.198069
H449	H	0.502075	-0.550184	-0.363358
H450	H	1.002075	-0.050184	0.136642
H451	H	0.590959	-0.561320	-0.369839
H452	H	1.090959	-0.061320	0.130161
H453	H	0.645978	-0.516384	-0.314892
H454	H	1.145978	-0.016384	0.185108
C455	C	0.029716	-0.305748	-0.305519
C456	C	0.529716	0.194252	0.194481
C457	C	0.036141	-0.356813	-0.301762
C458	C	0.536141	0.143187	0.198238
C459	C	0.010341	-0.388468	-0.333316
C460	C	0.510341	0.111532	0.166684
C461	C	-0.021883	-0.369056	-0.368627
C462	C	0.478117	0.130944	0.131373
C463	C	-0.028310	-0.317988	-0.372385
C464	C	0.471690	0.182012	0.127615
C465	C	-0.002510	-0.286334	-0.340831
C466	C	0.497490	0.213666	0.159169
H467	H	0.059997	-0.371185	-0.275622
H468	H	0.559997	0.128815	0.224378
H469	H	0.015099	-0.426272	-0.330534
H470	H	0.515099	0.073728	0.169466
H471	H	-0.040982	-0.392489	-0.391985
H472	H	0.459018	0.107511	0.108015
H473	H	-0.052166	-0.303617	-0.398526
H474	H	0.447834	0.196383	0.101474
H475	H	-0.007267	-0.248530	-0.343614
H476	H	0.492733	0.251470	0.156386
C477	C	0.588824	-0.276743	-0.953725
C478	C	1.088824	0.223257	-0.453725
C479	C	0.537758	-0.273065	-0.960174
C480	C	1.037758	0.226935	-0.460174
C481	C	0.506118	-0.304675	-0.934372
C482	C	1.006118	0.195325	-0.434372
C483	C	0.525544	-0.339962	-0.902120
C484	C	1.025544	0.160038	-0.402120
C485	C	0.576613	-0.343641	-0.895669
C486	C	1.076613	0.156359	-0.395669
C487	C	0.608253	-0.312032	-0.921472
C488	C	1.108253	0.187968	-0.421472
H489	H	0.523375	-0.246943	-0.984050
H490	H	1.023375	0.253057	-0.484050
H491	H	0.468313	-0.301951	-0.939148
H492	H	0.968313	0.198049	-0.439148
H493	H	0.502122	-0.363361	-0.883020
H494	H	1.002122	0.136639	-0.383020
H495	H	0.590996	-0.369764	-0.871793
H496	H	1.090996	0.130236	-0.371793
H497	H	0.646058	-0.314755	-0.916696
H498	H	1.146058	0.185245	-0.416696
C499	C	0.709472	-0.479353	-0.156298
C500	C	1.209472	0.020647	0.343702
C501	C	0.705834	-0.472921	-0.105222
C502	C	1.205834	0.027079	0.394778
C503	C	0.737469	-0.498701	-0.073649
C504	C	1.237469	0.001299	0.426351
C505	C	0.772742	-0.530914	-0.093151
C506	C	1.272742	-0.030914	0.406849
C507	C	0.776381	-0.537348	-0.144229
C508	C	1.276381	-0.037348	0.355771
C509	C	0.744746	-0.511567	-0.175802
C510	C	1.244746	-0.011567	0.324198
H511	H	0.679721	-0.449073	-0.090783
H512	H	1.179721	0.050927	0.409217
H513	H	0.734774	-0.493939	-0.035838
H514	H	1.234774	0.006061	0.464162
H515	H	0.796160	-0.549999	-0.069779
H516	H	1.296160	-0.049999	0.430221
H517	H	0.802494	-0.561195	-0.158668
H518	H	1.302494	-0.061195	0.341332
H519	H	0.747441	-0.516330	-0.213614
H520	H	1.247441	-0.016330	0.286386
C521	C	-0.186098	-0.277008	-0.276859
C522	C	0.313902	0.222992	0.223141
C523	C	-0.179618	-0.273413	-0.327936
C524	C	0.320382	0.226587	0.172064
C525	C	-0.205425	-0.305060	-0.359491
C526	C	0.294575	0.194940	0.140509
C527	C	-0.237713	-0.340303	-0.339968
C528	C	0.262287	0.159697	0.160032
C529	C	-0.244194	-0.343900	-0.288888
C530	C	0.255806	0.156100	0.211112
C531	C	-0.218386	-0.312252	-0.257334
C532	C	0.281614	0.187748	0.242666
H533	H	-0.155715	-0.247322	-0.342391
H534	H	0.344285	0.252678	0.157609
H535	H	-0.200627	-0.302397	-0.397303
H536	H	0.299373	0.197603	0.102697
H537	H	-0.256817	-0.363730	-0.363326
H538	H	0.243183	0.136270	0.136674
H539	H	-0.268096	-0.369990	-0.274434
H540	H	0.231904	0.130010	0.225566
H541	H	-0.223184	-0.314915	-0.219521
H542	H	0.276816	0.185085	0.280479
C543	C	0.738292	-0.695156	-0.127623
C544	C	1.238292	-0.195156	0.372377
C545	C	0.734655	-0.688719	-0.076548
C546	C	1.234655	-0.188719	0.423452
C547	C	0.766291	-0.714496	-0.044973
C548	C	1.266291	-0.214496	0.455027
C549	C	0.801564	-0.746711	-0.064473
C550	C	1.301564	-0.246711	0.435527
C551	C	0.805202	-0.753150	-0.115550
C552	C	1.305202	-0.253150	0.384450
C553	C	0.773566	-0.727372	-0.147125
C554	C	1.273566	-0.227372	0.352875
H555	H	0.708543	-0.664870	-0.062111
H556	H	1.208543	-0.164870	0.437889
H557	H	0.763597	-0.709729	-0.007162
H558	H	1.263597	-0.209729	0.492838
H559	H	0.824982	-0.765793	-0.041099
H560	H	1.324982	-0.265793	0.458901
H561	H	0.831314	-0.776998	-0.129987
H562	H	1.331314	-0.276998	0.370013
H563	H	0.776259	-0.732139	-0.184936
H564	H	1.276259	-0.232139	0.315064
C565	C	0.738338	-0.835914	-0.127645
C566	C	1.238338	-0.335914	0.372355
C567	C	0.734709	-0.829496	-0.076567
C568	C	1.234709	-0.329496	0.423433
C569	C	0.766344	-0.855292	-0.045006
C570	C	1.266344	-0.355292	0.454994
C571	C	0.801607	-0.887507	-0.064523
C572	C	1.301607	-0.387507	0.435477
C573	C	0.805237	-0.893927	-0.115604
C574	C	1.305237	-0.393927	0.384396
C575	C	0.773602	-0.868131	-0.147164
C576	C	1.273602	-0.368131	0.352836
H577	H	0.708604	-0.805647	-0.062117
H578	H	1.208604	-0.305647	0.437883
H579	H	0.763656	-0.850539	-0.007193
H580	H	1.263656	-0.350539	0.492807
H581	H	0.825025	-0.906603	-0.041160
H582	H	1.325025	-0.406603	0.458840
H583	H	0.831342	-0.917776	-0.130054
H584	H	1.331342	-0.417776	0.369946
H585	H	0.776290	-0.872883	-0.184977
H586	H	1.276290	-0.372883	0.315023
H587	H	0.568248	-0.688532	-0.297365
H588	H	1.068248	-0.188532	0.202635
H589	H	0.568229	-0.603423	-0.297360
H590	H	1.068229	-0.103423	0.202640
H591	H	0.730104	-0.135628	-0.689010
H592	H	1.230104	0.364372	-0.189010
C593	C	0.588680	-0.380892	-0.276827
C594	C	1.088680	0.119108	0.223173
C595	C	0.553417	-0.348673	-0.257317
C596	C	1.053417	0.151327	0.242683
C597	C	0.521789	-0.322876	-0.288885
C598	C	1.021789	0.177124	0.211115
C599	C	0.525425	-0.329299	-0.339961
C600	C	1.025425	0.170701	0.160039
C601	C	0.560690	-0.361519	-0.359473
C602	C	1.060690	0.138481	0.140527
C603	C	0.592318	-0.387316	-0.327906
C604	C	1.092318	0.112684	0.172094
H605	H	0.550724	-0.343918	-0.219505
H606	H	1.050724	0.156082	0.280495
H607	H	0.495684	-0.299024	-0.274440
H608	H	0.995684	0.200976	0.225560
H609	H	0.502012	-0.310202	-0.363329
H610	H	1.002012	0.189798	0.136671
H611	H	0.563383	-0.366275	-0.397286
H612	H	1.063383	0.133725	0.102714
H613	H	0.618423	-0.411168	-0.342350
H614	H	1.118423	0.088832	0.157650
H615	H	0.730047	-0.603351	-0.135815
H616	H	1.230047	-0.103351	0.364185
H617	H	0.701427	-1.045060	-0.164556
H618	H	1.201427	-0.545060	0.335444
C619	C	0.588775	-0.276853	-0.479844
C620	C	1.088775	0.223147	0.020156
C621	C	0.553515	-0.257380	-0.512085
C622	C	1.053515	0.242620	-0.012085
C623	C	0.521884	-0.288980	-0.537864
C624	C	1.021884	0.211020	-0.037864
C625	C	0.525514	-0.340052	-0.531403
C626	C	1.025514	0.159948	-0.031403
C627	C	0.560776	-0.359528	-0.499160
C628	C	1.060776	0.140472	0.000840
C629	C	0.592406	-0.327928	-0.473381
C630	C	1.092406	0.172072	0.026619
H631	H	0.550826	-0.219571	-0.516869
H632	H	1.050826	0.280429	-0.016869
H633	H	0.495781	-0.274562	-0.561732
H634	H	0.995781	0.225438	-0.061732
H635	H	0.502099	-0.363444	-0.550486
H636	H	1.002099	0.136556	-0.050486
H637	H	0.563464	-0.397337	-0.494376
H638	H	1.063464	0.102663	0.005624
H639	H	0.618509	-0.342346	-0.449513
H640	H	1.118509	0.157654	0.050487
H641	H	-0.094274	-0.268782	-0.268650
H642	H	0.405726	0.231218	0.231350
C643	C	0.128231	-0.127355	-0.127674
C644	C	0.628231	0.372645	0.372326
C645	C	0.121804	-0.076290	-0.131425
C646	C	0.621804	0.423710	0.368575
C647	C	0.147595	-0.044639	-0.099860
C648	C	0.647595	0.455361	0.400140
C649	C	0.179812	-0.064054	-0.064545
C650	C	0.679812	0.435946	0.435455
C651	C	0.186241	-0.115122	-0.060792
C652	C	0.686241	0.384878	0.439208
C653	C	0.160450	-0.146773	-0.092357
C654	C	0.660450	0.353227	0.407643
H655	H	0.097953	-0.061915	-0.157568
H656	H	0.597953	0.438085	0.342432
H657	H	0.142836	-0.006835	-0.102638
H658	H	0.642836	0.493165	0.397362
H659	H	0.198904	-0.040624	-0.041178
H660	H	0.698904	0.459376	0.458822
H661	H	0.210091	-0.129497	-0.034649
H662	H	0.710091	0.370503	0.465351
H663	H	0.165208	-0.184577	-0.089579
H664	H	0.665208	0.315423	0.410421
H665	H	0.597097	-1.045102	-0.268687
H666	H	1.097097	-0.545102	0.231313
H667	H	0.036424	-0.135584	-0.135884
H668	H	0.536424	0.364416	0.364116
H669	H	0.478114	-0.268737	-0.268565
H670	H	0.978114	0.231263	0.231435
C671	C	0.709601	-0.156092	-0.953763
C672	C	1.209601	0.343908	-0.453763
C673	C	0.705976	-0.105019	-0.960225
C674	C	1.205976	0.394981	-0.460225
C675	C	0.737604	-0.073422	-0.934439
C676	C	1.237604	0.426578	-0.434439
C677	C	0.772857	-0.092898	-0.902192
C678	C	1.272857	0.407102	-0.402192
C679	C	0.776484	-0.143973	-0.895729
C680	C	1.276484	0.356027	-0.395729
C681	C	0.744856	-0.175570	-0.921515
C682	C	1.244856	0.324430	-0.421515
H683	H	0.679878	-0.090599	-0.984097
H684	H	1.179878	0.409401	-0.484097
H685	H	0.734919	-0.035612	-0.939223
H686	H	1.234919	0.464388	-0.439223
H687	H	0.796270	-0.069508	-0.883103
H688	H	1.296270	0.430492	-0.383103
H689	H	0.802581	-0.158393	-0.871856
H690	H	1.302581	0.341607	-0.371856
H691	H	0.747541	-0.213380	-0.916730
H692	H	1.247541	0.286620	-0.416730
C693	C	0.386291	-0.156107	-0.156318
C694	C	0.886291	0.343893	0.343682
C695	C	0.392777	-0.105042	-0.160076
C696	C	0.892777	0.394958	0.339924
C697	C	0.366977	-0.073388	-0.128532
C698	C	0.866977	0.426612	0.371468
C699	C	0.334690	-0.092799	-0.093229
C700	C	0.834690	0.407201	0.406771
C701	C	0.328202	-0.143867	-0.089470
C702	C	0.828202	0.356133	0.410530
C703	C	0.354003	-0.175522	-0.121014
C704	C	0.854003	0.324478	0.378986
H705	H	0.416679	-0.090670	-0.186210
H706	H	0.916679	0.409330	0.313790
H707	H	0.371780	-0.035583	-0.131315
H708	H	0.871780	0.464417	0.368685
H709	H	0.315591	-0.069367	-0.069878
H710	H	0.815591	0.430633	0.430122
H711	H	0.304300	-0.158239	-0.063335
H712	H	0.804300	0.341761	0.436665
H713	H	0.349200	-0.213326	-0.118231
H714	H	0.849200	0.286674	0.381769
H715	H	0.393007	-0.268738	-0.268585
H716	H	0.893007	0.231262	0.231415
H717	H	0.177180	-0.297519	-0.297295
H718	H	0.677180	0.202481	0.202705
H719	H	0.730093	-0.744097	-0.135831
H720	H	1.230093	-0.244097	0.364169
C721	C	0.588857	-0.953296	-0.276885
C722	C	1.088857	-0.453296	0.223115
C723	C	0.537790	-0.959799	-0.273159
C724	C	1.037790	-0.459799	0.226841
C725	C	0.506151	-0.934020	-0.304730
C726	C	1.006151	-0.434020	0.195270
C727	C	0.525578	-0.901739	-0.340027
C728	C	1.025578	-0.401739	0.159973
C729	C	0.576647	-0.895234	-0.343755
C730	C	1.076647	-0.395234	0.156245
C731	C	0.608286	-0.921013	-0.312184
C732	C	1.108286	-0.421013	0.187816
H733	H	0.523407	-0.983697	-0.247029
H734	H	1.023407	-0.483697	0.252971
H735	H	0.468347	-0.938836	-0.301970
H736	H	0.968347	-0.438836	0.198030
H737	H	0.502157	-0.882656	-0.363398
H738	H	1.002157	-0.382656	0.136602
H739	H	0.591030	-0.871336	-0.369885
H740	H	1.091030	-0.371336	0.130115
H741	H	0.646091	-0.916198	-0.314944
H742	H	1.146091	-0.416198	0.185056
C743	C	0.588841	-0.276720	-1.052238
C744	C	1.088841	0.223280	-0.552238
C745	C	0.557207	-0.308316	-1.026415
C746	C	1.057207	0.191684	-0.526415
C747	C	0.525572	-0.339906	-1.052201
C748	C	1.025572	0.160094	-0.552201
C749	C	0.525571	-0.339901	-1.103809
C750	C	1.025571	0.160099	-0.603809
C751	C	0.557206	-0.308304	-1.129634
C752	C	1.057206	0.191696	-0.629634
C753	C	0.588840	-0.276713	-1.103848
C754	C	1.088840	0.223287	-0.603848
H755	H	0.557207	-0.308321	-0.988210
H756	H	1.057207	0.191679	-0.488210
H757	H	0.502154	-0.363296	-1.033083
H758	H	1.002154	0.136704	-0.533083
H759	H	0.502153	-0.363286	-1.122897
H760	H	1.002153	0.136714	-0.622897
H761	H	0.557206	-0.308298	-1.167840
H762	H	1.057206	0.191702	-0.667840
H763	H	0.612259	-0.253323	-1.122966
H764	H	1.112259	0.246677	-0.622966
H765	H	0.177170	-0.135568	-0.135868
H766	H	0.677170	0.364432	0.364132
H767	H	0.701393	-0.164283	-1.045587
H768	H	1.201393	0.335717	-0.545587
H769	H	0.568248	-0.297306	-0.688939
H770	H	1.068248	0.202694	-0.188939
H771	H	0.596984	-0.268659	-0.388024
H772	H	1.096984	0.231341	0.111976
H773	H	0.568274	-0.297277	-0.829695
H774	H	1.068274	0.202723	-0.329695
