data_functionalizedCrystal
_audit_creation_method	'MofGen! by Chris Wilmer'
_symmetry_space_group_name_H-M	'P1'
_symmetry_Int_Tables_number	1
_symmetry_cell_setting	triclinic
loop_
_symmetry_equiv_pos_as_xyz
  x,y,z
_cell_length_a	12.759400
_cell_length_b	10.685972
_cell_length_c	10.685880
_cell_angle_alpha	99.082357
_cell_angle_beta	94.339195
_cell_angle_gamma	85.620475
loop_
_atom_site_label
_atom_site_type_symbol
_atom_site_fract_x
_atom_site_fract_y
_atom_site_fract_z
Zn1	Zn	-0.346228	-1.995744	-0.866722
Zn2	Zn	-0.509450	-1.979334	-0.654465
Zn3	Zn	-0.346277	-1.767184	-0.638189
Zn4	Zn	-0.534361	-1.783447	-0.850364
O5	O	-0.434079	-1.881427	-0.752435
O6	O	-0.357434	-2.171200	-0.852223
O7	O	-0.477400	-1.937518	-0.474680
O8	O	-0.199248	-1.797564	-0.668538
O9	O	-0.477352	-2.159144	-0.696279
O10	O	-0.199212	-1.965486	-0.836440
O11	O	-0.357517	-1.781652	-0.462722
O12	O	-0.381673	-1.591708	-0.652677
O13	O	-0.519810	-1.825282	-1.030160
O14	O	-0.519858	-1.603656	-0.808561
O15	O	-0.381589	-1.981256	-1.042178
O16	O	-0.659777	-1.953288	-0.680418
O17	O	-0.678080	-1.809370	-0.824344
C18	C	-0.453475	-1.551624	-0.727078
C19	C	-0.461799	-1.410535	-0.716261
C20	C	-0.707049	-1.881350	-0.752403
C21	C	-0.823823	-1.881436	-0.752440
C22	C	-0.869120	-1.956471	-0.677595
C23	C	-0.978842	-1.956552	-0.677640
C24	C	-0.997960	-1.806552	-0.827379
C25	C	-0.888241	-1.806479	-0.827340
C26	C	-0.804702	-2.031428	-0.602695
C27	C	-0.849999	-2.106468	-0.527842
C28	C	-0.959721	-2.106549	-0.527887
C29	C	-1.024146	-2.031590	-0.602785
C30	C	-0.160043	-1.881541	-0.752498
C31	C	-0.043265	-1.881590	-0.752524
C32	C	-0.453473	-1.906913	-1.083513
C33	C	-0.461738	-1.917774	-1.224599
C34	C	-0.414602	-1.212518	-0.777885
C35	C	-0.406282	-1.353608	-0.788715
C36	C	-0.414681	-1.856113	-0.422650
C37	C	-0.406106	-1.845498	-0.281584
H38	H	-0.352378	-1.412807	-0.859020
Br39	Br	-0.551635	-1.311864	-0.599051
H40	H	-0.715360	-2.031367	-0.602646
H41	H	-0.996598	-2.167660	-0.466949
H42	H	-0.797538	-2.167505	-0.466871
H43	H	-1.113488	-2.031673	-0.602827
Br44	Br	-1.085393	-1.704828	-0.929017
H45	H	-0.352157	-1.775301	-1.222435
Br46	Br	-0.826759	-1.704651	-0.928924
Br47	Br	-0.551679	-2.034768	-1.323183
