data_functionalizedCrystal
_audit_creation_method	'MofGen! by Chris Wilmer'
_symmetry_space_group_name_H-M	'P1'
_symmetry_Int_Tables_number	1
_symmetry_cell_setting	triclinic
loop_
_symmetry_equiv_pos_as_xyz
  x,y,z
_cell_length_a	19.077105
_cell_length_b	14.908520
_cell_length_c	19.076919
_cell_angle_alpha	84.570994
_cell_angle_beta	89.923776
_cell_angle_gamma	91.150228
loop_
_atom_site_label
_atom_site_type_symbol
_atom_site_fract_x
_atom_site_fract_y
_atom_site_fract_z
Zn1	Zn	1.037881	-0.436364	0.459234
Zn2	Zn	1.035744	-0.581390	0.347980
Zn3	Zn	0.925663	-0.424281	0.336506
Zn4	Zn	0.913591	-0.580846	0.460710
O5	O	0.978220	-0.505720	0.401107
O6	O	1.135682	-0.460886	0.448660
O7	O	1.025299	-0.555720	0.247919
O8	O	0.946495	-0.299666	0.347366
O9	O	1.134112	-0.567437	0.366923
O10	O	1.028941	-0.308543	0.437534
O11	O	0.944423	-0.440292	0.239489
O12	O	0.825977	-0.439765	0.348797
O13	O	0.925920	-0.566510	0.559053
O14	O	0.817107	-0.554793	0.440049
O15	O	1.017235	-0.460359	0.557969
O16	O	1.013594	-0.707536	0.368354
O17	O	0.923848	-0.707136	0.451175
C18	C	0.796110	-0.495910	0.393339
C19	C	0.718201	-0.491735	0.390033
C20	C	0.676998	-0.549746	0.435923
C21	C	0.603795	-0.545812	0.432820
C22	C	0.571795	-0.483870	0.383823
C23	C	0.613003	-0.425853	0.337931
C24	C	0.686205	-0.429783	0.341038
C25	C	0.353358	-0.465680	0.369446
C26	C	0.280150	-0.461756	0.366341
C27	C	0.270947	-0.581715	0.461231
C28	C	0.344151	-0.585643	0.464331
C29	C	0.385353	-0.527623	0.418441
N30	N	0.496969	-0.479850	0.380648
N31	N	0.460177	-0.531640	0.421620
C32	C	0.967198	-0.740065	0.411186
C33	C	0.962545	-0.840323	0.415524
C34	C	1.047344	-1.029082	0.337510
C35	C	1.042976	-1.123283	0.341584
C36	C	0.949443	-1.122929	0.427749
C37	C	0.953812	-1.028727	0.423675
C38	C	1.002763	-0.981807	0.378553
C39	C	1.007128	-0.887604	0.374476
C40	C	0.913600	-0.887251	0.460644
C41	C	0.909231	-0.981453	0.464718
C42	C	1.161040	-0.515570	0.408907
C43	C	1.238948	-0.519767	0.412230
C44	C	0.970470	-0.514721	0.584776
C45	C	0.967167	-0.518557	0.663044
C46	C	0.989303	-0.270463	0.391006
C47	C	0.994026	-0.170210	0.386701
C48	C	0.985983	-0.496691	0.218153
C49	C	0.989433	-0.492609	0.139879
C50	C	1.013156	-0.465095	0.699251
C51	C	1.010044	-0.468695	0.772793
C52	C	0.960947	-0.525763	0.810125
C53	C	0.914953	-0.579227	0.773913
C54	C	0.918062	-0.575622	0.700373
C55	C	0.946548	-0.542468	1.030127
C56	C	0.943444	-0.546071	1.103672
C57	C	1.038535	-0.435537	1.102547
C58	C	1.041642	-0.431941	1.029006
C59	C	0.995646	-0.485402	0.992799
N60	N	0.957767	-0.529446	0.885296
N61	N	0.998824	-0.481713	0.917629
H62	H	0.719751	-0.382540	0.303673
H63	H	0.570251	-0.593052	0.470187
C64	C	0.379349	-0.653810	0.518201
H65	H	0.428846	-0.647858	0.513466
H66	H	0.365995	-0.642418	0.564471
H67	H	0.364927	-0.713227	0.509881
H68	H	0.237393	-0.628951	0.498592
C69	C	0.577808	-0.357715	0.284035
H70	H	0.612833	-0.323722	0.257155
H71	H	0.548923	-0.389115	0.253578
H72	H	0.549965	-0.318256	0.308128
C73	C	0.398673	-0.401866	0.318968
H74	H	0.446853	-0.413066	0.327838
H75	H	0.388048	-0.412006	0.271693
H76	H	0.389084	-0.341147	0.326243
C77	C	0.895602	-1.174551	0.477375
H78	H	0.899385	-1.237424	0.473918
H79	H	0.904534	-1.161950	0.524464
H80	H	0.849663	-1.156136	0.464347
H81	H	0.869378	-1.019668	0.501457
H82	H	0.874974	-0.625690	0.804315
H83	H	1.047495	-0.425162	0.802269
H84	H	0.877297	-0.848750	0.494062
C85	C	1.067161	-0.402315	0.658191
H86	H	1.094098	-0.370983	0.690290
H87	H	1.097290	-0.437050	0.632287
H88	H	1.043405	-0.360162	0.626673
C89	C	0.889433	-0.608846	1.144737
H90	H	0.862480	-0.640164	1.112641
H91	H	0.913181	-0.650998	1.176256
H92	H	0.859308	-0.574096	1.170640
H93	H	0.909104	-0.586013	1.000657
C94	C	1.095650	-0.369166	0.987945
H95	H	1.122591	-0.337836	1.020041
H96	H	1.125775	-0.403911	0.962044
H97	H	1.071900	-0.327011	0.956423
C98	C	0.867490	-0.634454	0.660546
H99	H	0.837813	-0.668970	0.693313
H100	H	0.839784	-0.596917	0.629065
H101	H	0.893682	-0.673790	0.634701
H102	H	1.046985	-0.849402	0.337734
H103	H	0.254099	-0.411305	0.326445
C104	C	1.089124	-0.376728	1.142371
H105	H	1.118812	-0.342229	1.109605
H106	H	1.062952	-0.337391	1.168228
H107	H	1.116829	-0.414288	1.173844
C108	C	0.712192	-0.617882	0.489821
H109	H	0.677166	-0.651861	0.516711
H110	H	0.740037	-0.657340	0.465737
H111	H	0.741075	-0.586472	0.520280
H112	H	1.087198	-0.990878	0.300765
H113	H	1.079279	-1.161771	0.308163
