data_functionalizedCrystal
_audit_creation_method	'MofGen! by Chris Wilmer'
_symmetry_space_group_name_H-M	'P1'
_symmetry_Int_Tables_number	1
_symmetry_cell_setting	triclinic
loop_
_symmetry_equiv_pos_as_xyz
  x,y,z
_cell_length_a	8.597366
_cell_length_b	10.723023
_cell_length_c	7.088929
_cell_angle_alpha	83.717996
_cell_angle_beta	103.954530
_cell_angle_gamma	84.901309
loop_
_atom_site_label
_atom_site_type_symbol
_atom_site_fract_x
_atom_site_fract_y
_atom_site_fract_z
O1	O	2.103237	0.171358	0.187478
O2	O	1.638778	0.191731	0.110966
O3	O	1.881722	-0.000116	0.150995
O4	O	1.860293	0.363205	0.147449
O5	O	1.914189	-0.025812	0.474319
O6	O	1.671245	0.166034	0.434290
O7	O	2.135703	0.145662	0.510803
Cu8	Cu	1.906438	0.153502	0.502069
Cu9	Cu	1.868043	0.183891	0.119700
O10	O	1.892759	0.337508	0.470774
C11	C	1.595540	0.178127	0.262831
C12	C	1.418335	0.175860	0.233639
C13	C	1.896396	-0.059451	0.312398
C14	C	1.891731	-0.197969	0.311624
C15	C	1.872833	-0.246407	0.143787
C16	C	1.868010	-0.389571	0.142982
C17	C	2.178941	0.159266	0.358933
C18	C	2.356145	0.161534	0.388113
C19	C	1.878085	0.396844	0.309366
C20	C	1.882749	0.535363	0.310128
N21	N	1.933455	0.132127	0.771008
N22	N	1.841039	0.205255	-0.149238
H23	H	1.438480	0.151003	0.542719
H24	H	1.904330	-0.262487	0.454718
H25	H	1.745260	0.281037	0.753335
H26	H	1.336010	0.186381	0.079043
Br27	Br	1.851850	-0.138886	-0.094725
H28	H	2.029252	0.056349	0.868448
H29	H	1.851831	-0.431279	-0.000709
Br30	Br	1.909750	-0.395144	0.549651
