data_functionalizedCrystal
_audit_creation_method	'MofGen! by Chris Wilmer'
_symmetry_space_group_name_H-M	'P1'
_symmetry_Int_Tables_number	1
_symmetry_cell_setting	triclinic
loop_
_symmetry_equiv_pos_as_xyz
  x,y,z
_cell_length_a	17.000371
_cell_length_b	15.500227
_cell_length_c	17.019234
_cell_angle_alpha	91.050924
_cell_angle_beta	79.501818
_cell_angle_gamma	92.619542
loop_
_atom_site_label
_atom_site_type_symbol
_atom_site_fract_x
_atom_site_fract_y
_atom_site_fract_z
O1	O	1.059869	0.073767	0.024409
O2	O	1.559869	0.573767	0.524409
O3	O	0.828212	0.075893	0.052926
O4	O	1.328212	0.575893	0.552926
O5	O	0.950073	0.066267	-0.076150
O6	O	1.450073	0.566267	0.423850
O7	O	0.938008	0.083393	0.153484
O8	O	1.438008	0.583393	0.653484
O9	O	0.942678	-0.077040	-0.068346
O10	O	1.442678	0.422960	0.431654
O11	O	0.820817	-0.067414	0.060730
O12	O	1.320817	0.432586	0.560730
O13	O	1.052474	-0.069540	0.032213
O14	O	1.552474	0.430460	0.532213
Cu15	Cu	0.935970	-0.081562	0.047184
Cu16	Cu	1.435970	0.418438	0.547184
Cu17	Cu	0.944716	0.087915	0.037955
Cu18	Cu	1.444716	0.587915	0.537955
O19	O	0.930613	-0.059914	0.161288
O20	O	1.430613	0.440086	0.661288
C21	C	0.794865	0.004354	0.058360
C22	C	1.294865	0.504354	0.558360
C23	C	0.706518	0.004694	0.062914
C24	C	1.206518	0.504694	0.562914
C25	C	0.674308	-0.000535	-0.007176
C26	C	1.174308	0.499465	0.492824
C27	C	0.591296	-0.000209	-0.002892
C28	C	1.091296	0.499791	0.497108
C29	C	0.540496	0.005339	0.071483
C30	C	1.040496	0.505339	0.571483
C31	C	0.572711	0.010571	0.141579
C32	C	1.072711	0.510571	0.641579
C33	C	0.655722	0.010251	0.137293
C34	C	1.155722	0.510251	0.637293
C35	C	0.289394	0.006579	0.088035
C36	C	0.789394	0.506579	0.588035
C37	C	0.206379	0.006896	0.092314
C38	C	0.706379	0.506896	0.592314
C39	C	0.224970	-0.003883	-0.052157
C40	C	0.724970	0.496117	0.447843
C41	C	0.307980	-0.004207	-0.056435
C42	C	0.807980	0.495793	0.443565
C43	C	0.340189	0.001029	0.013660
C44	C	0.840189	0.501029	0.513660
C45	C	0.455645	0.005669	0.075864
C46	C	0.955645	0.505669	0.575864
C47	C	0.425039	0.000705	0.009278
C48	C	0.925039	0.500705	0.509278
N49	N	0.929825	-0.200763	0.053674
N50	N	1.429825	0.299237	0.553674
C51	C	0.981480	-0.250117	-0.001002
C52	C	1.481480	0.249883	0.498998
C53	C	0.976840	-0.340323	0.003913
C54	C	1.476840	0.159677	0.503913
C55	C	0.920548	-0.381173	0.063509
C56	C	1.420548	0.118827	0.563509
C57	C	0.868888	-0.331812	0.118188
C58	C	1.368888	0.168188	0.618188
C59	C	0.873525	-0.241608	0.113268
C60	C	1.373525	0.258392	0.613268
C61	C	0.903844	-0.653319	0.081217
C62	C	1.403844	-0.153319	0.581217
C63	C	0.899212	-0.743530	0.086134
C64	C	1.399212	-0.243530	0.586134
C65	C	1.007164	-0.752035	-0.028142
C66	C	1.507164	-0.252035	0.471858
C67	C	1.011799	-0.661828	-0.033053
C68	C	1.511799	-0.161828	0.466947
C69	C	0.960136	-0.612475	0.021623
C70	C	1.460136	-0.112475	0.521623
C71	C	0.915805	-0.473378	0.068536
C72	C	1.415805	0.026622	0.568536
C73	C	0.964876	-0.520272	0.016592
C74	C	1.464876	-0.020272	0.516592
C75	C	1.085822	0.002001	0.026779
C76	C	1.585822	0.502001	0.526779
C77	C	1.174169	0.001667	0.022224
C78	C	1.674169	0.501667	0.522224
C79	C	0.945775	-0.007565	-0.101485
C80	C	1.445775	0.492435	0.398515
C81	C	0.943976	-0.014056	-0.188601
C82	C	1.443976	0.485944	0.311399
N83	N	0.950867	0.207116	0.031458
N84	N	1.450867	0.707116	0.531458
C85	C	0.933528	-0.054653	-0.681090
C86	C	1.433528	0.445347	-0.181090
C87	C	0.935226	-0.048557	-0.599236
C88	C	1.435226	0.451443	-0.099236
C89	C	0.940112	0.032609	-0.562555
C90	C	1.440112	0.532609	-0.062555
C91	C	0.943292	0.107684	-0.607732
C92	C	1.443292	0.607684	-0.107732
C93	C	0.941589	0.101588	-0.689583
C94	C	1.441589	0.601588	-0.189583
C95	C	0.945453	0.054923	-0.315629
C96	C	1.445453	0.554923	0.184371
C97	C	0.947158	0.061014	-0.233772
C98	C	1.447158	0.561014	0.266228
C99	C	0.939090	-0.095229	-0.225281
C100	C	1.439090	0.404771	0.274719
C101	C	0.937392	-0.101318	-0.307135
C102	C	1.437392	0.398682	0.192865
C103	C	0.940568	-0.026242	-0.352304
C104	C	1.440568	0.473758	0.147696
C105	C	0.941850	0.038841	-0.478888
C106	C	1.441850	0.538841	0.021112
C107	C	0.938824	-0.032475	-0.435968
C108	C	1.438824	0.467525	0.064032
C109	C	0.934911	0.013920	0.186623
C110	C	1.434911	0.513920	0.686623
C111	C	0.936711	0.020417	0.273740
C112	C	1.436711	0.520417	0.773740
H113	H	0.565076	-0.004466	-0.059967
H114	H	1.065076	0.495534	0.440033
H115	H	0.948046	0.116055	-0.352397
H116	H	1.448046	0.616055	0.147603
Br117	Br	0.493983	-0.006819	-0.091657
Br118	Br	0.993983	0.493181	0.408343
H119	H	0.869973	-0.506646	0.117061
H120	H	1.369973	-0.006646	0.617061
H121	H	0.531343	0.015094	0.202136
H122	H	1.031343	0.515094	0.702136
Br123	Br	0.743243	-0.008074	-0.108119
Br124	Br	1.243243	0.491926	0.391881
Br125	Br	0.137434	0.014414	0.193260
Br126	Br	0.637434	0.514414	0.693260
H127	H	0.414274	0.010186	0.136421
H128	H	0.914274	0.510186	0.636421
H129	H	0.945833	0.104927	-0.449015
H130	H	1.445833	0.604927	0.050985
Br131	Br	1.057886	-0.194687	-0.081881
Br132	Br	1.557886	0.305313	0.418119
Br133	Br	0.822813	-0.798964	0.167024
Br134	Br	1.322813	-0.298964	0.667024
H135	H	0.681945	0.014505	0.194369
H136	H	1.181945	0.514505	0.694369
H137	H	1.018901	-0.380507	-0.040609
H138	H	1.518901	0.119493	0.459391
Br139	Br	0.930760	-0.211476	-0.356910
Br140	Br	1.430760	0.288524	0.143090
H141	H	0.936503	-0.156351	-0.188496
H142	H	1.436503	0.343649	0.311504
H143	H	0.929553	-0.120747	-0.710949
H144	H	1.429553	0.379253	-0.210949
H145	H	0.932646	-0.109688	-0.562463
H146	H	1.432646	0.390312	-0.062463
H147	H	0.198737	-0.008136	-0.109225
H148	H	0.698737	0.491864	0.390775
H149	H	0.951137	0.127112	-0.203910
H150	H	1.451137	0.627112	0.296090
H151	H	0.947267	0.173772	-0.577859
H152	H	1.447267	0.673772	-0.077859
H153	H	0.944176	0.162719	-0.726360
H154	H	1.444176	0.662719	-0.226360
H155	H	1.057637	-0.628570	-0.081580
H156	H	1.557637	-0.128570	0.418420
Br157	Br	0.932185	-0.142626	-0.485748
Br158	Br	1.432185	0.357374	0.014252
H159	H	1.049225	-0.792226	-0.072657
H160	H	1.549225	-0.292226	0.427343
H161	H	0.861779	-0.613143	0.125738
H162	H	1.361779	-0.113143	0.625738
H163	H	0.349337	-0.008729	-0.116999
H164	H	0.849337	0.491271	0.383001
H165	H	0.823049	-0.365078	0.166710
H166	H	1.323049	0.134922	0.666710
H167	H	0.831461	-0.201424	0.157791
H168	H	1.331461	0.298576	0.657791
H169	H	1.010706	-0.487010	-0.031933
H170	H	1.510706	0.012990	0.468067
Br171	Br	0.333095	0.013687	0.183164
Br172	Br	0.833095	0.513687	0.683164
