data_functionalizedCrystal
_audit_creation_method	'MofGen! by Chris Wilmer'
_symmetry_space_group_name_H-M	'P1'
_symmetry_Int_Tables_number	1
_symmetry_cell_setting	triclinic
loop_
_symmetry_equiv_pos_as_xyz
  x,y,z
_cell_length_a	19.805407
_cell_length_b	19.121063
_cell_length_c	19.121605
_cell_angle_alpha	90.075163
_cell_angle_beta	87.543967
_cell_angle_gamma	92.469032
loop_
_atom_site_label
_atom_site_type_symbol
_atom_site_fract_x
_atom_site_fract_y
_atom_site_fract_z
Zn1	Zn	1.040717	-0.262209	-0.408313
Zn2	Zn	1.540717	0.237791	0.091687
Zn3	Zn	1.030995	-0.384450	-0.296069
Zn4	Zn	1.530995	0.115550	0.203931
Zn5	Zn	0.922511	-0.267230	-0.291087
Zn6	Zn	1.422511	0.232770	0.208913
Zn7	Zn	0.922877	-0.379413	-0.413264
Zn8	Zn	1.422877	0.120587	0.086736
O9	O	0.979275	-0.323325	-0.352183
O10	O	1.479275	0.176675	0.147817
O11	O	1.134144	-0.278431	-0.393436
O12	O	1.634144	0.221569	0.106564
O13	O	1.012382	-0.373111	-0.197302
O14	O	1.512382	0.126889	0.302698
O15	O	0.942107	-0.168457	-0.302480
O16	O	1.442107	0.331543	0.197520
O17	O	1.127001	-0.368242	-0.310971
O18	O	1.627001	0.131758	0.189029
O19	O	1.028952	-0.164768	-0.388606
O20	O	1.528952	0.335232	0.111394
O21	O	0.932680	-0.286989	-0.193642
O22	O	1.432680	0.213011	0.306358
O23	O	0.827843	-0.282104	-0.307282
O24	O	1.327843	0.217896	0.192718
O25	O	0.942731	-0.359656	-0.510713
O26	O	1.442731	0.140344	-0.010713
O27	O	0.828112	-0.364524	-0.397044
O28	O	1.328112	0.135476	0.102956
O29	O	1.029307	-0.273546	-0.507076
O30	O	1.529307	0.226454	-0.007076
O31	O	1.012737	-0.481890	-0.315772
O32	O	1.512737	0.018110	0.184228
O33	O	0.933304	-0.478188	-0.401875
O34	O	1.433304	0.021812	0.098125
C35	C	0.803419	-0.323313	-0.352160
C36	C	1.303419	0.176687	0.147840
C37	C	0.728186	-0.323324	-0.352168
C38	C	1.228186	0.176676	0.147832
C39	C	0.692994	-0.366311	-0.398837
C40	C	1.192994	0.133689	0.101163
C41	C	0.622306	-0.366311	-0.398847
C42	C	1.122306	0.133689	0.101153
C43	C	0.586811	-0.323329	-0.352183
C44	C	1.086811	0.176671	0.147817
C45	C	0.622009	-0.280337	-0.305511
C46	C	1.122009	0.219663	0.194489
C47	C	0.692696	-0.280333	-0.305505
C48	C	1.192696	0.219667	0.194495
C49	C	0.336936	-0.280352	-0.305535
C50	C	0.836936	0.219648	0.194465
C51	C	0.266244	-0.280360	-0.305543
C52	C	0.766244	0.219640	0.194457
C53	C	0.266546	-0.366330	-0.398877
C54	C	0.766546	0.133670	0.101123
C55	C	0.337233	-0.366326	-0.398871
C56	C	0.837233	0.133674	0.101129
C57	C	0.372425	-0.323332	-0.352202
C58	C	0.872425	0.176668	0.147798
C59	C	0.449073	-0.323331	-0.352193
C60	C	0.949073	0.176669	0.147807
C61	C	0.510164	-0.323333	-0.352189
C62	C	1.010164	0.176667	0.147811
C63	C	0.972024	-0.505476	-0.359917
C64	C	1.472024	-0.005476	0.140083
C65	C	0.968985	-0.583400	-0.363249
C66	C	1.468985	-0.083400	0.136751
C67	C	1.008949	-0.621911	-0.320022
C68	C	1.508949	-0.121911	0.179978
C69	C	1.006095	-0.695129	-0.323160
C70	C	1.506095	-0.195129	0.176840
C71	C	0.963273	-0.729834	-0.369521
C72	C	1.463273	-0.229834	0.130479
C73	C	0.923307	-0.691318	-0.412752
C74	C	1.423307	-0.191318	0.087248
C75	C	0.926165	-0.618101	-0.409618
C76	C	1.426165	-0.118101	0.090382
C77	C	0.952576	-0.950805	-0.381230
C78	C	1.452576	-0.450805	0.118770
C79	C	0.949719	-1.024026	-0.384360
C80	C	1.449719	-0.524026	0.115640
C81	C	1.032508	-1.027832	-0.294768
C82	C	1.532508	-0.527832	0.205232
C83	C	1.035360	-0.954615	-0.291634
C84	C	1.535360	-0.454615	0.208366
C85	C	0.995397	-0.916104	-0.334868
C86	C	1.495397	-0.416104	0.165132
C87	C	0.960353	-0.804674	-0.372728
C88	C	1.460353	-0.304674	0.127272
C89	C	0.998321	-0.841266	-0.331664
C90	C	1.498321	-0.341266	0.168336
C91	C	1.155818	-0.323338	-0.352207
C92	C	1.655818	0.176662	0.147793
C93	C	1.231050	-0.323344	-0.352217
C94	C	1.731050	0.176656	0.147783
C95	C	0.987145	-0.315479	-0.535043
C96	C	1.487145	0.184521	-0.035043
C97	C	0.990498	-0.312135	-0.612967
C98	C	1.490498	0.187865	-0.112967
C99	C	0.986573	-0.140463	-0.344435
C100	C	1.486573	0.359537	0.155565
C101	C	0.989684	-0.062537	-0.341133
C102	C	1.489684	0.437463	0.158867
C103	C	1.011760	-0.290978	-1.053596
C104	C	1.511760	0.209022	-0.553596
C105	C	1.008605	-0.294123	-0.980378
C106	C	1.508605	0.205877	-0.480378
C107	C	0.961948	-0.340524	-0.945666
C108	C	1.461948	0.159476	-0.445666
C109	C	0.918449	-0.383788	-0.984176
C110	C	1.418449	0.116212	-0.484176
C111	C	0.921608	-0.380646	-1.057393
C112	C	1.421608	0.119354	-0.557393
C113	C	0.950158	-0.352257	-0.724694
C114	C	1.450158	0.147743	-0.224694
C115	C	0.947001	-0.355394	-0.651472
C116	C	1.447001	0.144606	-0.151472
C117	C	1.037158	-0.265730	-0.647679
C118	C	1.537158	0.234270	-0.147679
C119	C	1.040310	-0.262589	-0.720897
C120	C	1.540310	0.237411	-0.220897
C121	C	0.996813	-0.305855	-0.759401
C122	C	1.496813	0.194145	-0.259401
C123	C	0.958720	-0.343738	-0.870826
C124	C	1.458720	0.156262	-0.370826
C125	C	1.000044	-0.302644	-0.834240
C126	C	1.500044	0.197356	-0.334240
C127	C	0.971477	-0.331091	-0.170033
C128	C	1.471477	0.168909	0.329967
C129	C	0.968263	-0.334237	-0.092100
C130	C	1.468263	0.165763	0.407900
H131	H	0.721889	-0.401315	-0.436834
H132	H	1.221889	0.098685	0.063166
C133	C	0.354923	-0.251103	-0.185420
C134	C	0.854923	0.248897	0.314580
C135	C	0.375609	-0.233095	-0.254234
C136	C	0.875609	0.266905	0.245766
H137	H	0.378804	-0.221928	-0.153748
H138	H	0.878804	0.278072	0.346252
H139	H	0.307750	-0.244958	-0.178753
H140	H	0.807750	0.255042	0.321247
H141	H	0.364199	-0.298633	-0.177087
H142	H	0.864199	0.201367	0.322913
H143	H	0.366330	-0.185565	-0.262568
H144	H	0.866330	0.314435	0.237432
H145	H	0.422794	-0.239234	-0.260903
H146	H	0.922794	0.260766	0.239097
C147	C	0.775521	-0.186418	-0.291906
C148	C	1.275521	0.313582	0.208094
C149	C	0.731379	-0.233081	-0.254202
C150	C	1.231379	0.266919	0.245798
H151	H	0.799397	-0.157242	-0.260232
H152	H	1.299397	0.342758	0.239768
H153	H	0.806774	-0.212015	-0.319689
H154	H	1.306774	0.287985	0.180311
H155	H	0.750324	-0.158341	-0.321360
H156	H	1.250324	0.341659	0.178640
H157	H	0.756577	-0.261161	-0.224752
H158	H	1.256577	0.238839	0.275248
H159	H	0.700122	-0.207481	-0.226407
H160	H	1.200122	0.292519	0.273593
H161	H	1.078305	-0.224808	-0.749154
H162	H	1.578305	0.275192	-0.249154
C163	C	0.868183	-1.012913	-0.472622
C164	C	1.368183	-0.512913	0.027378
C165	C	0.902653	-1.062176	-0.435331
C166	C	1.402653	-0.562176	0.064669
H167	H	0.839132	-1.036467	-0.504090
H168	H	1.339132	-0.536467	-0.004090
H169	H	0.842110	-0.985705	-0.440837
H170	H	1.342110	-0.485705	0.059163
H171	H	0.899934	-0.983166	-0.498238
H172	H	1.399934	-0.483166	0.001762
H173	H	0.870903	-1.091920	-0.409710
H174	H	1.370903	-0.591920	0.090290
H175	H	0.928728	-1.089396	-0.467121
H176	H	1.428728	-0.589396	0.032879
H177	H	1.072571	-0.230506	-0.616321
H178	H	1.572571	0.269494	-0.116321
H179	H	0.593103	-0.245337	-0.267520
H180	H	1.093103	0.254663	0.232480
H181	H	1.065045	-1.059195	-0.259570
H182	H	1.565045	-0.559195	0.240430
C183	C	0.420412	-0.372156	-0.493567
C184	C	0.920412	0.127844	0.006433
C185	C	0.376250	-0.413571	-0.450167
C186	C	0.876250	0.086429	0.049833
H187	H	0.444501	-0.401324	-0.525234
H188	H	0.944501	0.098676	-0.025234
H189	H	0.395209	-0.340508	-0.519138
H190	H	0.895209	0.159492	-0.019138
H191	H	0.451485	-0.346559	-0.465762
H192	H	0.951485	0.153441	0.034238
H193	H	0.345173	-0.439165	-0.477972
H194	H	0.845173	0.060835	0.022028
H195	H	0.401455	-0.445232	-0.424595
H196	H	0.901455	0.054768	0.075405
H197	H	0.920732	-0.381517	-0.842555
H198	H	1.420732	0.118483	-0.342555
C199	C	0.852000	-0.368686	-0.569558
C200	C	1.352000	0.131314	-0.069558
C201	C	0.895714	-0.406414	-0.613330
C202	C	1.395714	0.093586	-0.113330
H203	H	0.820337	-0.400185	-0.546018
H204	H	1.320337	0.099815	-0.046018
H205	H	0.877444	-0.343379	-0.536142
H206	H	1.377444	0.156621	-0.036142
H207	H	0.828563	-0.336914	-0.596833
H208	H	1.328563	0.163086	-0.096833
H209	H	0.919154	-0.438182	-0.586054
H210	H	1.419154	0.061818	-0.086054
H211	H	0.870266	-0.431732	-0.646750
H212	H	1.370266	0.068268	-0.146750
H213	H	1.038034	-0.264867	-0.862505
H214	H	1.538034	0.235133	-0.362505
C215	C	0.158322	-0.404509	-0.440345
C216	C	0.658322	0.095491	0.059655
C217	C	0.227862	-0.413583	-0.450186
C218	C	0.727862	0.086417	0.049814
H219	H	0.134444	-0.433679	-0.472022
H220	H	0.634444	0.066321	0.027978
H221	H	0.144297	-0.416720	-0.393663
H222	H	0.644297	0.083280	0.106337
H223	H	0.149066	-0.356975	-0.448687
H224	H	0.649066	0.143025	0.051313
H225	H	0.237120	-0.461117	-0.441838
H226	H	0.737120	0.038883	0.058162
H227	H	0.241893	-0.401378	-0.496878
H228	H	0.741893	0.098622	0.003122
H229	H	1.038638	-0.726481	-0.287959
H230	H	1.538638	-0.226481	0.212041
C231	C	0.629704	-0.451311	-0.491085
C232	C	1.129704	0.048689	0.008915
C233	C	0.583622	-0.413576	-0.450137
C234	C	1.083622	0.086424	0.049863
H235	H	0.605820	-0.480496	-0.522746
H236	H	1.105820	0.019504	-0.022746
H237	H	0.659645	-0.419658	-0.516663
H238	H	1.159645	0.080342	-0.016663
H239	H	0.654891	-0.479381	-0.461616
H240	H	1.154891	0.020619	0.038384
H241	H	0.558438	-0.385502	-0.479606
H242	H	1.058438	0.114498	0.020394
H243	H	0.553669	-0.445233	-0.424558
H244	H	1.053669	0.054767	0.075442
H245	H	0.237346	-0.245354	-0.267544
H246	H	0.737346	0.254646	0.232456
H247	H	1.043816	-0.593659	-0.282267
H248	H	1.543816	-0.093659	0.217733
H249	H	1.070229	-0.926359	-0.253883
H250	H	1.570229	-0.426359	0.246117
C251	C	0.950361	-0.864406	-0.472010
C252	C	1.450361	-0.364406	0.027990
C253	C	0.908642	-0.908486	-0.428749
C254	C	1.408642	-0.408486	0.071251
H255	H	0.923234	-0.838283	-0.501350
H256	H	1.423234	-0.338283	-0.001350
H257	H	0.976264	-0.833256	-0.443956
H258	H	1.476264	-0.333256	0.056044
H259	H	0.979871	-0.891788	-0.500072
H260	H	1.479871	-0.391788	-0.000072
H261	H	0.879135	-0.881103	-0.400683
H262	H	1.379135	-0.381103	0.099317
H263	H	0.882726	-0.939640	-0.456806
H264	H	1.382726	-0.439640	0.043194
C265	C	0.884864	-0.498387	-1.084960
C266	C	1.384864	0.001613	-0.584960
C267	C	0.873793	-0.428197	-1.099719
C268	C	1.373793	0.071803	-0.599719
H269	H	0.855342	-0.527745	-1.111087
H270	H	1.355342	-0.027745	-0.611087
H271	H	0.930443	-0.508133	-1.097398
H272	H	1.430443	-0.008133	-0.597398
H273	H	0.876304	-0.506889	-1.036386
H274	H	1.376304	-0.006889	-0.536386
H275	H	0.882358	-0.419694	-1.148293
H276	H	1.382358	0.080306	-0.648293
H277	H	0.828203	-0.418448	-1.087286
H278	H	1.328203	0.081552	-0.587286
C279	C	1.006940	-0.763009	-0.233852
C280	C	1.506940	-0.263009	0.266148
C281	C	1.045388	-0.803120	-0.280702
C282	C	1.545388	-0.303120	0.219298
H283	H	1.035996	-0.739459	-0.202386
H284	H	1.535996	-0.239459	0.297614
H285	H	0.983554	-0.729601	-0.259154
H286	H	1.483554	-0.229601	0.240846
H287	H	0.975201	-0.792768	-0.208235
H288	H	1.475201	-0.292768	0.291765
H289	H	1.077123	-0.773360	-0.306323
H290	H	1.577123	-0.273360	0.193677
H291	H	1.068785	-0.836532	-0.255397
H292	H	1.568785	-0.336532	0.244603
H293	H	0.888444	-0.719581	-0.450504
H294	H	1.388444	-0.219581	0.049496
C295	C	0.844046	-0.621689	-0.498490
C296	C	1.344046	-0.121689	0.001510
C297	C	0.882237	-0.575767	-0.457135
C298	C	1.382237	-0.075767	0.042865
H299	H	0.816926	-0.595553	-0.527825
H300	H	1.316926	-0.095553	-0.027825
H301	H	0.873557	-0.649059	-0.526551
H302	H	1.373557	-0.149059	-0.026551
H303	H	0.815745	-0.651592	-0.469137
H304	H	1.315745	-0.151592	0.030863
H305	H	0.910542	-0.545868	-0.486488
H306	H	1.410542	-0.045868	0.013512
H307	H	0.852722	-0.548386	-0.429071
H308	H	1.352722	-0.048386	0.070929
C309	C	1.100562	-0.202671	-1.042484
C310	C	1.600562	0.297329	-0.542484
C311	C	1.063048	-0.239973	-1.091747
C312	C	1.563048	0.260027	-0.591747
H313	H	1.132229	-0.171186	-1.066038
H314	H	1.632229	0.328814	-0.566038
H315	H	1.070913	-0.177076	-1.012792
H316	H	1.570913	0.322924	-0.512792
H317	H	1.123996	-0.234455	-1.015221
H318	H	1.623996	0.265545	-0.515221
H319	H	1.039610	-0.208189	-1.119007
H320	H	1.539610	0.291811	-0.619007
H321	H	1.092702	-0.265570	-1.121451
H322	H	1.592702	0.234430	-0.621451
C323	C	0.940548	-0.443051	-0.810996
C324	C	1.440548	0.056949	-0.310996
C325	C	0.902349	-0.399825	-0.767003
C326	C	1.402349	0.100175	-0.267003
H327	H	0.911031	-0.472425	-0.837112
H328	H	1.411031	0.027575	-0.337112
H329	H	0.968773	-0.414970	-0.842154
H330	H	1.468773	0.085030	-0.342154
H331	H	0.967739	-0.471080	-0.783556
H332	H	1.467739	0.028920	-0.283556
H333	H	0.875161	-0.371792	-0.794444
H334	H	1.375161	0.128208	-0.294444
H335	H	0.874112	-0.427909	-0.735842
H336	H	1.374112	0.072091	-0.235842
C337	C	1.018190	-0.203331	-0.894070
C338	C	1.518190	0.296669	-0.394070
C339	C	1.056403	-0.246544	-0.938064
C340	C	1.556403	0.253456	-0.438064
H341	H	1.047699	-0.173953	-0.867949
H342	H	1.547699	0.326047	-0.367949
H343	H	0.990996	-0.175312	-0.921506
H344	H	1.490996	0.324688	-0.421506
H345	H	0.989969	-0.231425	-0.862912
H346	H	1.489969	0.268575	-0.362912
H347	H	1.084622	-0.218450	-0.969226
H348	H	1.584622	0.281550	-0.469226
H349	H	1.083610	-0.274566	-0.910626
H350	H	1.583610	0.225434	-0.410626
H351	H	0.925486	-0.832939	-0.410474
H352	H	1.425486	-0.332939	0.089526
H353	H	0.880463	-0.421572	-0.955909
H354	H	1.380463	0.078428	-0.455909
