data_functionalizedCrystal
_audit_creation_method	'MofGen! by Chris Wilmer'
_symmetry_space_group_name_H-M	'P1'
_symmetry_Int_Tables_number	1
_symmetry_cell_setting	triclinic
loop_
_symmetry_equiv_pos_as_xyz
  x,y,z
_cell_length_a	8.634740
_cell_length_b	27.731996
_cell_length_c	26.809956
_cell_angle_alpha	90.025346
_cell_angle_beta	90.017895
_cell_angle_gamma	91.595847
loop_
_atom_site_label
_atom_site_type_symbol
_atom_site_fract_x
_atom_site_fract_y
_atom_site_fract_z
O1	O	2.042248	0.157430	0.041499
O2	O	1.593618	0.144229	0.041498
O3	O	1.831908	0.081115	0.041488
O4	O	1.803958	0.220544	0.041509
O5	O	1.831824	0.081090	-0.041471
O6	O	1.593534	0.144205	-0.041461
O7	O	2.042163	0.157405	-0.041460
Zn8	Zn	1.817835	0.150801	-0.054632
Zn9	Zn	1.817947	0.150833	0.054670
O10	O	1.803873	0.220520	-0.041450
C11	C	1.536199	0.141227	0.000018
C12	C	1.365234	0.132311	0.000017
C13	C	1.831292	0.063067	0.000007
C14	C	1.829563	0.009326	0.000002
C15	C	1.818728	-0.323909	0.045247
C16	C	1.812161	-0.525889	0.045256
O17	O	1.811284	-0.551993	0.083715
N18	N	1.811299	-0.551159	0.000035
C19	C	1.812069	-0.525931	-0.045191
O20	O	1.811170	-0.552060	-0.083654
C21	C	1.818625	-0.323953	-0.045199
C22	C	1.819503	-0.298685	0.000024
C23	C	1.819603	-0.298641	0.090467
C24	C	1.821254	-0.248149	0.090464
C25	C	1.822028	-0.222925	0.045242
C26	C	1.821153	-0.248193	0.000022
C27	C	1.819384	-0.298726	-0.090425
C28	C	1.821019	-0.248228	-0.090423
C29	C	1.821897	-0.222961	-0.045199
C30	C	1.823577	-0.172477	-0.045203
N31	N	1.824439	-0.147207	0.000017
C32	C	1.823664	-0.172431	0.045240
C33	C	1.808630	-0.631973	-0.045183
C34	C	1.806994	-0.682467	-0.045182
C35	C	1.807083	-0.682421	0.045265
C36	C	1.808730	-0.631926	0.045263
C37	C	1.809492	-0.606703	0.000037
C38	C	1.827131	-0.066394	0.045231
C39	C	1.828788	-0.015898	0.045224
C40	C	1.828691	-0.015949	-0.045222
C41	C	1.827042	-0.066440	-0.045216
C42	C	1.826257	-0.091662	0.000015
O43	O	1.824437	-0.146342	-0.083642
O44	O	1.824530	-0.146294	0.083697
C45	C	1.817078	-0.374401	0.045250
C46	C	1.816202	-0.399669	0.000030
C47	C	1.816977	-0.374445	-0.045193
C48	C	1.814566	-0.450163	0.000032
C49	C	1.813791	-0.475387	0.045254
C50	C	1.814653	-0.450117	0.090475
C51	C	1.816303	-0.399625	0.090472
C52	C	1.816115	-0.399715	-0.090414
C53	C	1.814467	-0.450207	-0.090407
C54	C	1.813692	-0.475431	-0.045185
C55	C	2.099583	0.160408	0.000021
C56	C	2.270548	0.169324	0.000025
C57	C	1.804490	0.238568	0.000033
C58	C	1.806219	0.292309	0.000041
N59	N	1.817771	0.150780	-0.129228
C60	C	1.725223	0.117158	-0.526126
C61	C	1.725150	0.117141	-0.317248
O62	O	1.646359	0.088508	-0.290260
N63	N	1.817833	0.150790	-0.291107
C64	C	1.910547	0.184444	-0.317187
O65	O	1.989390	0.213062	-0.290159
C66	C	1.910627	0.184459	-0.526064
C67	C	1.817927	0.150810	-0.552203
C68	C	1.632532	0.083511	-0.552265
C69	C	1.632544	0.083518	-0.604482
C70	C	1.725249	0.117170	-0.630559
C71	C	1.817940	0.150816	-0.604420
C72	C	2.003349	0.218110	-0.552144
C73	C	2.003364	0.218110	-0.604366
C74	C	1.910664	0.184461	-0.630506
C75	C	1.910657	0.184475	-0.682713
N76	N	1.817974	0.150825	-0.708855
C77	C	1.725270	0.117173	-0.682778
C78	C	1.910497	0.184435	-0.207524
C79	C	1.910475	0.184432	-0.155305
C80	C	1.725079	0.117128	-0.155370
C81	C	1.725094	0.117133	-0.207590
C82	C	1.817814	0.150786	-0.233666
C83	C	1.725303	0.117189	-0.792436
C84	C	1.725319	0.117199	-0.844657
C85	C	1.910720	0.184502	-0.844587
C86	C	1.910698	0.184493	-0.792371
C87	C	1.817986	0.150833	-0.766296
O88	O	1.989419	0.213089	-0.709733
O89	O	1.646466	0.088553	-0.709815
C90	C	1.725210	0.117151	-0.473910
C91	C	1.817902	0.150798	-0.447771
C92	C	1.910606	0.184450	-0.473848
C93	C	1.817880	0.150795	-0.395552
C94	C	1.725176	0.117142	-0.369475
C95	C	1.632493	0.083493	-0.395616
C96	C	1.632506	0.083499	-0.447833
C97	C	2.003288	0.218100	-0.447706
C98	C	2.003266	0.218091	-0.395490
C99	C	1.910562	0.184438	-0.369413
N100	N	1.818023	0.150852	0.129266
H101	H	1.320278	0.207833	0.000027
O102	O	1.305657	0.086395	0.000035
C103	C	1.142494	0.087413	0.000026
H104	H	1.104015	0.123357	0.015737
H105	H	1.093763	0.056710	0.024109
H106	H	1.097766	0.082995	-0.039773
O107	O	1.829564	0.008571	0.089201
C108	C	1.828560	-0.024524	0.129115
H109	H	1.778590	-0.060792	0.115856
H110	H	1.754261	-0.010333	0.160743
H111	H	1.952014	-0.029208	0.143020
O112	O	1.821967	-0.223675	-0.134326
C113	C	1.956382	-0.193742	-0.137049
H114	H	2.001170	-0.185907	-0.097788
H115	H	1.927499	-0.158412	-0.156195
H116	H	2.049164	-0.212701	-0.159364
H117	H	1.557020	0.056099	-0.469111
O118	O	2.000344	0.217146	-0.232907
C119	C	1.905640	0.245713	-0.263102
H120	H	1.791735	0.225346	-0.270957
H121	H	1.967449	0.253993	-0.299806
H122	H	1.881155	0.280902	-0.242959
O123	O	1.826574	-0.090938	0.089138
C124	C	1.959090	-0.119400	0.091860
H125	H	2.003291	-0.126751	0.052599
H126	H	1.927936	-0.155058	0.111014
H127	H	2.053194	-0.099408	0.114169
O128	O	1.635231	0.084464	-0.869971
C129	C	1.553381	0.054767	-0.835754
H130	H	1.617203	0.054927	-0.798523
H131	H	1.544761	0.016354	-0.850864
H132	H	1.431996	0.069006	-0.830207
O133	O	1.822017	-0.223683	0.134439
C134	C	1.821013	-0.256783	0.174349
H135	H	1.771056	-0.293051	0.161085
H136	H	1.746701	-0.242598	0.205977
H137	H	1.944465	-0.261465	0.188257
O138	O	2.093231	0.250846	-0.370157
C139	C	2.049343	0.297861	-0.382888
H140	H	1.989548	0.297145	-0.420808
H141	H	2.156703	0.322673	-0.384655
H142	H	1.966293	0.311784	-0.353498
O143	O	1.635157	0.084460	-0.129956
C144	C	1.654990	0.091687	-0.078263
H145	H	1.771309	0.110904	-0.071109
H146	H	1.651986	0.055319	-0.058430
H147	H	1.557714	0.114681	-0.063449
O148	O	2.093524	0.250728	-0.473054
C149	C	2.199336	0.226210	-0.503271
H150	H	2.216812	0.188559	-0.487559
H151	H	2.314975	0.247066	-0.503829
H152	H	2.151787	0.223181	-0.542856
O153	O	1.818583	-0.323162	0.134387
C154	C	1.684217	-0.353118	0.137101
H155	H	1.591399	-0.338437	0.111438
H156	H	1.639460	-0.353912	0.177100
H157	H	1.713138	-0.391228	0.124961
H158	H	1.557003	0.056093	-0.374375
O159	O	1.635273	0.084428	-0.233034
C160	C	1.730002	0.055862	-0.263229
H161	H	1.843917	0.076229	-0.271030
H162	H	1.668227	0.047587	-0.299960
H163	H	1.754463	0.020671	-0.243115
H164	H	1.809442	-0.611356	0.082088
O165	O	1.806046	-0.706952	0.089182
C166	C	1.671667	-0.736904	0.091873
H167	H	1.578877	-0.722210	0.066207
H168	H	1.626876	-0.737712	0.131867
H169	H	1.700586	-0.775010	0.079720
H170	H	1.806303	-0.703036	-0.082007
H171	H	1.818672	-0.319290	-0.127251
O172	O	1.809458	-0.607549	-0.089164
C173	C	1.808317	-0.640687	-0.129070
H174	H	1.855932	-0.676404	-0.115802
H175	H	1.883583	-0.625706	-0.160698
H176	H	1.684519	-0.646747	-0.142980
H177	H	1.826342	-0.087014	-0.082041
O178	O	1.829206	0.008509	-0.089179
C179	C	1.695287	-0.004569	-0.116673
H180	H	1.649648	-0.041477	-0.103819
H181	H	1.725159	-0.006138	-0.158048
H182	H	1.602765	0.023331	-0.110387
O183	O	1.817086	-0.375161	-0.134313
C184	C	1.951509	-0.345231	-0.137026
H185	H	1.996276	-0.337398	-0.097762
H186	H	1.922648	-0.309899	-0.156172
H187	H	2.044299	-0.364191	-0.159336
H188	H	1.814029	-0.470663	0.127297
O189	O	1.542324	0.050800	-0.527016
C190	C	1.460562	0.021100	-0.561295
H191	H	1.451128	0.040676	-0.598508
H192	H	1.339505	0.012444	-0.546238
H193	H	1.524935	-0.013834	-0.566859
H194	H	1.813764	-0.470776	-0.127237
O195	O	1.817074	-0.375159	0.134447
C196	C	1.816074	-0.408258	0.174357
H197	H	1.766111	-0.444526	0.161094
H198	H	1.741771	-0.394073	0.205987
H199	H	1.939529	-0.412942	0.188262
H200	H	1.985942	0.211837	-0.134027
O201	O	1.635142	0.084559	-0.767057
C202	C	1.529287	0.109084	-0.736864
H203	H	1.576350	0.147146	-0.729006
H204	H	1.512567	0.088864	-0.700160
H205	H	1.413348	0.111072	-0.757008
O206	O	2.093553	0.250814	-0.526838
C207	C	2.175347	0.280517	-0.561062
H208	H	2.184805	0.260948	-0.598293
H209	H	2.296395	0.289168	-0.545962
H210	H	2.110987	0.315454	-0.566606
O211	O	1.542729	0.050811	-0.629926
C212	C	1.637465	0.022248	-0.660122
H213	H	1.751374	0.042619	-0.667924
H214	H	1.575690	0.013972	-0.696853
H215	H	1.661938	-0.012942	-0.640009
H216	H	2.078872	0.245514	-0.625595
H217	H	1.986160	0.211898	-0.771087
H218	H	1.986194	0.211902	-0.865829
