data_functionalizedCrystal
_audit_creation_method	'MofGen! by Chris Wilmer'
_symmetry_space_group_name_H-M	'P1'
_symmetry_Int_Tables_number	1
_symmetry_cell_setting	triclinic
loop_
_symmetry_equiv_pos_as_xyz
  x,y,z
_cell_length_a	10.686220
_cell_length_b	21.395362
_cell_length_c	10.685880
_cell_angle_alpha	85.667121
_cell_angle_beta	89.641569
_cell_angle_gamma	85.582175
loop_
_atom_site_label
_atom_site_type_symbol
_atom_site_fract_x
_atom_site_fract_y
_atom_site_fract_z
Zn1	Zn	1.972110	0.195587	-0.562327
Zn2	Zn	1.955820	0.293018	-0.352552
Zn3	Zn	1.746239	0.196864	-0.368649
Zn4	Zn	1.762226	0.308944	-0.578320
O5	O	1.859099	0.248603	-0.465462
O6	O	2.145497	0.201312	-0.521070
O7	O	1.914511	0.274132	-0.179148
O8	O	1.776328	0.109013	-0.394385
O9	O	2.133529	0.272894	-0.366949
O10	O	1.942274	0.108075	-0.536679
O11	O	1.760532	0.203488	-0.190974
O12	O	1.572811	0.218931	-0.409893
O13	O	1.803575	0.300037	-0.751738
O14	O	1.584557	0.301275	-0.563937
O15	O	1.957776	0.216754	-0.739988
O16	O	1.930013	0.382811	-0.382457
O17	O	1.787780	0.394512	-0.548328
C18	C	1.533167	0.261970	-0.490398
C19	C	1.393734	0.267705	-0.501095
C20	C	1.858900	0.411396	-0.465406
C21	C	1.858932	0.481036	-0.465414
C22	C	1.945292	0.513208	-0.539567
C23	C	1.945325	0.578643	-0.539592
C24	C	1.859009	0.611903	-0.465442
C25	C	1.772633	0.579723	-0.391285
C26	C	1.772595	0.514290	-0.391271
C27	C	1.840564	0.712052	-0.353189
C28	C	1.840611	0.777484	-0.353200
C29	C	1.859121	0.813721	-0.465486
C30	C	1.877610	0.784517	-0.577762
C31	C	1.877572	0.719084	-0.577748
C32	C	1.859041	0.682854	-0.465449
C33	C	1.945522	0.916845	-0.539672
C34	C	1.945546	0.982282	-0.539700
C35	C	1.772860	0.983360	-0.391381
C36	C	1.772830	0.917925	-0.391365
C37	C	1.859167	0.884671	-0.465508
C38	C	2.186303	0.235184	-0.440430
C39	C	2.325739	0.229465	-0.429763
C40	C	1.884276	0.260030	-0.792651
C41	C	1.895006	0.264899	-0.932080
C42	C	1.859283	1.085175	-0.465537
C43	C	1.859228	1.015537	-0.465551
C44	C	1.834091	0.237172	-0.139540
C45	C	1.823605	0.232116	-0.000094
H46	H	1.345270	0.304836	-0.570347
H47	H	1.702572	1.010440	-0.331015
H48	H	2.015871	1.008475	-0.600090
H49	H	1.702512	0.891729	-0.330977
O50	O	2.038429	0.477338	-0.619508
H51	H	2.098491	0.510707	-0.671071
H52	H	1.964348	0.296693	-0.980517
H53	H	2.015641	0.604844	-0.599992
H54	H	1.892685	0.814020	-0.669196
O55	O	1.389911	0.180281	-0.338029
H56	H	1.493030	0.183338	-0.343749
O57	O	1.731746	0.189995	-0.935944
H58	H	1.737449	0.192645	-0.832824
H59	H	1.892623	0.695308	-0.669167
O60	O	1.820670	0.808982	-0.232110
H61	H	1.807766	0.772794	-0.154033
H62	H	1.825486	0.682553	-0.261746
H63	H	1.702352	0.606808	-0.330914
O64	O	2.038626	0.880971	-0.619646
H65	H	2.098673	0.914340	-0.671230
H66	H	1.702268	0.488095	-0.330887
