data_functionalizedCrystal
_audit_creation_method	'MofGen! by Chris Wilmer'
_symmetry_space_group_name_H-M	'P1'
_symmetry_Int_Tables_number	1
_symmetry_cell_setting	triclinic
loop_
_symmetry_equiv_pos_as_xyz
  x,y,z
_cell_length_a	15.944493
_cell_length_b	13.339070
_cell_length_c	12.376985
_cell_angle_alpha	75.600699
_cell_angle_beta	78.727463
_cell_angle_gamma	80.447831
loop_
_atom_site_label
_atom_site_type_symbol
_atom_site_fract_x
_atom_site_fract_y
_atom_site_fract_z
O1	O	0.432660	-1.322808	-0.093980
O2	O	0.377389	-1.028291	-0.093981
O3	O	0.284629	-1.183621	-0.093989
O4	O	0.525421	-1.167479	-0.093971
O5	O	0.261480	-1.222409	0.094004
O6	O	0.354240	-1.067079	0.094013
O7	O	0.409511	-1.361596	0.094014
Zn8	Zn	0.378200	-1.220496	0.123861
Zn9	Zn	0.408700	-1.169392	-0.123828
O10	O	0.502271	-1.206267	0.094023
C11	C	0.356479	-1.009998	0.000016
C12	C	0.328649	-0.897701	0.000015
C13	C	0.241606	-1.202354	0.000002
C14	C	0.147899	-1.200373	-0.000012
C15	C	0.430422	-1.379889	0.000015
C16	C	0.458252	-1.492185	0.000009
C17	C	-0.066559	-1.291809	0.000010
C18	C	-0.117202	-1.223379	-0.092680
C19	C	-0.023678	-1.196710	0.000002
C20	C	-0.140007	-1.261599	0.092667
C21	C	-0.189414	-1.193179	0.000020
C22	C	-0.073078	-1.128289	-0.092765
C23	C	-0.095886	-1.166540	0.092665
C24	C	-0.146510	-1.098036	-0.000047
C25	C	0.071798	-1.198746	-0.000010
C26	C	-0.284888	-1.191134	0.000024
C27	C	0.545294	-1.187533	0.000028
C28	C	0.639003	-1.189513	0.000035
N29	N	0.357386	-1.255381	0.292903
C30	C	0.545036	-0.532868	0.000014
C31	C	0.571186	-0.638375	0.000011
C32	C	0.510554	-0.703212	0.000013
C33	C	0.423768	-0.662531	0.000016
C34	C	0.397616	-0.557011	0.000009
C35	C	0.363134	-0.727355	0.000008
C36	C	0.276348	-0.686674	0.000011
C37	C	0.250201	-0.581164	0.000005
C38	C	0.310833	-0.516328	0.000004
C39	C	0.389286	-0.832875	0.000014
C40	C	0.241866	-0.857018	0.000010
C41	C	0.215716	-0.751510	0.000012
C42	C	0.477853	-1.053496	0.647985
C43	C	0.492423	-1.029061	0.529657
C44	C	0.458665	-1.085639	0.470462
C45	C	0.410334	-1.166657	0.529608
C46	C	0.395757	-1.191090	0.647948
C47	C	0.376569	-1.223232	0.470425
C48	C	0.328238	-1.304250	0.529571
C49	C	0.313664	-1.328679	0.647899
C50	C	0.347422	-1.272101	0.707093
C51	C	0.391147	-1.198799	0.352086
C52	C	0.309051	-1.336393	0.352049
C53	C	0.294481	-1.360828	0.470377
N54	N	0.429518	-1.134508	0.707130
H55	H	-0.031832	-1.373704	-0.000083
H56	H	0.179536	-0.548043	-0.000005
H57	H	0.255128	-1.426795	0.518548
C58	C	-0.193206	-0.987274	-0.000115
N59	N	-0.228378	-0.903849	-0.000171
H60	H	0.145054	-0.718370	0.000005
C61	C	-0.082436	-1.134171	0.198538
N62	N	-0.072307	-1.109797	0.278290
C63	C	0.484747	-0.877614	0.000022
N64	N	0.556653	-0.911310	0.000032
C65	C	0.175165	-0.928335	0.000015
N66	N	0.124931	-0.982056	0.000018
C67	C	0.474688	-1.058750	0.340298
N68	N	0.486758	-1.038493	0.242253
C69	C	0.666645	-0.683120	0.000023
N70	N	0.738550	-0.716823	0.000039
C71	C	0.271915	-1.398634	0.286940
N72	N	0.243945	-1.445508	0.237893
H73	H	0.594394	-0.480068	0.000003
C74	C	-0.130637	-1.255795	-0.198540
N75	N	-0.140755	-1.280218	-0.278269
H76	H	-0.043952	-1.071966	-0.171211
C77	C	0.545697	-0.940049	0.464606
N78	N	0.585867	-0.873040	0.415608
C79	C	0.282071	-0.400262	0.000008
N80	N	0.260411	-0.312839	0.000010
C81	C	0.260472	-1.417776	0.712956
N82	N	0.220401	-1.484879	0.761955
C83	C	0.514965	-0.991256	0.713106
N84	N	0.542917	-0.944368	0.762157
H85	H	0.430498	-1.132834	0.303940
H86	H	-0.169224	-1.317947	0.171024
C87	C	0.331394	-1.298975	0.837262
N88	N	0.319322	-1.319212	0.935307
H89	H	0.531851	-0.789120	0.000008
