data_functionalizedCrystal
_audit_creation_method	'MofGen! by Chris Wilmer'
_symmetry_space_group_name_H-M	'P1'
_symmetry_Int_Tables_number	1
_symmetry_cell_setting	triclinic
loop_
_symmetry_equiv_pos_as_xyz
  x,y,z
_cell_length_a	13.033748
_cell_length_b	16.625545
_cell_length_c	13.032268
_cell_angle_alpha	97.146495
_cell_angle_beta	103.297929
_cell_angle_gamma	97.220200
loop_
_atom_site_label
_atom_site_type_symbol
_atom_site_fract_x
_atom_site_fract_y
_atom_site_fract_z
Zn1	Zn	1.547407	-0.207787	-0.394587
Zn2	Zn	1.880740	0.125547	-0.061253
Zn3	Zn	2.214074	0.458880	0.272080
Zn4	Zn	1.569840	-0.323035	-0.217000
Zn5	Zn	1.903173	0.010298	0.116333
Zn6	Zn	2.236506	0.343631	0.449667
Zn7	Zn	1.392359	-0.207844	-0.239528
Zn8	Zn	1.725693	0.125489	0.093805
Zn9	Zn	2.059026	0.458822	0.427139
Zn10	Zn	1.369750	-0.362218	-0.417065
Zn11	Zn	1.703084	-0.028884	-0.083732
Zn12	Zn	2.036417	0.304449	0.249601
O13	O	1.469839	-0.275221	-0.317045
O14	O	1.803172	0.058112	0.016288
O15	O	2.136506	0.391446	0.349622
O16	O	1.699009	-0.206653	-0.352194
O17	O	2.032342	0.126681	-0.018861
O18	O	2.365676	0.460014	0.314472
O19	O	1.565147	-0.291381	-0.071368
O20	O	1.898480	0.041952	0.261966
O21	O	2.231814	0.375285	0.595299
O22	O	1.413001	-0.094999	-0.260117
O23	O	1.746334	0.238334	0.073216
O24	O	2.079667	0.571668	0.406549
O25	O	1.715490	-0.291325	-0.221722
O26	O	2.048824	0.042008	0.111611
O27	O	2.382157	0.375341	0.444945
O28	O	1.526913	-0.094957	-0.374039
O29	O	1.860247	0.238377	-0.040705
O30	O	2.193580	0.571710	0.292628
O31	O	1.434753	-0.206751	-0.087919
O32	O	1.768086	0.126582	0.245415
O33	O	2.101420	0.459916	0.578748
O34	O	1.240734	-0.244744	-0.281914
O35	O	1.574067	0.088589	0.051419
O36	O	1.907401	0.421922	0.384753
O37	O	1.374467	-0.358106	-0.562704
O38	O	1.707800	-0.024772	-0.229371
O39	O	2.041133	0.308561	0.103962
O40	O	1.224123	-0.358162	-0.412350
O41	O	1.557457	-0.024828	-0.079017
O42	O	1.890790	0.308505	0.254317
O43	O	1.504990	-0.244646	-0.546189
O44	O	1.838324	0.088687	-0.212856
O45	O	2.171657	0.422021	0.120477
O46	O	1.543224	-0.441071	-0.243519
O47	O	1.876557	-0.107737	0.089815
O48	O	2.209890	0.225596	0.423148
O49	O	1.396219	-0.469858	-0.390506
O50	O	1.729552	-0.136524	-0.057172
O51	O	2.062885	0.196809	0.276161
C52	C	1.193892	-0.305712	-0.352016
C53	C	1.527225	0.027622	-0.018683
C54	C	1.860558	0.360955	0.314650
C55	C	1.075837	-0.318778	-0.367002
C56	C	1.409170	0.014555	-0.033669
C57	C	1.742503	0.347889	0.299664
C58	C	1.031382	-0.268425	-0.309250
C59	C	1.364716	0.064908	0.024083
C60	C	1.698049	0.398242	0.357417
C61	C	0.909367	-0.281928	-0.324737
C62	C	1.242700	0.051405	0.008596
C63	C	1.576033	0.384738	0.341929
C64	C	1.469728	-0.484721	-0.317026
C65	C	1.803061	-0.151388	0.016307
C66	C	2.136395	0.181946	0.349640
C67	C	1.469773	-0.574339	-0.317041
C68	C	1.803106	-0.241006	0.016292
C69	C	2.136440	0.092328	0.349625
C70	C	1.469812	-0.647119	-0.317057
C71	C	1.803145	-0.313786	0.016276
C72	C	2.136478	0.019547	0.349609
C73	C	1.469870	-0.738423	-0.317073
C74	C	1.803204	-0.405090	0.016260
C75	C	2.136537	-0.071757	0.349594
C76	C	1.469924	-0.811195	-0.317079
C77	C	1.803257	-0.477862	0.016254
C78	C	2.136591	-0.144529	0.349587
C79	C	1.469982	-0.902505	-0.317093
C80	C	1.803315	-0.569172	0.016240
C81	C	2.136649	-0.235839	0.349573
C82	C	1.746864	-0.244612	-0.281938
C83	C	2.080197	0.088721	0.051395
C84	C	2.413531	0.422055	0.384729
C85	C	1.864916	-0.231568	-0.266977
C86	C	2.198249	0.101765	0.066356
C87	C	2.531582	0.435098	0.399689
C88	C	1.434704	-0.305740	-0.594060
C89	C	1.768037	0.027593	-0.260727
C90	C	2.101371	0.360927	0.072607
C91	C	1.419732	-0.318746	-0.712107
C92	C	1.753065	0.014588	-0.378774
C93	C	2.086398	0.347921	-0.045441
C94	C	1.469977	-0.064902	-0.317083
C95	C	1.803310	0.268431	0.016250
C96	C	2.136643	0.601764	0.349583
C97	C	1.470035	0.024723	-0.317100
C98	C	1.803369	0.358056	0.016233
C99	C	2.136702	0.691390	0.349567
C100	C	1.477637	-0.268406	-0.756565
C101	C	1.810970	0.064927	-0.423232
C102	C	2.144304	0.398260	-0.089899
C103	C	1.462163	-0.281847	-0.878573
C104	C	1.795497	0.051487	-0.545240
C105	C	2.128830	0.384820	-0.211906
C106	C	1.504899	-0.244756	-0.041100
C107	C	1.838232	0.088578	0.292233
C108	C	2.171565	0.421911	0.625567
C109	C	1.520077	-0.231500	0.076973
C110	C	1.853410	0.101833	0.410306
C111	C	2.186744	0.435166	0.743639
H112	H	0.857098	-0.335040	-0.385648
H113	H	1.190431	-0.001707	-0.052315
H114	H	1.523765	0.331627	0.281019
H115	H	1.083655	-0.215322	-0.248337
H116	H	1.416989	0.118012	0.084997
H117	H	1.750322	0.451345	0.418330
H118	H	1.401122	-0.334894	-0.930834
H119	H	1.734455	-0.001560	-0.597501
H120	H	2.067789	0.331773	-0.264168
O121	O	1.013422	-0.382037	-0.439789
O122	O	1.346756	-0.048703	-0.106456
O123	O	1.680089	0.284630	0.226877
C124	C	0.940561	-0.350827	-0.516555
C125	C	1.273894	-0.017494	-0.183222
C126	C	1.607228	0.315840	0.150111
H127	H	0.973232	-0.284385	-0.519036
H128	H	1.306566	0.048948	-0.185703
H129	H	1.639899	0.382281	0.147630
H130	H	0.928837	-0.389231	-0.598394
H131	H	1.262170	-0.055898	-0.265061
H132	H	1.595503	0.277435	0.068272
H133	H	0.860697	-0.353628	-0.494313
H134	H	1.194031	-0.020294	-0.160979
H135	H	1.527364	0.313039	0.172354
H136	H	1.358694	-0.371789	-0.764372
H137	H	1.692028	-0.038455	-0.431039
H138	H	2.025361	0.294878	-0.097705
O139	O	0.927383	-0.168300	-0.194238
O140	O	1.260717	0.165033	0.139096
O141	O	1.594050	0.498367	0.472429
C142	C	1.000207	-0.199508	-0.117434
C143	C	1.333540	0.133825	0.215899
C144	C	1.666873	0.467159	0.549232
H145	H	1.011969	-0.262955	-0.152670
H146	H	1.345302	0.070378	0.180664
H147	H	1.678635	0.403712	0.513997
H148	H	1.080056	-0.156510	-0.093436
H149	H	1.413390	0.176824	0.239898
H150	H	1.746723	0.510157	0.573231
H151	H	0.967485	-0.204295	-0.044093
H152	H	1.300818	0.129039	0.289240
H153	H	1.634152	0.462372	0.622573
O154	O	1.550318	-0.205085	-0.694124
O155	O	1.883651	0.128249	-0.360791
O156	O	2.216984	0.461582	-0.027458
C157	C	1.497962	-0.152655	-0.637657
C158	C	1.831296	0.180678	-0.304324
C159	C	2.164629	0.514012	0.029010
H160	H	1.419530	-0.188179	-0.631349
H161	H	1.752864	0.145154	-0.298016
H162	H	2.086197	0.478488	0.035317
H163	H	1.551058	-0.128537	-0.554135
H164	H	1.884391	0.204797	-0.220802
H165	H	2.217725	0.538130	0.112531
H166	H	1.480964	-0.098855	-0.681823
H167	H	1.814297	0.234479	-0.348490
H168	H	2.147631	0.567812	-0.015157
H169	H	1.581106	-0.178445	-0.870769
H170	H	1.914439	0.154888	-0.537436
H171	H	2.247773	0.488222	-0.204102
