data_functionalizedCrystal
_audit_creation_method	'MofGen! by Chris Wilmer'
_symmetry_space_group_name_H-M	'P1'
_symmetry_Int_Tables_number	1
_symmetry_cell_setting	triclinic
loop_
_symmetry_equiv_pos_as_xyz
  x,y,z
_cell_length_a	12.594516
_cell_length_b	19.805407
_cell_length_c	19.805398
_cell_angle_alpha	90.015489
_cell_angle_beta	89.980868
_cell_angle_gamma	89.987797
loop_
_atom_site_label
_atom_site_type_symbol
_atom_site_fract_x
_atom_site_fract_y
_atom_site_fract_z
Zn1	Zn	-0.423894	-1.034760	-0.382745
Zn2	Zn	0.076106	-0.534760	0.117255
Zn3	Zn	-0.601882	-1.034702	-0.269570
Zn4	Zn	-0.101882	-0.534702	0.230430
Zn5	Zn	-0.423906	-0.921582	-0.269570
Zn6	Zn	0.076094	-0.421582	0.230430
Zn7	Zn	-0.601819	-0.921558	-0.382717
Zn8	Zn	-0.101819	-0.421558	0.117283
O9	O	-0.512875	-0.978150	-0.326151
O10	O	-0.012875	-0.478150	0.173849
O11	O	-0.447526	-1.129469	-0.367743
O12	O	0.052474	-0.629469	0.132257
O13	O	-0.578305	-1.019682	-0.174853
O14	O	-0.078305	-0.519682	0.325147
O15	O	-0.274958	-0.936629	-0.284594
O16	O	0.225042	-0.436629	0.215406
O17	O	-0.578293	-1.129426	-0.284594
O18	O	-0.078293	-0.629426	0.215406
O19	O	-0.274949	-1.019780	-0.367743
O20	O	0.225051	-0.519780	0.132257
O21	O	-0.447546	-0.936573	-0.174853
O22	O	0.052454	-0.436573	0.325147
O23	O	-0.447485	-0.826862	-0.284568
O24	O	0.052515	-0.326862	0.215432
O25	O	-0.578185	-0.936589	-0.477438
O26	O	-0.078185	-0.436589	0.022562
O27	O	-0.578197	-0.826845	-0.367697
O28	O	-0.078197	-0.326845	0.132303
O29	O	-0.447464	-1.019757	-0.477458
O30	O	0.052536	-0.519757	0.022542
O31	O	-0.750819	-1.019660	-0.284568
O32	O	-0.250819	-0.519660	0.215432
O33	O	-0.750773	-0.936533	-0.367697
O34	O	-0.250773	-0.436533	0.132303
C35	C	-0.512836	-0.802294	-0.326130
C36	C	-0.012836	-0.302294	0.173870
C37	C	-0.512845	-0.727062	-0.326137
C38	C	-0.012845	-0.227062	0.173863
C39	C	-0.444874	-0.691741	-0.369498
C40	C	0.055126	-0.191741	0.130502
C41	C	-0.444877	-0.621052	-0.369499
C42	C	0.055123	-0.121052	0.130501
C43	C	-0.512858	-0.585687	-0.326142
C44	C	-0.012858	-0.085687	0.173858
C45	C	-0.580832	-0.621013	-0.282776
C46	C	-0.080832	-0.121013	0.217224
C47	C	-0.580822	-0.691700	-0.282772
C48	C	-0.080822	-0.191700	0.217228
C49	C	-0.580871	-0.335940	-0.282790
C50	C	-0.080871	0.164060	0.217210
C51	C	-0.580877	-0.265248	-0.282799
C52	C	-0.080877	0.234752	0.217201
C53	C	-0.444925	-0.265292	-0.369516
C54	C	0.055075	0.234708	0.130484
C55	C	-0.444916	-0.335979	-0.369512
C56	C	0.055084	0.164021	0.130488
C57	C	-0.512886	-0.371299	-0.326145
C58	C	-0.012886	0.128701	0.173855
C59	C	-0.512880	-0.447948	-0.326143
C60	C	-0.012880	0.052052	0.173857
C61	C	-0.512870	-0.509040	-0.326146
C62	C	-0.012870	-0.009040	0.173854
C63	C	-0.789416	-0.978106	-0.326144
C64	C	-0.289416	-0.478106	0.173856
C65	C	-0.907721	-0.978149	-0.326164
C66	C	-0.407721	-0.478149	0.173836
C67	C	-0.976988	-0.932932	-0.371346
C68	C	-0.476988	-0.432932	0.128654
C69	C	-1.047839	-0.916447	-0.309584
C70	C	-0.547839	-0.416447	0.190416
C71	C	-1.047669	-0.994695	-0.387936
C72	C	-0.547669	-0.494695	0.112064
C73	C	-0.977015	-0.961632	-0.264369
C74	C	-0.477015	-0.461632	0.235631
C75	C	-0.976838	-1.039908	-0.342763
C76	C	-0.476838	-0.539908	0.157237
C77	C	-1.047657	-1.023447	-0.280959
C78	C	-0.547657	-0.523447	0.219041
C79	C	-0.235254	-0.978213	-0.326172
C80	C	0.264746	-0.478213	0.173828
C81	C	-0.116949	-0.978240	-0.326181
C82	C	0.383051	-0.478240	0.173819
C83	C	-0.512816	-0.978177	-0.502693
C84	C	-0.012816	-0.478177	-0.002693
C85	C	-0.512791	-0.978188	-0.577925
C86	C	-0.012791	-0.478188	-0.077925
C87	C	-0.512907	-0.154693	-0.326166
C88	C	-0.012907	0.345307	0.173834
C89	C	-0.512900	-0.229925	-0.326156
C90	C	-0.012900	0.270075	0.173844
C91	C	-0.444536	-1.021576	-1.039728
C92	C	0.055464	-0.521576	-0.539728
C93	C	-0.444569	-1.021565	-0.969040
C94	C	0.055431	-0.521565	-0.469040
C95	C	-0.512643	-0.978258	-0.933687
C96	C	-0.012643	-0.478258	-0.433687
C97	C	-0.580696	-0.934963	-0.969027
C98	C	-0.080696	-0.434963	-0.469027
C99	C	-0.580668	-0.934977	-1.039714
C100	C	-0.080668	-0.434977	-0.539714
C101	C	-0.580812	-0.934904	-0.683954
C102	C	-0.080812	-0.434904	-0.183954
C103	C	-0.580832	-0.934891	-0.613261
C104	C	-0.080832	-0.434891	-0.113261
C105	C	-0.444712	-1.021492	-0.613279
C106	C	0.055288	-0.521492	-0.113279
C107	C	-0.444684	-1.021506	-0.683966
C108	C	0.055316	-0.521506	-0.183966
C109	C	-0.512741	-0.978214	-0.719300
C110	C	-0.012741	-0.478214	-0.219300
C111	C	-0.512706	-0.978227	-0.795948
C112	C	-0.012706	-0.478227	-0.295948
C113	C	-0.512673	-0.978241	-0.857040
C114	C	-0.012673	-0.478241	-0.357040
C115	C	-0.512857	-0.978163	-0.150295
C116	C	-0.012857	-0.478163	0.349705
C117	C	-0.512582	-0.978283	-0.075063
C118	C	-0.012582	-0.478283	0.424937
H119	H	-0.636178	-0.592213	-0.247471
H120	H	-0.136178	-0.092213	0.252529
N121	N	-0.937670	-1.105361	-0.360378
N122	N	-0.437670	-0.605361	0.139622
N123	N	-0.961556	-1.155441	-0.325113
N124	N	-0.461556	-0.655441	0.174887
H125	H	-0.933889	-1.201668	-0.337559
H126	H	-0.433889	-0.701668	0.162441
N127	N	-0.650173	-0.890758	-1.075816
N128	N	-0.150173	-0.390758	-0.575816
N129	N	-0.717991	-0.914562	-1.115258
N130	N	-0.217991	-0.414562	-0.615258
H131	H	-0.767084	-0.883331	-1.140754
H132	H	-0.267084	-0.383331	-0.640754
H133	H	-1.078492	-1.061725	-0.242713
H134	H	-0.578492	-0.561725	0.257287
N135	N	-1.086608	-1.012223	-0.453456
N136	N	-0.586608	-0.512223	0.046544
N137	N	-1.143290	-1.063485	-0.460900
N138	N	-0.643290	-0.563485	0.039100
H139	H	-1.170789	-1.075860	-0.507174
H140	H	-0.670789	-0.575860	-0.007174
H141	H	-0.636227	-0.899652	-0.712714
H142	H	-0.136227	-0.399652	-0.212714
N143	N	-0.374981	-1.065811	-1.075826
N144	N	0.125019	-0.565811	-0.575826
N145	N	-0.314230	-1.104462	-1.044265
N146	N	0.185770	-0.604462	-0.544265
H147	H	-0.265104	-1.135705	-1.069757
H148	H	0.234896	-0.635705	-0.569757
N149	N	-0.375063	-1.065798	-0.932957
N150	N	0.124937	-0.565798	-0.432957
N151	N	-0.314288	-1.104461	-0.964529
N152	N	0.185712	-0.604461	-0.464529
H153	H	-0.265198	-1.135705	-0.939047
H154	H	0.234802	-0.635705	-0.439047
N155	N	-0.375410	-0.584983	-0.413776
N156	N	0.124590	-0.084983	0.086224
N157	N	-0.314705	-0.616567	-0.452476
N158	N	0.185295	-0.116567	0.047524
H159	H	-0.265629	-0.591094	-0.483742
H160	H	0.234371	-0.091094	0.016258
H161	H	-0.389519	-0.720530	-0.404806
H162	H	0.110481	-0.220530	0.095194
H163	H	-0.636171	-0.720458	-0.247463
H164	H	-0.136171	-0.220458	0.252537
N165	N	-0.375135	-1.065743	-0.720066
N166	N	0.124865	-0.565743	-0.220066
N167	N	-0.314383	-1.104396	-0.688509
N168	N	0.185617	-0.604396	-0.188509
H169	H	-0.265263	-1.135641	-0.714003
H170	H	0.234737	-0.635641	-0.214003
N171	N	-0.375198	-1.065711	-0.577175
N172	N	0.124802	-0.565711	-0.077175
N173	N	-0.375227	-1.065695	-0.514062
N174	N	0.124773	-0.565695	-0.014062
H175	H	-0.326131	-1.096921	-0.488564
H176	H	0.173869	-0.596921	0.011436
H177	H	-0.945957	-0.894625	-0.409499
H178	H	-0.445957	-0.394625	0.090501
H179	H	-1.079050	-0.864261	-0.295558
H180	H	-0.579050	-0.364261	0.204442
H181	H	-0.389563	-0.364770	-0.404820
H182	H	0.110437	0.135230	0.095180
N183	N	-0.650392	-0.890664	-0.577148
N184	N	-0.150392	-0.390664	-0.077148
N185	N	-0.718229	-0.914461	-0.537700
N186	N	-0.218229	-0.414461	-0.037700
H187	H	-0.767353	-0.883228	-0.512194
H188	H	-0.267353	-0.383228	-0.012194
H189	H	-0.636128	-0.899704	-0.940237
H190	H	-0.136128	-0.399704	-0.440237
H191	H	-0.636238	-0.236455	-0.247490
H192	H	-0.136238	0.263545	0.252510
N193	N	-0.375500	-0.229202	-0.413813
N194	N	0.124500	0.270798	0.086187
N195	N	-0.375513	-0.166089	-0.413813
N196	N	0.124487	0.333911	0.086187
H197	H	-0.326486	-0.140600	-0.445098
H198	H	0.173514	0.359400	0.054902
H199	H	-0.636217	-0.364689	-0.247478
H200	H	-0.136217	0.135311	0.252522
H201	H	-0.946108	-0.947613	-0.212121
H202	H	-0.446108	-0.447613	0.287879
