data_functionalizedCrystal
_audit_creation_method	'MofGen! by Chris Wilmer'
_symmetry_space_group_name_H-M	'P1'
_symmetry_Int_Tables_number	1
_symmetry_cell_setting	triclinic
loop_
_symmetry_equiv_pos_as_xyz
  x,y,z
_cell_length_a	16.992694
_cell_length_b	23.532407
_cell_length_c	15.455313
_cell_angle_alpha	92.643560
_cell_angle_beta	87.142206
_cell_angle_gamma	86.758451
loop_
_atom_site_label
_atom_site_type_symbol
_atom_site_fract_x
_atom_site_fract_y
_atom_site_fract_z
O1	O	1.042902	0.118384	-0.072037
O2	O	0.814628	0.117059	-0.072062
O3	O	0.935648	0.035132	-0.072033
O4	O	0.921882	0.200311	-0.072066
O5	O	0.928727	0.039796	0.072228
O6	O	0.807707	0.121723	0.072198
O7	O	1.035981	0.123049	0.072224
Cu8	Cu	0.921212	0.122812	0.085383
Cu9	Cu	0.929397	0.117296	-0.085222
O10	O	0.914962	0.204976	0.072194
C11	C	0.781968	0.117688	0.000065
C12	C	0.694964	0.112604	0.000056
C13	C	0.644342	0.161650	0.000047
C14	C	0.562592	0.156871	0.000060
C15	C	0.531466	0.103045	0.000076
C16	C	0.582095	0.053995	0.000088
C17	C	0.663843	0.058775	0.000081
C18	C	0.288022	0.083234	0.000103
C19	C	0.206267	0.078457	0.000107
C20	C	0.186770	0.181334	0.000081
C21	C	0.268521	0.186109	0.000069
C22	C	0.319142	0.137059	0.000085
N23	N	0.447905	0.098158	0.000086
N24	N	0.402701	0.141946	0.000081
C25	C	0.931837	0.016231	0.000100
C26	C	0.930782	-0.047038	0.000106
C27	C	0.995791	-0.442917	0.000066
C28	C	0.994812	-0.502366	0.000059
O29	O	1.055075	-0.536121	0.000034
N30	N	0.922865	-0.528562	0.000052
C31	C	0.851893	-0.495307	0.000042
O32	O	0.790607	-0.523048	0.000035
C33	C	0.852873	-0.435859	0.000043
C34	C	0.924824	-0.409666	0.000059
C35	C	1.067736	-0.416723	0.000081
C36	C	1.068714	-0.357278	0.000089
C37	C	0.997748	-0.324027	0.000083
C38	C	0.925803	-0.350221	0.000067
C39	C	0.781902	-0.402605	0.000027
C40	C	0.782889	-0.343154	0.000027
C41	C	0.854839	-0.316960	0.000043
C42	C	0.855814	-0.257525	0.000069
N43	N	0.927761	-0.231328	0.000076
C44	C	0.998728	-0.264579	0.000083
C45	C	0.849841	-0.620151	0.000040
C46	C	0.848860	-0.679598	0.000046
C47	C	0.991779	-0.686653	0.000061
C48	C	0.992759	-0.627205	0.000061
C49	C	0.921788	-0.593955	0.000047
C50	C	1.000777	-0.139740	0.000101
C51	C	1.001749	-0.080289	0.000113
C52	C	0.858831	-0.073240	0.000093
C53	C	0.857858	-0.132685	0.000086
C54	C	0.928838	-0.165934	0.000087
O55	O	0.795583	-0.223733	0.000090
O56	O	1.060004	-0.236831	0.000079
C57	C	1.068641	0.122420	0.000095
C58	C	1.155645	0.127504	0.000098
C59	C	0.918772	0.223877	0.000060
C60	C	0.919827	0.287146	0.000048
N61	N	0.915462	0.126692	0.205377
N62	N	0.935153	0.113412	-0.205216
C63	C	0.966893	0.091901	0.250784
C64	C	0.962551	0.094840	0.341591
C65	C	0.906782	0.132574	0.386989
C66	C	0.855345	0.167366	0.341576
C67	C	0.859684	0.164424	0.250771
C68	C	0.888055	0.145261	0.658566
C69	C	0.883722	0.148203	0.749378
C70	C	0.990928	0.075676	0.749386
C71	C	0.995265	0.072738	0.658579
C72	C	0.943825	0.107529	0.613174
N73	N	0.902344	0.135581	0.479808
N74	N	0.948260	0.104518	0.520356
H75	H	0.145546	0.221267	0.000069
H76	H	0.180928	0.034624	0.000119
H77	H	0.329228	0.043294	0.000117
C78	C	1.068974	0.022872	0.332478
C79	C	1.019098	0.056606	0.391502
H80	H	1.103890	-0.000728	0.363292
H81	H	1.038208	-0.000259	0.297079
H82	H	1.098660	0.046728	0.297042
H83	H	0.989408	0.032750	0.426933
H84	H	1.049868	0.079739	0.426915
C85	C	1.133695	-0.269288	0.000095
C86	C	1.147806	-0.328491	0.000094
H87	H	1.182527	-0.251521	0.000100
H88	H	1.106911	-0.259718	-0.050209
H89	H	1.102088	-0.256475	0.050405
H90	H	1.179408	-0.341305	-0.050220
H91	H	1.174603	-0.338065	0.050403
C92	C	0.465440	0.000988	0.000101
C93	C	0.547883	-0.005172	0.000103
H94	H	0.444323	-0.035541	0.000104
H95	H	0.445634	0.022962	0.050401
H96	H	0.450452	0.019714	-0.050213
H97	H	0.562871	-0.023894	0.050421
H98	H	0.567696	-0.027155	-0.050202
H99	H	0.669678	0.205481	0.000033
H100	H	1.125529	-0.443790	0.000084
C101	C	1.133926	-0.640163	0.000070
C102	C	1.071849	-0.598416	0.000065
H103	H	1.182755	-0.622392	0.000065
H104	H	1.128158	-0.661577	0.050377
H105	H	1.132972	-0.664829	-0.050238
H106	H	1.072800	-0.573754	0.050377
H107	H	1.077620	-0.576994	-0.050246
C108	C	0.718060	0.195462	0.369551
C109	C	0.794039	0.208841	0.391480
H110	H	0.680213	0.221066	0.400364
H111	H	0.713285	0.198692	0.308980
H112	H	0.709149	0.157556	0.384452
H113	H	0.802951	0.246746	0.376574
H114	H	0.798816	0.205616	0.452064
C115	C	0.716688	-0.119738	0.000062
C116	C	0.778770	-0.161481	0.000067
H117	H	0.667863	-0.137513	0.000038
H118	H	0.717624	-0.095084	0.050375
H119	H	0.722468	-0.098312	-0.050239
H120	H	0.772993	-0.182904	0.050372
H121	H	0.777832	-0.186144	-0.050251
H122	H	0.846173	0.173590	0.621605
H123	H	1.058576	-0.166805	0.000099
C124	C	0.770642	0.002074	-0.074071
C125	C	0.719493	0.004864	0.000088
H126	H	0.805000	-0.031208	-0.074059
H127	H	0.740752	0.000716	-0.124367
H128	H	0.800871	0.034819	-0.074071
H129	H	0.689260	-0.027879	0.000085
H130	H	0.749386	0.006216	0.050397
C131	C	1.142924	-0.093244	0.000121
C132	C	1.080843	-0.051499	0.000124
H133	H	1.191751	-0.075470	0.000120
H134	H	1.137157	-0.114662	0.050422
H135	H	1.141972	-0.117905	-0.050192
H136	H	1.081791	-0.026840	0.050440
H137	H	1.086612	-0.030071	-0.050183
H138	H	1.049564	-0.713737	0.000063
H139	H	0.723313	-0.423922	0.000009
H140	H	0.790269	-0.700919	0.000047
H141	H	1.032806	0.047350	0.786363
H142	H	0.801051	-0.046156	0.000091
C143	C	0.708471	-0.619158	0.000039
C144	C	0.771821	-0.583605	0.000041
H145	H	0.660306	-0.596597	0.000044
H146	H	0.713476	-0.644111	-0.050266
H147	H	0.708663	-0.640872	0.050348
H148	H	0.771633	-0.561893	-0.050271
H149	H	0.766815	-0.558642	0.050352
H150	H	1.012310	0.061176	0.213826
H151	H	1.040677	0.042013	0.621617
C152	C	0.280583	0.272864	-0.074118
C153	C	0.302716	0.245282	0.000048
H154	H	0.301685	0.309397	-0.074132
H155	H	0.300400	0.250886	-0.124409
H156	H	0.224649	0.277022	-0.074103
H157	H	0.358649	0.241119	0.000029
H158	H	0.282902	0.267265	0.050352
H159	H	0.725094	-0.316084	0.000014
H160	H	0.838305	0.178933	0.786337
H161	H	0.817802	0.192753	0.213802
H162	H	0.521379	0.196809	0.000051
