data_functionalizedCrystal
_audit_creation_method	'MofGen! by Chris Wilmer'
_symmetry_space_group_name_H-M	'P1'
_symmetry_Int_Tables_number	1
_symmetry_cell_setting	triclinic
loop_
_symmetry_equiv_pos_as_xyz
  x,y,z
_cell_length_a	19.121063
_cell_length_b	12.759401
_cell_length_c	12.759393
_cell_angle_alpha	90.019987
_cell_angle_beta	92.403866
_cell_angle_gamma	87.535101
loop_
_atom_site_label
_atom_site_type_symbol
_atom_site_fract_x
_atom_site_fract_y
_atom_site_fract_z
Zn1	Zn	-0.279653	-1.588314	-0.611822
Zn2	Zn	-0.397119	-1.580674	-0.443616
Zn3	Zn	-0.279679	-1.412615	-0.436158
Zn4	Zn	-0.397059	-1.405074	-0.619249
O5	O	-0.338377	-1.496669	-0.527711
O6	O	-0.295249	-1.734321	-0.589522
O7	O	-0.381577	-1.558339	-0.295608
O8	O	-0.181392	-1.442276	-0.453230
O9	O	-0.381551	-1.728707	-0.465942
O10	O	-0.181372	-1.571361	-0.582290
O11	O	-0.295294	-1.434867	-0.290128
O12	O	-0.295235	-1.264595	-0.460432
O13	O	-0.381448	-1.429422	-0.765283
O14	O	-0.381473	-1.259054	-0.594949
O15	O	-0.295190	-1.564049	-0.759826
O16	O	-0.495395	-1.551026	-0.473144
O17	O	-0.495350	-1.422013	-0.602181
C18	C	-0.338351	-1.223704	-0.527688
C19	C	-0.338357	-1.106927	-0.527703
C20	C	-0.293502	-1.054975	-0.592159
C21	C	-0.293512	-0.945251	-0.592164
C22	C	-0.383237	-0.939438	-0.463254
C23	C	-0.383223	-1.049161	-0.463245
C24	C	-0.241702	-1.058330	-0.666588
C25	C	-0.241712	-0.948605	-0.666592
C26	C	-0.520857	-1.484901	-0.539301
C27	C	-0.598922	-1.479962	-0.544294
C28	C	-0.635597	-1.544865	-0.479513
C29	C	-0.708948	-1.540226	-0.484215
C30	C	-0.745622	-1.470680	-0.553694
C31	C	-0.708942	-1.405775	-0.618482
C32	C	-0.635593	-1.410419	-0.613784
C33	C	-0.967090	-1.453298	-0.571241
C34	C	-1.040445	-1.448657	-0.575932
C35	C	-1.040446	-1.583110	-0.441666
C36	C	-0.967095	-1.587744	-0.436970
C37	C	-0.930421	-1.522843	-0.501762
C38	C	-0.820599	-1.465935	-0.558500
C39	C	-0.855446	-1.527594	-0.496961
C40	C	-0.155185	-1.508512	-0.516099
C41	C	-0.077120	-1.513559	-0.511151
C42	C	-0.338310	-1.496747	-0.801740
C43	C	-0.338281	-1.496779	-0.918515
C44	C	-0.338395	-0.770701	-0.527728
C45	C	-0.338380	-0.887479	-0.527717
C46	C	-0.293328	-1.566914	-1.080260
C47	C	-0.293358	-1.566887	-0.970538
C48	C	-0.383182	-1.426701	-0.976221
C49	C	-0.383156	-1.426734	-1.085942
C50	C	-0.241467	-1.647846	-1.076978
C51	C	-0.241496	-1.647819	-0.967256
C52	C	-0.338394	-1.496656	-0.254745
C53	C	-0.338225	-1.496839	-0.137958
H54	H	-0.187285	-1.091588	-0.641472
C55	C	-0.432546	-1.349658	-1.149406
H56	H	-0.459303	-1.307897	-1.102710
H57	H	-0.463139	-1.387884	-1.194152
H58	H	-0.405663	-1.305622	-1.190500
H59	H	-0.419764	-1.369625	-0.933856
C60	C	-1.080788	-1.654502	-0.370410
H61	H	-1.129725	-1.641785	-0.383161
H62	H	-1.068813	-1.639927	-0.299038
H63	H	-1.068723	-1.725851	-0.385087
H64	H	-0.937236	-1.400452	-0.623996
C65	C	-0.171665	-1.612957	-1.118541
H66	H	-0.174033	-1.614146	-1.193051
H67	H	-0.134599	-1.659380	-1.093220
H68	H	-0.163312	-1.543788	-1.095006
H69	H	-0.605742	-1.601492	-0.422932
H70	H	-0.419741	-1.091456	-0.410748
H71	H	-0.738806	-1.593076	-0.431463
H72	H	-1.070303	-1.392036	-0.632528
H73	H	-0.850467	-1.409307	-0.615068
H74	H	-0.256034	-1.728284	-1.107682
H75	H	-0.937236	-1.644374	-0.380395
C76	C	-0.171880	-0.907089	-0.622972
H77	H	-0.140774	-0.964528	-0.603550
H78	H	-0.180179	-0.864628	-0.563223
H79	H	-0.151602	-0.866510	-0.675246
H80	H	-0.260998	-1.723846	-0.934467
C81	C	-0.749282	-1.329273	-0.694905
H82	H	-0.798219	-1.335793	-0.688417
H83	H	-0.737217	-1.345370	-0.764737
H84	H	-0.737302	-1.259447	-0.678689
H85	H	-0.261246	-1.091142	-0.745070
C86	C	-0.432590	-0.875892	-0.392363
H87	H	-0.426178	-0.803104	-0.401603
H88	H	-0.422256	-0.894509	-0.321140
H89	H	-0.479793	-0.890851	-0.410628
H90	H	-0.187105	-1.629533	-0.934028
C91	C	-0.595250	-1.339029	-0.685045
H92	H	-0.627596	-1.296939	-0.727092
H93	H	-0.566593	-1.381013	-0.729020
H94	H	-0.566680	-1.295077	-0.642983
C95	C	-0.261508	-0.907144	-0.777712
H96	H	-0.269649	-0.964551	-0.823406
H97	H	-0.224315	-0.868177	-0.802498
H98	H	-0.302791	-0.863137	-0.775780
C99	C	-0.815110	-1.604092	-0.420537
H100	H	-0.847455	-1.642088	-0.382627
H101	H	-0.786539	-1.565732	-0.372902
H102	H	-0.786454	-1.651666	-0.458941
