data_functionalizedCrystal
_audit_creation_method	'MofGen! by Chris Wilmer'
_symmetry_space_group_name_H-M	'P1'
_symmetry_Int_Tables_number	1
_symmetry_cell_setting	triclinic
loop_
_symmetry_equiv_pos_as_xyz
  x,y,z
_cell_length_a	13.897449
_cell_length_b	13.897448
_cell_length_c	21.395356
_cell_angle_alpha	89.975201
_cell_angle_beta	89.974910
_cell_angle_gamma	90.018519
loop_
_atom_site_label
_atom_site_type_symbol
_atom_site_fract_x
_atom_site_fract_y
_atom_site_fract_z
Zn1	Zn	1.474719	-0.384018	-0.354299
Zn2	Zn	1.724719	-0.134018	-0.104299
Zn3	Zn	1.974719	0.115982	0.145701
Zn4	Zn	2.224719	0.365982	0.395701
Zn5	Zn	1.474608	-0.545323	-0.249527
Zn6	Zn	1.724608	-0.295323	0.000473
Zn7	Zn	1.974608	-0.045323	0.250473
Zn8	Zn	2.224608	0.204677	0.500473
Zn9	Zn	1.313403	-0.384046	-0.249533
Zn10	Zn	1.563403	-0.134046	0.000467
Zn11	Zn	1.813403	0.115954	0.250467
Zn12	Zn	2.063403	0.365954	0.500467
Zn13	Zn	1.313390	-0.545275	-0.354264
Zn14	Zn	1.563390	-0.295275	-0.104264
Zn15	Zn	1.813390	-0.045275	0.145736
Zn16	Zn	2.063390	0.204725	0.395736
O17	O	1.394030	-0.464666	-0.301906
O18	O	1.644030	-0.214666	-0.051906
O19	O	1.894030	0.035334	0.198094
O20	O	2.144030	0.285334	0.448094
O21	O	1.609686	-0.405424	-0.340413
O22	O	1.859686	-0.155424	-0.090413
O23	O	2.109686	0.094576	0.159587
O24	O	2.359686	0.344576	0.409587
O25	O	1.453183	-0.523962	-0.161850
O26	O	1.703183	-0.273962	0.088150
O27	O	1.953183	-0.023962	0.338150
O28	O	2.203183	0.226038	0.588150
O29	O	1.334854	-0.249061	-0.263448
O30	O	1.584854	0.000939	-0.013448
O31	O	1.834854	0.250939	0.236552
O32	O	2.084854	0.500939	0.486552
O33	O	1.609604	-0.523934	-0.263437
O34	O	1.859604	-0.273934	-0.013437
O35	O	2.109604	-0.023934	0.236563
O36	O	2.359604	0.226066	0.486563
O37	O	1.453372	-0.249040	-0.340419
O38	O	1.703372	0.000960	-0.090419
O39	O	1.953372	0.250960	0.159581
O40	O	2.203372	0.500960	0.409581
O41	O	1.334747	-0.405472	-0.161854
O42	O	1.584747	-0.155472	0.088146
O43	O	1.834747	0.094528	0.338146
O44	O	2.084747	0.344528	0.588146
O45	O	1.178420	-0.405425	-0.263414
O46	O	1.428420	-0.155425	-0.013414
O47	O	1.678420	0.094575	0.236586
O48	O	1.928420	0.344575	0.486586
O49	O	1.334831	-0.523852	-0.441947
O50	O	1.584831	-0.273852	-0.191947
O51	O	1.834831	-0.023852	0.058053
O52	O	2.084831	0.226148	0.308053
O53	O	1.178410	-0.523879	-0.340360
O54	O	1.428410	-0.273879	-0.090360
O55	O	1.678410	-0.023879	0.159640
O56	O	1.928410	0.226121	0.409640
O57	O	1.453359	-0.405377	-0.441972
O58	O	1.703359	-0.155377	-0.191972
O59	O	1.953359	0.094623	0.058028
O60	O	2.203359	0.344623	0.308028
O61	O	1.453170	-0.680299	-0.263403
O62	O	1.703170	-0.430299	-0.013403
O63	O	1.953170	-0.180299	0.236597
O64	O	2.203170	0.069701	0.486597
O65	O	1.334724	-0.680263	-0.340354
O66	O	1.584724	-0.430263	-0.090354
O67	O	1.834724	-0.180263	0.159646
O68	O	2.084724	0.069737	0.409646
C69	C	1.143416	-0.464651	-0.301884
C70	C	1.393416	-0.214651	-0.051884
C71	C	1.643416	0.035349	0.198116
C72	C	1.893416	0.285349	0.448116
C73	C	1.036202	-0.464668	-0.301889
C74	C	1.286202	-0.214668	-0.051889
C75	C	1.536202	0.035332	0.198111
C76	C	1.786202	0.285332	0.448111
C77	C	0.949132	-0.464671	-0.301900
C78	C	1.199132	-0.214671	-0.051900
C79	C	1.449132	0.035329	0.198100
C80	C	1.699132	0.285329	0.448100
C81	C	0.839899	-0.464678	-0.301919
C82	C	1.089899	-0.214678	-0.051919
C83	C	1.339899	0.035322	0.198081
C84	C	1.589899	0.285322	0.448081
C85	C	1.393959	-0.715280	-0.301888
C86	C	1.643959	-0.465280	-0.051888
C87	C	1.893959	-0.215280	0.198112
C88	C	2.143959	0.034720	0.448112
C89	C	1.394018	-0.822494	-0.301901
C90	C	1.644018	-0.572494	-0.051901
C91	C	1.894018	-0.322494	0.198099
C92	C	2.144018	-0.072494	0.448099
C93	C	1.394119	-1.018789	-0.301940
C94	C	1.644119	-0.768789	-0.051940
C95	C	1.894119	-0.518789	0.198060
C96	C	2.144119	-0.268789	0.448060
C97	C	1.394060	-0.909557	-0.301920
C98	C	1.644060	-0.659557	-0.051920
C99	C	1.894060	-0.409557	0.198080
C100	C	2.144060	-0.159557	0.448080
C101	C	1.645623	-0.464681	-0.301928
C102	C	1.895623	-0.214681	-0.051928
C103	C	2.145623	0.035319	0.198072
C104	C	2.395623	0.285319	0.448072
C105	C	1.752837	-0.464688	-0.301938
C106	C	2.002837	-0.214688	-0.051938
C107	C	2.252837	0.035312	0.198062
C108	C	2.502837	0.285312	0.448062
C109	C	1.394106	-0.464606	-0.465329
C110	C	1.644106	-0.214606	-0.215329
C111	C	1.894106	0.035394	0.034671
C112	C	2.144106	0.285394	0.284671
C113	C	1.394138	-0.464580	-0.534970
C114	C	1.644138	-0.214580	-0.284970
C115	C	1.894138	0.035420	-0.034970
C116	C	2.144138	0.285420	0.215030
C117	C	1.394127	-0.213073	-0.301938
C118	C	1.644127	0.036927	-0.051938
C119	C	1.894127	0.286927	0.198062
C120	C	2.144127	0.536927	0.448062
C121	C	1.394168	-0.105859	-0.301951
C122	C	1.644168	0.144141	-0.051951
C123	C	1.894168	0.394141	0.198049
C124	C	2.144168	0.644141	0.448049
C125	C	1.332485	-0.402876	-0.567676
C126	C	1.582485	-0.152876	-0.317676
C127	C	1.832485	0.097124	-0.067676
C128	C	2.082485	0.347124	0.182324
C129	C	1.332481	-0.402858	-0.633112
C130	C	1.582481	-0.152858	-0.383112
C131	C	1.832481	0.097142	-0.133112
C132	C	2.082481	0.347142	0.116888
C133	C	1.394149	-0.464535	-0.665839
C134	C	1.644149	-0.214535	-0.415839
C135	C	1.894149	0.035465	-0.165839
C136	C	2.144149	0.285465	0.084161
C137	C	1.455806	-0.526251	-0.633125
C138	C	1.705806	-0.276251	-0.383125
C139	C	1.955806	-0.026251	-0.133125
C140	C	2.205806	0.223749	0.116875
C141	C	1.455801	-0.526274	-0.567691
C142	C	1.705801	-0.276274	-0.317691
C143	C	1.955801	-0.026274	-0.067691
C144	C	2.205801	0.223726	0.182309
C145	C	1.481059	-0.472117	-0.769527
C146	C	1.731059	-0.222117	-0.519527
C147	C	1.981059	0.027883	-0.269527
C148	C	2.231059	0.277883	-0.019527
C149	C	1.481066	-0.472087	-0.834960
C150	C	1.731066	-0.222087	-0.584960
C151	C	1.981066	0.027913	-0.334960
C152	C	2.231066	0.277913	-0.084960
C153	C	1.394165	-0.464469	-0.867660
C154	C	1.644165	-0.214469	-0.617660
C155	C	1.894165	0.035531	-0.367660
C156	C	2.144165	0.285531	-0.117660
C157	C	1.307253	-0.456861	-0.834918
C158	C	1.557253	-0.206861	-0.584918
C159	C	1.807253	0.043139	-0.334918
C160	C	2.057253	0.293139	-0.084918
C161	C	1.307248	-0.456884	-0.769484
C162	C	1.557248	-0.206884	-0.519484
C163	C	1.807248	0.043116	-0.269484
C164	C	2.057248	0.293116	-0.019484
C165	C	1.394161	-0.464517	-0.736791
C166	C	1.644161	-0.214517	-0.486791
C167	C	1.894161	0.035483	-0.236791
C168	C	2.144161	0.285483	0.013209
C169	C	1.332502	-0.402742	-0.971318
C170	C	1.582502	-0.152742	-0.721318
C171	C	1.832502	0.097258	-0.471318
C172	C	2.082502	0.347258	-0.221318
C173	C	1.332498	-0.402731	-1.036755
C174	C	1.582498	-0.152731	-0.786755
C175	C	1.832498	0.097269	-0.536755
C176	C	2.082498	0.347269	-0.286755
C177	C	1.455831	-0.526119	-1.036767
C178	C	1.705831	-0.276119	-0.786767
C179	C	1.955831	-0.026119	-0.536767
C180	C	2.205831	0.223881	-0.286767
C181	C	1.455828	-0.526135	-0.971332
C182	C	1.705828	-0.276135	-0.721332
C183	C	1.955828	-0.026135	-0.471332
C184	C	2.205828	0.223865	-0.221332
C185	C	1.394164	-0.464442	-0.938611
C186	C	1.644164	-0.214442	-0.688611
C187	C	1.894164	0.035558	-0.438611
C188	C	2.144164	0.285558	-0.188611
C189	C	1.394010	-0.464656	-0.139118
C190	C	1.644010	-0.214656	0.110882
C191	C	1.894010	0.035344	0.360882
C192	C	2.144010	0.285344	0.610882
C193	C	1.394164	-0.464409	-0.069477
C194	C	1.644164	-0.214409	0.180523
C195	C	1.894164	0.035591	0.430523
C196	C	2.144164	0.285591	0.680523
H197	H	1.282270	-0.352644	-0.541039
H198	H	1.532270	-0.102644	-0.291039
H199	H	1.782270	0.147356	-0.041039
H200	H	2.032270	0.397356	0.208961
H201	H	1.506011	-0.576520	-0.541063
H202	H	1.756011	-0.326520	-0.291063
H203	H	2.006011	-0.076520	-0.041063
H204	H	2.256011	0.173480	0.208937
H205	H	1.551835	-0.478278	-0.861613
H206	H	1.801835	-0.228278	-0.611613
H207	H	2.051835	0.021722	-0.361613
H208	H	2.301835	0.271722	-0.111613
H209	H	1.282292	-0.352509	-0.944675
H210	H	1.532292	-0.102509	-0.694675
H211	H	1.782292	0.147491	-0.444675
H212	H	2.032292	0.397491	-0.194675
F213	F	1.266875	-0.337165	-0.667926
F214	F	1.516875	-0.087165	-0.417926
F215	F	1.766875	0.162835	-0.167926
F216	F	2.016875	0.412835	0.082074
H217	H	1.506035	-0.576379	-0.944702
H218	H	1.756035	-0.326379	-0.694702
H219	H	2.006035	-0.076379	-0.444702
H220	H	2.256035	0.173621	-0.194702
F221	F	1.266851	-0.337076	-1.071562
F222	F	1.516851	-0.087076	-0.821562
F223	F	1.766851	0.162924	-0.571562
F224	F	2.016851	0.412924	-0.321562
H225	H	1.506016	-0.576469	-0.659776
H226	H	1.756016	-0.326469	-0.409776
H227	H	2.006016	-0.076469	-0.159776
H228	H	2.256016	0.173531	0.090224
H229	H	1.506044	-0.576335	-1.063413
H230	H	1.756044	-0.326335	-0.813413
H231	H	2.006044	-0.076335	-0.563413
H232	H	2.256044	0.173665	-0.313413
H233	H	1.236482	-0.450691	-0.742829
H234	H	1.486482	-0.200691	-0.492829
H235	H	1.736482	0.049309	-0.242829
H236	H	1.986482	0.299309	0.007171
H237	H	1.236490	-0.450651	-0.861541
H238	H	1.486490	-0.200651	-0.611541
H239	H	1.736490	0.049349	-0.361541
H240	H	1.986490	0.299349	-0.111541
H241	H	1.551831	-0.478312	-0.742908
H242	H	1.801831	-0.228312	-0.492908
H243	H	2.051831	0.021688	-0.242908
H244	H	2.301831	0.271688	0.007092
