data_functionalizedCrystal
_audit_creation_method	'MofGen! by Chris Wilmer'
_symmetry_space_group_name_H-M	'P1'
_symmetry_Int_Tables_number	1
_symmetry_cell_setting	triclinic
loop_
_symmetry_equiv_pos_as_xyz
  x,y,z
_cell_length_a	14.519709
_cell_length_b	14.853567
_cell_length_c	13.596369
_cell_angle_alpha	90.002958
_cell_angle_beta	89.998664
_cell_angle_gamma	96.342462
loop_
_atom_site_label
_atom_site_type_symbol
_atom_site_fract_x
_atom_site_fract_y
_atom_site_fract_z
O1	O	0.120399	-1.196414	-0.081726
O2	O	0.453733	-0.863081	0.251608
O3	O	0.787066	-0.529747	0.584941
O4	O	0.134742	-0.933960	-0.081743
O5	O	0.468076	-0.600627	0.251590
O6	O	0.801409	-0.267293	0.584924
O7	O	-0.006670	-1.072146	-0.081725
O8	O	0.326663	-0.738812	0.251608
O9	O	0.659996	-0.405479	0.584942
O10	O	0.261812	-1.058228	-0.081744
O11	O	0.595145	-0.724895	0.251590
O12	O	0.928479	-0.391562	0.584923
O13	O	-0.006663	-1.072129	0.081858
O14	O	0.326671	-0.738795	0.415191
O15	O	0.660004	-0.405462	0.748525
O16	O	0.134750	-0.933943	0.081840
O17	O	0.468084	-0.600610	0.415173
O18	O	0.801417	-0.267276	0.748507
O19	O	0.120407	-1.196397	0.081857
O20	O	0.453740	-0.863064	0.415191
O21	O	0.787074	-0.529730	0.748524
Zn22	Zn	0.127580	-1.065167	0.107821
Zn23	Zn	0.460913	-0.731834	0.441154
Zn24	Zn	0.794247	-0.398501	0.774488
Zn25	Zn	0.127570	-1.065190	-0.107707
Zn26	Zn	0.460903	-0.731856	0.225627
Zn27	Zn	0.794236	-0.398523	0.558960
O28	O	0.261820	-1.058211	0.081839
O29	O	0.595153	-0.724878	0.415173
O30	O	0.928487	-0.391545	0.748506
C31	C	0.134096	-0.900363	0.000047
C32	C	0.467430	-0.567029	0.333380
C33	C	0.800763	-0.233696	0.666713
C34	C	0.132149	-0.800278	0.000040
C35	C	0.465482	-0.466945	0.333374
C36	C	0.798816	-0.133611	0.666707
C37	C	-0.041026	-1.071488	0.000067
C38	C	0.292307	-0.738155	0.333400
C39	C	0.625641	-0.404822	0.666733
C40	C	-0.143407	-1.069545	0.000067
C41	C	0.189927	-0.736212	0.333400
C42	C	0.523260	-0.402878	0.666734
N43	N	0.127586	-1.065159	0.254913
N44	N	0.460920	-0.731825	0.588246
N45	N	0.794253	-0.398492	0.921579
C46	C	-0.518299	-1.062390	0.000041
C47	C	-0.184966	-0.729056	0.333374
C48	C	0.148367	-0.395723	0.666708
C49	C	-0.413992	-1.064377	0.000049
C50	C	-0.080659	-0.731043	0.333382
C51	C	0.252674	-0.397710	0.666715
C52	C	-0.330856	-1.065967	0.000055
C53	C	0.002477	-0.732634	0.333388
C54	C	0.335810	-0.399300	0.666722
C55	C	-0.226543	-1.067955	0.000061
C56	C	0.106791	-0.734621	0.333394
C57	C	0.440124	-0.401288	0.666727
C58	C	0.296175	-1.058869	0.000046
C59	C	0.629509	-0.725535	0.333379
C60	C	0.962842	-0.392202	0.666712
C61	C	0.398556	-1.060812	0.000039
C62	C	0.731889	-0.727479	0.333372
C63	C	1.065223	-0.394145	0.666705
C64	C	0.121053	-1.229994	0.000066
C65	C	0.454386	-0.896661	0.333399
C66	C	0.787720	-0.563328	0.666732
C67	C	0.123001	-1.330079	0.000065
C68	C	0.456334	-0.996746	0.333399
C69	C	0.789667	-0.663412	0.666732
C70	C	0.039914	-0.387709	0.000069
C71	C	0.373247	-0.054375	0.333402
C72	C	0.706581	0.278958	0.666735
C73	C	0.207916	-0.366493	0.000056
C74	C	0.541249	-0.033159	0.333389
C75	C	0.874582	0.300174	0.666723
C76	C	0.209747	-0.460527	0.000053
C77	C	0.543080	-0.127194	0.333386
C78	C	0.876414	0.206139	0.666719
C79	C	0.126660	-0.518157	0.000056
C80	C	0.459994	-0.184823	0.333389
C81	C	0.793327	0.148510	0.666723
C82	C	0.041743	-0.481752	0.000062
C83	C	0.375076	-0.148419	0.333396
C84	C	0.708409	0.184915	0.666729
C85	C	0.294663	-0.496939	0.000036
C86	C	0.627996	-0.163606	0.333370
C87	C	0.961330	0.169727	0.666703
C88	C	0.296498	-0.590979	0.000032
C89	C	0.629831	-0.257646	0.333365
C90	C	0.963164	0.075688	0.666699
C91	C	0.213410	-0.648610	0.000042
C92	C	0.546744	-0.315277	0.333376
C93	C	0.880077	0.018056	0.666709
C94	C	0.128489	-0.612200	0.000050
C95	C	0.461822	-0.278867	0.333383
C96	C	0.795156	0.054466	0.666716
C97	C	0.045403	-0.669830	0.000053
C98	C	0.378736	-0.336497	0.333386
C99	C	0.712069	-0.003163	0.666720
C100	C	-0.039520	-0.633422	0.000068
C101	C	0.293814	-0.300088	0.333401
C102	C	0.627147	0.033245	0.666734
C103	C	-0.041345	-0.539383	0.000073
C104	C	0.291988	-0.206050	0.333406
C105	C	0.625322	0.127283	0.666739
C106	C	0.215235	-0.742649	0.000037
C107	C	0.548569	-0.409315	0.333370
C108	C	0.881902	-0.075982	0.666704
C109	C	0.047231	-0.763873	0.000047
C110	C	0.380565	-0.430540	0.333380
C111	C	0.713898	-0.097207	0.666713
N112	N	0.127556	-1.065206	-0.254798
N113	N	0.460889	-0.731872	0.078535
N114	N	0.794222	-0.398539	0.411868
C115	C	0.127588	-1.065163	0.343911
C116	C	0.460922	-0.731830	0.677244
C117	C	0.794255	-0.398496	1.010577
C118	C	0.127582	-1.065172	0.455562
C119	C	0.460915	-0.731839	0.788895
C120	C	0.794249	-0.398505	1.122229
C121	C	0.127572	-1.065184	0.544553
C122	C	0.460905	-0.731850	0.877886
C123	C	0.794238	-0.398517	1.211219
C124	C	0.127566	-1.065194	0.656211
C125	C	0.460900	-0.731861	0.989544
C126	C	0.794233	-0.398527	1.322878
H127	H	-0.020429	-0.810790	0.000053
H128	H	0.312904	-0.477457	0.333386
H129	H	0.646238	-0.144124	0.666720
C130	C	-0.134750	-0.499337	0.000077
C131	C	0.198583	-0.166003	0.333410
C132	C	0.531916	0.167330	0.666743
H133	H	-0.183974	-0.547125	0.000086
H134	H	0.149360	-0.213791	0.333419
H135	H	0.482693	0.119542	0.666752
H136	H	-0.138954	-0.463096	-0.056968
H137	H	0.194380	-0.129762	0.276365
H138	H	0.527713	0.203571	0.609698
H139	H	-0.138953	-0.463091	0.057129
H140	H	0.194380	-0.129757	0.390462
H141	H	0.527713	0.203576	0.723795
H142	H	-0.107168	-0.680356	0.000063
H143	H	0.226165	-0.347022	0.333397
H144	H	0.559498	-0.013689	0.666730
H145	H	-0.029228	-0.358060	0.000084
H146	H	0.304106	-0.024727	0.333418
H147	H	0.637439	0.308606	0.666751
H148	H	0.275561	-0.319566	0.000045
H149	H	0.608894	0.013768	0.333378
H150	H	0.942228	0.347101	0.666712
C151	C	0.386049	-0.433549	0.000037
C152	C	0.719382	-0.100215	0.333370
C153	C	1.052716	0.233118	0.666704
H154	H	0.372795	-0.372329	0.000056
H155	H	0.706129	-0.038996	0.333390
H156	H	1.039462	0.294337	0.666723
H157	H	0.420864	-0.444593	-0.057011
H158	H	0.754198	-0.111259	0.276322
H159	H	1.087531	0.222074	0.609656
H160	H	0.420863	-0.444604	0.057086
H161	H	0.754196	-0.111271	0.390419
H162	H	1.087529	0.222062	0.723753
H163	H	0.365646	-0.620614	0.000020
H164	H	0.698980	-0.287281	0.333353
H165	H	1.032313	0.046053	0.666687
H166	H	0.284378	-0.772288	0.000027
H167	H	0.617711	-0.438955	0.333360
H168	H	0.951044	-0.105622	0.666694
