data_functionalizedCrystal
_audit_creation_method	'MofGen! by Chris Wilmer'
_symmetry_space_group_name_H-M	'P1'
_symmetry_Int_Tables_number	1
_symmetry_cell_setting	triclinic
loop_
_symmetry_equiv_pos_as_xyz
  x,y,z
_cell_length_a	16.109301
_cell_length_b	10.654550
_cell_length_c	15.186229
_cell_angle_alpha	89.996404
_cell_angle_beta	89.999362
_cell_angle_gamma	83.973206
loop_
_atom_site_label
_atom_site_type_symbol
_atom_site_fract_x
_atom_site_fract_y
_atom_site_fract_z
O1	O	1.104090	0.161419	-0.073173
O2	O	0.862148	0.181507	-0.073187
O3	O	0.988682	-0.011352	-0.073174
O4	O	0.977556	0.354278	-0.073185
O5	O	0.988673	-0.011354	0.073284
O6	O	0.862139	0.181504	0.073271
O7	O	1.104082	0.161416	0.073285
Zn8	Zn	0.983109	0.171460	0.096531
Zn9	Zn	0.983120	0.171463	-0.096433
O10	O	0.977548	0.354275	0.073272
C11	C	0.831164	0.180692	0.000040
C12	C	0.738854	0.178253	0.000035
C13	C	0.517228	0.287019	0.000042
C14	C	0.430494	0.284717	0.000048
C15	C	0.449008	0.055896	0.000051
C16	C	0.535741	0.058199	0.000052
C17	C	0.569848	0.173764	0.000043
C18	C	0.396382	0.169159	0.000048
C19	C	0.302341	0.166662	0.000054
C20	C	0.663895	0.176262	0.000038
C21	C	0.987861	-0.058140	0.000054
C22	C	0.985417	-0.197550	0.000053
C23	C	1.059918	-0.278046	0.000057
C24	C	1.057616	-0.409036	0.000046
C25	C	0.906306	-0.379020	0.000031
C26	C	0.908608	-0.248033	0.000035
C27	C	1.145364	-0.606070	-0.051264
C28	C	1.219869	-0.686572	-0.051245
C29	C	1.287407	-0.657317	0.000083
C30	C	1.280443	-0.547563	0.051414
C31	C	1.205937	-0.467068	0.051402
C32	C	1.138402	-0.496322	0.000054
C33	C	0.820866	-0.050997	0.051353
C34	C	0.746359	0.029500	0.051348
C35	C	0.678814	0.000249	0.000025
C36	C	0.685769	-0.109507	-0.051292
C37	C	0.760277	-0.190004	-0.051287
C38	C	0.827822	-0.160745	0.000034
C39	C	1.135066	0.162231	0.000056
C40	C	1.227376	0.164671	0.000055
C41	C	0.978369	0.401063	0.000042
C42	C	0.980813	0.540473	0.000037
N43	N	0.983108	0.171457	0.228224
N44	N	0.983129	0.171457	-0.228126
C45	C	1.039156	0.086088	0.453952
C46	C	1.039159	0.086085	0.546142
C47	C	0.927074	0.256830	0.546140
C48	C	0.927068	0.256826	0.453952
C49	C	0.983114	0.171456	0.407860
C50	C	0.983122	0.171457	0.592238
C51	C	0.983125	0.171455	0.692194
C52	C	0.983111	0.171457	0.307898
H53	H	0.387654	0.376940	0.000049
O54	O	0.739750	0.136093	0.101224
C55	C	0.815338	0.144643	0.146540
H56	H	0.868400	0.087152	0.110257
H57	H	0.828536	0.247582	0.149863
H58	H	0.810201	0.106113	0.216142
O59	O	1.346067	-0.519373	0.101339
C60	C	1.366795	-0.617189	0.162528
H61	H	1.343604	-0.708068	0.137329
H62	H	1.437440	-0.631916	0.171197
H63	H	1.336103	-0.590683	0.228534
O64	O	0.872595	0.339881	0.409308
C65	C	0.823120	0.415217	0.469756
H66	H	0.857215	0.416660	0.535468
H67	H	0.811011	0.515500	0.443109
H68	H	0.761127	0.374413	0.479568
O69	O	0.415736	-0.056248	0.000014
C70	C	0.327900	-0.033999	0.000033
H71	H	0.308100	0.064013	-0.027695
H72	H	0.300851	-0.107938	-0.042488
H73	H	0.303724	-0.040082	0.070295
O74	O	0.550224	0.399383	0.000079
C75	C	0.485177	0.498849	0.000059
H76	H	0.426066	0.463661	0.027786
H77	H	0.503761	0.579527	0.042581
H78	H	0.473106	0.533790	-0.070203
O79	O	0.586742	-0.051939	0.000012
C80	C	0.538042	-0.154433	0.000035
H81	H	0.473502	-0.122540	-0.027695
H82	H	0.569580	-0.233780	-0.042483
H83	H	0.531663	-0.189860	0.070298
H84	H	1.122460	-0.236948	0.000069
O85	O	0.872719	0.339715	0.591051
C86	C	0.884728	0.321396	0.682303
H87	H	0.950555	0.274486	0.694891
H88	H	0.876030	0.416500	0.717331
H89	H	0.837310	0.258394	0.708475
H90	H	1.200266	-0.377712	0.093198
H91	H	1.084791	0.016573	0.416427
O92	O	1.093680	0.003113	0.590779
C93	C	1.143127	-0.072255	0.530325
H94	H	1.144358	-0.020764	0.464608
H95	H	1.209412	-0.091384	0.556957
H96	H	1.115597	-0.165560	0.520525
O97	O	1.359815	-0.735435	-0.000048
C98	C	1.392246	-0.745054	-0.086301
H99	H	1.366734	-0.658701	-0.126010
H100	H	1.463252	-0.750358	-0.083681
H101	H	1.372978	-0.833878	-0.118960
O102	O	1.226646	-0.793048	-0.101245
C103	C	1.214170	-0.760231	-0.190570
H104	H	1.228301	-0.658697	-0.201140
H105	H	1.257546	-0.826088	-0.233342
H106	H	1.146577	-0.769372	-0.209456
O107	O	1.079787	-0.634317	-0.101241
C108	C	1.059036	-0.536479	-0.162407
H109	H	1.115567	-0.482560	-0.173879
H110	H	1.039519	-0.578436	-0.227306
H111	H	1.005241	-0.469328	-0.135498
O112	O	0.831770	-0.428271	0.000061
C113	C	0.845711	-0.561145	0.000039
H114	H	0.910413	-0.591937	0.027770
H115	H	0.796517	-0.601347	0.042556
H116	H	0.841476	-0.597599	-0.070225
H117	H	0.765940	-0.279365	-0.093086
O118	O	0.620186	-0.137761	-0.101258
C119	C	0.599424	-0.039924	-0.162422
H120	H	0.655954	0.013993	-0.173907
H121	H	0.579896	-0.081882	-0.227316
H122	H	0.545635	0.027228	-0.135503
O123	O	0.606507	0.078609	0.000094
C124	C	0.614834	0.181734	0.056417
H125	H	0.683754	0.194969	0.064249
H126	H	0.580371	0.270877	0.026962
H127	H	0.587111	0.162749	0.123583
H128	H	0.875873	-0.027152	0.093129
