data_functionalizedCrystal
_audit_creation_method	'MofGen! by Chris Wilmer'
_symmetry_space_group_name_H-M	'P1'
_symmetry_Int_Tables_number	1
_symmetry_cell_setting	triclinic
loop_
_symmetry_equiv_pos_as_xyz
  x,y,z
_cell_length_a	12.759400
_cell_length_b	12.759401
_cell_length_c	12.759393
_cell_angle_alpha	90.020057
_cell_angle_beta	89.968385
_cell_angle_gamma	89.989713
loop_
_atom_site_label
_atom_site_type_symbol
_atom_site_fract_x
_atom_site_fract_y
_atom_site_fract_z
Zn1	Zn	-0.418327	-1.606255	-0.594026
Zn2	Zn	-0.594046	-1.606150	-0.418346
Zn3	Zn	-0.418368	-1.430557	-0.418361
Zn4	Zn	-0.593951	-1.430546	-0.593983
O5	O	-0.506173	-1.518377	-0.506179
O6	O	-0.441659	-1.753262	-0.570734
O7	O	-0.570799	-1.582817	-0.271327
O8	O	-0.271342	-1.453913	-0.441687
O9	O	-0.570759	-1.753185	-0.441663
O10	O	-0.271311	-1.582997	-0.570748
O11	O	-0.441729	-1.453811	-0.271338
O12	O	-0.441637	-1.283535	-0.441645
O13	O	-0.570597	-1.453893	-0.741010
O14	O	-0.570637	-1.283526	-0.570674
O15	O	-0.441567	-1.582986	-0.741042
O16	O	-0.741055	-1.582806	-0.441621
O17	O	-0.740985	-1.453791	-0.570660
C18	C	-0.506132	-1.245410	-0.506157
C19	C	-0.506140	-1.128633	-0.506173
C20	C	-0.779141	-1.518315	-0.506157
C21	C	-0.895917	-1.518384	-0.506183
C22	C	-0.439053	-0.964075	-0.573487
C23	C	-0.439039	-1.073799	-0.573483
C24	C	-0.573266	-1.073737	-0.438870
C25	C	-0.573285	-0.964015	-0.438881
C26	C	-0.950781	-1.585637	-0.439066
C27	C	-1.060505	-1.585701	-0.439099
C28	C	-1.060492	-1.451251	-0.573367
C29	C	-0.950770	-1.451193	-0.573339
C30	C	-0.895928	-1.652828	-0.371910
C31	C	-0.950791	-1.720086	-0.304787
C32	C	-1.060515	-1.720150	-0.304820
C33	C	-1.115376	-1.652957	-0.371975
C34	C	-0.232140	-1.518468	-0.506224
C35	C	-0.115363	-1.518507	-0.506243
C36	C	-0.506067	-1.518450	-0.780213
C37	C	-0.506022	-1.518481	-0.896989
C38	C	-0.506200	-0.792410	-0.506196
C39	C	-0.506172	-0.909187	-0.506188
C40	C	-0.438803	-1.451332	-0.951856
C41	C	-0.438770	-1.451356	-1.061580
C42	C	-0.573179	-1.585689	-1.061561
C43	C	-0.573216	-1.585659	-0.951839
C44	C	-0.506203	-1.518364	-0.233212
C45	C	-0.505952	-1.518537	-0.116436
H46	H	-0.384406	-0.919437	-0.628293
H47	H	-0.806585	-1.652780	-0.371873
C48	C	-1.120835	-1.377337	-0.647228
C49	C	-1.241525	-1.377397	-0.647257
C50	C	-1.301867	-1.303479	-0.721116
C51	C	-1.241519	-1.229501	-0.794946
C52	C	-1.120822	-1.229438	-0.794920
C53	C	-1.060481	-1.303356	-0.721061
H54	H	-1.286205	-1.432162	-0.592600
H55	H	-1.391215	-1.303526	-0.721135
H56	H	-1.286188	-1.174782	-0.849621
H57	H	-1.076143	-1.174673	-0.849576
H58	H	-0.971133	-1.303309	-0.721042
H59	H	-1.204720	-1.653023	-0.372004
C60	C	-0.890408	-1.377210	-0.647159
C61	C	-0.905577	-1.257786	-0.638480
C62	C	-0.845213	-1.183804	-0.712302
C63	C	-0.769680	-1.229246	-0.794804
C64	C	-0.754507	-1.348677	-0.803486
C65	C	-0.814872	-1.422659	-0.729664
H66	H	-0.961495	-1.224141	-0.577404
H67	H	-0.856445	-1.095393	-0.705874
H68	H	-0.724995	-1.174481	-0.849451
H69	H	-0.698590	-1.382322	-0.864562
H70	H	-0.803639	-1.511069	-0.736092
H71	H	-0.627885	-1.640383	-1.106233
C72	C	-0.647120	-0.903631	-0.364844
C73	C	-0.601511	-0.828158	-0.282450
C74	C	-0.675346	-0.767774	-0.208421
C75	C	-0.794789	-0.782862	-0.216786
C76	C	-0.840404	-0.858338	-0.299184
C77	C	-0.766570	-0.918722	-0.373213
H78	H	-0.513086	-0.816986	-0.276255
H79	H	-0.641578	-0.711902	-0.147425
H80	H	-0.849446	-0.738162	-0.161986
H81	H	-0.928829	-0.869510	-0.305379
H82	H	-0.800338	-0.974595	-0.434209
H83	H	-0.384385	-1.118484	-0.628286
H84	H	-0.906118	-1.774798	-0.250117
H85	H	-0.384089	-1.396631	-0.907201
C86	C	-0.364826	-1.377494	-1.121935
C87	C	-0.282329	-1.423070	-1.197393
C88	C	-0.208383	-1.349202	-1.257749
C89	C	-0.216932	-1.229759	-1.242646
C90	C	-0.299432	-1.184177	-1.167184
C91	C	-0.373379	-1.258044	-1.106829
H92	H	-0.275998	-1.511494	-1.208576
H93	H	-0.147311	-1.382946	-1.313610
H94	H	-0.162192	-1.175079	-1.287324
H95	H	-0.305764	-1.095753	-1.156001
H96	H	-0.434450	-1.224301	-1.050968
H97	H	-0.627905	-1.118392	-0.384069
C98	C	-1.120867	-1.794135	-0.230994
C99	C	-1.060527	-1.868042	-0.157131
C100	C	-1.120876	-1.942027	-0.083300
C101	C	-1.241566	-1.942105	-0.083331
C102	C	-1.301913	-1.868195	-0.157197
C103	C	-1.241564	-1.794210	-0.231028
H104	H	-0.971179	-1.867987	-0.157105
H105	H	-1.076202	-1.996740	-0.028619
H106	H	-1.286240	-1.996873	-0.028677
H107	H	-1.391261	-1.868250	-0.157223
H108	H	-1.286238	-1.739497	-0.285708
H109	H	-0.627957	-1.640343	-0.907165
