data_functionalizedCrystal
_audit_creation_method	'MofGen! by Chris Wilmer'
_symmetry_space_group_name_H-M	'P1'
_symmetry_Int_Tables_number	1
_symmetry_cell_setting	triclinic
loop_
_symmetry_equiv_pos_as_xyz
  x,y,z
_cell_length_a	10.723024
_cell_length_b	9.130307
_cell_length_c	10.723023
_cell_angle_alpha	90.002303
_cell_angle_beta	84.467709
_cell_angle_gamma	90.001221
loop_
_atom_site_label
_atom_site_type_symbol
_atom_site_fract_x
_atom_site_fract_y
_atom_site_fract_z
O1	O	1.657183	0.121786	0.175025
O2	O	1.294030	0.121791	0.191779
O3	O	1.483984	0.121783	0.001826
O4	O	1.467229	0.121795	0.364978
O5	O	1.483978	-0.121816	0.001824
O6	O	1.294024	-0.121808	0.191777
O7	O	1.657177	-0.121813	0.175023
Cu8	Cu	1.475600	-0.144053	0.183400
Cu9	Cu	1.475607	0.144031	0.183402
O10	O	1.467223	-0.121804	0.364976
C11	C	1.247528	-0.000008	0.190558
C12	C	1.108973	-0.000006	0.186911
N13	N	1.475604	-0.346675	0.183398
C14	C	1.033991	-0.000001	0.293198
C15	C	0.890787	0.000000	0.289431
C16	C	1.643877	-0.346673	0.015244
C17	C	1.728021	-0.423338	-0.068830
C18	C	1.728034	-0.576672	-0.068830
C19	C	1.643890	-0.653343	0.015249
C20	C	1.559745	-0.576678	0.099322
C21	C	1.559744	-0.423341	0.099316
C22	C	1.391468	-0.576680	0.267468
C23	C	1.391460	-0.423347	0.267477
C24	C	1.307324	-0.653352	0.351547
C25	C	1.223184	-0.576686	0.435628
C26	C	1.223176	-0.423344	0.435627
C27	C	1.307315	-0.346682	0.351550
C28	C	1.703679	-0.000010	0.176243
C29	C	1.842234	-0.000003	0.179891
C30	C	1.482762	-0.000015	-0.044675
C31	C	1.479114	-0.000010	-0.183229
N32	N	1.475613	0.346654	0.183394
C33	C	1.477492	0.126183	-0.244994
C34	C	1.473722	0.126191	-0.388197
C35	C	1.468445	-0.000003	0.411477
C36	C	1.472093	0.000002	0.550031
H37	H	0.826354	0.000010	0.380421
H38	H	1.473494	-0.108043	-0.396861
H39	H	1.477705	-0.108043	-0.236367
H40	H	1.307333	-0.778204	0.351538
H41	H	1.307320	-0.221829	0.351546
O42	O	1.472098	0.255220	-0.451365
C43	C	1.474301	0.372546	-0.366110
H44	H	1.516199	0.333762	-0.278105
H45	H	1.533769	0.465379	-0.411226
H46	H	1.374719	0.413372	-0.340061
H47	H	1.075812	-0.000007	0.386984
O48	O	1.809823	-0.651309	-0.150329
C49	C	1.887394	-0.739963	-0.082784
H50	H	1.838520	-0.762928	0.014412
H51	H	1.906699	-0.847791	-0.134686
H52	H	1.979688	-0.680860	-0.073458
H53	H	0.906659	0.000003	0.088896
H54	H	1.067152	0.000028	0.093125
H55	H	1.643885	-0.221821	0.015246
H56	H	1.796529	-0.360899	-0.137289
O57	O	1.643901	-0.802290	0.015010
C58	C	1.617509	-0.853518	-0.103675
H59	H	1.642459	-0.765153	-0.176961
H60	H	1.675181	-0.956098	-0.128691
H61	H	1.513548	-0.880729	-0.101345
H62	H	1.154650	-0.360931	0.504084
H63	H	1.154674	-0.639122	0.504074
O64	O	1.479020	0.254974	-0.181448
C65	C	1.373107	0.262836	-0.092938
H66	H	1.337624	0.147519	-0.069173
H67	H	1.399805	0.318872	-0.004296
H68	H	1.296250	0.328474	-0.133771
