data_functionalizedCrystal
_audit_creation_method	'MofGen! by Chris Wilmer'
_symmetry_space_group_name_H-M	'P1'
_symmetry_Int_Tables_number	1
_symmetry_cell_setting	triclinic
loop_
_symmetry_equiv_pos_as_xyz
  x,y,z
_cell_length_a	14.971486
_cell_length_b	12.837942
_cell_length_c	14.048226
_cell_angle_alpha	89.994377
_cell_angle_beta	89.998499
_cell_angle_gamma	89.221535
loop_
_atom_site_label
_atom_site_type_symbol
_atom_site_fract_x
_atom_site_fract_y
_atom_site_fract_z
O1	O	1.198338	0.135106	-0.079050
O2	O	0.939302	0.151285	-0.079075
O3	O	1.063076	-0.007715	-0.079057
O4	O	1.074564	0.294105	-0.079068
O5	O	1.063059	-0.007724	0.079264
O6	O	0.939284	0.151275	0.079246
O7	O	1.198320	0.135096	0.079272
Zn8	Zn	1.068800	0.143184	0.104396
Zn9	Zn	1.068822	0.143197	-0.104199
O10	O	1.074546	0.294096	0.079254
C11	C	0.905907	0.150556	0.000082
C12	C	0.806427	0.148388	0.000072
C13	C	0.757077	0.241796	0.000070
C14	C	0.663606	0.239752	0.000085
C15	C	0.619486	0.144300	0.000094
C16	C	0.668842	0.050885	0.000099
C17	C	0.762313	0.052930	0.000091
C18	C	0.474021	0.046630	0.000112
C19	C	0.380545	0.044585	0.000118
C20	C	0.375314	0.233453	0.000105
C21	C	0.468784	0.235498	0.000098
C22	C	0.518135	0.142082	0.000101
C23	C	1.059187	-0.046345	0.000103
C24	C	1.047612	-0.161436	0.000100
C25	C	1.186755	-0.402222	0.000094
C26	C	1.175884	-0.510362	0.000091
C27	C	1.015001	-0.485856	0.000085
C28	C	1.025872	-0.377717	0.000088
C29	C	1.111751	-0.335904	0.000093
C30	C	1.122621	-0.227763	0.000103
C31	C	0.961739	-0.203260	0.000090
C32	C	0.950868	-0.311399	0.000087
C33	C	1.231715	0.135824	0.000112
C34	C	1.331195	0.137993	0.000116
C35	C	1.078436	0.332726	0.000092
C36	C	1.090010	0.447817	0.000088
N37	N	1.068791	0.143175	0.246756
N38	N	1.068838	0.143197	-0.246560
C39	C	1.123619	0.072799	0.296583
C40	C	1.123625	0.072799	0.396240
C41	C	1.068807	0.143180	0.446070
C42	C	1.013972	0.213559	0.396237
C43	C	1.013962	0.213554	0.296581
C44	C	1.013998	0.213567	0.603951
C45	C	1.014009	0.213573	0.703614
C46	C	1.123662	0.072811	0.703610
C47	C	1.123652	0.072806	0.603954
C48	C	1.068818	0.143187	0.554128
H49	H	0.792993	0.319524	0.000062
O50	O	0.867495	-0.352145	-0.000043
C51	C	0.761836	-0.459953	-0.082096
C52	C	0.856289	-0.413901	-0.082060
H53	H	0.752738	-0.509875	-0.148410
H54	H	0.752705	-0.510048	-0.015886
H55	H	0.710111	-0.393959	-0.082047
H56	H	0.908071	-0.479828	-0.082143
H57	H	0.865344	-0.363779	-0.148264
H58	H	0.802492	-0.023133	0.000092
H59	H	0.969313	0.270860	0.256013
H60	H	0.344625	-0.033141	0.000127
O61	O	1.206104	-0.187315	0.000061
C62	C	1.364529	-0.223039	0.000108
C63	C	1.270035	-0.268980	0.000139
H64	H	1.416244	-0.289044	0.000192
H65	H	1.373698	-0.173054	-0.066164
H66	H	1.373598	-0.172996	0.066350
H67	H	1.260901	-0.319070	-0.066058
H68	H	1.260910	-0.318906	0.066456
O69	O	0.960633	0.281792	0.555507
C70	C	0.840369	0.303631	0.442964
C71	C	0.900723	0.226250	0.497783
H72	H	0.791930	0.258755	0.396265
H73	H	0.801127	0.353924	0.495653
H74	H	0.883420	0.355512	0.396337
H75	H	0.857739	0.174301	0.544410
H76	H	0.939971	0.176029	0.445043
O77	O	0.888805	-0.138944	-0.000037
C78	C	0.754654	-0.084858	-0.082084
C79	C	0.837199	-0.157769	-0.082053
H80	H	0.712918	-0.100037	-0.148397
H81	H	0.712785	-0.100105	-0.015873
H82	H	0.777191	-0.000392	-0.082031
H83	H	0.814741	-0.242261	-0.082140
H84	H	0.879050	-0.142432	-0.148258
H85	H	0.969332	0.270861	0.436814
O86	O	1.270236	-0.361770	0.000058
C87	C	1.428663	-0.397485	0.000126
C88	C	1.334171	-0.443432	0.000146
H89	H	1.480380	-0.463486	0.000217
H90	H	1.437837	-0.347501	-0.066147
H91	H	1.437722	-0.347439	0.066368
H92	H	1.325047	-0.493525	-0.066051
H93	H	1.325041	-0.493356	0.066463
O94	O	1.176897	0.004330	0.248330
C95	C	1.285693	-0.135248	0.258856
C96	C	1.225386	-0.057775	0.313617
H97	H	1.324926	-0.185466	0.311617
H98	H	1.242695	-0.187189	0.212239
H99	H	1.334152	-0.090385	0.212161
H100	H	1.176917	-0.102553	0.360363
H101	H	1.268439	-0.005835	0.360174
H102	H	1.168270	0.015493	0.436808
O103	O	1.176928	0.004341	0.555696
C104	C	1.285728	-0.135235	0.566203
C105	C	1.225423	-0.057768	0.620974
H106	H	1.324966	-0.185456	0.618956
H107	H	1.242728	-0.187173	0.519585
H108	H	1.334183	-0.090366	0.519507
H109	H	1.176959	-0.102552	0.667721
H110	H	1.268479	-0.005831	0.667531
O111	O	0.615803	0.330585	0.000039
C112	C	0.620479	0.518131	0.000081
C113	C	0.674724	0.415337	0.000107
H114	H	0.668093	0.586680	0.000155
H115	H	0.576604	0.521970	-0.066186
H116	H	0.576572	0.521838	0.066328
H117	H	0.718681	0.411561	-0.066096
H118	H	0.718541	0.411540	0.066417
O119	O	0.521999	-0.044087	0.000281
C120	C	0.630612	-0.151374	0.082260
C121	C	0.576318	-0.048615	0.082206
H122	H	0.674556	-0.155058	0.148479
H123	H	0.583064	-0.219987	0.082325
H124	H	0.674458	-0.155118	0.015968
H125	H	0.532467	-0.044769	0.148487
H126	H	0.623915	0.019951	0.082092
H127	H	1.168309	0.015505	0.744185
O128	O	0.625945	-0.041812	-0.000060
C129	C	0.523410	-0.153698	-0.082043
C130	C	0.571947	-0.048692	-0.081989
H131	H	0.479727	-0.159285	-0.148265
H132	H	0.574700	-0.220152	-0.082102
H133	H	0.479820	-0.159364	-0.015754
H134	H	0.615535	-0.042924	-0.148267
H135	H	0.520610	0.017712	-0.081880
H136	H	0.945081	-0.519920	0.000070
O137	O	0.960663	0.281964	0.751873
C138	C	0.851908	0.421588	0.741366
C139	C	0.912270	0.344182	0.686594
H140	H	0.812780	0.471926	0.688612
H141	H	0.803366	0.376774	0.788004
H142	H	0.894946	0.473420	0.788041
H143	H	0.869303	0.292331	0.639868
H144	H	0.960817	0.389061	0.640016
H145	H	1.236960	-0.564355	0.000088
H146	H	0.504704	0.313223	0.000081
H147	H	0.335129	0.309515	0.000107
