data_functionalizedCrystal
_audit_creation_method	'MofGen! by Chris Wilmer'
_symmetry_space_group_name_H-M	'P1'
_symmetry_Int_Tables_number	1
_symmetry_cell_setting	triclinic
loop_
_symmetry_equiv_pos_as_xyz
  x,y,z
_cell_length_a	16.109302
_cell_length_b	15.995350
_cell_length_c	15.072220
_cell_angle_alpha	90.001101
_cell_angle_beta	89.985562
_cell_angle_gamma	83.477078
loop_
_atom_site_label
_atom_site_type_symbol
_atom_site_fract_x
_atom_site_fract_y
_atom_site_fract_z
O1	O	1.103171	0.107622	-0.073818
O2	O	0.861112	0.121015	-0.073810
O3	O	0.988758	-0.007570	-0.073814
O4	O	0.975525	0.236208	-0.073815
O5	O	0.988727	-0.007563	0.073752
O6	O	0.861081	0.121023	0.073755
O7	O	1.103139	0.107630	0.073747
Zn8	Zn	0.982105	0.114327	0.097180
Zn9	Zn	0.982147	0.114318	-0.097243
O10	O	0.975493	0.236216	0.073750
C11	C	0.830122	0.120476	-0.000027
C12	C	0.737826	0.118850	-0.000024
C13	C	0.988196	-0.038761	-0.000033
C14	C	0.986555	-0.131711	-0.000038
C15	C	0.525467	0.115092	0.080405
C16	C	0.438746	0.113554	0.080402
C17	C	0.438791	0.113551	-0.080482
C18	C	0.525511	0.115082	-0.080478
C19	C	0.568846	0.115857	-0.000032
C20	C	0.395406	0.112788	-0.000039
C21	C	0.301380	0.111121	-0.000043
C22	C	0.662878	0.117523	-0.000028
C23	C	0.980665	-0.469457	-0.000034
C24	C	0.889758	-0.421999	-0.000363
C25	C	0.891398	-0.325309	-0.000030
C26	C	0.983587	-0.301898	-0.000036
C27	C	1.028407	-0.342983	0.084227
C28	C	1.026124	-0.439618	0.084298
C29	C	1.028037	-0.439985	-0.083511
C30	C	1.028016	-0.343040	-0.084625
C31	C	0.985243	-0.207201	-0.000035
C32	C	0.979012	-0.564155	-0.000030
C33	C	1.134130	0.108169	-0.000038
C34	C	1.226426	0.109795	-0.000047
C35	C	0.976056	0.267407	-0.000032
C36	C	0.977696	0.360357	-0.000033
N37	N	0.982083	0.114333	0.229869
N38	N	0.982176	0.114305	-0.229932
C39	C	0.982145	0.114315	0.589070
C40	C	0.913615	0.182888	0.551465
C41	C	0.913772	0.183138	0.448639
C42	C	0.982113	0.114324	0.410866
C43	C	1.068863	0.133382	0.448155
C44	C	1.068479	0.133869	0.551013
C45	C	0.964699	0.026480	0.551172
C46	C	0.962709	0.027066	0.448309
C47	C	0.982101	0.114327	0.310153
C48	C	0.982163	0.114313	0.689784
H49	H	0.560748	0.115723	0.145909
C50	C	0.986317	-0.304637	0.168950
C51	C	0.983351	-0.209528	0.186666
C52	C	0.941254	-0.171184	0.271386
C53	C	0.902125	-0.227948	0.338390
C54	C	0.905090	-0.323063	0.320676
C55	C	0.947186	-0.361407	0.235956
H56	H	1.012318	-0.167503	0.137064
H57	H	0.939059	-0.100774	0.284499
H58	H	0.870962	-0.199563	0.401104
H59	H	0.876122	-0.365088	0.370278
H60	H	0.949381	-0.431817	0.222843
C61	C	1.139469	0.069144	0.584894
C62	C	1.140822	-0.024452	0.560337
C63	C	1.211828	-0.089087	0.594344
C64	C	1.281481	-0.060124	0.652908
C65	C	1.280131	0.033478	0.677468
C66	C	1.209125	0.098112	0.643462
H67	H	1.089258	-0.045897	0.516981
H68	H	1.212827	-0.158377	0.576162
H69	H	1.334044	-0.107970	0.678082
H70	H	1.331695	0.054922	0.720824
H71	H	1.208125	0.167402	0.661643
C72	C	1.139407	0.067711	0.415096
C73	C	1.119013	-0.004158	0.353711
C74	C	1.189556	-0.069830	0.320650
C75	C	1.280493	-0.063632	0.348975
C76	C	1.300890	0.008240	0.410363
C77	C	1.230348	0.073912	0.443424
H78	H	1.051693	-0.008749	0.332740
H79	H	1.174456	-0.123034	0.275206
H80	H	1.332712	-0.112246	0.324501
H81	H	1.368211	0.012831	0.431334
H82	H	1.245448	0.127116	0.488868
C83	C	0.391119	0.112709	-0.168969
C84	C	0.295730	0.111031	-0.168979
C85	C	0.248060	0.110193	-0.257468
C86	C	0.295778	0.111034	-0.345948
C87	C	0.391173	0.112712	-0.345942
C88	C	0.438843	0.113550	-0.257452
H89	H	0.260401	0.110409	-0.103478
H90	H	0.177442	0.108951	-0.257472
H91	H	0.260490	0.110414	-0.411453
H92	H	0.426502	0.113334	-0.411443
H93	H	0.509461	0.114792	-0.257448
C94	C	0.573233	0.115925	-0.168965
C95	C	0.570770	0.043050	-0.235331
C96	C	0.618493	0.043888	-0.323814
C97	C	0.668679	0.117601	-0.345930
C98	C	0.671144	0.190482	-0.279563
C99	C	0.623421	0.189644	-0.191080
H100	H	0.533618	-0.011522	-0.218960
H101	H	0.616668	-0.010064	-0.372943
H102	H	0.704006	0.118222	-0.411431
H103	H	0.708296	0.245054	-0.295934
H104	H	0.625246	0.243595	-0.141951
C105	C	0.983796	-0.306231	-0.168869
C106	C	1.032496	-0.259873	-0.237636
C107	C	0.988266	-0.223097	-0.321890
C108	C	0.895336	-0.232679	-0.337377
C109	C	0.846631	-0.279039	-0.268608
C110	C	0.890861	-0.315816	-0.184354
H111	H	1.101293	-0.252778	-0.226173
H112	H	1.024321	-0.188778	-0.372797
H113	H	0.862595	-0.205455	-0.399747
H114	H	0.777834	-0.286134	-0.280071
H115	H	0.854805	-0.350135	-0.133447
H116	H	0.403431	0.112931	0.145901
C117	C	0.881080	0.001727	0.586248
C118	C	0.879346	-0.079490	0.640746
C119	C	0.795723	-0.104232	0.675822
C120	C	0.713834	-0.047757	0.656399
C121	C	0.715565	0.033464	0.601898
C122	C	0.799188	0.058206	0.566823
H123	H	0.939968	-0.121300	0.655126
H124	H	0.794442	-0.164358	0.716167
H125	H	0.651931	-0.066073	0.682365
H126	H	0.654943	0.075275	0.587518
H127	H	0.800469	0.118332	0.526477
H128	H	0.849289	0.171787	0.423431
H129	H	0.856165	-0.296880	-0.060434
C130	C	0.840686	-0.447011	-0.082001
C131	C	0.882554	-0.510837	-0.149369
C132	C	0.833484	-0.535849	-0.231015
C133	C	0.742546	-0.497034	-0.245294
C134	C	0.700672	-0.433203	-0.177924
C135	C	0.749743	-0.408191	-0.096277
H136	H	0.949877	-0.539574	-0.138801
H137	H	0.864482	-0.583101	-0.280887
H138	H	0.706221	-0.515549	-0.305733
H139	H	0.633350	-0.404466	-0.188491
H140	H	0.718745	-0.360940	-0.046406
H141	H	0.853572	-0.441580	0.059730
C142	C	0.928441	0.270465	0.586335
C143	C	0.944475	0.340637	0.520686
C144	C	0.959298	0.428219	0.555544
C145	C	0.958087	0.445628	0.656049
C146	C	0.942052	0.375454	0.721703
C147	C	0.927228	0.287872	0.686846
H148	H	0.945373	0.327751	0.446281
H149	H	0.971169	0.480166	0.506941
H150	H	0.969060	0.510461	0.681852
H151	H	0.941154	0.388340	0.796108
H152	H	0.915358	0.235925	0.735448
C153	C	0.843455	-0.287641	0.081718
C154	C	0.803559	-0.345552	0.146903
C155	C	0.755616	-0.307885	0.228657
C156	C	0.747569	-0.212306	0.245224
C157	C	0.787466	-0.154389	0.180037
C158	C	0.835409	-0.192056	0.098284
H159	H	0.809515	-0.416311	0.134640
H160	H	0.726081	-0.350759	0.276912
H161	H	0.712078	-0.184422	0.305743
H162	H	0.781510	-0.083630	0.192300
H163	H	0.864944	-0.149181	0.050028
H164	H	1.084603	0.196708	0.422385
H165	H	0.924912	0.248319	0.424025
H166	H	0.898895	0.012602	0.423938
H167	H	0.993414	-0.457908	0.147291
C168	C	1.089240	0.220406	0.583417
C169	C	1.106053	0.288587	0.515703
C170	C	1.126812	0.375127	0.548101
C171	C	1.130758	0.393484	0.648214
C172	C	1.113944	0.325301	0.715935
C173	C	1.093185	0.238762	0.683536
H174	H	1.103133	0.274999	0.441587
H175	H	1.139259	0.425600	0.497970
H176	H	1.146125	0.457546	0.672198
H177	H	1.116864	0.338889	0.790050
H178	H	1.080738	0.188288	0.733668
C179	C	1.116282	-0.483214	0.089480
C180	C	1.190127	-0.430066	0.093544
C181	C	1.280283	-0.473657	0.098735
C182	C	1.296594	-0.570397	0.099863
C183	C	1.222748	-0.623552	0.095799
C184	C	1.132592	-0.579960	0.090607
H185	H	1.178054	-0.358448	0.092709
H186	H	1.334949	-0.434308	0.101744
H187	H	1.363333	-0.602666	0.103706
H188	H	1.234821	-0.695170	0.096633
H189	H	1.077926	-0.619309	0.087598
H190	H	1.009380	-0.026352	0.422599
C191	C	1.119903	-0.323925	0.088466
C192	C	1.155068	-0.270706	0.015286
C193	C	1.246563	-0.251646	0.019522
C194	C	1.302892	-0.285804	0.096939
C195	C	1.267728	-0.339026	0.170125
C196	C	1.176233	-0.358086	0.165888
H197	H	1.113369	-0.245418	-0.042028
H198	H	1.272593	-0.212248	-0.034655
H199	H	1.370622	-0.271695	0.100075
H200	H	1.309427	-0.364315	0.227439
H201	H	1.150202	-0.397484	0.220066
C202	C	1.118584	-0.482914	-0.084295
C203	C	1.192050	-0.429200	-0.081695
C204	C	1.282593	-0.472132	-0.082472
C205	C	1.299670	-0.568778	-0.085848
C206	C	1.226203	-0.622497	-0.088448
C207	C	1.135659	-0.579565	-0.087671
H208	H	1.179410	-0.357652	-0.079196
H209	H	1.336979	-0.432365	-0.080547
H210	H	1.366696	-0.600558	-0.086423
H211	H	1.238842	-0.694045	-0.090947
H212	H	1.081274	-0.619333	-0.089595
C213	C	1.032206	-0.042463	0.584025
C214	C	1.029103	-0.134630	0.555974
C215	C	1.096612	-0.203564	0.588832
C216	C	1.167224	-0.180331	0.649741
C217	C	1.170330	-0.088159	0.677796
C218	C	1.102821	-0.019225	0.644938
H219	H	0.976829	-0.151832	0.510882
H220	H	1.094312	-0.271796	0.568064
H221	H	1.217198	-0.231360	0.674065
H222	H	1.222603	-0.070957	0.722888
H223	H	1.105120	0.049006	0.665706
H224	H	0.998329	-0.460520	-0.147378
H225	H	1.095245	-0.327696	-0.089717
H226	H	0.848924	0.171723	0.576229
