data_functionalizedCrystal
_audit_creation_method	'MofGen! by Chris Wilmer'
_symmetry_space_group_name_H-M	'P1'
_symmetry_Int_Tables_number	1
_symmetry_cell_setting	triclinic
loop_
_symmetry_equiv_pos_as_xyz
  x,y,z
_cell_length_a	8.497374
_cell_length_b	13.032831
_cell_length_c	13.032721
_cell_angle_alpha	89.097115
_cell_angle_beta	97.169095
_cell_angle_gamma	97.172717
loop_
_atom_site_label
_atom_site_type_symbol
_atom_site_fract_x
_atom_site_fract_y
_atom_site_fract_z
Zn1	Zn	1.299749	1.519982	0.609635
Zn2	Zn	1.064703	1.498071	0.781567
Zn3	Zn	0.998870	1.348061	0.587743
Zn4	Zn	1.291326	1.326132	0.759681
O5	O	1.163662	1.423062	0.684657
O6	O	1.299646	1.660983	0.650764
O7	O	0.835209	1.478179	0.755853
O8	O	1.014756	1.389213	0.446737
O9	O	1.126959	1.644885	0.777081
O10	O	1.235810	1.515523	0.462821
O11	O	0.786842	1.367967	0.613452
O12	O	1.006589	1.201245	0.592230
O13	O	1.513205	1.351839	0.739780
O14	O	1.221455	1.185134	0.718552
O15	O	1.519393	1.494260	0.629542
O16	O	1.118792	1.456916	0.922574
O17	O	1.285291	1.330593	0.906494
C18	C	1.105965	1.155876	0.650641
C19	C	1.081324	1.041569	0.636114
C20	C	1.176523	0.982652	0.692239
C21	C	1.151057	0.864510	0.677225
C22	C	1.208312	1.389026	0.951852
C23	C	1.227486	1.374559	1.066171
C24	C	1.575141	1.423054	0.684657
C25	C	1.753788	1.423055	0.684668
C26	C	1.221586	1.691291	0.718806
C27	C	1.246269	1.805594	0.733358
C28	C	1.118879	1.457259	0.416421
C29	C	1.099795	1.471831	0.302116
C30	C	1.153738	1.430666	1.125067
C31	C	1.173554	1.415716	1.243222
H32	H	1.050699	0.827493	0.618052
C33	C	1.380771	0.962919	0.812650
C34	C	1.381763	0.855554	0.813236
H35	H	1.464413	0.993760	0.861966
H36	H	1.396246	0.989257	0.745796
H37	H	1.280984	0.978552	0.829808
H38	H	1.481546	0.839921	0.796070
H39	H	1.366300	0.829207	0.880104
H40	H	1.251375	1.356612	1.280269
H41	H	1.276884	1.019674	0.751400
C42	C	1.055214	1.650213	1.290866
C43	C	0.994749	1.551629	1.252114
H44	H	0.990368	1.699474	1.259990
H45	H	1.054738	1.650627	1.363699
H46	H	1.161538	1.667401	1.275174
H47	H	0.888429	1.534438	1.267812
H48	H	0.995209	1.551213	1.179265
C49	C	1.331825	1.295399	1.223547
C50	C	1.332528	1.294766	1.116178
H51	H	1.396669	1.246132	1.254414
H52	H	1.372831	1.362278	1.249820
H53	H	1.225495	1.278199	1.239223
H54	H	1.438857	1.311974	1.100501
H55	H	1.291529	1.227872	1.089896
H56	H	0.980973	1.004548	0.576944
C57	C	0.891976	1.485084	1.098197
C58	C	1.048689	1.510456	1.075060
H59	H	0.827126	1.534347	1.067331
H60	H	0.850991	1.418206	1.071912
H61	H	0.891531	1.485508	1.171041
H62	H	1.049135	1.510024	1.002216
H63	H	1.089684	1.577351	1.101340
