data_functionalizedCrystal
_audit_creation_method	'MofGen! by Chris Wilmer'
_symmetry_space_group_name_H-M	'P1'
_symmetry_Int_Tables_number	1
_symmetry_cell_setting	triclinic
loop_
_symmetry_equiv_pos_as_xyz
  x,y,z
_cell_length_a	10.685924
_cell_length_b	12.759401
_cell_length_c	12.759393
_cell_angle_alpha	90.020938
_cell_angle_beta	85.600464
_cell_angle_gamma	94.366235
loop_
_atom_site_label
_atom_site_type_symbol
_atom_site_fract_x
_atom_site_fract_y
_atom_site_fract_z
Zn1	Zn	0.502255	1.638397	0.561987
Zn2	Zn	0.713302	1.651789	0.372847
Zn3	Zn	0.502322	1.462700	0.386318
Zn4	Zn	0.713213	1.476183	0.548490
O5	O	0.607773	1.557267	0.467410
O6	O	0.530259	1.787195	0.536908
O7	O	0.685380	1.626668	0.227609
O8	O	0.325730	1.474759	0.420907
O9	O	0.685315	1.797034	0.397948
O10	O	0.325681	1.603843	0.549971
O11	O	0.530374	1.487745	0.237506
O12	O	0.530288	1.317467	0.407819
O13	O	0.685164	1.497739	0.697305
O14	O	0.685229	1.327373	0.526966
O15	O	0.530174	1.616917	0.707222
O16	O	0.889873	1.639742	0.384860
O17	O	0.889808	1.510725	0.513904
C18	C	0.607758	1.284299	0.467391
C19	C	0.607781	1.167524	0.467405
C20	C	0.278640	1.536303	0.488447
C21	C	0.138383	1.527369	0.497412
C22	C	0.688582	1.117855	0.529331
C23	C	0.688587	1.008131	0.529352
C24	C	0.526987	0.997754	0.405511
C25	C	0.526977	1.107475	0.405497
C26	C	0.733865	0.861132	0.650325
C27	C	0.814686	0.811461	0.712240
C28	C	0.937832	0.854936	0.720334
C29	C	0.980184	0.948083	0.666495
C30	C	0.899370	0.997749	0.604571
C31	C	0.776206	0.954274	0.596498
C32	C	0.481711	1.254478	0.284522
C33	C	0.400903	1.304146	0.222592
C34	C	0.277754	1.260672	0.214487
C35	C	0.235407	1.167522	0.268307
C36	C	0.316215	1.117854	0.330238
C37	C	0.439363	1.161335	0.338344
C38	C	0.935626	1.578178	0.446479
C39	C	1.075883	1.587220	0.437559
C40	C	0.607652	1.557338	0.741452
C41	C	0.607600	1.557368	0.858232
C42	C	0.607789	1.831301	0.467431
C43	C	0.607796	1.948078	0.467440
C44	C	0.607803	1.557251	0.194441
C45	C	0.607499	1.557402	0.077684
C46	C	0.526884	1.619428	0.918260
C47	C	0.526829	1.619442	1.027987
C48	C	0.688219	1.495334	1.017649
C49	C	0.688266	1.495315	0.907923
C50	C	0.377949	1.647530	1.187461
C51	C	0.297244	1.709608	1.247492
C52	C	0.277894	1.810882	1.213134
C53	C	0.339267	1.850102	1.118747
C54	C	0.419982	1.788031	1.058721
C55	C	0.439308	1.686740	1.093078
C56	C	0.837148	1.467238	0.748448
C57	C	0.917870	1.405172	0.688419
C58	C	0.937233	1.303896	0.722774
C59	C	0.875881	1.264682	0.817164
C60	C	0.795159	1.326748	0.877192
C61	C	0.775794	1.428022	0.842830
H62	H	0.754375	1.166743	0.579744
H63	H	0.469956	1.819965	0.981875
H64	H	0.891652	1.182216	0.845138
H65	H	0.821380	1.549703	0.720462
H66	H	0.129675	1.645298	0.379454
H67	H	1.002975	1.253368	0.673893
H68	H	0.084586	1.469281	0.555513
H69	H	0.461197	1.669953	0.877804
N70	N	0.728955	1.284441	0.978983
H71	H	0.674877	1.339125	1.011793
H72	H	0.793544	1.267036	1.028774
N73	N	0.318407	1.959342	1.081694
H74	H	0.257960	1.992712	1.134041
H75	H	0.282024	1.955046	1.010929
N76	N	0.190598	1.314233	0.147679
H77	H	0.236108	1.379836	0.114804
H78	H	0.114328	1.333752	0.193066
H79	H	0.212181	1.861426	1.262020
N80	N	0.231028	1.667310	1.349283
H81	H	0.256270	1.714043	1.409225
H82	H	0.255537	1.593717	1.361843
H83	H	0.435393	1.379994	0.178767
H84	H	0.281722	1.042011	0.374069
H85	H	0.633585	0.825731	0.643752
H86	H	0.393687	1.565061	1.215439
H87	H	1.003636	0.814487	0.770749
N88	N	0.775200	1.428392	1.071246
H89	H	0.762919	1.437816	1.149866
H90	H	0.865338	1.450461	1.046316
N91	N	0.984060	1.447469	0.586619
H92	H	0.959542	1.521044	0.573958
H93	H	0.958806	1.400649	0.526748
N94	N	0.614544	1.301361	0.293274
H95	H	0.612330	1.374315	0.323768
H96	H	0.660925	1.305347	0.221209
N97	N	0.945043	1.098203	0.546504
H98	H	0.970960	1.153868	0.598551
H99	H	0.875113	1.122982	0.506053
N100	N	1.113020	0.994963	0.675205
H101	H	1.157789	0.949365	0.722601
H102	H	1.110711	1.067923	0.705662
H103	H	0.461201	0.948850	0.355106
N104	N	0.769003	0.711000	0.770305
H105	H	0.694444	0.724230	0.820804
H106	H	0.838964	0.686177	0.810690
N107	N	0.102585	1.120619	0.259566
H108	H	0.057818	1.166218	0.212169
H109	H	0.056235	1.116546	0.331643
