data_functionalizedCrystal
_audit_creation_method	'MofGen! by Chris Wilmer'
_symmetry_space_group_name_H-M	'P1'
_symmetry_Int_Tables_number	1
_symmetry_cell_setting	triclinic
loop_
_symmetry_equiv_pos_as_xyz
  x,y,z
_cell_length_a	17.077404
_cell_length_b	19.077068
_cell_length_c	17.077396
_cell_angle_alpha	92.267122
_cell_angle_beta	89.980223
_cell_angle_gamma	92.322445
loop_
_atom_site_label
_atom_site_type_symbol
_atom_site_fract_x
_atom_site_fract_y
_atom_site_fract_z
Zn1	Zn	1.187471	-0.280287	-0.456386
Zn2	Zn	1.520804	0.053046	-0.123052
Zn3	Zn	1.854137	0.386380	0.210281
Zn4	Zn	1.182093	-0.397990	-0.330384
Zn5	Zn	1.515426	-0.064657	0.002949
Zn6	Zn	1.848760	0.268676	0.336282
Zn7	Zn	1.056202	-0.280302	-0.325133
Zn8	Zn	1.389535	0.053032	0.008200
Zn9	Zn	1.722868	0.386365	0.341533
Zn10	Zn	1.050888	-0.397939	-0.461605
Zn11	Zn	1.384221	-0.064605	-0.128272
Zn12	Zn	1.717555	0.268728	0.205062
O13	O	1.119163	-0.339129	-0.393377
O14	O	1.452497	-0.005796	-0.060044
O15	O	1.785830	0.327537	0.273290
O16	O	1.296603	-0.295916	-0.439684
O17	O	1.629937	0.037417	-0.106351
O18	O	1.963270	0.370751	0.226982
O19	O	1.165367	-0.382407	-0.219842
O20	O	1.498700	-0.049073	0.113491
O21	O	1.832033	0.284260	0.446825
O22	O	1.078089	-0.181809	-0.338163
O23	O	1.411422	0.151524	-0.004829
O24	O	1.744756	0.484858	0.328504
O25	O	1.292653	-0.382392	-0.347112
O26	O	1.625986	-0.049059	-0.013778
O27	O	1.959319	0.284274	0.319555
O28	O	1.174532	-0.181798	-0.434593
O29	O	1.507865	0.151535	-0.101259
O30	O	1.841198	0.484868	0.232074
O31	O	1.072875	-0.295941	-0.215984
O32	O	1.406208	0.037392	0.117349
O33	O	1.739541	0.370725	0.450682
O34	O	0.945651	-0.295891	-0.343224
O35	O	1.278984	0.037442	-0.009890
O36	O	1.612317	0.370776	0.323443
O37	O	1.069033	-0.382304	-0.570758
O38	O	1.402366	-0.048971	-0.237425
O39	O	1.735699	0.284363	0.095908
O40	O	0.941747	-0.382318	-0.443489
O41	O	1.275080	-0.048985	-0.110155
O42	O	1.608413	0.284348	0.223178
O43	O	1.169379	-0.295866	-0.566924
O44	O	1.502713	0.037467	-0.233590
O45	O	1.836046	0.370801	0.099743
O46	O	1.160214	-0.496474	-0.352173
O47	O	1.493548	-0.163141	-0.018840
O48	O	1.826881	0.170192	0.314494
O49	O	1.063818	-0.496436	-0.448580
O50	O	1.397152	-0.163103	-0.115247
O51	O	1.730485	0.170230	0.218087
C52	C	0.915217	-0.339101	-0.393353
C53	C	1.248550	-0.005768	-0.060020
C54	C	1.581883	0.327565	0.273313
C55	C	0.827967	-0.339106	-0.393362
C56	C	1.161300	-0.005773	-0.060029
C57	C	1.494633	0.327561	0.273304
C58	C	0.450135	-0.384233	-0.445533
C59	C	0.783468	-0.050900	-0.112200
C60	C	1.116801	0.282434	0.221134
C61	C	0.532115	-0.384224	-0.445521
C62	C	0.865449	-0.050890	-0.112187
C63	C	1.198782	0.282443	0.221146
C64	C	0.575116	-0.339148	-0.393390
C65	C	0.908449	-0.005815	-0.060057
C66	C	1.241783	0.327519	0.273276
C67	C	0.536131	-0.294084	-0.341264
C68	C	0.869465	0.039249	-0.007930
C69	C	1.202798	0.372583	0.325403
C70	C	0.454152	-0.294097	-0.341273
C71	C	0.787485	0.039236	-0.007939
C72	C	1.120818	0.372570	0.325394
C73	C	0.707002	-0.294058	-0.341250
C74	C	1.040336	0.039275	-0.007916
C75	C	1.373669	0.372608	0.325417
C76	C	0.788988	-0.294044	-0.341241
C77	C	1.122321	0.039289	-0.007908
C78	C	1.455654	0.372623	0.325426
C79	C	0.784966	-0.384185	-0.445498
C80	C	1.118300	-0.050851	-0.112164
C81	C	1.451633	0.282482	0.221169
C82	C	0.702987	-0.384198	-0.445507
C83	C	1.036320	-0.050865	-0.112173
C84	C	1.369653	0.282469	0.221160
C85	C	0.664008	-0.339133	-0.393381
C86	C	0.997341	-0.005799	-0.060047
C87	C	1.330674	0.327534	0.273286
C88	C	1.110878	-0.521993	-0.401530
C89	C	1.444211	-0.188659	-0.068196
C90	C	1.777544	0.144674	0.265137
C91	C	1.107405	-0.600222	-0.405044
C92	C	1.440738	-0.266889	-0.071710
C93	C	1.774071	0.066444	0.261623
C94	C	1.156000	-0.636971	-0.356542
C95	C	1.489333	-0.303638	-0.023209
C96	C	1.822667	0.029695	0.310124
C97	C	1.152738	-0.710476	-0.359852
C98	C	1.486072	-0.377143	-0.026519
C99	C	1.819405	-0.043810	0.306815
C100	C	1.100877	-0.747231	-0.411660
C101	C	1.434210	-0.413898	-0.078326
C102	C	1.767543	-0.080565	0.255007
C103	C	1.052279	-0.710477	-0.460167
C104	C	1.385612	-0.377144	-0.126833
C105	C	1.718946	-0.043811	0.206500
C106	C	1.055545	-0.636974	-0.456860
C107	C	1.388879	-0.303640	-0.123527
C108	C	1.722212	0.029693	0.209806
C109	C	1.085726	-0.967065	-0.426930
C110	C	1.419059	-0.633731	-0.093597
C111	C	1.752392	-0.300398	0.239737
C112	C	1.082461	-1.040573	-0.430231
C113	C	1.415795	-0.707240	-0.096898
C114	C	1.749128	-0.373907	0.236436
C115	C	1.182922	-1.040568	-0.329917
C116	C	1.516255	-0.707234	0.003417
C117	C	1.849589	-0.373901	0.336750
C118	C	1.186180	-0.967062	-0.326612
C119	C	1.519514	-0.633729	0.006722
C120	C	1.852847	-0.300396	0.340055
C121	C	1.137586	-0.930315	-0.375121
C122	C	1.470919	-0.596981	-0.041788
C123	C	1.804252	-0.263648	0.291545
N124	N	1.097540	-0.822365	-0.415042
N125	N	1.430873	-0.489032	-0.081709
N126	N	1.764206	-0.155699	0.251624
N127	N	1.140927	-0.855182	-0.371742
N128	N	1.474261	-0.521849	-0.038409
N129	N	1.807594	-0.188515	0.294924
C130	C	1.323906	-0.339158	-0.393402
C131	C	1.657240	-0.005825	-0.060068
C132	C	1.990573	0.327508	0.273265
C133	C	1.411156	-0.339171	-0.393412
C134	C	1.744489	-0.005837	-0.060079
C135	C	2.077822	0.327496	0.273255
C136	C	1.119213	-0.339078	-0.598119
C137	C	1.452546	-0.005744	-0.264786
C138	C	1.785880	0.327589	0.068548
C139	C	1.119234	-0.339056	-0.685368
C140	C	1.452568	-0.005722	-0.352035
C141	C	1.785901	0.327611	-0.018701
C142	C	1.127503	-0.155552	-0.385210
C143	C	1.460836	0.177781	-0.051876
C144	C	1.794170	0.511115	0.281457
C145	C	1.131057	-0.077322	-0.381729
C146	C	1.464390	0.256011	-0.048396
C147	C	1.797723	0.589344	0.284937
C148	C	1.171487	-0.294043	-0.724363
C149	C	1.504820	0.039290	-0.391029
C150	C	1.838153	0.372623	-0.057696
C151	C	1.171497	-0.294020	-0.806342
C152	C	1.504831	0.039313	-0.473009
C153	C	1.838164	0.372647	-0.139675
C154	C	1.119259	-0.339013	-0.849326
C155	C	1.452592	-0.005679	-0.515992
C156	C	1.785925	0.327654	-0.182659
C157	C	1.067001	-0.384027	-0.810325
C158	C	1.400334	-0.050693	-0.476992
C159	C	1.733667	0.282640	-0.143659
C160	C	1.066987	-0.384046	-0.728347
C161	C	1.400320	-0.050713	-0.395014
C162	C	1.733654	0.282621	-0.061681
C163	C	1.067034	-0.383984	-0.981194
C164	C	1.400367	-0.050651	-0.647860
C165	C	1.733701	0.282682	-0.314527
C166	C	1.067049	-0.383966	-1.063177
C167	C	1.400382	-0.050633	-0.729844
C168	C	1.733715	0.282700	-0.396511
C169	C	1.171545	-0.293958	-1.059188
C170	C	1.504878	0.039375	-0.725855
C171	C	1.838211	0.372708	-0.392522
C172	C	1.171531	-0.293978	-0.977210
C173	C	1.504864	0.039356	-0.643877
C174	C	1.838197	0.372689	-0.310544
C175	C	1.119274	-0.338993	-0.938216
C176	C	1.452607	-0.005660	-0.604882
C177	C	1.785940	0.327674	-0.271549
C178	C	1.119161	-0.339130	-0.189429
C179	C	1.452494	-0.005797	0.143904
C180	C	1.785828	0.327536	0.477237
C181	C	1.119301	-0.338954	-0.102172
C182	C	1.452634	-0.005621	0.231161
C183	C	1.785968	0.327713	0.564495
H184	H	0.563848	-0.420920	-0.487961
H185	H	0.897182	-0.087586	-0.154628
H186	H	1.230515	0.245747	0.178705
Cl187	Cl	0.994454	-0.590775	-0.517839
Cl188	Cl	1.327787	-0.257441	-0.184506
Cl189	Cl	1.661120	0.075892	0.148828
H190	H	1.046156	-0.937150	-0.466427
H191	H	1.379490	-0.603817	-0.133094
H192	H	1.712823	-0.270484	0.200240
Cl193	Cl	1.213835	-0.756672	-0.298878
Cl194	Cl	1.547169	-0.423339	0.034455
Cl195	Cl	1.880502	-0.090005	0.367789
Cl196	Cl	1.237240	-0.237369	-1.108209
Cl197	Cl	1.570574	0.095965	-0.774876
Cl198	Cl	1.903907	0.429298	-0.441543
H199	H	0.675269	-0.257360	-0.298804
H200	H	1.008602	0.075974	0.034529
H201	H	1.341935	0.409307	0.367862
H202	H	1.040238	-1.070497	-0.472433
H203	H	1.373572	-0.737164	-0.139099
H204	H	1.706905	-0.403831	0.194234
H205	H	1.010056	-0.740409	-0.502353
H206	H	1.343389	-0.407076	-0.169020
H207	H	1.676722	-0.073742	0.164314
H208	H	1.214028	-0.257407	-0.689371
H209	H	1.547361	0.075926	-0.356038
H210	H	1.880695	0.409259	-0.022704
Cl211	Cl	1.237223	-0.237462	-0.855362
Cl212	Cl	1.570556	0.095872	-0.522028
Cl213	Cl	1.903889	0.429205	-0.188695
Cl214	Cl	1.244013	-1.086769	-0.268942
Cl215	Cl	1.577347	-0.753435	0.064391
Cl216	Cl	1.910680	-0.420102	0.397724
Cl217	Cl	1.251392	-0.920862	-0.261490
Cl218	Cl	1.584725	-0.587528	0.071843
Cl219	Cl	1.918058	-0.254195	0.405176
Cl220	Cl	1.237208	-0.237419	-0.923175
Cl221	Cl	1.570541	0.095915	-0.589841
Cl222	Cl	1.903875	0.429248	-0.256508
H223	H	0.823997	-0.257333	-0.298799
H224	H	1.157330	0.076001	0.034534
H225	H	1.490664	0.409334	0.367867
Cl226	Cl	1.001368	-0.440522	-1.117213
Cl227	Cl	1.334701	-0.107188	-0.783880
Cl228	Cl	1.668034	0.226145	-0.450546
Cl229	Cl	0.590189	-0.237419	-0.275725
Cl230	Cl	0.923522	0.095914	0.057608
Cl231	Cl	1.256856	0.429247	0.390941
H232	H	1.024469	-0.420630	-0.949447
H233	H	1.357802	-0.087296	-0.616113
H234	H	1.691135	0.246037	-0.282780
Cl235	Cl	1.001326	-0.440587	-0.864362
Cl236	Cl	1.334659	-0.107254	-0.531029
Cl237	Cl	1.667992	0.226080	-0.197695
H238	H	0.415129	-0.420935	-0.487988
H239	H	0.748463	-0.087602	-0.154655
H240	H	1.081796	0.245732	0.178679
Cl241	Cl	0.648930	-0.440861	-0.511047
Cl242	Cl	0.982263	-0.107528	-0.177714
Cl243	Cl	1.315597	0.225805	0.155619
H244	H	1.024430	-0.420693	-0.696599
H245	H	1.357763	-0.087359	-0.363265
H246	H	1.691097	0.245974	-0.029932
H247	H	0.422416	-0.257401	-0.298832
H248	H	0.755750	0.075932	0.034501
H249	H	1.089083	0.409266	0.367834
Cl250	Cl	0.833968	-0.440826	-0.511040
Cl251	Cl	1.167302	-0.107493	-0.177707
Cl252	Cl	1.500635	0.225840	0.155626
Cl253	Cl	1.221196	-0.590773	-0.291404
Cl254	Cl	1.554530	-0.257439	0.041930
Cl255	Cl	1.887863	0.075894	0.375263
