data_functionalizedCrystal
_audit_creation_method	'MofGen! by Chris Wilmer'
_symmetry_space_group_name_H-M	'P1'
_symmetry_Int_Tables_number	1
_symmetry_cell_setting	triclinic
loop_
_symmetry_equiv_pos_as_xyz
  x,y,z
_cell_length_a	12.645323
_cell_length_b	12.645331
_cell_length_c	12.645330
_cell_angle_alpha	89.989200
_cell_angle_beta	89.972994
_cell_angle_gamma	90.014068
loop_
_atom_site_label
_atom_site_type_symbol
_atom_site_fract_x
_atom_site_fract_y
_atom_site_fract_z
Zn1	Zn	-0.599187	-1.620768	-0.422083
Zn2	Zn	-0.421921	-1.620666	-0.599371
Zn3	Zn	-0.421958	-1.443483	-0.422117
Zn4	Zn	-0.599163	-1.443480	-0.599299
O5	O	-0.510557	-1.532099	-0.510718
O6	O	-0.575667	-1.769102	-0.445617
O7	O	-0.273578	-1.597120	-0.575902
O8	O	-0.445494	-1.467044	-0.273765
O9	O	-0.445430	-1.769026	-0.575870
O10	O	-0.575703	-1.597295	-0.273740
O11	O	-0.273606	-1.466945	-0.445674
O12	O	-0.445470	-1.295135	-0.445604
O13	O	-0.747513	-1.467040	-0.575747
O14	O	-0.575661	-1.295133	-0.575780
O15	O	-0.747531	-1.597293	-0.445547
O16	O	-0.445406	-1.597117	-0.747709
O17	O	-0.575625	-1.466940	-0.747656
C18	C	-0.510568	-1.256670	-0.510688
C19	C	-0.510598	-1.138840	-0.510701
C20	C	-0.592079	-0.971310	-0.593041
C21	C	-0.592416	-1.093870	-0.592777
C22	C	-0.541124	-1.094352	-0.399046
C23	C	-0.541702	-0.971754	-0.399546
C24	C	-0.398342	-0.971596	-0.539112
C25	C	-0.398944	-1.094203	-0.541556
C26	C	-0.787062	-1.532177	-0.510636
C27	C	-0.904893	-1.532211	-0.510601
C28	C	-1.072445	-1.450016	-0.592123
C29	C	-0.949885	-1.450231	-0.592527
C30	C	-0.949395	-1.643913	-0.540923
C31	C	-1.071993	-1.643462	-0.541434
C32	C	-1.072099	-1.503759	-0.398300
C33	C	-0.949493	-1.501267	-0.398973
C34	C	-0.235127	-1.532083	-0.510723
C35	C	-0.117298	-1.532255	-0.510459
C36	C	-0.510532	-1.532046	-0.786147
C37	C	-0.510557	-1.532120	-0.903977
C38	C	-0.510554	-0.808604	-0.510743
C39	C	-0.510572	-0.926435	-0.510742
C40	C	-0.428470	-1.613884	-1.071530
C41	C	-0.428671	-1.614150	-0.948970
C42	C	-0.622297	-1.562421	-0.948360
C43	C	-0.621861	-1.563069	-1.070959
C44	C	-0.482005	-1.420025	-1.071301
C45	C	-0.479499	-1.420562	-0.948697
C46	C	-0.510605	-1.532181	-0.234212
C47	C	-0.510626	-1.532216	-0.116382
H48	H	-0.675572	-1.123217	-0.574003
H49	H	-0.674753	-0.940517	-0.574509
N50	N	-0.654952	-1.669826	-0.907603
H51	H	-0.597536	-1.699010	-0.860399
H52	H	-0.666444	-1.719265	-0.969256
N53	N	-0.453263	-1.723362	-1.112240
H54	H	-0.526684	-1.744506	-1.088908
H55	H	-0.400063	-1.775267	-1.083046
H56	H	-0.919797	-1.367400	-0.573552
H57	H	-0.401944	-1.392472	-1.102309
H58	H	-0.345373	-1.595163	-1.101083
N59	N	-0.650345	-0.933888	-0.367570
H60	H	-0.697415	-0.996837	-0.353296
H61	H	-0.681619	-0.890022	-0.426521
H62	H	-0.485058	-0.942067	-0.336029
H63	H	-0.375920	-1.123293	-0.623718
H64	H	-0.685182	-1.506192	-1.100624
N65	N	-1.111303	-1.727395	-0.466090
H66	H	-1.191173	-1.727758	-0.465837
H67	H	-1.084518	-1.711721	-0.392512
N68	N	-1.111486	-1.339969	-0.567212
H69	H	-1.191277	-1.338617	-0.570476
H70	H	-1.081716	-1.288486	-0.620555
H71	H	-0.447600	-1.697246	-0.919565
H72	H	-1.103259	-1.468644	-0.674752
H73	H	-0.920565	-1.469043	-0.675675
N74	N	-0.653957	-1.671699	-1.108737
H75	H	-0.653992	-1.673208	-1.188594
H76	H	-0.727173	-1.688708	-1.081688
N77	N	-0.317898	-0.933144	-0.459714
H78	H	-0.261255	-0.891178	-0.497312
H79	H	-0.284711	-0.995836	-0.423027
H80	H	-0.685149	-1.504749	-0.919213
H81	H	-0.334955	-1.124814	-0.485962
N82	N	-0.464950	-1.132927	-0.315607
H83	H	-0.409788	-1.179726	-0.349465
H84	H	-0.504905	-1.174499	-0.260307
H85	H	-0.397267	-1.397716	-0.919699
N86	N	-0.908931	-1.574813	-0.314112
H87	H	-0.970557	-1.611384	-0.278789
H88	H	-0.868189	-1.532788	-0.259790
H89	H	-0.622278	-1.125074	-0.374545
N90	N	-1.109893	-1.675453	-0.650035
H91	H	-1.046961	-1.689713	-0.697127
H92	H	-1.153739	-1.616492	-0.681311
H93	H	-0.920252	-1.706830	-0.483324
H94	H	-1.101106	-1.563658	-0.337457
N95	N	-0.908738	-1.676457	-0.648389
H96	H	-0.932223	-1.623171	-0.703049
H97	H	-0.937824	-1.748449	-0.667101
N98	N	-1.113045	-1.397744	-0.361682
H99	H	-1.161317	-1.367112	-0.417434
H100	H	-1.051548	-1.348235	-0.349582
H101	H	-0.920407	-1.419064	-0.376106
H102	H	-0.345816	-1.595192	-0.918966
H103	H	-0.370598	-0.940682	-0.619141
N104	N	-0.552927	-1.335601	-0.908124
H105	H	-0.607615	-1.368369	-0.859970
H106	H	-0.589401	-1.300335	-0.969792
N107	N	-0.561252	-1.339411	-1.109720
H108	H	-0.634344	-1.359944	-1.084861
H109	H	-0.559955	-1.336829	-1.189537
N110	N	-0.567071	-1.133725	-0.702449
H111	H	-0.555580	-1.071652	-0.751401
H112	H	-0.627869	-1.177995	-0.729320
H113	H	-0.573159	-0.941825	-0.676113
