data_functionalizedCrystal
_audit_creation_method	'MofGen! by Chris Wilmer'
_symmetry_space_group_name_H-M	'P1'
_symmetry_Int_Tables_number	1
_symmetry_cell_setting	triclinic
loop_
_symmetry_equiv_pos_as_xyz
  x,y,z
_cell_length_a	18.215405
_cell_length_b	12.759401
_cell_length_c	12.759393
_cell_angle_alpha	90.020566
_cell_angle_beta	89.963505
_cell_angle_gamma	89.976906
loop_
_atom_site_label
_atom_site_type_symbol
_atom_site_fract_x
_atom_site_fract_y
_atom_site_fract_z
Zn1	Zn	-0.292984	-1.606192	-0.593966
Zn2	Zn	0.207016	-1.106192	-0.093966
Zn3	Zn	-0.416068	-1.606052	-0.418268
Zn4	Zn	0.083932	-1.106052	0.081732
Zn5	Zn	-0.293016	-1.430491	-0.418302
Zn6	Zn	0.206984	-0.930491	0.081698
Zn7	Zn	-0.416009	-1.430451	-0.593906
Zn8	Zn	0.083991	-0.930451	-0.093906
O9	O	-0.354519	-1.518296	-0.506110
O10	O	0.145481	-1.018296	-0.006110
O11	O	-0.309322	-1.753194	-0.570670
O12	O	0.190678	-1.253194	-0.070670
O13	O	-0.399783	-1.582721	-0.271251
O14	O	0.100217	-1.082721	0.228749
O15	O	-0.190027	-1.453873	-0.441644
O16	O	0.309973	-0.953873	0.058356
O17	O	-0.399752	-1.753091	-0.441585
O18	O	0.100248	-1.253091	0.058415
O19	O	-0.190004	-1.582960	-0.570703
O20	O	0.309996	-1.082960	-0.070703
O21	O	-0.309377	-1.453737	-0.271276
O22	O	0.190623	-0.953737	0.228724
O23	O	-0.309320	-1.283464	-0.441586
O24	O	0.190680	-0.783464	0.058414
O25	O	-0.399652	-1.453806	-0.740935
O26	O	0.100348	-0.953806	-0.240935
O27	O	-0.399683	-1.283436	-0.570601
O28	O	0.100317	-0.783436	-0.070601
O29	O	-0.309266	-1.582922	-0.740979
O30	O	0.190734	-1.082922	-0.240979
O31	O	-0.519044	-1.582683	-0.441527
O32	O	-0.019044	-1.082683	0.058473
O33	O	-0.519001	-1.453670	-0.570568
O34	O	-0.019001	-0.953670	-0.070568
C35	C	-0.354499	-1.245329	-0.506091
C36	C	0.145501	-0.745329	-0.006091
C37	C	-0.354508	-1.128552	-0.506108
C38	C	0.145492	-0.628552	-0.006108
C39	C	-0.307505	-1.073745	-0.573425
C40	C	0.192495	-0.573745	-0.073425
C41	C	-0.307510	-0.964021	-0.573430
C42	C	0.192490	-0.464021	-0.073430
C43	C	-0.401527	-0.963922	-0.438798
C44	C	0.098473	-0.463922	0.061202
C45	C	-0.401518	-1.073644	-0.438789
C46	C	0.098482	-0.573644	0.061211
C47	C	-0.545726	-1.518186	-0.506060
C48	C	-0.045726	-1.018186	-0.006060
C49	C	-0.627524	-1.518234	-0.506073
C50	C	-0.127524	-1.018234	-0.006073
C51	C	-0.815716	-1.585569	-0.439005
C52	C	-0.315716	-1.085569	0.060995
C53	C	-0.892575	-1.585616	-0.439031
C54	C	-0.392575	-1.085616	0.060969
C55	C	-0.892570	-1.451158	-0.573291
C56	C	-0.392570	-0.951158	-0.073291
C57	C	-0.815713	-1.451117	-0.573270
C58	C	-0.315713	-0.951117	-0.073270
C59	C	-0.777288	-1.518321	-0.506121
C60	C	-0.277288	-1.018321	-0.006121
C61	C	-0.931004	-1.518409	-0.506168
C62	C	-0.431004	-1.018409	-0.006168
C63	C	-1.014338	-1.518460	-0.506196
C64	C	-0.514338	-1.018460	-0.006196
C65	C	-0.693949	-1.518272	-0.506094
C66	C	-0.193949	-1.018272	-0.006094
C67	C	-0.162566	-1.518436	-0.506184
C68	C	0.337434	-1.018436	-0.006184
C69	C	-0.080767	-1.518496	-0.506215
C70	C	0.419233	-1.018496	-0.006215
C71	C	-0.354449	-1.518375	-0.780144
C72	C	0.145551	-1.018375	-0.280144
C73	C	-0.354418	-1.518409	-0.896921
C74	C	0.145582	-1.018409	-0.396921
C75	C	-0.354533	-0.792330	-0.506126
C76	C	0.145467	-0.292330	-0.006126
C77	C	-0.354522	-0.909106	-0.506123
C78	C	0.145478	-0.409106	-0.006123
C79	C	-0.307347	-1.585644	-0.951807
C80	C	0.192653	-1.085644	-0.451807
C81	C	-0.307315	-1.585662	-1.061531
C82	C	0.192685	-1.085662	-0.561531
C83	C	-0.401433	-1.451206	-1.061473
C84	C	0.098567	-0.951206	-0.561473
C85	C	-0.401461	-1.451183	-0.951750
C86	C	0.098539	-0.951183	-0.451750
C87	C	-0.354537	-1.518279	-0.233143
C88	C	0.145463	-1.018279	0.266857
C89	C	-0.354359	-1.518449	-0.116367
C90	C	0.145641	-1.018449	0.383633
H91	H	-0.439794	-1.118269	-0.383965
H92	H	0.060206	-0.618269	0.116035
H93	H	-0.923865	-1.396442	-0.627959
H94	H	-0.423865	-0.896442	-0.127959
C95	C	-0.255792	-1.134141	-0.647465
C96	C	0.244208	-0.634141	-0.147465
H97	H	-0.227795	-1.085781	-0.687549
H98	H	0.272205	-0.585781	-0.187549
H99	H	-0.283976	-1.176954	-0.693165
H100	H	0.216024	-0.676954	-0.193165
H101	H	-0.223686	-1.176937	-0.607348
H102	H	0.276314	-0.676937	-0.107348
H103	H	-0.784432	-1.640292	-0.384331
H104	H	-0.284432	-1.140292	0.115669
C105	C	-0.453239	-0.903519	-0.364763
C106	C	0.046761	-0.403519	0.135237
H107	H	-0.446519	-0.830322	-0.374417
H108	H	0.053481	-0.330322	0.125583
H109	H	-0.442411	-0.921471	-0.294198
H110	H	0.057589	-0.421471	0.205802
H111	H	-0.502700	-0.921490	-0.380017
H112	H	-0.002700	-0.421490	0.119983
C113	C	-0.773439	-1.377140	-0.647099
C114	C	-0.273439	-0.877140	-0.147099
H115	H	-0.807330	-1.337111	-0.687083
H116	H	-0.307330	-0.837111	-0.187083
H117	H	-0.743408	-1.417289	-0.692903
H118	H	-0.243408	-0.917289	-0.192903
H119	H	-0.743505	-1.331368	-0.606851
H120	H	-0.243505	-0.831368	-0.106851
C121	C	-0.934843	-1.659583	-0.365199
C122	C	-0.434843	-1.159583	0.134801
H123	H	-0.900949	-1.699593	-0.325202
H124	H	-0.400949	-1.199593	0.174798
H125	H	-0.964777	-1.705357	-0.405434
H126	H	-0.464777	-1.205357	0.094566
H127	H	-0.964873	-1.619427	-0.319391
H128	H	-0.464873	-1.119427	0.180609
C129	C	-0.453247	-1.377227	-0.891371
C130	C	0.046753	-0.877227	-0.391371
H131	H	-0.481268	-1.337206	-0.939739
H132	H	0.018732	-0.837206	-0.439739
H133	H	-0.425104	-1.331464	-0.848569
H134	H	0.074896	-0.831464	-0.348569
H135	H	-0.485327	-1.417397	-0.848566
H136	H	0.014673	-0.917397	-0.348566
H137	H	-0.269040	-1.640381	-0.907168
H138	H	0.230960	-1.140381	-0.407168
H139	H	-0.268983	-1.640410	-1.106215
H140	H	0.231017	-1.140410	-0.606215
C141	C	-0.453181	-1.377273	-1.121789
C142	C	0.046819	-0.877273	-0.621789
H143	H	-0.446430	-1.386923	-1.194997
H144	H	0.053570	-0.886923	-0.694997
H145	H	-0.442412	-1.306686	-1.103803
H146	H	0.057588	-0.806686	-0.603803
H147	H	-0.502636	-1.392618	-1.103787
H148	H	-0.002636	-0.892618	-0.603787
H149	H	-0.269234	-0.919401	-0.628245
H150	H	0.230766	-0.419401	-0.128245
