data_functionalizedCrystal
_audit_creation_method	'MofGen! by Chris Wilmer'
_symmetry_space_group_name_H-M	'P1'
_symmetry_Int_Tables_number	1
_symmetry_cell_setting	triclinic
loop_
_symmetry_equiv_pos_as_xyz
  x,y,z
_cell_length_a	18.215407
_cell_length_b	12.645330
_cell_length_c	18.215399
_cell_angle_alpha	89.976970
_cell_angle_beta	89.980167
_cell_angle_gamma	90.018140
loop_
_atom_site_label
_atom_site_type_symbol
_atom_site_fract_x
_atom_site_fract_y
_atom_site_fract_z
Zn1	Zn	1.125109	-0.422038	-0.416141
Zn2	Zn	1.125033	-0.599320	-0.293085
Zn3	Zn	1.002041	-0.422072	-0.293088
Zn4	Zn	1.002023	-0.599261	-0.416110
O5	O	1.063551	-0.510673	-0.354606
O6	O	1.228083	-0.445565	-0.399829
O7	O	1.108693	-0.575847	-0.190101
O8	O	1.018406	-0.273720	-0.309426
O9	O	1.228027	-0.575813	-0.309421
O10	O	1.108823	-0.273695	-0.399832
O11	O	1.018332	-0.445624	-0.190104
O12	O	0.899055	-0.445566	-0.309396
O13	O	1.018374	-0.575713	-0.519099
O14	O	0.899041	-0.575746	-0.399780
O15	O	1.108805	-0.445507	-0.519121
O16	O	1.108675	-0.747659	-0.309391
O17	O	1.018300	-0.747616	-0.399777
C18	C	0.872345	-0.510654	-0.354585
C19	C	0.790546	-0.510672	-0.354594
C20	C	0.602364	-0.578563	-0.401597
C21	C	0.525506	-0.578567	-0.401606
C22	C	0.525490	-0.442801	-0.307631
C23	C	0.602348	-0.442793	-0.307626
C24	C	0.640783	-0.510680	-0.354608
C25	C	0.487067	-0.510692	-0.354622
C26	C	0.403733	-0.510695	-0.354632
C27	C	0.724122	-0.510676	-0.354600
C28	C	1.063498	-0.786102	-0.354596
C29	C	1.063542	-0.903932	-0.354616
C30	C	1.006922	-1.071513	-0.411653
C31	C	1.006632	-0.948954	-0.411470
C32	C	1.042549	-0.948523	-0.277058
C33	C	1.042203	-1.071122	-0.277404
C34	C	1.141502	-1.071022	-0.374509
C35	C	1.141024	-0.948415	-0.376205
C36	C	1.255504	-0.510692	-0.354628
C37	C	1.337303	-0.510700	-0.354637
C38	C	1.063596	-0.510600	-0.546559
C39	C	1.063615	-0.510568	-0.628358
C40	C	1.063625	-0.234167	-0.354633
C41	C	1.063657	-0.116337	-0.354644
C42	C	1.110720	-0.442707	-0.816565
C43	C	1.110728	-0.442676	-0.893424
C44	C	1.016563	-0.578266	-0.893389
C45	C	1.016551	-0.578290	-0.816532
C46	C	1.063634	-0.510513	-0.778122
C47	C	1.063654	-0.510457	-0.931838
C48	C	1.063663	-0.510424	-1.015172
C49	C	1.063624	-0.510544	-0.694783
C50	C	1.063549	-0.510669	-0.163400
C51	C	1.063672	-0.510401	-0.081602
H52	H	0.633629	-0.387508	-0.269362
H53	H	1.149055	-0.387515	-0.785294
O54	O	1.156539	-0.376779	-0.930654
C55	C	1.198075	-0.316946	-0.880268
H56	H	1.200604	-0.360389	-0.825478
H57	H	1.171146	-0.236434	-0.872096
C58	C	1.273303	-0.248305	-0.977575
C59	C	1.276414	-0.301667	-0.910283
H60	H	1.321625	-0.238875	-0.996090
H61	H	1.245317	-0.288612	-1.011522
H62	H	1.250858	-0.181217	-0.970756
H63	H	1.298849	-0.368758	-0.917105
H64	H	1.304405	-0.261371	-0.876338
O65	O	1.191845	-1.105740	-0.324936
C66	C	1.156936	-1.170622	-0.272515
H67	H	1.104175	-1.204151	-0.296819
H68	H	1.143310	-1.121866	-0.221676
C69	C	1.273281	-1.220884	-0.221247
C70	C	1.208483	-1.262072	-0.251100
H71	H	1.305078	-1.277293	-0.208034
H72	H	1.296801	-1.177169	-0.256562
H73	H	1.261916	-1.180254	-0.178885
H74	H	1.219848	-1.302690	-0.293466
H75	H	1.184966	-1.305797	-0.215791
H76	H	1.019766	-0.918802	-0.468979
O77	O	1.160046	-0.913640	-0.444261
C78	C	1.225547	-0.854559	-0.439773
H79	H	1.257089	-0.878591	-0.388366
H80	H	1.211835	-0.766694	-0.436970
C81	C	1.234268	-0.846736	-0.571239
C82	C	1.273012	-0.876258	-0.508103
H83	H	1.263547	-0.860116	-0.613390
H84	H	1.190138	-0.886536	-0.574263
H85	H	1.222845	-0.773517	-0.568893
H86	H	1.284427	-0.949479	-0.510446
H87	H	1.317146	-0.836471	-0.505081
H88	H	0.978203	-0.633505	-0.785230
O89	O	0.970939	-0.644220	-0.930736
C90	C	1.012829	-0.712659	-0.975205
H91	H	1.070785	-0.719218	-0.952053
H92	H	1.015382	-0.679864	-1.033459
C93	C	0.905666	-0.814806	-1.004803
C94	C	0.976847	-0.822868	-0.976363
H95	H	0.883470	-0.882787	-1.005521
H96	H	0.877443	-0.768695	-0.974846
H97	H	0.907804	-0.787472	-1.053345
H98	H	0.974708	-0.850189	-0.927819
H99	H	1.005069	-0.868987	-1.006313
O100	O	1.164439	-1.107932	-0.440771
C101	C	1.230537	-1.164462	-0.431796
H102	H	1.235025	-1.193326	-0.372671
H103	H	1.278976	-1.110549	-0.444909
C104	C	1.225729	-1.224596	-0.556765
C105	C	1.231239	-1.260055	-0.484148
H106	H	1.226165	-1.283560	-0.589060
H107	H	1.181199	-1.186507	-0.562813
H108	H	1.266097	-1.179668	-0.567682
H109	H	1.190867	-1.304971	-0.473229
H110	H	1.275762	-1.298153	-0.478100
H111	H	0.633656	-0.633839	-0.439855
H112	H	1.019935	-1.100928	-0.469351
H113	H	1.081734	-1.100776	-0.233479
H114	H	0.494187	-0.387531	-0.269379
O115	O	0.938543	-1.108425	-0.396034
C116	C	0.941757	-1.174646	-0.333827
H117	H	0.992424	-1.154115	-0.299984
H118	H	0.945047	-1.260703	-0.352163
C119	C	0.810154	-1.183681	-0.328389
C120	C	0.872380	-1.158459	-0.286819
H121	H	0.767357	-1.173702	-0.299393
H122	H	0.807988	-1.139071	-0.370300
H123	H	0.812905	-1.255395	-0.343666
H124	H	0.869633	-1.086744	-0.271550
H125	H	0.874544	-1.203058	-0.244903
H126	H	0.948921	-0.919719	-0.398309
O127	O	0.488154	-0.644359	-0.447328
C128	C	0.443715	-0.584098	-0.494925
H129	H	0.466894	-0.500611	-0.499566
H130	H	0.385457	-0.580409	-0.472181
C131	C	0.414092	-0.738571	-0.565668
C132	C	0.442564	-0.636033	-0.571374
H133	H	0.413379	-0.770608	-0.612825
H134	H	0.444029	-0.779172	-0.533600
H135	H	0.365546	-0.735483	-0.546713
H136	H	0.491112	-0.639124	-0.590320
H137	H	0.412635	-0.595434	-0.603446
O138	O	0.974366	-1.105413	-0.257215
C139	C	0.980103	-1.167559	-0.193192
H140	H	1.032609	-1.145992	-0.162619
H141	H	0.981648	-1.254794	-0.208890
C142	C	0.848870	-1.173225	-0.180899
C143	C	0.913355	-1.146730	-0.143346
H144	H	0.807695	-1.160381	-0.150153
H145	H	0.845003	-1.131359	-0.224034
H146	H	0.850167	-1.245920	-0.193979
H147	H	0.912061	-1.074034	-0.130275
H148	H	0.917220	-1.188583	-0.100207
H149	H	1.082562	-0.919362	-0.233421
O150	O	0.975308	-0.912140	-0.256706
C151	C	0.922435	-0.945050	-0.308395
H152	H	0.943344	-1.017999	-0.338618
H153	H	0.912183	-0.878679	-0.349504
C154	C	0.824603	-0.882517	-0.231377
C155	C	0.850282	-0.972120	-0.268494
H156	H	0.780094	-0.899211	-0.206766
H157	H	0.860224	-0.860341	-0.196554
H158	H	0.816066	-0.827216	-0.265641
H159	H	0.858827	-1.027414	-0.234229
H160	H	0.814660	-0.994306	-0.303310
H161	H	1.185520	-0.917762	-0.337706
