data_functionalizedCrystal
_audit_creation_method	'MofGen! by Chris Wilmer'
_symmetry_space_group_name_H-M	'P1'
_symmetry_Int_Tables_number	1
_symmetry_cell_setting	triclinic
loop_
_symmetry_equiv_pos_as_xyz
  x,y,z
_cell_length_a	22.610064
_cell_length_b	19.288864
_cell_length_c	19.288865
_cell_angle_alpha	96.863755
_cell_angle_beta	89.994654
_cell_angle_gamma	89.984419
loop_
_atom_site_label
_atom_site_type_symbol
_atom_site_fract_x
_atom_site_fract_y
_atom_site_fract_z
O1	O	0.049381	-0.921347	0.086632
O2	O	0.049341	-0.719087	0.098321
O3	O	0.049351	-0.826061	-0.008654
O4	O	0.049372	-0.814373	0.193607
O5	O	-0.049019	-0.826054	-0.008626
O6	O	-0.049028	-0.719079	0.098348
O7	O	-0.048988	-0.921340	0.086660
Zn8	Zn	-0.064626	-0.820209	0.092508
Zn9	Zn	0.064979	-0.820218	0.092472
O10	O	-0.048997	-0.814365	0.193634
C11	C	0.000152	-0.693207	0.097959
C12	C	0.000136	-0.616103	0.096830
N13	N	-0.153079	-0.820207	0.092532
C14	C	0.000164	-0.825682	-0.034516
C15	C	0.000159	-0.824553	-0.111620
C16	C	-0.437931	-0.772823	0.139843
C17	C	-0.376011	-0.772821	0.139850
O18	O	-0.343996	-0.732513	0.180106
N19	N	-0.345031	-0.820202	0.092505
C20	C	-0.375974	-0.867583	0.045145
O21	O	-0.343938	-0.907884	0.004874
C22	C	-0.437893	-0.867581	0.045135
C23	C	-0.468870	-0.820202	0.092488
C24	C	-0.468908	-0.725447	0.187192
C25	C	-0.530823	-0.725450	0.187186
C26	C	-0.561762	-0.772829	0.139831
C27	C	-0.530785	-0.820205	0.092482
C28	C	-0.468835	-0.914958	-0.002228
C29	C	-0.530758	-0.914952	-0.002233
C30	C	-0.561735	-0.867573	0.045120
C31	C	-0.623640	-0.867587	0.045121
N32	N	-0.654620	-0.820206	0.092467
C33	C	-0.623681	-0.772827	0.139822
C34	C	-0.245941	-0.867583	0.045167
C35	C	-0.184023	-0.867589	0.045180
C36	C	-0.184064	-0.772826	0.139885
C37	C	-0.245983	-0.772824	0.139875
C38	C	-0.276920	-0.820202	0.092513
C39	C	-0.753708	-0.772837	0.139806
C40	C	-0.815629	-0.772846	0.139798
C41	C	-0.815583	-0.867607	0.045091
C42	C	-0.753667	-0.867600	0.045101
C43	C	-0.722731	-0.820210	0.092461
O44	O	-0.655694	-0.907873	0.004884
O45	O	-0.655725	-0.732527	0.180080
N46	N	0.153432	-0.820225	0.092443
C47	C	0.000203	-0.947220	0.087022
C48	C	0.000222	-1.024324	0.088151
C49	C	0.000152	-0.571407	0.159598
C50	C	0.000158	-0.498960	0.158537
C51	C	0.000161	-0.471212	0.094705
C52	C	0.000142	-0.515918	0.031929
C53	C	0.000129	-0.588364	0.032991
C54	C	0.034638	-0.362953	0.044516
C55	C	0.034654	-0.290508	0.043456
C56	C	0.000196	-0.247767	0.091425
C57	C	-0.034270	-0.277477	0.140466
C58	C	-0.034283	-0.349922	0.141528
C59	C	0.000174	-0.392658	0.093546
C60	C	0.000218	-0.124514	0.153047
C61	C	0.000221	-0.052066	0.151984
C62	C	0.000210	-0.069026	0.025374
C63	C	0.000201	-0.141473	0.026439
C64	C	0.000208	-0.169212	0.090277
C65	C	0.000168	-0.887321	-0.156316
C66	C	0.000177	-0.886260	-0.228763
C67	C	0.000165	-0.822428	-0.256511
C68	C	0.000159	-0.759652	-0.211805
C69	C	0.000156	-0.760714	-0.139359
C70	C	-0.034301	-0.772246	-0.364789
C71	C	-0.034302	-0.771186	-0.437233
C72	C	0.000178	-0.819148	-0.479956
C73	C	0.034650	-0.868182	-0.450228
C74	C	0.034647	-0.869244	-0.377783
C75	C	0.000169	-0.821269	-0.335065
C76	C	0.000198	-0.880770	-0.603209
C77	C	0.000211	-0.879707	-0.675657
C78	C	0.000187	-0.753097	-0.658697
C79	C	0.000180	-0.754162	-0.586250
C80	C	0.000183	-0.818000	-0.558511
C81	C	0.000190	-0.814745	0.219497
C82	C	0.000200	-0.815874	0.296601
H83	H	-0.840849	-0.734264	0.178361
N84	N	0.000169	-0.684252	-0.688623
H85	H	-0.036303	-0.656761	-0.672308
H86	H	0.036652	-0.656817	-0.672305
H87	H	0.000151	-0.707679	-0.234401
H88	H	0.000192	-0.177866	-0.024674
H89	H	-0.555945	-0.953533	-0.040804
H90	H	-0.443622	-0.953538	-0.040787
N91	N	-0.848961	-0.918697	-0.005990
H92	H	-0.819945	-0.948713	-0.035990
H93	H	-0.874652	-0.949319	0.020517
H94	H	0.000230	-0.015674	0.203099
H95	H	0.062716	-0.909168	-0.353581
H96	H	-0.158806	-0.906176	0.006627
N97	N	0.071828	-0.258466	-0.009433
H98	H	0.093649	-0.296534	-0.039666
H99	H	0.045393	-0.232380	-0.039645
H100	H	0.000249	-0.046435	-0.026600
N101	N	0.000163	-0.601326	0.228449
H102	H	0.000176	-0.562013	0.268051
H103	H	-0.036306	-0.630994	0.231665
N104	N	0.000177	-0.450739	0.226238
H105	H	0.000179	-0.479305	0.266840
H106	H	0.036651	-0.420337	0.228536
N107	N	0.000184	-0.953958	-0.276989
H108	H	0.036651	-0.981829	-0.268096
H109	H	-0.036304	-0.981756	-0.268065
N110	N	-0.279305	-0.918701	-0.005907
H111	H	-0.304996	-0.892270	-0.036607
H112	H	-0.250240	-0.948702	-0.035843
H113	H	0.062702	-0.397748	0.005452
H114	H	0.062727	-0.907237	-0.485012
N115	N	0.000216	-0.947411	-0.723867
H116	H	0.000220	-0.937053	-0.773971
H117	H	0.036684	-0.975249	-0.714907
H118	H	-0.062349	-0.374109	0.181457
H119	H	-0.443723	-0.686863	0.225755
H120	H	-0.728527	-0.734247	0.178370
N121	N	-0.564227	-0.674336	0.238251
H122	H	-0.608149	-0.681517	0.231067
H123	H	-0.553409	-0.682198	0.287508
H124	H	0.000203	-0.932751	-0.580622
N125	N	-0.071436	-0.231388	0.192212
H126	H	-0.066202	-0.180986	0.184099
H127	H	-0.114426	-0.244898	0.185918
N128	N	0.000223	-0.154440	0.221897
H129	H	0.000229	-0.115129	0.261501
H130	H	-0.036247	-0.184111	0.225104
N131	N	0.000137	-0.485996	-0.036920
H132	H	0.000148	-0.433319	-0.028069
H133	H	0.036597	-0.502383	-0.064392
N134	N	-0.279393	-0.721718	0.190941
H135	H	-0.268625	-0.729559	0.240222
H136	H	-0.268608	-0.672475	0.183004
H137	H	-0.158862	-0.734246	0.178443
H138	H	0.000169	-0.703049	-0.549857
N139	N	-0.720252	-0.918708	-0.005962
H140	H	-0.749250	-0.948725	-0.035960
H141	H	-0.694566	-0.892215	-0.036603
N142	N	0.000109	-0.636577	-0.034711
H143	H	0.000109	-0.608010	-0.075312
H144	H	0.036571	-0.667026	-0.037040
N145	N	0.000146	-0.693012	-0.091146
H146	H	0.000142	-0.652411	-0.119713
H147	H	-0.036324	-0.690692	-0.060718
N148	N	0.000172	-0.956172	-0.126397
H149	H	0.000180	-0.995774	-0.165710
H150	H	0.036638	-0.959376	-0.096711
N151	N	-0.071488	-0.718310	-0.469296
H152	H	-0.093326	-0.688083	-0.431240
H153	H	-0.045060	-0.688090	-0.495371
N154	N	-0.071488	-0.720508	-0.318711
H155	H	-0.093328	-0.689289	-0.348535
H156	H	-0.100922	-0.746505	-0.292074
