data_functionalizedCrystal
_audit_creation_method	'MofGen! by Chris Wilmer'
_symmetry_space_group_name_H-M	'P1'
_symmetry_Int_Tables_number	1
_symmetry_cell_setting	triclinic
loop_
_symmetry_equiv_pos_as_xyz
  x,y,z
_cell_length_a	13.033409
_cell_length_b	12.645330
_cell_length_c	13.032268
_cell_angle_alpha	82.850170
_cell_angle_beta	74.837427
_cell_angle_gamma	82.843316
loop_
_atom_site_label
_atom_site_type_symbol
_atom_site_fract_x
_atom_site_fract_y
_atom_site_fract_z
Zn1	Zn	1.547502	-0.671910	0.393924
Zn2	Zn	1.880835	-0.338577	0.727257
Zn3	Zn	2.214168	-0.005244	1.060590
Zn4	Zn	1.569969	-0.829219	0.216328
Zn5	Zn	1.903302	-0.495885	0.549661
Zn6	Zn	2.236635	-0.162552	0.882994
Zn7	Zn	1.392451	-0.632036	0.238931
Zn8	Zn	1.725784	-0.298702	0.572265
Zn9	Zn	2.059117	0.034631	0.905598
Zn10	Zn	1.369886	-0.829179	0.416479
Zn11	Zn	1.703219	-0.495846	0.749812
Zn12	Zn	2.036553	-0.162513	1.083145
O13	O	1.469952	-0.740586	0.316415
O14	O	1.803285	-0.407253	0.649749
O15	O	2.136619	-0.073919	0.983082
O16	O	1.699107	-0.709482	0.351466
O17	O	2.032440	-0.376149	0.684800
O18	O	2.365773	-0.042815	1.018133
O19	O	1.565266	-0.786391	0.070697
O20	O	1.898600	-0.453058	0.404031
O21	O	2.231933	-0.119724	0.737364
O22	O	1.413060	-0.488986	0.259512
O23	O	1.746393	-0.155652	0.592845
O24	O	2.079726	0.177681	0.926178
O25	O	1.715613	-0.825056	0.220987
O26	O	2.048946	-0.491722	0.554320
O27	O	2.382280	-0.158389	0.887654
O28	O	1.526975	-0.518282	0.373384
O29	O	1.860308	-0.184948	0.706717
O30	O	2.193641	0.148385	1.040051
O31	O	1.434845	-0.641521	0.087304
O32	O	1.768178	-0.308188	0.420637
O33	O	2.101511	0.025145	0.753971
O34	O	1.240833	-0.641483	0.281382
O35	O	1.574166	-0.308150	0.614716
O36	O	1.907500	0.025184	0.948049
O37	O	1.374601	-0.824988	0.562116
O38	O	1.707935	-0.491655	0.895449
O39	O	2.041268	-0.158322	1.228782
O40	O	1.224255	-0.786323	0.411826
O41	O	1.557588	-0.452990	0.745159
O42	O	1.890921	-0.119657	1.078492
O43	O	1.505095	-0.709443	0.545545
O44	O	1.838428	-0.376110	0.878878
O45	O	2.171761	-0.042777	1.212211
O46	O	1.543386	-0.977553	0.242858
O47	O	1.876720	-0.644220	0.576191
O48	O	2.210053	-0.310886	0.909524
O49	O	1.396387	-0.977524	0.389908
O50	O	1.729720	-0.644191	0.723241
O51	O	2.063053	-0.310857	1.056575
C52	C	1.194007	-0.709573	0.351505
C53	C	1.527340	-0.376240	0.684838
C54	C	1.860674	-0.042906	1.018172
C55	C	1.075953	-0.696334	0.366542
C56	C	1.409287	-0.363000	0.699875
C57	C	1.742620	-0.029667	1.033208
C58	C	0.909483	-0.733822	0.324129
C59	C	1.242817	-0.400488	0.657462
C60	C	1.576150	-0.067155	0.990796
C61	C	1.031498	-0.747508	0.308583
C62	C	1.364832	-0.414175	0.641916
C63	C	1.698165	-0.080842	0.975249
C64	C	1.469902	-1.016007	0.316397
C65	C	1.803235	-0.682674	0.649730
C66	C	2.136569	-0.349340	0.983064
C67	C	1.469973	-1.133848	0.316412
C68	C	1.803306	-0.800515	0.649746
C69	C	2.136640	-0.467181	0.983079
C70	C	1.562340	-1.301353	0.223753
C71	C	1.895673	-0.968019	0.557087
C72	C	2.229007	-0.634686	0.890420
C73	C	1.562581	-1.178845	0.223921
C74	C	1.895915	-0.845512	0.557254
C75	C	2.229248	-0.512178	0.890587
C76	C	1.486103	-1.194227	0.424510
C77	C	1.819436	-0.860893	0.757843
C78	C	2.152769	-0.527560	1.091176
C79	C	1.486808	-1.316849	0.423991
C80	C	1.820142	-0.983515	0.757324
C81	C	2.153475	-0.650182	1.090657
C82	C	1.361304	-1.285345	0.302082
C83	C	1.694637	-0.952012	0.635415
C84	C	2.027971	-0.618679	0.968748
C85	C	1.362161	-1.162519	0.299502
C86	C	1.695495	-0.829186	0.632836
C87	C	2.028828	-0.495852	0.966169
C88	C	1.746974	-0.771721	0.281189
C89	C	2.080307	-0.438388	0.614523
C90	C	2.413641	-0.105054	0.947856
C91	C	1.865024	-0.784989	0.266178
C92	C	2.198358	-0.451656	0.599511
C93	C	2.531691	-0.118322	0.932845
C94	C	1.434825	-0.771659	0.593445
C95	C	1.768158	-0.438326	0.926779
C96	C	2.101492	-0.104993	1.260112
C97	C	1.419856	-0.784901	0.711499
C98	C	1.753189	-0.451568	1.044832
C99	C	2.086523	-0.118234	1.378166
C100	C	1.470028	-0.464095	0.316453
C101	C	1.803361	-0.130762	0.649787
C102	C	2.136695	0.202571	0.983120
C103	C	1.470061	-0.346272	0.316470
C104	C	1.803394	-0.012938	0.649803
C105	C	2.136727	0.320395	0.983136
C106	C	1.505003	-0.709564	0.040455
C107	C	1.838337	-0.376231	0.373789
C108	C	2.171670	-0.042897	0.707122
C109	C	1.520178	-0.696047	-0.077624
C110	C	1.853511	-0.362714	0.255709
C111	C	2.186845	-0.029380	0.589043
C112	C	1.477748	-0.733635	0.755932
C113	C	1.811081	-0.400302	1.089266
C114	C	2.144414	-0.066969	1.422599
C115	C	1.462278	-0.747320	0.877947
C116	C	1.795611	-0.413986	1.211280
C117	C	2.128945	-0.080653	1.544613
H118	H	0.917292	-0.838934	0.205061
H119	H	1.250626	-0.505601	0.538394
H120	H	1.583959	-0.172268	0.871727
H121	H	1.538760	-0.679610	0.703643
H122	H	1.872093	-0.346276	1.036976
H123	H	2.205427	-0.012943	1.370309
Cl124	Cl	1.368060	-0.830725	0.958667
Cl125	Cl	1.701394	-0.497392	1.292001
Cl126	Cl	2.034727	-0.164059	1.625334
Cl127	Cl	1.614405	-0.612651	0.841657
Cl128	Cl	1.947739	-0.279317	1.174990
Cl129	Cl	2.281072	0.054016	1.508324
H130	H	1.358833	-0.838915	0.763790
H131	H	1.692166	-0.505581	1.097123
H132	H	2.025500	-0.172248	1.430457
H133	H	1.083763	-0.801457	0.247461
H134	H	1.417096	-0.468124	0.580794
H135	H	1.750430	-0.134791	0.914128
Cl136	Cl	0.995269	-0.613052	0.460923
Cl137	Cl	1.328602	-0.279719	0.794256
Cl138	Cl	1.661936	0.053615	1.127590
Cl139	Cl	1.549474	-1.114809	0.099505
Cl140	Cl	1.882807	-0.781475	0.432838
Cl141	Cl	2.216140	-0.448142	0.766172
Cl142	Cl	0.828792	-0.650551	0.418511
Cl143	Cl	1.162125	-0.317217	0.751844
Cl144	Cl	1.495459	0.016116	1.085178
Cl145	Cl	1.334421	-1.314509	0.183653
Cl146	Cl	1.667754	-0.981176	0.516986
Cl147	Cl	2.001088	-0.647842	0.850319
Cl148	Cl	1.549728	-1.329282	0.098886
Cl149	Cl	1.883061	-0.995949	0.432219
Cl150	Cl	2.216395	-0.662616	0.765553
H151	H	1.349742	-1.121689	0.220021
H152	H	1.683076	-0.788355	0.553355
H153	H	2.016409	-0.455022	0.886688
H154	H	1.642761	-1.343492	0.231981
H155	H	1.976095	-1.010159	0.565314
H156	H	2.309428	-0.676825	0.898648
H157	H	1.643422	-1.160920	0.232304
H158	H	1.976756	-0.827587	0.565637
H159	H	2.310089	-0.494254	0.898971
H160	H	1.421763	-1.347248	0.494678
H161	H	1.755096	-1.013915	0.828011
H162	H	2.088430	-0.680582	1.161344
Cl163	Cl	1.608890	-1.379339	0.445368
Cl164	Cl	1.942224	-1.046005	0.778701
Cl165	Cl	2.275557	-0.712672	1.112034
H166	H	1.420321	-1.165671	0.494828
H167	H	1.753655	-0.832338	0.828162
H168	H	2.086988	-0.499004	1.161495
Cl169	Cl	1.606673	-1.165072	0.446702
Cl170	Cl	1.940006	-0.831739	0.780035
Cl171	Cl	2.273340	-0.498406	1.113368
H172	H	1.290851	-1.130934	0.363229
H173	H	1.624184	-0.797601	0.696563
H174	H	1.957517	-0.464268	1.029896
H175	H	1.292723	-1.314246	0.369785
H176	H	1.626057	-0.980913	0.703118
H177	H	1.959390	-0.647579	1.036452
