data_functionalizedCrystal
_audit_creation_method	'MofGen! by Chris Wilmer'
_symmetry_space_group_name_H-M	'P1'
_symmetry_Int_Tables_number	1
_symmetry_cell_setting	triclinic
loop_
_symmetry_equiv_pos_as_xyz
  x,y,z
_cell_length_a	16.109302
_cell_length_b	10.654551
_cell_length_c	15.186229
_cell_angle_alpha	89.999082
_cell_angle_beta	89.994701
_cell_angle_gamma	83.973571
loop_
_atom_site_label
_atom_site_type_symbol
_atom_site_fract_x
_atom_site_fract_y
_atom_site_fract_z
O1	O	1.104090	0.161423	-0.073263
O2	O	0.862148	0.181511	-0.073255
O3	O	0.988681	-0.011348	-0.073259
O4	O	0.977557	0.354281	-0.073258
O5	O	0.988673	-0.011350	0.073198
O6	O	0.862139	0.181508	0.073202
O7	O	1.104082	0.161420	0.073195
Zn8	Zn	0.983109	0.171464	0.096452
Zn9	Zn	0.983121	0.171467	-0.096512
O10	O	0.977548	0.354279	0.073199
C11	C	0.831164	0.180695	-0.000025
C12	C	0.738854	0.178255	-0.000023
C13	C	0.526475	0.172612	0.079802
C14	C	0.439741	0.170306	0.079799
C15	C	0.439761	0.170315	-0.079877
C16	C	0.526494	0.172612	-0.079873
C17	C	0.569848	0.173767	-0.000031
C18	C	0.396382	0.169164	-0.000038
C19	C	0.302341	0.166664	-0.000042
C20	C	0.663895	0.176265	-0.000026
C21	C	0.987860	-0.058136	-0.000033
C22	C	0.985416	-0.197546	-0.000039
C23	C	0.984274	-0.263041	-0.079871
C24	C	0.981970	-0.394030	-0.079867
C25	C	0.981954	-0.394018	0.079809
C26	C	0.984252	-0.263030	0.079804
C27	C	0.985438	-0.197556	-0.159713
C28	C	0.984297	-0.263052	-0.239552
C29	C	0.981993	-0.394041	-0.239548
C30	C	0.980830	-0.459535	-0.159705
C31	C	1.135066	0.162236	-0.000037
C32	C	1.227376	0.164676	-0.000045
C33	C	0.978370	0.401067	-0.000030
C34	C	0.980814	0.540477	-0.000029
N35	N	0.983108	0.171460	0.228144
N36	N	0.983129	0.171461	-0.228205
C37	C	1.039156	0.086092	0.453865
C38	C	1.039159	0.086089	0.546055
C39	C	0.927074	0.256834	0.546068
C40	C	0.927068	0.256830	0.453880
C41	C	0.983114	0.171460	0.407781
C42	C	0.983122	0.171461	0.592159
C43	C	0.983125	0.171458	0.692115
C44	C	0.983111	0.171461	0.307819
H45	H	0.561810	0.173550	-0.144886
H46	H	0.561772	0.173552	0.144815
H47	H	0.987316	-0.090899	-0.159726
H48	H	0.881428	0.326347	0.416356
H49	H	0.985236	-0.209716	-0.304557
H50	H	0.404431	0.169366	0.144807
H51	H	0.404451	0.169377	-0.144881
H52	H	0.981055	-0.447362	-0.304557
H53	H	0.978942	-0.566192	-0.159708
H54	H	0.981008	-0.447354	0.144813
H55	H	0.985164	-0.209700	0.144810
H56	H	1.084791	0.016577	0.416334
H57	H	1.084792	0.016573	0.583574
H58	H	0.881444	0.326341	0.583611
