data_functionalizedCrystal
_audit_creation_method	'MofGen! by Chris Wilmer'
_symmetry_space_group_name_H-M	'P1'
_symmetry_Int_Tables_number	1
_symmetry_cell_setting	triclinic
loop_
_symmetry_equiv_pos_as_xyz
  x,y,z
_cell_length_a	14.044191
_cell_length_b	12.503572
_cell_length_c	14.519731
_cell_angle_alpha	86.470900
_cell_angle_beta	88.440315
_cell_angle_gamma	93.837835
loop_
_atom_site_label
_atom_site_type_symbol
_atom_site_fract_x
_atom_site_fract_y
_atom_site_fract_z
O1	O	1.263557	0.089273	0.217515
O2	O	1.596891	0.422606	0.550848
O3	O	1.930224	0.755939	0.884182
O4	O	0.987574	0.089286	0.209483
O5	O	1.320908	0.422619	0.542817
O6	O	1.654241	0.755953	0.876150
O7	O	1.132872	0.089269	0.079852
O8	O	1.466205	0.422603	0.413185
O9	O	1.799539	0.755936	0.746519
O10	O	1.118260	0.089289	0.347146
O11	O	1.451593	0.422623	0.680479
O12	O	1.784926	0.755956	1.013813
O13	O	1.121945	-0.089371	0.089619
O14	O	1.455278	0.243962	0.422952
O15	O	1.788611	0.577295	0.756285
O16	O	0.976647	-0.089355	0.219250
O17	O	1.309980	0.243979	0.552583
O18	O	1.643314	0.577312	0.885917
O19	O	1.252630	-0.089368	0.227282
O20	O	1.585963	0.243965	0.560615
O21	O	1.919297	0.577299	0.893948
Cu22	Cu	1.113641	-0.105673	0.224157
Cu23	Cu	1.446974	0.227661	0.557491
Cu24	Cu	1.780307	0.560994	0.890824
Cu25	Cu	1.126564	0.105591	0.212607
Cu26	Cu	1.459897	0.438924	0.545941
Cu27	Cu	1.793230	0.772257	0.879274
O28	O	1.107332	-0.089351	0.356913
O29	O	1.440666	0.243982	0.690246
O30	O	1.773999	0.577315	1.023579
C31	C	0.946790	-0.000033	0.210853
C32	C	1.280123	0.333301	0.544186
C33	C	1.613457	0.666634	0.877520
C34	C	0.841546	-0.000028	0.200373
C35	C	1.174879	0.333306	0.533707
C36	C	1.508212	0.666639	0.867040
N37	N	1.104559	-0.254264	0.232281
N38	N	1.437892	0.079069	0.565615
N39	N	1.771225	0.412403	0.898948
C40	C	0.591357	-0.000034	0.255539
C41	C	0.924690	0.333299	0.588872
C42	C	1.258023	0.666632	0.922205
C43	C	0.648854	-0.000038	0.181230
C44	C	0.982187	0.333295	0.514563
C45	C	1.315520	0.666629	0.847896
C46	C	0.756077	-0.000032	0.191884
C47	C	1.089411	0.333301	0.525217
C48	C	1.422744	0.666634	0.858550
C49	C	0.484123	-0.000040	0.244886
C50	C	0.817456	0.333293	0.578219
C51	C	1.150790	0.666627	0.911553
C52	C	1.091198	-0.473378	0.244239
C53	C	1.424532	-0.140044	0.577573
C54	C	1.757865	0.193289	0.910906
C55	C	1.149010	-0.526711	0.192521
C56	C	1.482344	-0.193378	0.525855
C57	C	1.815677	0.139955	0.859188
C58	C	1.141577	-0.648634	0.199175
C59	C	1.474910	-0.315300	0.532508
C60	C	1.808243	0.018033	0.865842
C61	C	1.098631	-0.351444	0.237587
C62	C	1.431964	-0.018111	0.570920
C63	C	1.765298	0.315223	0.904253
C64	C	1.293414	-0.000047	0.225911
C65	C	1.626748	0.333286	0.559245
C66	C	1.960081	0.666620	0.892578
C67	C	1.398659	-0.000045	0.236391
C68	C	1.731992	0.333289	0.569724
C69	C	2.065326	0.666622	0.903058
C70	C	1.126724	-0.000051	0.050321
C71	C	1.460057	0.333282	0.383654
C72	C	1.793390	0.666615	0.716987
C73	C	1.124672	-0.000052	-0.052225
C74	C	1.458005	0.333281	0.281108
C75	C	1.791338	0.666615	0.614442
N76	N	1.135653	0.254182	0.204477
N77	N	1.468987	0.587515	0.537810
N78	N	1.802320	0.920849	0.871143
C79	C	1.123005	-0.000049	-0.135504
C80	C	1.456338	0.333284	0.197829
C81	C	1.789671	0.666617	0.531163
C82	C	1.120922	-0.000041	-0.239981
C83	C	1.454255	0.333292	0.093352
C84	C	1.787589	0.666626	0.426685
C85	C	1.119269	-0.000034	-0.323254
C86	C	1.452602	0.333299	0.010079
C87	C	1.785936	0.666633	0.343413
C88	C	1.117186	-0.000028	-0.427738
C89	C	1.450520	0.333306	-0.094405
C90	C	1.783853	0.666639	0.238929
C91	C	1.113481	-0.000028	0.386444
C92	C	1.446814	0.333305	0.719777
C93	C	1.780148	0.666638	1.053111
C94	C	1.115533	-0.000021	0.488989
C95	C	1.448867	0.333313	0.822323
C96	C	1.782200	0.666646	1.155656
H97	H	0.617556	0.000032	0.109606
H98	H	0.950889	0.333365	0.442939
H99	H	1.284222	0.666699	0.776272
H100	H	0.622658	-0.000026	0.327153
H101	H	0.955991	0.333308	0.660486
H102	H	1.289325	0.666641	0.993819
H103	H	1.204089	-0.480805	0.143248
H104	H	1.537422	-0.147471	0.476581
H105	H	1.870755	0.185862	0.809914
H106	H	1.036125	-0.519279	0.293511
H107	H	1.369458	-0.185945	0.626845
H108	H	1.702792	0.147388	0.960178
