data_functionalizedCrystal
_audit_creation_method	'MofGen! by Chris Wilmer'
_symmetry_space_group_name_H-M	'P1'
_symmetry_Int_Tables_number	1
_symmetry_cell_setting	triclinic
loop_
_symmetry_equiv_pos_as_xyz
  x,y,z
_cell_length_a	9.065215
_cell_length_b	13.596369
_cell_length_c	9.065218
_cell_angle_alpha	90.004126
_cell_angle_beta	85.015291
_cell_angle_gamma	90.004765
loop_
_atom_site_label
_atom_site_type_symbol
_atom_site_fract_x
_atom_site_fract_y
_atom_site_fract_z
O1	O	1.960405	0.081776	0.216339
O2	O	2.293739	0.415109	0.549672
O3	O	2.627072	0.748442	0.883006
O4	O	1.531120	0.081780	0.234090
O5	O	1.864453	0.415113	0.567423
O6	O	2.197787	0.748446	0.900757
O7	O	1.754636	0.081776	0.010572
O8	O	2.087969	0.415109	0.343905
O9	O	2.421303	0.748442	0.677239
O10	O	1.736890	0.081780	0.439857
O11	O	2.070223	0.415113	0.773190
O12	O	2.403556	0.748446	1.106524
O13	O	1.754613	-0.081807	0.010560
O14	O	2.087947	0.251526	0.343893
O15	O	2.421280	0.584859	0.677226
O16	O	1.531097	-0.081803	0.234078
O17	O	1.864431	0.251530	0.567411
O18	O	2.197764	0.584863	0.900744
O19	O	1.960383	-0.081807	0.216327
O20	O	2.293716	0.251526	0.549660
O21	O	2.627049	0.584859	0.882993
Zn22	Zn	1.745736	-0.107778	0.225200
Zn23	Zn	2.079070	0.225556	0.558534
Zn24	Zn	2.412403	0.558889	0.891867
Zn25	Zn	1.745766	0.107750	0.225216
Zn26	Zn	2.079100	0.441083	0.558550
Zn27	Zn	2.412433	0.774417	0.891883
O28	O	1.736867	-0.081803	0.439845
O29	O	2.070200	0.251530	0.773178
O30	O	2.403534	0.584863	1.106511
C31	C	1.476122	-0.000011	0.232379
C32	C	1.809455	0.333322	0.565712
C33	C	2.142789	0.666655	0.899045
C34	C	1.312279	-0.000010	0.227281
C35	C	1.645612	0.333324	0.560614
C36	C	1.978946	0.666657	0.893947
N37	N	1.745727	-0.254869	0.225188
N38	N	2.079060	0.078464	0.558522
N39	N	2.412393	0.411797	0.891855
C40	C	1.745764	-0.656160	0.225218
C41	C	2.079098	-0.322827	0.558551
C42	C	2.412431	0.010506	0.891885
C43	C	1.745750	-0.544509	0.225215
C44	C	2.079083	-0.211176	0.558548
C45	C	2.412416	0.122158	0.891881
C46	C	1.745746	-0.455518	0.225204
C47	C	2.079080	-0.122185	0.558538
C48	C	2.412413	0.211148	0.891871
C49	C	1.745730	-0.343860	0.225199
C50	C	2.079063	-0.010527	0.558532
C51	C	2.412397	0.322807	0.891865
C52	C	2.015381	-0.000014	0.218038
C53	C	2.348714	0.333319	0.551371
C54	C	2.682047	0.666652	0.884704
C55	C	2.179224	-0.000009	0.223136
C56	C	2.512557	0.333324	0.556469
C57	C	2.845891	0.666657	0.889802
C58	C	1.752919	-0.000014	-0.044421
C59	C	2.086252	0.333319	0.288913
C60	C	2.419586	0.666652	0.622246
C61	C	1.747819	-0.000010	-0.208264
C62	C	2.081153	0.333324	0.125070
C63	C	2.414486	0.666657	0.458403
N64	N	1.745788	0.254842	0.225217
N65	N	2.079121	0.588175	0.558550
N66	N	2.412454	0.921508	0.891883
C67	C	1.738584	-0.000011	0.494837
C68	C	2.071917	0.333322	0.828171
C69	C	2.405250	0.666655	1.161504
C70	C	1.743683	-0.000009	0.658680
C71	C	2.077017	0.333324	0.992014
C72	C	2.410350	0.666657	1.325347
