data_functionalizedCrystal
_audit_creation_method	'MofGen! by Chris Wilmer'
_symmetry_space_group_name_H-M	'P1'
_symmetry_Int_Tables_number	1
_symmetry_cell_setting	triclinic
loop_
_symmetry_equiv_pos_as_xyz
  x,y,z
_cell_length_a	10.489711
_cell_length_b	10.489741
_cell_length_c	10.868271
_cell_angle_alpha	89.995151
_cell_angle_beta	89.994157
_cell_angle_gamma	84.533091
loop_
_atom_site_label
_atom_site_type_symbol
_atom_site_fract_x
_atom_site_fract_y
_atom_site_fract_z
O1	O	1.694075	0.179788	-0.102366
O2	O	1.322875	0.196720	-0.102359
O3	O	1.516922	0.002655	-0.102355
O4	O	1.500029	0.373853	-0.102370
O5	O	1.516905	0.002648	0.102289
O6	O	1.322859	0.196713	0.102286
O7	O	1.694059	0.179780	0.102279
Zn8	Zn	1.508456	0.188245	0.134774
Zn9	Zn	1.508478	0.188255	-0.134854
O10	O	1.500012	0.373845	0.102275
C11	C	1.275334	0.195446	-0.000035
C12	C	1.133703	0.191644	-0.000032
C13	C	1.515638	-0.044880	-0.000034
C14	C	1.511820	-0.186509	-0.000036
C15	C	0.951317	0.308348	-0.000051
C16	C	1.043470	0.250057	-0.100947
C17	C	1.043427	0.250018	0.100816
C18	C	0.973519	0.126514	-0.101038
C19	C	0.973467	0.126492	0.100816
C20	C	1.065593	0.068111	-0.000105
C21	C	1.388354	-0.254636	-0.000042
C22	C	1.446670	-0.346768	0.100857
C23	C	1.446716	-0.346735	-0.100907
C24	C	1.570188	-0.276776	0.100947
C25	C	1.570216	-0.276734	-0.100907
C26	C	1.628622	-0.368839	0.000016
C27	C	1.741600	0.181055	-0.000047
C28	C	1.883231	0.184857	-0.000058
C29	C	1.501296	0.421381	-0.000049
C30	C	1.505114	0.563010	-0.000055
N31	N	1.508451	0.188238	0.318788
N32	N	1.508493	0.188253	-0.318868
C33	C	1.508471	0.188253	0.569794
C34	C	1.508456	0.188248	0.430117
H35	H	1.074472	0.302316	-0.186249
C36	C	1.765876	-0.435637	0.000084
C37	C	1.811540	-0.525151	-0.106660
C38	C	1.948791	-0.591954	-0.106585
C39	C	2.040377	-0.569242	0.000234
C40	C	1.994714	-0.479724	0.106986
C41	C	1.857464	-0.412921	0.106911
H42	H	1.743741	-0.541968	-0.185741
H43	H	1.982593	-0.658221	-0.185611
H44	H	2.141978	-0.618693	0.000289
H45	H	2.062513	-0.462907	0.186067
H46	H	1.823661	-0.346654	0.185937
C47	C	0.931535	0.055948	0.216055
C48	C	0.984035	-0.084080	0.239461
C49	C	0.942098	-0.154616	0.354709
C50	C	0.847662	-0.085122	0.446553
C51	C	0.795156	0.054915	0.423149
C52	C	0.837092	0.125450	0.307901
H53	H	1.053947	-0.135531	0.171471
H54	H	0.980967	-0.258280	0.372034
H55	H	0.816618	-0.137336	0.531867
H56	H	0.725244	0.106365	0.491139
H57	H	0.798224	0.229114	0.290577
C58	C	1.132433	-0.069126	-0.000170
C59	C	1.109756	-0.160725	-0.106988
C60	C	1.176599	-0.297959	-0.107060
C61	C	1.266120	-0.343593	-0.000313
C62	C	1.288801	-0.251992	0.106514
C63	C	1.221958	-0.114759	0.106585
H64	H	1.043484	-0.126946	-0.186016
H65	H	1.159809	-0.365768	-0.186141
H66	H	1.315601	-0.445182	-0.000366
H67	H	1.355073	-0.285772	0.185541
H68	H	1.238748	-0.046950	0.185666
H69	H	1.074376	0.302288	0.186117
C70	C	1.376093	-0.388675	0.216095
C71	C	1.235319	-0.338022	0.238265
C72	C	1.164732	-0.379923	0.353498
C73	C	1.234919	-0.472476	0.446560
C74	C	1.375701	-0.523134	0.424392
C75	C	1.446288	-0.481233	0.309160
H76	H	1.183355	-0.269504	0.169373
H77	H	1.060516	-0.342423	0.369907
H78	H	1.182667	-0.503494	0.531862
H79	H	1.427665	-0.591652	0.493285
H80	H	1.550504	-0.518734	0.292751
H81	H	0.901626	0.409850	-0.000155
H82	H	0.942717	0.074314	-0.186438
H83	H	1.622377	-0.245953	0.186345
H84	H	1.622419	-0.245691	-0.186217
H85	H	1.286841	-0.204974	0.000061
H86	H	1.394465	-0.377691	-0.186217
