data_functionalizedCrystal
_audit_creation_method	'MofGen! by Chris Wilmer'
_symmetry_space_group_name_H-M	'P1'
_symmetry_Int_Tables_number	1
_symmetry_cell_setting	triclinic
loop_
_symmetry_equiv_pos_as_xyz
  x,y,z
_cell_length_a	14.971491
_cell_length_b	10.489716
_cell_length_c	14.048226
_cell_angle_alpha	89.997629
_cell_angle_beta	89.991693
_cell_angle_gamma	84.072686
loop_
_atom_site_label
_atom_site_type_symbol
_atom_site_fract_x
_atom_site_fract_y
_atom_site_fract_z
O1	O	1.187880	0.166255	-0.079193
O2	O	0.927593	0.186154	-0.079185
O3	O	1.063671	-0.009464	-0.079192
O4	O	1.051802	0.361873	-0.079185
O5	O	1.063654	-0.009475	0.079129
O6	O	0.927576	0.186143	0.079137
O7	O	1.187864	0.166244	0.079129
Zn8	Zn	1.057717	0.176191	0.104270
Zn9	Zn	1.057739	0.176207	-0.104326
O10	O	1.051786	0.361862	0.079136
C11	C	0.894255	0.185257	-0.000023
C12	C	0.794943	0.182587	-0.000020
C13	C	1.062770	-0.056991	-0.000034
C14	C	1.060103	-0.198591	-0.000043
C15	C	0.367181	0.171071	-0.086344
C16	C	0.460496	0.173576	-0.086340
C17	C	0.507140	0.174830	-0.000036
C18	C	0.460465	0.173567	0.086271
C19	C	0.367153	0.171052	0.086266
C20	C	0.654957	0.178810	0.086274
C21	C	0.748275	0.181327	0.086279
C22	C	0.748299	0.181334	-0.086332
C23	C	0.654987	0.178819	-0.086336
C24	C	0.608319	0.177558	-0.000030
C25	C	1.143550	-0.297229	-0.000037
C26	C	1.099463	-0.374075	-0.078094
C27	C	1.099427	-0.374050	0.077999
C28	C	1.016050	-0.273572	-0.078164
C29	C	1.016027	-0.273542	0.077998
C30	C	0.971878	-0.350338	-0.000078
C31	C	1.221201	0.167141	-0.000035
C32	C	1.320513	0.169811	-0.000044
C33	C	1.052686	0.409389	-0.000024
C34	C	1.055354	0.550989	-0.000021
N35	N	1.057709	0.176180	0.246630
N36	N	1.057754	0.176208	-0.246686
C37	C	1.117983	0.089596	0.296445
C38	C	1.117989	0.089596	0.396103
C39	C	1.057724	0.176186	0.445944
C40	C	0.997443	0.262774	0.396122
C41	C	0.997434	0.262767	0.296466
C42	C	0.997469	0.262783	0.603836
C43	C	0.997480	0.262791	0.703499
C44	C	1.118025	0.089611	0.703473
C45	C	1.118015	0.089605	0.603817
C46	C	1.057735	0.176195	0.554002
H47	H	0.329210	0.170058	-0.156623
O48	O	0.321704	0.170000	0.170037
C49	C	0.258312	0.278941	0.175211
H50	H	0.241202	0.315370	0.100279
H51	H	0.194810	0.252341	0.211734
H52	H	0.287662	0.357204	0.217804
O53	O	0.505686	0.174849	-0.170257
C54	C	0.444510	0.173175	-0.246431
H55	H	0.374545	0.211743	-0.221133
H56	H	0.466199	0.235775	-0.306793
H57	H	0.443318	0.070658	-0.272965
O58	O	1.176492	0.005538	0.752005
C59	C	1.163593	0.024123	0.850651
H60	H	1.092785	0.071622	0.864278
H61	H	1.172938	-0.072450	0.888526
H62	H	1.214623	0.088223	0.878917
O63	O	0.973999	-0.221636	-0.157016
C64	C	0.942051	-0.319653	-0.212167
H65	H	0.933417	-0.405873	-0.164907
H66	H	0.874612	-0.283171	-0.245051
H67	H	0.992289	-0.349172	-0.271141
H68	H	0.498451	0.174580	0.156541
O69	O	0.793546	0.182375	-0.170231
C70	C	0.780196	0.071367	-0.222727
H71	H	0.715582	0.032745	-0.198192
H72	H	0.774899	0.096111	-0.301679
H73	H	0.839310	-0.004518	-0.210760
H74	H	0.617011	0.177807	-0.156613
H75	H	0.948405	0.333301	0.744075
O76	O	1.230176	-0.268938	-0.000024
C77	C	1.274460	-0.322284	0.081501
H78	H	1.238311	-0.405698	0.108451
H79	H	1.346746	-0.358217	0.062581
H80	H	1.274133	-0.246078	0.139392
H81	H	1.167062	0.019090	0.255871
O82	O	1.141637	-0.426422	-0.156754
C83	C	1.232060	-0.399894	-0.156496
H84	H	1.253530	-0.380010	-0.080534
H85	H	1.276245	-0.485891	-0.185979
H86	H	1.239523	-0.312335	-0.202765
O87	O	0.938863	0.346711	0.444642
C88	C	0.883245	0.278269	0.502292
H89	H	0.918238	0.178544	0.517217
H90	H	0.869443	0.331479	0.572371
H91	H	0.817081	0.269442	0.463907
O92	O	0.793455	0.182467	0.170199
C93	C	0.732256	0.180830	0.246374
H94	H	0.669188	0.138697	0.221071
H95	H	0.764497	0.119659	0.306725
H96	H	0.713599	0.282805	0.272926
O97	O	0.974160	-0.221219	0.156828
C98	C	1.018386	-0.272687	0.238972
H99	H	1.090480	-0.309942	0.220268
H100	H	1.018626	-0.194904	0.295616
H101	H	0.981817	-0.354831	0.267457
O102	O	1.141329	-0.426523	0.156758
C103	C	1.079812	-0.489012	0.211230
H104	H	1.022857	-0.515107	0.163525
H105	H	1.115589	-0.579923	0.243754
H106	H	1.051249	-0.422541	0.270457
H107	H	0.616961	0.177799	0.156554
H108	H	0.948380	0.333290	0.563280
H109	H	0.899239	-0.373930	-0.000118
O110	O	0.938796	0.346703	0.248031
C111	C	0.883193	0.278254	0.190389
H112	H	0.881049	0.177659	0.220431
H113	H	0.812430	0.330124	0.189274
H114	H	0.911135	0.271631	0.114855
O115	O	1.176637	0.005455	0.444345
C116	C	1.229819	-0.070982	0.378984
H117	H	1.231141	-0.018688	0.307940
H118	H	1.301130	-0.090243	0.407756
H119	H	1.200191	-0.165820	0.368404
H120	H	1.167092	0.019103	0.563236
