data_functionalizedCrystal
_audit_creation_method	'MofGen! by Chris Wilmer'
_symmetry_space_group_name_H-M	'P1'
_symmetry_Int_Tables_number	1
_symmetry_cell_setting	triclinic
loop_
_symmetry_equiv_pos_as_xyz
  x,y,z
_cell_length_a	12.811445
_cell_length_b	12.837942
_cell_length_c	13.448316
_cell_angle_alpha	89.994234
_cell_angle_beta	84.561830
_cell_angle_gamma	89.412982
loop_
_atom_site_label
_atom_site_type_symbol
_atom_site_fract_x
_atom_site_fract_y
_atom_site_fract_z
O1	O	1.406657	0.139724	-0.209532
O2	O	1.906657	0.639724	0.290468
O3	O	1.102590	0.154905	-0.182116
O4	O	1.602590	0.654905	0.317884
O5	O	1.247881	-0.003617	-0.195210
O6	O	1.747881	0.496383	0.304790
O7	O	1.261366	0.298247	-0.196438
O8	O	1.761366	0.798247	0.303562
O9	O	1.247860	-0.003627	-0.029824
O10	O	1.747860	0.496373	0.470176
O11	O	1.102569	0.154895	-0.016730
O12	O	1.602569	0.654895	0.483270
O13	O	1.406636	0.139714	-0.044147
O14	O	1.906636	0.639714	0.455853
Cu15	Cu	1.254600	0.147304	-0.015337
Cu16	Cu	1.754600	0.647304	0.484663
Cu17	Cu	1.254625	0.147315	-0.210925
Cu18	Cu	1.754625	0.647315	0.289075
O19	O	1.261345	0.298237	-0.031052
O20	O	1.761345	0.798237	0.468948
C21	C	1.063390	0.154048	-0.095889
C22	C	1.563390	0.654048	0.404111
C23	C	0.946617	0.151496	-0.085360
C24	C	1.446617	0.651496	0.414640
C25	C	1.243315	-0.042263	-0.112107
C26	C	1.743315	0.457737	0.387893
C27	C	1.229729	-0.157399	-0.110884
C28	C	1.729729	0.342601	0.389116
C29	C	0.727207	0.146732	-0.245897
C30	C	1.227207	0.646732	0.254103
C31	C	0.617488	0.144335	-0.236009
C32	C	1.117488	0.644335	0.263991
C33	C	0.617457	0.144312	-0.055695
C34	C	1.117457	0.644312	0.444305
C35	C	0.727176	0.146709	-0.065584
C36	C	1.227176	0.646709	0.434416
C37	C	0.782047	0.147917	-0.160688
C38	C	1.282047	0.647917	0.339312
C39	C	0.891769	0.150307	-0.170576
C40	C	1.391769	0.650307	0.329424
C41	C	0.891736	0.150292	0.009737
C42	C	1.391736	0.650292	0.509737
C43	C	0.782016	0.147895	0.019625
C44	C	1.282016	0.647895	0.519625
C45	C	1.393060	-0.397648	-0.125631
C46	C	1.893060	0.102352	0.374369
C47	C	1.380299	-0.505830	-0.124482
C48	C	1.880299	-0.005830	0.375518
C49	C	1.191448	-0.481944	-0.107444
C50	C	1.691448	0.018056	0.392556
C51	C	1.204209	-0.373763	-0.108593
C52	C	1.704209	0.126237	0.391407
C53	C	1.305018	-0.331620	-0.117685
C54	C	1.805018	0.168380	0.382315
C55	C	1.317777	-0.223436	-0.118827
C56	C	1.817777	0.276564	0.381173
C57	C	1.128927	-0.199553	-0.101796
C58	C	1.628927	0.300447	0.398204
C59	C	1.116167	-0.307734	-0.100647
C60	C	1.616167	0.192266	0.399353
C61	C	1.445836	0.140571	-0.130375
C62	C	1.945836	0.640571	0.369625
C63	C	1.562609	0.143123	-0.140911
C64	C	2.062609	0.643123	0.359089
C65	C	1.265911	0.336882	-0.114158
C66	C	1.765911	0.836882	0.385842
C67	C	1.279497	0.452018	-0.115388
C68	C	1.779497	0.952018	0.384612
N69	N	1.254590	0.147295	0.122228
N70	N	1.754590	0.647295	0.622228
N71	N	1.254643	0.147316	-0.348491
N72	N	1.754643	0.647316	0.151509
C73	C	1.318950	0.077130	0.168468
C74	C	1.818950	0.577130	0.668468
C75	C	1.318957	0.077129	0.272571
C76	C	1.818957	0.577129	0.772571
C77	C	1.254608	0.147299	0.330431
C78	C	1.754608	0.647299	0.830431
C79	C	1.190241	0.217467	0.284184
C80	C	1.690241	0.717467	0.784184
C81	C	1.190230	0.217462	0.180084
C82	C	1.690230	0.717462	0.680084
C83	C	1.190271	0.217474	0.501162
C84	C	1.690271	0.717474	1.001162
C85	C	1.190283	0.217481	0.605269
C86	C	1.690283	0.717481	1.105269
C87	C	1.318998	0.077142	0.593648
C88	C	1.818998	0.577142	1.093648
C89	C	1.318987	0.077137	0.489548
C90	C	1.818987	0.577137	0.989548
C91	C	1.254620	0.147306	0.443308
C92	C	1.754620	0.647306	0.943308
H93	H	0.936443	0.151290	-0.248015
H94	H	1.436443	0.651290	0.251985
H95	H	1.371389	0.020004	0.442437
H96	H	1.871389	0.520004	0.942437
H97	H	1.399861	-0.189125	-0.126227
H98	H	1.899861	0.310875	0.373773
Br99	Br	1.499790	-0.595439	-0.135273
Br100	Br	1.999790	-0.095439	0.364727
Br101	Br	1.102900	0.312693	0.362706
Br102	Br	1.602900	0.812693	0.862706
H103	H	1.137820	0.274596	0.142437
H104	H	1.637820	0.774596	0.642437
H105	H	0.737325	0.146915	0.097056
H106	H	1.237325	0.646915	0.597056
H107	H	1.475142	-0.363335	-0.133025
H108	H	1.975142	0.136665	0.366975
Br109	Br	0.801681	0.148352	-0.374962
Br110	Br	1.301681	0.648352	0.125038
H111	H	1.109374	-0.516277	-0.100052
H112	H	1.609374	-0.016277	0.399948
H113	H	0.936398	0.151256	0.079120
H114	H	1.436398	0.651256	0.579120
Br115	Br	0.543064	0.142733	-0.351654
Br116	Br	1.043064	0.642733	0.148346
H117	H	0.572762	0.143338	0.021734
H118	H	1.072762	0.643338	0.521734
Br119	Br	0.979362	-0.364939	-0.088321
Br120	Br	1.479362	0.135061	0.411679
Br121	Br	1.406294	-0.018098	0.089953
Br122	Br	1.906294	0.481902	0.589953
Br123	Br	1.009434	-0.109936	-0.090994
Br124	Br	1.509434	0.390064	0.409006
Br125	Br	1.406299	-0.018099	0.335329
Br126	Br	1.906299	0.481901	0.835329
Br127	Br	1.406355	-0.018082	0.656404
Br128	Br	1.906355	0.481918	1.156404
Br129	Br	1.102949	0.312715	0.683787
Br130	Br	1.602949	0.812715	1.183787
H131	H	1.137853	0.274611	0.463518
H132	H	1.637853	0.774611	0.963518
