data_functionalizedCrystal
_audit_creation_method	'MofGen! by Chris Wilmer'
_symmetry_space_group_name_H-M	'P1'
_symmetry_Int_Tables_number	1
_symmetry_cell_setting	triclinic
loop_
_symmetry_equiv_pos_as_xyz
  x,y,z
_cell_length_a	12.645331
_cell_length_b	29.839131
_cell_length_c	12.645323
_cell_angle_alpha	90.040367
_cell_angle_beta	90.022676
_cell_angle_gamma	90.034207
loop_
_atom_site_label
_atom_site_type_symbol
_atom_site_fract_x
_atom_site_fract_y
_atom_site_fract_z
Zn1	Zn	1.620602	-0.178862	0.599332
Zn2	Zn	2.120602	0.321138	1.099332
Zn3	Zn	1.620429	-0.253994	0.422024
Zn4	Zn	2.120429	0.246006	0.922024
Zn5	Zn	1.443317	-0.178877	0.422076
Zn6	Zn	1.943317	0.321123	0.922076
Zn7	Zn	1.443244	-0.253964	0.599240
Zn8	Zn	1.943244	0.246036	1.099240
O9	O	1.531898	-0.216424	0.510668
O10	O	2.031898	0.283576	1.010668
O11	O	1.768926	-0.188834	0.575829
O12	O	2.268926	0.311166	1.075829
O13	O	1.596893	-0.244048	0.273684
O14	O	2.096893	0.255952	0.773684
O15	O	1.466936	-0.116008	0.445650
O16	O	1.966936	0.383992	0.945650
O17	O	1.768800	-0.244033	0.445561
O18	O	2.268800	0.255967	0.945561
O19	O	1.597187	-0.115997	0.575879
O20	O	2.097187	0.384003	1.075879
O21	O	1.466769	-0.188860	0.273722
O22	O	1.966769	0.311140	0.773722
O23	O	1.294960	-0.188832	0.445561
O24	O	1.794960	0.311168	0.945561
O25	O	1.466813	-0.243983	0.747599
O26	O	1.966813	0.256017	1.247599
O27	O	1.294906	-0.243998	0.575722
O28	O	1.794906	0.256002	1.075722
O29	O	1.597117	-0.188806	0.747667
O30	O	2.097117	0.311194	1.247667
O31	O	1.596823	-0.316857	0.445472
O32	O	2.096823	0.183143	0.945472
O33	O	1.466646	-0.316835	0.575671
O34	O	1.966646	0.183165	1.075671
C35	C	1.256468	-0.216414	0.510637
C36	C	1.756468	0.283586	1.010637
C37	C	1.138638	-0.216420	0.510649
C38	C	1.638638	0.283580	1.010649
C39	C	0.971072	-0.181555	0.429217
C40	C	1.471072	0.318445	0.929217
C41	C	1.093632	-0.181645	0.428858
C42	C	1.593632	0.318355	0.928858
C43	C	1.094084	-0.263746	0.480104
C44	C	1.594084	0.236254	0.980104
C45	C	0.971485	-0.263555	0.479549
C46	C	1.471485	0.236445	0.979549
C47	C	0.971498	-0.204409	0.622941
C48	C	1.471498	0.295591	1.122941
C49	C	1.094104	-0.203352	0.622318
C50	C	1.594104	0.296648	1.122318
C51	C	1.531736	-0.333147	0.510579
C52	C	2.031736	0.166853	1.010579
C53	C	1.531764	-0.383081	0.510576
C54	C	2.031764	0.116919	1.010576
C55	C	1.599705	-0.692684	0.578575
C56	C	2.099705	-0.192684	1.078575
C57	C	1.599820	-0.880357	0.578639
C58	C	2.099820	-0.380357	1.078639
O59	O	1.657427	-0.904587	0.636387
O60	O	2.157427	-0.404587	1.136387
N61	N	1.532078	-0.903866	0.510786
N62	N	2.032078	-0.403866	1.010786
C63	C	1.464298	-0.880455	0.442917
C64	C	1.964298	-0.380455	0.942917
O65	O	1.406674	-0.904757	0.385213
O66	O	1.906674	-0.404757	0.885213
C67	C	1.464178	-0.692782	0.442859
C68	C	1.964178	-0.192782	0.942859
C69	C	1.531932	-0.669276	0.510709
C70	C	2.031932	-0.169276	1.010709
C71	C	1.667452	-0.669177	0.646420
C72	C	2.167452	-0.169177	1.146420
C73	C	1.667427	-0.622262	0.646399
C74	C	2.167427	-0.122262	1.146399
C75	C	1.599654	-0.598853	0.578534
C76	C	2.099654	-0.098853	1.078534
C77	C	1.531907	-0.622360	0.510688
C78	C	2.031907	-0.122360	1.010688
C79	C	1.396393	-0.669371	0.374997
C80	C	1.896393	-0.169371	0.874997
C81	C	1.396367	-0.622450	0.374990
C82	C	1.896367	-0.122450	0.874990
C83	C	1.464121	-0.598944	0.442840
C84	C	1.964121	-0.098944	0.942840
C85	C	1.464108	-0.552036	0.442802
C86	C	1.964108	-0.052036	0.942802
N87	N	1.531850	-0.528527	0.510655
N88	N	2.031850	-0.028527	1.010655
C89	C	1.599623	-0.551935	0.578521
C90	C	2.099623	-0.051935	1.078521
C91	C	1.464367	-0.978985	0.442950
C92	C	1.964367	-0.478985	0.942950
C93	C	1.464398	-1.025903	0.442963
C94	C	1.964398	-0.525903	0.942963
C95	C	1.599919	-1.025802	0.578687
C96	C	2.099919	-0.525802	1.078687
C97	C	1.599892	-0.978884	0.578668
C98	C	2.099892	-0.478884	1.078668
C99	C	1.532109	-0.955476	0.510803
C100	C	2.032109	-0.455476	1.010803
C101	C	1.599565	-0.453409	0.578471
C102	C	2.099565	0.046591	1.078471
C103	C	1.599537	-0.406490	0.578442
C104	C	2.099537	0.093510	1.078442
C105	C	1.464013	-0.406595	0.442723
C106	C	1.964013	0.093405	0.942723
C107	C	1.464044	-0.453510	0.442748
C108	C	1.964044	0.046490	0.942748
C109	C	1.531824	-0.476916	0.510631
C110	C	2.031824	0.023084	1.010631
O111	O	1.406523	-0.527777	0.385092
O112	O	1.906523	-0.027777	0.885092
O113	O	1.657222	-0.527625	0.636233
O114	O	2.157222	-0.027625	1.136233
C115	C	1.599730	-0.739599	0.578596
C116	C	2.099730	-0.239599	1.078596
C117	C	1.531983	-0.763106	0.510751
C118	C	2.031983	-0.263106	1.010751
C119	C	1.464210	-0.739698	0.442885
C120	C	1.964210	-0.239698	0.942885
C121	C	1.532014	-0.810024	0.510763
C122	C	2.032014	-0.310024	1.010763
C123	C	1.599787	-0.833433	0.578629
C124	C	2.099787	-0.333433	1.078629
C125	C	1.667528	-0.809923	0.646482
C126	C	2.167528	-0.309923	1.146482
C127	C	1.667503	-0.763008	0.646461
C128	C	2.167503	-0.263008	1.146461
C129	C	1.396468	-0.763207	0.375032
C130	C	1.896468	-0.263207	0.875032
C131	C	1.396500	-0.810123	0.375057
C132	C	1.896500	-0.310123	0.875057
C133	C	1.464273	-0.833531	0.442923
C134	C	1.964273	-0.333531	0.942923
C135	C	1.808403	-0.216435	0.510699
C136	C	2.308403	0.283565	1.010699
C137	C	1.926233	-0.216440	0.510713
C138	C	2.426233	0.283560	1.010713
C139	C	1.531976	-0.216390	0.787174
C140	C	2.031976	0.283610	1.287174
C141	C	1.532009	-0.216375	0.905004
C142	C	2.032009	0.283625	1.405004
C143	C	1.532089	-0.099246	0.510781
C144	C	2.032089	0.400754	1.010781
C145	C	1.532171	-0.049312	0.510829
C146	C	2.032171	0.450688	1.010829
C147	C	1.531881	-0.216427	0.235238
C148	C	2.031881	0.283573	0.735238
C149	C	1.532053	-0.216315	0.117409
C150	C	2.032053	0.283685	0.617409
C151	C	1.449782	-0.250923	1.072525
C152	C	1.949782	0.249077	1.572525
C153	C	1.449998	-0.251094	0.949965
C154	C	1.949998	0.248906	1.449965
C155	C	1.643700	-0.229224	0.949515
C156	C	2.143700	0.270776	1.449515
C157	C	1.643249	-0.229441	1.072113
C158	C	2.143249	0.270559	1.572113
C159	C	1.503603	-0.168784	1.072232
C160	C	2.003603	0.331216	1.572232
C161	C	1.501110	-0.169069	0.949625
C162	C	2.001110	0.330931	1.449625
H163	H	1.122904	-0.189597	0.345693
H164	H	1.622904	0.310403	0.845693
H165	H	1.366714	-0.242960	1.102004
H166	H	1.866714	0.257040	1.602004
H167	H	1.468378	-0.285940	1.103322
H168	H	1.968378	0.214060	1.603322
H169	H	1.468777	-0.286331	0.920628
H170	H	1.968777	0.213669	1.420628
H171	H	1.123234	-0.290432	0.537598
H172	H	1.623234	0.209568	1.037598
H173	H	1.124732	-0.274123	0.398940
H174	H	1.624732	0.225877	0.898940
H175	H	0.940625	-0.170502	0.650714
H176	H	1.440625	0.329498	1.150714
H177	H	1.123233	-0.168526	0.645350
H178	H	1.623233	0.331474	1.145350
H179	H	1.655063	-0.959747	0.633917
H180	H	2.155063	-0.459747	1.133917
H181	H	1.706640	-0.204814	0.920396
H182	H	2.206640	0.295186	1.420396
H183	H	1.124745	-0.226907	0.686288
H184	H	1.624745	0.273093	1.186288
H185	H	1.556657	-0.141920	0.919021
H186	H	2.056657	0.358080	1.419021
H187	H	1.667369	-0.264187	1.100702
H188	H	2.167369	0.235813	1.600702
H189	H	1.706624	-0.205328	1.101807
H190	H	2.206624	0.294672	1.601807
H191	H	1.668233	-0.263606	0.918805
H192	H	2.168233	0.236394	1.418805
H193	H	1.722715	-0.828991	0.701737
H194	H	2.222715	-0.328991	1.201737
H195	H	1.423578	-0.157071	1.103143
H196	H	1.923578	0.342929	1.603143
H197	H	1.654714	-0.387352	0.633693
H198	H	2.154714	0.112648	1.133693
H199	H	1.418916	-0.159379	0.920532
H200	H	1.918916	0.340621	1.420532
H201	H	1.409168	-0.959930	0.387685
H202	H	1.909168	-0.459930	0.887685
H203	H	0.942500	-0.229818	0.683663
H204	H	1.442500	0.270182	1.183663
H205	H	1.722674	-0.743872	0.701711
H206	H	2.222674	-0.243872	1.201711
H207	H	1.408836	-0.387528	0.387464
H208	H	1.908836	0.112472	0.887464
H209	H	1.123758	-0.146552	0.448007
H210	H	1.623758	0.353448	0.948007
H211	H	1.654751	-0.472461	0.633755
H212	H	2.154751	0.027539	1.133755
H213	H	1.563525	-0.142999	1.101262
H214	H	2.063525	0.357001	1.601262
H215	H	0.941634	-0.146356	0.448161
H216	H	1.441634	0.353644	0.948161
H217	H	0.942832	-0.273757	0.397503
H218	H	1.442832	0.226243	0.897503
H219	H	0.940219	-0.189419	0.346541
H220	H	1.440219	0.310581	0.846541
H221	H	1.367174	-0.243054	0.919868
H222	H	1.867174	0.256946	1.419868
H223	H	1.341328	-0.829258	0.319796
H224	H	1.841328	-0.329258	0.819796
H225	H	1.722595	-0.603125	0.701651
H226	H	2.222595	-0.103125	1.201651
H227	H	0.941822	-0.290427	0.536317
H228	H	1.441822	0.209573	1.036317
H229	H	1.722641	-0.688231	0.701691
H230	H	2.222641	-0.188231	1.201691
H231	H	1.409237	-1.045038	0.387702
H232	H	1.909237	-0.545038	0.887702
H233	H	1.341221	-0.688503	0.319746
H234	H	1.841221	-0.188503	0.819746
H235	H	1.341166	-0.603394	0.319728
H236	H	1.841166	-0.103394	0.819728
H237	H	1.655104	-1.044869	0.633944
H238	H	2.155104	-0.544869	1.133944
H239	H	1.408882	-0.472651	0.387491
H240	H	1.908882	0.027349	0.887491
H241	H	1.341278	-0.744152	0.319769
H242	H	1.841278	-0.244152	0.819769
