data_functionalizedCrystal
_audit_creation_method	'MofGen! by Chris Wilmer'
_symmetry_space_group_name_H-M	'P1'
_symmetry_Int_Tables_number	1
_symmetry_cell_setting	triclinic
loop_
_symmetry_equiv_pos_as_xyz
  x,y,z
_cell_length_a	12.759401
_cell_length_b	12.759394
_cell_length_c	12.759393
_cell_angle_alpha	89.969918
_cell_angle_beta	89.980789
_cell_angle_gamma	90.014282
loop_
_atom_site_label
_atom_site_type_symbol
_atom_site_fract_x
_atom_site_fract_y
_atom_site_fract_z
Zn1	Zn	1.606268	-0.418198	-0.593992
Zn2	Zn	2.106268	0.081802	-0.093992
Zn3	Zn	1.606163	-0.593915	-0.418315
Zn4	Zn	2.106163	-0.093915	0.081685
Zn5	Zn	1.430568	-0.418252	-0.418331
Zn6	Zn	1.930568	0.081748	0.081669
Zn7	Zn	1.430561	-0.593837	-0.593956
Zn8	Zn	1.930561	-0.093837	-0.093956
O9	O	1.518390	-0.506051	-0.506148
O10	O	2.018390	-0.006051	-0.006148
O11	O	1.753275	-0.441517	-0.570696
O12	O	2.253275	0.058483	-0.070696
O13	O	1.582829	-0.570669	-0.271296
O14	O	2.082829	-0.070669	0.228704
O15	O	1.453922	-0.271224	-0.441654
O16	O	1.953922	0.228776	0.058346
O17	O	1.753198	-0.570616	-0.441627
O18	O	2.253198	-0.070616	0.058373
O19	O	1.583008	-0.271184	-0.570712
O20	O	2.083008	0.228816	-0.070712
O21	O	1.453820	-0.441610	-0.271308
O22	O	1.953820	0.058390	0.228692
O23	O	1.283546	-0.441534	-0.441620
O24	O	1.783546	0.058466	0.058380
O25	O	1.453910	-0.570482	-0.740982
O26	O	1.953910	-0.070482	-0.240982
O27	O	1.283541	-0.570535	-0.570651
O28	O	1.783541	-0.070535	-0.070651
O29	O	1.583001	-0.441441	-0.741008
O30	O	2.083001	0.058559	-0.241008
O31	O	1.582822	-0.740926	-0.441592
O32	O	2.082822	-0.240926	0.058408
O33	O	1.453808	-0.740868	-0.570635
O34	O	1.953808	-0.240868	-0.070635
C35	C	1.245422	-0.506032	-0.506134
C36	C	1.745422	-0.006032	-0.006134
C37	C	1.128646	-0.506050	-0.506152
C38	C	1.628646	-0.006050	-0.006152
C39	C	1.073825	-0.438950	-0.573462
C40	C	1.573825	0.061050	-0.073462
C41	C	0.964101	-0.438960	-0.573469
C42	C	1.464101	0.061040	-0.073469
C43	C	0.964029	-0.573181	-0.438853
C44	C	1.464029	-0.073181	0.061147
C45	C	1.073751	-0.573164	-0.438842
C46	C	1.573751	-0.073164	0.061158
C47	C	1.518331	-0.779018	-0.506131
C48	C	2.018331	-0.279018	-0.006131
C49	C	1.518403	-0.895795	-0.506159
C50	C	2.018403	-0.395795	-0.006159
C51	C	1.652719	-0.895595	-0.640647
C52	C	2.152719	-0.395595	-0.140647
C53	C	1.719910	-0.950356	-0.707899
C54	C	2.219910	-0.450356	-0.207899
C55	C	1.719973	-1.060078	-0.707922
C56	C	2.219973	-0.560078	-0.207922
C57	C	1.652834	-1.115041	-0.640687
C58	C	2.152834	-0.615041	-0.140687
C59	C	1.585643	-1.060280	-0.573435
C60	C	2.085643	-0.560280	-0.073435
C61	C	1.585590	-0.950556	-0.573418
C62	C	2.085590	-0.450556	-0.073418
C63	C	1.451323	-1.060479	-0.438954
C64	C	1.951323	-0.560479	0.061046
C65	C	1.451264	-0.950758	-0.438924
C66	C	1.951264	-0.450758	0.061076
C67	C	1.384184	-1.115443	-0.371720
C68	C	1.884184	-0.615443	0.128280
C69	C	1.316997	-1.060682	-0.304461
C70	C	1.816997	-0.560682	0.195539
C71	C	1.316938	-0.950953	-0.304440
C72	C	1.816938	-0.450953	0.195560
C73	C	1.384073	-0.895997	-0.371672
C74	C	1.884073	-0.395997	0.128328
C75	C	1.792423	-0.506069	-0.506164
C76	C	2.292423	-0.006069	-0.006164
C77	C	1.909200	-0.506078	-0.506171
C78	C	2.409200	-0.006078	-0.006171
C79	C	1.518466	-0.505947	-0.780182
C80	C	2.018466	-0.005947	-0.280182
C81	C	1.518499	-0.505903	-0.896959
C82	C	2.018499	-0.005903	-0.396959
C83	C	1.518477	-0.232017	-0.506189
C84	C	2.018477	0.267983	-0.006189
C85	C	1.518514	-0.115240	-0.506206
C86	C	2.018514	0.384760	-0.006206
C87	C	1.585743	-0.438661	-1.061567
C88	C	2.085743	0.061339	-0.561567
C89	C	1.585723	-0.438702	-0.951843
C90	C	2.085723	0.061298	-0.451843
C91	C	1.451298	-0.573076	-0.951804
C92	C	1.951298	-0.073076	-0.451804
C93	C	1.451324	-0.573039	-1.061526
C94	C	1.951324	-0.073039	-0.561526
C95	C	1.518374	-0.506078	-0.233181
C96	C	2.018374	-0.006078	0.266819
C97	C	1.518545	-0.505826	-0.116405
C98	C	2.018545	-0.005826	0.383595
H99	H	1.118387	-0.627806	-0.384024
H100	H	1.618387	-0.127806	0.115976
Cl101	Cl	1.804440	-1.128923	-0.792470
Cl102	Cl	2.304440	-0.628923	-0.292470
Cl103	Cl	1.366847	-0.657490	-1.130470
Cl104	Cl	1.866847	-0.157490	-0.630470
Cl105	Cl	1.652632	-0.757658	-0.640638
Cl106	Cl	2.152632	-0.257658	-0.140638
H107	H	1.384036	-0.806656	-0.371658
H108	H	1.884036	-0.306656	0.128342
Cl109	Cl	1.142832	-0.354573	-0.658076
Cl110	Cl	1.642832	0.145427	-0.158076
Cl111	Cl	1.804299	-0.881255	-0.792427
Cl112	Cl	2.304299	-0.381255	-0.292427
Cl113	Cl	1.366789	-0.657560	-0.882806
Cl114	Cl	1.866789	-0.157560	-0.382806
H115	H	1.640443	-0.384010	-0.907199
H116	H	2.140443	0.115990	-0.407199
Cl117	Cl	0.895187	-0.354601	-0.658090
Cl118	Cl	1.395187	0.145399	-0.158090
Cl119	Cl	1.670248	-0.354163	-1.130554
Cl120	Cl	2.170248	0.145837	-0.630554
H121	H	0.919320	-0.627824	-0.384053
H122	H	1.419320	-0.127824	0.115947
Cl123	Cl	1.653065	-1.252977	-0.640568
Cl124	Cl	2.153065	-0.752977	-0.140568
H125	H	1.384236	-1.204784	-0.371747
H126	H	1.884236	-0.704784	0.128253
Cl127	Cl	1.232595	-1.129782	-0.219957
Cl128	Cl	1.732595	-0.629782	0.280043
H129	H	1.262219	-0.906373	-0.249679
H130	H	1.762219	-0.406373	0.250321
