data_functionalizedCrystal
_audit_creation_method	'MofGen! by Chris Wilmer'
_symmetry_space_group_name_H-M	'P1'
_symmetry_Int_Tables_number	1
_symmetry_cell_setting	triclinic
loop_
_symmetry_equiv_pos_as_xyz
  x,y,z
_cell_length_a	6.817900
_cell_length_b	19.551786
_cell_length_c	10.943624
_cell_angle_alpha	94.461899
_cell_angle_beta	108.838799
_cell_angle_gamma	101.662645
loop_
_atom_site_label
_atom_site_type_symbol
_atom_site_fract_x
_atom_site_fract_y
_atom_site_fract_z
V1	V	-4.079286	-0.096656	-0.403150
O2	O	-4.074951	0.004664	-0.394859
O3	O	-4.021641	-0.191671	-0.400986
O4	O	-4.057808	-0.095161	-0.578708
O5	O	-4.038534	-0.092514	-0.215908
V6	V	-4.560623	-0.084538	-0.380683
O7	O	-4.345339	-0.123238	-0.452435
O8	O	-4.744767	-0.057956	-0.331398
O9	O	-4.395061	0.010477	-0.382847
O10	O	-4.682354	-0.185858	-0.388974
O11	O	-4.718771	-0.088680	-0.567925
O12	O	-4.358894	-0.086033	-0.205125
C13	C	-3.863522	-0.214834	-0.394780
C14	C	-3.897857	-0.292510	-0.394180
C15	C	-4.089839	-0.842271	-0.271715
C16	C	-4.057556	-0.769285	-0.272264
C17	C	-4.096906	-0.742721	-0.390766
C18	C	-4.168492	-0.789149	-0.508724
C19	C	-4.200752	-0.862133	-0.508170
C20	C	-4.206138	-0.637055	-0.487158
C21	C	-4.173889	-0.564072	-0.487707
C22	C	-3.997399	-0.517614	-0.392479
C23	C	-3.853178	-0.544147	-0.296680
C24	C	-3.885438	-0.617131	-0.296126
C25	C	-4.061930	-0.663583	-0.391380
C26	C	-3.890802	-0.392056	-0.275124
C27	C	-3.858509	-0.319069	-0.275678
C28	C	-3.969467	-0.338934	-0.512142
C29	C	-4.001737	-0.411919	-0.511583
C30	C	-3.962411	-0.438476	-0.393071
C31	C	-3.909655	-0.091725	-0.621479
C32	C	-3.973318	-0.091131	-0.765002
C33	C	-3.819645	-0.087134	-0.842125
C34	C	-3.986774	-0.146473	-0.948483
C35	C	-3.919648	-0.030741	-0.914378
C36	C	-4.139636	-0.150526	-0.869484
C37	C	-4.072450	-0.034742	-0.835355
C38	C	-4.239709	-0.094098	-0.941684
C39	C	-4.216521	0.033636	-0.389050
C40	C	-4.161425	0.111311	-0.389658
C41	C	-4.170387	-0.089472	-0.162347
C42	C	-4.085964	-0.090062	-0.018823
H43	H	-3.858765	-0.413679	-0.178624
C44	C	-4.477268	-0.097997	-0.999617
C45	C	-4.534478	-0.096797	-1.134213
C46	C	-4.753292	-0.100381	-1.187625
H47	H	-4.555787	-0.140542	-0.984746
H48	H	-4.508366	-0.058687	-0.959430
H49	H	-4.503401	-0.136104	-1.174387
H50	H	-4.456016	-0.054256	-1.149121
H51	H	-4.784389	-0.061071	-1.147439
H52	H	-4.831791	-0.142926	-1.172745
H53	H	-4.792133	-0.099560	-1.278951
C54	C	-3.939823	-0.209520	-1.014263
C55	C	-4.130203	-0.251807	-1.104997
C56	C	-4.087023	-0.309893	-1.165600
H57	H	-3.843405	-0.193358	-1.057901
H58	H	-3.877838	-0.236409	-0.950179
H59	H	-4.192157	-0.224922	-1.169071
H60	H	-4.226646	-0.267987	-1.061392
H61	H	-4.025037	-0.336782	-1.101517
H62	H	-3.990601	-0.293724	-1.209231
H63	H	-4.216189	-0.338595	-1.227161
C64	C	-4.262459	-0.218160	-0.842455
C65	C	-4.118481	-0.255669	-0.774368
C66	C	-4.231537	-0.317980	-0.749460
H67	H	-4.343972	-0.206776	-0.791365
H68	H	-4.355286	-0.246376	-0.922845
H69	H	-4.025692	-0.227459	-0.693990
H70	H	-4.036964	-0.267071	-0.825435
H71	H	-4.324363	-0.346196	-0.829850
H72	H	-4.313045	-0.306590	-0.698374
H73	H	-4.133867	-0.343441	-0.703272
H74	H	-3.800204	-0.281275	-0.179630
H75	H	-4.107924	0.012496	-0.786079
C76	C	-4.079600	-0.462209	-0.639782
C77	C	-4.107205	-0.423328	-0.743683
C78	C	-4.178952	-0.469631	-0.861805
H79	H	-3.977315	-0.488770	-0.639750
H80	H	-4.211862	-0.493427	-0.649470
H81	H	-3.974961	-0.392123	-0.733998
H82	H	-4.209501	-0.396770	-0.743758
H83	H	-4.311214	-0.500849	-0.871493
H84	H	-4.076658	-0.496190	-0.861760
H85	H	-4.197710	-0.443258	-0.932317
H86	H	-4.349857	-0.674876	-0.564713
C87	C	-4.211623	-0.760415	-0.637493
C88	C	-4.425976	-0.787634	-0.715956
C89	C	-4.465772	-0.761189	-0.834598
H90	H	-4.182351	-0.710307	-0.621123
H91	H	-4.122503	-0.774134	-0.681135
H92	H	-4.515068	-0.773910	-0.672324
H93	H	-4.455299	-0.837739	-0.732363
H94	H	-4.376652	-0.774908	-0.878239
H95	H	-4.436489	-0.711082	-0.818214
H96	H	-4.611207	-0.779658	-0.887854
H97	H	-3.641518	-0.084268	-0.798658
C98	C	-4.278808	-0.912622	-0.636147
C99	C	-4.473600	-0.958566	-0.649973
C100	C	-4.545562	-1.005094	-0.767842
H101	H	-4.297808	-0.886443	-0.706917
H102	H	-4.176491	-0.939208	-0.635940
H103	H	-4.575893	-0.931982	-0.650191
H104	H	-4.454655	-0.984761	-0.579232
H105	H	-4.443246	-1.031680	-0.767635
H106	H	-4.564550	-0.978909	-0.838602
H107	H	-4.677725	-1.036277	-0.777233
H108	H	-3.999249	-0.731484	-0.176218
H109	H	-4.057808	-0.863888	-0.175213
C110	C	-3.728557	-0.645805	-0.192063
C111	C	-3.567054	-0.589506	-0.108797
C112	C	-3.422476	-0.615893	-0.012934
H113	H	-3.801250	-0.671562	-0.142894
H114	H	-3.667310	-0.676130	-0.232694
H115	H	-3.628296	-0.559193	-0.068169
H116	H	-3.494306	-0.563743	-0.157929
H117	H	-3.361229	-0.646218	-0.053564
H118	H	-3.495189	-0.641651	0.036226
H119	H	-3.312869	-0.577700	0.043566
H120	H	-4.001496	-0.317306	-0.608627
C121	C	-4.330820	-0.535362	-0.591672
C122	C	-4.534345	-0.555769	-0.583034
C123	C	-4.678974	-0.529346	-0.678800
H124	H	-4.286651	-0.485245	-0.578475
H125	H	-4.335064	-0.553725	-0.675701
H126	H	-4.530095	-0.537403	-0.499025
H127	H	-4.578578	-0.605882	-0.596245
H128	H	-4.683218	-0.547709	-0.762829
H129	H	-4.634786	-0.479230	-0.665595
H130	H	-4.817085	-0.543194	-0.672960
C131	C	-3.796857	0.036786	-0.941761
C132	C	-3.940725	0.074573	-1.008951
C133	C	-3.827675	0.136774	-1.034209
H134	H	-3.702916	0.064895	-0.861553
H135	H	-3.716540	0.025235	-0.993552
H136	H	-4.021005	0.086126	-0.957161
H137	H	-4.034669	0.046485	-1.089172
H138	H	-3.747359	0.125223	-1.086000
H139	H	-3.733739	0.164876	-0.953995
H140	H	-3.925273	0.162417	-1.079810
H141	H	-3.709464	-0.506322	-0.219136
