data_functionalizedCrystal
_audit_creation_method	'MofGen! by Chris Wilmer'
_symmetry_space_group_name_H-M	'P1'
_symmetry_Int_Tables_number	1
_symmetry_cell_setting	triclinic
loop_
_symmetry_equiv_pos_as_xyz
  x,y,z
_cell_length_a	14.519709
_cell_length_b	16.109301
_cell_length_c	15.186229
_cell_angle_alpha	89.994833
_cell_angle_beta	90.002257
_cell_angle_gamma	83.570813
loop_
_atom_site_label
_atom_site_type_symbol
_atom_site_fract_x
_atom_site_fract_y
_atom_site_fract_z
O1	O	1.223634	0.108984	-0.073117
O2	O	0.955130	0.121819	-0.073144
O3	O	1.096758	-0.005617	-0.073121
O4	O	1.082006	0.236420	-0.073140
O5	O	1.096748	-0.005618	0.073337
O6	O	0.955120	0.121817	0.073313
O7	O	1.223625	0.108983	0.073340
Zn8	Zn	1.089371	0.115400	0.096580
Zn9	Zn	1.089383	0.115402	-0.096384
O10	O	1.081996	0.236418	0.073317
C11	C	1.096156	-0.036593	0.000108
C12	C	1.094364	-0.128892	0.000109
C13	C	0.920766	0.121220	0.000081
C14	C	0.818389	0.119427	0.000071
C15	C	1.174238	-0.351026	0.000104
C16	C	1.172547	-0.437749	0.000096
C17	C	1.004510	-0.418166	0.000082
C18	C	1.006202	-0.331444	0.000084
C19	C	1.091068	-0.297877	0.000099
C20	C	1.087686	-0.471322	0.000090
C21	C	1.085852	-0.565351	0.000082
C22	C	1.092902	-0.203842	0.000105
C23	C	0.443507	0.112829	0.000112
C24	C	0.547811	0.114661	0.000100
C25	C	0.630945	0.116128	0.000091
C26	C	0.735256	0.117961	0.000081
C27	C	1.257988	0.109582	0.000113
C28	C	1.360365	0.111374	0.000118
C29	C	1.082599	0.267395	0.000086
C30	C	1.084390	0.359693	0.000079
N31	N	1.089369	0.115397	0.228273
N32	N	1.089392	0.115397	-0.228076
C33	C	1.152103	0.058988	0.454006
C34	C	1.152106	0.058986	0.546196
C35	C	1.026651	0.171810	0.546184
C36	C	1.026645	0.171807	0.453996
C37	C	1.089376	0.115397	0.407909
C38	C	1.089386	0.115398	0.592287
C39	C	1.089388	0.115396	0.692243
C40	C	1.089372	0.115397	0.307947
H41	H	1.243341	-0.323699	0.000114
C42	C	1.262947	-0.495316	0.000149
C43	C	1.337626	-0.447353	0.000184
C44	C	1.420919	-0.500354	0.000244
H45	H	1.265916	-0.529565	-0.050911
H46	H	1.265827	-0.529547	0.051241
H47	H	1.334746	-0.413136	-0.050903
H48	H	1.334687	-0.413105	0.051241
H49	H	1.423800	-0.534586	0.051336
H50	H	1.423879	-0.534601	-0.050818
H51	H	1.471598	-0.467819	0.000275
C52	C	0.958496	0.233149	0.404100
C53	C	0.903582	0.282570	0.464190
C54	C	0.840802	0.339089	0.418259
H55	H	0.920029	0.203258	0.368140
H56	H	0.991633	0.267868	0.368150
H57	H	0.870446	0.247856	0.500125
H58	H	0.942023	0.312479	0.500152
H59	H	0.873940	0.373808	0.382308
H60	H	0.802342	0.309191	0.382300
H61	H	0.803541	0.372633	0.459022
C62	C	0.915968	-0.273633	0.000214
C63	C	0.912040	-0.223263	0.075550
C64	C	0.828942	-0.169990	0.075690
H65	H	0.865106	-0.305938	0.000256
H66	H	0.913135	-0.239345	-0.050834
H67	H	0.914864	-0.257548	0.126585
H68	H	0.962883	-0.190940	0.075524
H69	H	0.826109	-0.135702	0.024641
H70	H	0.778086	-0.202302	0.075729
H71	H	0.826269	-0.135803	0.126799
H72	H	0.935415	-0.445507	0.000072
C73	C	1.220244	-0.002354	0.404127
C74	C	1.275160	-0.051770	0.464233
C75	C	1.337932	-0.108298	0.418321
H76	H	1.258710	0.027530	0.368156
H77	H	1.187100	-0.037076	0.368190
H78	H	1.308301	-0.017053	0.500156
H79	H	1.236719	-0.081672	0.500207
H80	H	1.304789	-0.143020	0.382383
H81	H	1.376392	-0.078408	0.382351
H82	H	1.375194	-0.141839	0.459095
C83	C	0.958656	0.233021	0.596382
C84	C	0.972104	0.220969	0.686984
C85	C	0.909494	0.277352	0.733251
H86	H	0.897070	0.223926	0.581386
H87	H	0.968663	0.288546	0.581315
H88	H	0.962091	0.165457	0.702045
H89	H	1.033678	0.230070	0.702006
H90	H	0.919500	0.332877	0.718184
H91	H	0.847911	0.268253	0.718247
H92	H	0.918615	0.269187	0.794729
C93	C	1.220110	-0.002220	0.596402
C94	C	1.206676	0.009835	0.687002
C95	C	1.269297	-0.046544	0.733279
H96	H	1.281694	0.006878	0.581399
H97	H	1.210106	-0.057747	0.581350
H98	H	1.216687	0.065348	0.702049
H99	H	1.145105	0.000730	0.702031
H100	H	1.259293	-0.102070	0.718226
H101	H	1.330876	-0.037441	0.718269
H102	H	1.260184	-0.038377	0.794755
