data_functionalizedCrystal
_audit_creation_method	'MofGen! by Chris Wilmer'
_symmetry_space_group_name_H-M	'P1'
_symmetry_Int_Tables_number	1
_symmetry_cell_setting	triclinic
loop_
_symmetry_equiv_pos_as_xyz
  x,y,z
_cell_length_a	12.759401
_cell_length_b	12.594516
_cell_length_c	12.759393
_cell_angle_alpha	89.970876
_cell_angle_beta	89.981504
_cell_angle_gamma	90.016214
loop_
_atom_site_label
_atom_site_type_symbol
_atom_site_fract_x
_atom_site_fract_y
_atom_site_fract_z
Zn1	Zn	1.606246	-0.423675	-0.593999
Zn2	Zn	1.606136	-0.601694	-0.418327
Zn3	Zn	1.430547	-0.423730	-0.418339
Zn4	Zn	1.430532	-0.601612	-0.593968
O5	O	1.518365	-0.512678	-0.506158
O6	O	1.753252	-0.447300	-0.570704
O7	O	1.582804	-0.578144	-0.271307
O8	O	1.453907	-0.274777	-0.441658
O9	O	1.753171	-0.578090	-0.441638
O10	O	1.582991	-0.274736	-0.570715
O11	O	1.453800	-0.447395	-0.271316
O12	O	1.283524	-0.447316	-0.441628
O13	O	1.453880	-0.577951	-0.740993
O14	O	1.283513	-0.578005	-0.570663
O15	O	1.582976	-0.447221	-0.741016
O16	O	1.582789	-0.750629	-0.441608
O17	O	1.453774	-0.750569	-0.570651
C18	C	1.245398	-0.512658	-0.506144
C19	C	1.128621	-0.512676	-0.506163
C20	C	1.073781	-0.580834	-0.573240
C21	C	0.964057	-0.580848	-0.573251
C22	C	0.964023	-0.444541	-0.439099
C23	C	1.073745	-0.444523	-0.439094
C24	C	1.073799	-0.659533	-0.650688
C25	C	0.964075	-0.659547	-0.650700
C26	C	1.518296	-0.789219	-0.506148
C27	C	1.518363	-0.907524	-0.506179
C28	C	1.448185	-0.976783	-0.576316
C29	C	1.422585	-1.047654	-0.480449
C30	C	1.544058	-1.047453	-0.602062
C31	C	1.492713	-0.976836	-0.410261
C32	C	1.614230	-0.976629	-0.531938
C33	C	1.588667	-1.047468	-0.436006
C34	C	1.792398	-0.512698	-0.506173
C35	C	1.909175	-0.512707	-0.506179
C36	C	1.518439	-0.512570	-0.780192
C37	C	1.518470	-0.512525	-0.896968
C38	C	1.518463	-0.235057	-0.506192
C39	C	1.518505	-0.116752	-0.506206
C40	C	1.585700	-0.444447	-0.951844
C41	C	1.585725	-0.444409	-1.061568
C42	C	1.451288	-0.580534	-1.061531
C43	C	1.451258	-0.580567	-0.951809
C44	C	1.663319	-0.365859	-0.951866
C45	C	1.663344	-0.365821	-1.061590
C46	C	1.518352	-0.512708	-0.233191
C47	C	1.518525	-0.512454	-0.116415
H48	H	0.919330	-0.389052	-0.384496
H49	H	1.341578	-1.078874	-0.458684
H50	H	1.103608	-0.637550	-0.732094
C51	C	1.766253	-0.405273	-0.906271
C52	C	1.760701	-0.403225	-0.796696
C53	C	1.855497	-0.439542	-0.754658
H54	H	1.821793	-0.360685	-0.929156
H55	H	1.778774	-0.475902	-0.929186
H56	H	1.748193	-0.332607	-0.773791
H57	H	1.705181	-0.447816	-0.773782
H58	H	1.868017	-0.510172	-0.777573
H59	H	1.911029	-0.394950	-0.777550
H60	H	1.851739	-0.438167	-0.680308
H61	H	1.470943	-0.945945	-0.329163
C62	C	1.771743	-0.395399	-1.101463
C63	C	1.764903	-0.487563	-1.162397
C64	C	1.864731	-0.514828	-1.199159
H65	H	1.817026	-0.407777	-1.043661
H66	H	1.798809	-0.338998	-1.142889
H67	H	1.737851	-0.543951	-1.120972
H68	H	1.719639	-0.475210	-1.220214
H69	H	1.891798	-0.458427	-1.240586
H70	H	1.910007	-0.527200	-1.141351
H71	H	1.860102	-0.577357	-1.240515
C72	C	1.378208	-0.654452	-1.120886
C73	C	1.319308	-0.714061	-1.049340
C74	C	1.251966	-0.782157	-1.103976
H75	H	1.418273	-0.700912	-1.163688
H76	H	1.332400	-0.613740	-1.163669
H77	H	1.365110	-0.754770	-1.006575
H78	H	1.279222	-0.667629	-1.006535
H79	H	1.206158	-0.741446	-1.146759
H80	H	1.292039	-0.828610	-1.146776
H81	H	1.211987	-0.822603	-1.055440
H82	H	1.107811	-0.737797	-0.621407
H83	H	1.118392	-0.389014	-0.384480
C84	C	1.667743	-1.088544	-0.356682
C85	C	1.640430	-1.052593	-0.256514
C86	C	1.713237	-1.090425	-0.183412
H87	H	1.735631	-1.063174	-0.374250
H88	H	1.667757	-1.163974	-0.357461
H89	H	1.640427	-0.977179	-0.255738
H90	H	1.572555	-1.077960	-0.238914
H91	H	1.713250	-1.165855	-0.184191
H92	H	1.781119	-1.065053	-0.200990
H93	H	1.694709	-1.066046	-0.115439
H94	H	1.695219	-0.945412	-0.553750
H95	H	1.396510	-0.635998	-0.907134
C96	C	1.572824	-1.088669	-0.710258
C97	C	1.499030	-1.052830	-0.783347
C98	C	1.525493	-1.090761	-0.883030
H99	H	1.573277	-1.164084	-0.709480
H100	H	1.640378	-1.063274	-0.729084
H101	H	1.431493	-1.078231	-0.764525
H102	H	1.498565	-0.977420	-0.784157
H103	H	1.593048	-1.065366	-0.901857
H104	H	1.525947	-1.166176	-0.882241
H105	H	1.475434	-1.066442	-0.932635
H106	H	0.934278	-0.741961	-0.628771
H107	H	1.634232	-0.287500	-1.095635
C108	C	0.918795	-0.620509	-0.753932
C109	C	0.952834	-0.686583	-0.835320
C110	C	0.911132	-0.650658	-0.930426
H111	H	0.941774	-0.549938	-0.766734
H112	H	0.844429	-0.621908	-0.750440
H113	H	1.027185	-0.685173	-0.838814
H114	H	0.929857	-0.757156	-0.822553
H115	H	0.836766	-0.652058	-0.926934
H116	H	0.934114	-0.580088	-0.943217
H117	H	0.934214	-0.695490	-0.985658
C118	C	1.368750	-0.935446	-0.655150
C119	C	1.268592	-0.971419	-0.627697
C120	C	1.195388	-0.933348	-0.700280
H121	H	1.386144	-0.960639	-0.723121
H122	H	1.369627	-0.860017	-0.655022
H123	H	1.267718	-1.046832	-0.627835
H124	H	1.251165	-0.946229	-0.559737
H125	H	1.196266	-0.857919	-0.700152
H126	H	1.212793	-0.958543	-0.768247
H127	H	1.127422	-0.957742	-0.681658
H128	H	1.641552	-0.283430	-0.922107
