data_functionalizedCrystal
_audit_creation_method	'MofGen! by Chris Wilmer'
_symmetry_space_group_name_H-M	'P1'
_symmetry_Int_Tables_number	1
_symmetry_cell_setting	triclinic
loop_
_symmetry_equiv_pos_as_xyz
  x,y,z
_cell_length_a	14.908571
_cell_length_b	12.759394
_cell_length_c	14.908308
_cell_angle_alpha	93.268403
_cell_angle_beta	90.175053
_cell_angle_gamma	86.711101
loop_
_atom_site_label
_atom_site_type_symbol
_atom_site_fract_x
_atom_site_fract_y
_atom_site_fract_z
Zn1	Zn	1.345341	-0.548282	-0.587592
Zn2	Zn	1.353935	-0.714462	-0.437236
Zn3	Zn	1.203654	-0.528102	-0.428590
Zn4	Zn	1.194963	-0.713213	-0.578887
O5	O	1.274473	-0.626015	-0.508076
O6	O	1.472308	-0.579294	-0.574908
O7	O	1.341234	-0.681818	-0.310264
O8	O	1.222490	-0.383762	-0.449706
O9	O	1.478622	-0.701385	-0.464442
O10	O	1.326587	-0.398588	-0.566525
O11	O	1.230824	-0.544900	-0.303912
O12	O	1.076675	-0.543690	-0.441266
O13	O	1.207676	-0.699258	-0.705867
O14	O	1.070289	-0.679690	-0.551688
O15	O	1.318159	-0.578083	-0.712262
O16	O	1.332806	-0.861313	-0.456001
O17	O	1.216010	-0.860396	-0.560072
C18	C	1.040856	-0.609365	-0.494595
C19	C	0.940913	-0.602270	-0.488849
C20	C	0.746516	-0.730752	-0.592880
C21	C	0.652610	-0.724088	-0.587484
C22	C	0.659192	-0.582274	-0.472666
C23	C	0.753098	-0.588938	-0.478062
C24	C	0.796757	-0.663180	-0.538170
C25	C	0.890665	-0.669848	-0.543561
C26	C	0.897246	-0.528030	-0.428748
C27	C	0.803340	-0.521366	-0.423352
C28	C	1.274420	-0.898977	-0.508051
C29	C	1.274478	-1.015759	-0.508075
C30	C	1.396180	-1.016672	-0.399798
C31	C	1.457053	-1.071992	-0.345671
C32	C	1.457105	-1.181719	-0.345698
C33	C	1.396278	-1.236129	-0.399860
C34	C	1.335404	-1.180809	-0.453987
C35	C	1.335358	-1.071079	-0.453952
C36	C	1.213709	-1.179897	-0.562269
C37	C	1.213651	-1.070169	-0.562238
C38	C	1.152882	-1.234306	-0.616431
C39	C	1.092002	-1.178986	-0.670555
C40	C	1.091953	-1.069252	-0.670524
C41	C	1.152778	-1.014849	-0.616365
C42	C	1.509002	-0.642730	-0.521611
C43	C	1.608945	-0.649853	-0.527378
C44	C	1.260989	-0.640782	-0.742602
C45	C	1.255243	-0.647075	-0.842543
C46	C	1.274549	-0.351989	-0.508122
C47	C	1.274582	-0.235216	-0.508142
C48	C	1.359488	-0.532697	-1.037003
C49	C	1.354092	-0.538606	-1.130907
C50	C	1.239051	-0.664798	-1.124254
C51	C	1.244447	-0.658888	-1.030351
C52	C	1.304669	-0.592837	-0.986729
C53	C	1.310069	-0.586934	-0.892824
C54	C	1.195024	-0.713118	-0.886173
C55	C	1.189627	-0.719028	-0.980077
C56	C	1.287956	-0.611232	-0.274466
C57	C	1.293877	-0.604656	-0.174536
H58	H	0.611707	-0.779110	-0.632037
H59	H	1.190021	-0.718573	-1.159788
H60	H	0.623629	-0.521823	-0.423735
O61	O	0.760889	-0.449392	-0.364871
C62	C	0.709872	-0.501585	-0.303606
H63	H	0.738489	-0.585973	-0.299557
H64	H	0.712763	-0.459035	-0.234402
H65	H	0.637113	-0.501952	-0.327318
H66	H	1.152738	-0.925503	-0.616329
H67	H	1.506677	-1.226761	-0.301628
O68	O	1.032801	-1.231710	-0.723113
C69	C	0.944317	-1.197404	-0.698204
H70	H	0.944421	-1.115450	-0.663506
H71	H	0.900220	-1.194866	-0.760737
H72	H	0.916757	-1.254156	-0.650228
H73	H	1.506580	-1.027682	-0.301574
H74	H	1.398730	-0.489631	-1.171837
H75	H	1.152931	-1.323652	-0.616454
O76	O	1.396426	-1.342715	-0.399757
C77	C	1.463217	-1.379877	-0.340393
H78	H	1.478838	-1.314254	-0.288577
H79	H	1.438110	-1.449255	-0.304713
H80	H	1.526712	-1.406171	-0.379885
O81	O	0.946150	-0.462534	-0.375559
C82	C	1.003773	-0.522441	-0.320501
H83	H	1.016028	-0.605103	-0.352909
H84	H	1.070497	-0.483558	-0.312300
H85	H	0.971391	-0.527104	-0.251773
O86	O	1.396271	-0.910088	-0.399687
C87	C	1.462989	-0.873925	-0.340257
H88	H	1.516287	-0.940062	-0.330754
H89	H	1.495492	-0.804601	-0.369355
H90	H	1.431141	-0.847868	-0.272608
H91	H	1.042386	-1.024217	-0.714605
H92	H	1.140595	-0.772803	-1.015607
O93	O	1.141895	-0.771597	-0.837248
C94	C	1.196192	-0.839704	-0.785894
H95	H	1.265150	-0.806617	-0.775757
H96	H	1.163356	-0.847027	-0.717749
H97	H	1.203975	-0.920537	-0.822649
H98	H	1.359106	-0.533153	-0.857308
H99	H	0.926210	-0.730302	-0.592502
H100	H	0.782063	-0.791208	-0.641817
H101	H	1.408528	-0.478921	-1.001486
