data_functionalizedCrystal
_audit_creation_method	'MofGen! by Chris Wilmer'
_symmetry_space_group_name_H-M	'P1'
_symmetry_Int_Tables_number	1
_symmetry_cell_setting	triclinic
loop_
_symmetry_equiv_pos_as_xyz
  x,y,z
_cell_length_a	14.519709
_cell_length_b	17.038272
_cell_length_c	12.996460
_cell_angle_alpha	89.993697
_cell_angle_beta	90.000034
_cell_angle_gamma	87.395851
loop_
_atom_site_label
_atom_site_type_symbol
_atom_site_fract_x
_atom_site_fract_y
_atom_site_fract_z
O1	O	1.231711	0.102503	-0.085433
O2	O	1.731711	0.602503	0.414567
O3	O	0.964158	0.114573	-0.085465
O4	O	1.464158	0.614573	0.414535
O5	O	1.096345	-0.005280	-0.085441
O6	O	1.596345	0.494720	0.414559
O7	O	1.099525	0.222356	-0.085457
O8	O	1.599525	0.722356	0.414543
O9	O	1.096329	-0.005287	0.085693
O10	O	1.596329	0.494713	0.585693
O11	O	0.964143	0.114567	0.085669
O12	O	1.464143	0.614567	0.585669
O13	O	1.231696	0.102496	0.085701
O14	O	1.731696	0.602496	0.585701
Cu15	Cu	1.097918	0.108531	0.101311
Cu16	Cu	1.597918	0.608531	0.601311
Cu17	Cu	1.097936	0.108539	-0.101075
Cu18	Cu	1.597936	0.608539	0.398925
O19	O	1.099510	0.222349	0.085677
O20	O	1.599510	0.722349	0.585677
C21	C	0.929748	0.114008	0.000098
C22	C	1.429748	0.614008	0.500098
C23	C	0.827237	0.112322	0.000086
C24	C	1.327237	0.612322	0.500086
C25	C	0.451867	0.106116	0.000134
C26	C	0.951867	0.606116	0.500134
C27	C	0.556307	0.107839	0.000120
C28	C	1.056307	0.607839	0.500120
C29	C	0.639549	0.109219	0.000109
C30	C	1.139549	0.609219	0.500109
C31	C	0.743995	0.110942	0.000098
C32	C	1.243995	0.610942	0.500098
C33	C	1.093444	-0.034416	0.000125
C34	C	1.593444	0.465584	0.500125
C35	C	1.084814	-0.121223	0.000124
C36	C	1.584814	0.378777	0.500124
C37	C	1.164047	-0.171209	0.000135
C38	C	1.664047	0.328791	0.500135
C39	C	1.155933	-0.252773	0.000124
C40	C	1.655933	0.247227	0.500124
C41	C	1.068585	-0.284349	0.000110
C42	C	1.568585	0.215651	0.500110
C43	C	0.989347	-0.234357	0.000097
C44	C	1.489347	0.265643	0.500097
C45	C	0.997462	-0.152795	0.000100
C46	C	1.497462	0.347205	0.500100
C47	C	1.039916	-0.530153	0.000093
C48	C	1.539916	-0.030153	0.500093
C49	C	1.031807	-0.611722	0.000092
C50	C	1.531807	-0.111722	0.500092
C51	C	1.198394	-0.630132	0.000118
C52	C	1.698394	-0.130132	0.500118
C53	C	1.206502	-0.548568	0.000127
C54	C	1.706502	-0.048568	0.500127
C55	C	1.127263	-0.498583	0.000108
C56	C	1.627263	0.001417	0.500108
C57	C	1.060289	-0.367720	0.000102
C58	C	1.560289	0.132280	0.500102
C59	C	1.135560	-0.415213	0.000109
C60	C	1.635560	0.084787	0.500109
C61	C	1.266107	0.103062	0.000135
C62	C	1.766107	0.603062	0.500135
C63	C	1.368617	0.104748	0.000141
C64	C	1.868617	0.604748	0.500141
C65	C	1.102410	0.251486	0.000108
C66	C	1.602410	0.751486	0.500108
C67	C	1.111040	0.338292	0.000103
C68	C	1.611040	0.838292	0.500103
N69	N	1.097912	0.108525	0.243658
N70	N	1.597912	0.608525	0.743658
N71	N	1.097949	0.108538	-0.243422
N72	N	1.597949	0.608538	0.256578
C73	C	1.097935	0.108539	0.663472
C74	C	1.597935	0.608539	1.163472
C75	C	1.097926	0.108538	0.546667
C76	C	1.597926	0.608538	1.046667
C77	C	1.097924	0.108533	0.453569
C78	C	1.597924	0.608533	0.953569
C79	C	1.097914	0.108530	0.336756
C80	C	1.597914	0.608530	0.836756
H81	H	1.220453	-0.293468	0.000135
H82	H	1.720453	0.206532	0.500135
H83	H	1.262906	-0.670838	0.000131
H84	H	1.762906	-0.170838	0.500131
H85	H	1.206678	-0.389500	0.000097
H86	H	1.706678	0.110500	0.500097
H87	H	1.277629	-0.522865	0.000139
H88	H	1.777629	-0.022865	0.500139
C89	C	0.936884	-0.645855	0.000012
C90	C	1.436884	-0.145855	0.500012
C91	C	0.869226	-0.584624	-0.000035
C92	C	1.369226	-0.084624	0.499965
C93	C	0.781779	-0.616038	-0.000124
C94	C	1.281779	-0.116038	0.499876
H95	H	0.930114	-0.677283	0.059672
H96	H	1.430114	-0.177283	0.559672
H97	H	0.930226	-0.677263	-0.059692
H98	H	1.430226	-0.177263	0.440308
H99	H	0.875882	-0.553229	0.059663
H100	H	1.375882	-0.053229	0.559663
H101	H	0.875967	-0.553190	-0.059691
H102	H	1.375967	-0.053190	0.440309
H103	H	0.775121	-0.647446	-0.059829
H104	H	1.275121	-0.147446	0.440171
H105	H	0.775018	-0.647466	0.059536
H106	H	1.275018	-0.147466	0.559536
H107	H	0.735863	-0.574498	-0.000166
H108	H	1.235863	-0.074498	0.499834
C109	C	1.258861	-0.136887	0.000360
C110	C	1.758861	0.363113	0.500360
C111	C	1.268393	-0.090626	0.088419
C112	C	1.768393	0.409374	0.588419
C113	C	1.355730	-0.059008	0.088664
C114	C	1.855730	0.440992	0.588664
H115	H	1.265591	-0.105393	-0.059247
H116	H	1.765591	0.394607	0.440753
H117	H	1.304915	-0.178321	0.000417
H118	H	1.804915	0.321679	0.500417
H119	H	1.222353	-0.049198	0.088353
H120	H	1.722353	0.450802	0.588353
H121	H	1.261682	-0.122102	0.148040
H122	H	1.761682	0.377898	0.648040
H123	H	1.401783	-0.100441	0.088722
H124	H	1.901783	0.399559	0.588722
H125	H	1.362451	-0.027517	0.029054
H126	H	1.862451	0.472483	0.529054
H127	H	1.362212	-0.027622	0.148416
H128	H	1.862212	0.472378	0.648416
C129	C	0.894569	-0.268746	-0.000079
C130	C	1.394569	0.231254	0.499921
C131	C	0.885062	-0.315043	-0.088110
C132	C	1.385062	0.184957	0.411890
C133	C	0.797769	-0.346741	-0.088297
C134	C	1.297769	0.153259	0.411703
H135	H	0.848455	-0.227375	-0.000139
H136	H	1.348455	0.272625	0.499861
H137	H	0.887924	-0.300229	0.059568
H138	H	1.387924	0.199771	0.559568
H139	H	0.891698	-0.283561	-0.147742
H140	H	1.391698	0.216439	0.352258
H141	H	0.931155	-0.356426	-0.088069
H142	H	1.431155	0.143574	0.411931
H143	H	0.791124	-0.378224	-0.028649
H144	H	1.291124	0.121776	0.471351
H145	H	0.751662	-0.305365	-0.088354
H146	H	1.251662	0.194635	0.411646
H147	H	0.791310	-0.378163	-0.148019
H148	H	1.291310	0.121837	0.351981
H149	H	0.932942	-0.112096	0.000091
H150	H	1.432942	0.387904	0.500091
H151	H	0.975394	-0.489465	0.000078
H152	H	1.475394	0.010535	0.500078
H153	H	0.989170	-0.393438	0.000093
H154	H	1.489170	0.106562	0.500093
