data_functionalizedCrystal
_audit_creation_method	'MofGen! by Chris Wilmer'
_symmetry_space_group_name_H-M	'P1'
_symmetry_Int_Tables_number	1
_symmetry_cell_setting	triclinic
loop_
_symmetry_equiv_pos_as_xyz
  x,y,z
_cell_length_a	16.992694
_cell_length_b	9.130307
_cell_length_c	16.992695
_cell_angle_alpha	90.003719
_cell_angle_beta	90.668223
_cell_angle_gamma	89.995907
loop_
_atom_site_label
_atom_site_type_symbol
_atom_site_fract_x
_atom_site_fract_y
_atom_site_fract_z
O1	O	1.050847	0.121617	0.166915
O2	O	0.822447	0.121660	0.165084
O3	O	0.935732	0.121627	0.051799
O4	O	0.937563	0.121650	0.280200
O5	O	0.935728	-0.121972	0.051798
O6	O	0.822443	-0.121939	0.165082
O7	O	1.050843	-0.121982	0.166914
Cu8	Cu	0.936643	-0.144203	0.165998
Cu9	Cu	0.936648	0.143881	0.166000
O10	O	0.937559	-0.121949	0.280198
C11	C	0.793085	-0.000134	0.162727
C12	C	0.705600	-0.000118	0.155699
N13	N	0.936645	-0.346826	0.165997
C14	C	0.659610	-0.000112	0.223517
C15	C	0.577409	-0.000133	0.216908
C16	C	0.541201	-0.000149	0.142480
C17	C	0.587198	-0.000159	0.074657
C18	C	0.669397	-0.000148	0.081267
C19	C	0.295886	-0.000191	0.115086
C20	C	0.213681	-0.000197	0.108481
C21	C	0.203898	-0.000173	0.250732
C22	C	0.286099	-0.000154	0.257336
C23	C	0.332089	-0.000172	0.189512
N24	N	0.457178	-0.000166	0.135723
N25	N	0.416110	-0.000166	0.196270
C26	C	1.037004	-0.346845	0.065717
C27	C	1.087189	-0.423521	0.015579
C28	C	1.087196	-0.576855	0.015579
C29	C	1.037013	-0.653515	0.065720
C30	C	0.986828	-0.576839	0.115858
C31	C	0.986827	-0.423502	0.115854
C32	C	0.886466	-0.576820	0.216132
C33	C	0.886461	-0.423486	0.216138
C34	C	0.836282	-0.653480	0.266273
C35	C	0.786101	-0.576804	0.316416
C36	C	0.786095	-0.423461	0.316415
C37	C	0.836277	-0.346810	0.266275
C38	C	1.080205	-0.000184	0.169270
C39	C	1.167690	-0.000191	0.176299
C40	C	0.933374	-0.000172	0.022439
C41	C	0.926345	-0.000170	-0.065046
N42	N	0.936651	0.346504	0.165995
C43	C	0.994163	-0.000184	-0.111037
C44	C	0.987554	-0.000169	-0.193238
C45	C	0.913127	-0.000150	-0.229446
C46	C	0.845303	-0.000131	-0.183449
C47	C	0.851913	-0.000136	-0.101250
C48	C	0.885732	-0.000125	-0.474760
C49	C	0.879127	-0.000124	-0.556966
C50	C	1.021379	-0.000159	-0.566749
C51	C	1.027982	-0.000173	-0.484547
C52	C	0.960159	-0.000146	-0.438558
N53	N	0.906369	-0.000139	-0.313468
N54	N	0.966917	-0.000147	-0.354537
C55	C	0.939917	-0.000147	0.309559
C56	C	0.946945	-0.000139	0.397044
H57	H	0.689084	-0.000098	0.284124
O58	O	0.836198	-0.197863	0.266397
C59	C	0.781129	-0.146617	0.321384
H60	H	0.770330	-0.234968	0.367411
H61	H	0.805093	-0.044029	0.351466
H62	H	0.723434	-0.119415	0.289739
H63	H	0.830505	-0.000104	-0.437325
O64	O	0.773064	-0.000177	-0.218746
C65	C	0.781771	-0.000145	-0.301159
H66	H	0.841992	-0.046275	-0.316594
H67	H	0.733834	-0.070859	-0.329275
H68	H	0.776526	0.116723	-0.324250
O69	O	0.159340	-0.000103	0.316691
C70	C	0.208925	-0.000127	0.383799
H71	H	0.268951	0.045997	0.367658
H72	H	0.181749	0.070597	0.431635
H73	H	0.216172	-0.116991	0.406370
H74	H	0.184203	-0.000208	0.047870
H75	H	0.796688	-0.000124	-0.063804
H76	H	0.539966	-0.000126	0.272133
O77	O	0.340437	-0.000137	0.049125
C78	C	0.290848	-0.000186	-0.017981
H79	H	0.230819	0.045936	-0.001838
H80	H	0.318015	0.070528	-0.065819
H81	H	0.283614	-0.117057	-0.040550
H82	H	0.706842	-0.000152	0.026042
O83	O	1.037077	-0.197898	0.065598
C84	C	1.092146	-0.146678	0.010612
H85	H	1.102947	-0.235042	-0.035415
H86	H	1.068180	-0.044092	-0.019471
H87	H	1.149840	-0.119480	0.042258
H88	H	1.054770	-0.000209	-0.081563
H89	H	1.128047	-0.361091	-0.025247
H90	H	1.076596	-0.000178	-0.604202
O91	O	0.552116	0.000023	0.002315
C92	C	0.575157	0.126201	-0.039330
H93	H	0.633446	0.168266	-0.014309
H94	H	0.582447	0.097821	-0.104171
H95	H	0.528212	0.214543	-0.033189
O96	O	0.836163	-0.802427	0.266348
C97	C	0.781125	-0.853642	0.321367
H98	H	0.735089	-0.765275	0.332123
H99	H	0.751064	-0.956228	0.297376
H100	H	0.812718	-0.880838	0.379091
O101	O	1.136014	-0.651118	-0.033152
C102	C	1.180287	-0.550587	-0.077428
H103	H	1.183199	-0.441278	-0.045100
H104	H	1.242398	-0.594903	-0.085461
H105	H	1.151065	-0.534287	-0.137523
H106	H	1.042779	-0.000184	-0.230680
H107	H	0.315574	-0.000124	0.317942
H108	H	1.037015	-0.778367	0.065710
O109	O	0.737242	-0.651206	0.365030
C110	C	0.658519	-0.613704	0.347311
H111	H	0.654195	-0.571544	0.284264
H112	H	0.619582	-0.714541	0.353855
H113	H	0.638123	-0.524704	0.389485
O114	O	0.737430	-0.349048	0.365233
C115	C	0.755083	-0.386543	0.443969
H116	H	0.818132	-0.428694	0.448347
H117	H	0.748493	-0.285704	0.482905
H118	H	0.712900	-0.475548	0.464322
H119	H	1.088589	-0.000189	-0.455073
H120	H	0.818517	-0.000133	-0.586443
