data_functionalizedCrystal
_audit_creation_method	'MofGen! by Chris Wilmer'
_symmetry_space_group_name_H-M	'P1'
_symmetry_Int_Tables_number	1
_symmetry_cell_setting	triclinic
loop_
_symmetry_equiv_pos_as_xyz
  x,y,z
_cell_length_a	10.686220
_cell_length_b	12.645330
_cell_length_c	10.686551
_cell_angle_alpha	94.404096
_cell_angle_beta	89.691918
_cell_angle_gamma	94.399208
loop_
_atom_site_label
_atom_site_type_symbol
_atom_site_fract_x
_atom_site_fract_y
_atom_site_fract_z
Zn1	Zn	1.972274	-0.258449	0.562395
Zn2	Zn	1.956034	-0.450325	0.352642
Zn3	Zn	1.746391	-0.285568	0.368713
Zn4	Zn	1.762464	-0.448176	0.578420
O5	O	1.859291	-0.360629	0.465542
O6	O	2.145662	-0.273452	0.521138
O7	O	1.914701	-0.440718	0.179229
O8	O	1.776424	-0.133617	0.394424
O9	O	2.133731	-0.414422	0.367034
O10	O	1.942379	-0.113693	0.536721
O11	O	1.760677	-0.319671	0.191036
O12	O	1.572980	-0.317588	0.409963
O13	O	1.803819	-0.410760	0.751839
O14	O	1.584790	-0.437056	0.564034
O15	O	1.957965	-0.271369	0.740065
O16	O	1.930287	-0.598393	0.382573
O17	O	1.788072	-0.596814	0.548451
C18	C	1.533369	-0.380032	0.490482
C19	C	1.393940	-0.388356	0.501181
C20	C	1.859198	-0.636066	0.465532
C21	C	1.859276	-0.753889	0.465560
C22	C	1.770231	-0.920460	0.570182
C23	C	1.769713	-0.797951	0.569908
C24	C	1.813339	-0.809805	0.336095
C25	C	1.812795	-0.932397	0.336731
C26	C	1.994766	-0.910703	0.489286
C27	C	1.994173	-0.787944	0.492239
C28	C	2.186485	-0.341151	0.440506
C29	C	2.325916	-0.332851	0.429837
C30	C	1.884497	-0.337800	0.792742
C31	C	1.895238	-0.328071	0.932175
C32	C	1.859420	-0.084114	0.465578
C33	C	1.859475	0.033721	0.465593
C34	C	1.834255	-0.383289	0.139610
C35	C	1.823757	-0.392705	0.000159
H36	H	1.799630	-0.759649	0.666223
H37	H	1.374344	-0.278963	0.360569
H38	H	1.345505	-0.442255	0.570445
H39	H	1.799967	-0.941713	0.666835
C40	C	1.729974	-0.477517	0.934695
C41	C	1.588735	-0.476122	0.963505
C42	C	1.494951	-0.560936	0.898032
C43	C	1.542407	-0.647145	0.803749
C44	C	1.683654	-0.648544	0.774935
C45	C	1.777437	-0.563730	0.840408
H46	H	1.553599	-0.412302	1.033303
H47	H	1.390391	-0.559900	0.919363
H48	H	1.472983	-0.709929	0.755282
H49	H	1.718789	-0.712364	0.705136
H50	H	1.881997	-0.564765	0.819077
C51	C	1.635869	-0.972150	0.550396
C52	C	1.606927	-1.055699	0.439773
C53	C	1.472568	-1.107394	0.419985
C54	C	1.367150	-1.075540	0.510821
C55	C	1.396089	-0.991987	0.621452
C56	C	1.530448	-0.940292	0.641239
H57	H	1.684966	-1.079282	0.372524
H58	H	1.451146	-1.169245	0.338089
H59	H	1.267689	-1.113808	0.496173
H60	H	1.318050	-0.968403	0.688701
H61	H	1.551870	-0.878440	0.723136
C62	C	1.634498	-0.768471	0.549780
C63	C	1.526653	-0.856462	0.533898
C64	C	1.391431	-0.826983	0.513766
C65	C	1.364053	-0.709513	0.509516
C66	C	1.471901	-0.621514	0.525398
C67	C	1.607123	-0.650993	0.545530
H68	H	1.546916	-0.943428	0.537043
H69	H	1.311595	-0.892127	0.502009
H70	H	1.263954	-0.687691	0.494614
H71	H	1.451637	-0.534549	0.522253
H72	H	1.686959	-0.585850	0.557287
H73	H	1.713595	-0.968862	0.315479
H74	H	1.964663	-0.265293	0.980646
H75	H	2.061379	-0.940317	0.412986
C76	C	1.896020	-0.974082	0.228585
C77	C	1.962759	-0.895814	0.141917
C78	C	2.045966	-0.937495	0.033762
C79	C	2.062432	-1.057444	0.012273
C80	C	1.995691	-1.135719	0.098942
C81	C	1.912485	-1.094038	0.207098
H82	H	1.950571	-0.807013	0.157823
H83	H	2.095372	-0.879549	-0.030397
H84	H	2.124027	-1.088299	-0.067791
H85	H	2.007879	-1.224520	0.083037
H86	H	1.863078	-1.151984	0.271257
C87	C	1.680632	-0.778936	0.306577
C88	C	1.656993	-0.661414	0.295479
C89	C	1.524283	-0.630548	0.265970
C90	C	1.415214	-0.717204	0.247558
C91	C	1.438851	-0.834734	0.258655
C92	C	1.571560	-0.865600	0.288165
H93	H	1.737735	-0.597259	0.309109
H94	H	1.506786	-0.543544	0.257755
H95	H	1.316975	-0.694355	0.225713
H96	H	1.358108	-0.898890	0.245026
H97	H	1.589057	-0.952604	0.296380
H98	H	2.034687	-0.933015	0.581551
C99	C	1.897750	-0.771910	0.228537
C100	C	2.009642	-0.689556	0.257080
C101	C	2.094055	-0.651660	0.149524
C102	C	2.066574	-0.696119	0.013424
C103	C	1.954677	-0.778478	-0.015126
C104	C	1.870264	-0.816374	0.092430
H105	H	2.029990	-0.656641	0.357835
H106	H	2.176889	-0.590692	0.170659
H107	H	2.129062	-0.668066	-0.066196
H108	H	1.934329	-0.811393	-0.115882
H109	H	1.787430	-0.877342	0.071295
H110	H	2.028631	-0.750422	0.587469
H111	H	2.064979	-0.757335	0.420802
