data_functionalizedCrystal
_audit_creation_method	'MofGen! by Chris Wilmer'
_symmetry_space_group_name_H-M	'P1'
_symmetry_Int_Tables_number	1
_symmetry_cell_setting	triclinic
loop_
_symmetry_equiv_pos_as_xyz
  x,y,z
_cell_length_a	18.101395
_cell_length_b	18.101398
_cell_length_c	16.625539
_cell_angle_alpha	89.984040
_cell_angle_beta	90.027648
_cell_angle_gamma	89.970320
loop_
_atom_site_label
_atom_site_type_symbol
_atom_site_fract_x
_atom_site_fract_y
_atom_site_fract_z
Zn1	Zn	-0.294856	-1.132133	0.455814
Zn2	Zn	0.205144	-0.632133	0.955814
Zn3	Zn	-0.418706	-1.132025	0.320983
Zn4	Zn	0.081294	-0.632025	0.820983
Zn5	Zn	-0.294879	-1.008288	0.321005
Zn6	Zn	0.205121	-0.508288	0.821005
Zn7	Zn	-0.418658	-1.008242	0.455783
Zn8	Zn	0.081342	-0.508242	0.955783
O9	O	-0.356775	-1.070172	0.388396
O10	O	0.143225	-0.570172	0.888396
O11	O	-0.311296	-1.235751	0.437932
O12	O	0.188704	-0.735751	0.937932
O13	O	-0.402309	-1.115585	0.208153
O14	O	0.097691	-0.615585	0.708153
O15	O	-0.191243	-1.024780	0.338910
O16	O	0.308757	-0.524780	0.838910
O17	O	-0.402287	-1.235672	0.338872
O18	O	0.097713	-0.735672	0.838872
O19	O	-0.191227	-1.115769	0.437953
O20	O	0.308773	-0.615769	0.937953
O21	O	-0.311335	-1.024676	0.208170
O22	O	0.188665	-0.524676	0.708170
O23	O	-0.311288	-0.904649	0.338881
O24	O	0.188712	-0.404649	0.838881
O25	O	-0.402206	-1.024702	0.568620
O26	O	0.097794	-0.524702	1.068620
O27	O	-0.402228	-0.904615	0.437901
O28	O	0.097772	-0.404615	0.937901
O29	O	-0.311249	-1.115724	0.568642
O30	O	0.188751	-0.615724	1.068642
O31	O	-0.522332	-1.115541	0.338842
O32	O	-0.022332	-0.615541	0.838842
O33	O	-0.522297	-1.024598	0.437879
O34	O	-0.022297	-0.524598	0.937879
C35	C	-0.356756	-0.877761	0.388391
C36	C	0.143244	-0.377761	0.888391
C37	C	-0.356765	-0.795447	0.388407
C38	C	0.143235	-0.295447	0.888407
C39	C	-0.356780	-0.644739	0.388406
C40	C	0.143220	-0.144739	0.888406
C41	C	-0.414085	-0.613389	0.450611
C42	C	0.085915	-0.113389	0.950611
C43	C	-0.414318	-0.527770	0.450426
C44	C	0.085682	-0.027770	0.950426
C45	C	-0.356795	-0.496356	0.388406
C46	C	0.143205	0.003644	0.888406
C47	C	-0.377623	-0.527407	0.303328
C48	C	0.122377	-0.027407	0.803328
C49	C	-0.378030	-0.613052	0.303688
C50	C	0.121970	-0.113052	0.803688
C51	C	-0.278506	-0.613218	0.410536
C52	C	0.221494	-0.113218	0.910536
C53	C	-0.278936	-0.527568	0.412410
C54	C	0.221064	-0.027568	0.912410
C55	C	-0.356802	-0.412497	0.388401
C56	C	0.143198	0.087503	0.888401
C57	C	-0.356775	-0.728598	0.388405
C58	C	0.143225	-0.228598	0.888405
C59	C	-0.549185	-1.070073	0.388373
C60	C	-0.049185	-0.570073	0.888373
C61	C	-0.631499	-1.070098	0.388389
C62	C	-0.131499	-0.570098	0.888389
C63	C	-0.930590	-1.070261	0.388433
C64	C	-0.430590	-0.570261	0.888433
C65	C	-0.899274	-1.013175	0.450899
C66	C	-0.399274	-0.513175	0.950899
C67	C	-0.813656	-1.012903	0.450704
C68	C	-0.313656	-0.512903	0.950704
C69	C	-0.782208	-1.070180	0.388412
C70	C	-0.282208	-0.570180	0.888412
C71	C	-0.813359	-1.049049	0.303436
C72	C	-0.313359	-0.549049	0.803436
C73	C	-0.899004	-1.048681	0.303810
C74	C	-0.399004	-0.548681	0.803810
C75	C	-0.898936	-1.148603	0.410195
C76	C	-0.398936	-0.648603	0.910195
C77	C	-0.813285	-1.148142	0.412058
C78	C	-0.313285	-0.648142	0.912058
C79	C	-0.698348	-1.070136	0.388395
C80	C	-0.198348	-0.570136	0.888395
C81	C	-1.014450	-1.070303	0.388444
C82	C	-0.514450	-0.570303	0.888444
C83	C	-0.163613	-1.070292	0.388438
C84	C	0.336387	-0.570292	0.888438
C85	C	-0.081299	-1.070343	0.388455
C86	C	0.418701	-0.570343	0.888455
C87	C	-0.356720	-1.070220	0.598705
C88	C	0.143280	-0.570220	1.098705
C89	C	-0.356696	-1.070241	0.688326
C90	C	0.143304	-0.570241	1.188326
C91	C	-0.356796	-0.263334	0.388402
C92	C	0.143204	0.236666	0.888402
C93	C	-0.356810	-0.345648	0.388405
C94	C	0.143190	0.154352	0.888405
C95	C	-0.356776	-1.070167	0.178905
C96	C	0.143224	-0.570167	0.678905
C97	C	-0.356591	-1.070290	0.089285
C98	C	0.143409	-0.570290	0.589285
C99	C	-0.356613	-1.070275	1.016502
C100	C	0.143387	-0.570275	1.516502
C101	C	-0.356639	-1.070263	0.925194
C102	C	0.143361	-0.570263	1.425194
C103	C	-0.356655	-1.070258	0.852417
C104	C	0.143345	-0.570258	1.352417
C105	C	-0.356679	-1.070246	0.761103
C106	C	0.143321	-0.570246	1.261103
H107	H	-0.338076	-0.633790	0.255750
H108	H	0.161924	-0.133790	0.755750
C109	C	-0.927122	-1.030785	0.536278
C110	C	-0.427122	-0.530785	1.036278
H111	H	-0.958091	-1.073115	0.534598
H112	H	-0.458091	-0.573115	1.034598
H113	H	-0.886170	-1.040214	0.570532
H114	H	-0.386170	-0.540214	1.070532
H115	H	-0.954330	-0.989872	0.556367
H116	H	-0.454330	-0.489872	1.056367
H117	H	-0.920859	-0.955459	0.436666
H118	H	-0.420859	-0.455459	0.936666
C119	C	-0.220828	-0.640611	0.349347
C120	C	0.279172	-0.140611	0.849347
H121	H	-0.173645	-0.621378	0.363030
H122	H	0.326355	-0.121378	0.863030
H123	H	-0.219104	-0.693055	0.350257
H124	H	0.280896	-0.193055	0.850257
H125	H	-0.234152	-0.624287	0.296999
H126	H	0.265848	-0.124287	0.796999
C127	C	-0.784376	-1.208640	0.355067
C128	C	-0.284376	-0.708640	0.855067
H129	H	-0.752838	-1.187046	0.315928
H130	H	-0.252838	-0.687046	0.815928
H131	H	-0.757576	-1.244355	0.385129
H132	H	-0.257576	-0.744355	0.885129
H133	H	-0.824889	-1.231832	0.328962
H134	H	-0.324889	-0.731832	0.828962
H135	H	-0.920484	-1.167868	0.471103
H136	H	-0.420484	-0.667868	0.971103
C137	C	-0.785843	-1.103441	0.238840
C138	C	-0.285843	-0.603441	0.738840
H139	H	-0.805335	-1.089645	0.187937
H140	H	-0.305335	-0.589645	0.687937
H141	H	-0.733412	-1.102272	0.236835
H142	H	-0.233412	-0.602272	0.736835
H143	H	-0.801821	-1.151967	0.251892
H144	H	-0.301821	-0.651967	0.751892
C145	C	-0.785196	-1.030737	0.535828
C146	C	-0.285196	-0.530737	1.035828
H147	H	-0.825977	-1.038212	0.570840
H148	H	-0.325977	-0.538212	1.070840
H149	H	-0.755893	-1.074260	0.534185
H150	H	-0.255893	-0.574260	1.034185
H151	H	-0.756171	-0.990721	0.554984
H152	H	-0.256171	-0.490721	1.054984
H153	H	-0.919187	-1.191134	0.364698
H154	H	-0.419187	-0.691134	0.864698
C155	C	-0.786058	-0.934462	0.431220
C156	C	-0.286058	-0.434462	0.931220
H157	H	-0.827191	-0.902638	0.423387
H158	H	-0.327191	-0.402638	0.923387
H159	H	-0.756909	-0.916672	0.474608
H160	H	-0.256909	-0.416672	0.974608
H161	H	-0.757058	-0.935679	0.383629
H162	H	-0.257058	-0.435679	0.883629
H163	H	-0.791973	-0.992387	0.284670
H164	H	-0.291973	-0.492387	0.784670
H165	H	-0.401243	-0.634011	0.513880
H166	H	0.098757	-0.134011	1.013880
C167	C	-0.491997	-0.642416	0.431029
C168	C	0.008003	-0.142416	0.931029
H169	H	-0.526278	-0.623216	0.468900
H170	H	-0.026278	-0.123216	0.968900
H171	H	-0.505682	-0.627107	0.378434
H172	H	-0.005682	-0.127107	0.878434
H173	H	-0.492096	-0.694842	0.433688
H174	H	0.007904	-0.194842	0.933688
C175	C	-0.926083	-0.971317	0.278914
C176	C	-0.426083	-0.471317	0.778914
H177	H	-0.884741	-0.940408	0.268671
H178	H	-0.384741	-0.440408	0.768671
H179	H	-0.955336	-0.975107	0.231645
H180	H	-0.455336	-0.475107	0.731645
H181	H	-0.954867	-0.950701	0.321081
H182	H	-0.454867	-0.450701	0.821081
C183	C	-0.492674	-0.500041	0.430583
C184	C	0.007326	-0.000041	0.930583
H185	H	-0.524486	-0.541120	0.422595
H186	H	-0.024486	-0.041120	0.922595
H187	H	-0.510613	-0.470901	0.473891
H188	H	-0.010613	0.029099	0.973891
H189	H	-0.491266	-0.471004	0.383001
H190	H	0.008734	0.028996	0.883001
C191	C	-0.926998	-1.102398	0.238783
C192	C	-0.426998	-0.602398	0.738783
H193	H	-0.886025	-1.124344	0.212250
H194	H	-0.386025	-0.624344	0.712250
H195	H	-0.956110	-1.139850	0.263189
H196	H	-0.456110	-0.639850	0.763189
H197	H	-0.956118	-1.076127	0.200776
H198	H	-0.456118	-0.576127	0.700776
H199	H	-0.233986	-0.506186	0.370442
H200	H	0.266014	-0.006186	0.870442
C201	C	-0.785767	-1.169680	0.496534
C202	C	-0.285767	-0.669680	0.996534
H203	H	-0.755462	-1.131326	0.517310
H204	H	-0.255462	-0.631326	1.017310
H205	H	-0.826899	-1.176903	0.531110
H206	H	-0.326899	-0.676903	1.031110
H207	H	-0.757946	-1.214094	0.493291
H208	H	-0.257946	-0.714094	0.993291
H209	H	-0.337164	-0.507059	0.255708
H210	H	0.162836	-0.007059	0.755708
C211	C	-0.454064	-0.498397	0.277628
C212	C	0.045936	0.001603	0.777628
H213	H	-0.473387	-0.467370	0.318624
H214	H	0.026613	0.032630	0.818624
H215	H	-0.449442	-0.471030	0.229131
H216	H	0.050558	0.028970	0.729131
H217	H	-0.486529	-0.538899	0.269290
H218	H	0.013471	-0.038899	0.769290
H219	H	-0.401325	-0.506777	0.513500
H220	H	0.098675	-0.006777	1.013500
H221	H	-0.259477	-0.634846	0.471529
H222	H	0.240523	-0.134846	0.971529
C223	C	-0.455312	-0.639996	0.278429
C224	C	0.044688	-0.139996	0.778429
H225	H	-0.486164	-0.598599	0.268049
H226	H	0.013836	-0.098599	0.768049
H227	H	-0.451359	-0.669216	0.231173
H228	H	0.048641	-0.169216	0.731173
H229	H	-0.476099	-0.668783	0.320495
H230	H	0.023901	-0.168783	0.820495
H231	H	-0.263224	-0.507277	0.475023
H232	H	0.236776	-0.007277	0.975023
