data_functionalizedCrystal
_audit_creation_method	'MofGen! by Chris Wilmer'
_symmetry_space_group_name_H-M	'P1'
_symmetry_Int_Tables_number	1
_symmetry_cell_setting	triclinic
loop_
_symmetry_equiv_pos_as_xyz
  x,y,z
_cell_length_a	8.597249
_cell_length_b	19.288865
_cell_length_c	18.366186
_cell_angle_alpha	90.011479
_cell_angle_beta	82.289508
_cell_angle_gamma	95.758998
loop_
_atom_site_label
_atom_site_type_symbol
_atom_site_fract_x
_atom_site_fract_y
_atom_site_fract_z
O1	O	2.081760	-0.103678	-0.191152
O2	O	1.624760	-0.111628	-0.162485
O3	O	1.866465	-0.006631	-0.177632
O4	O	1.840055	-0.208675	-0.176005
O5	O	1.866424	-0.006625	-0.056530
O6	O	1.624719	-0.111622	-0.041384
O7	O	2.081719	-0.103672	-0.070050
Zn8	Zn	1.853212	-0.107646	-0.036489
Zn9	Zn	1.853266	-0.107654	-0.196046
O10	O	1.840014	-0.208670	-0.054903
C11	C	1.566273	-0.110771	-0.098267
C12	C	1.392060	-0.108217	-0.087338
C13	C	1.865595	0.019256	-0.117026
C14	C	1.863044	0.096380	-0.116860
C15	C	2.140206	-0.104529	-0.134270
C16	C	2.314419	-0.107083	-0.145203
C17	C	1.840884	-0.234556	-0.115511
C18	C	1.843435	-0.311680	-0.115682
N19	N	1.853187	-0.107641	0.072404
C20	C	2.004865	0.139916	-0.125752
C21	C	2.002469	0.212383	-0.125613
C22	C	1.858243	0.241310	-0.116567
C23	C	1.716402	0.197764	-0.107677
C24	C	1.718803	0.125299	-0.107824
C25	C	1.744850	0.350527	-0.067036
C26	C	1.742455	0.422991	-0.066885
C27	C	1.850832	0.464817	-0.116118
C28	C	1.961631	0.434170	-0.165494
C29	C	1.964032	0.361705	-0.165641
C30	C	1.855624	0.319886	-0.116408
C31	C	1.990065	0.586930	-0.124862
C32	C	1.987663	0.659398	-0.124727
C33	C	1.701592	0.644777	-0.106784
C34	C	1.703999	0.572311	-0.106926
C35	C	1.848239	0.543392	-0.115962
N36	N	1.853304	-0.107654	-0.304940
C37	C	1.960249	-0.061172	0.103795
C38	C	1.960259	-0.061169	0.180022
C39	C	1.853222	-0.107647	0.224854
C40	C	1.746140	-0.154120	0.193455
C41	C	1.746123	-0.154117	0.117230
C42	C	1.832213	-0.170763	0.346923
C43	C	1.832241	-0.170767	0.423147
C44	C	1.853266	-0.107656	0.459959
C45	C	1.874297	-0.044539	0.420537
C46	C	1.874279	-0.044536	0.344311
C47	C	1.853228	-0.107655	0.307509
C48	C	1.960345	-0.061180	0.574004
C49	C	1.960344	-0.061175	0.650233
C50	C	1.746233	-0.154133	0.663665
C51	C	1.746226	-0.154131	0.587437
C52	C	1.853291	-0.107655	0.542611
H53	H	2.325252	-0.107241	-0.029438
O54	O	1.894434	0.016737	0.305962
C55	C	1.784203	0.092774	0.226905
C56	C	1.761223	0.023352	0.270281
H57	H	1.676507	0.098152	0.198058
H58	H	1.893790	0.093730	0.184270
H59	H	1.799289	0.137864	0.266322
H60	H	1.746068	-0.021776	0.230921
H61	H	1.651665	0.022457	0.312925
H62	H	1.659075	-0.191974	0.700167
O63	O	1.642178	-0.199344	0.557055
C64	C	1.429752	-0.291516	0.578428
C65	C	1.547536	-0.240360	0.612928
H66	H	1.353181	-0.324680	0.623586
H67	H	1.497168	-0.326738	0.538514
H68	H	1.351635	-0.260961	0.547638
H69	H	1.625683	-0.270857	0.643755
H70	H	1.480022	-0.205137	0.652802
O71	O	2.071492	0.331958	-0.213708
C72	C	2.172235	0.314895	-0.340617
C73	C	2.050434	0.348607	-0.286260
H74	H	2.155273	0.328355	-0.399287
H75	H	2.155334	0.255911	-0.332328
H76	H	2.296356	0.335502	-0.330471
H77	H	1.926262	0.328056	-0.296373
H78	H	2.067473	0.407589	-0.294561
O79	O	2.393862	-0.108281	-0.214334
C80	C	2.376991	-0.107999	-0.344240
C81	C	2.286825	-0.106655	-0.265993
H82	H	2.290496	-0.106670	-0.386028
H83	H	2.438887	-0.157611	-0.351436
H84	H	2.468378	-0.060655	-0.353183
H85	H	2.195363	-0.153965	-0.256997
H86	H	2.225037	-0.057012	-0.258835
H87	H	1.815065	-0.222159	0.316959
O88	O	2.145114	0.111940	-0.134575
C89	C	2.428597	0.134092	-0.152304
C90	C	2.269879	0.165869	-0.142336
H91	H	2.529511	0.177678	-0.158566
H92	H	2.437007	0.100545	-0.203521
H93	H	2.436764	0.100518	-0.102146
H94	H	2.261604	0.199474	-0.192452
H95	H	2.261536	0.199375	-0.091089
H96	H	2.049882	0.468223	-0.205585
O97	O	1.811728	-0.232137	0.461330
C98	C	1.770087	-0.357339	0.455868
C99	C	1.793265	-0.287886	0.412541
H100	H	1.755187	-0.402431	0.416438
H101	H	1.660381	-0.358304	0.498433
H102	H	1.877660	-0.362697	0.484810
H103	H	1.685782	-0.282483	0.383554
H104	H	1.903033	-0.286952	0.370018
H105	H	2.117961	0.247837	-0.132858
H106	H	2.047444	-0.023326	0.205585
O107	O	2.130310	0.558947	-0.133693
C108	C	2.413794	0.581094	-0.151446
C109	C	2.255080	0.612874	-0.141465
H110	H	2.514712	0.624679	-0.157717
H111	H	2.422182	0.547545	-0.202662
H112	H	2.421979	0.547522	-0.101289
H113	H	2.246788	0.646478	-0.191581
H114	H	2.246760	0.646382	-0.090220
H115	H	1.658986	-0.191962	0.229962
O116	O	2.125331	0.701764	-0.133266
C117	C	2.288648	0.792054	-0.080757
C118	C	2.132665	0.744125	-0.070999
H119	H	2.294643	0.826305	-0.030417
H120	H	2.294718	0.826379	-0.131789
H121	H	2.392122	0.758921	-0.087274
H122	H	2.029103	0.777203	-0.064452
H123	H	2.126733	0.709797	-0.019981
O124	O	1.566272	0.529988	-0.098411
C125	C	1.403024	0.439647	-0.150883
C126	C	1.559049	0.487548	-0.160624
H127	H	1.397148	0.405311	-0.201167
H128	H	1.299467	0.472734	-0.144436
H129	H	1.396998	0.405399	-0.099800
H130	H	1.565229	0.521805	-0.211708
H131	H	1.662532	0.454419	-0.167028
H132	H	1.891417	0.006852	0.450508
O133	O	1.634685	0.452643	-0.018896
C134	C	1.417594	0.433908	0.078919
C135	C	1.539537	0.400238	0.024598
H136	H	1.340657	0.391556	0.114108
H137	H	1.340334	0.463918	0.047082
H138	H	1.481603	0.471189	0.115817
H139	H	1.475659	0.362926	-0.012313
H140	H	1.616792	0.370272	0.056480
O141	O	1.642065	-0.199329	0.086849
C142	C	1.429635	-0.291499	0.108219
C143	C	1.547416	-0.240343	0.142721
H144	H	1.353058	-0.324662	0.153376
H145	H	1.497054	-0.326722	0.068308
H146	H	1.351523	-0.260945	0.077426
H147	H	1.625558	-0.270841	0.173552
H148	H	1.479899	-0.205119	0.182592
H149	H	1.584160	0.668329	-0.099422
H150	H	1.656591	0.316478	-0.026940
H151	H	1.603311	0.089851	-0.100582
O152	O	1.576399	0.225943	-0.098992
C153	C	1.407656	0.299229	-0.151172
C154	C	1.566285	0.267378	-0.161091
H155	H	1.399413	0.332725	-0.201377
H156	H	1.399336	0.332846	-0.100006
H157	H	1.306726	0.255650	-0.144808
H158	H	1.667306	0.310912	-0.167487
H159	H	1.574467	0.233744	-0.212244
H160	H	2.047423	-0.023327	0.067299
O161	O	2.064389	-0.015963	0.530565
C162	C	2.276813	0.076210	0.525283
C163	C	2.159046	0.025051	0.574561
H164	H	2.353396	0.109373	0.560832
H165	H	2.209382	0.111432	0.493860
H166	H	2.354920	0.045658	0.484661
H167	H	2.080909	0.055547	0.615224
H168	H	2.226575	-0.010172	0.605931
H169	H	2.047522	-0.023331	0.675792
