data_functionalizedCrystal
_audit_creation_method	'MofGen! by Chris Wilmer'
_symmetry_space_group_name_H-M	'P1'
_symmetry_Int_Tables_number	1
_symmetry_cell_setting	triclinic
loop_
_symmetry_equiv_pos_as_xyz
  x,y,z
_cell_length_a	14.853567
_cell_length_b	13.330367
_cell_length_c	14.853559
_cell_angle_alpha	90.002448
_cell_angle_beta	83.633192
_cell_angle_gamma	90.004582
loop_
_atom_site_label
_atom_site_type_symbol
_atom_site_fract_x
_atom_site_fract_y
_atom_site_fract_z
O1	O	1.196365	0.083349	0.117704
O2	O	1.696365	0.583349	0.617704
O3	O	0.933905	0.083366	0.131725
O4	O	1.433905	0.583366	0.631725
O5	O	1.072150	0.083356	-0.006515
O6	O	1.572150	0.583356	0.493485
O7	O	1.058121	0.083359	0.255945
O8	O	1.558121	0.583359	0.755945
O9	O	1.072130	-0.083491	-0.006519
O10	O	1.572130	0.416509	0.493481
O11	O	0.933885	-0.083481	0.131722
O12	O	1.433885	0.416519	0.631722
O13	O	1.196345	-0.083498	0.117701
O14	O	1.696345	0.416502	0.617701
Cu15	Cu	1.065113	-0.098724	0.124711
Cu16	Cu	1.565113	0.401276	0.624711
Cu17	Cu	1.065137	0.098592	0.124715
Cu18	Cu	1.565137	0.598592	0.624715
O19	O	1.058100	-0.083488	0.255942
O20	O	1.558100	0.416512	0.755942
C21	C	0.900307	-0.000055	0.131089
C22	C	1.400307	0.499945	0.631089
C23	C	0.800223	-0.000049	0.129185
C24	C	1.300223	0.499951	0.629185
N25	N	1.065103	-0.237505	0.124708
N26	N	1.565103	0.262495	0.624708
C27	C	0.387692	-0.000072	0.039019
C28	C	0.887692	0.499928	0.539019
C29	C	0.366406	-0.000070	0.203252
C30	C	0.866406	0.499930	0.703252
C31	C	0.460440	-0.000066	0.205042
C32	C	0.960440	0.499934	0.705042
C33	C	0.518104	-0.000065	0.123819
C34	C	1.018104	0.499935	0.623819
C35	C	0.481735	-0.000066	0.040806
C36	C	0.981735	0.499934	0.540806
C37	C	0.496816	-0.000055	0.288054
C38	C	0.996816	0.499945	0.788054
C39	C	0.590855	-0.000050	0.289847
C40	C	1.090855	0.499950	0.789847
C41	C	0.648521	-0.000056	0.208623
C42	C	1.148521	0.499944	0.708623
C43	C	0.612147	-0.000058	0.125607
C44	C	1.112147	0.499942	0.625607
C45	C	0.669811	-0.000057	0.044384
C46	C	1.169811	0.499943	0.544384
C47	C	0.633438	-0.000067	-0.038633
C48	C	1.133438	0.499933	0.461367
C49	C	0.539401	-0.000072	-0.040418
C50	C	1.039401	0.499928	0.459582
C51	C	0.742559	-0.000051	0.210408
C52	C	1.242559	0.499949	0.710408
C53	C	0.763854	-0.000050	0.046172
C54	C	1.263854	0.499950	0.546172
C55	C	1.003920	-0.710124	0.185904
C56	C	1.503920	-0.210124	0.685904
C57	C	1.126379	-0.710101	0.063519
C58	C	1.626379	-0.210101	0.563519
C59	C	1.126369	-0.605082	0.063516
C60	C	1.626369	-0.105082	0.563516
C61	C	1.065134	-0.552580	0.124709
C62	C	1.565134	-0.052580	0.624709
C63	C	1.003909	-0.605096	0.185905
C64	C	1.503909	-0.105096	0.685905
C65	C	1.187598	-0.552559	0.002328
C66	C	1.687598	-0.052559	0.502328
C67	C	1.187591	-0.447534	0.002323
C68	C	1.687591	0.052466	0.502323
C69	C	1.126351	-0.395029	0.063513
C70	C	1.626351	0.104971	0.563513
C71	C	1.065124	-0.447552	0.124710
C72	C	1.565124	0.052448	0.624710
C73	C	1.003889	-0.395050	0.185903
C74	C	1.503889	0.104950	0.685903
C75	C	0.942656	-0.447570	0.247097
C76	C	1.442656	0.052430	0.747097
C77	C	0.942670	-0.552592	0.247094
C78	C	1.442670	-0.052592	0.747094
C79	C	1.126338	-0.290008	0.063515
C80	C	1.626338	0.209992	0.563515
C81	C	1.003879	-0.290021	0.185904
C82	C	1.503879	0.209979	0.685904
C83	C	1.229944	-0.000074	0.118338
C84	C	1.729944	0.499926	0.618338
C85	C	1.330027	-0.000074	0.120242
C86	C	1.830027	0.499926	0.620242
C87	C	1.071506	-0.000066	-0.040106
C88	C	1.571506	0.499934	0.459894
C89	C	1.069605	-0.000060	-0.140190
C90	C	1.569605	0.499940	0.359810
N91	N	1.065154	0.237374	0.124711
N92	N	1.565154	0.737374	0.624711
C93	C	1.061552	0.090889	-0.563363
C94	C	1.561552	0.590889	-0.063363
C95	C	1.061530	-0.091014	-0.563361
C96	C	1.561530	0.408986	-0.063361
C97	C	1.063323	-0.091015	-0.469328
C98	C	1.563323	0.408985	0.030672
C99	C	1.064230	-0.000062	-0.422308
C100	C	1.564230	0.499938	0.077692
C101	C	1.063343	0.090891	-0.469321
C102	C	1.563343	0.590891	0.030679
C103	C	1.064201	-0.181967	-0.422307
C104	C	1.564201	0.318033	0.077693
C105	C	1.065994	-0.181971	-0.328268
C106	C	1.565994	0.318029	0.171732
C107	C	1.066907	-0.091018	-0.281247
C108	C	1.566907	0.408982	0.218753
C109	C	1.066021	-0.000061	-0.328266
C110	C	1.566021	0.499939	0.171734
C111	C	1.066927	0.090892	-0.281245
C112	C	1.566927	0.590892	0.218755
C113	C	1.066047	0.181850	-0.328264
C114	C	1.566047	0.681850	0.171736
C115	C	1.064256	0.181845	-0.422300
C116	C	1.564256	0.681845	0.077700
C117	C	1.068698	-0.091012	-0.187210
C118	C	1.568698	0.408988	0.312790
C119	C	1.068718	0.090894	-0.187203
C120	C	1.568718	0.590894	0.312797
C121	C	1.058745	-0.000064	0.289532
C122	C	1.558745	0.499936	0.789532
C123	C	1.060646	-0.000063	0.389616
C124	C	1.560646	0.499937	0.889616
H125	H	0.810799	-0.000053	-0.019971
H126	H	1.310799	0.499947	0.480029
F127	F	0.694819	-0.000058	-0.125073
F128	F	1.194819	0.499942	0.374927
F129	F	1.069689	0.187700	-0.137169
F130	F	1.569689	0.687700	0.362831
H131	H	1.060839	0.164945	-0.601650
H132	H	1.560839	0.664945	-0.101650
F133	F	0.435442	-0.000042	0.374490
F134	F	0.935442	0.499958	0.874490
H135	H	1.060786	-0.165063	-0.601650
H136	H	1.560786	0.334937	-0.101650
H137	H	1.063539	0.255898	-0.460590
H138	H	1.563539	0.755898	0.039410
H139	H	0.892817	-0.595360	0.296917
H140	H	1.392817	-0.095360	0.796917
H141	H	0.319450	-0.000063	0.269380
H142	H	0.819450	0.499937	0.769380
F143	F	0.938699	-0.234153	0.251031
F144	F	1.438699	0.265847	0.751031
F145	F	0.877493	-0.391682	0.312227
F146	F	1.377493	0.108318	0.812227
H147	H	0.509777	-0.000103	-0.108006
H148	H	1.009777	0.499897	0.391994
F149	F	0.348982	-0.000088	-0.049330
F150	F	0.848982	0.499912	0.450670
H151	H	0.772169	-0.000044	0.277999
H152	H	1.272169	0.499956	0.777999
H153	H	1.063458	-0.256015	-0.460597
H154	H	1.563458	0.243985	0.039403
F155	F	1.069632	-0.187809	-0.137174
F156	F	1.569632	0.312191	0.362826
F157	F	0.629557	-0.000041	0.378200
F158	F	1.129557	0.499959	0.878200
F159	F	0.938751	-0.766018	0.251025
F160	F	1.438751	-0.266018	0.751025
F161	F	1.067014	0.278645	-0.278211
F162	F	1.567014	0.778645	0.221789
F163	F	1.252757	-0.391645	-0.062805
F164	F	1.752757	0.108355	0.437195
H165	H	1.066713	-0.256035	-0.289994
H166	H	1.566713	0.243965	0.210006
H167	H	1.176239	-0.752851	0.013702
H168	H	1.676239	-0.252851	0.513702
H169	H	1.237458	-0.595309	-0.047490
H170	H	1.737458	-0.095309	0.452510
H171	H	1.176197	-0.247250	0.013696
H172	H	1.676197	0.252750	0.513696
