data_functionalizedCrystal
_audit_creation_method	'MofGen! by Chris Wilmer'
_symmetry_space_group_name_H-M	'P1'
_symmetry_Int_Tables_number	1
_symmetry_cell_setting	triclinic
loop_
_symmetry_equiv_pos_as_xyz
  x,y,z
_cell_length_a	11.792241
_cell_length_b	12.837942
_cell_length_c	11.892095
_cell_angle_alpha	85.697431
_cell_angle_beta	93.921548
_cell_angle_gamma	89.511178
loop_
_atom_site_label
_atom_site_type_symbol
_atom_site_fract_x
_atom_site_fract_y
_atom_site_fract_z
O1	O	-1.527863	-0.135586	-0.093891
O2	O	-1.199010	-0.150236	-0.093918
O3	O	-1.356144	0.008033	-0.093898
O4	O	-1.370729	-0.293854	-0.093911
O5	O	-1.343041	-0.005143	0.094108
O6	O	-1.185906	-0.163411	0.094088
O7	O	-1.514760	-0.148761	0.094114
Zn8	Zn	-1.348253	-0.158178	0.123951
Zn9	Zn	-1.365517	-0.140819	-0.123755
O10	O	-1.357626	-0.307030	0.094095
C11	C	-1.150074	-0.155903	0.000082
C12	C	-1.023782	-0.153148	0.000072
C13	C	-1.344666	0.040093	0.000104
C14	C	-1.329972	0.155253	0.000101
C15	C	-1.563696	-0.143094	0.000112
C16	C	-1.689989	-0.145849	0.000115
C17	C	-0.792554	-0.148084	0.000105
C18	C	-0.921226	-0.150898	0.000087
C19	C	-1.369104	-0.339090	0.000091
C20	C	-1.383798	-0.454249	0.000086
N21	N	-1.336478	-0.170025	0.293004
C22	C	-1.506619	0.395219	0.000091
C23	C	-1.492818	0.503423	0.000088
C24	C	-1.288572	0.479866	0.000084
C25	C	-1.302373	0.371663	0.000087
C26	C	-1.411399	0.329343	0.000092
C27	C	-1.425198	0.221137	0.000103
C28	C	-1.220954	0.197583	0.000091
C29	C	-1.207153	0.305787	0.000088
N30	N	-1.377300	-0.128964	-0.292807
C31	C	-1.459226	-0.046469	0.529667
C32	C	-1.451005	-0.054757	0.648008
C33	C	-1.311809	-0.194885	0.648029
C34	C	-1.320030	-0.186596	0.529688
C35	C	-1.393742	-0.112387	0.470511
C36	C	-1.401969	-0.104104	0.352168
C37	C	-1.262768	-0.244226	0.352191
C38	C	-1.254547	-0.252515	0.470532
H39	H	-1.513973	0.186683	0.000112
C40	C	-1.596087	0.575057	0.000266
C41	C	-1.587383	0.631113	0.096973
C42	C	-1.682490	0.697123	0.097165
H43	H	-1.663068	0.534479	0.000326
H44	H	-1.599513	0.622406	-0.065264
H45	H	-1.583969	0.583770	0.162486
H46	H	-1.520423	0.671712	0.096934
H47	H	-1.685916	0.744472	0.031635
H48	H	-1.749464	0.656536	0.097222
H49	H	-1.676592	0.735172	0.162774
H50	H	-1.595392	0.360762	0.000107
H51	H	-1.199808	0.514343	0.000067
C52	C	-1.482092	-0.023670	0.287826
C53	C	-1.562335	-0.074545	0.219861
C54	C	-1.636145	-0.000468	0.160575
H55	H	-1.439857	0.022992	0.241596
H56	H	-1.519983	0.014418	0.339950
H57	H	-1.524448	-0.112615	0.167743
H58	H	-1.604597	-0.121202	0.266063
H59	H	-1.674036	0.037620	0.212699
H60	H	-1.593901	0.046191	0.114352
H61	H	-1.690605	-0.034976	0.114462
H62	H	-1.519254	0.013949	0.481484
H63	H	-1.504327	-0.001079	0.696169
H64	H	-1.194528	-0.312932	0.518727
C65	C	-1.088876	0.351935	0.000143
C66	C	-1.097165	0.460794	0.000167
C67	C	-0.988229	0.503336	0.000237
H68	H	-1.053638	0.334066	-0.065398
H69	H	-1.044598	0.324830	0.065734
H70	H	-1.141426	0.487889	-0.065418
H71	H	-1.132384	0.478692	0.065703
H72	H	-0.943951	0.476231	0.065829
H73	H	-0.953000	0.485460	-0.065305
H74	H	-0.993838	0.577200	0.000264
H75	H	-1.251786	-0.255297	0.696226
C76	C	-1.117619	0.126027	-0.000144
C77	C	-1.126294	0.070007	-0.096879
C78	C	-1.031118	0.004092	-0.097137
H79	H	-1.114095	0.078647	0.065343
H80	H	-1.050692	0.166702	-0.000209
H81	H	-1.193203	0.029335	-0.096804
H82	H	-1.129802	0.117361	-0.162383
H83	H	-0.964191	0.044767	-0.097202
H84	H	-1.027602	-0.043282	-0.031645
H85	H	-1.036986	-0.033918	-0.162775
H86	H	-1.209450	-0.297904	0.304013
