data_functionalizedCrystal
_audit_creation_method	'MofGen! by Chris Wilmer'
_symmetry_space_group_name_H-M	'P1'
_symmetry_Int_Tables_number	1
_symmetry_cell_setting	triclinic
loop_
_symmetry_equiv_pos_as_xyz
  x,y,z
_cell_length_a	25.639242
_cell_length_b	19.805405
_cell_length_c	19.805399
_cell_angle_alpha	89.970699
_cell_angle_beta	90.027395
_cell_angle_gamma	89.978063
loop_
_atom_site_label
_atom_site_type_symbol
_atom_site_fract_x
_atom_site_fract_y
_atom_site_fract_z
Zn1	Zn	0.799297	0.269560	0.382853
Zn2	Zn	0.799231	0.382748	0.269661
Zn3	Zn	0.711865	0.269569	0.269662
Zn4	Zn	0.711837	0.382703	0.382792
O5	O	0.755557	0.326145	0.326242
O6	O	0.872453	0.284589	0.367863
O7	O	0.787626	0.367757	0.174945
O8	O	0.723502	0.174852	0.284703
O9	O	0.872405	0.367748	0.284701
O10	O	0.787738	0.174844	0.367863
O11	O	0.723439	0.284606	0.174945
O12	O	0.638696	0.284562	0.284644
O13	O	0.723454	0.367672	0.477517
O14	O	0.638675	0.367681	0.367760
O15	O	0.787711	0.284545	0.477561
O16	O	0.787599	0.477459	0.284643
O17	O	0.723391	0.477426	0.367760
C18	C	0.619715	0.326118	0.326196
C19	C	0.561601	0.326123	0.326193
C20	C	0.755499	0.502001	0.326209
C21	C	0.755521	0.577233	0.326218
C22	C	0.755587	0.326102	0.502785
C23	C	0.755599	0.326084	0.578017
C24	C	0.201236	0.369497	0.369480
C25	C	0.146631	0.369502	0.369490
O26	O	0.118393	0.406347	0.406256
N27	N	0.119318	0.326164	0.326286
C28	C	0.146612	0.282814	0.283073
O29	O	0.118366	0.245952	0.246326
C30	C	0.201216	0.282807	0.283067
C31	C	0.228526	0.326152	0.326269
C32	C	0.228546	0.412839	0.412679
C33	C	0.283147	0.412835	0.412667
C34	C	0.310437	0.369491	0.369456
C35	C	0.283126	0.326149	0.326257
C36	C	0.228508	0.239454	0.239858
C37	C	0.283116	0.239451	0.239855
C38	C	0.310426	0.282796	0.283057
C39	C	0.365017	0.282801	0.283034
N40	N	0.392330	0.326139	0.326239
C41	C	0.365040	0.369483	0.369450
C42	C	0.031942	0.282831	0.283092
C43	C	-0.022661	0.282841	0.283094
C44	C	-0.022638	0.369528	0.369513
C45	C	0.031966	0.369521	0.369506
C46	C	0.059255	0.326169	0.326296
C47	C	0.479705	0.369473	0.369421
C48	C	0.534311	0.369468	0.369404
C49	C	0.534283	0.282779	0.282988
C50	C	0.479682	0.282787	0.283003
C51	C	0.452395	0.326136	0.326225
O52	O	0.393290	0.245973	0.246290
O53	O	0.393293	0.406333	0.406197
C54	C	0.891930	0.326172	0.326289
C55	C	0.950044	0.326184	0.326308
C56	C	0.755631	0.149602	0.326290
C57	C	0.755662	0.074370	0.326310
C58	C	0.788987	0.612572	0.282984
C59	C	0.789009	0.683260	0.282999
C60	C	0.755563	0.718609	0.326245
C61	C	0.722095	0.683265	0.369483
C62	C	0.722076	0.612578	0.369471
C63	C	0.722173	0.968338	0.369534
C64	C	0.722193	1.039030	0.369541
C65	C	0.789105	1.039021	0.283061
C66	C	0.789086	0.968334	0.283049
C67	C	0.755621	0.932996	0.326290
C68	C	0.755598	0.856348	0.326274
C69	C	0.755583	0.795256	0.326258
C70	C	0.755558	0.326139	0.150386
C71	C	0.755647	0.325966	0.075154
C72	C	0.789058	0.282798	0.613385
C73	C	0.789064	0.282779	0.684074
C74	C	0.755612	0.326049	0.719393
C75	C	0.722149	0.369337	0.684019
C76	C	0.722142	0.369352	0.613332
C77	C	0.722179	0.369274	0.969093
C78	C	0.722190	0.369256	1.039785
C79	C	0.789101	0.282700	1.039834
C80	C	0.789093	0.282716	0.969147
C81	C	0.755629	0.326001	0.933780
C82	C	0.755623	0.326020	0.857132
C83	C	0.755621	0.326033	0.796040
H84	H	0.556544	0.404768	0.404585
H85	H	0.816311	0.247533	0.712867
H86	H	0.694948	0.404493	1.068540
H87	H	0.694938	0.404529	0.940305
H88	H	0.816300	0.247565	0.584634
H89	H	0.694958	1.067809	0.404762
O90	O	0.821604	0.240619	0.934944
C91	C	0.851147	0.202419	0.981320
H92	H	0.829739	0.200060	1.031700
H93	H	0.856742	0.149096	0.960913
H94	H	0.890847	0.227210	0.988846
H95	H	0.816347	0.247453	1.068639
O96	O	0.689702	0.411347	0.718430
C97	C	0.696874	0.402041	0.788406
H98	H	0.737235	0.379882	0.798084
H99	H	0.693308	0.452734	0.815254
H100	H	0.665880	0.365985	0.808463
H101	H	0.694826	0.583805	0.404678
O102	O	0.821682	1.073373	0.241164
C103	C	0.855439	1.114205	0.279759
H104	H	0.858627	1.092864	0.333070
H105	H	0.895691	1.114971	0.255345
H106	H	0.839298	1.167797	0.282072
H107	H	0.816220	0.583796	0.247766
O108	O	0.058425	0.240797	0.241009
C109	C	0.045033	0.255498	0.173529
H110	H	0.030012	0.309569	0.170023
H111	H	0.080925	0.249619	0.140089
H112	H	0.013334	0.219195	0.155909
O113	O	0.689702	0.411503	0.578999
C114	C	0.701098	0.478959	0.596270
H115	H	0.742866	0.482374	0.615726
H116	H	0.696583	0.512406	0.549770
H117	H	0.673062	0.496642	0.637278
O118	O	0.453284	0.411645	0.411428
C119	C	0.489107	0.449881	0.449563
H120	H	0.528013	0.452180	0.421820
H121	H	0.473326	0.503222	0.456693
H122	H	0.494949	0.425160	0.501011
H123	H	0.457445	0.247493	0.247823
O124	O	0.821601	0.933922	0.241135
C125	C	0.855349	0.892988	0.279713
H126	H	0.836882	0.882384	0.330979
H127	H	0.862355	0.843292	0.252147
H128	H	0.894100	0.920188	0.287208
H129	H	0.305378	0.448130	0.447848
O130	O	0.202123	0.455013	0.454678
C131	C	0.237947	0.493247	0.492811
H132	H	0.276855	0.495536	0.465072
H133	H	0.222171	0.546591	0.499934
H134	H	0.243784	0.468531	0.544263
O135	O	0.058469	0.411550	0.411573
C136	C	0.045144	0.396857	0.479058
H137	H	0.030149	0.342791	0.482573
H138	H	0.081064	0.402728	0.512488
H139	H	0.013446	0.433171	0.496684
O140	O	-0.049234	0.411567	0.411472
C141	C	-0.103283	0.402283	0.402200
H142	H	-0.110732	0.350021	0.380123
H143	H	-0.124016	0.406935	0.452892
H144	H	-0.118806	0.442385	0.366087
H145	H	0.816260	0.712030	0.247793
H146	H	-0.044892	0.247552	0.247908
H147	H	0.694865	0.712051	0.404698
O148	O	0.202069	0.197280	0.197872
C149	C	0.237875	0.159036	0.159730
H150	H	0.276810	0.156739	0.187457
H151	H	0.222117	0.105695	0.152616
H152	H	0.243653	0.183748	0.108275
O153	O	0.309682	0.197434	0.197844
C154	C	0.341225	0.235909	0.154037
H155	H	0.349405	0.287234	0.177812
H156	H	0.379624	0.208323	0.145008
H157	H	0.320153	0.243280	0.103870
H158	H	0.556512	0.247491	0.247805
H159	H	0.694923	0.939572	0.404740
