data_functionalizedCrystal
_audit_creation_method	'MofGen! by Chris Wilmer'
_symmetry_space_group_name_H-M	'P1'
_symmetry_Int_Tables_number	1
_symmetry_cell_setting	triclinic
loop_
_symmetry_equiv_pos_as_xyz
  x,y,z
_cell_length_a	12.827893
_cell_length_b	12.827892
_cell_length_c	19.077314
_cell_angle_alpha	87.679092
_cell_angle_beta	92.283789
_cell_angle_gamma	90.015553
loop_
_atom_site_label
_atom_site_type_symbol
_atom_site_fract_x
_atom_site_fract_y
_atom_site_fract_z
Zn1	Zn	1.573897	-0.392326	-0.397935
Zn2	Zn	2.073897	0.107674	0.102065
Zn3	Zn	1.580821	-0.574098	-0.280247
Zn4	Zn	2.080821	-0.074098	0.219753
Zn5	Zn	1.406168	-0.399372	-0.280257
Zn6	Zn	1.906168	0.100628	0.219743
Zn7	Zn	1.399125	-0.567028	-0.397909
Zn8	Zn	1.899125	-0.067028	0.102091
O9	O	1.490003	-0.483206	-0.339087
O10	O	1.990003	0.016794	0.160913
O11	O	1.721051	-0.416449	-0.382330
O12	O	2.221051	0.083551	0.117670
O13	O	1.563499	-0.556828	-0.181758
O14	O	2.063499	-0.056828	0.318242
O15	O	1.428467	-0.252200	-0.295882
O16	O	1.928467	0.247800	0.204118
O17	O	1.726138	-0.549996	-0.295866
O18	O	2.226138	-0.049996	0.204134
O19	O	1.551697	-0.247024	-0.382340
O20	O	2.051697	0.252976	0.117660
O21	O	1.435182	-0.428457	-0.181765
O22	O	1.935182	0.071543	0.318235
O23	O	1.258998	-0.421601	-0.295856
O24	O	1.758998	0.078399	0.204144
O25	O	1.416463	-0.537945	-0.496402
O26	O	1.916463	-0.037945	0.003598
O27	O	1.253824	-0.544777	-0.382295
O28	O	1.753824	-0.044777	0.117705
O29	O	1.544867	-0.409593	-0.496422
O30	O	2.044867	0.090407	0.003578
O31	O	1.556669	-0.719397	-0.295840
O32	O	2.056669	-0.219397	0.204160
O33	O	1.423178	-0.714202	-0.382286
O34	O	1.923178	-0.214202	0.117714
C35	C	1.218494	-0.483187	-0.339074
C36	C	1.718494	0.016813	0.160926
C37	C	1.102340	-0.483204	-0.339085
C38	C	1.602340	0.016796	0.160915
C39	C	1.053084	-0.422163	-0.296389
C40	C	1.553084	0.077837	0.203611
C41	C	0.933033	-0.422179	-0.296399
C42	C	1.433033	0.077821	0.203601
C43	C	1.489938	-0.754717	-0.339074
C44	C	1.989938	-0.254717	0.160926
C45	C	1.490005	-0.870869	-0.339093
C46	C	1.990005	-0.370869	0.160907
C47	C	1.556133	-0.925186	-0.296364
C48	C	2.056133	-0.425186	0.203636
C49	C	1.556204	-1.045236	-0.296382
C50	C	2.056204	-0.545236	0.203618
C51	C	1.762572	-0.483225	-0.339100
C52	C	2.262572	0.016775	0.160900
C53	C	1.878725	-0.483233	-0.339106
C54	C	2.378725	0.016767	0.160894
C55	C	1.479107	-0.472194	-0.522664
C56	C	1.979107	0.027806	-0.022664
C57	C	1.474464	-0.467502	-0.600893
C58	C	1.974464	0.032498	-0.100893
C59	C	1.490095	-0.210634	-0.339115
C60	C	1.990095	0.289366	0.160885
C61	C	1.490135	-0.094480	-0.339127
C62	C	1.990135	0.405520	0.160873
C63	C	1.539085	-0.532129	-0.637645
C64	C	2.039085	-0.032129	-0.137645
C65	C	1.534722	-0.527708	-0.711150
C66	C	2.034722	-0.027708	-0.211150
C67	C	1.465732	-0.458663	-0.747902
C68	C	1.965732	0.041337	-0.247902
C69	C	1.401108	-0.394028	-0.711145
C70	C	1.901108	0.105972	-0.211145
C71	C	1.405477	-0.398445	-0.637641
C72	C	1.905477	0.101555	-0.137641
C73	C	1.445507	-0.438280	-0.967734
C74	C	1.945507	0.061720	-0.467734
C75	C	1.441141	-0.433870	-1.041243
C76	C	1.941141	0.066130	-0.541243
C77	C	1.574757	-0.567549	-1.041243
C78	C	2.074757	-0.067549	-0.541243
C79	C	1.579115	-0.571964	-0.967738
C80	C	2.079115	-0.071964	-0.467738
C81	C	1.514495	-0.507326	-0.930987
C82	C	2.014495	-0.007326	-0.430987
N83	N	1.461268	-0.454143	-0.823036
N84	N	1.961268	0.045857	-0.323036
N85	N	1.518965	-0.511840	-0.855855
N86	N	2.018965	-0.011840	-0.355855
C87	C	1.500916	-0.494099	-0.156224
C88	C	2.000916	0.005901	0.343776
C89	C	1.505762	-0.498497	-0.077995
C90	C	2.005762	0.001503	0.422005
H91	H	1.612701	-0.882816	-0.259772
H92	H	2.112701	-0.382816	0.240228
H93	H	1.392885	-0.385651	-0.937821
H94	H	1.892885	0.114349	-0.437821
O95	O	1.046681	-0.545717	-0.382633
O96	O	1.546681	-0.045717	0.117367
C97	C	1.074195	-0.650783	-0.367162
C98	C	1.574195	-0.150783	0.132838
H99	H	1.107584	-0.659330	-0.310945
H100	H	1.607584	-0.159330	0.189055
H101	H	1.002009	-0.702011	-0.373132
H102	H	1.502009	-0.202011	0.126868
H103	H	1.135238	-0.675966	-0.404898
H104	H	1.635238	-0.175966	0.095102
H105	H	0.890664	-0.369916	-0.259848
H106	H	1.390664	0.130084	0.240152
H107	H	1.433446	-0.913241	-0.375690
H108	H	1.933446	-0.413241	0.124310
O109	O	1.606044	-0.599343	-0.602023
O110	O	2.106044	-0.099343	-0.102023
C111	C	1.582084	-0.702417	-0.619965
C112	C	2.082084	-0.202417	-0.119965
H113	H	1.538741	-0.701371	-0.673331
H114	H	2.038741	-0.201371	-0.173331
H115	H	1.657337	-0.749131	-0.622484
H116	H	2.157337	-0.249131	-0.122484
H117	H	1.530803	-0.740096	-0.578591
H118	H	2.030803	-0.240096	-0.078591
H119	H	0.921087	-0.535490	-0.375665
H120	H	1.421087	-0.035490	0.124335
O121	O	1.342549	-0.335780	-0.601969
O122	O	1.842549	0.164220	-0.101969
C123	C	1.237321	-0.357513	-0.619932
C124	C	1.737321	0.142487	-0.119932
H125	H	1.230814	-0.439782	-0.640134
H126	H	1.730814	0.060218	-0.140134
H127	H	1.188571	-0.351414	-0.571588
H128	H	1.688571	0.148586	-0.071588
H129	H	1.207487	-0.298920	-0.662597
H130	H	1.707487	0.201080	-0.162597
O131	O	1.623741	-1.101098	-0.252826
O132	O	2.123741	-0.601098	0.247174
C133	C	1.608787	-1.208524	-0.262547
C134	C	2.108787	-0.708524	0.237453
H135	H	1.571225	-1.220058	-0.316843
H136	H	2.071225	-0.720058	0.183157
H137	H	1.687345	-1.250277	-0.257888
H138	H	2.187345	-0.750277	0.242112
H139	H	1.555700	-1.242103	-0.220773
H140	H	2.055700	-0.742103	0.279227
O141	O	1.334203	-0.326809	-0.746812
O142	O	1.834203	0.173191	-0.246812
C143	C	1.358129	-0.223738	-0.728846
C144	C	1.858129	0.276262	-0.228846
H145	H	1.442816	-0.219681	-0.708650
H146	H	1.942816	0.280319	-0.208650
H147	H	1.346268	-0.169205	-0.777187
H148	H	1.846268	0.330795	-0.277187
H149	H	1.304650	-0.198982	-0.686175
H150	H	1.804650	0.301018	-0.186175
H151	H	1.433512	-1.047786	-0.375707
H152	H	1.933512	-0.547786	0.124293
O153	O	1.597650	-0.590445	-0.746766
O154	O	2.097650	-0.090445	-0.246766
C155	C	1.702874	-0.568674	-0.728815
C156	C	2.202874	-0.068674	-0.228815
H157	H	1.708210	-0.531702	-0.675451
H158	H	2.208210	-0.031702	-0.175451
H159	H	1.749855	-0.644249	-0.726289
H160	H	2.249855	-0.144249	-0.226289
H161	H	1.735644	-0.512470	-0.770188
H162	H	2.235644	-0.012470	-0.270188
O163	O	1.374268	-0.366728	-1.077019
O164	O	1.874268	0.133272	-0.577019
C165	C	1.431274	-0.296676	-1.119532
C166	C	1.931274	0.203324	-0.619532
H167	H	1.509794	-0.332890	-1.130549
H168	H	2.009794	0.167110	-0.630549
H169	H	1.385644	-0.279554	-1.171217
H170	H	1.885644	0.220446	-0.671217
H171	H	1.444480	-0.220938	-1.091209
H172	H	1.944480	0.279062	-0.591209
O173	O	1.646236	-0.639050	-0.932148
O174	O	2.146236	-0.139050	-0.432148
C175	C	1.702325	-0.695160	-0.980349
C176	C	2.202325	-0.195160	-0.480349
H177	H	1.702835	-0.649214	-1.032750
H178	H	2.202835	-0.149214	-0.532750
H179	H	1.785921	-0.707576	-0.959119
H180	H	2.285921	-0.207576	-0.459119
H181	H	1.663576	-0.774061	-0.988154
H182	H	2.163576	-0.274061	-0.488154
O183	O	1.637642	-0.630176	-1.076974
O184	O	2.137642	-0.130176	-0.576974
C185	C	1.702611	-0.568127	-1.119512
C186	C	2.202611	-0.068127	-0.619512
H187	H	1.710406	-0.487153	-1.097367
H188	H	2.210406	0.012847	-0.597367
H189	H	1.782972	-0.605875	-1.120348
H190	H	2.282972	-0.105875	-0.620348
H191	H	1.666995	-0.561181	-1.175218
H192	H	2.166995	-0.061181	-0.675218
H193	H	1.099791	-0.369898	-0.259824
H194	H	1.599791	0.130102	0.240176
