data_functionalizedCrystal
_audit_creation_method	'MofGen! by Chris Wilmer'
_symmetry_space_group_name_H-M	'P1'
_symmetry_Int_Tables_number	1
_symmetry_cell_setting	triclinic
loop_
_symmetry_equiv_pos_as_xyz
  x,y,z
_cell_length_a	15.944499
_cell_length_b	15.944551
_cell_length_c	9.482900
_cell_angle_alpha	99.334197
_cell_angle_beta	80.709219
_cell_angle_gamma	83.488174
loop_
_atom_site_label
_atom_site_type_symbol
_atom_site_fract_x
_atom_site_fract_y
_atom_site_fract_z
O1	O	1.127652	0.094962	-0.120986
O2	O	0.883095	0.108365	-0.120970
O3	O	1.012051	-0.020611	-0.120965
O4	O	0.998697	0.223938	-0.120991
O5	O	0.985857	0.005692	0.120826
O6	O	0.856901	0.134668	0.120821
O7	O	1.101459	0.121265	0.120806
Cu8	Cu	0.976788	0.130368	0.142891
Cu9	Cu	1.007765	0.099262	-0.143056
O10	O	0.972503	0.250241	0.120801
C11	C	0.838703	0.120968	-0.000072
C12	C	0.745454	0.119324	-0.000066
C13	C	0.453921	0.194253	-0.000095
C14	C	0.527865	0.142333	-0.119310
C15	C	0.409821	0.113344	-0.000099
C16	C	0.502026	0.168244	0.119078
C17	C	0.574728	0.116287	-0.000080
C18	C	0.482548	0.061391	-0.119412
C19	C	0.456691	0.087325	0.119083
C20	C	0.530620	0.035342	-0.000161
C21	C	0.314822	0.111651	-0.000111
C22	C	0.669727	0.117973	-0.000079
C23	C	0.998399	-0.038753	-0.000069
C24	C	0.996737	-0.131999	-0.000068
C25	C	0.912832	-0.346842	-0.000083
C26	C	0.938880	-0.394897	0.119132
C27	C	0.993731	-0.302726	-0.000079
C28	C	0.964724	-0.420814	-0.119255
C29	C	0.990822	-0.467640	-0.000096
C30	C	1.019791	-0.349542	0.119234
C31	C	1.045635	-0.375464	-0.119260
C32	C	1.071739	-0.423499	-0.000016
C33	C	0.995404	-0.207722	-0.000068
C34	C	0.989153	-0.562640	-0.000097
C35	C	1.145851	0.108662	-0.000096
C36	C	1.239101	0.110305	-0.000112
C37	C	0.986155	0.268383	-0.000098
C38	C	0.987818	0.361628	-0.000109
N39	N	0.955007	0.152246	0.344010
N40	N	1.029554	0.077377	-0.344175
C41	C	1.001335	0.105710	0.416211
C42	C	0.983218	0.123920	0.583628
H43	H	0.511183	0.213442	0.219860
C44	C	1.072237	0.034674	0.333608
C45	C	1.150848	0.052104	0.370562
C46	C	1.216188	-0.013321	0.294532
H47	H	1.075148	0.031806	0.232064
H48	H	1.060328	-0.018667	0.358535
H49	H	1.162754	0.105430	0.345624
H50	H	1.147965	0.054964	0.472093
H51	H	1.204280	-0.066661	0.319460
H52	H	1.219091	-0.016183	0.192992
H53	H	1.269532	-0.001507	0.319604
C54	C	0.933624	-0.462359	-0.253517
C55	C	0.933197	-0.550012	-0.252399
C56	C	0.904534	-0.588303	-0.376039
H57	H	0.970943	-0.455369	-0.338284
H58	H	0.877139	-0.435871	-0.253364
H59	H	0.989673	-0.576492	-0.252565
H60	H	0.895875	-0.557026	-0.167660
H61	H	0.848049	-0.561815	-0.375886
H62	H	0.941857	-0.581307	-0.460796
H63	H	0.904233	-0.647777	-0.375290
C64	C	0.823209	-0.302539	0.000151
C65	C	0.765782	-0.362764	0.001566
C66	C	0.683214	-0.321981	0.001810
H67	H	0.823568	-0.277821	-0.084554
H68	H	0.805790	-0.258744	0.084085
H69	H	0.783197	-0.406544	-0.082360
H70	H	0.765397	-0.387486	0.086265
H71	H	0.665795	-0.278186	0.085744
H72	H	0.683582	-0.297264	-0.082897
H73	H	0.644239	-0.362836	0.002783
C74	C	1.050687	-0.308353	0.253953
C75	C	0.994992	-0.318356	0.378343
C76	C	1.023429	-0.280432	0.502471
H77	H	1.051523	-0.248936	0.253365
H78	H	1.106920	-0.335274	0.254375
H79	H	0.938773	-0.291433	0.377921
H80	H	0.994149	-0.377764	0.378979
H81	H	1.079662	-0.307353	0.502893
H82	H	1.024264	-0.221017	0.501868
H83	H	0.985649	-0.287221	0.586883
H84	H	0.425654	0.064097	0.219880
H85	H	0.893744	-0.404035	0.219924
H86	H	1.138941	-0.456663	0.000047
C87	C	0.470313	0.001238	-0.253903
C88	C	0.382459	0.000415	-0.252393
C89	C	0.371154	-0.054974	-0.376272
H90	H	0.497229	-0.055120	-0.254375
H91	H	0.495313	0.020594	-0.338496
H92	H	0.357470	-0.018945	-0.167823
H93	H	0.355525	0.056759	-0.251942
H94	H	0.396154	-0.035618	-0.460864
H95	H	0.398073	-0.111328	-0.376733
H96	H	0.311545	-0.055534	-0.375271
C97	C	0.569087	0.173477	-0.253655
C98	C	0.506676	0.192038	-0.336726
C99	C	0.544622	0.220781	-0.460433
H100	H	0.612872	0.130037	-0.309974
H101	H	0.593367	0.223838	-0.224894
H102	H	0.482409	0.141683	-0.365489
H103	H	0.462887	0.235484	-0.280450
H104	H	0.568903	0.271142	-0.431673
H105	H	0.588407	0.177338	-0.516741
H106	H	0.502281	0.233386	-0.516806
C107	C	1.105777	-0.363064	-0.253528
C108	C	1.107122	-0.275187	-0.250990
C109	C	1.162517	-0.263729	-0.374656
H110	H	1.086194	-0.387537	-0.338259
H111	H	1.162033	-0.390420	-0.254392
H112	H	1.050878	-0.247841	-0.250140
H113	H	1.126713	-0.250695	-0.166286
H114	H	1.218773	-0.291085	-0.375519
H115	H	1.142929	-0.288207	-0.459377
H116	H	1.163443	-0.204105	-0.372943
H117	H	0.930136	0.177243	0.645750
H118	H	0.901928	0.205566	0.406138
C119	C	0.409322	0.283707	-0.000175
C120	C	0.321721	0.281123	0.001139
C121	C	0.280607	0.363509	0.001078
H122	H	0.433815	0.303181	-0.084949
H123	H	0.416350	0.321873	0.083690
H124	H	0.314699	0.242971	-0.082719
H125	H	0.297204	0.261664	0.085907
H126	H	0.287635	0.401675	0.084943
H127	H	0.305106	0.382977	-0.083698
H128	H	0.221164	0.361769	0.001983
C129	C	0.575016	-0.054251	-0.000462
C130	C	0.639456	-0.079849	-0.124255
C131	C	0.680380	-0.162371	-0.124579
H132	H	0.534261	-0.093320	-0.001374
H133	H	0.599837	-0.053792	0.084203
H134	H	0.614636	-0.080315	-0.208898
H135	H	0.680229	-0.040803	-0.123369
H136	H	0.705201	-0.161912	-0.039914
H137	H	0.639618	-0.201433	-0.125488
H138	H	0.724112	-0.179747	-0.208564
H139	H	1.082630	0.024048	0.593703
