data_functionalizedCrystal
_audit_creation_method	'MofGen! by Chris Wilmer'
_symmetry_space_group_name_H-M	'P1'
_symmetry_Int_Tables_number	1
_symmetry_cell_setting	triclinic
loop_
_symmetry_equiv_pos_as_xyz
  x,y,z
_cell_length_a	25.639242
_cell_length_b	29.839131
_cell_length_c	25.639233
_cell_angle_alpha	89.972761
_cell_angle_beta	89.978417
_cell_angle_gamma	90.030128
loop_
_atom_site_label
_atom_site_type_symbol
_atom_site_fract_x
_atom_site_fract_y
_atom_site_fract_z
Zn1	Zn	0.799238	-0.178969	-0.295703
Zn2	Zn	1.299238	0.321031	0.204297
Zn3	Zn	0.799166	-0.254084	-0.208255
Zn4	Zn	1.299166	0.245916	0.291745
Zn5	Zn	0.711814	-0.178962	-0.208268
Zn6	Zn	1.211814	0.321038	0.291732
Zn7	Zn	0.711764	-0.254066	-0.295645
Zn8	Zn	1.211764	0.245934	0.204355
O9	O	0.755496	-0.216520	-0.251968
O10	O	1.255496	0.283480	0.248032
O11	O	0.872393	-0.188944	-0.284121
O12	O	1.372393	0.311056	0.215879
O13	O	0.787570	-0.244123	-0.135091
O14	O	1.287570	0.255877	0.364909
O15	O	0.723461	-0.116096	-0.219897
O16	O	1.223461	0.383904	0.280103
O17	O	0.872341	-0.244130	-0.219873
O18	O	1.372341	0.255870	0.280127
O19	O	0.787691	-0.116101	-0.284135
O20	O	1.287691	0.383899	0.215865
O21	O	0.723392	-0.188931	-0.135101
O22	O	1.223392	0.311069	0.364899
O23	O	0.638642	-0.188914	-0.219840
O24	O	1.138642	0.311086	0.280160
O25	O	0.723377	-0.244100	-0.368818
O26	O	1.223377	0.255900	0.131182
O27	O	0.638606	-0.244093	-0.284036
O28	O	1.138606	0.255907	0.215964
O29	O	0.787643	-0.188927	-0.368861
O30	O	1.287643	0.311073	0.131139
O31	O	0.787522	-0.316948	-0.219817
O32	O	1.287522	0.183052	0.280183
O33	O	0.723308	-0.316936	-0.284023
O34	O	1.223308	0.183064	0.215977
C35	C	0.619653	-0.216501	-0.251934
C36	C	1.119653	0.283499	0.248066
C37	C	0.561539	-0.216504	-0.251932
C38	C	1.061539	0.283496	0.248068
C39	C	0.310356	-0.187741	-0.218599
C40	C	0.810356	0.312259	0.281401
C41	C	0.364960	-0.187736	-0.218592
C42	C	0.864960	0.312264	0.281408
O43	O	0.393205	-0.163254	-0.190222
O44	O	0.893205	0.336746	0.309778
N45	N	0.392265	-0.216509	-0.251958
N46	N	0.892265	0.283491	0.248042
C47	C	0.364963	-0.245285	-0.285336
C48	C	0.864963	0.254715	0.214664
O49	O	0.393202	-0.269758	-0.313716
O50	O	0.893202	0.230242	0.186284
C51	C	0.310360	-0.245287	-0.285345
C52	C	0.810360	0.254713	0.214655
C53	C	0.283057	-0.216515	-0.251973
C54	C	0.783057	0.283485	0.248027
C55	C	0.283053	-0.158971	-0.185231
C56	C	0.783053	0.341029	0.314769
C57	C	0.228453	-0.158976	-0.185237
C58	C	0.728453	0.341024	0.314763
C59	C	0.201155	-0.187750	-0.218611
C60	C	0.701155	0.312250	0.281389
C61	C	0.228457	-0.216520	-0.251980
C62	C	0.728457	0.283480	0.248020
C63	C	0.283059	-0.274060	-0.318725
C64	C	0.783059	0.225940	0.181275
C65	C	0.228452	-0.274059	-0.318732
C66	C	0.728452	0.225941	0.181268
C67	C	0.201149	-0.245287	-0.285360
C68	C	0.701149	0.254713	0.214640
C69	C	0.146558	-0.245299	-0.285360
C70	C	0.646558	0.254701	0.214640
N71	N	0.119253	-0.216526	-0.251995
N72	N	0.619253	0.283474	0.248005
C73	C	0.146551	-0.187752	-0.218620
C74	C	0.646551	0.312248	0.281380
C75	C	0.479634	-0.245279	-0.285316
C76	C	0.979634	0.254721	0.214684
C77	C	0.534236	-0.245280	-0.285304
C78	C	1.034236	0.254720	0.214696
C79	C	0.534229	-0.187731	-0.218561
C80	C	1.034229	0.312269	0.281439
C81	C	0.479626	-0.187732	-0.218570
C82	C	0.979626	0.312268	0.281430
C83	C	0.452329	-0.216506	-0.251950
C84	C	0.952329	0.283494	0.248050
C85	C	0.031886	-0.187764	-0.218635
C86	C	0.531886	0.312236	0.281365
C87	C	-0.022719	-0.187773	-0.218643
C88	C	0.477281	0.312227	0.281357
C89	C	-0.022708	-0.245321	-0.285387
C90	C	0.477292	0.254679	0.214613
C91	C	0.031893	-0.245314	-0.285378
C92	C	0.531893	0.254686	0.214622
C93	C	0.059189	-0.216532	-0.252000
C94	C	0.559189	0.283468	0.248000
O95	O	0.118278	-0.269768	-0.313717
O96	O	0.618278	0.230232	0.186283
O97	O	0.118306	-0.163279	-0.190250
O98	O	0.618306	0.336721	0.309750
C99	C	0.755416	-0.333243	-0.251924
C100	C	1.255416	0.166757	0.248076
C101	C	0.755430	-0.383177	-0.251922
C102	C	1.255430	0.116823	0.248078
C103	C	0.788933	-0.692788	-0.285464
C104	C	1.288933	-0.192788	0.214536
C105	C	0.788989	-0.880461	-0.285496
C106	C	1.288989	-0.380461	0.214504
O107	O	0.817397	-0.904699	-0.313982
O108	O	1.317397	-0.404699	0.186018
N109	N	0.755584	-0.903962	-0.252026
N110	N	1.255584	-0.403962	0.247974
C111	C	0.722160	-0.880542	-0.218548
C112	C	1.222160	-0.380542	0.281452
O113	O	0.693745	-0.904837	-0.190085
O114	O	1.193745	-0.404837	0.309915
C115	C	0.722101	-0.692870	-0.218520
C116	C	1.222101	-0.192870	0.281480
C117	C	0.755512	-0.669371	-0.251988
C118	C	1.255512	-0.169371	0.248012
C119	C	0.822341	-0.669290	-0.318930
C120	C	1.322341	-0.169290	0.181070
C121	C	0.822328	-0.622375	-0.318920
C122	C	1.322328	-0.122375	0.181080
C123	C	0.788908	-0.598958	-0.285444
C124	C	1.288908	-0.098958	0.214556
C125	C	0.755500	-0.622456	-0.251978
C126	C	1.255500	-0.122456	0.248022
C127	C	0.688675	-0.669450	-0.185045
C128	C	1.188675	-0.169450	0.314955
C129	C	0.688662	-0.622529	-0.185042
C130	C	1.188662	-0.122529	0.314958
C131	C	0.722073	-0.599031	-0.218510
C132	C	1.222073	-0.099031	0.281490
C133	C	0.722067	-0.552123	-0.218492
C134	C	1.222067	-0.052123	0.281508
N135	N	0.755472	-0.528623	-0.251961
N136	N	1.255472	-0.028623	0.248039
C137	C	0.788892	-0.552040	-0.285438
C138	C	1.288892	-0.052040	0.214562
C139	C	0.722194	-0.979072	-0.218565
C140	C	1.222194	-0.479072	0.281435
C141	C	0.722210	-1.025990	-0.218571
C142	C	1.222210	-0.525990	0.281429
C143	C	0.789038	-1.025907	-0.285519
C144	C	1.289038	-0.525907	0.214481
C145	C	0.789025	-0.978988	-0.285510
C146	C	1.289025	-0.478988	0.214490
C147	C	0.755599	-0.955572	-0.252035
C148	C	1.255599	-0.455572	0.247965
C149	C	0.788864	-0.453514	-0.285413
C150	C	1.288864	0.046486	0.214587
C151	C	0.788850	-0.406594	-0.285399
C152	C	1.288850	0.093406	0.214601
C153	C	0.722020	-0.406682	-0.218452
C154	C	1.222020	0.093318	0.281548
C155	C	0.722035	-0.453597	-0.218465
C156	C	1.222035	0.046403	0.281535
C157	C	0.755459	-0.477012	-0.251950
C158	C	1.255459	0.022988	0.248050
O159	O	0.693670	-0.527857	-0.190025
O160	O	1.193670	-0.027857	0.309975
O161	O	0.817296	-0.527737	-0.313905
O162	O	1.317296	-0.027737	0.186095
C163	C	0.788945	-0.739704	-0.285475
C164	C	1.288945	-0.239704	0.214525
C165	C	0.755537	-0.763202	-0.252009
C166	C	1.255537	-0.263202	0.247991
C167	C	0.722117	-0.739785	-0.218532
C168	C	1.222117	-0.239785	0.281468
C169	C	0.755553	-0.810120	-0.252015
C170	C	1.255553	-0.310120	0.247985
C171	C	0.788973	-0.833537	-0.285491
C172	C	1.288973	-0.333537	0.214509
C173	C	0.822378	-0.810036	-0.318961
C174	C	1.322378	-0.310036	0.181039
C175	C	0.822366	-0.763121	-0.318951
C176	C	1.322366	-0.263121	0.181049
C177	C	0.688712	-0.763286	-0.185063
C178	C	1.188712	-0.263286	0.314937
C179	C	0.688727	-0.810201	-0.185075
C180	C	1.188727	-0.310201	0.314925
C181	C	0.722148	-0.833618	-0.218551
C182	C	1.222148	-0.333618	0.281449
C183	C	0.891869	-0.216540	-0.252002
C184	C	1.391869	0.283460	0.247998
C185	C	0.949983	-0.216548	-0.252017
C186	C	1.449983	0.283452	0.247983
C187	C	0.755512	-0.216512	-0.388341
C188	C	1.255512	0.283488	0.111659
C189	C	0.755520	-0.216509	-0.446455
C190	C	1.255520	0.283491	0.053545
C191	C	0.755590	-0.099342	-0.252024
C192	C	1.255590	0.400658	0.247976
C193	C	0.755630	-0.049407	-0.252047
C194	C	1.255630	0.450593	0.247953
C195	C	0.789025	-0.187695	-0.806846
C196	C	1.289025	0.312305	-0.306846
C197	C	0.789032	-0.187682	-0.861450
C198	C	1.289032	0.312318	-0.361450
O199	O	0.817478	-0.163236	-0.889711
O200	O	1.317478	0.336764	-0.389711
N201	N	0.755577	-0.216404	-0.888738
N202	N	1.255577	0.283596	-0.388738
C203	C	0.722110	-0.245136	-0.861418
C204	C	1.222110	0.254864	-0.361418
O205	O	0.693655	-0.269564	-0.889642
O206	O	1.193655	0.230436	-0.389642
C207	C	0.722101	-0.245146	-0.806815
C208	C	1.222101	0.254854	-0.306815
C209	C	0.755562	-0.216426	-0.779530
C210	C	1.255562	0.283574	-0.279530
C211	C	0.822483	-0.158977	-0.779561
C212	C	1.322483	0.341023	-0.279561
C213	C	0.822477	-0.158990	-0.724961
C214	C	1.322477	0.341010	-0.224961
C215	C	0.789014	-0.187721	-0.697645
C216	C	1.289014	0.312279	-0.197645
C217	C	0.755556	-0.216439	-0.724929
C218	C	1.255556	0.283561	-0.224929
C219	C	0.688632	-0.273875	-0.779496
C220	C	1.188632	0.226125	-0.279496
C221	C	0.688626	-0.273883	-0.724889
C222	C	1.188626	0.226117	-0.224889
C223	C	0.722087	-0.245163	-0.697604
C224	C	1.222087	0.254837	-0.197604
C225	C	0.722087	-0.245183	-0.643013
C226	C	1.222087	0.254817	-0.143013
N227	N	0.755542	-0.216462	-0.615726
N228	N	1.255542	0.283538	-0.115726
C229	C	0.789005	-0.187731	-0.643041
C230	C	1.289005	0.312269	-0.143041
C231	C	0.722130	-0.245113	-0.976089
C232	C	1.222130	0.254887	-0.476089
C233	C	0.722141	-0.245105	-1.030691
C234	C	1.222141	0.254895	-0.530691
C235	C	0.789063	-0.187651	-1.030720
C236	C	1.289063	0.312349	-0.530720
C237	C	0.789054	-0.187661	-0.976116
C238	C	1.289054	0.312339	-0.476116
C239	C	0.755585	-0.216391	-0.948801
C240	C	1.255585	0.283609	-0.448801
C241	C	0.788990	-0.187761	-0.528376
C242	C	1.288990	0.312239	-0.028376
C243	C	0.788983	-0.187778	-0.473771
C244	C	1.288983	0.312222	0.026229
C245	C	0.722060	-0.245230	-0.473747
C246	C	1.222060	0.254770	0.026253
C247	C	0.722069	-0.245215	-0.528348
C248	C	1.222069	0.254785	-0.028348
C249	C	0.755536	-0.216477	-0.555661
C250	C	1.255536	0.283523	-0.055661
O251	O	0.693654	-0.269615	-0.614718
O252	O	1.193654	0.230385	-0.114718
O253	O	0.817451	-0.163302	-0.614811
O254	O	1.317451	0.336698	-0.114811
C255	C	0.755509	-0.216496	-0.116125
C256	C	1.255509	0.283504	0.383875
C257	C	0.755603	-0.216372	-0.058012
C258	C	1.255603	0.283628	0.441988
H259	H	0.206228	-0.135547	-0.158062
H260	H	0.706228	0.364453	0.341938
H261	H	0.457411	-0.268714	-0.312496
H262	H	0.957411	0.231286	0.187504
H263	H	0.661365	-0.297274	-0.702652
H264	H	1.161365	0.202726	-0.202652
H265	H	0.305279	-0.297489	-0.345900
H266	H	0.805279	0.202511	0.154100
H267	H	0.849533	-0.603245	-0.346174
H268	H	1.349533	-0.103245	0.153826
C269	C	0.825857	-0.156066	-0.946106
C270	C	1.325857	0.343934	-0.446106
C271	C	0.821632	-0.104993	-0.953634
C272	C	1.321632	0.395007	-0.453634
C273	C	0.858436	-0.073396	-0.923626
C274	C	1.358436	0.426604	-0.423626
C275	C	0.899465	-0.092871	-0.886091
C276	C	1.399465	0.407129	-0.386091
C277	C	0.903692	-0.143947	-0.878561
C278	C	1.403692	0.356053	-0.378561
C279	C	0.866888	-0.175544	-0.908569
C280	C	1.366888	0.324456	-0.408569
H281	H	0.791258	-0.090574	-0.981421
H282	H	1.291258	0.409426	-0.481421
H283	H	0.855306	-0.035586	-0.929200
H284	H	1.355306	0.464414	-0.429200
H285	H	0.926710	-0.069481	-0.863878
H286	H	1.426710	0.430519	-0.363878
H287	H	0.934066	-0.158366	-0.850774
H288	H	1.434066	0.341634	-0.350774
H289	H	0.870018	-0.213354	-0.902994
H290	H	1.370018	0.286646	-0.402994
H291	H	0.849572	-0.743992	-0.346204
H292	H	1.349572	-0.243992	0.153796
H293	H	0.206229	-0.297489	-0.345916
H294	H	0.706229	0.202511	0.154084
H295	H	0.305274	-0.135537	-0.158053
H296	H	0.805274	0.364463	0.341947
H297	H	0.661385	-0.297262	-0.801701
H298	H	1.161385	0.202738	-0.301701
H299	H	0.694817	-0.268624	-0.451497
H300	H	1.194817	0.231376	0.048503
H301	H	0.695009	-1.045119	-0.191312
H302	H	1.195009	-0.545119	0.308688
C303	C	0.825871	-0.156043	-1.060774
C304	C	1.325871	0.343957	-0.560774
C305	C	0.825873	-0.156032	-1.120835
C306	C	1.325873	0.343968	-0.620835
C307	C	0.862679	-0.124426	-1.150891
C308	C	1.362679	0.375574	-0.650891
C309	C	0.899483	-0.092831	-1.120885
C310	C	1.399483	0.407169	-0.620885
C311	C	0.899482	-0.092841	-1.060821
C312	C	1.399482	0.407159	-0.560821
C313	C	0.862676	-0.124447	-1.030765
C314	C	1.362676	0.375553	-0.530765
H315	H	0.798627	-0.179422	-1.143051
H316	H	1.298627	0.320578	-0.643051
H317	H	0.862679	-0.124420	-1.195355
H318	H	1.362679	0.375580	-0.695355
H319	H	0.926729	-0.069435	-1.143134
H320	H	1.426729	0.430565	-0.643134
H321	H	0.926727	-0.069451	-1.038605
H322	H	1.426727	0.430549	-0.538605
H323	H	0.862675	-0.124453	-0.986301
H324	H	1.362675	0.375547	-0.486301
H325	H	0.457400	-0.164302	-0.191398
H326	H	0.957400	0.335698	0.308602
C327	C	0.685273	-0.276810	-0.558372
C328	C	1.185273	0.223190	-0.058372
C329	C	0.707912	-0.312069	-0.595911
C330	C	1.207912	0.187931	-0.095911
C331	C	0.671115	-0.343660	-0.625935
C332	C	1.171115	0.156340	-0.125935
C333	C	0.611678	-0.339993	-0.618419
C334	C	1.111678	0.160007	-0.118419
C335	C	0.589036	-0.304732	-0.580879
C336	C	1.089036	0.195268	-0.080879
C337	C	0.625833	-0.273140	-0.550855
C338	C	1.125833	0.226860	-0.050855
H339	H	0.751914	-0.314785	-0.601476
H340	H	1.251914	0.185215	-0.101476
H341	H	0.687876	-0.369762	-0.653725
H342	H	1.187876	0.130238	-0.153725
H343	H	0.584438	-0.363378	-0.640645
H344	H	1.084438	0.136622	-0.140645
H345	H	0.545034	-0.302016	-0.575314
H346	H	1.045034	0.197984	-0.075314
H347	H	0.609072	-0.247038	-0.523064
H348	H	1.109072	0.252962	-0.023064
H349	H	0.556461	-0.268714	-0.312473
H350	H	1.056461	0.231286	0.187527
C351	C	0.564262	-0.156074	-0.181850
C352	C	1.064262	0.343926	0.318150
C353	C	0.601831	-0.120832	-0.204586
C354	C	1.101831	0.379168	0.295414
C355	C	0.631864	-0.089178	-0.167876
C356	C	1.131864	0.410822	0.332124
C357	C	0.624329	-0.092766	-0.108431
C358	C	1.124329	0.407234	0.391569
C359	C	0.586759	-0.128009	-0.085692
C360	C	1.086759	0.371991	0.414308
C361	C	0.556726	-0.159664	-0.122401
C362	C	1.056726	0.340336	0.377599
H363	H	0.607410	-0.118175	-0.248594
H364	H	1.107410	0.381825	0.251406
H365	H	0.659676	-0.063089	-0.184709
H366	H	1.159676	0.436911	0.315291
H367	H	0.646562	-0.069334	-0.081256
H368	H	1.146562	0.430666	0.418744
H369	H	0.581180	-0.130667	-0.041684
H370	H	1.081180	0.369333	0.458316
H371	H	0.528914	-0.185753	-0.105568
H372	H	1.028914	0.314247	0.394432
C373	C	0.859140	-0.835801	-0.355787
C374	C	1.359140	-0.335801	0.144213
C375	C	0.900209	-0.868045	-0.333180
C376	C	1.400209	-0.368045	0.166820
C377	C	0.936966	-0.893813	-0.370006
C378	C	1.436966	-0.393813	0.129994
C379	C	0.932654	-0.887336	-0.429438
C380	C	1.432654	-0.387336	0.070562
C381	C	0.891584	-0.855091	-0.452048
C382	C	1.391584	-0.355091	0.047952
C383	C	0.854827	-0.829323	-0.415222
C384	C	1.354827	-0.329323	0.084778
H385	H	0.903402	-0.872841	-0.289182
H386	H	1.403402	-0.372841	0.210818
H387	H	0.967369	-0.917683	-0.353269
H388	H	1.467369	-0.417683	0.146731
H389	H	0.959864	-0.906411	-0.456699
H390	H	1.459864	-0.406411	0.043301
H391	H	0.888390	-0.850295	-0.496046
H392	H	1.388390	-0.350295	0.003954
H393	H	0.824424	-0.805453	-0.431959
H394	H	1.324424	-0.305453	0.068041
H395	H	0.694900	-0.268497	-1.052901
H396	H	1.194900	0.231503	-0.552901
C397	C	0.061907	-0.156107	-0.181918
C398	C	0.561907	0.343893	0.318082
C399	C	0.054421	-0.105041	-0.186299
C400	C	0.554421	0.394959	0.313701
C401	C	0.084441	-0.073386	-0.149580
C402	C	0.584441	0.426614	0.350420
C403	C	0.121948	-0.092796	-0.108480
C404	C	0.621948	0.407204	0.391520
C405	C	0.129436	-0.143864	-0.104097
C406	C	0.629436	0.356136	0.395903
C407	C	0.099415	-0.175519	-0.140816
C408	C	0.599415	0.324481	0.359184
H409	H	0.026655	-0.090671	-0.216725
H410	H	0.526655	0.409329	0.283275
H411	H	0.078898	-0.035582	-0.152824
H412	H	0.578898	0.464418	0.347176
H413	H	0.144171	-0.069363	-0.081298
H414	H	0.644171	0.430637	0.418702
H415	H	0.157202	-0.158234	-0.073671
H416	H	0.657202	0.341766	0.426329
H417	H	0.104958	-0.213323	-0.137572
H418	H	0.604958	0.286677	0.362428
C419	C	0.061931	-0.276963	-0.322084
C420	C	0.561931	0.223037	0.177916
C421	C	0.099445	-0.312201	-0.299348
C422	C	0.599445	0.187799	0.200652
C423	C	0.129479	-0.343846	-0.336059
C424	C	0.629479	0.156154	0.163941
C425	C	0.121998	-0.340254	-0.395505
C426	C	0.621998	0.159746	0.104495
C427	C	0.084482	-0.305016	-0.418243
C428	C	0.584482	0.194984	0.081757
C429	C	0.054448	-0.273370	-0.381533
C430	C	0.554448	0.226630	0.118467
H431	H	0.104984	-0.314861	-0.255340
H432	H	0.604984	0.185139	0.244660
H433	H	0.157251	-0.369932	-0.319226
H434	H	0.657251	0.130068	0.180774
H435	H	0.144231	-0.363680	-0.422680
H436	H	0.644231	0.136320	0.077320
H437	H	0.078944	-0.302355	-0.462251
H438	H	0.578944	0.197645	0.037749
H439	H	0.026677	-0.247284	-0.398366
H440	H	0.526677	0.252716	0.101634
C441	C	-0.052742	-0.276969	-0.322101
C442	C	0.447258	0.223031	0.177899
C443	C	-0.112804	-0.276967	-0.322109
C444	C	0.387196	0.223033	0.177891
C445	C	-0.142840	-0.308612	-0.358827
C446	C	0.357160	0.191388	0.141173
C447	C	-0.112815	-0.340259	-0.395537
C448	C	0.387185	0.159741	0.104463
C449	C	-0.052750	-0.340263	-0.395531
C450	C	0.447250	0.159737	0.104469
C451	C	-0.022714	-0.308618	-0.358813
C452	C	0.477286	0.191382	0.141187
H453	H	-0.135033	-0.253538	-0.294932
H454	H	0.364967	0.246462	0.205068
H455	H	-0.187304	-0.308609	-0.358831
H456	H	0.312696	0.191391	0.141169
H457	H	-0.135050	-0.363685	-0.422718
H458	H	0.364950	0.136315	0.077282
H459	H	-0.030521	-0.363692	-0.422708
H460	H	0.469479	0.136308	0.077292
H461	H	0.021750	-0.308621	-0.358809
H462	H	0.521750	0.191379	0.141191
C463	C	0.825632	-0.479266	-0.322243
C464	C	1.325632	0.020734	0.177757
C465	C	0.885070	-0.472773	-0.318032
C466	C	1.385070	0.027227	0.181968
C467	C	0.921841	-0.498525	-0.354859
C468	C	1.421841	0.001475	0.145141
C469	C	0.899175	-0.530770	-0.395896
C470	C	1.399175	-0.030770	0.104104
C471	C	0.839734	-0.537265	-0.400108
C472	C	1.339734	-0.037265	0.099892
C473	C	0.802963	-0.511513	-0.363282
C474	C	1.302963	-0.011513	0.136718
H475	H	0.901852	-0.448901	-0.287653
H476	H	1.401852	0.051099	0.212347
H477	H	0.965843	-0.493717	-0.351740
H478	H	1.465843	0.006283	0.148260
H479	H	0.926395	-0.549833	-0.423157
H480	H	1.426395	-0.049833	0.076843
H481	H	0.822952	-0.561136	-0.430488
H482	H	1.322952	-0.061136	0.069512
H483	H	0.758961	-0.516321	-0.366401
H484	H	1.258961	-0.016321	0.133599
H485	H	0.661496	-0.744223	-0.157803
H486	H	1.161496	-0.244223	0.342197
H487	H	0.816059	-0.387463	-0.312652
H488	H	1.316059	0.112537	0.187348
C489	C	0.685426	-0.953320	-0.181734
C490	C	1.185426	-0.453320	0.318266
C491	C	0.689743	-0.959806	-0.122303
C492	C	1.189743	-0.459806	0.377697
C493	C	0.652977	-0.934056	-0.085470
C494	C	1.152977	-0.434056	0.414530
C495	C	0.611894	-0.901820	-0.108066
C496	C	1.111894	-0.401820	0.391934
C497	C	0.607576	-0.895333	-0.167500
C498	C	1.107576	-0.395333	0.332500
C499	C	0.644342	-0.921082	-0.204334
C500	C	1.144342	-0.421082	0.295666
H501	H	0.720157	-0.983670	-0.105573
H502	H	1.220157	-0.483670	0.394427
H503	H	0.656174	-0.938859	-0.041473
H504	H	1.156174	-0.438859	0.458527
H505	H	0.584678	-0.882759	-0.080800
H506	H	1.084678	-0.382759	0.419200
H507	H	0.577162	-0.871469	-0.184230
H508	H	1.077162	-0.371469	0.315770
H509	H	0.641145	-0.916280	-0.248330
H510	H	1.141145	-0.416280	0.251670
C511	C	0.859110	-0.695043	-0.355756
C512	C	1.359110	-0.195043	0.144244
C513	C	0.918546	-0.688543	-0.351544
C514	C	1.418546	-0.188543	0.148456
C515	C	0.955322	-0.714292	-0.388369
C516	C	1.455322	-0.214292	0.111631
C517	C	0.932661	-0.746540	-0.429406
C518	C	1.432661	-0.246540	0.070594
C519	C	0.873222	-0.753041	-0.433620
C520	C	1.373222	-0.253041	0.066380
C521	C	0.836446	-0.727293	-0.396795
C522	C	1.336446	-0.227293	0.103205
H523	H	0.935324	-0.664670	-0.321164
H524	H	1.435324	-0.164670	0.178836
H525	H	0.999323	-0.709479	-0.385249
H526	H	1.499323	-0.209479	0.114751
H527	H	0.959885	-0.765601	-0.456666
H528	H	1.459885	-0.265601	0.043334
H529	H	0.856445	-0.776915	-0.464000
H530	H	1.356445	-0.276915	0.036000
H531	H	0.792445	-0.732106	-0.399915
H532	H	1.292445	-0.232106	0.100085
C533	C	0.685288	-0.479450	-0.181648
C534	C	1.185288	0.020550	0.318352
C535	C	0.707979	-0.511717	-0.140633
C536	C	1.207979	-0.011717	0.359367
C537	C	0.671228	-0.537567	-0.103819
C538	C	1.171228	-0.037567	0.396181
C539	C	0.611786	-0.531151	-0.108021
C540	C	1.111786	-0.031151	0.391979
C541	C	0.589092	-0.498883	-0.149038
C542	C	1.089092	0.001117	0.350962
C543	C	0.625843	-0.473033	-0.185851
C544	C	1.125843	0.026967	0.314149
H545	H	0.751985	-0.516467	-0.137521
H546	H	1.251985	-0.016467	0.362479
H547	H	0.688029	-0.561454	-0.073456
H548	H	1.188029	-0.061454	0.426544
H549	H	0.584581	-0.550287	-0.080770
H550	H	1.084581	-0.050287	0.419230
H551	H	0.545087	-0.494133	-0.152150
H552	H	1.045087	0.005867	0.347850
H553	H	0.609043	-0.449146	-0.216215
H554	H	1.109043	0.050854	0.283785
C555	C	0.685317	-0.276722	-0.946043
C556	C	1.185317	0.223278	-0.446043
C557	C	0.707936	-0.312005	-0.908500
C558	C	1.207936	0.187995	-0.408500
C559	C	0.671122	-0.343613	-0.878457
C560	C	1.171122	0.156387	-0.378457
C561	C	0.611689	-0.339939	-0.885958
C562	C	1.111689	0.160061	-0.385958
C563	C	0.589067	-0.304655	-0.923503
C564	C	1.089067	0.195345	-0.423503
C565	C	0.625881	-0.273046	-0.953546
C566	C	1.125881	0.226954	-0.453546
H567	H	0.751934	-0.314727	-0.902946
H568	H	1.251934	0.185273	-0.402946
H569	H	0.687868	-0.369733	-0.850664
H570	H	1.187868	0.130267	-0.350664
H571	H	0.584437	-0.363337	-0.863719
H572	H	1.084437	0.136663	-0.363719
H573	H	0.545069	-0.301933	-0.929057
H574	H	1.045069	0.198067	-0.429057
H575	H	0.609134	-0.246927	-0.981339
H576	H	1.109134	0.253073	-0.481339
C577	C	0.825800	-1.051670	-0.322346
C578	C	1.325800	-0.551670	0.177654
C579	C	0.866873	-1.083912	-0.299742
C580	C	1.366873	-0.583912	0.200258
C581	C	0.903629	-1.109677	-0.336570
C582	C	1.403629	-0.609677	0.163430
C583	C	0.899313	-1.103202	-0.396002
C584	C	1.399313	-0.603202	0.103998
C585	C	0.858239	-1.070959	-0.418609
C586	C	1.358239	-0.570959	0.081391
C587	C	0.821482	-1.045193	-0.381781
C588	C	1.321482	-0.545193	0.118219
H589	H	0.870069	-1.088707	-0.255744
H590	H	1.370069	-0.588707	0.244256
H591	H	0.934035	-1.133546	-0.319834
H592	H	1.434035	-0.633546	0.180166
H593	H	0.926523	-1.122275	-0.423264
H594	H	1.426523	-0.622275	0.076736
H595	H	0.855043	-1.066164	-0.462607
H596	H	1.355043	-0.566164	0.037393
H597	H	0.791077	-1.021325	-0.398517
H598	H	1.291077	-0.521325	0.101483
H599	H	0.816231	-0.959858	-0.312763
H600	H	1.316231	-0.459858	0.187237
C601	C	0.651914	-0.695288	-0.148234
C602	C	1.151914	-0.195288	0.351766
C603	C	0.656206	-0.688860	-0.088800
C604	C	1.156206	-0.188860	0.411200
C605	C	0.619440	-0.714695	-0.051988
C606	C	1.119440	-0.214695	0.448012
C607	C	0.578381	-0.746959	-0.074611
C608	C	1.078381	-0.246959	0.425389
C609	C	0.574087	-0.753389	-0.134048
C610	C	1.074087	-0.253389	0.365952
C611	C	0.610854	-0.727553	-0.170860
C612	C	1.110854	-0.227553	0.329140
H613	H	0.686601	-0.664975	-0.072051
H614	H	1.186601	-0.164975	0.427949
H615	H	0.622618	-0.709936	-0.007989
H616	H	1.122618	-0.209936	0.492011
H617	H	0.551164	-0.766085	-0.047361
H618	H	1.051164	-0.266085	0.452639
H619	H	0.543692	-0.777274	-0.150798
H620	H	1.043692	-0.277274	0.349202
H621	H	0.607675	-0.732313	-0.214859
H622	H	1.107675	-0.232313	0.285141
C623	C	0.825807	-0.156152	-0.558416
C624	C	1.325807	0.343848	-0.058416
C625	C	0.885239	-0.159834	-0.550916
C626	C	1.385239	0.340166	-0.050916
C627	C	0.922058	-0.128228	-0.580955
C628	C	1.422058	0.371772	-0.080955
C629	C	0.899444	-0.092940	-0.618495
C630	C	1.399444	0.407060	-0.118495
C631	C	0.840009	-0.089256	-0.625997
C632	C	1.340009	0.410744	-0.125997
C633	C	0.803190	-0.120862	-0.595957
C634	C	1.303190	0.379138	-0.095957
H635	H	0.901981	-0.185958	-0.523125
H636	H	1.401981	0.314042	-0.023125
H637	H	0.966056	-0.130955	-0.575402
H638	H	1.466056	0.369045	-0.075402
H639	H	0.926700	-0.069543	-0.640732
H640	H	1.426700	0.430457	-0.140732
H641	H	0.823267	-0.063132	-0.653787
H642	H	1.323267	0.436868	-0.153787
H643	H	0.759192	-0.118135	-0.601511
H644	H	1.259192	0.381865	-0.101511
H645	H	0.816233	-0.164390	-0.451558
H646	H	1.316233	0.335610	0.048442
C647	C	0.685254	-0.380917	-0.181634
C648	C	1.185254	0.119083	0.318366
C649	C	0.685238	-0.329309	-0.181633
C650	C	1.185238	0.170691	0.318367
C651	C	0.648468	-0.303544	-0.144819
C652	C	1.148468	0.196456	0.355181
C653	C	0.611713	-0.329385	-0.108007
C654	C	1.111713	0.170615	0.391993
C655	C	0.611727	-0.380996	-0.108006
C656	C	1.111727	0.119004	0.391994
C657	C	0.648498	-0.406762	-0.144820
C658	C	1.148498	0.093238	0.355180
H659	H	0.712448	-0.310177	-0.208886
H660	H	1.212448	0.189823	0.291114
H661	H	0.648458	-0.265338	-0.144820
H662	H	1.148458	0.234662	0.355180
H663	H	0.584493	-0.310312	-0.080755
H664	H	1.084493	0.189688	0.419245
H665	H	0.584518	-0.400128	-0.080754
H666	H	1.084518	0.099872	0.419246
H667	H	0.648508	-0.444968	-0.144819
H668	H	1.148508	0.055032	0.355181
H669	H	-0.044946	-0.164343	-0.191466
H670	H	0.455054	0.335657	0.308534
H671	H	0.661521	-0.829330	-0.157816
H672	H	1.161521	-0.329330	0.342184
H673	H	0.661441	-0.603466	-0.157783
H674	H	1.161441	-0.103466	0.342217
H675	H	0.849723	-0.135602	-0.702751
H676	H	1.349723	0.364398	-0.202751
H677	H	0.849733	-0.135578	-0.801796
H678	H	1.349733	0.364422	-0.301796
