data_functionalizedCrystal
_audit_creation_method	'MofGen! by Chris Wilmer'
_symmetry_space_group_name_H-M	'P1'
_symmetry_Int_Tables_number	1
_symmetry_cell_setting	triclinic
loop_
_symmetry_equiv_pos_as_xyz
  x,y,z
_cell_length_a	6.817900
_cell_length_b	17.982959
_cell_length_c	13.212919
_cell_angle_alpha	89.771093
_cell_angle_beta	106.298290
_cell_angle_gamma	102.451857
loop_
_atom_site_label
_atom_site_type_symbol
_atom_site_fract_x
_atom_site_fract_y
_atom_site_fract_z
V1	V	-4.038711	-0.082963	-0.325870
O2	O	-4.031221	0.027056	-0.319218
O3	O	-3.985122	-0.186690	-0.324072
O4	O	-3.997814	-0.071565	-0.467796
O5	O	-4.018441	-0.088866	-0.174499
V6	V	-4.522039	-0.071000	-0.307712
O7	O	-4.300397	-0.109206	-0.365699
O8	O	-4.710551	-0.044757	-0.267882
O9	O	-4.352422	0.032727	-0.309509
O10	O	-4.646926	-0.181020	-0.314364
O11	O	-4.659706	-0.065097	-0.459082
O12	O	-4.339729	-0.082399	-0.165786
C13	C	-3.828617	-0.212293	-0.319043
C14	C	-3.866138	-0.297025	-0.318519
C15	C	-4.065959	-0.340354	-0.323496
C16	C	-4.101205	-0.419969	-0.323010
C17	C	-3.936624	-0.456254	-0.317540
C18	C	-3.736789	-0.412920	-0.312567
C19	C	-3.701549	-0.333307	-0.313060
C20	C	-3.878904	-0.733993	-0.310578
C21	C	-3.914159	-0.813612	-0.310082
C22	C	-4.278560	-0.820655	-0.320528
C23	C	-4.243320	-0.741042	-0.321022
C24	C	-4.043492	-0.697715	-0.316054
C25	C	-4.005277	-0.611387	-0.316582
C26	C	-3.974833	-0.542580	-0.317004
C27	C	-3.844807	-0.065438	-0.502375
C28	C	-3.892619	-0.056805	-0.618403
C29	C	-4.057750	-0.178046	-0.866831
C30	C	-4.102675	-0.169938	-0.975851
C31	C	-4.027410	-0.032481	-0.945465
C32	C	-3.982485	-0.040589	-0.836445
C33	C	-3.997655	-0.113374	-0.797133
C34	C	-3.952714	-0.121481	-0.688110
C35	C	-3.877464	0.015975	-0.657727
C36	C	-3.922390	0.024083	-0.766747
C37	C	-4.172268	0.058325	-0.314536
C38	C	-4.113986	0.143058	-0.315066
C39	C	-4.156078	-0.088528	-0.131201
C40	C	-4.087505	-0.097158	-0.015172
H41	H	-3.602790	-0.442470	-0.308120
Cl42	Cl	-3.707240	-0.859227	-0.303207
Cl43	Cl	-4.076779	-0.269543	-0.817404
Cl44	Cl	-4.352416	-0.474436	-0.329264
H45	H	-4.151607	-0.222601	-1.032596
Cl46	Cl	-4.008361	0.059012	-0.994906
Cl47	Cl	-3.450339	-0.278837	-0.306810
H48	H	-3.910054	0.083342	-0.798771
Cl49	Cl	-3.801894	0.097282	-0.570098
Cl50	Cl	-3.627691	-0.679535	-0.304324
H51	H	-4.199979	-0.310816	-0.327939
Cl52	Cl	-4.450226	-0.695430	-0.327884
H53	H	-3.965057	-0.180746	-0.656104
H54	H	-4.441274	-0.855942	-0.324575
