data_functionalizedCrystal
_audit_creation_method	'MofGen! by Chris Wilmer'
_symmetry_space_group_name_H-M	'P1'
_symmetry_Int_Tables_number	1
_symmetry_cell_setting	triclinic
loop_
_symmetry_equiv_pos_as_xyz
  x,y,z
_cell_length_a	6.817900
_cell_length_b	11.102289
_cell_length_c	17.982968
_cell_angle_alpha	94.232897
_cell_angle_beta	102.451960
_cell_angle_gamma	108.605707
loop_
_atom_site_label
_atom_site_type_symbol
_atom_site_fract_x
_atom_site_fract_y
_atom_site_fract_z
V1	V	-4.041372	-0.177030	-0.237548
O2	O	-4.001741	0.007282	-0.233027
O3	O	-4.018629	-0.349842	-0.235924
O4	O	-3.987555	-0.174844	-0.341151
O5	O	-4.033030	-0.168927	-0.127070
V6	V	-4.522378	-0.154920	-0.224334
O7	O	-4.308154	-0.225528	-0.266534
O8	O	-4.705794	-0.106422	-0.195348
O9	O	-4.321914	0.017892	-0.225959
O10	O	-4.679407	-0.339232	-0.228856
O11	O	-4.648117	-0.163023	-0.334812
O12	O	-4.352988	-0.157106	-0.120731
C13	C	-3.870047	-0.391953	-0.232176
C14	C	-3.932702	-0.533232	-0.231538
C15	C	-4.145023	-0.606098	-0.235039
C16	C	-4.203886	-0.738847	-0.234446
C17	C	-3.838085	-0.725851	-0.226848
C18	C	-3.779228	-0.593106	-0.227447
C19	C	-4.356214	-0.613601	-0.239423
C20	C	-4.415077	-0.746350	-0.238830
C21	C	-3.830408	-0.168724	-0.366404
C22	C	-3.867860	-0.168081	-0.451100
C23	C	-4.068320	-0.174147	-0.494771
C24	C	-4.103498	-0.173542	-0.574352
C25	C	-3.938217	-0.166879	-0.610260
C26	C	-3.737738	-0.160808	-0.566583
C27	C	-3.702558	-0.161405	-0.487003
C28	C	-3.879608	-0.158402	-0.887520
C29	C	-3.914806	-0.157810	-0.967106
C30	C	-4.280548	-0.170538	-0.974869
C31	C	-4.245368	-0.171135	-0.895289
C32	C	-4.044890	-0.165057	-0.851618
C33	C	-4.006747	-0.165712	-0.765327
C34	C	-3.976361	-0.166234	-0.696550
C35	C	-4.133840	0.059996	-0.229704
C36	C	-4.050423	0.201275	-0.230347
C37	C	-4.173479	-0.163230	-0.095475
C38	C	-4.115265	-0.163867	-0.010778
H39	H	-4.451716	-0.594659	-0.294832
H40	H	-3.539309	-0.156434	-0.451443
H41	H	-4.530215	-0.804500	-0.295274
H42	H	-3.606347	-0.533785	-0.224605
C43	C	-4.377216	-0.542018	-0.167837
C44	C	-4.315950	-0.410327	-0.172271
C45	C	-4.335236	-0.344341	-0.106335
H46	H	-4.521562	-0.572921	-0.164555
H47	H	-4.287471	-0.555669	-0.123380
H48	H	-4.405695	-0.396685	-0.216715
H49	H	-4.171606	-0.379387	-0.175542
H50	H	-4.245491	-0.357992	-0.061879
H51	H	-4.479585	-0.375255	-0.103059
H52	H	-4.293653	-0.254981	-0.109331
H53	H	-4.481755	-0.771058	-0.186786
H54	H	-4.202920	-0.179581	-0.465542
C55	C	-4.321318	-0.180382	-0.621746
C56	C	-4.476846	-0.294278	-0.615016
C57	C	-4.677528	-0.300621	-0.658668
H58	H	-4.354533	-0.108696	-0.603376
H59	H	-4.318740	-0.179134	-0.674299
H60	H	-4.479430	-0.295514	-0.562473
H61	H	-4.443702	-0.365984	-0.633390
H62	H	-4.674949	-0.299373	-0.711222
H63	H	-4.710721	-0.228930	-0.640294
H64	H	-4.783075	-0.377904	-0.654113
H65	H	-4.379964	-0.176566	-0.866057
H66	H	-4.443787	-0.175481	-1.010436
C67	C	-3.735434	-0.150367	-1.006174
C68	C	-3.691263	-0.039774	-1.041388
C69	C	-3.526072	-0.032885	-1.077395
H70	H	-3.610832	-0.146756	-0.968846
H71	H	-3.777968	-0.224323	-1.044055
H72	H	-3.648720	0.034163	-1.003512
H73	H	-3.815818	-0.043360	-1.078728
H74	H	-3.568606	-0.106841	-1.115275
H75	H	-3.401483	-0.029279	-1.040061
H76	H	-3.496094	0.042145	-1.101297
C77	C	-3.662192	-0.152178	-0.840097
C78	C	-3.685255	-0.262105	-0.804497
C79	C	-3.485025	-0.256480	-0.760821
H80	H	-3.568756	-0.148243	-0.872843
H81	H	-3.604173	-0.077732	-0.801860
H82	H	-3.743244	-0.336531	-0.842730
H83	H	-3.778653	-0.266062	-0.771739
H84	H	-3.427006	-0.182034	-0.722584
H85	H	-3.391605	-0.252542	-0.793572
H86	H	-3.500649	-0.331057	-0.736656
H87	H	-3.603162	-0.155376	-0.595825
H88	H	-3.713141	-0.774616	-0.223518
