data_functionalizedCrystal
_audit_creation_method	'MofGen! by Chris Wilmer'
_symmetry_space_group_name_H-M	'P1'
_symmetry_Int_Tables_number	1
_symmetry_cell_setting	triclinic
loop_
_symmetry_equiv_pos_as_xyz
  x,y,z
_cell_length_a	18.101398
_cell_length_b	21.295417
_cell_length_c	18.101389
_cell_angle_alpha	90.022566
_cell_angle_beta	90.024327
_cell_angle_gamma	90.025773
loop_
_atom_site_label
_atom_site_type_symbol
_atom_site_fract_x
_atom_site_fract_y
_atom_site_fract_z
Zn1	Zn	1.132124	-0.250755	0.418817
Zn2	Zn	1.132021	-0.356008	0.294967
Zn3	Zn	1.008283	-0.250748	0.294979
Zn4	Zn	1.008235	-0.355981	0.418755
O5	O	1.070166	-0.303373	0.356880
O6	O	1.235743	-0.264731	0.402409
O7	O	1.115584	-0.342054	0.191335
O8	O	1.024774	-0.162660	0.311437
O9	O	1.235668	-0.342060	0.311417
O10	O	1.115759	-0.162664	0.402421
O11	O	1.024674	-0.264720	0.191344
O12	O	0.904644	-0.264694	0.311377
O13	O	1.024692	-0.342014	0.522397
O14	O	0.904609	-0.342008	0.402315
O15	O	1.115713	-0.264705	0.522442
O16	O	1.115538	-0.444094	0.311357
O17	O	1.024592	-0.444074	0.402304
C18	C	0.877755	-0.303348	0.356841
C19	C	0.795441	-0.303352	0.356842
C20	C	1.070069	-0.466925	0.356839
C21	C	1.070095	-0.536893	0.356846
C22	C	0.496350	-0.303391	0.356904
C23	C	0.527673	-0.254504	0.299967
C24	C	0.613291	-0.254635	0.299724
C25	C	0.644733	-0.303371	0.356873
C26	C	0.613615	-0.369679	0.335543
C27	C	0.527970	-0.369407	0.335147
C28	C	0.527965	-0.286547	0.435305
C29	C	0.613615	-0.285070	0.434877
C30	C	0.728592	-0.303364	0.356857
C31	C	0.412491	-0.303403	0.356919
C32	C	1.117492	-0.569749	0.309538
C33	C	1.117527	-0.635491	0.309555
C34	C	1.070151	-0.668375	0.356871
C35	C	1.022751	-0.635511	0.404188
C36	C	1.022722	-0.569770	0.404175
N37	N	1.005367	-0.771637	0.362504
N38	N	1.005396	-0.834089	0.362512
C39	C	1.070234	-0.866450	0.356914
N40	N	1.135044	-0.834001	0.351293
N41	N	1.135014	-0.771543	0.351282
C42	C	1.070177	-0.739661	0.356891
C43	C	1.117673	-0.970592	0.309622
C44	C	1.117709	-1.036335	0.309644
C45	C	1.022926	-1.036354	0.404273
C46	C	1.022897	-0.970612	0.404255
C47	C	1.070269	-0.937734	0.356925
C48	C	1.263328	-0.303399	0.356919
C49	C	1.345642	-0.303410	0.356935
C50	C	1.070209	-0.303357	0.550042
C51	C	1.070227	-0.303350	0.632356
C52	C	1.070283	-0.139183	0.356937
C53	C	1.070334	-0.069215	0.356961
C54	C	1.070166	-0.303344	0.164469
C55	C	1.070291	-0.303173	0.082155
C56	C	1.070270	-0.303232	0.931447
C57	C	1.012805	-0.351719	0.900093
C58	C	1.012960	-0.351944	0.814475
C59	C	1.070248	-0.303291	0.783064
C60	C	1.148274	-0.321303	0.814168
C61	C	1.147953	-0.321621	0.899813
C62	C	1.050388	-0.236626	0.899877
C63	C	1.048652	-0.237011	0.814226
C64	C	1.070240	-0.303323	0.699205
C65	C	1.070283	-0.303202	1.015306
H66	H	0.507102	-0.205183	0.313191
H67	H	1.192239	-0.287098	0.793825
C68	C	0.642533	-0.329671	0.495257
C69	C	0.587828	-0.368749	0.541405
C70	C	0.616748	-0.413357	0.601780
C71	C	0.700372	-0.418888	0.616007
C72	C	0.755082	-0.379809	0.569857
C73	C	0.726162	-0.335201	0.509482
H74	H	0.525920	-0.364656	0.530875
H75	H	0.576248	-0.442286	0.635943
H76	H	0.721781	-0.451910	0.660700
H77	H	0.816991	-0.383902	0.580388
H78	H	0.766663	-0.306272	0.475320
H79	H	0.633959	-0.236275	0.450961
C80	C	0.934795	-0.336714	0.786065
C81	C	0.898097	-0.273829	0.806450
C82	C	0.819927	-0.258600	0.778049
C83	C	0.778455	-0.306256	0.729263
C84	C	0.815152	-0.369145	0.708875
C85	C	0.893323	-0.384374	0.737276
H86	H	0.928798	-0.238547	0.842566
H87	H	0.792761	-0.212046	0.793141
H88	H	0.720588	-0.294983	0.708239
H89	H	0.784452	-0.404427	0.672759
H90	H	0.920489	-0.430928	0.722184
C91	C	1.101073	-0.185616	0.785349
C92	C	1.107574	-0.173524	0.701734
C93	C	1.160004	-0.122132	0.672858
C94	C	1.205932	-0.082831	0.727596
C95	C	1.199432	-0.094922	0.811216
C96	C	1.147002	-0.146314	0.840092
H97	H	1.073574	-0.202618	0.661209
H98	H	1.164816	-0.113182	0.610957
H99	H	1.244744	-0.044788	0.706221
H100	H	1.233432	-0.065828	0.851741
H101	H	1.142190	-0.155264	0.901993
H102	H	1.156126	-0.662248	0.271032
C103	C	0.970636	-0.671681	0.456236
C104	C	0.886447	-0.662701	0.450109
C105	C	0.834333	-0.698870	0.502161
C106	C	0.866408	-0.744019	0.560341
C107	C	0.950601	-0.753001	0.566470
C108	C	1.002715	-0.716832	0.514418
H109	H	0.862699	-0.629277	0.407039
H110	H	0.772007	-0.692221	0.497623
H111	H	0.827830	-0.770794	0.598873
H112	H	0.974349	-0.786425	0.609540
H113	H	1.065041	-0.723482	0.518955
C114	C	1.169854	-1.072478	0.257604
C115	C	1.163851	-1.063487	0.173407
C116	C	1.215997	-1.099630	0.121367
C117	C	1.274147	-1.144763	0.153524
C118	C	1.280153	-1.153756	0.237725
C119	C	1.228006	-1.117613	0.289765
H120	H	1.120802	-1.030075	0.149599
H121	H	1.211551	-1.092972	0.059035
H122	H	1.312750	-1.171518	0.115000
H123	H	1.323201	-1.187168	0.261533
H124	H	1.232452	-1.124271	0.352096
H125	H	0.984125	-0.543018	0.442700
C126	C	0.498552	-0.269352	0.221940
C127	C	0.553129	-0.284397	0.159151
C128	C	0.524004	-0.299240	0.081124
C129	C	0.440301	-0.299039	0.065886
C130	C	0.385719	-0.283993	0.128677
C131	C	0.414844	-0.269150	0.206704
H132	H	0.615096	-0.284547	0.170429
H133	H	0.564410	-0.310378	0.034642
H134	H	0.418741	-0.310027	0.008126
H135	H	0.323752	-0.283844	0.117398
H136	H	0.374438	-0.258012	0.253186
H137	H	1.156249	-0.943822	0.271085
H138	H	0.984355	-1.063127	0.442802
C139	C	0.970754	-0.934465	0.456291
C140	C	0.918642	-0.970632	0.508342
C141	C	0.866500	-0.934486	0.560383
C142	C	0.866470	-0.862173	0.560374
C143	C	0.918583	-0.826003	0.508321
C144	C	0.970725	-0.862149	0.456279
H145	H	0.918663	-1.024166	0.508350
H146	H	0.827922	-0.961263	0.598916
H147	H	0.827871	-0.835416	0.598898
H148	H	0.918562	-0.772469	0.508312
H149	H	1.009303	-0.835372	0.417746
C150	C	0.971086	-0.218651	0.786755
C151	C	0.937068	-0.155332	0.809766
C152	C	0.859504	-0.136974	0.782288
C153	C	0.815956	-0.181935	0.731799
C154	C	0.849973	-0.245258	0.708785
C155	C	0.927538	-0.263616	0.736263
H156	H	0.969305	-0.122046	0.847144
H157	H	0.834322	-0.090098	0.799325
H158	H	0.758538	-0.168345	0.711458
H159	H	0.817736	-0.278544	0.671407
H160	H	0.952719	-0.310493	0.719226
H161	H	0.954772	-0.340562	0.920680
H162	H	0.633745	-0.265769	0.241630
H163	H	1.025801	-0.400788	0.921614
C164	C	0.500606	-0.334647	0.492622
C165	C	0.519544	-0.404705	0.483417
C166	C	0.492184	-0.452807	0.540728
C167	C	0.445885	-0.430851	0.607243
C168	C	0.426944	-0.360790	0.616450
C169	C	0.454305	-0.312688	0.559140
H170	H	0.553819	-0.420960	0.434176
H171	H	0.506205	-0.504671	0.533911
H172	H	0.425631	-0.466459	0.649667
H173	H	0.392669	-0.344534	0.665692
H174	H	0.440283	-0.260824	0.565957
H175	H	0.634331	-0.205465	0.313095
H176	H	1.026087	-0.401314	0.793988
H177	H	1.164808	-0.370312	0.919793
C178	C	1.207770	-0.276003	0.927843
C179	C	1.255679	-0.239401	0.872294
C180	C	1.315502	-0.193791	0.900319
C181	C	1.327417	-0.184782	0.983894
C182	C	1.279507	-0.221385	1.039448
C183	C	1.219684	-0.266995	1.011423
H184	H	1.246860	-0.246069	0.810422
H185	H	1.350968	-0.166696	0.859194
H186	H	1.371702	-0.151019	1.004640
H187	H	1.288326	-0.214717	1.101320
H188	H	1.184218	-0.294090	1.052548
C189	C	1.169608	-0.533588	0.257482
C190	C	1.163618	-0.542675	0.173289
C191	C	1.215736	-0.506513	0.121234
C192	C	1.273844	-0.461265	0.153370
C193	C	1.279837	-0.452176	0.237567
C194	C	1.227719	-0.488337	0.289623
H195	H	1.120601	-0.576172	0.149496
H196	H	1.211300	-0.513242	0.058905
H197	H	1.312425	-0.434496	0.114835
H198	H	1.322854	-0.418678	0.261360
H199	H	1.232155	-0.481608	0.351951
H200	H	1.092243	-0.200501	0.920156
C201	C	1.171441	-0.386383	0.785205
C202	C	1.119702	-0.423238	0.733372
C203	C	1.142864	-0.488320	0.704411
C204	C	1.217765	-0.516548	0.727282
C205	C	1.269508	-0.479693	0.779118
C206	C	1.246346	-0.414611	0.808079
H207	H	1.064252	-0.402343	0.716439
H208	H	1.104560	-0.515602	0.666039
H209	H	1.234910	-0.564725	0.705844
H210	H	1.324958	-0.500588	0.796052
H211	H	1.284650	-0.387328	0.846452
H212	H	0.507959	-0.383693	0.277832
C213	C	0.974857	-0.214456	0.929030
C214	C	0.904919	-0.253289	0.912807
C215	C	0.829385	-0.231128	0.941960
C216	C	0.823791	-0.170133	0.987335
C217	C	0.893732	-0.131296	1.003559
C218	C	0.969265	-0.153458	0.974407
H219	H	0.909058	-0.298445	0.879216
H220	H	0.777610	-0.259878	0.929949
H221	H	0.767876	-0.153727	1.008915
H222	H	0.889593	-0.086140	1.037151
H223	H	1.021040	-0.124708	0.986418
C224	C	0.498826	-0.222364	0.461505
C225	C	0.553336	-0.168727	0.478502
C226	C	0.524196	-0.104542	0.504691
C227	C	0.440546	-0.093993	0.513883
C228	C	0.386030	-0.147632	0.496885
C229	C	0.415170	-0.211817	0.470696
H230	H	0.615263	-0.176534	0.471699
H231	H	0.564552	-0.064835	0.517274
H232	H	0.418974	-0.046480	0.533269
H233	H	0.324103	-0.139825	0.503688
H234	H	0.374814	-0.251524	0.458113
C235	C	0.499974	-0.420284	0.388719
C236	C	0.451170	-0.401881	0.454932
C237	C	0.423179	-0.452760	0.508499
C238	C	0.443991	-0.522041	0.495852
C239	C	0.492798	-0.540447	0.429636
C240	C	0.520789	-0.489569	0.376069
H241	H	0.435761	-0.350592	0.464297
H242	H	0.387049	-0.439134	0.557517
H243	H	0.423271	-0.559705	0.535506
H244	H	0.508207	-0.591737	0.420271
H245	H	0.556919	-0.503194	0.327051
C246	C	0.642536	-0.389316	0.258948
C247	C	0.587781	-0.402560	0.195695
C248	C	0.616699	-0.422193	0.119098
C249	C	0.700373	-0.428581	0.105753
C250	C	0.755134	-0.415337	0.169008
C251	C	0.726215	-0.395704	0.245605
H252	H	0.525835	-0.397831	0.205572
H253	H	0.576161	-0.431997	0.072273
H254	H	0.721780	-0.443115	0.049051
H255	H	0.817079	-0.420066	0.159131
H256	H	0.766753	-0.385900	0.292430
H257	H	0.633980	-0.407079	0.375715
