data_functionalizedCrystal
_audit_creation_method	'MofGen! by Chris Wilmer'
_symmetry_space_group_name_H-M	'P1'
_symmetry_Int_Tables_number	1
_symmetry_cell_setting	triclinic
loop_
_symmetry_equiv_pos_as_xyz
  x,y,z
_cell_length_a	10.723024
_cell_length_b	17.038272
_cell_length_c	9.198806
_cell_angle_alpha	89.996565
_cell_angle_beta	89.996352
_cell_angle_gamma	87.789713
loop_
_atom_site_label
_atom_site_type_symbol
_atom_site_fract_x
_atom_site_fract_y
_atom_site_fract_z
O1	O	1.667337	0.109720	-0.120885
O2	O	2.167337	0.609720	0.379115
O3	O	1.305156	0.120222	-0.120890
O4	O	1.805156	0.620222	0.379110
O5	O	1.484094	0.001144	-0.120876
O6	O	1.984094	0.501144	0.379124
O7	O	1.488399	0.228799	-0.120899
O8	O	1.988399	0.728799	0.379101
O9	O	1.484079	0.001144	0.120909
O10	O	1.984079	0.501144	0.620909
O11	O	1.305141	0.120222	0.120895
O12	O	1.805141	0.620222	0.620895
O13	O	1.667322	0.109720	0.120900
O14	O	2.167322	0.609720	0.620900
Cu15	Cu	1.486230	0.114971	0.142975
Cu16	Cu	1.986230	0.614971	0.642975
Cu17	Cu	1.486248	0.114971	-0.142964
Cu18	Cu	1.986248	0.614971	0.357036
O19	O	1.488384	0.228798	0.120886
O20	O	1.988384	0.728798	0.620886
C21	C	1.258578	0.119458	0.000002
C22	C	1.758578	0.619458	0.500002
C23	C	1.119813	0.117171	0.000000
C24	C	1.619813	0.617171	0.500000
C25	C	1.050993	0.183801	-0.000007
C26	C	1.550993	0.683801	0.499993
C27	C	0.907571	0.181440	-0.000009
C28	C	1.407571	0.681440	0.499991
C29	C	1.480171	-0.028006	0.000016
C30	C	1.980171	0.471994	0.500016
C31	C	1.468489	-0.114864	0.000016
C32	C	1.968489	0.385136	0.500016
C33	C	1.575744	-0.164385	0.000019
C34	C	2.075744	0.335615	0.500019
C35	C	1.564760	-0.245996	0.000005
C36	C	2.064760	0.254004	0.500005
C37	C	1.446520	-0.278084	-0.000002
C38	C	1.946520	0.221916	0.499998
C39	C	1.339256	-0.228557	-0.000009
C40	C	1.839256	0.271443	0.499991
C41	C	1.350241	-0.146947	-0.000006
C42	C	1.850241	0.353053	0.499994
C43	C	1.407711	-0.524057	-0.000022
C44	C	1.907711	-0.024057	0.499978
C45	C	1.396734	-0.605673	-0.000021
C46	C	1.896734	-0.105673	0.499979
C47	C	1.622239	-0.623107	-0.000010
C48	C	2.122239	-0.123107	0.499990
C49	C	1.633214	-0.541495	0.000002
C50	C	2.133214	-0.041495	0.500002
C51	C	1.525950	-0.491974	-0.000013
C52	C	2.025950	0.008026	0.499987
C53	C	1.435289	-0.361504	-0.000011
C54	C	1.935289	0.138496	0.499989
C55	C	1.537182	-0.408556	-0.000014
C56	C	2.037182	0.091444	0.499986
C57	C	1.713900	0.110484	0.000005
C58	C	2.213900	0.610484	0.500005
C59	C	1.852666	0.112771	-0.000003
C60	C	2.352666	0.612771	0.499997
C61	C	1.492307	0.257948	-0.000009
C62	C	1.992307	0.757948	0.499991
C63	C	1.503989	0.344806	-0.000018
C64	C	2.003989	0.844806	0.499982
N65	N	1.486226	0.114970	0.344089
N66	N	1.986226	0.614970	0.844089
N67	N	1.486261	0.114966	-0.344078
N68	N	1.986261	0.614966	0.155922
C69	C	1.561337	0.064752	0.416291
C70	C	2.061337	0.564752	0.916291
C71	C	1.561356	0.064749	0.583704
C72	C	2.061356	0.564749	1.083704
H73	H	1.098254	0.242594	-0.000005
H74	H	1.598254	0.742594	0.499995
O75	O	1.234554	-0.093535	0.000006
O76	O	1.734554	0.406465	0.500006
H77	H	1.234162	-0.055937	-0.098547
H78	H	1.734162	0.444063	0.401453
O79	O	1.703281	-0.129783	0.000027
O80	O	2.203281	0.370217	0.500027
H81	H	1.692906	-0.064714	0.000042
H82	H	2.192906	0.435286	0.500042
H83	H	1.300443	-0.631796	-0.000003
H84	H	1.800443	-0.131796	0.499997
H85	H	1.652100	-0.286314	0.000011
H86	H	2.152100	0.213686	0.500011
O87	O	1.646500	0.007792	0.334034
O88	O	2.146500	0.507792	0.834034
H89	H	1.623852	-0.053249	0.363188
H90	H	2.123852	0.446751	0.863188
H91	H	1.072552	0.058378	-0.000031
H92	H	1.572552	0.558378	0.499969
O93	O	0.829228	0.257004	-0.000005
O94	O	1.329228	0.757004	0.499995
H95	H	0.728874	0.243291	0.000009
H96	H	1.228874	0.743291	0.500009
O97	O	1.211720	-0.263160	-0.000001
O98	O	1.711720	0.236840	0.499999
H99	H	1.222098	-0.328228	0.000018
H100	H	1.722098	0.171772	0.500018
O101	O	0.931006	0.037206	0.000021
O102	O	1.431006	0.537206	0.500021
H103	H	0.990777	0.034825	-0.098517
H104	H	1.490777	0.534825	0.401483
O105	O	1.401059	0.171909	0.573685
O106	O	1.901059	0.671909	1.073685
H107	H	1.457859	0.210092	0.504305
H108	H	1.957859	0.710092	1.004305
H109	H	1.625666	0.021758	0.645795
H110	H	2.125666	0.521758	1.145795
H111	H	1.729498	-0.515375	0.000008
H112	H	2.229498	-0.015375	0.500008
O113	O	1.664711	-0.373951	-0.000020
O114	O	2.164711	0.126049	0.499980
H115	H	1.716667	-0.393799	0.098525
H116	H	2.216667	0.106201	0.598525
O117	O	1.307762	-0.396119	0.000013
O118	O	1.807762	0.103881	0.500013
H119	H	1.297371	-0.432886	-0.098528
H120	H	1.797371	0.067114	0.401472
O121	O	1.401069	0.171933	0.426348
O122	O	1.901069	0.671933	0.926348
H123	H	1.336797	0.138745	0.495725
H124	H	1.836797	0.638745	0.995725
H125	H	1.709567	-0.663435	-0.000001
H126	H	2.209567	-0.163435	0.499999
H127	H	1.320369	-0.483747	-0.000034
H128	H	1.820369	0.016253	0.499966
