data_functionalizedCrystal
_audit_creation_method	'MofGen! by Chris Wilmer'
_symmetry_space_group_name_H-M	'P1'
_symmetry_Int_Tables_number	1
_symmetry_cell_setting	triclinic
loop_
_symmetry_equiv_pos_as_xyz
  x,y,z
_cell_length_a	27.731993
_cell_length_b	26.809956
_cell_length_c	19.288865
_cell_angle_alpha	89.999100
_cell_angle_beta	97.121679
_cell_angle_gamma	89.997216
loop_
_atom_site_label
_atom_site_type_symbol
_atom_site_fract_x
_atom_site_fract_y
_atom_site_fract_z
O1	O	0.641197	0.041351	-0.082458
O2	O	0.500438	0.041382	-0.095064
O3	O	0.574885	0.041356	0.012396
O4	O	0.566751	0.041377	-0.189918
O5	O	0.574871	-0.041603	0.012379
O6	O	0.500424	-0.041577	-0.095081
O7	O	0.641183	-0.041608	-0.082474
Zn8	Zn	0.570802	-0.054764	-0.088780
Zn9	Zn	0.570820	0.054538	-0.088759
O10	O	0.566737	-0.041582	-0.189934
C11	C	0.482423	-0.000094	-0.094814
C12	C	0.428764	-0.000082	-0.094035
N13	N	0.570792	-0.129360	-0.088794
C14	C	0.045595	0.045114	-0.088378
C15	C	0.247261	0.045128	-0.091348
O16	O	0.273342	0.083588	-0.091696
N17	N	0.272475	-0.000092	-0.091728
C18	C	0.247269	-0.045319	-0.091362
O19	O	0.273343	-0.083781	-0.091746
C20	C	0.045604	-0.045332	-0.088387
C21	C	0.020393	-0.000109	-0.088013
C22	C	0.020383	0.090334	-0.088003
C23	C	-0.030031	0.090330	-0.087265
C24	C	-0.055233	0.045106	-0.086900
C25	C	-0.030021	-0.000113	-0.087274
C26	C	0.020400	-0.090558	-0.088015
C27	C	-0.030019	-0.090557	-0.087269
C28	C	-0.055231	-0.045334	-0.086896
C29	C	-0.105637	-0.045340	-0.086171
N30	N	-0.130851	-0.000120	-0.085791
C31	C	-0.105649	0.045103	-0.086155
C32	C	0.353146	-0.045308	-0.092925
C33	C	0.403562	-0.045305	-0.093670
C34	C	0.403551	0.045142	-0.093655
C35	C	0.353133	0.045138	-0.092915
C36	C	0.327933	-0.000088	-0.092545
C37	C	-0.211522	0.045092	-0.084604
C38	C	-0.261941	0.045084	-0.083869
C39	C	-0.261924	-0.045363	-0.083880
C40	C	-0.211510	-0.045355	-0.084620
C41	C	-0.186310	-0.000124	-0.084979
O42	O	-0.131748	-0.083780	-0.085814
O43	O	-0.131730	0.083560	-0.085755
C44	C	0.096009	0.045118	-0.089116
C45	C	0.121220	-0.000101	-0.089491
C46	C	0.096018	-0.045324	-0.089126
C47	C	0.171636	-0.000098	-0.090236
C48	C	0.196839	0.045125	-0.090600
C49	C	0.171625	0.090345	-0.090219
C50	C	0.121211	0.090341	-0.089481
C51	C	0.121232	-0.090544	-0.089507
C52	C	0.171646	-0.090537	-0.090246
C53	C	0.196848	-0.045314	-0.090611
C54	C	0.603781	-0.473998	-0.041187
C55	C	0.603792	-0.682876	-0.041176
O56	O	0.631821	-0.709889	-0.000703
N57	N	0.570823	-0.708987	-0.088743
C58	C	0.537846	-0.682876	-0.136313
O59	O	0.509800	-0.709879	-0.176767
C60	C	0.537832	-0.474000	-0.136320
C61	C	0.570807	-0.447891	-0.088755
C62	C	0.636753	-0.447889	0.006375
C63	C	0.636751	-0.395673	0.006369
C64	C	0.603778	-0.369565	-0.041198
C65	C	0.570806	-0.395674	-0.088760
C66	C	0.504853	-0.447890	-0.183886
C67	C	0.504852	-0.395667	-0.183882
C68	C	0.537827	-0.369558	-0.136317
C69	C	0.537831	-0.317351	-0.136334
N70	N	0.570801	-0.291239	-0.088767
C71	C	0.603774	-0.317346	-0.041199
C72	C	0.537856	-0.792540	-0.136307
C73	C	0.537860	-0.844759	-0.136306
C74	C	0.603806	-0.844754	-0.041168
C75	C	0.603804	-0.792534	-0.041173
C76	C	0.570825	-0.766428	-0.088740
C77	C	0.603769	-0.207688	-0.041215
C78	C	0.603766	-0.155467	-0.041227
C79	C	0.537818	-0.155476	-0.136362
C80	C	0.537823	-0.207693	-0.136353
C81	C	0.570800	-0.233797	-0.088774
O82	O	0.509814	-0.290305	-0.176780
O83	O	0.631809	-0.290335	-0.000741
C84	C	0.603782	-0.526214	-0.041181
C85	C	0.570810	-0.552323	-0.088743
C86	C	0.537837	-0.526216	-0.136311
C87	C	0.570814	-0.604542	-0.088743
C88	C	0.603788	-0.630649	-0.041175
C89	C	0.636757	-0.604538	0.006392
C90	C	0.636756	-0.552322	0.006386
C91	C	0.504867	-0.552328	-0.183878
C92	C	0.504872	-0.604544	-0.183869
C93	C	0.537845	-0.630651	-0.136301
C94	C	0.659199	-0.000131	-0.082725
C95	C	0.712857	-0.000140	-0.083504
C96	C	0.574616	-0.000125	0.038262
C97	C	0.573831	-0.000129	0.115361
N98	N	0.570833	0.129134	-0.088739
C99	C	0.567005	-0.000100	-0.215801
C100	C	0.567791	-0.000092	-0.292899
C101	C	0.617513	-0.000142	0.160342
C102	C	0.616775	-0.000134	0.232784
C103	C	0.572352	-0.000123	0.260242
C104	C	0.528664	-0.000108	0.215251
C105	C	0.529403	-0.000111	0.142810
C106	C	0.537425	-0.029174	0.368296
C107	C	0.536688	-0.029174	0.440736
C108	C	0.570069	-0.000112	0.483673
C109	C	0.604197	0.028945	0.454163
C110	C	0.604936	0.028942	0.381722
C111	C	0.571545	-0.000120	0.338791
C112	C	0.612954	-0.000114	0.607204
C113	C	0.612214	-0.000103	0.679648
C114	C	0.524102	-0.000083	0.662113
C115	C	0.524844	-0.000089	0.589671
C116	C	0.569271	-0.000107	0.562222
H117	H	-0.191010	0.081923	-0.084898
N118	N	0.641740	0.060279	0.349891
H119	H	0.662777	0.078692	0.388079
H120	H	0.624262	0.085106	0.316294
H121	H	-0.050535	-0.127387	-0.086974
N122	N	0.672322	-0.632702	0.057697
H123	H	0.706611	-0.623619	0.050045
H124	H	0.667274	-0.669734	0.050449
H125	H	0.508897	-0.052831	0.464756
H126	H	0.477996	-0.374414	-0.222617
N127	N	0.502257	-0.235850	-0.187660
H128	H	0.480913	-0.257512	-0.161332
H129	H	0.520691	-0.257491	-0.218216
N130	N	0.502296	-0.872917	-0.187610
H131	H	0.507749	-0.863828	-0.236854
H132	H	0.468025	-0.863814	-0.179892
N133	N	0.663888	-0.000155	0.281315
H134	H	0.665554	0.030597	0.311764
H135	H	0.692119	-0.000186	0.252888
H136	H	-0.190983	-0.082180	-0.084938
H137	H	0.478002	-0.469140	-0.222618
N138	N	0.660870	-0.000132	0.577594
H139	H	0.663134	-0.030890	0.547938
H140	H	0.688401	-0.000117	0.617125
N141	N	0.659331	-0.000114	0.728167
H142	H	0.687585	-0.000128	0.699782
H143	H	0.660933	-0.030867	0.758608
H144	H	0.510973	-0.134212	-0.175093
H145	H	0.040898	0.127162	-0.088298
H146	H	0.100688	0.127167	-0.089177
N147	N	0.198811	0.139124	-0.090605
H148	H	0.186024	0.158902	-0.133545
H149	H	0.234568	0.132219	-0.091102
N150	N	0.665431	-0.000158	0.130743
H151	H	0.684567	0.030591	0.147184
H152	H	0.659237	-0.000176	0.078031
N153	N	0.639371	-0.872917	0.010137
H154	H	0.634367	-0.909959	0.002915
H155	H	0.633893	-0.863792	0.059356
N156	N	-0.289133	0.093862	-0.083466
H157	H	-0.265514	0.122510	-0.083806
H158	H	-0.306036	0.095826	-0.040083
H159	H	0.478020	-0.625798	-0.222608
N160	N	0.198835	-0.139316	-0.090657
H161	H	0.175215	-0.167963	-0.090314
H162	H	0.223767	-0.141290	-0.047888
H163	H	0.478016	-0.531075	-0.222613
H164	H	0.631379	0.052611	0.489121
H165	H	0.487933	-0.000072	0.684468
H166	H	0.100718	-0.127371	-0.089206
N167	N	0.672322	-0.524165	0.057689
H168	H	0.693207	-0.548634	0.087820
H169	H	0.653887	-0.502499	0.088212
N170	N	0.477729	-0.000079	0.541151
H171	H	0.449475	-0.000072	0.569535
H172	H	0.476112	-0.030834	0.510715
N173	N	0.501421	-0.060533	0.322000
H174	H	0.519480	-0.085392	0.295484
H175	H	0.480973	-0.038240	0.287849
H176	H	-0.050554	0.127155	-0.086957
H177	H	0.493831	-0.000102	0.106186
N178	N	0.639327	-0.127309	0.010089
H179	H	0.634324	-0.090266	0.002872
H180	H	0.673600	-0.136437	0.002420
H181	H	0.492495	-0.000099	0.237612
H182	H	0.511000	-0.771287	-0.175044
N183	N	0.325943	0.093913	-0.092510
H184	H	0.349563	0.122560	-0.092856
H185	H	0.309043	0.095880	-0.049124
H186	H	0.424084	-0.082130	-0.093986
N187	N	0.430737	0.093919	-0.094049
H188	H	0.466500	0.087055	-0.094577
H189	H	0.425942	0.113660	-0.050837
N190	N	0.325969	-0.094091	-0.092527
H191	H	0.349638	-0.122733	-0.092414
H192	H	0.301255	-0.096206	-0.135530
H193	H	0.040919	-0.127384	-0.088317
H194	H	-0.282453	-0.082183	-0.083586
H195	H	0.630621	-0.228937	-0.002471
H196	H	0.663604	-0.469141	0.045114
N197	N	0.672316	-0.367516	0.057675
H198	H	0.693200	-0.391985	0.087807
H199	H	0.653878	-0.345851	0.088196
H200	H	0.630655	-0.771280	-0.002441
