data_functionalizedCrystal
_audit_creation_method	'MofGen! by Chris Wilmer'
_symmetry_space_group_name_H-M	'P1'
_symmetry_Int_Tables_number	1
_symmetry_cell_setting	triclinic
loop_
_symmetry_equiv_pos_as_xyz
  x,y,z
_cell_length_a	15.297475
_cell_length_b	16.625546
_cell_length_c	15.296720
_cell_angle_alpha	80.357530
_cell_angle_beta	88.382886
_cell_angle_gamma	80.324704
loop_
_atom_site_label
_atom_site_type_symbol
_atom_site_fract_x
_atom_site_fract_y
_atom_site_fract_z
Zn1	Zn	1.253404	-0.627523	0.726565
Zn2	Zn	1.586738	-0.294190	1.059898
Zn3	Zn	1.920071	0.039144	1.393231
Zn4	Zn	1.278668	-0.743625	0.580074
Zn5	Zn	1.612001	-0.410292	0.913407
Zn6	Zn	1.945334	-0.076959	1.246741
Zn7	Zn	1.132282	-0.582227	0.554808
Zn8	Zn	1.465615	-0.248893	0.888141
Zn9	Zn	1.798948	0.084440	1.221474
Zn10	Zn	1.106894	-0.735700	0.701203
Zn11	Zn	1.440227	-0.402366	1.034536
Zn12	Zn	1.773560	-0.069033	1.367870
O13	O	1.192812	-0.672269	0.640662
O14	O	1.526145	-0.338935	0.973996
O15	O	1.859478	-0.005602	1.307329
O16	O	1.379334	-0.665198	0.728320
O17	O	1.712667	-0.331865	1.061654
O18	O	2.046000	0.001469	1.394987
O19	O	1.280447	-0.706576	0.454149
O20	O	1.613780	-0.373242	0.787482
O21	O	1.947114	-0.039909	1.120815
O22	O	1.148401	-0.475417	0.577632
O23	O	1.481735	-0.142084	0.910965
O24	O	1.815068	0.191249	1.244298
O25	O	1.397894	-0.750498	0.620694
O26	O	1.731228	-0.417164	0.954028
O27	O	2.064561	-0.083831	1.287361
O28	O	1.237389	-0.508696	0.703821
O29	O	1.570723	-0.175363	1.037154
O30	O	1.904056	0.157970	1.370487
O31	O	1.172898	-0.587997	0.435586
O32	O	1.506231	-0.254664	0.768919
O33	O	1.839565	0.078670	1.102252
O34	O	1.006336	-0.580312	0.553039
O35	O	1.339669	-0.246978	0.886373
O36	O	1.673003	0.086355	1.219706
O37	O	1.105131	-0.736989	0.827141
O38	O	1.438464	-0.403656	1.160474
O39	O	1.771798	-0.070323	1.493808
O40	O	0.987683	-0.693068	0.660595
O41	O	1.321017	-0.359734	0.993929
O42	O	1.654350	-0.026401	1.327262
O43	O	1.212772	-0.657513	0.845774
O44	O	1.546105	-0.324179	1.179107
O45	O	1.879438	0.009154	1.512441
O46	O	1.255829	-0.855392	0.596102
O47	O	1.589162	-0.522059	0.929435
O48	O	1.922496	-0.188725	1.262769
O49	O	1.129628	-0.849569	0.685095
O50	O	1.462961	-0.516236	1.018428
O51	O	1.796294	-0.182902	1.351762
C52	C	0.965226	-0.630915	0.601324
C53	C	1.298560	-0.297582	0.934657
C54	C	1.631893	0.035752	1.267991
C55	C	0.867861	-0.613246	0.584516
C56	C	1.201194	-0.279912	0.917849
C57	C	1.534527	0.053421	1.251183
C58	C	1.192735	-0.881740	0.640611
C59	C	1.526069	-0.548407	0.973945
C60	C	1.859402	-0.215073	1.307278
C61	C	1.192778	-0.971371	0.640633
C62	C	1.526111	-0.638037	0.973966
C63	C	1.859444	-0.304704	1.307299
C64	C	0.554716	-0.798559	0.760796
C65	C	0.888049	-0.465226	1.094129
C66	C	1.221382	-0.131893	1.427463
C67	C	0.646196	-0.815166	0.776586
C68	C	0.979529	-0.481833	1.109919
C69	C	1.312863	-0.148499	1.443252
C70	C	0.701616	-0.764687	0.728570
C71	C	1.034950	-0.431354	1.061903
C72	C	1.368283	-0.098021	1.395237
C73	C	0.665548	-0.697599	0.664761
C74	C	0.998881	-0.364266	0.998094
C75	C	1.332215	-0.030933	1.331428
C76	C	0.574060	-0.680995	0.648965
C77	C	0.907393	-0.347661	0.982298
C78	C	1.240726	-0.014328	1.315632
C79	C	0.720961	-0.647123	0.616739
C80	C	1.054294	-0.313789	0.950072
C81	C	1.387627	0.019544	1.283405
C82	C	0.684892	-0.580034	0.552930
C83	C	1.018225	-0.246701	0.886263
C84	C	1.351559	0.086632	1.219597
C85	C	0.593412	-0.563433	0.537137
C86	C	0.926746	-0.230099	0.870470
C87	C	1.260079	0.103234	1.203804
C88	C	0.537992	-0.613911	0.585153
C89	C	0.871325	-0.280578	0.918486
C90	C	1.204659	0.052755	1.251820
C91	C	0.812449	-0.663727	0.632535
C92	C	1.145782	-0.330394	0.965868
C93	C	1.479116	0.002939	1.299202
C94	C	0.831793	-0.546163	0.520704
C95	C	1.165126	-0.212829	0.854037
C96	C	1.498460	0.120504	1.187371
C97	C	0.740313	-0.529556	0.504914
C98	C	1.073646	-0.196222	0.838248
C99	C	1.406979	0.137111	1.171581
C100	C	1.192915	-1.299586	0.640750
C101	C	1.526248	-0.966252	0.974084
C102	C	1.859581	-0.632919	1.307417
C103	C	1.192873	-1.208266	0.640720
C104	C	1.526207	-0.874933	0.974053
C105	C	1.859540	-0.541599	1.307386
C106	C	1.192845	-1.135481	0.640691
C107	C	1.526179	-0.802148	0.974024
C108	C	1.859512	-0.468814	1.307358
C109	C	1.192805	-1.044156	0.640661
C110	C	1.526139	-0.710823	0.973995
C111	C	1.859472	-0.377489	1.307328
C112	C	1.421286	-0.713785	0.680155
C113	C	1.754619	-0.380451	1.013488
C114	C	2.087952	-0.047118	1.346821
C115	C	1.518648	-0.731476	0.696984
C116	C	1.851981	-0.398143	1.030317
C117	C	2.185314	-0.064809	1.363651
C118	C	1.153301	-0.701420	0.869128
C119	C	1.486635	-0.368086	1.202462
C120	C	1.819968	-0.034753	1.535795
C121	C	1.136464	-0.713842	0.966487
C122	C	1.469797	-0.380509	1.299820
C123	C	1.803131	-0.047175	1.633153
C124	C	1.192909	-0.461986	0.640737
C125	C	1.526243	-0.128653	0.974070
C126	C	1.859576	0.204680	1.307404
C127	C	1.192951	-0.372377	0.640769
C128	C	1.526284	-0.039043	0.974102
C129	C	1.859617	0.294290	1.307435
C130	C	1.232219	-0.643182	0.413094
C131	C	1.565552	-0.309849	0.746427
C132	C	1.898886	0.023485	1.079761
C133	C	1.249226	-0.630564	0.315765
C134	C	1.582559	-0.297230	0.649099
C135	C	1.915893	0.036103	0.982432
C136	C	1.313182	-0.583349	1.279731
C137	C	1.646515	-0.250015	1.613064
C138	C	1.979848	0.083318	1.946397
C139	C	1.329006	-0.571680	1.188259
C140	C	1.662340	-0.238346	1.521592
C141	C	1.995673	0.094987	1.854925
C142	C	1.280872	-0.607219	1.132811
C143	C	1.614205	-0.273886	1.466145
C144	C	1.947539	0.059448	1.799478
C145	C	1.216911	-0.654430	1.168845
C146	C	1.550244	-0.321097	1.502178
C147	C	1.883577	0.012237	1.835512
C148	C	1.201089	-0.666105	1.260327
C149	C	1.534422	-0.332772	1.593660
C150	C	1.867756	0.000561	1.926994
C151	C	1.168779	-0.689976	1.113407
C152	C	1.502113	-0.356642	1.446741
C153	C	1.835446	-0.023309	1.780074
C154	C	1.104818	-0.737187	1.149441
C155	C	1.438151	-0.403853	1.482774
C156	C	1.771485	-0.070520	1.816108
C157	C	1.088999	-0.748860	1.240914
C158	C	1.422332	-0.415526	1.574247
C159	C	1.755666	-0.082193	1.907581
C160	C	1.137133	-0.713320	1.296362
C161	C	1.470467	-0.379987	1.629695
C162	C	1.803800	-0.046654	1.963028
C163	C	1.184601	-0.678300	1.021925
C164	C	1.517934	-0.344967	1.355259
C165	C	1.851268	-0.011633	1.688592
C166	C	1.072508	-0.761057	1.002521
C167	C	1.405842	-0.427724	1.335855
C168	C	1.739175	-0.094390	1.669188
C169	C	1.056684	-0.772726	1.093994
C170	C	1.390017	-0.439393	1.427327
C171	C	1.723350	-0.106059	1.760660
H172	H	0.841806	-0.718351	0.684489
H173	H	1.175140	-0.385017	1.017823
H174	H	1.508473	-0.051684	1.351156
H175	H	0.463500	-0.600392	0.572302
H176	H	0.796833	-0.267059	0.905635
H177	H	1.130167	0.066274	1.238969
H178	H	0.876917	-0.505060	0.481604
H179	H	1.210250	-0.171726	0.814937
H180	H	1.543584	0.161607	1.148271
H181	H	1.036924	-0.787310	1.270251
H182	H	1.370258	-0.453977	1.603584
H183	H	1.703591	-0.120643	1.936917
H184	H	1.004605	-0.811165	1.123345
H185	H	1.337938	-0.477832	1.456679
H186	H	1.671272	-0.144499	1.790012
H187	H	1.352371	-0.554423	1.324884
H188	H	1.685704	-0.221090	1.658218
H189	H	2.019037	0.112243	1.991551
H190	H	0.710933	-0.474932	0.452960
H191	H	1.044266	-0.141599	0.786293
H192	H	1.377599	0.191735	1.119627
H193	H	1.033315	-0.789998	0.957376
H194	H	1.366648	-0.456664	1.290709
H195	H	1.699982	-0.123331	1.624043
H196	H	0.564050	-0.508812	0.485171
H197	H	0.897384	-0.175479	0.818504
H198	H	1.230717	0.157855	1.151837
H199	H	1.236678	-0.639860	0.992596
H200	H	1.570012	-0.306526	1.325929
H201	H	1.903345	0.026807	1.659262
H202	H	0.509586	-0.839656	0.799878
H203	H	0.842919	-0.506323	1.133212
H204	H	1.176252	-0.172989	1.466545
H205	H	1.293761	-0.597715	1.058331
H206	H	1.627094	-0.264382	1.391664
H207	H	1.960427	0.068952	1.724998
H208	H	1.381086	-0.533243	1.158927
H209	H	1.714419	-0.199909	1.492260
H210	H	2.047753	0.133424	1.825594
H211	H	0.776103	-0.778212	0.741430
H212	H	1.109437	-0.444879	1.074764
H213	H	1.442770	-0.111546	1.408097
H214	H	0.675556	-0.869791	0.828537
H215	H	1.008890	-0.536458	1.161870
H216	H	1.342223	-0.203124	1.495204
H217	H	1.124252	-0.722819	1.370847
H218	H	1.457586	-0.389486	1.704180
H219	H	1.790919	-0.056152	2.037513
