data_functionalizedCrystal
_audit_creation_method	'MofGen! by Chris Wilmer'
_symmetry_space_group_name_H-M	'P1'
_symmetry_Int_Tables_number	1
_symmetry_cell_setting	triclinic
loop_
_symmetry_equiv_pos_as_xyz
  x,y,z
_cell_length_a	14.395555
_cell_length_b	12.477989
_cell_length_c	12.478028
_cell_angle_alpha	61.136541
_cell_angle_beta	57.041236
_cell_angle_gamma	90.001811
loop_
_atom_site_label
_atom_site_type_symbol
_atom_site_fract_x
_atom_site_fract_y
_atom_site_fract_z
Zr1	Zr	0.807516	-0.242454	1.263406
O2	O	0.651685	-0.423010	1.484803
O3	O	0.868017	-0.172353	1.026047
O4	O	0.863845	-0.401727	1.240379
O5	O	0.644667	-0.029482	1.294200
O6	O	1.016719	-0.401717	1.240372
O7	O	0.655857	-0.193637	1.270471
O8	O	1.024183	0.008590	0.856971
O9	O	0.637203	-0.439790	1.677601
O10	O	0.992528	-0.160270	1.129582
O11	O	0.870089	-0.037771	1.147297
O12	O	0.865176	-0.307828	1.399645
O13	O	0.742737	-0.185329	1.417359
Zr14	Zr	1.033486	0.019369	1.301239
Zr15	Zr	1.051333	-0.242439	1.263394
Zr16	Zr	0.789669	0.019354	1.301251
Zr17	Zr	0.784420	-0.269215	1.570896
Zr18	Zr	1.056582	0.046130	0.993748
O19	O	0.972985	-0.050732	1.538597
O20	O	0.998361	-0.422989	1.484786
O21	O	0.626309	-0.050754	1.538614
O22	O	1.189317	0.199925	1.079842
O23	O	1.214693	-0.172332	1.026030
O24	O	0.842641	0.199904	1.079859
O25	O	1.196335	-0.193603	1.270445
O26	O	0.977157	0.178642	1.324265
O27	O	0.824283	0.178632	1.324273
O28	O	1.185145	-0.029449	1.294174
O29	O	0.831005	-0.439778	1.677592
O30	O	1.009997	0.216692	0.887053
O31	O	1.203799	0.216704	0.887044
O32	O	1.217985	0.008602	0.856962
O33	O	0.623017	-0.231688	1.707683
O34	O	0.816819	-0.231675	1.707674
O35	O	0.975826	0.084743	1.165000
O36	O	1.098265	-0.037756	1.147285
O37	O	0.970913	-0.185315	1.417348
O38	O	0.848474	-0.062815	1.435063
C39	C	0.615524	-0.111562	1.282337
C40	C	0.512017	-0.111568	1.282342
C41	C	0.949391	-0.078068	0.897698
C42	C	0.959196	-0.066708	0.767160
C43	C	0.898177	0.215939	1.329661
C44	C	0.890601	0.327083	1.345728
C45	C	0.381990	-0.192013	1.429594
C46	C	0.360345	-0.233589	1.344159
C47	C	0.349239	-0.070000	1.367769
C48	C	0.491741	-0.153212	1.196897
C49	C	0.480625	0.010439	1.220539
C50	C	0.459061	-0.031098	1.134994
C51	C	1.225478	-0.111524	1.282308
C52	C	1.328985	-0.111517	1.282302
C53	C	0.942825	-0.439024	1.234984
C54	C	0.950401	-0.550168	1.218917
C55	C	0.891611	-0.145017	1.666946
C56	C	0.881806	-0.156377	1.797484
C57	C	1.254368	-0.078050	0.897684
C58	C	1.367680	-0.066682	0.767141
C59	C	0.927067	0.249413	0.945037
C60	C	0.929296	0.371918	0.830566
C61	C	1.232045	0.249432	0.945022
C62	C	1.337780	0.371943	0.830546
C63	C	0.608957	-0.472517	1.619622
C64	C	0.503222	-0.595028	1.734099
C65	C	0.586634	-0.145036	1.666961
C66	C	0.473322	-0.156403	1.797504
C67	C	0.913935	-0.472498	1.619608
C68	C	0.911706	-0.595003	1.734079
C69	C	1.395421	0.438720	0.670556
C70	C	1.494783	0.553823	0.562973
C71	C	1.536498	0.602151	0.615383
C72	C	1.478851	0.535363	0.775387
C73	C	1.379495	0.420258	0.882967
C74	C	0.445590	-0.661815	1.894087
C75	C	0.346251	-0.776940	2.001667
C76	C	0.304541	-0.825272	1.949256
C77	C	0.362183	-0.758479	1.789252
C78	C	0.461525	-0.643361	1.681675
H79	H	0.308485	-0.336747	1.396396
H80	H	0.350436	-0.260127	1.554096
H81	H	0.479533	-0.622476	1.936791
H82	H	1.512830	0.574729	0.818040
H83	H	1.361471	0.399388	0.627854
H84	H	0.832081	0.266758	0.807107
H85	H	0.975076	0.470925	0.794179
N86	N	1.553588	0.622067	0.399555
N87	N	1.516279	0.578938	0.352801
H88	H	1.557785	0.627152	0.237392
N89	N	0.819114	0.301927	1.497348
N90	N	0.812859	0.395274	1.510629
H91	H	0.762374	0.377510	1.617709
H92	H	1.032964	0.018761	0.641319
H93	H	0.552874	-0.188465	1.124699
H94	H	0.299329	-0.831306	2.131943
N95	N	0.789284	-0.263597	0.955341
N96	N	0.781181	-0.272991	1.064720
H97	H	0.715837	-0.348717	1.176215
H98	H	1.332566	0.365899	1.013238
N99	N	0.203065	-0.942869	2.059175
N100	N	0.151624	-1.002477	2.202018
H101	H	0.079955	-1.085530	2.279657
N102	N	0.498938	0.054260	0.978654
N103	N	0.565926	0.032803	0.879100
H104	H	0.594090	0.093083	0.768684
H105	H	1.617400	0.695879	0.527768
N106	N	0.545666	0.139820	1.155085
N107	N	0.496402	0.197261	1.217566
H108	H	0.542332	0.288639	1.171351
N109	N	1.021879	0.475011	1.067294
N110	N	1.000476	0.538177	0.974565
H111	H	1.050956	0.555956	0.867477
N112	N	0.480828	0.040459	1.609361
N113	N	0.427546	0.056569	1.553444
H114	H	0.467323	0.132288	1.441960
N115	N	0.319538	-0.807866	1.735763
N116	N	0.216445	-0.820599	1.779283
H117	H	0.186316	-0.855480	1.741514
N118	N	0.416981	-0.263621	1.955365
N119	N	0.321919	-0.273040	2.064762
H120	H	0.282127	-0.348761	2.176252
N121	N	0.520386	-0.575113	1.518247
N122	N	0.609077	-0.472322	1.422194
H123	H	0.650645	-0.424123	1.306771
N124	N	0.272439	-0.025876	1.458401
N125	N	0.225456	-0.087602	1.600158
H126	H	0.171241	-0.056428	1.664167
