data_functionalizedCrystal
_audit_creation_method	'MofGen! by Chris Wilmer'
_symmetry_space_group_name_H-M	'P1'
_symmetry_Int_Tables_number	1
_symmetry_cell_setting	triclinic
loop_
_symmetry_equiv_pos_as_xyz
  x,y,z
_cell_length_a	14.908783
_cell_length_b	14.908520
_cell_length_c	14.908308
_cell_angle_alpha	83.639235
_cell_angle_beta	90.211273
_cell_angle_gamma	96.791586
loop_
_atom_site_label
_atom_site_type_symbol
_atom_site_fract_x
_atom_site_fract_y
_atom_site_fract_z
Zn1	Zn	1.325980	-0.317645	0.605030
Zn2	Zn	1.825980	0.182355	1.105030
Zn3	Zn	1.325877	-0.460296	0.462395
Zn4	Zn	1.825877	0.039704	0.962395
Zn5	Zn	1.184353	-0.316662	0.445949
Zn6	Zn	1.684353	0.183338	0.945949
Zn7	Zn	1.165844	-0.477686	0.604959
Zn8	Zn	1.665844	0.022314	1.104959
O9	O	1.250514	-0.393072	0.529583
O10	O	1.750514	0.106928	1.029583
O11	O	1.452212	-0.329701	0.593023
O12	O	1.952212	0.170299	1.093023
O13	O	1.314807	-0.433553	0.333974
O14	O	1.814807	0.066447	0.833974
O15	O	1.210929	-0.189703	0.460198
O16	O	1.710929	0.310297	0.960198
O17	O	1.452137	-0.434506	0.488229
O18	O	1.952137	0.065494	0.988229
O19	O	1.314982	-0.190425	0.577075
O20	O	1.814982	0.309575	1.077075
O21	O	1.210830	-0.328026	0.321891
O22	O	1.710830	0.171974	0.821891
O23	O	1.055652	-0.344889	0.460128
O24	O	1.555652	0.155111	0.960128
O25	O	1.179384	-0.464145	0.731208
O26	O	1.679384	0.035855	1.231208
O27	O	1.042054	-0.463192	0.576952
O28	O	1.542054	0.036808	1.076952
O29	O	1.297035	-0.346564	0.731260
O30	O	1.797035	0.153436	1.231260
O31	O	1.296860	-0.589691	0.488159
O32	O	1.796860	-0.089691	0.988159
O33	O	1.179284	-0.602468	0.592900
O34	O	1.679284	-0.102468	1.092900
C35	C	1.016119	-0.405822	0.516749
C36	C	1.516119	0.094178	1.016749
C37	C	0.915841	-0.411299	0.511280
C38	C	1.415841	0.088701	1.011280
C39	C	0.727464	-0.312628	0.610312
C40	C	1.227464	0.187372	1.110312
C41	C	0.633244	-0.317772	0.605177
C42	C	1.133244	0.182228	1.105177
C43	C	0.633180	-0.426725	0.495871
C44	C	1.133180	0.073275	0.995871
C45	C	0.727400	-0.421581	0.501006
C46	C	1.227400	0.078419	1.001006
C47	C	0.774539	-0.364532	0.558229
C48	C	1.274539	0.135468	1.058229
C49	C	0.868760	-0.359394	0.563369
C50	C	1.368760	0.140606	1.063369
C51	C	0.868694	-0.468341	0.454059
C52	C	1.368694	0.031659	0.954059
C53	C	0.774474	-0.473485	0.448924
C54	C	1.274474	0.026515	0.948924
C55	C	1.236076	-0.629032	0.542328
C56	C	1.736076	-0.129032	1.042328
C57	C	1.229980	-0.729974	0.547814
C58	C	1.729980	-0.229974	1.047814
C59	C	1.341070	-0.906289	0.449158
C60	C	1.841070	-0.406289	0.949158
C61	C	1.335345	-1.001133	0.454310
C62	C	1.835345	-0.501133	0.954310
C63	C	1.212812	-1.014508	0.563277
C64	C	1.712812	-0.514508	1.063277
C65	C	1.218536	-0.919664	0.558124
C66	C	1.718536	-0.419664	1.058124
C67	C	1.282666	-0.865558	0.501062
C68	C	1.782666	-0.365558	1.001062
C69	C	1.288386	-0.770712	0.495905
C70	C	1.788386	-0.270712	0.995905
C71	C	1.165857	-0.784088	0.604875
C72	C	1.665857	-0.284088	1.104875
C73	C	1.160133	-0.878932	0.610028
C74	C	1.660133	-0.378932	1.110028
C75	C	1.485824	-0.380273	0.542468
C76	C	1.985824	0.119727	1.042468
C77	C	1.586099	-0.374819	0.547959
C78	C	2.086099	0.125181	1.047959
C79	C	1.236156	-0.407404	0.764882
C80	C	1.736156	0.092596	1.264882
C81	C	1.230038	-0.413511	0.865152
C82	C	1.730038	0.086489	1.365152
C83	C	1.265031	-0.156190	0.516810
C84	C	1.765031	0.343810	1.016810
C85	C	1.271218	-0.055245	0.511367
C86	C	1.771218	0.444755	1.011367
C87	C	1.264871	-0.378727	0.295199
C88	C	1.764871	0.121273	0.795199
C89	C	1.271180	-0.372355	0.194925
C90	C	1.771180	0.127645	0.694925
C91	C	1.341049	-0.302529	1.053626
C92	C	1.841049	0.197471	1.553626
C93	C	1.335303	-0.308264	1.147839
C94	C	1.835303	0.191736	1.647839
C95	C	1.212797	-0.430712	1.147792
C96	C	1.712797	0.069288	1.647792
C97	C	1.218542	-0.424977	1.053579
C98	C	1.718542	0.075023	1.553579
C99	C	1.282672	-0.360884	1.006499
C100	C	1.782672	0.139116	1.506499
C101	C	1.288421	-0.355154	0.912285
C102	C	1.788421	0.144846	1.412285
C103	C	1.165911	-0.477597	0.912240
C104	C	1.665911	0.022403	1.412240
C105	C	1.160165	-0.483332	1.006452
C106	C	1.660165	0.016668	1.506452
H107	H	0.736082	-0.519929	0.402332
H108	H	1.236082	-0.019929	0.902332
H109	H	1.118299	-0.750914	0.647136
H110	H	1.618299	-0.250914	1.147136
H111	H	1.160586	-0.482893	1.186140
H112	H	1.660586	0.017107	1.686140
H113	H	1.107951	-0.535512	1.044797
H114	H	1.607951	-0.035512	1.544797
H115	H	0.907139	-0.312942	0.609964
H116	H	1.407139	0.187058	1.109964
C117	C	0.920478	-0.525438	0.396766
C118	C	1.420478	-0.025438	0.896766
H119	H	0.983344	-0.514203	0.408016
H120	H	1.483344	-0.014203	0.908016
H121	H	0.900506	-0.588118	0.412329
H122	H	1.400506	-0.088118	0.912329
H123	H	0.909540	-0.509203	0.334605
H124	H	1.409540	-0.009203	0.834605
H125	H	1.340639	-0.302968	0.873955
H126	H	1.840639	0.197032	1.373955
H127	H	1.393270	-0.250347	1.015294
H128	H	1.893270	0.249653	1.515294
C129	C	0.581318	-0.489464	0.432926
C130	C	1.081318	0.010536	0.932926
H131	H	0.518463	-0.485091	0.437331
H132	H	1.018463	0.014909	0.937331
H133	H	0.601262	-0.471547	0.372454
H134	H	1.101262	0.028453	0.872454
H135	H	0.592223	-0.550466	0.450173
H136	H	1.092223	-0.050466	0.950173
H137	H	1.340602	-0.726660	0.449439
H138	H	1.840602	-0.226660	0.949439
H139	H	1.382838	-0.260744	1.186205
H140	H	1.882838	0.239256	1.686205
C141	C	1.411605	-0.846771	0.386391
C142	C	1.911605	-0.346771	0.886391
H143	H	1.445571	-0.884614	0.356218
H144	H	1.945571	-0.384614	0.856218
H145	H	1.381757	-0.809297	0.343163
H146	H	1.881757	-0.309297	0.843163
H147	H	1.451016	-0.809692	0.421077
H148	H	1.951016	-0.309692	0.921077
H149	H	1.118378	-0.525116	0.873859
H150	H	1.618378	-0.025116	1.373859
C151	C	1.089592	-0.938453	0.672786
C152	C	1.589592	-0.438453	1.172786
H153	H	1.094542	-1.000772	0.668418
H154	H	1.594542	-0.500772	1.168418
H155	H	1.099975	-0.925853	0.733285
H156	H	1.599975	-0.425853	1.233285
H157	H	1.030730	-0.925460	0.655358
H158	H	1.530730	-0.425460	1.155358
H159	H	0.594920	-0.275504	0.647585
H160	H	1.094920	0.224496	1.147585
C161	C	0.779319	-0.249885	0.673257
C162	C	1.279319	0.250115	1.173257
H163	H	0.737788	-0.219707	0.703540
H164	H	1.237788	0.280293	1.203540
H165	H	0.811563	-0.285072	0.716388
H166	H	1.311563	0.214928	1.216388
H167	H	0.820588	-0.206152	0.638670
H168	H	1.320588	0.293848	1.138670
H169	H	1.160606	-1.058577	0.609740
H170	H	1.660606	-0.558577	1.109740
C171	C	1.399584	-1.045935	0.397212
C172	C	1.899584	-0.545935	0.897212
H173	H	1.438591	-1.000125	0.362487
H174	H	1.938591	-0.500125	0.862487
H175	H	1.434525	-1.082854	0.435910
H176	H	1.934525	-0.582854	0.935910
H177	H	1.365265	-1.082457	0.357996
H178	H	1.865265	-0.582457	0.857996
