data_functionalizedCrystal
_audit_creation_method	'MofGen! by Chris Wilmer'
_symmetry_space_group_name_H-M	'P1'
_symmetry_Int_Tables_number	1
_symmetry_cell_setting	triclinic
loop_
_symmetry_equiv_pos_as_xyz
  x,y,z
_cell_length_a	6.817900
_cell_length_b	13.563541
_cell_length_c	13.561464
_cell_angle_alpha	123.322033
_cell_angle_beta	104.692446
_cell_angle_gamma	104.704624
loop_
_atom_site_label
_atom_site_type_symbol
_atom_site_fract_x
_atom_site_fract_y
_atom_site_fract_z
V1	V	-4.178075	-0.286699	-0.434096
O2	O	-4.114778	-0.106779	-0.372374
O3	O	-4.174653	-0.452529	-0.482542
O4	O	-4.174636	-0.335186	-0.599964
O5	O	-4.114796	-0.224933	-0.254139
V6	V	-4.650048	-0.258928	-0.406326
O7	O	-4.464667	-0.347616	-0.495012
O8	O	-4.813653	-0.198010	-0.345410
O9	O	-4.430263	-0.093098	-0.357880
O10	O	-4.830742	-0.438847	-0.468048
O11	O	-4.830724	-0.320693	-0.586283
O12	O	-4.430280	-0.210440	-0.240459
C13	C	-4.029141	-0.491302	-0.488961
C14	C	-4.107931	-0.627211	-0.529676
C15	C	-4.026731	-0.802665	-0.174016
C16	C	-3.952689	-0.674970	-0.135759
C17	C	-3.991496	-0.663023	-0.234235
C18	C	-4.104351	-0.778785	-0.370975
C19	C	-4.178384	-0.906492	-0.409236
C20	C	-4.143149	-0.766850	-0.469454
C21	C	-4.256005	-0.882612	-0.606194
C22	C	-4.330030	-1.010305	-0.644448
C23	C	-4.291223	-1.022252	-0.545972
C24	C	-4.069116	-0.639144	-0.431194
C25	C	-4.220770	-0.742970	-0.666413
C26	C	-4.294811	-0.870665	-0.704670
C27	C	-4.029118	-0.341618	-0.638742
C28	C	-4.107888	-0.382359	-0.774677
C29	C	-4.026699	-0.026550	-0.949933
C30	C	-3.952625	0.011657	-0.822244
C31	C	-3.991435	-0.086843	-0.810345
C32	C	-4.104330	-0.223558	-0.926150
C33	C	-4.178428	-0.261770	-1.053852
C34	C	-4.143164	-0.322064	-0.914264
C35	C	-4.256059	-0.458778	-1.030069
C36	C	-4.330146	-0.496983	-1.157757
C37	C	-4.291335	-0.398482	-1.169656
C38	C	-4.069067	-0.283852	-0.786562
C39	C	-4.220796	-0.519072	-0.890481
C40	C	-4.294869	-0.557279	-1.018170
C41	C	-4.239118	-0.054330	-0.351460
C42	C	-4.139570	0.081575	-0.310753
C43	C	-4.239140	-0.204010	-0.201675
C44	C	-4.139607	-0.163262	-0.065737
H45	H	-4.386704	-0.964935	-0.816006
Cl46	Cl	-3.810583	0.183524	-0.676668
H47	H	-4.421899	-1.104558	-0.755790
H48	H	-3.931195	-0.559045	-0.203077
Cl49	Cl	-3.927254	-0.493631	-0.259298
H50	H	-3.977152	-0.172538	-0.692284
Cl51	Cl	-4.472105	-0.668855	-1.303339
H52	H	-4.386797	-0.668594	-1.112474
Cl53	Cl	-4.269604	-0.642910	-0.875534
H54	H	-3.860809	-0.580725	-0.024425
Cl55	Cl	-3.977937	0.097262	-0.964904
H56	H	-4.351638	-0.429583	-1.273626
H57	H	-3.995135	-0.812408	-0.093851
H58	H	-4.252367	-0.733247	-0.746601
H59	H	-4.351520	-1.126227	-0.577115
Cl60	Cl	-3.898307	-0.038808	-0.649818
