data_functionalizedCrystal
_audit_creation_method	'MofGen! by Chris Wilmer'
_symmetry_space_group_name_H-M	'P1'
_symmetry_Int_Tables_number	1
_symmetry_cell_setting	triclinic
loop_
_symmetry_equiv_pos_as_xyz
  x,y,z
_cell_length_a	15.995350
_cell_length_b	15.995343
_cell_length_c	14.472310
_cell_angle_alpha	89.994209
_cell_angle_beta	89.990621
_cell_angle_gamma	83.490780
loop_
_atom_site_label
_atom_site_type_symbol
_atom_site_fract_x
_atom_site_fract_y
_atom_site_fract_z
O1	O	1.110994	0.107921	-0.076772
O2	O	0.867218	0.121249	-0.076793
O3	O	0.995773	-0.007303	-0.076765
O4	O	0.982439	0.236473	-0.076800
O5	O	0.995740	-0.007296	0.076917
O6	O	0.867185	0.121256	0.076889
O7	O	1.110960	0.107929	0.076910
Cu8	Cu	0.989070	0.114593	0.090932
Cu9	Cu	0.989109	0.114584	-0.090815
O10	O	0.982405	0.236481	0.076882
C11	C	0.836007	0.120702	0.000046
C12	C	0.743056	0.119050	0.000039
C13	C	0.995206	-0.038494	0.000078
C14	C	0.993557	-0.131445	0.000086
C15	C	0.405309	0.113118	0.000059
C16	C	0.452745	0.021565	0.000415
C17	C	0.549436	0.023217	0.000062
C18	C	0.572869	0.116060	0.000050
C19	C	0.531800	0.161212	-0.087713
C20	C	0.435164	0.158913	-0.087780
C21	C	0.434788	0.160813	0.086985
C22	C	0.531733	0.160791	0.088138
C23	C	0.667567	0.117728	0.000041
C24	C	0.310611	0.111452	0.000061
C25	C	0.990563	-0.301631	0.000064
C26	C	0.897766	-0.324977	0.000055
C27	C	0.896021	-0.421655	-0.000305
C28	C	0.987615	-0.469191	0.000044
C29	C	1.034294	-0.440096	-0.087535
C30	C	1.035394	-0.343304	-0.087598
C31	C	1.036715	-0.343400	0.087173
C32	C	1.033289	-0.439895	0.088314
C33	C	0.985953	-0.563889	0.000030
C34	C	0.992228	-0.206933	0.000072
C35	C	1.142172	0.108476	0.000069
C36	C	1.235122	0.110128	0.000070
C37	C	0.982972	0.267672	0.000036
C38	C	0.984621	0.360622	0.000023
N39	N	0.989048	0.114599	0.218763
N40	N	0.989137	0.114572	-0.218646
C41	C	0.989108	0.114581	0.592854
C42	C	0.920090	0.183136	0.553673
C43	C	0.920249	0.183386	0.446585
C44	C	0.989077	0.114590	0.407263
C45	C	1.076441	0.133672	0.446104
C46	C	1.076054	0.134159	0.553225
C47	C	0.971541	0.026741	0.553394
C48	C	0.969537	0.027327	0.446267
C49	C	0.989066	0.114593	0.302375
C50	C	0.989125	0.114579	0.697742
H51	H	0.577852	-0.012275	0.062975
N52	N	1.034673	-0.037255	0.585200
N53	N	1.044366	-0.050389	0.669873
H54	H	1.088955	-0.095581	0.692342
N55	N	1.142416	0.073899	0.585730
N56	N	1.188872	0.031622	0.529299
H57	H	1.235743	-0.010933	0.552251
H58	H	0.909218	0.008392	0.580460
H59	H	0.862397	-0.295990	-0.062662
N60	N	0.429542	-0.024307	0.079418
N61	N	0.377767	0.009934	0.136380
H62	H	0.361394	-0.022454	0.192195
N63	N	1.096347	0.213116	0.412441
N64	N	1.161315	0.217022	0.365366
H65	H	1.175372	0.273132	0.341594
H66	H	0.905271	0.012846	0.420881
N67	N	0.995340	-0.309676	-0.170031
N68	N	0.988905	-0.232245	-0.184980
H69	H	0.960614	-0.208497	-0.243199
H70	H	0.859474	-0.440675	0.062458
N71	N	1.028502	-0.039666	0.412681
N72	N	1.086148	-0.024117	0.359218
H73	H	1.127798	-0.071430	0.335497
N74	N	0.394683	0.243223	-0.092795
N75	N	0.346097	0.271456	-0.029683
H76	H	0.317507	0.330998	-0.033232
H77	H	0.403024	0.228313	0.087569
N78	N	1.142413	0.072695	0.414165
N79	N	1.140975	-0.003394	0.433007
H80	H	1.187566	-0.046461	0.410450
H81	H	0.931466	0.248570	0.420942
N82	N	0.852635	-0.289849	0.078840
N83	N	0.888330	-0.247193	0.135916
H84	H	0.856457	-0.222379	0.191563
H85	H	1.091534	0.198220	0.578193
N86	N	0.409034	0.123256	0.170438
N87	N	0.462924	0.093921	0.227868
H88	H	0.444737	0.067388	0.286803
N89	N	0.428169	-0.024135	-0.078086
N90	N	0.375870	0.010429	-0.134293
H91	H	0.358511	-0.021844	-0.189737
H92	H	0.859684	-0.440090	-0.063463
N93	N	1.122395	-0.325802	0.088244
N94	N	1.139016	-0.251350	0.091160
H95	H	1.199525	-0.238916	0.091910
H96	H	0.999297	-0.458457	0.153107
N97	N	0.584396	-0.021617	-0.078989
N98	N	0.537374	-0.054220	-0.134075
H99	H	0.562063	-0.085885	-0.189909
H100	H	1.103446	-0.328730	-0.091326
N101	N	1.118865	-0.480033	-0.091308
N102	N	1.168953	-0.469548	-0.027167
H103	H	1.228682	-0.497754	-0.029829
N104	N	0.412222	0.117600	-0.170073
N105	N	0.467554	0.090661	-0.227055
H106	H	0.451357	0.061482	-0.285177
H107	H	0.559036	0.127830	0.153065
H108	H	0.854940	0.171954	0.579458
N109	N	0.549518	0.246780	-0.091810
N110	N	0.592717	0.275506	-0.029947
H111	H	0.605232	0.335939	-0.032837
H112	H	0.560189	0.129845	-0.153019
H113	H	0.547095	0.228495	0.093430
H114	H	1.002292	-0.460184	-0.152968
N115	N	0.999951	-0.307953	0.170477
N116	N	0.924071	-0.312939	0.187557
H117	H	0.898096	-0.287906	0.246387
N118	N	1.117134	-0.481229	0.095277
N119	N	1.144716	-0.533180	0.035024
H120	H	1.203935	-0.562373	0.039934
N121	N	0.933955	0.264449	0.587428
N122	N	0.932962	0.278535	0.672398
H123	H	0.942756	0.335962	0.696241
N124	N	0.838666	0.169532	0.413652
N125	N	0.781215	0.159600	0.469783
H126	H	0.723550	0.149972	0.446530
