data_functionalizedCrystal
_audit_creation_method	'MofGen! by Chris Wilmer'
_symmetry_space_group_name_H-M	'P1'
_symmetry_Int_Tables_number	1
_symmetry_cell_setting	triclinic
loop_
_symmetry_equiv_pos_as_xyz
  x,y,z
_cell_length_a	21.295417
_cell_length_b	21.295420
_cell_length_c	18.050583
_cell_angle_alpha	89.983938
_cell_angle_beta	89.959541
_cell_angle_gamma	90.026289
loop_
_atom_site_label
_atom_site_type_symbol
_atom_site_fract_x
_atom_site_fract_y
_atom_site_fract_z
Zn1	Zn	-0.250635	0.962302	-0.419892
Zn2	Zn	0.082698	1.295636	-0.086558
Zn3	Zn	0.416032	1.628969	0.246775
Zn4	Zn	-0.355921	0.962220	-0.295693
Zn5	Zn	-0.022588	1.295554	0.037641
Zn6	Zn	0.310745	1.628887	0.370974
Zn7	Zn	-0.250662	0.857041	-0.295716
Zn8	Zn	0.082671	1.190375	0.037618
Zn9	Zn	0.416004	1.523708	0.370951
Zn10	Zn	-0.355862	0.856995	-0.419841
Zn11	Zn	-0.022529	1.190328	-0.086508
Zn12	Zn	0.310804	1.523662	0.246826
O13	O	-0.303270	0.909640	-0.357785
O14	O	0.030063	1.242973	-0.024452
O15	O	0.363396	1.576306	0.308881
O16	O	-0.264615	1.050381	-0.403428
O17	O	0.068719	1.383714	-0.070095
O18	O	0.402052	1.717048	0.263239
O19	O	-0.341995	0.948253	-0.191771
O20	O	-0.008661	1.281587	0.141562
O21	O	0.324672	1.614920	0.474896
O22	O	-0.162569	0.871058	-0.312219
O23	O	0.170764	1.204391	0.021114
O24	O	0.504097	1.537725	0.354448
O25	O	-0.341968	1.050321	-0.312179
O26	O	-0.008635	1.383654	0.021154
O27	O	0.324699	1.716987	0.354487
O28	O	-0.162549	0.948393	-0.403450
O29	O	0.170784	1.281726	-0.070117
O30	O	0.504118	1.615060	0.263216
O31	O	-0.264661	0.870979	-0.191788
O32	O	0.068672	1.204312	0.141545
O33	O	0.402006	1.537645	0.474879
O34	O	-0.264604	0.768946	-0.312170
O35	O	0.068729	1.102279	0.021164
O36	O	0.402063	1.435612	0.354497
O37	O	-0.341868	0.870979	-0.523772
O38	O	-0.008534	1.204313	-0.190439
O39	O	0.324799	1.537646	0.142894
O40	O	-0.341894	0.768912	-0.403364
O41	O	-0.008561	1.102245	-0.070031
O42	O	0.324772	1.435578	0.263303
O43	O	-0.264558	0.948348	-0.523810
O44	O	0.068776	1.281681	-0.190476
O45	O	0.402109	1.615015	0.142857
O46	O	-0.444003	0.948208	-0.312130
O47	O	-0.110670	1.281542	0.021203
O48	O	0.222664	1.614875	0.354536
O49	O	-0.443960	0.870900	-0.403342
O50	O	-0.110626	1.204233	-0.070008
O51	O	0.222707	1.537566	0.263325
C52	C	-0.303246	0.746088	-0.357764
C53	C	0.030087	1.079422	-0.024431
C54	C	0.363421	1.412755	0.308902
C55	C	-0.303251	0.676120	-0.357773
C56	C	0.030082	1.009453	-0.024440
C57	C	0.363416	1.342787	0.308894
C58	C	-0.263087	0.176693	-0.405387
C59	C	0.070246	0.510026	-0.072053
C60	C	0.403579	0.843359	0.261280
C61	C	-0.263083	0.242435	-0.405387
C62	C	0.070251	0.575769	-0.072053
C63	C	0.403584	0.909102	0.261280
C64	C	-0.303289	0.275281	-0.357803
C65	C	0.030044	0.608614	-0.024469
C66	C	0.363377	0.941947	0.308864
C67	C	-0.343515	0.242378	-0.310229
C68	C	-0.010182	0.575711	0.023105
C69	C	0.323151	0.909045	0.356438
C70	C	-0.343523	0.176637	-0.310235
C71	C	-0.010190	0.509970	0.023098
C72	C	0.323143	0.843303	0.356431
N73	N	-0.308043	0.378479	-0.292774
N74	N	0.025290	0.711812	0.040559
N75	N	0.358624	1.045145	0.373892
N76	N	-0.308032	0.440930	-0.292770
N77	N	0.025302	0.774263	0.040563
N78	N	0.358635	1.107597	0.373896
C79	C	-0.303269	0.473355	-0.357781
C80	C	0.030065	0.806689	-0.024447
C81	C	0.363398	1.140022	0.308886
N82	N	-0.298505	0.440970	-0.422797
N83	N	0.034828	0.774303	-0.089464
N84	N	0.368162	1.107637	0.243869
N85	N	-0.298513	0.378513	-0.422801
N86	N	0.034820	0.711846	-0.089467
N87	N	0.368154	1.045179	0.243866
C88	C	-0.303285	0.346566	-0.357790
C89	C	0.030048	0.679899	-0.024457
C90	C	0.363381	1.013233	0.308876
C91	C	-0.263043	0.577536	-0.405355
C92	C	0.070290	0.910869	-0.072022
C93	C	0.403623	1.244202	0.261311
C94	C	-0.263043	0.643279	-0.405357
C95	C	0.070290	0.976613	-0.072023
C96	C	0.403624	1.309946	0.261310
C97	C	-0.343473	0.643221	-0.310192
C98	C	-0.010139	0.976554	0.023142
C99	C	0.323194	1.309887	0.356475
C100	C	-0.343476	0.577478	-0.310197
C101	C	-0.010143	0.910812	0.023136
C102	C	0.323191	1.244145	0.356469
C103	C	-0.303258	0.544640	-0.357778
C104	C	0.030075	0.877973	-0.024445
C105	C	0.363409	1.211306	0.308889
C106	C	-0.466822	0.909557	-0.357744
C107	C	-0.133489	1.242891	-0.024411
C108	C	0.199845	1.576224	0.308922
C109	C	-0.536790	0.909580	-0.357751
C110	C	-0.203457	1.242913	-0.024418
C111	C	0.129877	1.576246	0.308915
C112	C	-0.569658	0.949870	-0.310306
C113	C	-0.236325	1.283203	0.023027
C114	C	0.097008	1.616537	0.356360
C115	C	-0.635401	0.949899	-0.310323
C116	C	-0.302067	1.283233	0.023010
C117	C	0.031266	1.616566	0.356344
C118	C	-0.668272	0.909627	-0.357777
C119	C	-0.334939	1.242961	-0.024444
C120	C	-0.001606	1.576294	0.308890
C121	C	-0.635396	0.869334	-0.405231
C122	C	-0.302063	1.202667	-0.071898
C123	C	0.031270	1.536001	0.261435
C124	C	-0.569655	0.869310	-0.405219
C125	C	-0.236322	1.202644	-0.071885
C126	C	0.097012	1.535977	0.261448
N127	N	-0.771533	0.854560	-0.363432
N128	N	-0.438200	1.187893	-0.030098
N129	N	-0.104867	1.521226	0.303235
N130	N	-0.833985	0.854584	-0.363439
N131	N	-0.500652	1.187917	-0.030106
N132	N	-0.167318	1.521251	0.303227
C133	C	-0.866347	0.909698	-0.357820
C134	C	-0.533014	1.243031	-0.024486
C135	C	-0.199680	1.576364	0.308847
N136	N	-0.833899	0.964787	-0.352177
N137	N	-0.500565	1.298121	-0.018844
N138	N	-0.167232	1.631454	0.314489
N139	N	-0.771442	0.964762	-0.352166
N140	N	-0.438108	1.298096	-0.018832
N141	N	-0.104775	1.631429	0.314501
C142	C	-0.739558	0.909649	-0.357797
C143	C	-0.406224	1.242982	-0.024463
C144	C	-0.072891	1.576316	0.308870
C145	C	-0.970501	0.950024	-0.310390
C146	C	-0.637168	1.283357	0.022943
C147	C	-0.303834	1.616690	0.356277
C148	C	-1.036245	0.950054	-0.310412
C149	C	-0.702911	1.283387	0.022921
C150	C	-0.369578	1.616721	0.356255
C151	C	-1.036239	0.869483	-0.405316
C152	C	-0.702906	1.202817	-0.071983
C153	C	-0.369572	1.536150	0.261350
C154	C	-0.970496	0.869458	-0.405298
C155	C	-0.637163	1.202792	-0.071965
C156	C	-0.303830	1.536125	0.261368
C157	C	-0.937631	0.909728	-0.357831
C158	C	-0.604298	1.243061	-0.024498
C159	C	-0.270965	1.576394	0.308835
C160	C	-0.139080	0.909740	-0.357843
C161	C	0.194253	1.243073	-0.024510
C162	C	0.527587	1.576406	0.308824
C163	C	-0.069112	0.909782	-0.357867
C164	C	0.264222	1.243116	-0.024534
C165	C	0.597555	1.576449	0.308799
C166	C	-0.303295	1.073830	-0.357807
C167	C	0.030038	1.407163	-0.024474
C168	C	0.363372	1.740497	0.308860
C169	C	-0.303305	1.143798	-0.357816
C170	C	0.030028	1.477131	-0.024483
C171	C	0.363361	1.810465	0.308851
C172	C	-0.303203	0.909668	-0.551491
C173	C	0.030130	1.243001	-0.218158
C174	C	0.363464	1.576334	0.115176
C175	C	-0.303174	0.909679	-0.634037
C176	C	0.030159	1.243013	-0.300704
C177	C	0.363492	1.576346	0.032630
C178	C	-0.261113	0.951795	-0.833508
C179	C	0.072220	1.285128	-0.500175
C180	C	0.405554	1.618461	-0.166841
C181	C	-0.245702	0.894382	-0.882904
C182	C	0.087631	1.227716	-0.549571
C183	C	0.420965	1.561049	-0.216237
C184	C	-0.303164	0.909705	-0.785167
C185	C	0.030170	1.243038	-0.451834
C186	C	0.363503	1.576371	-0.118501
C187	C	-0.318535	0.967140	-0.882853
C188	C	0.014799	1.300473	-0.549520
C189	C	0.348132	1.633807	-0.216186
C190	C	-0.303152	0.909734	-0.931152
C191	C	0.030181	1.243067	-0.597819
C192	C	0.363515	1.576401	-0.264486
C193	C	-0.287723	0.852262	-0.833476
C194	C	0.045610	1.185595	-0.500143
C195	C	0.378944	1.518929	-0.166810
C196	C	-0.360582	0.925058	-0.833421
C197	C	-0.027249	1.258392	-0.500088
C198	C	0.306084	1.591725	-0.166754
C199	C	-0.345193	0.867606	-0.882795
C200	C	-0.011860	1.200940	-0.549461
C201	C	0.321473	1.534273	-0.216128
C202	C	-0.303169	0.909689	-0.701069
C203	C	0.030165	1.243022	-0.367736
C204	C	0.363498	1.576355	-0.034402
C205	C	-0.303147	0.909744	-1.015249
C206	C	0.030186	1.243077	-0.681916
C207	C	0.363520	1.576410	-0.348582
C208	C	-0.303292	0.909648	-0.164833
C209	C	0.030042	1.242982	0.168500
C210	C	0.363375	1.576315	0.501833
C211	C	-0.303143	0.909758	-0.082288
C212	C	0.030190	1.243092	0.251045
C213	C	0.363524	1.576425	0.584379
H214	H	-0.376215	0.669963	-0.271454
H215	H	-0.042881	1.003296	0.061880
H216	H	0.290452	1.336629	0.395213
C217	C	-0.213048	0.999805	-0.804272
C218	C	0.120285	1.333138	-0.470939
C219	C	0.453618	1.666472	-0.137605
H220	H	-0.172266	0.988802	-0.821219
H221	H	0.161067	1.322136	-0.487886
H222	H	0.494400	1.655469	-0.154553
H223	H	-0.223576	1.040489	-0.821909
H224	H	0.109758	1.373823	-0.488575
H225	H	0.443091	1.707156	-0.155242
H226	H	-0.213643	0.999731	-0.751646
H227	H	0.119690	1.333065	-0.418313
H228	H	0.453024	1.666398	-0.084979
C229	C	-0.336111	1.032737	-0.912154
C230	C	-0.002778	1.366070	-0.578821
C231	C	0.330556	1.699404	-0.245488
H232	H	-0.373251	1.029872	-0.941087
H233	H	-0.039918	1.363206	-0.607753
H234	H	0.293416	1.696539	-0.274420
H235	H	-0.343092	1.060273	-0.871585
H236	H	-0.009758	1.393606	-0.538252
H237	H	0.323575	1.726939	-0.204919
H238	H	-0.302829	1.048531	-0.941881
H239	H	0.030504	1.381864	-0.608548
H240	H	0.363837	1.715197	-0.275214
C241	C	-0.393217	0.819487	-0.911871
C242	C	-0.059884	1.152821	-0.578538
C243	C	0.273449	1.486154	-0.245204
H244	H	-0.423992	0.840451	-0.940826
H245	H	-0.090658	1.173784	-0.607492
H246	H	0.242675	1.507117	-0.274159
H247	H	-0.372294	0.789152	-0.941518
H248	H	-0.038960	1.122485	-0.608185
H249	H	0.294373	1.455819	-0.274852
H250	H	-0.412999	0.799178	-0.871207
H251	H	-0.079666	1.132512	-0.537873
H252	H	0.253668	1.465845	-0.204540
H253	H	-0.409132	0.938053	-0.811671
H254	H	-0.075798	1.271386	-0.478338
H255	H	0.257535	1.604719	-0.145004
C256	C	-0.533507	0.994150	-0.258081
C257	C	-0.200174	1.327483	0.075253
C258	C	0.133159	1.660817	0.408586
H259	H	-0.489646	0.988358	-0.264857
H260	H	-0.156313	1.321692	0.068477
H261	H	0.177021	1.655025	0.401810
H262	H	-0.544231	1.036449	-0.268975
H263	H	-0.210897	1.369782	0.064358
H264	H	0.122436	1.703116	0.397691
H265	H	-0.544335	0.984946	-0.208179
H266	H	-0.211002	1.318279	0.125154
H267	H	0.122332	1.651612	0.458487
H268	H	-0.662165	0.836545	-0.443870
H269	H	-0.328831	1.169879	-0.110537
H270	H	0.004502	1.503212	0.222797
C271	C	-0.671564	0.994216	-0.258126
C272	C	-0.338230	1.327549	0.075207
C273	C	-0.004897	1.660882	0.408541
H274	H	-0.642574	1.018191	-0.229851
H275	H	-0.309241	1.351525	0.103482
H276	H	0.024092	1.684858	0.436815
H277	H	-0.697169	1.021638	-0.286563
H278	H	-0.363836	1.354972	0.046771
H279	H	-0.030503	1.688305	0.380104
H280	H	-0.697249	0.970151	-0.225748
H281	H	-0.363916	1.303484	0.107585
H282	H	-0.030582	1.636817	0.440918
H283	H	-0.197139	0.881405	-0.904639
H284	H	0.136194	1.214739	-0.571306
H285	H	0.469527	1.548072	-0.237973
H286	H	-0.230294	0.670061	-0.444100
H287	H	0.103039	1.003394	-0.110767
H288	H	0.436372	1.336728	0.222567
H289	H	-0.274661	0.803688	-0.811878
H290	H	0.058672	1.137021	-0.478544
H291	H	0.392006	1.470355	-0.145211
H292	H	-0.230295	0.550797	-0.444099
H293	H	0.103038	0.884130	-0.110765
H294	H	0.436371	1.217464	0.222568
C295	C	-0.934344	0.994324	-0.258191
C296	C	-0.601010	1.327657	0.075143
C297	C	-0.267677	1.660990	0.408476
H298	H	-0.890483	0.988534	-0.264972
H299	H	-0.557149	1.321867	0.068362
H300	H	-0.223816	1.655201	0.401695
H301	H	-0.945074	1.036616	-0.269111
H302	H	-0.611740	1.369950	0.064222
H303	H	-0.278407	1.703283	0.397556
H304	H	-0.945163	0.985142	-0.208281
H305	H	-0.611830	1.318475	0.125052
H306	H	-0.278497	1.651808	0.458386
H307	H	-0.542893	0.836500	-0.443855
H308	H	-0.209560	1.169834	-0.110522
H309	H	0.123774	1.503167	0.222812
H310	H	-0.376223	0.550695	-0.271457
H311	H	-0.042890	0.884028	0.061877
H312	H	0.290443	1.217362	0.395210
C313	C	-0.218858	0.140571	-0.457730
C314	C	0.114476	0.473904	-0.124397
C315	C	0.447809	0.807237	0.208936
H316	H	-0.224619	0.096706	-0.450920
H317	H	0.108715	0.430039	-0.117587
H318	H	0.442048	0.763372	0.215746
H319	H	-0.228115	0.151360	-0.507607
H320	H	0.105218	0.484693	-0.174273
H321	H	0.438551	0.818027	0.159060
H322	H	-0.176548	0.151354	-0.446946
H323	H	0.156785	0.484688	-0.113613
H324	H	0.490118	0.818021	0.219721
H325	H	-0.230329	0.269223	-0.444124
H326	H	0.103004	0.602557	-0.110790
H327	H	0.436337	0.935890	0.222543
H328	H	-0.376254	0.269125	-0.271487
H329	H	-0.042920	0.602458	0.061846
H330	H	0.290413	0.935792	0.395180
C331	C	-1.072400	0.994375	-0.258219
C332	C	-0.739067	1.327709	0.075114
C333	C	-0.405733	1.661042	0.408448
H334	H	-1.043409	1.018349	-0.229945
H335	H	-0.710075	1.351682	0.103388
H336	H	-0.376742	1.685015	0.436722
H337	H	-1.098001	1.021800	-0.286659
H338	H	-0.764668	1.355134	0.046675
H339	H	-0.431335	1.688467	0.380008
H340	H	-1.098090	0.970316	-0.225841
H341	H	-0.764756	1.303649	0.107492
H342	H	-0.431423	1.636982	0.440826
C343	C	-1.072387	0.825185	-0.457519
C344	C	-0.739054	1.158519	-0.124185
C345	C	-0.405720	1.491852	0.209148
H346	H	-1.043393	0.801187	-0.485776
H347	H	-0.710060	1.134520	-0.152443
H348	H	-0.376726	1.467854	0.180890
H349	H	-1.098079	0.797783	-0.429088
H350	H	-0.764745	1.131116	-0.095755
H351	H	-0.431412	1.464449	0.237578
H352	H	-1.097986	0.849263	-0.489912
H353	H	-0.764652	1.182596	-0.156578
H354	H	-0.431319	1.515929	0.176755
C355	C	-0.387761	0.140451	-0.257900
C356	C	-0.054428	0.473784	0.075433
C357	C	0.278906	0.807118	0.408767
H358	H	-0.411705	0.169426	-0.229557
H359	H	-0.078372	0.502759	0.103776
H360	H	0.254962	0.836092	0.437110
H361	H	-0.415216	0.114801	-0.286251
H362	H	-0.081883	0.448135	0.047083
H363	H	0.251450	0.781468	0.380416
H364	H	-0.363647	0.114808	-0.225592
H365	H	-0.030314	0.448141	0.107741
H366	H	0.303019	0.781474	0.441075
C367	C	-0.934340	0.825130	-0.457479
C368	C	-0.601006	1.158464	-0.124146
C369	C	-0.267673	1.491797	0.209187
H370	H	-0.963331	0.801145	-0.485740
H371	H	-0.629997	1.134478	-0.152406
H372	H	-0.296664	1.467812	0.180927
H373	H	-0.908648	0.849180	-0.489859
H374	H	-0.575314	1.182513	-0.156526
H375	H	-0.241981	1.515847	0.176808
H376	H	-0.908740	0.797707	-0.429027
H377	H	-0.575407	1.131040	-0.095694
H378	H	-0.242074	1.464374	0.237639
