data_functionalizedCrystal
_audit_creation_method	'MofGen! by Chris Wilmer'
_symmetry_space_group_name_H-M	'P1'
_symmetry_Int_Tables_number	1
_symmetry_cell_setting	triclinic
loop_
_symmetry_equiv_pos_as_xyz
  x,y,z
_cell_length_a	19.902436
_cell_length_b	14.560438
_cell_length_c	19.902436
_cell_angle_alpha	59.996235
_cell_angle_beta	89.998137
_cell_angle_gamma	59.996626
loop_
_atom_site_label
_atom_site_type_symbol
_atom_site_fract_x
_atom_site_fract_y
_atom_site_fract_z
Zr1	Zr	0.647323	1.005181	-0.088112
O2	O	0.540032	1.196812	-0.195409
O3	O	0.680213	0.813571	-0.055222
O4	O	0.680215	1.005188	-0.195400
O5	O	0.540029	1.005181	0.055346
O6	O	0.790794	1.005170	-0.195391
O7	O	0.540030	1.005194	-0.055231
O8	O	0.790790	0.662402	0.055362
O9	O	0.540033	1.347949	-0.195407
O10	O	0.776764	0.892362	-0.041186
O11	O	0.694240	0.892366	0.041330
O12	O	0.694242	1.117970	-0.123712
O13	O	0.611717	1.117974	-0.041196
Zr14	Zr	0.823681	1.005132	0.088260
Zr15	Zr	0.823683	1.005152	-0.088098
Zr16	Zr	0.647321	1.005160	0.088245
Zr17	Zr	0.647323	1.246229	-0.088109
Zr18	Zr	0.823681	0.764084	0.088256
O19	O	0.790791	1.196742	0.055369
O20	O	0.790794	1.196771	-0.195389
O21	O	0.540029	1.196782	0.055349
O22	O	0.930972	0.813501	0.195556
O23	O	0.930975	0.813531	-0.055202
O24	O	0.680210	0.813541	0.195536
O25	O	0.930975	1.005131	-0.055199
O26	O	0.790789	1.005124	0.195547
O27	O	0.680210	1.005142	0.195538
O28	O	0.930974	1.005118	0.055378
O29	O	0.680216	1.347927	-0.195396
O30	O	0.790789	0.662386	0.195543
O31	O	0.930972	0.662363	0.195554
O32	O	0.930973	0.662380	0.055373
O33	O	0.540031	1.347933	-0.055226
O34	O	0.680214	1.347910	-0.055215
O35	O	0.776762	0.892343	0.123859
O36	O	0.859287	0.892339	0.041343
O37	O	0.776765	1.117947	-0.041183
O38	O	0.694240	1.117951	0.041333
C39	C	0.735502	0.703642	0.000069
C40	C	0.735502	0.601311	0.000068
C41	C	0.514902	1.005192	0.000056
C42	C	0.440033	1.005204	0.000050
C43	C	0.778577	0.553234	-0.043004
C44	C	0.778580	0.457074	-0.042997
C45	C	0.692426	0.457083	0.043157
C46	C	0.692428	0.553234	0.043154
C47	C	0.869485	0.272137	-0.055586
C48	C	0.912551	0.224072	-0.098672
C49	C	0.911422	0.308810	-0.175868
C50	C	0.867213	0.441633	-0.209995
C51	C	0.824140	0.489702	-0.166914
C52	C	0.825286	0.404945	-0.089705
C53	C	0.601521	0.738180	0.055734
C54	C	0.558443	0.786257	0.098811
C55	C	0.559563	0.701527	0.176006
C56	C	0.603758	0.568714	0.210128
C57	C	0.646836	0.520637	0.167052
C58	C	0.645717	0.605372	0.089857
C59	C	0.168031	1.005140	0.000081
C60	C	0.144464	1.147458	-0.051728
C61	C	0.222302	1.147547	-0.052016
C62	C	0.302974	1.005173	0.000066
C63	C	0.300563	0.934502	-0.037897
C64	C	0.222335	0.935412	-0.038280
C65	C	0.223321	0.932474	0.089877
C66	C	0.300242	0.935149	0.089739
C67	C	0.379240	1.005183	0.000057
C68	C	0.091765	1.005125	0.000087
C69	C	0.956102	1.005121	0.000091
C70	C	1.030972	1.005109	0.000098
C71	C	0.735505	1.005182	-0.220523
C72	C	0.735506	1.005191	-0.295391
C73	C	0.735503	1.306670	0.000078
C74	C	0.735503	1.409001	0.000079
C75	C	0.735503	1.005167	-0.432453
C76	C	0.683451	1.147474	-0.513024
C77	C	0.683171	1.147531	-0.590915
C78	C	0.735501	1.005145	-0.567400
C79	C	0.697809	0.934074	-0.513122
C80	C	0.697416	0.935015	-0.435571
C81	C	0.825277	0.932899	-0.434722
C82	C	0.825141	0.935548	-0.513591
C83	C	0.735500	1.005125	-0.643663
C84	C	0.735501	1.005183	-0.356188
C85	C	0.735500	1.005130	0.220670
C86	C	0.735499	1.005121	0.295539
C87	C	0.956102	0.703607	0.000087
C88	C	1.030971	0.601264	0.000092
C89	C	0.735499	0.703617	0.220666
C90	C	0.735498	0.601277	0.295533
C91	C	0.956099	0.703581	0.220684
C92	C	1.030968	0.601229	0.295557
C93	C	0.514905	1.306732	-0.220537
C94	C	0.440037	1.409084	-0.295410
C95	C	0.514903	1.306706	0.000060
C96	C	0.440033	1.409049	0.000055
C97	C	0.735505	1.306696	-0.220519
C98	C	0.735506	1.409036	-0.295386
C99	C	1.023055	0.553214	-0.042993
C100	C	1.093396	0.457066	-0.043005
C101	C	1.171653	0.408961	0.000073
C102	C	1.179568	0.457020	0.043159
C103	C	1.109227	0.553174	0.043166
C104	C	0.778574	0.553205	0.373778
C105	C	0.778570	0.457059	0.444130
C106	C	0.735494	0.408980	0.436236
C107	C	0.692413	0.457062	0.357982
C108	C	0.692413	0.553212	0.287632
C109	C	1.109211	0.553162	0.287646
C110	C	1.179565	0.457005	0.357990
C111	C	1.171673	0.408910	0.436245
C112	C	1.093422	0.456987	0.444155
C113	C	1.023070	0.553149	0.373811
C114	C	0.361793	1.457163	-0.287499
C115	C	0.291439	1.553350	-0.357843
C116	C	0.299331	1.601449	-0.436098
C117	C	0.377583	1.553366	-0.444008
C118	C	0.447935	1.457187	-0.373664
C119	C	0.447950	1.457108	0.043132
C120	C	0.377609	1.553284	0.043125
C121	C	0.299352	1.601391	0.000045
C122	C	0.291437	1.553328	-0.043038
C123	C	0.361777	1.457161	-0.043035
C124	C	0.778590	1.457084	-0.287465
C125	C	0.778607	1.553230	-0.357804
C126	C	0.735535	1.601334	-0.436063
C127	C	0.692450	1.553276	-0.443982
C128	C	0.692438	1.457125	-0.373644
H129	H	0.813651	0.592374	-0.078086
Cl130	Cl	0.722154	1.233604	-0.651927
Cl131	Cl	0.546295	1.396748	-0.383624
H132	H	1.228965	0.330609	0.493517
H133	H	0.355320	1.418033	-0.078111
Cl134	Cl	0.873934	1.003706	-0.430303
H135	H	0.657351	1.418015	-0.380105
H136	H	1.115652	0.592306	0.223933
H137	H	0.813654	0.417923	0.507841
H138	H	0.604666	0.499722	0.272985
H139	H	1.086935	0.417948	-0.078090
Cl140	Cl	0.388275	0.772877	0.017559
Cl141	Cl	0.546321	1.396656	0.097293
Cl142	Cl	0.868623	1.015558	-0.571398
H143	H	0.617620	1.202776	-0.513683
Cl144	Cl	0.752212	0.773791	-0.347466
Cl145	Cl	0.735504	0.288102	0.524686
Cl146	Cl	0.638261	0.613626	0.189269
H147	H	0.788144	0.597845	-0.194702
Cl148	Cl	1.277928	0.396579	0.348028
Cl149	Cl	0.722226	1.234199	-0.515828
Cl150	Cl	0.735555	1.722215	-0.524481
Cl151	Cl	1.083515	0.396509	0.542539
H152	H	0.227730	1.592483	-0.351387
H153	H	0.959363	0.592273	0.380264
Cl154	Cl	0.387578	1.613680	0.097294
H155	H	0.355352	1.418005	-0.223786
H156	H	0.616947	1.203034	-0.629857
Cl157	Cl	0.890023	0.775197	-0.484953
Cl158	Cl	0.254085	0.770605	0.149754
H159	H	0.242039	1.679764	-0.493370
H160	H	0.600604	0.807184	-0.007126
H161	H	0.383998	1.592541	-0.507731
H162	H	0.227711	1.592512	-0.078113
Cl163	Cl	0.210931	1.722286	0.000051
H164	H	0.221024	1.203277	-0.026750
H165	H	0.813664	1.417933	-0.223749
Cl166	Cl	0.832770	1.613633	-0.347829
H167	H	0.866289	0.510626	-0.272860
H168	H	0.657343	0.417902	0.351567
Cl169	Cl	0.595438	1.012087	-0.435716
H170	H	0.946487	0.269667	-0.210949
Cl171	Cl	0.968127	0.057099	-0.055769
H172	H	1.115684	0.592283	0.078255
Cl173	Cl	0.299681	1.014681	0.133536
Cl174	Cl	0.870929	0.165591	0.041476
Cl175	Cl	0.638284	0.396630	0.097323
H176	H	0.864236	0.828064	-0.377934
H177	H	0.657382	1.592456	-0.507710
H178	H	0.682819	0.412490	0.194839
H179	H	0.524476	0.740688	0.211073
H180	H	0.522450	0.894407	0.071018
H181	H	0.105297	1.203313	-0.026395
H182	H	1.243294	0.417840	0.078231
Cl183	Cl	0.219561	1.233707	-0.154283
Cl184	Cl	0.165909	1.012979	-0.140299
Cl185	Cl	0.082848	1.233288	-0.153382
H186	H	0.302114	0.983594	-0.103346
Cl187	Cl	0.252200	0.774207	0.016201
Cl188	Cl	0.167255	1.002766	0.138843
Cl189	Cl	0.753597	0.772382	-0.482494
H190	H	0.357701	0.831277	0.131591
H191	H	0.959340	0.592380	-0.078082
Cl192	Cl	1.260073	0.288078	0.000058
Cl193	Cl	0.832734	0.613623	0.383724
Cl194	Cl	0.596806	1.009379	-0.570789
