data_functionalizedCrystal
_audit_creation_method	'MofGen! by Chris Wilmer'
_symmetry_space_group_name_H-M	'P1'
_symmetry_Int_Tables_number	1
_symmetry_cell_setting	triclinic
loop_
_symmetry_equiv_pos_as_xyz
  x,y,z
_cell_length_a	16.109318
_cell_length_b	14.519731
_cell_length_c	15.186229
_cell_angle_alpha	89.995270
_cell_angle_beta	90.000224
_cell_angle_gamma	83.578708
loop_
_atom_site_label
_atom_site_type_symbol
_atom_site_fract_x
_atom_site_fract_y
_atom_site_fract_z
O1	O	1.103335	0.118615	-0.073157
O2	O	1.603335	0.618615	0.426843
O3	O	0.861302	0.133350	-0.073175
O4	O	1.361302	0.633350	0.426825
O5	O	0.988726	-0.008268	-0.073158
O6	O	1.488726	0.491732	0.426842
O7	O	0.975910	0.260233	-0.073175
O8	O	1.475910	0.760233	0.426825
O9	O	0.988718	-0.008270	0.073299
O10	O	1.488718	0.491730	0.573299
O11	O	0.861293	0.133348	0.073282
O12	O	1.361293	0.633348	0.573282
O13	O	1.103327	0.118613	0.073300
O14	O	1.603327	0.618613	0.573300
Zn15	Zn	0.982309	0.125980	0.096544
Zn16	Zn	1.482309	0.625980	0.596544
Zn17	Zn	0.982320	0.125983	-0.096420
Zn18	Zn	1.482320	0.625983	0.403580
O19	O	0.975902	0.260231	0.073282
O20	O	1.475902	0.760231	0.573282
C21	C	0.830322	0.132749	0.000051
C22	C	1.330322	0.632749	0.500051
C23	C	0.738024	0.130951	0.000044
C24	C	1.238024	0.630951	0.500044
C25	C	0.988122	-0.042627	0.000071
C26	C	1.488122	0.457373	0.500071
C27	C	0.986322	-0.145004	0.000071
C28	C	1.486322	0.354996	0.500071
C29	C	0.438944	0.125146	-0.079774
C30	C	0.938944	0.625146	0.420226
C31	C	0.525669	0.126829	-0.079779
C32	C	1.025669	0.626829	0.420221
C33	C	0.525678	0.126814	0.079897
C34	C	1.025678	0.626814	0.579897
C35	C	0.438956	0.125124	0.079901
C36	C	0.938956	0.625124	0.579901
C37	C	0.395591	0.124295	0.000064
C38	C	0.895591	0.624295	0.500064
C39	C	0.569037	0.127668	0.000053
C40	C	1.069037	0.627668	0.500053
C41	C	0.663068	0.129493	0.000048
C42	C	1.163068	0.629493	0.500048
C43	C	0.301555	0.122468	0.000069
C44	C	0.801555	0.622468	0.500069
C45	C	0.984860	-0.228145	0.000069
C46	C	1.484860	0.271855	0.500069
C47	C	0.983033	-0.332450	0.000062
C48	C	1.483033	0.167550	0.500062
C49	C	0.981583	-0.415586	0.000057
C50	C	1.481583	0.084414	0.500057
C51	C	0.979756	-0.519897	0.000051
C52	C	1.479756	-0.019897	0.500051
C53	C	1.134307	0.119213	0.000072
C54	C	1.634307	0.619213	0.500072
C55	C	1.226604	0.121011	0.000073
C56	C	1.726604	0.621011	0.500073
C57	C	0.976507	0.294590	0.000052
C58	C	1.476507	0.794590	0.500052
C59	C	0.978306	0.396966	0.000046
C60	C	1.478306	0.896966	0.500046
N61	N	0.982307	0.125978	0.228237
N62	N	1.482307	0.625978	0.728237
N63	N	0.982328	0.125978	-0.228112
N64	N	1.482328	0.625978	0.271888
C65	C	1.038750	0.063290	0.453968
C66	C	1.538750	0.563290	0.953968
C67	C	1.038752	0.063288	0.546157
C68	C	1.538752	0.563288	1.046157
C69	C	0.925879	0.188668	0.546151
C70	C	1.425879	0.688668	1.046151
C71	C	0.925873	0.188665	0.453963
C72	C	1.425873	0.688665	0.953963
C73	C	0.982313	0.125977	0.407874
C74	C	1.482313	0.625977	0.907874
C75	C	0.982322	0.125978	0.592251
C76	C	1.482322	0.625978	1.092251
C77	C	0.982324	0.125976	0.692207
C78	C	1.482324	0.625976	1.192207
C79	C	0.982310	0.125978	0.307911
C80	C	1.482310	0.625978	0.807911
H81	H	0.560963	0.127521	-0.144790
H82	H	1.060963	0.627521	0.355210
N83	N	0.572450	0.127716	0.166004
N84	N	1.072450	0.627716	0.666004
H85	H	0.633966	0.128920	0.153888
H86	H	1.133966	0.628920	0.653888
H87	H	0.550639	0.184555	0.200864
H88	H	1.050639	0.684555	0.700864
H89	H	1.084707	0.012242	0.583684
H90	H	1.584707	0.512242	1.083684
N91	N	0.392190	0.124199	0.166016
N92	N	0.892190	0.624199	0.666016
H93	H	0.432891	0.124354	0.216590
H94	H	0.932891	0.624354	0.716590
H95	H	0.349945	0.180954	0.169757
H96	H	0.849945	0.680954	0.669757
N97	N	1.099620	-0.004320	0.404255
N98	N	1.599620	0.495680	0.904255
H99	H	1.135371	-0.044033	0.447448
H100	H	1.635371	0.455967	0.947448
H101	H	1.067727	-0.045104	0.366011
H102	H	1.567727	0.454896	0.866011
N103	N	0.865007	0.256279	0.595861
N104	N	1.365007	0.756279	1.095861
H105	H	0.873575	0.246771	0.661257
H106	H	1.373575	0.746771	1.161257
H107	H	0.874709	0.321706	0.579738
H108	H	1.374709	0.821706	1.079738
N109	N	0.864991	0.256279	0.404247
N110	N	1.364991	0.756279	0.904247
H111	H	0.874664	0.321739	0.420278
H112	H	1.374664	0.821739	0.920278
H113	H	0.873577	0.246682	0.338868
H114	H	1.373577	0.746682	0.838868
N115	N	0.392170	0.124247	-0.165880
N116	N	0.892170	0.624247	0.334120
H117	H	0.432798	0.125039	-0.216456
H118	H	0.932798	0.625039	0.283544
H119	H	0.362839	0.066411	-0.169354
H120	H	0.862839	0.566411	0.330646
