data_functionalizedCrystal
_audit_creation_method	'MofGen! by Chris Wilmer'
_symmetry_space_group_name_H-M	'P1'
_symmetry_Int_Tables_number	1
_symmetry_cell_setting	triclinic
loop_
_symmetry_equiv_pos_as_xyz
  x,y,z
_cell_length_a	25.639243
_cell_length_b	29.839131
_cell_length_c	25.639233
_cell_angle_alpha	90.019585
_cell_angle_beta	90.015962
_cell_angle_gamma	90.044144
loop_
_atom_site_label
_atom_site_type_symbol
_atom_site_fract_x
_atom_site_fract_y
_atom_site_fract_z
Zn1	Zn	0.799215	-0.178875	0.295653
Zn2	Zn	0.799134	-0.253990	0.208216
Zn3	Zn	0.711791	-0.178878	0.208226
Zn4	Zn	0.711732	-0.253983	0.295615
O5	O	0.755468	-0.216432	0.251927
O6	O	0.872370	-0.188841	0.284065
O7	O	0.787539	-0.244030	0.135052
O8	O	0.723447	-0.116011	0.219844
O9	O	0.872310	-0.244028	0.219826
O10	O	0.787677	-0.116009	0.284075
O11	O	0.723369	-0.188846	0.135060
O12	O	0.638618	-0.188839	0.219807
O13	O	0.723346	-0.244015	0.368785
O14	O	0.638575	-0.244018	0.284011
O15	O	0.787619	-0.188834	0.368813
O16	O	0.787482	-0.316856	0.219789
O17	O	0.723268	-0.316851	0.284001
C18	C	0.619626	-0.216428	0.251907
C19	C	0.561512	-0.216438	0.251910
C20	C	0.201174	-0.187741	0.285433
C21	C	0.146570	-0.187741	0.285436
O22	O	0.118354	-0.163333	0.313912
N23	N	0.119229	-0.216430	0.251942
C24	C	0.146496	-0.245119	0.218438
O25	O	0.118227	-0.269521	0.189949
C26	C	0.201099	-0.245116	0.218433
C27	C	0.228437	-0.216428	0.251933
C28	C	0.228512	-0.159055	0.318930
C29	C	0.283112	-0.159056	0.318927
C30	C	0.310375	-0.187743	0.285427
C31	C	0.283037	-0.216429	0.251930
C32	C	0.228365	-0.273802	0.184927
C33	C	0.282972	-0.273797	0.184925
C34	C	0.310310	-0.245109	0.218425
C35	C	0.364901	-0.245118	0.218428
N36	N	0.392241	-0.216428	0.251922
C37	C	0.364978	-0.187741	0.285422
C38	C	0.031825	-0.245121	0.218452
C39	C	-0.022777	-0.245125	0.218460
C40	C	-0.022700	-0.187747	0.285457
C41	C	0.031904	-0.187745	0.285451
C42	C	0.059166	-0.216431	0.251946
C43	C	0.479643	-0.187746	0.285414
C44	C	0.534249	-0.187751	0.285410
C45	C	0.534167	-0.245127	0.218411
C46	C	0.479566	-0.245124	0.218417
C47	C	0.452306	-0.216430	0.251920
O48	O	0.393151	-0.269511	0.189965
O49	O	0.393254	-0.163339	0.313902
C50	C	0.755374	-0.333154	0.251902
C51	C	0.755381	-0.383089	0.251908
C52	C	0.788965	-0.692722	0.218541
C53	C	0.789030	-0.880395	0.218561
O54	O	0.817509	-0.904651	0.190172
N55	N	0.755577	-0.903874	0.251967
C56	C	0.722108	-0.880431	0.285372
O57	O	0.693659	-0.904707	0.313790
C58	C	0.722046	-0.692759	0.285354
C59	C	0.755498	-0.669283	0.251943
C60	C	0.822415	-0.669246	0.185133
C61	C	0.822396	-0.622330	0.185126
C62	C	0.788928	-0.598891	0.218528
C63	C	0.755479	-0.622367	0.251936
C64	C	0.688580	-0.669317	0.318761
C65	C	0.688568	-0.622396	0.318755
C66	C	0.722020	-0.598920	0.285344
C67	C	0.721993	-0.552012	0.285331
N68	N	0.755446	-0.528534	0.251925
C69	C	0.788914	-0.551973	0.218524
C70	C	0.722142	-0.978962	0.285378
C71	C	0.722156	-1.025879	0.285382
C72	C	0.789079	-1.025840	0.218572
C73	C	0.789062	-0.978922	0.218566
C74	C	0.755595	-0.955483	0.251973
C75	C	0.788872	-0.453447	0.218512
C76	C	0.788849	-0.406528	0.218506
C77	C	0.721928	-0.406571	0.285318
C78	C	0.721949	-0.453487	0.285322
C79	C	0.755425	-0.476924	0.251917
O80	O	0.693533	-0.527727	0.313709
O81	O	0.817366	-0.527689	0.190118
C82	C	0.788984	-0.739637	0.218548
C83	C	0.755535	-0.763114	0.251956
C84	C	0.722067	-0.739674	0.285358
C85	C	0.755549	-0.810031	0.251960
C86	C	0.789017	-0.833471	0.218559
C87	C	0.822470	-0.809992	0.185153
C88	C	0.822452	-0.763077	0.185146
C89	C	0.688614	-0.763153	0.318763
C90	C	0.688635	-0.810068	0.318767
C91	C	0.722102	-0.833508	0.285365
C92	C	0.891841	-0.216435	0.251949
C93	C	0.949955	-0.216436	0.251958
C94	C	0.755485	-0.216424	0.388300
C95	C	0.755492	-0.216420	0.446415
C96	C	0.755577	-0.099253	0.251965
C97	C	0.755624	-0.049319	0.251981
C98	C	0.755482	-0.216407	0.116085
C99	C	0.755576	-0.216284	0.057971
C100	C	0.789002	-0.187602	0.806798
C101	C	0.789008	-0.187590	0.861402
O102	O	0.817457	-0.163141	0.889656
N103	N	0.755550	-0.216315	0.888697
C104	C	0.722079	-0.245051	0.861385
O105	O	0.693621	-0.269483	0.889616
C106	C	0.722071	-0.245061	0.806782
C107	C	0.755535	-0.216337	0.779490
C108	C	0.822463	-0.158880	0.779505
C109	C	0.822457	-0.158893	0.724905
C110	C	0.788990	-0.187628	0.697597
C111	C	0.755529	-0.216350	0.724889
C112	C	0.688598	-0.273795	0.779471
C113	C	0.688592	-0.273802	0.724864
C114	C	0.722056	-0.245078	0.697571
C115	C	0.722056	-0.245098	0.642980
N116	N	0.755514	-0.216373	0.615685
C117	C	0.788981	-0.187638	0.642993
C118	C	0.722100	-0.245028	0.976056
C119	C	0.722110	-0.245021	1.030658
C120	C	0.789039	-0.187558	1.030671
C121	C	0.789030	-0.187568	0.976068
C122	C	0.755558	-0.216303	0.948761
C123	C	0.788967	-0.187668	0.528328
C124	C	0.788959	-0.187685	0.473723
C125	C	0.722029	-0.245146	0.473714
C126	C	0.722038	-0.245130	0.528315
C127	C	0.755509	-0.216388	0.555621
O128	O	0.693620	-0.269534	0.614692
O129	O	0.817430	-0.163207	0.614756
H130	H	0.457455	-0.164379	0.312694
C131	C	0.825204	-0.156465	0.444029
C132	C	0.795620	-0.127684	0.412672
C133	C	0.828988	-0.098920	0.385309
H134	H	0.845144	-0.139306	0.468059
H135	H	0.847963	-0.173637	0.422698
H136	H	0.772871	-0.110513	0.434001
H137	H	0.775682	-0.144830	0.388632
H138	H	0.851747	-0.116092	0.363978
H139	H	0.848925	-0.081764	0.409343
H140	H	0.808920	-0.079391	0.364027
C141	C	0.825414	-0.953378	0.182378
C142	C	0.858891	-0.926395	0.212009
C143	C	0.892384	-0.902857	0.178690
H144	H	0.845395	-0.974010	0.162475
H145	H	0.805439	-0.935075	0.159583
H146	H	0.878864	-0.944697	0.234795
H147	H	0.838925	-0.905755	0.231911
H148	H	0.872409	-0.884554	0.155895
H149	H	0.912361	-0.923492	0.158788
H150	H	0.915099	-0.884543	0.198789
H151	H	0.849637	-0.603219	0.157921
C152	C	0.825434	-1.051375	0.182402
C153	C	0.818309	-1.097487	0.189587
C154	C	0.851811	-1.121025	0.156302
H155	H	0.817878	-1.043779	0.147229
H156	H	0.860555	-1.043662	0.190131
H157	H	0.783196	-1.105196	0.181854
H158	H	0.825868	-1.105096	0.224753
H159	H	0.886932	-1.113313	0.164031
H160	H	0.844253	-1.113426	0.121131
H161	H	0.846985	-1.152315	0.161176
C162	C	0.825135	-0.478951	0.182221
C163	C	0.795573	-0.505940	0.148690
C164	C	0.828960	-0.529446	0.115259
H165	H	0.845068	-0.458300	0.162275
H166	H	0.847900	-0.497247	0.202236
H167	H	0.772818	-0.487645	0.128677
H168	H	0.775642	-0.526600	0.168622
H169	H	0.851725	-0.547743	0.135274
H170	H	0.848891	-0.508792	0.095316
H171	H	0.808908	-0.547764	0.092508
H172	H	0.816288	-0.164160	1.052916
H173	H	0.694712	-0.472602	0.312530
C174	C	0.312694	-0.127853	0.355313
C175	C	0.277122	-0.102724	0.384635
C176	C	0.304350	-0.073967	0.418153
H177	H	0.333992	-0.145011	0.378106
H178	H	0.333991	-0.108228	0.335362
H179	H	0.255834	-0.122347	0.404585
H180	H	0.255823	-0.085557	0.361855
H181	H	0.325646	-0.054342	0.398202
H182	H	0.325647	-0.091129	0.440943
H183	H	0.280218	-0.056911	0.438049
H184	H	0.054019	-0.268485	0.191169
C185	C	-0.052360	-0.276294	0.182035
C186	C	-0.016790	-0.301407	0.152691
C187	C	-0.044020	-0.330119	0.119123
H188	H	-0.073674	-0.295935	0.201934
H189	H	-0.073641	-0.259091	0.159261
H190	H	0.004482	-0.318609	0.175461
H191	H	0.004525	-0.281778	0.132780
H192	H	-0.065301	-0.312915	0.096349
H193	H	-0.065334	-0.349757	0.139027
H194	H	-0.019891	-0.347158	0.099205
H195	H	0.816220	-0.164262	0.550554
C196	C	0.685697	-0.276159	0.946384
C197	C	0.652189	-0.250734	0.915045
C198	C	0.618644	-0.279396	0.887713
H199	H	0.705615	-0.295749	0.925042
H200	H	0.665745	-0.293256	0.970448
H201	H	0.672139	-0.233645	0.890983
H202	H	0.632260	-0.231146	0.936374
H203	H	0.598692	-0.296493	0.911777
H204	H	0.638566	-0.298984	0.866373
H205	H	0.595902	-0.262149	0.866449
H206	H	0.206320	-0.135692	0.346209
C207	C	0.449853	-0.276328	0.182136
C208	C	0.418494	-0.305167	0.211678
C209	C	0.391124	-0.333918	0.178271
H210	H	0.428521	-0.259164	0.159382
H211	H	0.473894	-0.293441	0.162195
H212	H	0.394455	-0.288056	0.231611
H213	H	0.439813	-0.322341	0.234431
H214	H	0.415165	-0.351031	0.158329
H215	H	0.369794	-0.316750	0.155518
H216	H	0.369847	-0.353491	0.198310
C217	C	0.563867	-0.276222	0.182060
C218	C	0.617537	-0.270069	0.189219
C219	C	0.644914	-0.298698	0.155733
H220	H	0.554962	-0.306437	0.189609
H221	H	0.554944	-0.269594	0.146934
H222	H	0.626457	-0.276699	0.224337
H223	H	0.626458	-0.239860	0.181666
H224	H	0.635991	-0.292070	0.120607
H225	H	0.636004	-0.328911	0.163285
H226	H	0.681331	-0.294524	0.160583
C227	C	0.312597	-0.304871	0.148483
C228	C	0.343947	-0.279392	0.115014
C229	C	0.371237	-0.308002	0.081434
H230	H	0.333929	-0.324482	0.168378
H231	H	0.288508	-0.321947	0.128505
H232	H	0.368033	-0.262324	0.134990
H233	H	0.322628	-0.259783	0.095108
H234	H	0.347148	-0.325078	0.061456
H235	H	0.392566	-0.327612	0.101333
H236	H	0.392508	-0.290719	0.058718
C237	C	0.061488	-0.156547	0.321841
C238	C	0.025918	-0.131420	0.351169
C239	C	0.053148	-0.102670	0.384693
H240	H	0.082785	-0.173709	0.344630
H241	H	0.082785	-0.136919	0.301893
H242	H	0.004630	-0.151045	0.371115
H243	H	0.004619	-0.114249	0.328394
H244	H	0.074446	-0.083043	0.364745
H245	H	0.074445	-0.119836	0.407479
H246	H	0.029019	-0.085615	0.404593
H247	H	0.206116	-0.297163	0.157647
C248	C	0.563835	-0.156552	0.321802
C249	C	0.528267	-0.131421	0.351128
C250	C	0.555500	-0.102672	0.384651
H251	H	0.585129	-0.173715	0.344593
H252	H	0.585135	-0.136927	0.301855
H253	H	0.506975	-0.151043	0.371074
H254	H	0.506972	-0.114248	0.328351
H255	H	0.576801	-0.083048	0.364704
H256	H	0.576794	-0.119839	0.407439
H257	H	0.531372	-0.085614	0.404550
C258	C	0.825141	-0.381098	0.182146
C259	C	0.813805	-0.392553	0.130407
C260	C	0.847231	-0.369142	0.096899
H261	H	0.820372	-0.349791	0.186851
H262	H	0.860277	-0.388761	0.189802
H263	H	0.778678	-0.384886	0.122752
H264	H	0.818577	-0.423856	0.125685
H265	H	0.882366	-0.376806	0.104556
H266	H	0.842459	-0.337836	0.101609
H267	H	0.839547	-0.376914	0.061791
C268	C	0.685652	-0.381036	0.321563
C269	C	0.692811	-0.334924	0.314414
C270	C	0.659410	-0.311386	0.347801
H271	H	0.650507	-0.388703	0.313916
H272	H	0.693290	-0.388677	0.356712
H273	H	0.685169	-0.327285	0.279273
H274	H	0.727949	-0.327243	0.322064
H275	H	0.667049	-0.319027	0.382950
H276	H	0.624267	-0.319056	0.340152
H277	H	0.664267	-0.280096	0.342958
C278	C	0.858831	-0.737673	0.148853
C279	C	0.888150	-0.768251	0.119617
C280	C	0.921676	-0.744869	0.086183
H281	H	0.838902	-0.719396	0.126002
H282	H	0.881623	-0.719353	0.168861
H283	H	0.865362	-0.786564	0.099611
H284	H	0.908090	-0.786529	0.142455
H285	H	0.944468	-0.726548	0.106190
H286	H	0.901743	-0.726592	0.063335
H287	H	0.941577	-0.765612	0.066345
H288	H	0.694866	-0.268415	1.052875
H289	H	-0.044907	-0.164387	0.312733
C290	C	0.685770	-0.953459	0.321563
C291	C	0.652277	-0.926557	0.291925
C292	C	0.618767	-0.903056	0.325238
H293	H	0.665800	-0.974113	0.341467
H294	H	0.705730	-0.935105	0.344357
H295	H	0.632319	-0.944910	0.269140
H296	H	0.672233	-0.905894	0.272022
H297	H	0.638728	-0.884701	0.348032
H298	H	0.598801	-0.923713	0.345141
H299	H	0.596042	-0.884796	0.305135
C300	C	0.652242	-0.737650	0.354943
C301	C	0.618749	-0.710752	0.325302
C302	C	0.585237	-0.687250	0.358613
H303	H	0.632274	-0.758304	0.374848
H304	H	0.672201	-0.719293	0.377735
H305	H	0.598792	-0.729107	0.302518
H306	H	0.638703	-0.690090	0.305397
H307	H	0.605195	-0.668893	0.381405
H308	H	0.565272	-0.707907	0.378517
H309	H	0.562510	-0.668993	0.338507
C310	C	0.685897	-1.051340	0.321742
C311	C	0.697255	-1.039904	0.373481
C312	C	0.663870	-1.063352	0.406994
H313	H	0.650752	-1.043703	0.314125
H314	H	0.690700	-1.082645	0.317000
H315	H	0.692448	-1.008606	0.378221
H316	H	0.732394	-1.047542	0.381114
H317	H	0.668673	-1.094657	0.402252
H318	H	0.628727	-1.055713	0.399372
H319	H	0.671575	-1.055598	0.442103
C320	C	0.652263	-0.597005	0.355112
C321	C	0.663612	-0.608398	0.406852
C322	C	0.630174	-0.585022	0.440357
H323	H	0.657009	-0.565693	0.350396
H324	H	0.617132	-0.604740	0.347461
H325	H	0.698735	-0.600660	0.414500
H326	H	0.658863	-0.639706	0.411584
H327	H	0.595043	-0.592757	0.432706
H328	H	0.634923	-0.553711	0.435637
H329	H	0.637867	-0.592751	0.475466
H330	H	0.849671	-0.688325	0.157933
C331	C	0.652293	-0.835472	0.355102
C332	C	0.622992	-0.804897	0.384360
C333	C	0.589519	-0.828281	0.417845
H334	H	0.629483	-0.853808	0.335146
H335	H	0.672275	-0.853735	0.377934
H336	H	0.603012	-0.786642	0.361531
H337	H	0.645788	-0.786561	0.404327
H338	H	0.609501	-0.846544	0.440677
H339	H	0.566713	-0.846616	0.397885
H340	H	0.569638	-0.807540	0.437704
C341	C	0.858831	-0.127752	0.809217
C342	C	0.892319	-0.153181	0.840574
C343	C	0.925828	-0.124521	0.867954
H344	H	0.878805	-0.110639	0.785197
H345	H	0.838870	-0.108178	0.830548
H346	H	0.912278	-0.172748	0.819245
H347	H	0.872360	-0.170294	0.864604
H348	H	0.905866	-0.104947	0.889285
H349	H	0.945798	-0.107409	0.843929
H350	H	0.948549	-0.141771	0.889236
H351	H	0.694783	-0.268542	0.451470
H352	H	0.661347	-0.297185	0.801683
C353	C	0.685795	-0.276371	0.557980
C354	C	0.715370	-0.305166	0.589327
C355	C	0.681996	-0.333950	0.616653
H356	H	0.663022	-0.259228	0.579317
H357	H	0.665871	-0.293514	0.533912
H358	H	0.735285	-0.288025	0.613392
H359	H	0.738141	-0.322319	0.568003
H360	H	0.662072	-0.351093	0.592585
H361	H	0.659225	-0.316804	0.637987
H362	H	0.702058	-0.353494	0.637921
H363	H	0.661338	-0.688423	0.345966
C364	C	0.858805	-0.127653	0.695372
C365	C	0.888101	-0.102480	0.730984
C366	C	0.921585	-0.073689	0.703801
H367	H	0.881618	-0.144788	0.674069
H368	H	0.838831	-0.108057	0.674084
H369	H	0.908073	-0.122073	0.752263
H370	H	0.865302	-0.085335	0.752288
H371	H	0.901611	-0.054093	0.682513
H372	H	0.944394	-0.090828	0.682499
H373	H	0.941462	-0.056603	0.727960
H374	H	0.849719	-0.829085	0.157955
H375	H	0.816279	-0.164178	0.953850
H376	H	0.661328	-0.297197	0.702633
