data_functionalizedCrystal
_audit_creation_method	'MofGen! by Chris Wilmer'
_symmetry_space_group_name_H-M	'P1'
_symmetry_Int_Tables_number	1
_symmetry_cell_setting	triclinic
loop_
_symmetry_equiv_pos_as_xyz
  x,y,z
_cell_length_a	27.731994
_cell_length_b	27.732048
_cell_length_c	26.210047
_cell_angle_alpha	89.999521
_cell_angle_beta	90.002872
_cell_angle_gamma	97.368405
loop_
_atom_site_label
_atom_site_type_symbol
_atom_site_fract_x
_atom_site_fract_y
_atom_site_fract_z
O1	O	0.640948	-0.057385	0.042362
O2	O	1.140948	0.442615	0.542362
O3	O	0.500151	-0.066158	0.042379
O4	O	1.000151	0.433842	0.542379
O5	O	0.574923	0.008626	0.042360
O6	O	1.074923	0.508626	0.542360
O7	O	0.566177	-0.132169	0.042381
O8	O	1.066177	0.367831	0.542381
O9	O	0.574908	0.008614	-0.042498
O10	O	1.074908	0.508614	0.457502
O11	O	0.500137	-0.066170	-0.042479
O12	O	1.000137	0.433830	0.457521
O13	O	0.640934	-0.057397	-0.042496
O14	O	1.140934	0.442603	0.457504
Cu15	Cu	0.570534	-0.061784	-0.050236
Cu16	Cu	1.070534	0.438216	0.449764
Cu17	Cu	0.570551	-0.061771	0.050119
Cu18	Cu	1.070551	0.438229	0.550119
O19	O	0.566162	-0.132181	-0.042477
O20	O	1.066162	0.367819	0.457523
C21	C	0.482137	-0.065984	-0.000047
C22	C	0.982137	0.434016	0.499953
C23	C	0.428480	-0.065442	-0.000041
C24	C	0.928480	0.434558	0.499959
C25	C	0.095754	-0.062032	-0.046317
C26	C	0.595754	0.437968	0.453683
C27	C	-0.105904	-0.059971	-0.046324
C28	C	0.394096	0.440029	0.453676
O29	O	-0.131984	-0.059689	-0.085663
O30	O	0.368016	0.440311	0.414337
N31	N	-0.131111	-0.059708	-0.000067
N32	N	0.368889	0.440292	0.499933
C33	C	-0.105900	-0.059958	0.046193
C34	C	0.394100	0.440042	0.546193
O35	O	-0.131967	-0.059683	0.085537
O36	O	0.368033	0.440317	0.585537
C37	C	0.095758	-0.062016	0.046199
C38	C	0.595758	0.437984	0.546199
C39	C	0.120961	-0.062283	-0.000060
C40	C	0.620961	0.437717	0.499940
C41	C	0.120958	-0.062299	-0.092573
C42	C	0.620958	0.437701	0.407427
C43	C	0.171369	-0.062817	-0.092571
C44	C	0.671369	0.437183	0.407429
C45	C	0.196576	-0.063068	-0.046313
C46	C	0.696576	0.436932	0.453687
C47	C	0.171372	-0.062802	-0.000058
C48	C	0.671372	0.437198	0.499942
C49	C	0.120968	-0.062263	0.092459
C50	C	0.620968	0.437737	0.592459
C51	C	0.171386	-0.062776	0.092457
C52	C	0.671386	0.437224	0.592457
C53	C	0.196590	-0.063043	0.046197
C54	C	0.696590	0.436957	0.546197
C55	C	0.246991	-0.063571	0.046201
C56	C	0.746991	0.436429	0.546201
N57	N	0.272198	-0.063833	-0.000055
N58	N	0.772198	0.436167	0.499945
C59	C	0.246991	-0.063582	-0.046312
C60	C	0.746991	0.436418	0.453688
C61	C	-0.211773	-0.058878	0.046187
C62	C	0.288227	0.441122	0.546187
C63	C	-0.262188	-0.058365	0.046186
C64	C	0.237812	0.441635	0.546186
C65	C	-0.262188	-0.058376	-0.046331
C66	C	0.237812	0.441624	0.453669
C67	C	-0.211774	-0.058894	-0.046329
C68	C	0.288226	0.441106	0.453671
C69	C	-0.186566	-0.059141	-0.000069
C70	C	0.313434	0.440859	0.499931
C71	C	0.352858	-0.064670	-0.046305
C72	C	0.852858	0.435330	0.453695
C73	C	0.403273	-0.065190	-0.046298
C74	C	0.903273	0.434810	0.453702
C75	C	0.403269	-0.065176	0.046218
C76	C	0.903269	0.434824	0.546218
C77	C	0.352858	-0.064659	0.046213
C78	C	0.852858	0.435341	0.546213
C79	C	0.327654	-0.064404	-0.000053
C80	C	0.827654	0.435596	0.499947
O81	O	0.273102	-0.063848	0.085520
O82	O	0.773102	0.436152	0.585520
O83	O	0.273067	-0.063847	-0.085650
O84	O	0.773067	0.436153	0.414350
C85	C	0.045343	-0.061514	-0.046319
C86	C	0.545343	0.438486	0.453681
C87	C	0.020139	-0.061247	-0.000064
C88	C	0.520139	0.438753	0.499936
C89	C	0.045346	-0.061499	0.046193
C90	C	0.545346	0.438501	0.546193
C91	C	-0.030275	-0.060734	-0.000065
C92	C	0.469725	0.439266	0.499935
C93	C	-0.055483	-0.060482	-0.046323
C94	C	0.444517	0.439518	0.453677
C95	C	-0.030276	-0.060745	-0.092579
C96	C	0.469724	0.439255	0.407421
C97	C	0.020135	-0.061263	-0.092577
C98	C	0.520135	0.438737	0.407423
C99	C	0.020139	-0.061236	0.092449
C100	C	0.520139	0.438764	0.592449
C101	C	-0.030272	-0.060719	0.092443
C102	C	0.469728	0.439281	0.592443
C103	C	-0.055479	-0.060468	0.046186
C104	C	0.444521	0.439532	0.546186
C105	C	0.574732	0.026627	-0.000070
C106	C	1.074732	0.526627	0.499930
C107	C	0.574179	0.080282	-0.000074
C108	C	1.074179	0.580282	0.499926
C109	C	0.658949	-0.057571	-0.000068
C110	C	1.158949	0.442429	0.499932
C111	C	0.712605	-0.058114	-0.000071
C112	C	1.212605	0.441886	0.499929
C113	C	0.566353	-0.150182	-0.000046
C114	C	1.066353	0.349818	0.499954
C115	C	0.566906	-0.203837	-0.000038
C116	C	1.066906	0.296163	0.499962
N117	N	0.570526	-0.061794	-0.120820
N118	N	1.070526	0.438206	0.379180
C119	C	0.614884	0.419105	-0.000053
C120	C	1.114884	0.919105	0.499947
C121	C	0.612833	0.620764	-0.000046
C122	C	1.112833	1.120764	0.499954
O123	O	0.650055	0.652027	-0.000028
O124	O	1.150055	1.152027	0.499972
N125	N	0.568496	0.639879	-0.000041
N126	N	1.068496	1.139879	0.499959
C127	C	0.524670	0.608576	-0.000034
C128	C	1.024670	1.108576	0.499966
O129	O	0.486912	0.629462	-0.000024
O130	O	0.986912	1.129462	0.499976
C131	C	0.526721	0.406918	-0.000038
C132	C	1.026721	0.906918	0.499962
C133	C	0.571061	0.387805	-0.000048
C134	C	1.071061	0.887805	0.499952
C135	C	0.659220	0.399992	-0.000063
C136	C	1.159220	0.899992	0.499937
C137	C	0.659732	0.349580	-0.000068
C138	C	1.159732	0.849580	0.499932
C139	C	0.615908	0.318281	-0.000062
C140	C	1.115908	0.818281	0.499938
C141	C	0.571573	0.337394	-0.000053
C142	C	1.071573	0.837394	0.499947
C143	C	0.482895	0.375615	-0.000028
C144	C	0.982895	0.875615	0.499972
C145	C	0.483412	0.325198	-0.000027
C146	C	0.983412	0.825198	0.499973
C147	C	0.527751	0.306086	-0.000037
C148	C	1.027751	0.806086	0.499963
C149	C	0.528262	0.255683	-0.000052
C150	C	1.028262	0.755683	0.499948
N151	N	0.572598	0.236567	-0.000057
N152	N	1.072598	0.736567	0.499943
C153	C	0.616421	0.267867	-0.000062
C154	C	1.116421	0.767867	0.499938
C155	C	0.523596	0.714450	-0.000033
C156	C	1.023596	1.214450	0.499967
C157	C	0.523083	0.764864	-0.000033
C158	C	1.023083	1.264864	0.499967
C159	C	0.611246	0.777049	-0.000044
C160	C	1.111246	1.277049	0.499956
C161	C	0.611759	0.726633	-0.000048
C162	C	1.111759	1.226633	0.499952
C163	C	0.567932	0.695335	-0.000038
C164	C	1.067932	1.195335	0.499962
C165	C	0.617494	0.161998	-0.000073
C166	C	1.117494	0.661998	0.499927
C167	C	0.618002	0.111581	-0.000079
C168	C	1.118002	0.611581	0.499921
C169	C	0.529839	0.099401	-0.000066
C170	C	1.029839	0.599401	0.499934
C171	C	0.529331	0.149813	-0.000062
C172	C	1.029331	0.649813	0.499938
C173	C	0.573162	0.181111	-0.000063
C174	C	1.073162	0.681111	0.499937
O175	O	0.491060	0.224391	-0.000064
O176	O	0.991060	0.724391	0.499936
O177	O	0.654174	0.246971	-0.000061
O178	O	1.154174	0.746971	0.499939
C179	C	0.614372	0.469517	-0.000049
C180	C	1.114372	0.969517	0.499951
C181	C	0.570036	0.488629	-0.000039
C182	C	1.070036	0.988629	0.499961
C183	C	0.526213	0.457330	-0.000034
C184	C	1.026213	0.957330	0.499966
C185	C	0.569523	0.539043	-0.000039
C186	C	1.069523	1.039043	0.499961
C187	C	0.613346	0.570343	-0.000044
C188	C	1.113346	1.070343	0.499956
C189	C	0.657683	0.551228	-0.000049
C190	C	1.157683	1.051228	0.499951
C191	C	0.658195	0.500816	-0.000054
C192	C	1.158195	1.000816	0.499946
C193	C	0.481876	0.476445	-0.000029
C194	C	0.981876	0.976445	0.499971
C195	C	0.481367	0.526857	-0.000025
C196	C	0.981367	1.026857	0.499975
C197	C	0.525191	0.558157	-0.000030
C198	C	1.025191	1.058157	0.499970
C199	C	0.603656	-0.028664	-0.473342
C200	C	1.103656	0.471336	0.026658
C201	C	0.603667	-0.028657	-0.687001
C202	C	1.103667	0.471343	-0.187001
O203	O	0.631818	-0.000491	-0.714630
O204	O	1.131818	0.499509	-0.214630
N205	N	0.570554	-0.061760	-0.713714
N206	N	1.070554	0.438240	-0.213714
C207	C	0.537433	-0.094865	-0.687008
C208	C	1.037433	0.405135	-0.187008
O209	O	0.509265	-0.123018	-0.714632
O210	O	1.009265	0.376982	-0.214632
C211	C	0.537421	-0.094869	-0.473351
C212	C	1.037421	0.405131	0.026649
C213	C	0.570539	-0.061767	-0.446641
C214	C	1.070539	0.438233	0.053359
C215	C	0.636772	0.004436	-0.446632
C216	C	1.136772	0.504436	0.053368
C217	C	0.636771	0.004432	-0.393221
C218	C	1.136771	0.504432	0.106779
C219	C	0.603654	-0.028671	-0.366519
C220	C	1.103654	0.471329	0.133481
C221	C	0.570538	-0.061771	-0.393229
C222	C	1.070538	0.438229	0.106771
C223	C	0.504298	-0.127971	-0.446647
C224	C	1.004298	0.372029	0.053353
C225	C	0.504297	-0.127969	-0.393229
C226	C	1.004297	0.372031	0.106771
C227	C	0.537416	-0.094867	-0.366519
C228	C	1.037416	0.405133	0.133481
C229	C	0.537420	-0.094878	-0.313117
C230	C	1.037420	0.405122	0.186883
N231	N	0.570533	-0.061775	-0.286404
N232	N	1.070533	0.438225	0.213596
C233	C	0.603650	-0.028672	-0.313105
C234	C	1.103650	0.471328	0.186895
C235	C	0.537443	-0.094861	-0.799182
C236	C	1.037443	0.405139	-0.299182
C237	C	0.537446	-0.094861	-0.852596
C238	C	1.037446	0.405139	-0.352596
C239	C	0.603680	-0.028652	-0.852585
C240	C	1.103680	0.471348	-0.352585
C241	C	0.603678	-0.028655	-0.799169
C242	C	1.103678	0.471345	-0.299169
C243	C	0.570556	-0.061758	-0.772469
C244	C	1.070556	0.438242	-0.272469
C245	C	0.603645	-0.028682	-0.200937
C246	C	1.103645	0.471318	0.299063
C247	C	0.603643	-0.028690	-0.147521
C248	C	1.103643	0.471310	0.352479
C249	C	0.537408	-0.094897	-0.147537
C250	C	1.037408	0.405103	0.352463
C251	C	0.537412	-0.094891	-0.200949
C252	C	1.037412	0.405109	0.299051
C253	C	0.570533	-0.061780	-0.227647
C254	C	1.070533	0.438220	0.272353
O255	O	0.509281	-0.123026	-0.285454
O256	O	1.009281	0.376974	0.214546
O257	O	0.631807	-0.000516	-0.285473
O258	O	1.131807	0.499484	0.214527
C259	C	0.603658	-0.028660	-0.526754
C260	C	1.103658	0.471340	-0.026754
C261	C	0.570542	-0.061760	-0.553464
C262	C	1.070542	0.438240	-0.053464
C263	C	0.537425	-0.094863	-0.526762
C264	C	1.037425	0.405137	-0.026762
C265	C	0.570546	-0.061759	-0.606878
C266	C	1.070546	0.438241	-0.106878
C267	C	0.603663	-0.028656	-0.633579
C268	C	1.103663	0.471344	-0.133579
C269	C	0.636776	0.004447	-0.606866
C270	C	1.136776	0.504447	-0.106866
C271	C	0.636775	0.004443	-0.553455
C272	C	1.136775	0.504443	-0.053455
C273	C	0.504311	-0.127966	-0.553475
C274	C	1.004311	0.372034	-0.053475
C275	C	0.504316	-0.127960	-0.606887
C276	C	1.004316	0.372040	-0.106887
C277	C	0.537433	-0.094857	-0.633588
C278	C	1.037433	0.405143	-0.133588
N279	N	0.570563	-0.061757	0.120703
N280	N	1.070563	0.438243	0.620703
H281	H	0.040652	-0.061481	-0.130246
H282	H	0.540652	0.438519	0.369754
O283	O	-0.057458	-0.060430	0.142338
O284	O	0.442542	0.439570	0.642338
H285	H	-0.075867	-0.027235	0.144537
H286	H	0.424133	0.472765	0.644537
H287	H	0.191907	-0.062977	0.130128
H288	H	0.691907	0.437023	0.630128
O289	O	0.047324	-0.061511	0.142343
O290	O	0.547324	0.438489	0.642343
H291	H	0.021322	-0.061246	0.174503
H292	H	0.521322	0.438754	0.674503
O293	O	0.501716	-0.130572	-0.770391
O294	O	1.001716	0.369428	-0.270391
H295	H	0.478367	-0.110394	-0.746064
H296	H	0.978367	0.389606	-0.246064
O297	O	0.665827	0.090966	-0.000082
O298	O	1.165827	0.590966	0.499918
H299	H	0.696213	0.121203	-0.000078
H300	H	1.196213	0.621203	0.499922
H301	H	0.630646	-0.001698	-0.874334
H302	H	1.130646	0.498302	-0.374334
H303	H	0.510483	-0.121820	-0.874340
H304	H	1.010483	0.378180	-0.374340
H305	H	0.694908	0.425472	-0.000065
H306	H	1.194908	0.925472	0.499935
H307	H	0.332335	-0.064449	0.083880
H308	H	0.832335	0.435551	0.583880
O309	O	0.659580	0.706020	-0.000049
O310	O	1.159580	1.206020	0.499951
H311	H	0.689965	0.736259	-0.000049
H312	H	1.189965	1.236259	0.499951
O313	O	0.658515	0.810811	-0.000046
O314	O	1.158515	1.310811	0.499954
H315	H	0.650704	0.849076	-0.000040
H316	H	1.150704	1.349076	0.499960
O317	O	0.664767	0.195751	-0.000082
O318	O	1.164767	0.695751	0.499918
H319	H	0.695679	0.173984	-0.000096
H320	H	1.195679	0.673984	0.499904
H321	H	0.694301	0.485260	-0.000062
H322	H	1.194301	0.985260	0.499938
O323	O	0.707555	0.328969	-0.000064
O324	O	1.207555	0.828969	0.499936
H325	H	0.737937	0.359209	-0.000058
H326	H	1.237937	0.859209	0.499942
O327	O	0.639362	0.007021	-0.118717
O328	O	1.139362	0.507021	0.381283
H329	H	0.619187	0.030367	-0.094382
H330	H	1.119187	0.530367	0.405618
H331	H	0.477324	-0.154925	-0.371492
H332	H	0.977324	0.345075	0.128508
O333	O	0.476323	0.680694	-0.000026
O334	O	0.976323	1.180694	0.499974
H335	H	0.474443	0.657431	-0.034611
H336	H	0.974443	1.157431	0.465389
O337	O	0.501693	-0.130593	-0.229763
O338	O	1.001693	0.369407	0.270237
H339	H	0.478664	-0.153611	-0.202219
H340	H	0.978664	0.346389	0.297781
O341	O	0.672489	0.040153	-0.524648
O342	O	1.172489	0.540153	-0.024648
H343	H	0.710126	0.034266	-0.534899
H344	H	1.210126	0.534266	-0.034899
H345	H	0.486977	0.780420	-0.000034
H346	H	0.986977	1.280420	0.499966
O347	O	0.482574	0.065638	-0.000062
O348	O	0.982574	0.565638	0.499938
H349	H	0.480707	0.042380	0.034526
H350	H	0.980707	0.542380	0.534526
H351	H	0.510445	-0.121851	-0.125788
H352	H	1.010445	0.378149	0.374212
O353	O	0.639373	0.007024	-0.229731
O354	O	1.139373	0.507024	0.270269
H355	H	0.662402	0.030032	-0.202177
H356	H	1.162402	0.530032	0.297823
O357	O	0.435072	0.396222	-0.000015
O358	O	0.935072	0.896222	0.499985
H359	H	0.404690	0.365981	-0.000005
H360	H	0.904690	0.865981	0.499995
H361	H	0.423802	-0.065383	0.083880
H362	H	0.923802	0.434617	0.583880
H363	H	-0.050809	-0.060543	-0.130243
H364	H	0.449191	0.439457	0.369757
O365	O	0.468594	-0.163692	-0.475448
O366	O	0.968594	0.336308	0.024552
H367	H	0.445571	-0.186710	-0.447899
H368	H	0.945571	0.313290	0.052101
H369	H	0.447722	0.299716	-0.000019
H370	H	0.947722	0.799716	0.499981
O371	O	0.468597	-0.163667	-0.635697
O372	O	0.968597	0.336333	-0.135697
H373	H	0.488771	-0.187016	-0.660029
H374	H	0.988771	0.312984	-0.160029
H375	H	0.493226	0.165375	-0.000068
H376	H	0.993226	0.665375	0.499932
H377	H	0.693365	0.576720	-0.000055
H378	H	1.193365	1.076720	0.499945
H379	H	0.445258	0.542413	-0.000021
H380	H	0.945258	1.042413	0.499979
H381	H	0.630646	-0.001700	-0.777425
H382	H	1.130646	0.498300	-0.277425
O383	O	0.434607	0.442689	-0.000033
O384	O	0.934607	0.942689	0.499967
H385	H	0.403695	0.464456	-0.000034
H386	H	0.903695	0.964456	0.499966
H387	H	0.663743	0.031400	-0.628615
H388	H	1.163743	0.531400	-0.128615
O389	O	0.325584	-0.064460	-0.096153
O390	O	0.825584	0.435540	0.403847
H391	H	0.339738	-0.031627	-0.118417
H392	H	0.839738	0.468373	0.381583
O393	O	0.672485	0.040142	-0.364414
O394	O	1.172485	0.540142	0.135586
H395	H	0.695507	0.063162	-0.391962
H396	H	1.195507	0.563162	0.108038
O397	O	0.468594	-0.163675	-0.524679
O398	O	0.968594	0.336325	-0.024679
H399	H	0.445574	-0.186693	-0.552232
H400	H	0.945574	0.313307	-0.052232
O401	O	0.198547	-0.063101	-0.142467
O402	O	0.698547	0.436899	0.357533
H403	H	0.237839	-0.063505	-0.134703
H404	H	0.737839	0.436495	0.365297
H405	H	0.663740	0.031395	-0.468368
H406	H	1.163740	0.531395	0.031632
O407	O	0.430454	-0.065479	-0.096196
O408	O	0.930454	0.434521	0.403804
H409	H	0.469745	-0.065887	-0.088427
H410	H	0.969745	0.434113	0.411573
O411	O	0.093725	-0.062065	-0.142442
O412	O	0.593725	0.437935	0.357558
H413	H	0.107916	-0.029223	-0.164672
H414	H	0.607916	0.470777	0.335328
O415	O	-0.184590	-0.059184	-0.096222
O416	O	0.315410	0.440816	0.403778
H417	H	-0.210593	-0.058924	-0.128385
H418	H	0.289407	0.441076	0.371615
H419	H	-0.282721	-0.058173	-0.083996
H420	H	0.217279	0.441827	0.416004
H421	H	-0.282705	-0.058155	0.083855
H422	H	0.217295	0.441845	0.583855
H423	H	0.100456	-0.062044	0.130128
H424	H	0.600456	0.437956	0.630128
O425	O	-0.184589	-0.059151	0.096085
O426	O	0.315411	0.440849	0.596085
H427	H	-0.210592	-0.058887	0.128245
H428	H	0.289408	0.441113	0.628245
