data_functionalizedCrystal
_audit_creation_method	'MofGen! by Chris Wilmer'
_symmetry_space_group_name_H-M	'P1'
_symmetry_Int_Tables_number	1
_symmetry_cell_setting	triclinic
loop_
_symmetry_equiv_pos_as_xyz
  x,y,z
_cell_length_a	19.188929
_cell_length_b	19.188905
_cell_length_c	17.666332
_cell_angle_alpha	89.983521
_cell_angle_beta	90.028268
_cell_angle_gamma	96.860334
loop_
_atom_site_label
_atom_site_type_symbol
_atom_site_fract_x
_atom_site_fract_y
_atom_site_fract_z
O1	O	-0.087086	0.926161	-0.063109
O2	O	0.412914	1.426161	0.436891
O3	O	-0.098838	0.722847	-0.063088
O4	O	0.401162	1.222847	0.436912
O5	O	0.008694	0.830371	-0.063052
O6	O	0.508694	1.330371	0.436948
O7	O	-0.194618	0.818637	-0.063145
O8	O	0.305382	1.318637	0.436855
O9	O	0.008700	0.830352	0.062844
O10	O	0.508700	1.330352	0.562844
O11	O	-0.098832	0.722828	0.062809
O12	O	0.401168	1.222828	0.562809
O13	O	-0.087080	0.926142	0.062788
O14	O	0.412920	1.426142	0.562788
Cu15	Cu	-0.092956	0.824483	0.074294
Cu16	Cu	0.407044	1.324483	0.574294
Cu17	Cu	-0.092962	0.824506	-0.074594
Cu18	Cu	0.407038	1.324506	0.425406
O19	O	-0.194612	0.818618	0.062752
O20	O	0.305388	1.318618	0.562752
C21	C	-0.098458	0.696826	-0.000136
C22	C	0.401542	1.196826	0.499864
C23	C	-0.097324	0.619321	-0.000126
C24	C	0.402676	1.119321	0.499874
C25	C	-0.096782	0.582939	-0.068754
C26	C	0.403218	1.082939	0.431246
C27	C	-0.095709	0.510116	-0.068763
C28	C	0.404291	1.010116	0.431237
C29	C	-0.095164	0.473678	-0.000140
C30	C	0.404836	0.973678	0.499860
C31	C	-0.095709	0.510068	0.068498
C32	C	0.404291	1.010068	0.568498
C33	C	-0.096789	0.582889	0.068504
C34	C	0.403211	1.082889	0.568504
N35	N	-0.053733	0.364650	0.050949
N36	N	0.446267	0.864650	0.550949
N37	N	-0.052705	0.295473	0.050937
N38	N	0.447295	0.795473	0.550937
C39	C	-0.091911	0.254272	-0.000156
C40	C	0.408089	0.754272	0.499844
N41	N	-0.132174	0.284861	-0.051250
N42	N	0.367826	0.784861	0.448750
N43	N	-0.133199	0.354045	-0.051241
N44	N	0.366801	0.854045	0.448759
C45	C	-0.093993	0.394716	-0.000140
C46	C	0.406007	0.894716	0.499860
C47	C	-0.090207	0.138926	-0.068799
C48	C	0.409793	0.638926	0.431201
C49	C	-0.089138	0.066101	-0.068805
C50	C	0.410862	0.566101	0.431195
C51	C	-0.089131	0.066055	0.068457
C52	C	0.410869	0.566055	0.568457
C53	C	-0.090207	0.138879	0.068461
C54	C	0.409793	0.638879	0.568461
C55	C	-0.090742	0.175310	-0.000169
C56	C	0.409258	0.675310	0.499831
C57	C	-0.220626	0.819007	-0.000208
C58	C	0.279374	1.319007	0.499792
C59	C	-0.298131	0.820148	-0.000245
C60	C	0.201869	1.320148	0.499755
C61	C	-0.343060	0.757056	-0.000223
C62	C	0.156940	1.257056	0.499777
C63	C	-0.415884	0.758128	-0.000206
C64	C	0.084116	1.258128	0.499794
C65	C	-0.443775	0.822295	-0.000195
C66	C	0.056225	1.322295	0.499805
C67	C	-0.398835	0.885395	-0.000221
C68	C	0.101165	1.385395	0.499779
C69	C	-0.326013	0.884321	-0.000246
C70	C	0.173987	1.384321	0.499754
N71	N	-0.551737	0.871336	0.042693
N72	N	-0.051737	1.371336	0.542693
N73	N	-0.620915	0.872351	0.042718
N74	N	-0.120915	1.372351	0.542718
C75	C	-0.663183	0.825533	-0.000123
C76	C	-0.163183	1.325533	0.499877
N77	N	-0.633660	0.777650	-0.042980
N78	N	-0.133660	1.277650	0.457020
N79	N	-0.564476	0.776633	-0.043002
N80	N	-0.064476	1.276633	0.456998
C81	C	-0.522737	0.823466	-0.000169
C82	C	-0.022737	1.323466	0.499831
C83	C	-0.787077	0.763599	-0.000084
C84	C	-0.287077	1.263599	0.499916
C85	C	-0.859902	0.764673	-0.000071
C86	C	-0.359902	1.264673	0.499929
C87	C	-0.842851	0.891942	-0.000080
C88	C	-0.342851	1.391942	0.499920
C89	C	-0.770028	0.890866	-0.000099
C90	C	-0.270028	1.390866	0.499901
C91	C	-0.742146	0.826693	-0.000098
C92	C	-0.242146	1.326693	0.499902
C93	C	0.034708	0.829982	-0.000093
C94	C	0.534708	1.329982	0.499907
C95	C	0.112213	0.828841	-0.000062
C96	C	0.612213	1.328841	0.499938
C97	C	-0.087460	0.952163	-0.000166
C98	C	0.412540	1.452163	0.499834
C99	C	-0.088594	1.029668	-0.000181
C100	C	0.411406	1.529668	0.499819
N101	N	-0.092951	0.824473	0.179013
N102	N	0.407049	1.324473	0.679013
N103	N	-0.092962	0.824522	-0.179313
N104	N	0.407038	1.324522	0.320687
C105	C	-0.045358	0.872100	0.218639
C106	C	0.454642	1.372100	0.718639
C107	C	-0.045355	0.872104	0.297886
C108	C	0.454645	1.372104	0.797886
C109	C	-0.092956	0.824488	0.337505
C110	C	0.407044	1.324488	0.837505
C111	C	-0.140552	0.776852	0.297870
C112	C	0.359448	1.276852	0.797870
C113	C	-0.140549	0.776844	0.218624
C114	C	0.359451	1.276844	0.718624
N115	N	-0.154764	0.815411	0.461896
N116	N	0.345236	1.315411	0.961896
N117	N	-0.154764	0.815422	0.537177
N118	N	0.345236	1.315422	1.037177
C119	C	-0.092966	0.824506	0.576269
C120	C	0.407034	1.324506	1.076269
N121	N	-0.031164	0.833592	0.537237
N122	N	0.468836	1.333592	1.037237
N123	N	-0.031165	0.833584	0.461950
N124	N	0.468835	1.333584	0.961950
C125	C	-0.092964	0.824490	0.423434
C126	C	0.407036	1.324490	0.923434
C127	C	-0.045366	0.872140	0.701824
C128	C	0.454634	1.372140	1.201824
C129	C	-0.045361	0.872139	0.781073
C130	C	0.454639	1.372139	1.281073
C131	C	-0.140564	0.776890	0.781056
C132	C	0.359436	1.276890	1.281056
C133	C	-0.140562	0.776888	0.701808
C134	C	0.359438	1.276888	1.201808
C135	C	-0.092964	0.824516	0.662197
C136	C	0.407036	1.324516	1.162197
H137	H	-0.095267	0.480396	0.124371
H138	H	0.404733	0.980396	0.624371
Cl139	Cl	-0.095028	0.464369	-0.155045
Cl140	Cl	0.404972	0.964369	0.344955
H141	H	-0.896483	0.713294	-0.000059
H142	H	-0.396483	1.213294	0.499941
Cl143	Cl	-0.752021	0.682926	-0.000086
Cl144	Cl	-0.252021	1.182926	0.499914
Cl145	Cl	-0.097469	0.628629	0.154787
Cl146	Cl	0.402531	1.128629	0.654787
H147	H	-0.090650	0.168589	-0.124682
H148	H	0.409350	0.668589	0.375318
H149	H	-0.733445	0.942242	-0.000112
H150	H	-0.233445	1.442242	0.499888
H151	H	-0.006599	0.910880	0.186390
H152	H	0.493401	1.410880	0.686390
Cl153	Cl	-0.088453	0.020254	0.154727
Cl154	Cl	0.411547	0.520254	0.654727
Cl155	Cl	-0.200390	0.716988	0.347675
Cl156	Cl	0.299610	1.216988	0.847675
H157	H	-0.088702	0.036479	-0.124692
H158	H	0.411298	0.536479	0.375308
H159	H	-0.179305	0.738060	0.186360
H160	H	0.320695	1.238060	0.686360
H161	H	-0.179319	0.738108	0.669543
H162	H	0.320681	1.238108	1.169543
Cl163	Cl	-0.090884	0.184619	0.154742
Cl164	Cl	0.409116	0.684619	0.654742
Cl165	Cl	-0.877907	0.972610	-0.000074
Cl166	Cl	-0.377907	1.472610	0.499926
H167	H	-0.179319	0.738118	0.813313
H168	H	0.320681	1.238118	1.313313
H169	H	-0.320363	0.704801	-0.000228
H170	H	0.179637	1.204801	0.499772
Cl171	Cl	0.014480	0.931984	0.347710
Cl172	Cl	0.514480	1.431984	0.847710
Cl173	Cl	-0.472377	0.678807	-0.000175
Cl174	Cl	0.027623	1.178807	0.499825
H175	H	-0.421549	0.937640	-0.000227
H176	H	0.078451	1.437640	0.499773
Cl177	Cl	0.014478	0.932014	0.830891
Cl178	Cl	0.514478	1.432014	1.330891
Cl179	Cl	-0.097458	0.628735	-0.155032
Cl180	Cl	0.402542	1.128735	0.344968
Cl181	Cl	-0.269527	0.963643	-0.000272
Cl182	Cl	0.230473	1.463643	0.499728
H183	H	-0.006606	0.910920	0.669572
H184	H	0.493394	1.410920	1.169572
