data_functionalizedCrystal
_audit_creation_method	'MofGen! by Chris Wilmer'
_symmetry_space_group_name_H-M	'P1'
_symmetry_Int_Tables_number	1
_symmetry_cell_setting	triclinic
loop_
_symmetry_equiv_pos_as_xyz
  x,y,z
_cell_length_a	14.519709
_cell_length_b	14.519731
_cell_length_c	12.996460
_cell_angle_alpha	90.005673
_cell_angle_beta	89.992910
_cell_angle_gamma	96.315501
loop_
_atom_site_label
_atom_site_type_symbol
_atom_site_fract_x
_atom_site_fract_y
_atom_site_fract_z
O1	O	0.120986	-1.223857	-0.085571
O2	O	0.454320	-0.890523	0.247762
O3	O	0.787653	-0.557190	0.581095
O4	O	0.135203	-0.955382	-0.085573
O5	O	0.468536	-0.622049	0.247760
O6	O	0.801869	-0.288716	0.581094
O7	O	-0.006143	-1.096738	-0.085563
O8	O	0.327190	-0.763404	0.247770
O9	O	0.660523	-0.430071	0.581104
O10	O	0.262332	-1.082501	-0.085582
O11	O	0.595666	-0.749168	0.247752
O12	O	0.928999	-0.415835	0.581085
O13	O	-0.006151	-1.096723	0.085571
O14	O	0.327182	-0.763390	0.418904
O15	O	0.660515	-0.430056	0.752238
O16	O	0.135195	-0.955368	0.085561
O17	O	0.468528	-0.622034	0.418894
O18	O	0.801861	-0.288701	0.752227
O19	O	0.120979	-1.223842	0.085563
O20	O	0.454312	-0.890509	0.418896
O21	O	0.787645	-0.557175	0.752229
Cu22	Cu	0.128086	-1.089603	0.101187
Cu23	Cu	0.461419	-0.756270	0.434521
Cu24	Cu	0.794753	-0.422937	0.767854
Cu25	Cu	0.128095	-1.089621	-0.101198
Cu26	Cu	0.461429	-0.756288	0.232135
Cu27	Cu	0.794762	-0.422954	0.565469
O28	O	0.262325	-1.082487	0.085552
O29	O	0.595658	-0.749153	0.418886
O30	O	0.928991	-0.415820	0.752219
C31	C	-0.040507	-1.096067	0.000004
C32	C	0.292826	-0.762734	0.333337
C33	C	0.626160	-0.429400	0.666671
C34	C	-0.142889	-1.094079	0.000005
C35	C	0.190445	-0.760745	0.333338
C36	C	0.523778	-0.427412	0.666671
C37	C	0.134532	-0.921016	-0.000006
C38	C	0.467866	-0.587682	0.333327
C39	C	0.801199	-0.254349	0.666660
C40	C	0.132536	-0.818635	-0.000007
C41	C	0.465870	-0.485302	0.333327
C42	C	0.799203	-0.151969	0.666660
C43	C	-0.517785	-1.086759	-0.000022
C44	C	-0.184452	-0.753426	0.333311
C45	C	0.148882	-0.420093	0.666645
C46	C	-0.413477	-1.088792	-0.000014
C47	C	-0.080143	-0.755459	0.333319
C48	C	0.253190	-0.422125	0.666652
C49	C	-0.330340	-1.090419	-0.000008
C50	C	0.002993	-0.757085	0.333326
C51	C	0.336327	-0.423752	0.666659
C52	C	-0.226025	-1.092452	-0.000002
C53	C	0.107308	-0.759118	0.333331
C54	C	0.440641	-0.425785	0.666665
C55	C	0.121649	-1.258209	-0.000007
C56	C	0.454982	-0.924875	0.333327
C57	C	0.788315	-0.591542	0.666660
C58	C	0.123645	-1.360589	-0.000013
C59	C	0.456978	-1.027256	0.333320
C60	C	0.790311	-0.693922	0.666654
C61	C	0.296688	-1.083157	-0.000017
C62	C	0.630022	-0.749824	0.333316
C63	C	0.963355	-0.416491	0.666650
C64	C	0.399070	-1.085146	-0.000024
C65	C	0.732403	-0.751812	0.333309
C66	C	1.065736	-0.418479	0.666642
C67	C	0.130915	-0.735491	-0.000011
C68	C	0.464248	-0.402158	0.333322
C69	C	0.797581	-0.068825	0.666656
C70	C	0.128888	-0.631182	-0.000011
C71	C	0.462221	-0.297849	0.333322
C72	C	0.795555	0.035484	0.666656
C73	C	0.127280	-0.548043	-0.000011
C74	C	0.460613	-0.214710	0.333322
C75	C	0.793946	0.118623	0.666656
C76	C	0.125253	-0.443728	-0.000013
C77	C	0.458586	-0.110395	0.333320
C78	C	0.791920	0.222939	0.666654
N79	N	0.128079	-1.089598	0.243535
N80	N	0.461412	-0.756265	0.576868
N81	N	0.794746	-0.422931	0.910201
N82	N	0.128095	-1.089634	-0.243545
N83	N	0.461428	-0.756300	0.089788
N84	N	0.794762	-0.422967	0.423121
C85	C	0.128096	-1.089620	0.663349
C86	C	0.461429	-0.756286	0.996682
C87	C	0.794763	-0.422953	1.330016
C88	C	0.128094	-1.089611	0.546544
C89	C	0.461428	-0.756277	0.879877
C90	C	0.794761	-0.422944	1.213210
C91	C	0.128088	-1.089609	0.453445
C92	C	0.461422	-0.756276	0.786779
C93	C	0.794755	-0.422943	1.120112
C94	C	0.128085	-1.089600	0.336633
C95	C	0.461418	-0.756266	0.669966
C96	C	0.794752	-0.422933	1.003300
