data_functionalizedCrystal
_audit_creation_method	'MofGen! by Chris Wilmer'
_symmetry_space_group_name_H-M	'P1'
_symmetry_Int_Tables_number	1
_symmetry_cell_setting	triclinic
loop_
_symmetry_equiv_pos_as_xyz
  x,y,z
_cell_length_a	14.519709
_cell_length_b	8.559648
_cell_length_c	7.088929
_cell_angle_alpha	95.334324
_cell_angle_beta	96.220807
_cell_angle_gamma	103.270597
loop_
_atom_site_label
_atom_site_type_symbol
_atom_site_fract_x
_atom_site_fract_y
_atom_site_fract_z
O1	O	1.198228	-0.225777	-0.158687
O2	O	0.927978	-0.250444	-0.158739
O3	O	1.086909	-0.005581	-0.158755
O4	O	1.039297	-0.470640	-0.158670
O5	O	1.108154	0.027217	0.159218
O6	O	0.949222	-0.217646	0.159234
O7	O	1.219473	-0.192980	0.159286
Cu8	Cu	1.086288	-0.202318	0.188294
Cu9	Cu	1.061163	-0.241105	-0.187746
O10	O	1.060542	-0.437843	0.159303
C11	C	0.904322	-0.232897	0.000240
C12	C	0.802187	-0.229455	0.000217
C13	C	1.101139	0.070336	0.000216
C14	C	1.111877	0.247680	0.000170
N15	N	1.103966	-0.175037	0.452780
C16	C	0.428207	-0.216767	0.000302
C17	C	0.532260	-0.220290	0.000277
C18	C	0.615193	-0.223111	0.000257
C19	C	0.719254	-0.226635	0.000237
C20	C	1.243128	-0.210527	0.000303
C21	C	1.345263	-0.213970	0.000314
C22	C	1.046308	0.486235	0.000274
C23	C	1.035558	0.308872	0.000148
N24	N	1.043493	-0.268374	-0.452232
H25	H	0.962001	0.225587	0.000156
H26	H	1.185440	0.330978	0.000183
H27	H	0.980821	-0.365099	0.466128
H28	H	1.166647	-0.078317	0.534429
