data_functionalizedCrystal
_audit_creation_method	'MofGen! by Chris Wilmer'
_symmetry_space_group_name_H-M	'P1'
_symmetry_Int_Tables_number	1
_symmetry_cell_setting	triclinic
loop_
_symmetry_equiv_pos_as_xyz
  x,y,z
_cell_length_a	16.625547
_cell_length_b	12.645330
_cell_length_c	16.625539
_cell_angle_alpha	89.975479
_cell_angle_beta	89.978691
_cell_angle_gamma	90.012583
loop_
_atom_site_label
_atom_site_type_symbol
_atom_site_fract_x
_atom_site_fract_y
_atom_site_fract_z
Zn1	Zn	1.232708	-0.422059	-0.456012
Zn2	Zn	1.732708	0.077941	0.043988
Zn3	Zn	1.232642	-0.599339	-0.321183
Zn4	Zn	1.732642	-0.099339	0.178817
Zn5	Zn	1.097878	-0.422090	-0.321182
Zn6	Zn	1.597878	0.077910	0.178818
Zn7	Zn	1.097863	-0.599280	-0.455963
Zn8	Zn	1.597863	-0.099280	0.044037
O9	O	1.165273	-0.510692	-0.388585
O10	O	1.665273	-0.010692	0.111415
O11	O	1.345531	-0.445587	-0.438147
O12	O	1.845531	0.054413	0.061853
O13	O	1.214744	-0.575864	-0.208351
O14	O	1.714744	-0.075864	0.291649
O15	O	1.115797	-0.273738	-0.339087
O16	O	1.615797	0.226262	0.160913
O17	O	1.345483	-0.575834	-0.339089
O18	O	1.845483	-0.075834	0.160911
O19	O	1.214856	-0.273716	-0.438146
O20	O	1.714856	0.226284	0.061854
O21	O	1.115733	-0.445640	-0.208350
O22	O	1.615733	0.054360	0.291650
O23	O	0.985043	-0.445583	-0.339040
O24	O	1.485043	0.054417	0.160960
O25	O	1.115772	-0.575734	-0.568802
O26	O	1.615772	-0.075734	-0.068802
O27	O	0.985032	-0.575764	-0.438063
O28	O	1.485032	-0.075764	0.061937
O29	O	1.214841	-0.445530	-0.568838
O30	O	1.714841	0.054470	-0.068838
O31	O	1.214730	-0.747678	-0.339042
O32	O	1.714730	-0.247678	0.160958
O33	O	1.115708	-0.747635	-0.438065
O34	O	1.615708	-0.247635	0.061935
C35	C	0.955782	-0.510671	-0.388547
C36	C	1.455782	-0.010671	0.111453
C37	C	0.866161	-0.510688	-0.388550
C38	C	1.366161	-0.010688	0.111450
C39	C	0.793378	-0.510690	-0.388560
C40	C	1.293378	-0.010690	0.111440
C41	C	0.702070	-0.510696	-0.388580
C42	C	1.202070	-0.010696	0.111420
C43	C	0.629293	-0.510705	-0.388600
C44	C	1.129293	-0.010705	0.111400
C45	C	0.537979	-0.510713	-0.388620
C46	C	1.037979	-0.010713	0.111380
C47	C	1.165232	-0.786122	-0.388566
C48	C	1.665232	-0.286122	0.111434
C49	C	1.165289	-0.903952	-0.388585
C50	C	1.665289	-0.403952	0.111415
C51	C	1.227483	-1.071499	-0.326163
C52	C	1.727483	-0.571499	0.173837
C53	C	1.227686	-0.948938	-0.326316
C54	C	1.727686	-0.448938	0.173684
C55	C	1.188327	-0.948339	-0.473579
C56	C	1.688327	-0.448339	0.026421
C57	C	1.188820	-1.070937	-0.473248
C58	C	1.688820	-0.570937	0.026752
C59	C	1.080032	-1.071278	-0.366849
C60	C	1.580032	-0.571278	0.133151
C61	C	1.080440	-0.948673	-0.364943
C62	C	1.580440	-0.448673	0.135057
C63	C	1.375581	-0.510713	-0.388624
C64	C	1.875581	-0.010713	0.111376
C65	C	1.465203	-0.510722	-0.388640
C66	C	1.965203	-0.010722	0.111360
C67	C	1.165312	-0.510622	-0.598894
C68	C	1.665312	-0.010622	-0.098894
C69	C	1.165329	-0.510592	-0.688515
C70	C	1.665329	-0.010592	-0.188515
C71	C	1.165335	-0.234187	-0.388622
C72	C	1.665335	0.265813	0.111378
C73	C	1.165362	-0.116357	-0.388638
C74	C	1.665362	0.383643	0.111362
C75	C	1.165342	-0.510569	-0.761298
C76	C	1.665342	-0.010569	-0.261298
C77	C	1.165361	-0.510529	-0.852606
C78	C	1.665361	-0.010529	-0.352606
C79	C	1.165380	-0.510492	-0.925383
C80	C	1.665380	-0.010492	-0.425383
C81	C	1.165400	-0.510454	-1.016697
C82	C	1.665400	-0.010454	-0.516697
C83	C	1.165280	-0.510685	-0.179094
C84	C	1.665280	-0.010685	0.320906
C85	C	1.165419	-0.510416	-0.089474
C86	C	1.665419	-0.010416	0.410526
H87	H	1.213272	-0.918932	-0.263295
H88	H	1.713272	-0.418932	0.236705
H89	H	1.063069	-0.919673	-0.302395
H90	H	1.563069	-0.419673	0.197605
Cl91	Cl	1.205516	-1.117126	-0.228575
Cl92	Cl	1.705516	-0.617126	0.271425
Cl93	Cl	1.324540	-1.118938	-0.348164
Cl94	Cl	1.824540	-0.618938	0.151836
H95	H	1.031659	-0.918061	-0.407109
H96	H	1.531659	-0.418061	0.092891
Cl97	Cl	1.325263	-0.903528	-0.348573
Cl98	Cl	1.825263	-0.403528	0.151427
Cl99	Cl	1.285118	-1.114965	-0.501738
Cl100	Cl	1.785118	-0.614965	-0.001738
H101	H	1.059080	-1.102283	-0.305951
H102	H	1.559080	-0.602283	0.194049
H103	H	1.145555	-1.100607	-0.521400
H104	H	1.645555	-0.600607	-0.021400
Cl105	Cl	1.120592	-0.903360	-0.547374
Cl106	Cl	1.620592	-0.403360	-0.047374
H107	H	1.249994	-0.917552	-0.492342
H108	H	1.749994	-0.417552	0.007658
Cl109	Cl	1.008569	-1.116070	-0.437098
Cl110	Cl	1.508569	-0.616070	0.062902
