data_functionalizedCrystal
_audit_creation_method	'MofGen! by Chris Wilmer'
_symmetry_space_group_name_H-M	'P1'
_symmetry_Int_Tables_number	1
_symmetry_cell_setting	triclinic
loop_
_symmetry_equiv_pos_as_xyz
  x,y,z
_cell_length_a	10.489741
_cell_length_b	10.654550
_cell_length_c	9.130313
_cell_angle_alpha	90.003780
_cell_angle_beta	89.999004
_cell_angle_gamma	95.487962
loop_
_atom_site_label
_atom_site_type_symbol
_atom_site_fract_x
_atom_site_fract_y
_atom_site_fract_z
O1	O	0.179156	-1.667918	-0.121919
O2	O	0.196226	-1.302447	-0.121895
O3	O	0.002089	-1.493499	-0.121899
O4	O	0.373293	-1.476867	-0.121915
O5	O	0.002094	-1.493497	0.121700
O6	O	0.196231	-1.302445	0.121703
O7	O	0.179161	-1.667916	0.121680
Cu8	Cu	0.187697	-1.485180	0.143934
Cu9	Cu	0.187690	-1.485183	-0.144150
O10	O	0.373298	-1.476864	0.121683
C11	C	0.194975	-1.255648	-0.000093
C12	C	0.191225	-1.116203	-0.000084
C13	C	-0.045439	-1.492241	-0.000100
C14	C	-0.187067	-1.488483	-0.000103
N15	N	0.187700	-1.485187	0.346557
C16	C	-0.255148	-1.366923	-0.000106
C17	C	-0.347296	-1.424346	0.119997
C18	C	-0.347276	-1.424377	-0.120172
C19	C	-0.277349	-1.545956	0.120099
C20	C	-0.277320	-1.545970	-0.120178
C21	C	-0.369440	-1.603481	-0.000045
C22	C	0.420826	-1.478122	-0.000118
C23	C	0.562454	-1.481880	-0.000126
C24	C	0.180412	-1.714715	-0.000126
C25	C	0.184162	-1.854160	-0.000145
C26	C	0.305530	-1.036771	-0.000110
C27	C	0.301999	-0.905748	-0.000135
C28	C	0.069849	-0.933603	-0.000114
C29	C	0.073381	-1.064623	-0.000078
C30	C	0.423374	-1.088351	-0.000116
C31	C	0.537688	-1.008917	-0.000144
C32	C	0.534157	-0.877895	-0.000169
C33	C	0.416312	-0.826306	-0.000166
N34	N	0.187677	-1.485186	-0.346772
C35	C	0.101766	-1.569807	0.423207
C36	C	0.101751	-1.569803	0.576544
C37	C	0.273615	-1.400557	0.576567
C38	C	0.273623	-1.400555	0.423232
C39	C	0.015843	-1.654439	0.346531
C40	C	-0.070097	-1.739066	0.423182
C41	C	-0.070112	-1.739063	0.576519
C42	C	0.015812	-1.654432	0.653205
H43	H	-0.205449	-1.266977	0.000022
H44	H	-0.026095	-0.891588	-0.000136
H45	H	0.015850	-1.654452	0.221677
H46	H	-0.019696	-1.129299	-0.000061
H47	H	-0.246302	-1.597363	-0.221728
H48	H	0.627237	-0.813223	-0.000177
H49	H	-0.140062	-1.807963	0.360736
H50	H	-0.140096	-1.807961	0.638926
H51	H	0.015784	-1.654428	0.778062
H52	H	0.413446	-0.719617	-0.000164
H53	H	-0.246540	-1.597345	0.221751
H54	H	0.343573	-1.331655	0.639014
H55	H	-0.378281	-1.372910	0.221542
H56	H	-0.418912	-1.703518	0.000015
H57	H	-0.378217	-1.372927	-0.221719
H58	H	0.343598	-1.331649	0.360823
H59	H	0.633633	-1.050930	-0.000134
H60	H	0.426262	-1.195034	-0.000102
