data_functionalizedCrystal
_audit_creation_method	'MofGen! by Chris Wilmer'
_symmetry_space_group_name_H-M	'P1'
_symmetry_Int_Tables_number	1
_symmetry_cell_setting	triclinic
loop_
_symmetry_equiv_pos_as_xyz
  x,y,z
_cell_length_a	14.971491
_cell_length_b	15.995350
_cell_length_c	14.048226
_cell_angle_alpha	89.995798
_cell_angle_beta	89.991693
_cell_angle_gamma	83.554305
loop_
_atom_site_label
_atom_site_type_symbol
_atom_site_fract_x
_atom_site_fract_y
_atom_site_fract_z
O1	O	1.186820	0.109137	-0.079197
O2	O	0.926405	0.122199	-0.079189
O3	O	1.063731	-0.006212	-0.079192
O4	O	1.049494	0.237548	-0.079193
O5	O	1.063714	-0.006220	0.079129
O6	O	0.926389	0.122192	0.079132
O7	O	1.186803	0.109129	0.079125
Zn8	Zn	1.056593	0.115659	0.104266
Zn9	Zn	1.056615	0.115669	-0.104330
O10	O	1.049477	0.237541	0.079128
C11	C	0.893073	0.121611	-0.000027
C12	C	0.793778	0.119858	-0.000025
C13	C	0.366090	0.112298	-0.086348
C14	C	0.459389	0.113942	-0.086344
C15	C	0.506024	0.114766	-0.000040
C16	C	0.459358	0.113936	0.086267
C17	C	0.366062	0.112286	0.086262
C18	C	0.653816	0.117379	0.086270
C19	C	0.747118	0.119031	0.086275
C20	C	0.747142	0.119035	-0.086336
C21	C	0.653846	0.117384	-0.086341
C22	C	0.607186	0.116557	-0.000034
C23	C	1.063134	-0.037411	-0.000033
C24	C	1.061369	-0.130364	-0.000039
C25	C	1.055032	-0.468118	-0.000035
C26	C	0.957231	-0.420783	-0.000387
C27	C	0.958996	-0.324091	-0.000031
C28	C	1.058176	-0.300554	-0.000037
C29	C	1.106405	-0.341587	0.090369
C30	C	1.103948	-0.438225	0.090445
C31	C	1.105987	-0.438572	-0.089596
C32	C	1.105964	-0.341627	-0.090791
C33	C	1.059957	-0.205855	-0.000035
C34	C	1.053254	-0.562817	-0.000031
C35	C	1.220135	0.109718	-0.000039
C36	C	1.319430	0.111471	-0.000048
C37	C	1.050074	0.268740	-0.000033
C38	C	1.051839	0.361692	-0.000034
N39	N	1.056585	0.115652	0.246626
N40	N	1.056630	0.115670	-0.246690
C41	C	1.117412	0.058815	0.296443
C42	C	1.117418	0.058814	0.396101
C43	C	1.056601	0.115656	0.445940
C44	C	0.995767	0.172495	0.396116
C45	C	0.995757	0.172491	0.296460
C46	C	0.995793	0.172502	0.603830
C47	C	0.995803	0.172507	0.703493
C48	C	1.117453	0.058825	0.703471
C49	C	1.117444	0.058820	0.603815
C50	C	1.056611	0.115662	0.553998
H51	H	0.328072	0.111621	0.156536
N52	N	1.063643	-0.465817	-0.180363
H53	H	1.042046	-0.414620	-0.219636
H54	H	1.109552	-0.503507	-0.217844
N55	N	0.930146	0.233793	0.242731
H56	H	0.940441	0.293239	0.260059
H57	H	0.939396	0.225092	0.172054
N58	N	1.202918	-0.322770	0.094831
H59	H	1.232606	-0.349751	0.153499
H60	H	1.235975	-0.346054	0.036225
N61	N	1.183082	-0.002468	0.757198
H62	H	1.221619	-0.038466	0.710503
H63	H	1.222611	0.029678	0.798518
H64	H	0.921084	-0.295705	-0.064837
N65	N	0.930177	0.233808	0.449869
H66	H	0.891641	0.269813	0.403186
H67	H	0.890642	0.201694	0.491236
H68	H	0.615877	0.116720	-0.156617
N69	N	1.201771	-0.321187	-0.098029
H70	H	1.244025	-0.375045	-0.097227
H71	H	1.209782	-0.289951	-0.159373
N72	N	0.908437	-0.287227	0.085968
H73	H	0.856386	-0.245839	0.064573
H74	H	0.884977	-0.333849	0.123758
H75	H	1.178096	-0.470260	-0.090209
N76	N	1.057346	-0.462528	0.179965
H77	H	1.038588	-0.410488	0.219005
H78	H	1.002450	-0.490536	0.162372
N79	N	0.509659	0.114828	0.179350
H80	H	0.486160	0.166405	0.217075
H81	H	0.500657	0.062642	0.217009
N82	N	1.183038	-0.002481	0.550052
H83	H	1.246519	0.007262	0.567374
H84	H	1.172667	-0.061899	0.567423
N85	N	0.797461	0.119932	-0.179426
H86	H	0.863640	0.121099	-0.166331
H87	H	0.788410	0.067781	-0.217117
H88	H	1.166940	0.012532	0.255870
N89	N	0.930205	0.233801	0.757262
H90	H	0.964386	0.270930	0.798593
H91	H	0.891672	0.269751	0.710531
H92	H	0.946253	0.218785	0.563273
N93	N	0.905450	-0.445377	-0.086259
H94	H	0.944882	-0.487442	-0.125768
H95	H	0.850460	-0.471371	-0.064601
H96	H	0.785086	0.119706	0.156552
N97	N	0.603491	0.116480	0.179358
H98	H	0.647273	0.116661	0.234028
H99	H	0.557961	0.167964	0.183406
H100	H	0.497376	0.114610	-0.156618
N101	N	0.315792	0.111415	-0.179434
H102	H	0.359512	0.112186	-0.234103
H103	H	0.284336	0.058865	-0.183192
N104	N	0.905664	-0.446781	0.085013
H105	H	0.902147	-0.509439	0.082789
H106	H	0.937417	-0.432184	0.145180
N107	N	1.199054	-0.480853	0.095878
H108	H	1.242387	-0.436842	0.098219
H109	H	1.206206	-0.516733	0.155136
N110	N	1.183054	-0.002459	0.449833
H111	H	1.221594	-0.038455	0.403138
H112	H	1.222579	0.029695	0.491147
N113	N	1.062020	-0.304033	0.179488
H114	H	0.996794	-0.314680	0.180389
H115	H	1.093593	-0.330851	0.237231
N116	N	1.059316	-0.305523	-0.179389
H117	H	1.007446	-0.262736	-0.160828
H118	H	1.103358	-0.277477	-0.219513
