data_functionalizedCrystal
_audit_creation_method	'MofGen! by Chris Wilmer'
_symmetry_space_group_name_H-M	'P1'
_symmetry_Int_Tables_number	1
_symmetry_cell_setting	triclinic
loop_
_symmetry_equiv_pos_as_xyz
  x,y,z
_cell_length_a	18.101395
_cell_length_b	16.120530
_cell_length_c	18.101390
_cell_angle_alpha	92.916565
_cell_angle_beta	90.034180
_cell_angle_gamma	87.127367
loop_
_atom_site_label
_atom_site_type_symbol
_atom_site_fract_x
_atom_site_fract_y
_atom_site_fract_z
Zn1	Zn	-0.352281	1.274485	0.476062
Zn2	Zn	-0.102281	1.524485	0.726062
Zn3	Zn	0.147719	1.774485	0.976062
Zn4	Zn	0.397719	2.024485	1.226062
Zn5	Zn	-0.476132	1.274365	0.352212
Zn6	Zn	-0.226132	1.524365	0.602212
Zn7	Zn	0.023868	1.774365	0.852212
Zn8	Zn	0.273868	2.024365	1.102212
Zn9	Zn	-0.346027	1.135070	0.345963
Zn10	Zn	-0.096027	1.385070	0.595963
Zn11	Zn	0.153973	1.635070	0.845963
Zn12	Zn	0.403973	1.885070	1.095963
Zn13	Zn	-0.469795	1.135013	0.469743
Zn14	Zn	-0.219795	1.385013	0.719743
Zn15	Zn	0.030205	1.635013	0.969743
Zn16	Zn	0.280205	1.885013	1.219743
O17	O	-0.411059	1.204733	0.410995
O18	O	-0.161059	1.454733	0.660995
O19	O	0.088941	1.704733	0.910995
O20	O	0.338941	1.954733	1.160995
O21	O	-0.373980	1.391134	0.464893
O22	O	-0.123980	1.641134	0.714893
O23	O	0.126020	1.891134	0.964893
O24	O	0.376020	2.141134	1.214893
O25	O	-0.458909	1.255860	0.247749
O26	O	-0.208909	1.505860	0.497749
O27	O	0.041091	1.755860	0.747749
O28	O	0.291091	2.005860	0.997749
O29	O	-0.243227	1.153637	0.363249
O30	O	0.006773	1.403637	0.613249
O31	O	0.256773	1.653637	0.863249
O32	O	0.506773	1.903637	1.113249
O33	O	-0.464973	1.391045	0.373901
O34	O	-0.214973	1.641045	0.623901
O35	O	0.035027	1.891045	0.873901
O36	O	0.285027	2.141045	1.123901
O37	O	-0.247822	1.256065	0.458833
O38	O	0.002178	1.506065	0.708833
O39	O	0.252178	1.756065	0.958833
O40	O	0.502178	2.006065	1.208833
O41	O	-0.363321	1.153521	0.243158
O42	O	-0.113321	1.403521	0.493158
O43	O	0.136679	1.653521	0.743158
O44	O	0.386679	1.903521	0.993158
O45	O	-0.357176	1.018397	0.357123
O46	O	-0.107176	1.268397	0.607123
O47	O	0.142824	1.518397	0.857123
O48	O	0.392824	1.768397	1.107123
O49	O	-0.454171	1.153541	0.574216
O50	O	-0.204171	1.403541	0.824216
O51	O	0.045829	1.653541	1.074216
O52	O	0.295829	1.903541	1.324216
O53	O	-0.448107	1.018356	0.448064
O54	O	-0.198107	1.268356	0.698064
O55	O	0.051893	1.518356	0.948064
O56	O	0.301893	1.768356	1.198064
O57	O	-0.367834	1.256010	0.578858
O58	O	-0.117834	1.506010	0.828858
O59	O	0.132166	1.756010	1.078858
O60	O	0.382166	2.006010	1.328858
O61	O	-0.578921	1.255805	0.367774
O62	O	-0.328921	1.505805	0.617774
O63	O	-0.078921	1.755805	0.867774
O64	O	0.171079	2.005805	1.117774
O65	O	-0.574265	1.153424	0.454124
O66	O	-0.324265	1.403424	0.704124
O67	O	-0.074265	1.653424	0.954124
O68	O	0.175735	1.903424	1.204124
C69	C	-0.401276	0.988127	0.401230
C70	C	-0.151276	1.238127	0.651230
C71	C	0.098724	1.488127	0.901230
C72	C	0.348724	1.738127	1.151230
C73	C	-0.397108	0.895461	0.397070
C74	C	-0.147108	1.145461	0.647070
C75	C	0.102892	1.395461	0.897070
C76	C	0.352892	1.645461	1.147070
C77	C	-0.389482	0.725801	0.389481
C78	C	-0.139482	0.975801	0.639481
C79	C	0.110518	1.225801	0.889481
C80	C	0.360518	1.475801	1.139481
C81	C	-0.432690	0.684505	0.432563
C82	C	-0.182690	0.934505	0.682563
C83	C	0.067310	1.184505	0.932563
C84	C	0.317310	1.434505	1.182563
C85	C	-0.428447	0.590100	0.428341
C86	C	-0.178447	0.840100	0.678341
C87	C	0.071553	1.090100	0.928341
C88	C	0.321553	1.340100	1.178341
C89	C	-0.393724	0.820214	0.393703
C90	C	-0.143724	1.070214	0.643703
C91	C	0.106276	1.320214	0.893703
C92	C	0.356276	1.570214	1.143703
C93	C	-0.603464	1.204618	0.410958
C94	C	-0.353464	1.454618	0.660958
C95	C	-0.103464	1.704618	0.910958
C96	C	0.146536	1.954618	1.160958
C97	C	-0.685780	1.204645	0.410971
C98	C	-0.435780	1.454645	0.660971
C99	C	-0.185780	1.704645	0.910971
C100	C	0.064220	1.954645	1.160971
C101	C	-0.836492	1.204741	0.411005
C102	C	-0.586492	1.454741	0.661005
C103	C	-0.336492	1.704741	0.911005
C104	C	-0.086492	1.954741	1.161005
C105	C	-0.864946	1.140293	0.465288
C106	C	-0.614946	1.390293	0.715288
C107	C	-0.364946	1.640293	0.965288
C108	C	-0.114946	1.890293	1.215288
C109	C	-0.950575	1.140536	0.465540
C110	C	-0.700575	1.390536	0.715540
C111	C	-0.450575	1.640536	0.965540
C112	C	-0.200575	1.890536	1.215540
C113	C	-0.984879	1.204834	0.411038
C114	C	-0.734879	1.454834	0.661038
C115	C	-0.484879	1.704834	0.911038
C116	C	-0.234879	1.954834	1.161038
C117	C	-0.957658	1.292727	0.435988
C118	C	-0.707658	1.542727	0.685988
C119	C	-0.457658	1.792727	0.935988
C120	C	-0.207658	2.042727	1.185988
C121	C	-0.871994	1.292300	0.436367
C122	C	-0.621994	1.542300	0.686367
C123	C	-0.371994	1.792300	0.936367
C124	C	-0.121994	2.042300	1.186367
C125	C	-0.867114	1.182085	0.331670
C126	C	-0.617114	1.432085	0.581670
C127	C	-0.367114	1.682085	0.831670
C128	C	-0.117114	1.932085	1.081670
C129	C	-0.952681	1.180200	0.332019
C130	C	-0.702681	1.430200	0.582019
C131	C	-0.452681	1.680200	0.832019
C132	C	-0.202681	1.930200	1.082019
C133	C	-1.068741	1.204892	0.411056
C134	C	-0.818741	1.454892	0.661056
C135	C	-0.568741	1.704892	0.911056
C136	C	-0.318741	1.954892	1.161056
C137	C	-0.752630	1.204689	0.410989
C138	C	-0.502630	1.454689	0.660989
C139	C	-0.252630	1.704689	0.910989
C140	C	-0.002630	1.954689	1.160989
C141	C	-0.217903	1.204871	0.411049
C142	C	0.032097	1.454871	0.661049
C143	C	0.282097	1.704871	0.911049
C144	C	0.532097	1.954871	1.161049
C145	C	-0.135592	1.204930	0.411072
C146	C	0.114408	1.454930	0.661072
C147	C	0.364408	1.704930	0.911072
C148	C	0.614408	1.954930	1.161072
C149	C	-0.410993	1.204782	0.604159
C150	C	-0.160993	1.454782	0.854159
C151	C	0.089007	1.704782	1.104159
C152	C	0.339007	1.954782	1.354159
C153	C	-0.410966	1.204804	0.686474
C154	C	-0.160966	1.454804	0.936474
C155	C	0.089034	1.704804	1.186474
C156	C	0.339034	1.954804	1.436474
C157	C	-0.420881	1.422185	0.420799
C158	C	-0.170881	1.672185	0.670799
C159	C	0.079119	1.922185	0.920799
C160	C	0.329119	2.172185	1.170799
C161	C	-0.425066	1.514850	0.424976
C162	C	-0.175066	1.764850	0.674976
C163	C	0.074934	2.014850	0.924976
C164	C	0.324934	2.264850	1.174976
C165	C	-0.411073	1.204732	0.218584
C166	C	-0.161073	1.454732	0.468584
C167	C	0.088927	1.704732	0.718584
C168	C	0.338927	1.954732	0.968584
C169	C	-0.410899	1.204872	0.136277
C170	C	-0.160899	1.454872	0.386277
C171	C	0.089101	1.704872	0.636277
C172	C	0.339101	1.954872	0.886277
C173	C	-0.410921	1.204849	0.985567
C174	C	-0.160921	1.454849	1.235567
C175	C	0.089079	1.704849	1.485567
C176	C	0.339079	1.954849	1.735567
C177	C	-0.356811	1.269532	0.957173
C178	C	-0.106811	1.519532	1.207173
C179	C	0.143189	1.769532	1.457173
C180	C	0.393189	2.019532	1.707173
C181	C	-0.356591	1.269330	0.871545
C182	C	-0.106591	1.519330	1.121545
C183	C	0.143409	1.769330	1.371545
C184	C	0.393409	2.019330	1.621545
C185	C	-0.410943	1.204827	0.837184
C186	C	-0.160943	1.454827	1.087184
C187	C	0.089057	1.704827	1.337184
C188	C	0.339057	1.954827	1.587184
C189	C	-0.385779	1.117000	0.864307
C190	C	-0.135779	1.367000	1.114307
C191	C	0.114221	1.617000	1.364307
C192	C	0.364221	1.867000	1.614307
C193	C	-0.385369	1.117387	0.949970
C194	C	-0.135369	1.367387	1.199970
C195	C	0.114631	1.617387	1.449970
C196	C	0.364631	1.867387	1.699970
C197	C	-0.490307	1.227219	0.954984
C198	C	-0.240307	1.477219	1.204984
C199	C	0.009693	1.727219	1.454984
C200	C	0.259693	1.977219	1.704984
C201	C	-0.489995	1.229147	0.869421
C202	C	-0.239995	1.479147	1.119421
C203	C	0.010005	1.729147	1.369421
C204	C	0.260005	1.979147	1.619421
C205	C	-0.410957	1.204809	0.753324
C206	C	-0.160957	1.454809	1.003324
C207	C	0.089043	1.704809	1.253324
C208	C	0.339043	1.954809	1.503324
C209	C	-0.410906	1.204860	1.069427
C210	C	-0.160906	1.454860	1.319427
C211	C	0.089094	1.704860	1.569427
C212	C	0.339094	1.954860	1.819427
H213	H	-0.968725	1.075369	0.449485
H214	H	-0.718725	1.325369	0.699485
H215	H	-0.468725	1.575369	0.949485
H216	H	-0.218725	1.825369	1.199485
H217	H	-0.298413	1.254912	0.978054
H218	H	-0.048413	1.504912	1.228054
H219	H	0.201587	1.754912	1.478054
H220	H	0.451587	2.004912	1.728054
H221	H	-0.423803	1.067498	0.841700
H222	H	-0.173803	1.317498	1.091700
H223	H	0.076197	1.567498	1.341700
H224	H	0.326197	1.817498	1.591700
H225	H	-0.349308	0.690257	0.349429
H226	H	-0.099308	0.940257	0.599429
H227	H	0.150692	1.190257	0.849429
H228	H	0.400692	1.440257	1.099429
H229	H	-0.844040	1.155126	0.523655
H230	H	-0.594040	1.405126	0.773655
H231	H	-0.344040	1.655126	1.023655
H232	H	-0.094040	1.905126	1.273655
H233	H	-0.841477	1.074893	0.449370
H234	H	-0.591477	1.324893	0.699370
H235	H	-0.341477	1.574893	0.949370
H236	H	-0.091477	1.824893	1.199370
H237	H	-0.372872	1.334870	0.980713
H238	H	-0.122872	1.584870	1.230713
H239	H	0.127128	1.834870	1.480713
H240	H	0.377128	2.084870	1.730713
H241	H	-0.328252	1.097690	0.842001
H242	H	-0.078252	1.347690	1.092001
H243	H	0.171748	1.597690	1.342001
H244	H	0.421748	1.847690	1.592001
H245	H	-0.422851	1.067554	0.968435
H246	H	-0.172851	1.317554	1.218435
H247	H	0.077149	1.567554	1.468435
H248	H	0.327149	1.817554	1.718435
H249	H	-0.530674	1.180111	0.973114
H250	H	-0.280674	1.430111	1.223114
H251	H	-0.030674	1.680111	1.473114
H252	H	0.219326	1.930111	1.723114
H253	H	-0.472867	0.720051	0.472619
H254	H	-0.222867	0.970051	0.722619
H255	H	0.027133	1.220051	0.972619
H256	H	0.277133	1.470051	1.222619
H257	H	-0.971688	1.155604	0.524250
H258	H	-0.721688	1.405604	0.774250
H259	H	-0.471688	1.655604	1.024250
H260	H	-0.221688	1.905604	1.274250
H261	H	-0.852824	1.311478	0.494473
H262	H	-0.602824	1.561478	0.744473
H263	H	-0.352824	1.811478	0.994473
H264	H	-0.102824	2.061478	1.244473
H265	H	-0.853483	1.341970	0.398754
H266	H	-0.603483	1.591970	0.648754
H267	H	-0.353483	1.841970	0.898754
H268	H	-0.103483	2.091970	1.148754
H269	H	-0.848942	1.229020	0.291178
H270	H	-0.598942	1.479020	0.541178
H271	H	-0.348942	1.729020	0.791178
H272	H	-0.098942	1.979020	1.041178
H273	H	-0.327221	1.098423	0.969109
H274	H	-0.077221	1.348423	1.219109
H275	H	0.172779	1.598423	1.469109
H276	H	0.422779	1.848423	1.719109
H277	H	-0.372806	1.334456	0.853466
H278	H	-0.122806	1.584456	1.103466
H279	H	0.127194	1.834456	1.353466
H280	H	0.377194	2.084456	1.603466
H281	H	-0.980220	1.342084	0.397848
H282	H	-0.730220	1.592084	0.647848
H283	H	-0.480220	1.842084	0.897848
H284	H	-0.230220	2.092084	1.147848
H285	H	-0.979930	1.312263	0.493489
H286	H	-0.729930	1.562263	0.743489
H287	H	-0.479930	1.812263	0.993489
H288	H	-0.229930	2.062263	1.243489
H289	H	-0.842742	1.119059	0.309679
H290	H	-0.592742	1.369059	0.559679
H291	H	-0.342742	1.619059	0.809679
H292	H	-0.092742	1.869059	1.059679
H293	H	-0.970156	1.115516	0.313272
H294	H	-0.720156	1.365516	0.563272
H295	H	-0.470156	1.615516	0.813272
H296	H	-0.220156	1.865516	1.063272
H297	H	-0.976032	1.223720	0.289113
H298	H	-0.726032	1.473720	0.539113
H299	H	-0.476032	1.723720	0.789113
H300	H	-0.226032	1.973720	1.039113
H301	H	-0.297860	1.254523	0.850408
H302	H	-0.047860	1.504523	1.100408
H303	H	0.202140	1.754523	1.350408
H304	H	0.452140	2.004523	1.600408
H305	H	-0.512452	1.290139	0.979458
H306	H	-0.262452	1.540139	1.229458
H307	H	-0.012452	1.790139	1.479458
H308	H	0.237548	2.040139	1.729458
H309	H	-0.508898	1.293779	0.852018
H310	H	-0.258898	1.543779	1.102018
H311	H	-0.008898	1.793779	1.352018
H312	H	0.241102	2.043779	1.602018
H313	H	-0.532797	1.185460	0.846038
H314	H	-0.282797	1.435460	1.096038
H315	H	-0.032797	1.685460	1.346038
H316	H	0.217203	1.935460	1.596038
