data_functionalizedCrystal
_audit_creation_method	'MofGen! by Chris Wilmer'
_symmetry_space_group_name_H-M	'P1'
_symmetry_Int_Tables_number	1
_symmetry_cell_setting	triclinic
loop_
_symmetry_equiv_pos_as_xyz
  x,y,z
_cell_length_a	23.532407
_cell_length_b	22.010155
_cell_length_c	23.532407
_cell_angle_alpha	89.990798
_cell_angle_beta	97.151322
_cell_angle_gamma	90.010358
loop_
_atom_site_label
_atom_site_type_symbol
_atom_site_fract_x
_atom_site_fract_y
_atom_site_fract_z
O1	O	0.755269	0.050455	-0.069133
O2	O	1.255269	0.550455	0.430867
O3	O	0.589406	0.050474	-0.079137
O4	O	1.089406	0.550474	0.420863
O5	O	0.677339	0.050453	0.008797
O6	O	1.177339	0.550453	0.508797
O7	O	0.667336	0.050476	-0.157067
O8	O	1.167336	0.550476	0.342933
O9	O	0.677312	-0.050597	0.008797
O10	O	1.177312	0.449403	0.508797
O11	O	0.589379	-0.050576	-0.079137
O12	O	1.089379	0.449424	0.420863
O13	O	0.755243	-0.050595	-0.069133
O14	O	1.255243	0.449405	0.430867
Cu15	Cu	0.672308	-0.059812	-0.074135
Cu16	Cu	1.172308	0.440188	0.425865
Cu17	Cu	0.672340	0.059691	-0.074135
Cu18	Cu	1.172340	0.559691	0.425865
O19	O	0.667309	-0.050574	-0.157067
O20	O	1.167309	0.449426	0.342933
C21	C	0.568176	-0.000049	-0.078882
C22	C	1.068176	0.499951	0.421118
C23	C	0.504959	-0.000042	-0.078116
C24	C	1.004959	0.499958	0.421884
C25	C	0.105856	-0.000063	-0.125350
C26	C	0.605856	0.499937	0.374650
C27	C	0.046456	-0.000067	-0.124638
C28	C	0.546456	0.499933	0.375362
O29	O	0.009711	-0.000083	-0.168424
O30	O	0.509711	0.499917	0.331576
N31	N	0.023830	-0.000073	-0.072362
N32	N	0.523830	0.499927	0.427638
C33	C	0.060607	-0.000082	-0.020794
C34	C	0.560607	0.499918	0.479206
O35	O	0.035908	-0.000088	0.023737
O36	O	0.535908	0.499912	0.523737
C37	C	0.120006	-0.000082	-0.021506
C38	C	0.620006	0.499918	0.478494
C39	C	0.142629	-0.000070	-0.073785
C40	C	0.642629	0.499930	0.426215
C41	C	0.128479	-0.000051	-0.177625
C42	C	0.628479	0.499949	0.322375
C43	C	0.187876	-0.000046	-0.178336
C44	C	0.687876	0.499954	0.321664
C45	C	0.224649	-0.000053	-0.126772
C46	C	0.724649	0.499947	0.373228
C47	C	0.202025	-0.000065	-0.074497
C48	C	0.702025	0.499935	0.425503
C49	C	0.156783	-0.000096	0.030062
C50	C	0.656783	0.499904	0.530062
C51	C	0.216185	-0.000097	0.029345
C52	C	0.716185	0.499903	0.529345
C53	C	0.238808	-0.000084	-0.022934
C54	C	0.738808	0.499916	0.477066
C55	C	0.298194	-0.000067	-0.023643
C56	C	0.798194	0.499933	0.476357
N57	N	0.320820	-0.000061	-0.075920
N58	N	0.820820	0.499939	0.424080
C59	C	0.284048	-0.000054	-0.127484
C60	C	0.784048	0.499946	0.372516
C61	C	-0.064135	-0.000082	-0.019302
C62	C	0.435865	0.499918	0.480698
C63	C	-0.123533	-0.000077	-0.018589
C64	C	0.376467	0.499923	0.481411
C65	C	-0.137680	-0.000063	-0.122434
C66	C	0.362320	0.499937	0.377566
C67	C	-0.078281	-0.000064	-0.123146
C68	C	0.421719	0.499936	0.376854
C69	C	-0.041509	-0.000076	-0.071578
C70	C	0.458491	0.499924	0.428422
C71	C	0.408784	-0.000043	-0.128974
C72	C	0.908784	0.499957	0.371026
C73	C	0.468186	-0.000035	-0.129680
C74	C	0.968186	0.499965	0.370320
C75	C	0.482329	-0.000052	-0.025836
C76	C	0.982329	0.499948	0.474164
C77	C	0.422932	-0.000057	-0.025129
C78	C	0.922932	0.499943	0.474871
C79	C	0.386160	-0.000054	-0.076702
C80	C	0.886160	0.499946	0.423298
O81	O	0.334974	-0.000054	0.020119
O82	O	0.834974	0.499946	0.520119
O83	O	0.308755	-0.000055	-0.172007
O84	O	0.808755	0.499945	0.327993
N85	N	0.672291	-0.143865	-0.074135
N86	N	1.172291	0.356135	0.425865
C87	C	0.706685	-0.563643	-0.108496
C88	C	1.206685	-0.063643	0.391504
C89	C	0.706692	-0.627251	-0.108494
C90	C	1.206692	-0.127251	0.391506
O91	O	0.735915	-0.660141	-0.137705
O92	O	1.235915	-0.160141	0.362295
N93	N	0.672351	-0.659072	-0.074128
N94	N	1.172351	-0.159072	0.425872
C95	C	0.638005	-0.627282	-0.039758
C96	C	1.138005	-0.127282	0.460242
O97	O	0.608796	-0.660189	-0.010527
O98	O	1.108796	-0.160189	0.489473
C99	C	0.638002	-0.563676	-0.039757
C100	C	1.138002	-0.063676	0.460243
C101	C	0.672341	-0.531858	-0.074129
C102	C	1.172341	-0.031858	0.425871
C103	C	0.741022	-0.531825	-0.142864
C104	C	1.241022	-0.031825	0.357136
C105	C	0.741014	-0.468222	-0.142867
C106	C	1.241014	0.031778	0.357133
C107	C	0.706670	-0.436437	-0.108500
C108	C	1.206670	0.063563	0.391500
C109	C	0.672333	-0.468255	-0.074131
C110	C	1.172333	0.031745	0.425869
C111	C	0.603660	-0.531887	-0.005383
C112	C	1.103660	-0.031887	0.494617
C113	C	0.603660	-0.468276	-0.005384
C114	C	1.103660	0.031724	0.494616
C115	C	0.637999	-0.436458	-0.039757
C116	C	1.137999	0.063542	0.460243
C117	C	0.637981	-0.372866	-0.039766
C118	C	1.137981	0.127134	0.460234
N119	N	0.672322	-0.341045	-0.074132
N120	N	1.172322	0.158955	0.425868
C121	C	0.706667	-0.372830	-0.108498
C122	C	1.206667	0.127170	0.391502
C123	C	0.638015	-0.760860	-0.039762
C124	C	1.138015	-0.260860	0.460238
C125	C	0.638015	-0.824465	-0.039766
C126	C	1.138015	-0.324465	0.460234
C127	C	0.706703	-0.824429	-0.108502
C128	C	1.206703	-0.324429	0.391498
C129	C	0.706700	-0.760823	-0.108501
C130	C	1.206700	-0.260823	0.391499
C131	C	0.672356	-0.729039	-0.074128
C132	C	1.172356	-0.229039	0.425872
C133	C	0.706648	-0.239259	-0.108501
C134	C	1.206648	0.260741	0.391499
C135	C	0.706635	-0.175650	-0.108502
C136	C	1.206635	0.324350	0.391498
C137	C	0.637950	-0.175691	-0.039764
C138	C	1.137950	0.324309	0.460236
C139	C	0.637960	-0.239295	-0.039765
C140	C	1.137960	0.260705	0.460235
C141	C	0.672313	-0.271077	-0.074135
C142	C	1.172313	0.228923	0.425865
O143	O	0.608775	-0.339935	-0.010568
O144	O	1.108775	0.160065	0.489432
O145	O	0.735876	-0.339916	-0.137719
O146	O	1.235876	0.160084	0.362281
C147	C	0.776472	-0.000071	-0.069388
C148	C	1.276472	0.499929	0.430612
C149	C	0.839689	-0.000073	-0.070154
C150	C	1.339689	0.499927	0.429846
C151	C	0.677071	-0.000074	0.030013
C152	C	1.177071	0.499926	0.530013
C153	C	0.676305	-0.000078	0.093230
C154	C	1.176305	0.499922	0.593230
N155	N	0.672362	0.143744	-0.074131
N156	N	1.172362	0.643744	0.425869
C157	C	0.667577	-0.000046	-0.178283
C158	C	1.167577	0.499954	0.321717
C159	C	0.668343	-0.000037	-0.241500
C160	C	1.168343	0.499963	0.258500
C161	C	0.723539	-0.000050	0.492333
C162	C	1.223539	0.499950	0.992333
C163	C	0.722827	-0.000046	0.551733
C164	C	1.222827	0.499954	1.051733
O165	O	0.766613	-0.000028	0.588478
O166	O	1.266613	0.499972	1.088478
N167	N	0.670551	-0.000040	0.574359
N168	N	1.170551	0.499960	1.074359
C169	C	0.618983	-0.000033	0.537582
C170	C	1.118983	0.499967	1.037582
O171	O	0.574452	-0.000027	0.562281
O172	O	1.074452	0.499973	1.062281
C173	C	0.619695	-0.000033	0.478182
C174	C	1.119695	0.499967	0.978182
C175	C	0.671974	-0.000045	0.455560
C176	C	1.171974	0.499955	0.955560
C177	C	0.775814	-0.000061	0.469710
C178	C	1.275814	0.499939	0.969710
C179	C	0.776525	-0.000067	0.410313
C180	C	1.276525	0.499933	0.910313
C181	C	0.724961	-0.000062	0.373540
C182	C	1.224961	0.499938	0.873540
C183	C	0.672685	-0.000051	0.396164
C184	C	1.172685	0.499949	0.896164
C185	C	0.568127	-0.000022	0.441406
C186	C	1.068127	0.499978	0.941406
C187	C	0.568844	-0.000022	0.382004
C188	C	1.068844	0.499978	0.882004
C189	C	0.621123	-0.000034	0.359381
C190	C	1.121123	0.499966	0.859381
C191	C	0.621832	-0.000052	0.299995
C192	C	1.121832	0.499948	0.799995
N193	N	0.674109	-0.000057	0.277368
N194	N	1.174109	0.499943	0.777368
C195	C	0.725673	-0.000062	0.314141
C196	C	1.225673	0.499938	0.814141
C197	C	0.617491	-0.000031	0.662324
C198	C	1.117491	0.499969	1.162324
C199	C	0.616778	-0.000035	0.721722
C200	C	1.116778	0.499965	1.221722
C201	C	0.720623	-0.000047	0.735869
C202	C	1.220623	0.499953	1.235869
C203	C	0.721335	-0.000047	0.676470
C204	C	1.221335	0.499953	1.176470
C205	C	0.669767	-0.000037	0.639698
C206	C	1.169767	0.499963	1.139698
C207	C	0.727163	-0.000075	0.189405
C208	C	1.227163	0.499925	0.689405
C209	C	0.727869	-0.000083	0.130003
C210	C	1.227869	0.499917	0.630003
C211	C	0.624025	-0.000069	0.115860
C212	C	1.124025	0.499931	0.615860
C213	C	0.623318	-0.000064	0.175257
C214	C	1.123318	0.499936	0.675257
C215	C	0.674891	-0.000065	0.212029
C216	C	1.174891	0.499935	0.712029
O217	O	0.578070	-0.000067	0.263215
O218	O	1.078070	0.499933	0.763215
O219	O	0.770196	-0.000060	0.289433
O220	O	1.270196	0.499940	0.789433
H221	H	0.512280	-0.000056	0.016146
H222	H	1.012280	0.499944	0.516146
N223	N	0.741734	-0.271707	-0.143619
N224	N	1.241734	0.228293	0.356381
N225	N	0.734606	-0.264586	-0.196729
N226	N	1.234606	0.235414	0.303271
H227	H	0.759383	-0.287502	-0.221535
H228	H	1.259383	0.212498	0.278465
H229	H	0.582043	-0.000067	0.085909
H230	H	1.082043	0.499933	0.585909
H231	H	0.580748	-0.000071	0.193677
H232	H	1.080748	0.499929	0.693677
H233	H	0.486602	-0.000025	-0.172255
H234	H	0.986602	0.499975	0.327745
N235	N	0.516172	-0.000021	0.344434
N236	N	1.016172	0.499979	0.844434
N237	N	0.516809	-0.000027	0.291400
N238	N	1.016809	0.499973	0.791400
H239	H	0.479610	-0.000028	0.264867
H240	H	0.979610	0.499972	0.764867
H241	H	0.246123	-0.000107	0.071339
H242	H	0.746123	0.499893	0.571339
N243	N	0.741724	-0.143159	-0.143610
N244	N	1.241724	0.356841	0.356390
N245	N	0.794835	-0.150252	-0.136519
N246	N	1.294835	0.349748	0.363481
H247	H	0.819617	-0.127308	-0.161312
H248	H	1.319617	0.372692	0.338688
N249	N	0.371237	-0.000043	-0.181659
N250	N	0.871237	0.499957	0.318341
N251	N	0.391454	-0.000033	-0.228326
N252	N	0.891454	0.499967	0.271674
H253	H	0.364937	-0.000031	-0.265536
H254	H	0.864937	0.499969	0.234464
H255	H	0.404512	-0.000058	0.017441
H256	H	0.904512	0.499942	0.517441
N257	N	0.776087	-0.435735	-0.177988
N258	N	1.276087	0.064265	0.322012
N259	N	0.806742	-0.464133	-0.208671
N260	N	1.306742	0.035867	0.291329
H261	H	0.831513	-0.441194	-0.233479
H262	H	1.331513	0.058806	0.266521
N263	N	0.776113	-0.564277	-0.177973
N264	N	1.276113	-0.064277	0.322027
N265	N	0.806767	-0.535849	-0.208652
N266	N	1.306767	-0.035849	0.291348
H267	H	0.831550	-0.558764	-0.233453
H268	H	1.331550	-0.058764	0.266547
N269	N	0.781274	-0.000081	0.106896
N270	N	1.281274	0.499919	0.606896
N271	N	0.793269	0.042512	0.075323
N272	N	1.293269	0.542512	0.575323
H273	H	0.830986	0.042515	0.059005
H274	H	1.330986	0.542515	0.559005
H275	H	0.575496	-0.000028	0.632386
H276	H	1.075496	0.499972	1.132386
H277	H	0.762610	-0.000048	0.765821
H278	H	1.262610	0.499952	1.265821
N279	N	0.090920	-0.000033	-0.230300
N280	N	0.590920	0.499967	0.269700
N281	N	0.056207	0.042566	-0.241493
N282	N	0.556207	0.542566	0.258507
H283	H	0.029683	0.042582	-0.278698
H284	H	0.529683	0.542582	0.221302
H285	H	-0.059867	-0.000057	-0.165717
H286	H	0.440133	0.499943	0.334283
H287	H	-0.141947	-0.000078	0.023982
H288	H	0.358053	0.499922	0.523982
N289	N	0.602937	-0.728394	-0.004645
N290	N	1.102937	-0.228394	0.495355
N291	N	0.610061	-0.735510	0.048465
N292	N	1.110061	-0.235510	0.548465
H293	H	0.585289	-0.712583	0.073268
H294	H	1.085289	-0.212583	0.573268
N295	N	-0.026567	-0.000091	0.033372
N296	N	0.473433	0.499909	0.533372
N297	N	0.008151	-0.042687	0.044565
N298	N	0.508151	0.457313	0.544565
H299	H	0.034682	-0.042695	0.081765
H300	H	0.534682	0.457305	0.581765
N301	N	0.741783	-0.728334	-0.143610
N302	N	1.241783	-0.228334	0.356390
N303	N	0.772444	-0.756729	-0.174289
N304	N	1.272444	-0.256729	0.325711
H305	H	0.797227	-0.733788	-0.199084
H306	H	1.297227	-0.233788	0.300916
H307	H	0.574207	-0.000036	0.740136
H308	H	1.074207	0.499964	1.240136
H309	H	-0.167632	-0.000060	-0.164421
H310	H	0.332368	0.499940	0.335579
N311	N	0.602887	-0.143226	-0.004636
N312	N	1.102887	0.356774	0.495364
N313	N	0.572241	-0.171637	0.026064
N314	N	1.072241	0.328363	0.526064
H315	H	0.547486	-0.148707	0.050882
H316	H	1.047486	0.351293	0.550882
H317	H	0.138375	-0.000106	0.072634
H318	H	0.638375	0.499894	0.572634
N319	N	0.741778	-0.856901	-0.143618
N320	N	1.241778	-0.356901	0.356382
N321	N	0.719323	-0.892391	-0.181385
N322	N	1.219323	-0.392391	0.318615
H323	H	0.744091	-0.915325	-0.206187
H324	H	1.244091	-0.415325	0.293813
N325	N	0.210970	-0.000033	-0.231744
N326	N	0.710970	0.499967	0.268256
N327	N	0.178121	-0.000027	-0.277775
N328	N	0.678121	0.499973	0.222225
H329	H	0.194427	-0.000018	-0.315498
H330	H	0.694427	0.499982	0.184502
H331	H	0.610046	-0.850366	-0.011784
H332	H	1.110046	-0.350366	0.488216
N333	N	0.779848	-0.000074	0.226952
N334	N	1.279848	0.499926	0.726952
N335	N	0.826515	-0.000084	0.206735
N336	N	1.326515	0.499916	0.706735
H337	H	0.863725	-0.000087	0.233252
H338	H	1.363725	0.499913	0.733252
H339	H	0.763906	-0.000056	0.658056
H340	H	1.263906	0.499944	1.158056
H341	H	0.819097	-0.000074	0.391900
H342	H	1.319097	0.499926	0.891900
H343	H	0.525555	-0.000009	0.459814
H344	H	1.025555	0.499991	0.959814
H345	H	0.817806	-0.000063	0.499645
H346	H	1.317806	0.499937	0.999645
N347	N	0.568579	-0.564368	0.029731
N348	N	1.068579	-0.064368	0.529731
N349	N	0.537924	-0.535968	0.060413
N350	N	1.037924	-0.035968	0.560413
H351	H	0.513146	-0.558906	0.085216
H352	H	1.013146	-0.058906	0.585216
H353	H	0.575693	-0.442401	0.022607
H354	H	1.075693	0.057599	0.522607
H355	H	0.609991	-0.265202	-0.011784
H356	H	1.109991	0.234798	0.488216
