data_functionalizedCrystal
_audit_creation_method	'MofGen! by Chris Wilmer'
_symmetry_space_group_name_H-M	'P1'
_symmetry_Int_Tables_number	1
_symmetry_cell_setting	triclinic
loop_
_symmetry_equiv_pos_as_xyz
  x,y,z
_cell_length_a	10.489741
_cell_length_b	15.944551
_cell_length_c	8.965430
_cell_angle_alpha	89.999468
_cell_angle_beta	89.998843
_cell_angle_gamma	84.018956
loop_
_atom_site_label
_atom_site_type_symbol
_atom_site_fract_x
_atom_site_fract_y
_atom_site_fract_z
O1	O	1.692411	0.118500	-0.123951
O2	O	1.321061	0.129624	-0.123974
O3	O	1.516876	0.001848	-0.123948
O4	O	1.496595	0.246276	-0.123977
O5	O	1.516860	0.001857	0.124130
O6	O	1.321044	0.129633	0.124105
O7	O	1.692394	0.118509	0.124128
Cu8	Cu	1.506718	0.124071	0.146768
Cu9	Cu	1.506737	0.124061	-0.146614
O10	O	1.496578	0.246285	0.124102
C11	C	1.273532	0.128788	0.000062
C12	C	1.131938	0.126275	0.000054
C13	C	1.516026	-0.029446	0.000091
C14	C	1.513502	-0.122708	0.000092
C15	C	1.064925	0.044975	0.000077
C16	C	0.972274	0.083376	-0.122240
C17	C	0.972291	0.083403	0.122346
C18	C	1.041152	0.164709	-0.122364
C19	C	1.041179	0.164726	0.122332
C20	C	0.948554	0.203186	-0.000015
C21	C	1.386093	-0.338330	0.000063
C22	C	1.445249	-0.398988	0.122385
C23	C	1.508935	-0.293461	0.000080
C24	C	1.445294	-0.398979	-0.122201
C25	C	1.504515	-0.458400	0.000062
C26	C	1.568126	-0.352890	0.122503
C27	C	1.568154	-0.352875	-0.122193
C28	C	1.627399	-0.413515	0.000158
C29	C	1.511478	-0.198443	0.000092
C30	C	1.501982	-0.553417	0.000061
C31	C	1.739922	0.119345	0.000088
C32	C	1.881517	0.121858	0.000087
C33	C	1.497429	0.277579	0.000059
C34	C	1.499953	0.370841	0.000049
N35	N	1.506713	0.124078	0.353117
N36	N	1.506752	0.124048	-0.352963
C37	C	1.416127	0.183150	0.450411
C38	C	1.531388	0.200146	0.549830
C39	C	1.391501	0.107089	0.549826
C40	C	1.622032	0.141112	0.450347
C41	C	1.482069	0.048022	0.450334
C42	C	1.597413	0.064986	0.549708
H43	H	0.941743	0.048972	-0.225644
H44	H	1.393285	-0.419405	0.225792
H45	H	1.729454	-0.446060	0.000234
H46	H	1.393328	-0.419372	-0.225622
O47	O	1.738214	0.158520	0.398419
C48	C	1.722741	0.232371	0.310957
H49	H	1.630134	0.271802	0.344026
H50	H	1.807397	0.270482	0.330052
H51	H	1.718183	0.214547	0.188070
O52	O	1.324959	0.242908	0.398449
C53	C	1.351442	0.322979	0.449180
H54	H	1.457715	0.321251	0.477055
H55	H	1.325856	0.371825	0.358252
H56	H	1.292170	0.340609	0.553250
O57	O	1.077493	0.205789	-0.245724
C58	C	1.138287	0.276689	-0.202091
H59	H	1.177395	0.266824	-0.084051
H60	H	1.220527	0.285282	-0.281903
H61	H	1.066101	0.335291	-0.205037
O62	O	1.457287	-0.028738	0.398318
C63	C	1.551700	-0.091096	0.451076
H64	H	1.597150	-0.067562	0.556547
H65	H	1.505702	-0.151100	0.477295
H66	H	1.628591	-0.105050	0.362049
H67	H	1.620073	-0.332436	-0.225606
H68	H	1.552259	0.264453	0.593533
O69	O	1.689082	0.005461	0.601340
C70	C	1.810334	0.023665	0.550345
H71	H	1.806689	0.093649	0.522602
H72	H	1.884911	0.007198	0.641061
H73	H	1.837450	-0.015130	0.446139
O74	O	1.630171	-0.328582	0.245859
C75	C	1.737278	-0.287903	0.202221
H76	H	1.721944	-0.262243	0.084178
H77	H	1.749573	-0.233668	0.282027
H78	H	1.826925	-0.334901	0.205172
H79	H	1.071741	0.199101	0.225741
H80	H	1.115541	-0.021859	-0.000068
H81	H	1.294052	0.092733	0.593526
O82	O	0.888531	0.283014	-0.000360
C83	C	0.923660	0.325551	-0.129480
H84	H	0.956925	0.277526	-0.219206
H85	H	0.837578	0.368375	-0.172170
H86	H	1.004882	0.365150	-0.101474
O87	O	0.935852	0.042237	0.245564
C88	C	0.873966	-0.028155	0.201666
H89	H	0.905559	-0.047890	0.084021
H90	H	0.900559	-0.082598	0.281999
H91	H	0.765739	-0.010901	0.203480
O92	O	1.264432	-0.299358	0.000456
C93	C	1.200120	-0.322738	0.129643
H94	H	1.273334	-0.344285	0.219340
H95	H	1.134508	-0.266346	0.172325
H96	H	1.140513	-0.376487	0.101732
