data_functionalizedCrystal
_audit_creation_method	'MofGen! by Chris Wilmer'
_symmetry_space_group_name_H-M	'P1'
_symmetry_Int_Tables_number	1
_symmetry_cell_setting	triclinic
loop_
_symmetry_equiv_pos_as_xyz
  x,y,z
_cell_length_a	11.026607
_cell_length_b	10.489741
_cell_length_c	9.482900
_cell_angle_alpha	99.430409
_cell_angle_beta	78.636152
_cell_angle_gamma	96.562595
loop_
_atom_site_label
_atom_site_type_symbol
_atom_site_fract_x
_atom_site_fract_y
_atom_site_fract_z
O1	O	1.633618	0.519526	-0.120902
O2	O	1.279780	0.458584	-0.120903
O3	O	1.464749	0.305229	-0.120894
O4	O	1.448649	0.672881	-0.120911
O5	O	1.427179	0.336539	0.120897
O6	O	1.242210	0.489894	0.120887
O7	O	1.596048	0.550836	0.120889
Cu8	Cu	1.415698	0.523224	0.142965
Cu9	Cu	1.460129	0.486196	-0.142980
O10	O	1.411079	0.704190	0.120879
C11	C	1.215686	0.462996	-0.000008
C12	C	1.080679	0.429482	-0.000008
C13	C	1.007683	0.522021	-0.000014
C14	C	0.868146	0.487384	-0.000014
C15	C	1.444748	0.273085	0.000000
C16	C	1.441110	0.130655	-0.000002
C17	C	1.323420	0.036624	-0.000013
C18	C	1.360492	-0.027831	0.119202
C19	C	1.397561	-0.058669	-0.119184
C20	C	1.478215	0.068088	0.119312
C21	C	1.515284	0.037242	-0.119182
C22	C	1.552438	-0.027163	0.000063
C23	C	1.660143	0.546423	-0.000010
C24	C	1.795151	0.579936	-0.000019
C25	C	1.431080	0.736334	-0.000018
C26	C	1.434720	0.878763	-0.000025
N27	N	1.384457	0.549268	0.344084
N28	N	1.491380	0.460144	-0.344099
C29	C	1.450906	0.493869	0.416286
C30	C	1.424922	0.515551	0.583703
H31	H	1.226636	0.065005	0.000107
O32	O	1.032025	0.304385	0.000252
C33	C	1.051709	0.259412	0.125459
H34	H	1.065185	0.345551	0.212985
H35	H	0.967790	0.192937	0.167494
H36	H	1.138065	0.203382	0.097148
H37	H	1.567508	0.396654	0.593781
O38	O	1.282502	-0.062155	0.239591
C39	C	1.324073	0.004877	0.365089
H40	H	1.383927	0.096572	0.337310
H41	H	1.240676	0.032232	0.452724
H42	H	1.381229	-0.059968	0.406715
O43	O	1.056454	0.647079	-0.000272
C44	C	1.148527	0.655748	-0.125475
H45	H	1.131461	0.570777	-0.213002
H46	H	1.144710	0.750727	-0.167510
H47	H	1.243861	0.652752	-0.097157
H48	H	1.580702	0.066180	-0.219975
H49	H	1.363411	-0.113642	-0.219981
H50	H	1.649280	-0.055274	0.000129
O51	O	0.843727	0.705104	0.000226
C52	C	0.785141	0.782511	0.125425
H53	H	0.744459	0.719046	0.212960
H54	H	0.856004	0.859866	0.167450
H55	H	0.707590	0.831214	0.097104
H56	H	1.308326	0.612742	0.406210
O57	O	0.819498	0.362280	0.000246
C58	C	0.839181	0.317307	0.125454
H59	H	0.852658	0.403446	0.212979
H60	H	0.755263	0.250833	0.167488
H61	H	0.925537	0.261277	0.097142
H62	H	1.527029	0.430383	0.354162
H63	H	1.512292	0.122930	0.220212
O64	O	1.334171	0.591451	0.657640
C65	C	1.361120	0.717730	0.620574
H66	H	1.425076	0.713986	0.510012
H67	H	1.271190	0.759260	0.615539
H68	H	1.408886	0.782055	0.706195
