data_functionalizedCrystal
_audit_creation_method	'MofGen! by Chris Wilmer'
_symmetry_space_group_name_H-M	'P1'
_symmetry_Int_Tables_number	1
_symmetry_cell_setting	triclinic
loop_
_symmetry_equiv_pos_as_xyz
  x,y,z
_cell_length_a	12.759395
_cell_length_b	21.295417
_cell_length_c	12.759387
_cell_angle_alpha	89.961792
_cell_angle_beta	89.980929
_cell_angle_gamma	90.032044
loop_
_atom_site_label
_atom_site_type_symbol
_atom_site_fract_x
_atom_site_fract_y
_atom_site_fract_z
Zn1	Zn	1.606138	-0.250552	-0.593949
Zn2	Zn	1.605985	-0.355835	-0.418245
Zn3	Zn	1.430441	-0.250586	-0.418285
Zn4	Zn	1.430380	-0.355790	-0.593884
O5	O	1.518236	-0.303191	-0.506091
O6	O	1.753139	-0.264523	-0.570651
O7	O	1.582660	-0.341906	-0.271229
O8	O	1.453837	-0.162492	-0.441631
O9	O	1.753026	-0.341873	-0.441563
O10	O	1.582921	-0.162467	-0.570690
O11	O	1.453688	-0.264580	-0.271259
O12	O	1.283412	-0.264537	-0.441569
O13	O	1.453734	-0.341798	-0.740914
O14	O	1.283367	-0.341830	-0.570581
O15	O	1.582863	-0.264480	-0.740961
O16	O	1.582601	-0.443918	-0.441501
O17	O	1.453585	-0.443886	-0.570542
C18	C	1.245269	-0.303183	-0.506073
C19	C	1.128492	-0.303195	-0.506090
C20	C	1.128484	-0.383811	-0.640213
C21	C	1.073620	-0.424123	-0.707277
C22	C	0.963898	-0.424131	-0.707290
C23	C	0.909039	-0.383820	-0.640233
C24	C	0.963903	-0.343507	-0.573169
C25	C	1.073627	-0.343506	-0.573161
C26	C	0.963911	-0.262890	-0.439053
C27	C	1.073633	-0.262884	-0.439034
C28	C	0.909051	-0.222579	-0.371997
C29	C	0.963916	-0.182268	-0.304926
C30	C	1.073644	-0.182263	-0.304915
C31	C	1.128497	-0.222571	-0.371969
C32	C	1.518098	-0.466742	-0.506033
C33	C	1.518136	-0.536711	-0.506043
C34	C	1.585374	-0.569573	-0.438920
C35	C	1.585423	-0.635316	-0.438944
C36	C	1.518215	-0.668193	-0.506079
C37	C	1.450972	-0.635322	-0.573215
C38	C	1.450933	-0.569581	-0.573197
N39	N	1.426308	-0.771460	-0.514083
N40	N	1.426349	-0.833911	-0.514094
C41	C	1.518333	-0.866268	-0.506139
N42	N	1.610277	-0.833814	-0.498153
N43	N	1.610235	-0.771356	-0.498137
C44	C	1.518252	-0.739478	-0.506107
C45	C	1.585630	-0.970416	-0.439039
C46	C	1.585681	-1.036160	-0.439070
C47	C	1.451221	-1.036165	-0.573336
C48	C	1.451180	-0.970423	-0.573310
C49	C	1.518383	-0.937552	-0.506156
C50	C	1.792270	-0.303199	-0.506110
C51	C	1.909046	-0.303202	-0.506118
C52	C	1.518309	-0.303130	-0.780125
C53	C	1.518340	-0.303104	-0.896901
C54	C	1.518403	-0.139000	-0.506172
C55	C	1.518474	-0.069032	-0.506207
C56	C	1.652868	-0.222549	-1.116394
C57	C	1.720085	-0.182305	-1.061556
C58	C	1.720055	-0.182326	-0.951835
C59	C	1.652803	-0.222596	-0.896948
C60	C	1.585586	-0.262840	-0.951786
C61	C	1.585621	-0.262813	-1.061510
C62	C	1.451122	-0.343348	-0.951739
C63	C	1.451145	-0.343325	-1.061461
C64	C	1.383871	-0.383618	-0.896852
C65	C	1.316647	-0.423859	-0.951690
C66	C	1.316678	-0.423836	-1.061418
C67	C	1.383928	-0.383568	-1.116298
C68	C	1.518224	-0.303206	-0.233123
C69	C	1.518397	-0.303054	-0.116347
H70	H	0.919227	-0.456954	-0.761905
H71	H	1.652794	-0.222615	-0.807607
H72	H	1.652885	-0.222519	-1.205735
N73	N	1.129673	-0.465289	-0.775772
N74	N	1.227638	-0.465278	-0.775758
H75	H	1.267225	-0.494349	-0.824136
N76	N	1.654088	-0.668903	-0.370369
N77	N	1.654105	-0.727600	-0.370393
H78	H	1.702598	-0.751321	-0.321961
N79	N	1.382258	-0.536010	-0.641777
N80	N	1.389185	-0.543298	-0.738731
H81	H	1.340683	-0.519588	-0.787168
H82	H	0.819697	-0.383825	-0.640259
N83	N	1.382334	-0.668912	-0.641792
N84	N	1.382377	-0.727609	-0.641799
H85	H	1.333903	-0.751333	-0.690238
H86	H	1.640355	-0.943651	-0.384361
H87	H	1.640097	-0.542812	-0.384242
H88	H	1.774792	-0.149557	-0.907186
H89	H	1.383856	-0.383635	-0.807511
H90	H	1.640441	-1.062915	-0.384412
N91	N	1.382582	-1.069750	-0.641914
N92	N	1.382628	-1.128447	-0.641925
H93	H	1.334152	-1.152170	-0.690363
N94	N	1.247943	-0.464980	-0.895625
N95	N	1.151005	-0.460792	-0.907865
H96	H	1.102479	-0.489833	-0.868265
H97	H	1.261945	-0.456610	-1.106060
H98	H	1.396423	-0.943664	-0.627964
N99	N	1.788779	-0.141180	-1.117638
N100	N	1.788802	-0.141165	-1.215603
H101	H	1.837319	-0.112122	-1.255210
H102	H	1.383954	-0.383541	-1.205639
H103	H	1.217825	-0.383813	-0.640201
H104	H	0.819710	-0.222585	-0.372017
N105	N	0.907897	-0.141087	-0.236440
N106	N	0.920207	-0.083006	-0.243594
H107	H	0.880641	-0.053920	-0.195224
H108	H	1.217838	-0.222573	-0.371964
N109	N	1.129668	-0.141072	-0.236413
N110	N	1.080669	-0.105084	-0.176559
H111	H	1.120231	-0.075991	-0.128180
