data_functionalizedCrystal
_audit_creation_method	'MofGen! by Chris Wilmer'
_symmetry_space_group_name_H-M	'P1'
_symmetry_Int_Tables_number	1
_symmetry_cell_setting	triclinic
loop_
_symmetry_equiv_pos_as_xyz
  x,y,z
_cell_length_a	10.489741
_cell_length_b	10.654551
_cell_length_c	9.730223
_cell_angle_alpha	90.001301
_cell_angle_beta	89.999124
_cell_angle_gamma	84.512268
loop_
_atom_site_label
_atom_site_type_symbol
_atom_site_fract_x
_atom_site_fract_y
_atom_site_fract_z
O1	O	1.693964	0.177191	0.114195
O2	O	1.322760	0.193824	0.114216
O3	O	1.516896	0.002772	0.114206
O4	O	1.499828	0.368243	0.114205
O5	O	1.516889	0.002768	-0.114374
O6	O	1.322753	0.193819	-0.114364
O7	O	1.693957	0.177187	-0.114384
Zn8	Zn	1.508354	0.185502	-0.150666
Zn9	Zn	1.508363	0.185508	0.150498
O10	O	1.499821	0.368238	-0.114374
C11	C	1.275226	0.192565	-0.000071
C12	C	1.133598	0.188807	-0.000063
C13	C	1.515639	-0.044029	-0.000081
C14	C	1.511889	-0.183473	-0.000071
C15	C	1.510133	-0.248984	0.124525
C16	C	1.506598	-0.380006	0.124519
C17	C	1.506580	-0.379996	-0.124691
C18	C	1.510106	-0.248976	-0.124684
C19	C	1.510149	-0.248991	0.268405
C20	C	1.506615	-0.380013	0.268399
C21	C	1.065516	0.067246	-0.000076
C22	C	0.973365	0.124673	0.112623
C23	C	0.973392	0.124697	-0.112739
C24	C	1.043312	0.246283	0.112729
C25	C	1.043349	0.246290	-0.112734
C26	C	0.951226	0.303805	-0.000008
C27	C	1.741491	0.178445	-0.000094
C28	C	1.883119	0.182204	-0.000093
C29	C	1.501078	0.415039	-0.000085
C30	C	1.504828	0.554484	-0.000085
N31	N	1.508357	0.185497	-0.356203
C32	C	1.430334	0.108577	-0.428146
C33	C	1.430337	0.108583	-0.572029
C34	C	1.586396	0.262432	-0.572012
C35	C	1.586385	0.262432	-0.428132
C36	C	1.340239	0.019749	-0.428157
C37	C	1.340242	0.019756	-0.572040
N38	N	1.508370	0.185503	0.356034
H39	H	1.511528	-0.195641	-0.226142
Cl40	Cl	1.653782	-0.203263	0.337327
H41	H	1.074119	0.297680	0.208115
H42	H	1.371654	-0.079271	-0.611092
H43	H	1.594767	-0.426262	0.323637
Cl44	Cl	1.091246	0.325634	-0.259848
Cl45	Cl	1.402221	-0.126215	-0.359245
H46	H	1.649922	0.325072	-0.630595
Cl47	Cl	1.184915	0.067335	-0.367872
Cl48	Cl	0.925601	0.045253	-0.259844
Cl49	Cl	1.191927	0.080618	-0.640955
H50	H	1.505126	-0.433344	-0.226146
H51	H	1.422002	-0.202750	0.323659
H52	H	0.901754	0.403841	0.000053
Cl53	Cl	1.362986	-0.425740	0.337345
H54	H	1.649908	0.325078	-0.369561
Cl55	Cl	0.925525	0.045270	0.259732
Cl56	Cl	1.142250	-0.087060	0.000093
