data_functionalizedCrystal
_audit_creation_method	'MofGen! by Chris Wilmer'
_symmetry_space_group_name_H-M	'P1'
_symmetry_Int_Tables_number	1
_symmetry_cell_setting	triclinic
loop_
_symmetry_equiv_pos_as_xyz
  x,y,z
_cell_length_a	13.339070
_cell_length_b	15.995350
_cell_length_c	12.376457
_cell_angle_alpha	101.278656
_cell_angle_beta	75.589755
_cell_angle_gamma	99.560835
loop_
_atom_site_label
_atom_site_type_symbol
_atom_site_fract_x
_atom_site_fract_y
_atom_site_fract_z
O1	O	1.361687	0.408219	-0.094025
O2	O	1.067160	0.353123	-0.094021
O3	O	1.222474	0.260654	-0.094022
O4	O	1.206373	0.500688	-0.094024
O5	O	1.183660	0.283730	0.093990
O6	O	1.028345	0.376200	0.093991
O7	O	1.322873	0.431295	0.093987
Zn8	Zn	1.169446	0.407411	0.123840
Zn9	Zn	1.220586	0.377007	-0.123874
O10	O	1.167558	0.523765	0.093988
C11	C	1.010063	0.355354	-0.000015
C12	C	0.897761	0.327613	-0.000013
C13	C	0.532972	0.543314	-0.000033
C14	C	0.638486	0.569381	-0.000038
C15	C	0.703309	0.508941	-0.000031
C16	C	0.662609	0.422430	-0.000021
C17	C	0.557087	0.396360	-0.000025
C18	C	0.727425	0.361987	-0.000023
C19	C	0.686725	0.275476	-0.000013
C20	C	0.581212	0.249410	-0.000016
C21	C	0.516389	0.309850	-0.000023
C22	C	0.832947	0.388057	-0.000019
C23	C	0.857062	0.241103	-0.000011
C24	C	0.751549	0.215036	-0.000006
C25	C	1.202402	0.240842	-0.000018
C26	C	1.200407	0.147428	-0.000025
C27	C	1.193239	-0.191985	-0.000021
C28	C	1.082714	-0.170299	-0.000441
C29	C	1.084622	-0.073093	-0.000017
C30	C	1.196795	-0.023598	-0.000023
C31	C	1.229188	-0.038823	0.107338
C32	C	1.226391	-0.136094	0.107428
C33	C	1.272816	-0.162164	-0.106377
C34	C	1.273082	-0.065398	-0.107796
C35	C	1.198810	0.071568	-0.000021
C36	C	1.191226	-0.287149	-0.000015
C37	C	1.379970	0.429064	-0.000022
C38	C	1.492273	0.456804	-0.000031
C39	C	1.187631	0.543576	-0.000018
C40	C	1.189627	0.636990	-0.000019
N41	N	1.134551	0.428163	0.292899
N42	N	1.255489	0.356251	-0.292933
C43	C	1.336490	0.308063	0.647882
C44	C	1.360907	0.293538	0.529542
C45	C	1.304320	0.327193	0.470376
C46	C	1.223312	0.375376	0.529561
C47	C	1.198898	0.389908	0.647912
C48	C	1.166728	0.409038	0.470405
C49	C	1.085720	0.457221	0.529590
C50	C	1.061310	0.471751	0.647930
C51	C	1.117897	0.438096	0.707097
C52	C	1.191142	0.394505	0.352054
C53	C	1.053550	0.476350	0.352084
C54	C	1.029133	0.490876	0.470424
H55	H	0.789223	0.530169	-0.000038
N56	N	1.091567	0.453764	0.834739
H57	H	1.100398	0.517578	0.863243
H58	H	1.016962	0.429034	0.863169
H59	H	0.866073	0.458495	-0.000023
H60	H	0.995356	0.510992	0.696119
N61	N	0.682386	0.662679	-0.000066
H62	H	0.625313	0.697011	-0.000072
H63	H	0.711255	0.685260	0.069628
N64	N	1.006367	-0.036921	0.102108
H65	H	0.952740	-0.012277	0.076700
H66	H	0.970573	-0.084172	0.146985
H67	H	0.963175	0.530108	0.518627
N68	N	0.463062	0.608494	-0.000054
H69	H	0.390045	0.578849	-0.000059
H70	H	0.461840	0.653694	0.069642
N71	N	1.151748	-0.159539	0.213736
H72	H	1.120966	-0.106715	0.260097
H73	H	1.093971	-0.204481	0.192843
H74	H	1.007473	0.503757	0.303911
N75	N	1.448272	0.241572	0.465714
H76	H	1.455156	0.237477	0.381766
H77	H	1.515763	0.270497	0.486390
N78	N	1.157152	0.000085	0.213188
H79	H	1.198964	0.045057	0.259392
H80	H	1.103504	0.027556	0.191758
H81	H	1.382561	0.280671	0.696064
H82	H	1.253451	-0.201093	-0.187751
N83	N	0.402576	0.281736	0.000010
H84	H	0.367689	0.333155	0.000018
H85	H	0.396350	0.238034	-0.069681
N86	N	0.707646	0.121729	-0.000013
H87	H	0.764716	0.087392	-0.000010
H88	H	0.649999	0.116270	0.069684
N89	N	1.048875	-0.061149	-0.101966
H90	H	1.050054	0.002162	-0.101887
H91	H	1.097100	-0.086684	-0.173072
N92	N	0.537314	0.156103	-0.000019
H93	H	0.594386	0.121769	-0.000013
H94	H	0.479667	0.150644	0.069678
N95	N	1.383215	-0.020943	-0.116397
H96	H	1.384817	0.041596	-0.121186
H97	H	1.408157	-0.025537	-0.047372
N98	N	0.926967	0.175905	-0.000010
H99	H	0.999986	0.205547	-0.000006
H100	H	0.899399	0.147816	0.069687
N101	N	1.278500	0.342535	0.288213
H102	H	1.346050	0.371417	0.308788
H103	H	1.262511	0.282935	0.308838
N104	N	1.330640	0.311526	0.342738
H105	H	1.405249	0.336207	0.314209
H106	H	1.321749	0.247702	0.314331
N107	N	1.003465	-0.197340	0.100974
H108	H	1.000032	-0.261243	0.098332
H109	H	1.024633	-0.165657	0.172426
H110	H	1.054398	-0.208552	-0.077432
H111	H	1.306596	-0.148878	0.112295
N112	N	1.337273	0.005863	0.112609
H113	H	1.366346	0.036485	0.045295
H114	H	1.333680	0.048959	0.184557
N115	N	1.242035	-0.054424	-0.213010
H116	H	1.178821	-0.022507	-0.190969
H117	H	1.301678	-0.020702	-0.260658
N118	N	1.381042	-0.179247	-0.107333
H119	H	1.429132	-0.123362	-0.104822
H120	H	1.378488	-0.206193	-0.039242
