data_functionalizedCrystal
_audit_creation_method	'MofGen! by Chris Wilmer'
_symmetry_space_group_name_H-M	'P1'
_symmetry_Int_Tables_number	1
_symmetry_cell_setting	triclinic
loop_
_symmetry_equiv_pos_as_xyz
  x,y,z
_cell_length_a	18.101398
_cell_length_b	18.101395
_cell_length_c	21.395355
_cell_angle_alpha	90.015727
_cell_angle_beta	90.019889
_cell_angle_gamma	90.029256
loop_
_atom_site_label
_atom_site_type_symbol
_atom_site_fract_x
_atom_site_fract_y
_atom_site_fract_z
Zn1	Zn	1.132161	-0.294952	0.354196
Zn2	Zn	1.382161	-0.044952	0.604196
Zn3	Zn	1.632161	0.205048	0.854196
Zn4	Zn	1.882161	0.455048	1.104196
Zn5	Zn	1.132045	-0.418775	0.249423
Zn6	Zn	1.382045	-0.168775	0.499423
Zn7	Zn	1.632045	0.081225	0.749423
Zn8	Zn	1.882045	0.331225	0.999423
Zn9	Zn	1.008308	-0.294948	0.249441
Zn10	Zn	1.258308	-0.044948	0.499441
Zn11	Zn	1.508308	0.205052	0.749441
Zn12	Zn	1.758308	0.455052	0.999441
Zn13	Zn	1.008271	-0.418752	0.354172
Zn14	Zn	1.258271	-0.168752	0.604172
Zn15	Zn	1.508271	0.081248	0.854172
Zn16	Zn	1.758271	0.331248	1.104172
O17	O	1.070197	-0.356857	0.301808
O18	O	1.320197	-0.106857	0.551808
O19	O	1.570197	0.143143	0.801808
O20	O	1.820197	0.393143	1.051808
O21	O	1.235779	-0.311389	0.340300
O22	O	1.485779	-0.061389	0.590300
O23	O	1.735779	0.188611	0.840300
O24	O	1.985779	0.438611	1.090300
O25	O	1.115598	-0.402357	0.161748
O26	O	1.365598	-0.152357	0.411748
O27	O	1.615598	0.097643	0.661748
O28	O	1.865598	0.347643	0.911748
O29	O	1.024802	-0.191316	0.263354
O30	O	1.274802	0.058684	0.513354
O31	O	1.524802	0.308684	0.763354
O32	O	1.774802	0.558684	1.013354
O33	O	1.235694	-0.402361	0.263324
O34	O	1.485694	-0.152361	0.513324
O35	O	1.735694	0.097639	0.763324
O36	O	1.985694	0.347639	1.013324
O37	O	1.115796	-0.191319	0.340317
O38	O	1.365796	0.058681	0.590317
O39	O	1.615796	0.308681	0.840317
O40	O	1.865796	0.558681	1.090317
O41	O	1.024689	-0.311382	0.161761
O42	O	1.274689	-0.061382	0.411761
O43	O	1.524689	0.188618	0.661761
O44	O	1.774689	0.438618	0.911761
O45	O	0.904671	-0.311360	0.263331
O46	O	1.154671	-0.061360	0.513331
O47	O	1.404671	0.188640	0.763331
O48	O	1.654671	0.438640	1.013331
O49	O	1.024738	-0.402322	0.441853
O50	O	1.274738	-0.152322	0.691853
O51	O	1.524738	0.097678	0.941853
O52	O	1.774738	0.347678	1.191853
O53	O	0.904643	-0.402318	0.340277
O54	O	1.154643	-0.152318	0.590277
O55	O	1.404643	0.097682	0.840277
O56	O	1.654643	0.347682	1.090277
O57	O	1.115760	-0.311366	0.441870
O58	O	1.365760	-0.061366	0.691870
O59	O	1.615760	0.188634	0.941870
O60	O	1.865760	0.438634	1.191870
O61	O	1.115562	-0.522405	0.263301
O62	O	1.365562	-0.272405	0.513301
O63	O	1.615562	-0.022405	0.763301
O64	O	1.865562	0.227595	1.013301
O65	O	1.024626	-0.522388	0.340259
O66	O	1.274626	-0.272388	0.590259
O67	O	1.524626	-0.022388	0.840259
O68	O	1.774626	0.227612	1.090259
C69	C	0.877786	-0.356836	0.301804
C70	C	1.127786	-0.106836	0.551804
C71	C	1.377786	0.143164	0.801804
C72	C	1.627786	0.393164	1.051804
C73	C	0.795472	-0.356846	0.301817
C74	C	1.045472	-0.106846	0.551817
C75	C	1.295472	0.143154	0.801817
C76	C	1.545472	0.393154	1.051817
C77	C	0.644763	-0.356859	0.301816
C78	C	0.894763	-0.106859	0.551816
C79	C	1.144763	0.143141	0.801816
C80	C	1.394763	0.393141	1.051816
C81	C	0.613417	-0.414176	0.350153
C82	C	0.863417	-0.164176	0.600153
C83	C	1.113417	0.085824	0.850153
C84	C	1.363417	0.335824	1.100153
C85	C	0.527799	-0.414408	0.350009
C86	C	0.777799	-0.164408	0.600009
C87	C	1.027799	0.085592	0.850009
C88	C	1.277799	0.335592	1.100009
C89	C	0.496381	-0.356873	0.301816
C90	C	0.746381	-0.106873	0.551816
C91	C	0.996381	0.143127	0.801816
C92	C	1.246381	0.393127	1.051816
C93	C	0.527426	-0.377685	0.235705
C94	C	0.777426	-0.127685	0.485705
C95	C	1.027426	0.122315	0.735705
C96	C	1.277426	0.372315	0.985705
C97	C	0.613071	-0.378093	0.235984
C98	C	0.863071	-0.128093	0.485984
C99	C	1.113071	0.121907	0.735984
C100	C	1.363071	0.371907	0.985984
C101	C	0.613244	-0.278589	0.319012
C102	C	0.863244	-0.028589	0.569012
C103	C	1.113244	0.221411	0.819012
C104	C	1.363244	0.471411	1.069012
C105	C	0.527594	-0.279018	0.320468
C106	C	0.777594	-0.029018	0.570468
C107	C	1.027594	0.220982	0.820468
C108	C	1.277594	0.470982	1.070468
C109	C	0.412521	-0.356879	0.301812
C110	C	0.662521	-0.106879	0.551812
C111	C	0.912521	0.143121	0.801812
C112	C	1.162521	0.393121	1.051812
C113	C	0.728623	-0.356855	0.301815
C114	C	0.978623	-0.106855	0.551815
C115	C	1.228623	0.143145	0.801815
C116	C	1.478623	0.393145	1.051815
C117	C	1.070097	-0.549267	0.301789
C118	C	1.320097	-0.299267	0.551789
C119	C	1.570097	-0.049267	0.801789
C120	C	1.820097	0.200733	1.051789
C121	C	1.070123	-0.631582	0.301803
C122	C	1.320123	-0.381582	0.551803
C123	C	1.570123	-0.131582	0.801803
C124	C	1.820123	0.118418	1.051803
C125	C	1.070285	-0.930672	0.301836
C126	C	1.320285	-0.680672	0.551836
C127	C	1.570285	-0.430672	0.801836
C128	C	1.820285	-0.180672	1.051836
C129	C	1.013203	-0.899367	0.350377
C130	C	1.263203	-0.649367	0.600377
C131	C	1.513203	-0.399367	0.850377
C132	C	1.763203	-0.149367	1.100377
C133	C	1.012932	-0.813749	0.350225
C134	C	1.262932	-0.563749	0.600225
C135	C	1.512932	-0.313749	0.850225
C136	C	1.762932	-0.063749	1.100225
C137	C	1.070205	-0.782290	0.301820
C138	C	1.320205	-0.532290	0.551820
C139	C	1.570205	-0.282290	0.801820
C140	C	1.820205	-0.032290	1.051820
C141	C	1.049068	-0.813425	0.235788
C142	C	1.299068	-0.563425	0.485788
C143	C	1.549068	-0.313425	0.735788
C144	C	1.799068	-0.063425	0.985788
C145	C	1.048700	-0.899070	0.236079
C146	C	1.298700	-0.649070	0.486079
C147	C	1.548700	-0.399070	0.736079
C148	C	1.798700	-0.149070	0.986079
C149	C	1.148629	-0.899023	0.318746
C150	C	1.398629	-0.649023	0.568746
C151	C	1.648629	-0.399023	0.818746
C152	C	1.898629	-0.149023	1.068746
C153	C	1.148168	-0.813372	0.320195
C154	C	1.398168	-0.563372	0.570195
C155	C	1.648168	-0.313372	0.820195
C156	C	1.898168	-0.063372	1.070195
C157	C	1.070160	-0.698430	0.301807
C158	C	1.320160	-0.448430	0.551807
C159	C	1.570160	-0.198430	0.801807
C160	C	1.820160	0.051570	1.051807
C161	C	1.070328	-1.014532	0.301845
C162	C	1.320328	-0.764532	0.551845
C163	C	1.570328	-0.514532	0.801845
C164	C	1.820328	-0.264532	1.051845
C165	C	1.263358	-0.356878	0.301813
C166	C	1.513358	-0.106878	0.551813
C167	C	1.763358	0.143122	0.801813
C168	C	2.013358	0.393122	1.051813
C169	C	1.345673	-0.356887	0.301815
C170	C	1.595673	-0.106887	0.551815
C171	C	1.845673	0.143113	0.801815
C172	C	2.095673	0.393113	1.051815
C173	C	1.070258	-0.356842	0.465231
C174	C	1.320258	-0.106842	0.715231
C175	C	1.570258	0.143158	0.965231
C176	C	1.820258	0.393158	1.215231
C177	C	1.070284	-0.356835	0.534873
C178	C	1.320284	-0.106835	0.784873
C179	C	1.570284	0.143165	1.034873
C180	C	1.820284	0.393165	1.284873
C181	C	1.070316	-0.163695	0.301840
C182	C	1.320316	0.086305	0.551840
C183	C	1.570316	0.336305	0.801840
C184	C	1.820316	0.586305	1.051840
C185	C	1.070367	-0.081381	0.301854
C186	C	1.320367	0.168619	0.551854
C187	C	1.570367	0.418619	0.801854
C188	C	1.820367	0.668619	1.051854
C189	C	1.070178	-0.356818	0.139020
C190	C	1.320178	-0.106818	0.389020
C191	C	1.570178	0.143182	0.639020
C192	C	1.820178	0.393182	0.889020
C193	C	1.070295	-0.356616	0.069379
C194	C	1.320295	-0.106616	0.319379
C195	C	1.570295	0.143384	0.569379
C196	C	1.820295	0.393384	0.819379
C197	C	1.117677	-0.309473	0.567596
C198	C	1.367677	-0.059473	0.817596
C199	C	1.617677	0.190527	1.067596
C200	C	1.867677	0.440527	1.317596
C201	C	1.117676	-0.309441	0.633031
C202	C	1.367676	-0.059441	0.883031
C203	C	1.617676	0.190559	1.133031
C204	C	1.867676	0.440559	1.383031
C205	C	1.070290	-0.356785	0.665741
C206	C	1.320290	-0.106785	0.915741
C207	C	1.570290	0.143215	1.165741
C208	C	1.820290	0.393215	1.415741
C209	C	1.022888	-0.404151	0.633010
C210	C	1.272888	-0.154151	0.883010
C211	C	1.522888	0.095849	1.133010
C212	C	1.772888	0.345849	1.383010
C213	C	1.022885	-0.404176	0.567576
C214	C	1.272885	-0.154176	0.817576
C215	C	1.522885	0.095824	1.067576
C216	C	1.772885	0.345824	1.317576
C217	C	1.064408	-0.423466	0.769410
C218	C	1.314408	-0.173466	1.019410
C219	C	1.564408	0.076534	1.269410
C220	C	1.814408	0.326534	1.519410
C221	C	1.064416	-0.423442	0.834843
C222	C	1.314416	-0.173442	1.084843
C223	C	1.564416	0.076558	1.334843
C224	C	1.814416	0.326558	1.584843
C225	C	1.070295	-0.356707	0.867562
C226	C	1.320295	-0.106707	1.117562
C227	C	1.570295	0.143293	1.367562
C228	C	1.820295	0.393293	1.617562
C229	C	1.076180	-0.289993	0.834840
C230	C	1.326180	-0.039993	1.084840
C231	C	1.576180	0.210007	1.334840
C232	C	1.826180	0.460007	1.584840
C233	C	1.076178	-0.290018	0.769406
C234	C	1.326178	-0.040018	1.019406
C235	C	1.576178	0.209982	1.269406
C236	C	1.826178	0.459982	1.519406
C237	C	1.070288	-0.356763	0.736693
C238	C	1.320288	-0.106763	0.986693
C239	C	1.570288	0.143237	1.236693
C240	C	1.820288	0.393237	1.486693
C241	C	1.117689	-0.309306	0.971238
C242	C	1.367689	-0.059306	1.221238
C243	C	1.617689	0.190694	1.471238
C244	C	1.867689	0.440694	1.721238
C245	C	1.117683	-0.309273	1.036674
C246	C	1.367683	-0.059273	1.286674
C247	C	1.617683	0.190727	1.536674
C248	C	1.867683	0.440727	1.786674
C249	C	1.022898	-0.403989	1.036652
C250	C	1.272898	-0.153989	1.286652
C251	C	1.522898	0.096011	1.536652
C252	C	1.772898	0.346011	1.786652
C253	C	1.022901	-0.404015	0.971216
C254	C	1.272901	-0.154015	1.221216
C255	C	1.522901	0.095985	1.471216
C256	C	1.772901	0.345985	1.721216
C257	C	1.070300	-0.356675	0.938513
C258	C	1.320300	-0.106675	1.188513
C259	C	1.570300	0.143325	1.438513
C260	C	1.820300	0.393325	1.688513
H261	H	0.507307	-0.263318	0.369122
H262	H	0.757307	-0.013318	0.619122
H263	H	1.007307	0.236682	0.869122
H264	H	1.257307	0.486682	1.119122
Cl265	Cl	0.494572	-0.209602	0.270124
Cl266	Cl	0.744572	0.040398	0.520124
Cl267	Cl	0.994572	0.290398	0.770124
Cl268	Cl	1.244572	0.540398	1.020124
H269	H	0.991431	-0.919108	0.221754
H270	H	1.241431	-0.669108	0.471754
H271	H	1.491431	-0.419108	0.721754
H272	H	1.741431	-0.169108	0.971754
H273	H	1.026157	-0.792697	0.399187
H274	H	1.276157	-0.542697	0.649187
H275	H	1.526157	-0.292697	0.899187
H276	H	1.776157	-0.042697	1.149187
H277	H	1.191157	-0.919265	0.283393
H278	H	1.441157	-0.669265	0.533393
H279	H	1.691157	-0.419265	0.783393
H280	H	1.941157	-0.169265	1.033393
Cl281	Cl	0.646592	-0.503215	0.332756
Cl282	Cl	0.896592	-0.253215	0.582756
Cl283	Cl	1.146592	-0.003215	0.832756
Cl284	Cl	1.396592	0.246785	1.082756
H285	H	1.164108	-0.793021	0.368790
H286	H	1.414108	-0.543021	0.618790
H287	H	1.664108	-0.293021	0.868790
H288	H	1.914108	-0.043021	1.118790
H289	H	0.506810	-0.401427	0.399021
H290	H	0.756810	-0.151427	0.649021
H291	H	1.006810	0.098573	0.899021
H292	H	1.256810	0.348573	1.149021
H293	H	0.633517	-0.235889	0.283809
H294	H	0.883517	0.014111	0.533809
H295	H	1.133517	0.264111	0.783809
H296	H	1.383517	0.514111	1.033809
H297	H	0.634876	-0.259572	0.366408
H298	H	0.884876	-0.009572	0.616408
H299	H	1.134876	0.240428	0.866408
H300	H	1.384876	0.490428	1.116408
Cl301	Cl	1.178379	-0.932307	0.391820
Cl302	Cl	1.428379	-0.682307	0.641820
Cl303	Cl	1.678379	-0.432307	0.891820
Cl304	Cl	1.928379	-0.182307	1.141820
Cl305	Cl	1.033413	-0.931113	0.426218
Cl306	Cl	1.283413	-0.681113	0.676218
Cl307	Cl	1.533413	-0.431113	0.926218
Cl308	Cl	1.783413	-0.181113	1.176218
H309	H	1.089336	-0.793047	0.198636
H310	H	1.339336	-0.543047	0.448636
H311	H	1.589336	-0.293047	0.698636
H312	H	1.839336	-0.043047	0.948636
Cl313	Cl	0.924094	-0.932704	0.333315
Cl314	Cl	1.174094	-0.682704	0.583315
Cl315	Cl	1.424094	-0.432704	0.833315
Cl316	Cl	1.674094	-0.182704	1.083315
H317	H	0.505945	-0.434265	0.220923
H318	H	0.755945	-0.184265	0.470923
H319	H	1.005945	0.065735	0.720923
H320	H	1.255945	0.315735	0.970923
H321	H	0.954862	-0.793322	0.339024
H322	H	1.204862	-0.543322	0.589024
H323	H	1.454862	-0.293322	0.839024
H324	H	1.704862	-0.043322	1.089024
Cl325	Cl	0.496107	-0.503965	0.332412
Cl326	Cl	0.746107	-0.253965	0.582412
Cl327	Cl	0.996107	-0.003965	0.832412
Cl328	Cl	1.246107	0.246035	1.082412
H329	H	1.088472	-0.919780	0.198680
H330	H	1.338472	-0.669780	0.448680
H331	H	1.588472	-0.419780	0.698680
H332	H	1.838472	-0.169780	0.948680
Cl333	Cl	0.961583	-0.780407	0.213274
Cl334	Cl	1.211583	-0.530407	0.463274
Cl335	Cl	1.461583	-0.280407	0.713274
Cl336	Cl	1.711583	-0.030407	0.963274
Cl337	Cl	1.217309	-0.780299	0.269592
Cl338	Cl	1.467309	-0.530299	0.519592
Cl339	Cl	1.717309	-0.280299	0.769592
Cl340	Cl	1.967309	-0.030299	1.019592
Cl341	Cl	1.177246	-0.249880	0.674178
Cl342	Cl	1.427246	0.000120	0.924178
Cl343	Cl	1.677246	0.250120	1.174178
Cl344	Cl	1.927246	0.500120	1.424178
H345	H	0.633806	-0.338129	0.198734
H346	H	0.883806	-0.088129	0.448734
H347	H	1.133806	0.161871	0.698734
H348	H	1.383806	0.411871	0.948734
H349	H	0.507075	-0.337217	0.198701
H350	H	0.757075	-0.087217	0.448701
H351	H	1.007075	0.162783	0.698701
H352	H	1.257075	0.412783	0.948701
Cl353	Cl	1.177260	-0.249955	0.526487
Cl354	Cl	1.427260	0.000045	0.776487
Cl355	Cl	1.677260	0.250045	1.026487
Cl356	Cl	1.927260	0.500045	1.276487
Cl357	Cl	1.083571	-0.206154	0.728272
Cl358	Cl	1.333571	0.043846	0.978272
Cl359	Cl	1.583571	0.293846	1.228272
Cl360	Cl	1.833571	0.543846	1.478272
H361	H	1.080968	-0.235651	0.861478
H362	H	1.330968	0.014349	1.111478
H363	H	1.580968	0.264349	1.361478
H364	H	1.830968	0.514349	1.611478
H365	H	1.156280	-0.270754	0.944609
H366	H	1.406280	-0.020754	1.194609
H367	H	1.656280	0.229246	1.444609
H368	H	1.906280	0.479246	1.694609
H369	H	1.156275	-0.270700	1.063316
H370	H	1.406275	-0.020700	1.313316
H371	H	1.656275	0.229300	1.563316
H372	H	1.906275	0.479300	1.813316
Cl373	Cl	1.057040	-0.507373	0.728284
Cl374	Cl	1.307040	-0.257373	0.978284
Cl375	Cl	1.557040	-0.007373	1.228284
Cl376	Cl	1.807040	0.242627	1.478284
Cl377	Cl	0.645285	-0.394389	0.426058
Cl378	Cl	0.895285	-0.144389	0.676058
Cl379	Cl	1.145285	0.105611	0.926058
Cl380	Cl	1.395285	0.355611	1.176058
Cl381	Cl	0.963320	-0.463501	1.077766
Cl382	Cl	1.213320	-0.213501	1.327766
Cl383	Cl	1.463320	0.036499	1.577766
Cl384	Cl	1.713320	0.286499	1.827766
H385	H	0.633012	-0.435297	0.221450
H386	H	0.883012	-0.185297	0.471450
H387	H	1.133012	0.064703	0.721450
H388	H	1.383012	0.314703	0.971450
H389	H	0.984313	-0.442588	0.944573
H390	H	1.234313	-0.192588	1.194573
H391	H	1.484313	0.057412	1.444573
H392	H	1.734313	0.307412	1.694573
Cl393	Cl	0.963314	-0.463666	0.674130
Cl394	Cl	1.213314	-0.213666	0.924130
Cl395	Cl	1.463314	0.036334	1.174130
Cl396	Cl	1.713314	0.286334	1.424130
H397	H	1.059628	-0.477764	0.861480
H398	H	1.309628	-0.227764	1.111480
H399	H	1.559628	0.022236	1.361480
H400	H	1.809628	0.272236	1.611480
Cl401	Cl	0.963301	-0.463723	0.526436
Cl402	Cl	1.213301	-0.213723	0.776436
Cl403	Cl	1.463301	0.036277	1.026436
Cl404	Cl	1.713301	0.286277	1.276436
