data_functionalizedCrystal
_audit_creation_method	'MofGen! by Chris Wilmer'
_symmetry_space_group_name_H-M	'P1'
_symmetry_Int_Tables_number	1
_symmetry_cell_setting	triclinic
loop_
_symmetry_equiv_pos_as_xyz
  x,y,z
_cell_length_a	13.339070
_cell_length_b	23.532407
_cell_length_c	12.376457
_cell_angle_alpha	101.199798
_cell_angle_beta	75.589755
_cell_angle_gamma	99.238986
loop_
_atom_site_label
_atom_site_type_symbol
_atom_site_fract_x
_atom_site_fract_y
_atom_site_fract_z
O1	O	1.358915	0.277209	-0.094091
O2	O	1.064762	0.239795	-0.094078
O3	O	1.220704	0.177002	-0.094064
O4	O	1.202972	0.340002	-0.094105
O5	O	1.181733	0.192673	0.093944
O6	O	1.025790	0.255466	0.093930
O7	O	1.319944	0.292880	0.093918
Zn8	Zn	1.166679	0.276661	0.123774
Zn9	Zn	1.218026	0.256014	-0.123935
O10	O	1.164001	0.355673	0.093904
C11	C	1.007650	0.241311	-0.000072
C12	C	0.895536	0.222472	-0.000066
C13	C	0.529282	0.368949	-0.000121
C14	C	0.634619	0.386650	-0.000130
C15	C	0.699853	0.345607	-0.000113
C16	C	0.659741	0.286860	-0.000089
C17	C	0.554396	0.269156	-0.000089
C18	C	0.724966	0.245815	-0.000082
C19	C	0.684854	0.187068	-0.000057
C20	C	0.579519	0.169367	-0.000056
C21	C	0.514285	0.210410	-0.000073
C22	C	0.830312	0.263518	-0.000082
C23	C	0.855425	0.163726	-0.000050
C24	C	0.750088	0.146025	-0.000041
C25	C	1.200766	0.163549	-0.000057
C26	C	1.199406	0.100114	-0.000048
C27	C	1.283186	-0.285491	-0.000114
C28	C	1.281926	-0.345096	-0.000122
O29	O	1.359588	-0.369326	-0.000168
N30	N	1.189215	-0.382667	-0.000118
C31	C	1.097761	-0.360632	-0.000116
O32	O	1.018788	-0.398062	-0.000114
C33	C	1.099024	-0.301029	-0.000115
C34	C	1.191738	-0.263460	-0.000109
C35	C	1.375893	-0.247923	-0.000109
C36	C	1.377152	-0.188322	-0.000098
C37	C	1.285704	-0.166291	-0.000093
C38	C	1.192997	-0.203859	-0.000098
C39	C	1.007572	-0.278996	-0.000122
C40	C	1.008843	-0.219388	-0.000122
C41	C	1.101558	-0.181819	-0.000115
C42	C	1.102808	-0.122227	-0.000082
N43	N	1.195519	-0.084656	-0.000087
C44	C	1.286967	-0.106688	-0.000092
C45	C	1.095117	-0.485801	-0.000119
C46	C	1.093851	-0.545402	-0.000111
C47	C	1.278017	-0.529862	-0.000120
C48	C	1.279280	-0.470259	-0.000119
C49	C	1.187828	-0.448230	-0.000124
C50	C	1.289604	0.018477	-0.000069
C51	C	1.290854	0.078082	-0.000054
C52	C	1.106690	0.062536	-0.000051
C53	C	1.105438	0.002937	-0.000060
C54	C	1.196904	-0.019091	-0.000073
O55	O	1.025189	-0.097956	-0.000042
O56	O	1.365930	-0.069253	-0.000109
C57	C	1.377056	0.291365	-0.000091
C58	C	1.489171	0.310202	-0.000104
C59	C	1.183940	0.369126	-0.000106
C60	C	1.185301	0.432561	-0.000122
N61	N	1.131644	0.290753	0.292830
N62	N	1.253069	0.241919	-0.292990
C63	C	1.334398	0.209197	0.647833
C64	C	1.358914	0.199333	0.529495
C65	C	1.302098	0.222187	0.470323
C66	C	1.220763	0.254907	0.529500
C67	C	1.196250	0.264775	0.647849
C68	C	1.163950	0.277766	0.470339
C69	C	1.082615	0.310485	0.529516
C70	C	1.058106	0.320352	0.647854
C71	C	1.114922	0.297498	0.707026
C72	C	1.188463	0.267897	0.351990
C73	C	1.050315	0.323476	0.352007
C74	C	1.025800	0.333339	0.470344
H75	H	0.717415	0.098191	-0.000030
C76	C	1.390214	-0.005748	-0.000074
C77	C	1.446103	0.016991	0.097561
C78	C	1.546709	-0.007233	0.097565
C79	C	1.591426	-0.054196	-0.000065
C80	C	1.535537	-0.076937	-0.097708
C81	C	1.434931	-0.052713	-0.097712
H82	H	1.413001	0.051758	0.169840
H83	H	1.588082	0.009602	0.169847
H84	H	1.665901	-0.072128	-0.000062
H85	H	1.568639	-0.111704	-0.169986
H86	H	1.393558	-0.069548	-0.169994
H87	H	1.452651	-0.157738	-0.000097
C88	C	1.003459	-0.038397	-0.000072
C89	C	0.957024	-0.073393	0.097532
C90	C	0.855049	-0.114725	0.097501
C91	C	0.799509	-0.121061	-0.000134
C92	C	0.845944	-0.086064	-0.097746
C93	C	0.947919	-0.044732	-0.097715
H94	H	0.998138	-0.068704	0.169815
H95	H	0.820675	-0.140633	0.169760
H96	H	0.724021	-0.151658	-0.000158
H97	H	0.804830	-0.090753	-0.170028
H98	H	0.982293	-0.018824	-0.169974
H99	H	1.322062	0.214154	0.373967
C100	C	1.448371	0.163341	0.464399
C101	C	1.510870	0.138198	0.529471
C102	C	1.600331	0.102203	0.464371
C103	C	1.627294	0.091351	0.334198
C104	C	1.564793	0.116495	0.269119
C105	C	1.475332	0.152490	0.334219
H106	H	1.490912	0.146230	0.625839
H107	H	1.646598	0.083590	0.512547
H108	H	1.693518	0.064706	0.286007
H109	H	1.584751	0.108462	0.172751
H110	H	1.429065	0.171103	0.286043
C111	C	1.277921	0.231903	0.286904
C112	C	1.273510	0.168245	0.303201
C113	C	1.362973	0.132248	0.238116
C114	C	1.456846	0.159909	0.156733
C115	C	1.461261	0.223571	0.140432
C116	C	1.371798	0.259568	0.205518
H117	H	1.204016	0.147766	0.363449
H118	H	1.359704	0.085122	0.250183
H119	H	1.523071	0.133262	0.108553
H120	H	1.530755	0.244050	0.080185
H121	H	1.375067	0.306694	0.193450
H122	H	0.932076	-0.309576	-0.000134
H123	H	1.380655	0.190596	0.696018
H124	H	1.094959	0.305527	0.803387
H125	H	0.991886	0.347000	0.696036
C126	C	1.476496	-0.272149	-0.000108
C127	C	1.532384	-0.249403	0.097526
C128	C	1.632993	-0.273622	0.097537
C129	C	1.677715	-0.320587	-0.000086
C130	C	1.621826	-0.343336	-0.097728
C131	C	1.521217	-0.319117	-0.097739
H132	H	1.499279	-0.214634	0.169799
H133	H	1.674365	-0.256782	0.169818
H134	H	1.752191	-0.338516	-0.000078
H135	H	1.654931	-0.378105	-0.170001
H136	H	1.479845	-0.335957	-0.170020
C137	C	0.678744	0.451268	-0.000134
C138	C	0.767954	0.469028	-0.097758
C139	C	0.812082	0.533650	-0.097752
C140	C	0.766999	0.580512	-0.000124
C141	C	0.677785	0.562753	0.097507
C142	C	0.633657	0.498131	0.097502
H143	H	0.801331	0.434337	-0.170035
H144	H	0.878125	0.546796	-0.170026
H145	H	0.799665	0.628349	-0.000120
H146	H	0.644408	0.597444	0.169784
H147	H	0.567614	0.484985	0.169775
H148	H	1.004052	0.342087	0.303829
H149	H	0.862960	0.311351	-0.000097
H150	H	0.959575	0.359981	0.518541
H151	H	0.546866	0.121531	-0.000049
H152	H	0.476162	0.402358	-0.000144
H153	H	0.428510	0.196001	-0.000065
H154	H	0.785623	0.360023	-0.000123
H155	H	0.908540	0.130305	-0.000042
H156	H	1.366356	0.108670	-0.000045
H157	H	1.018350	-0.575985	-0.000097
H158	H	1.354776	-0.439674	-0.000115
H159	H	0.934370	-0.201456	-0.000127
H160	H	1.352480	-0.547811	-0.000128
H161	H	1.020638	-0.467869	-0.000112
H162	H	1.032235	0.080486	-0.000042
