data_functionalizedCrystal
_audit_creation_method	'MofGen! by Chris Wilmer'
_symmetry_space_group_name_H-M	'P1'
_symmetry_Int_Tables_number	1
_symmetry_cell_setting	triclinic
loop_
_symmetry_equiv_pos_as_xyz
  x,y,z
_cell_length_a	25.639243
_cell_length_b	25.639240
_cell_length_c	25.639233
_cell_angle_alpha	89.974071
_cell_angle_beta	89.984038
_cell_angle_gamma	90.035481
loop_
_atom_site_label
_atom_site_type_symbol
_atom_site_fract_x
_atom_site_fract_y
_atom_site_fract_z
Zn1	Zn	0.799247	-0.208176	-0.295630
Zn2	Zn	0.799179	-0.295595	-0.208183
Zn3	Zn	0.711823	-0.208180	-0.208203
Zn4	Zn	0.711777	-0.295587	-0.295582
O5	O	0.755506	-0.251885	-0.251900
O6	O	0.872403	-0.219775	-0.284041
O7	O	0.787582	-0.284004	-0.135020
O8	O	0.723467	-0.135014	-0.219829
O9	O	0.872353	-0.284001	-0.219794
O10	O	0.787697	-0.135012	-0.284061
O11	O	0.723402	-0.219781	-0.135035
O12	O	0.638652	-0.219772	-0.219783
O13	O	0.723389	-0.283987	-0.368754
O14	O	0.638618	-0.283990	-0.283980
O15	O	0.787653	-0.219767	-0.368789
O16	O	0.787538	-0.368759	-0.219749
O17	O	0.723324	-0.368753	-0.283960
C18	C	0.619664	-0.251881	-0.251879
C19	C	0.561550	-0.251892	-0.251882
C20	C	0.201207	-0.218495	-0.285409
C21	C	0.146603	-0.218494	-0.285412
O22	O	0.118383	-0.190088	-0.313891
N23	N	0.119267	-0.251883	-0.251914
C24	C	0.146539	-0.285271	-0.218407
O25	O	0.118274	-0.313670	-0.189914
C26	C	0.201142	-0.285268	-0.218401
C27	C	0.228475	-0.251881	-0.251905
C28	C	0.228540	-0.185109	-0.318909
C29	C	0.283140	-0.185111	-0.318907
C30	C	0.310408	-0.218497	-0.285403
C31	C	0.283076	-0.251882	-0.251903
C32	C	0.228413	-0.318653	-0.184892
C33	C	0.283020	-0.318647	-0.184889
C34	C	0.310353	-0.285260	-0.218393
C35	C	0.364944	-0.285270	-0.218396
N36	N	0.392279	-0.251881	-0.251894
C37	C	0.365011	-0.218494	-0.285398
C38	C	0.031869	-0.285273	-0.218420
C39	C	-0.022734	-0.285279	-0.218428
C40	C	-0.022667	-0.218501	-0.285432
C41	C	0.031937	-0.218498	-0.285427
C42	C	0.059204	-0.251884	-0.251918
C43	C	0.479676	-0.218500	-0.285390
C44	C	0.534282	-0.218506	-0.285386
C45	C	0.534210	-0.285281	-0.218380
C46	C	0.479609	-0.285278	-0.218385
C47	C	0.452344	-0.251883	-0.251892
O48	O	0.393198	-0.313659	-0.189930
O49	O	0.393283	-0.190095	-0.313881
C50	C	0.755433	-0.387727	-0.251859
C51	C	0.755449	-0.445841	-0.251859
C52	C	0.788967	-0.806164	-0.285405
C53	C	0.788983	-0.860769	-0.285416
O54	O	0.817394	-0.888972	-0.313897
N55	N	0.755579	-0.888124	-0.251950
C56	C	0.722154	-0.860871	-0.218475
O57	O	0.693742	-0.889153	-0.190011
C58	C	0.722136	-0.806268	-0.218467
C59	C	0.755546	-0.778916	-0.251932
C60	C	0.822374	-0.778812	-0.318867
C61	C	0.822359	-0.724212	-0.318856
C62	C	0.788938	-0.696963	-0.285383
C63	C	0.755531	-0.724315	-0.251920
C64	C	0.688708	-0.779017	-0.184996
C65	C	0.688693	-0.724410	-0.184991
C66	C	0.722103	-0.697058	-0.218455
C67	C	0.722095	-0.642466	-0.218435
N68	N	0.755499	-0.615112	-0.251901
C69	C	0.788920	-0.642360	-0.285375
C70	C	0.722193	-0.975542	-0.218494
C71	C	0.722213	-1.030144	-0.218499
C72	C	0.789041	-1.030038	-0.285441
C73	C	0.789024	-0.975435	-0.285433
C74	C	0.755597	-0.948187	-0.251960
C75	C	0.788887	-0.527695	-0.285348
C76	C	0.788870	-0.473090	-0.285332
C77	C	0.722040	-0.473201	-0.218392
C78	C	0.722058	-0.527801	-0.218406
C79	C	0.755483	-0.555047	-0.251888
O80	O	0.693697	-0.614229	-0.189971
O81	O	0.817322	-0.614072	-0.313839
C82	C	0.891879	-0.251888	-0.251921
C83	C	0.949993	-0.251890	-0.251930
C84	C	0.755523	-0.251875	-0.388273
C85	C	0.755530	-0.251871	-0.446387
C86	C	0.755595	-0.115511	-0.251952
C87	C	0.755633	-0.057397	-0.251975
C88	C	0.789035	-0.218333	-0.806774
C89	C	0.789041	-0.218318	-0.861378
O90	O	0.817486	-0.189864	-0.889635
N91	N	0.755588	-0.251749	-0.888669
C92	C	0.722122	-0.285192	-0.861354
O93	O	0.693668	-0.313626	-0.889581
C94	C	0.722114	-0.285204	-0.806750
C95	C	0.755573	-0.251775	-0.779462
C96	C	0.822491	-0.184906	-0.779485
C97	C	0.822485	-0.184921	-0.724884
C98	C	0.789023	-0.218363	-0.697572
C99	C	0.755567	-0.251790	-0.724861
C100	C	0.688646	-0.318644	-0.779436
C101	C	0.688640	-0.318653	-0.724828
C102	C	0.722099	-0.285223	-0.697540
C103	C	0.722099	-0.285247	-0.642949
N104	N	0.755552	-0.251817	-0.615657
C105	C	0.789014	-0.218375	-0.642969
C106	C	0.722143	-0.285165	-0.976024
C107	C	0.722154	-0.285157	-1.030627
C108	C	0.789072	-0.218282	-1.030647
C109	C	0.789063	-0.218293	-0.976044
C110	C	0.755596	-0.251735	-0.948733
C111	C	0.789000	-0.218410	-0.528304
C112	C	0.788992	-0.218429	-0.473699
C113	C	0.722072	-0.285302	-0.473683
C114	C	0.722081	-0.285285	-0.528283
C115	C	0.755547	-0.251834	-0.555593
O116	O	0.693668	-0.313686	-0.614657
O117	O	0.817459	-0.189941	-0.614735
C118	C	0.755520	-0.251856	-0.116057
C119	C	0.755614	-0.251713	-0.057943
H120	H	0.556421	-0.312465	-0.191103
O121	O	0.854828	-0.697727	-0.351416
C122	C	0.921135	-0.703405	-0.417792
C123	C	0.884381	-0.733459	-0.380950
H124	H	0.945046	-0.732281	-0.441672
H125	H	0.897131	-0.677861	-0.445141
H126	H	0.948463	-0.677816	-0.393806
H127	H	0.857045	-0.759076	-0.404894
H128	H	0.908417	-0.758969	-0.353600
H129	H	0.816308	-0.191071	-0.953829
O130	O	0.821559	-0.185901	-0.554746
C131	C	0.887914	-0.119557	-0.548989
C132	C	0.851074	-0.156350	-0.518979
H133	H	0.911780	-0.095647	-0.520085
H134	H	0.915277	-0.143529	-0.574538
H135	H	0.863927	-0.092228	-0.574569
H136	H	0.875019	-0.183685	-0.493371
H137	H	0.823710	-0.132345	-0.493464
H138	H	0.694830	-0.312531	-0.451436
O139	O	0.689652	-0.949133	-0.185997
C140	C	0.600726	-0.932511	-0.160542
C141	C	0.637519	-0.962457	-0.197368
H142	H	0.558569	-0.943264	-0.169730
H143	H	0.609901	-0.943278	-0.118387
H144	H	0.606474	-0.888788	-0.166271
H145	H	0.631792	-1.006187	-0.191686
H146	H	0.628336	-0.951647	-0.239510
O147	O	0.821530	-0.948844	-0.317869
C148	C	0.892078	-0.887106	-0.324974
C149	C	0.855305	-0.917192	-0.288178
H150	H	0.919386	-0.861500	-0.300985
H151	H	0.916005	-0.915944	-0.348888
H152	H	0.868036	-0.861574	-0.352300
H153	H	0.879306	-0.942724	-0.260821
H154	H	0.831376	-0.888326	-0.264301
H155	H	0.816101	-0.549872	-0.312616
H156	H	0.695013	-1.052410	-0.191243
O157	O	0.855000	-0.152394	-0.698461
C158	C	0.921391	-0.086081	-0.704265
C159	C	0.884586	-0.122886	-0.734249
H160	H	0.945329	-0.062221	-0.733186
H161	H	0.897426	-0.058710	-0.678720
H162	H	0.948693	-0.110094	-0.678684
H163	H	0.857277	-0.098915	-0.759858
H164	H	0.908584	-0.150258	-0.759761
H165	H	0.694889	-0.312400	-0.953791
O166	O	0.689555	-0.317686	-0.554850
C167	C	0.618934	-0.324690	-0.616449
C168	C	0.655753	-0.287943	-0.586411
H169	H	0.591589	-0.300658	-0.641965
H170	H	0.642887	-0.352016	-0.642052
H171	H	0.595043	-0.348606	-0.587534
H172	H	0.679651	-0.263994	-0.615288
H173	H	0.631769	-0.260651	-0.560800
O174	O	0.821341	-0.446601	-0.317892
C175	C	0.887649	-0.452269	-0.384269
C176	C	0.850896	-0.482329	-0.347431
H177	H	0.911561	-0.481141	-0.408152
H178	H	0.863644	-0.426723	-0.411615
H179	H	0.914976	-0.426682	-0.360279
H180	H	0.823561	-0.507944	-0.371378
H181	H	0.874934	-0.507841	-0.320083
H182	H	0.556534	-0.191317	-0.312670
O183	O	0.854924	-0.152361	-0.806033
C184	C	0.862030	-0.081767	-0.867708
C185	C	0.825234	-0.118584	-0.837673
H186	H	0.838041	-0.054457	-0.893305
H187	H	0.885925	-0.057844	-0.838838
H188	H	0.889372	-0.105774	-0.893245
H189	H	0.797860	-0.094618	-0.812135
H190	H	0.801376	-0.142509	-0.866572
O191	O	0.656167	-0.697918	-0.152549
C192	C	0.585583	-0.636316	-0.145435
C193	C	0.622376	-0.666293	-0.182235
H194	H	0.558261	-0.610732	-0.169421
H195	H	0.561671	-0.665224	-0.121530
H196	H	0.609608	-0.610772	-0.118102
H197	H	0.598392	-0.691839	-0.209600
H198	H	0.646290	-0.637357	-0.206103
H199	H	0.816241	-0.191207	-0.451483
O200	O	0.689592	-0.446645	-0.185928
C201	C	0.659974	-0.362566	-0.156236
C202	C	0.696743	-0.392576	-0.193034
H203	H	0.665751	-0.318846	-0.161961
H204	H	0.617800	-0.373293	-0.165383
H205	H	0.669177	-0.373347	-0.114091
H206	H	0.687588	-0.381811	-0.235191
H207	H	0.738906	-0.381846	-0.183842
H208	H	0.816254	-1.052233	-0.312698
O209	O	0.854770	-0.805300	-0.351441
C210	C	0.861796	-0.866914	-0.422032
C211	C	0.825042	-0.836946	-0.385185
H212	H	0.837776	-0.892515	-0.449316
H213	H	0.885656	-0.838000	-0.445981
H214	H	0.889172	-0.892440	-0.398047
H215	H	0.797634	-0.811418	-0.409130
H216	H	0.801218	-0.865888	-0.361234
O217	O	0.656202	-0.805497	-0.152473
C218	C	0.589928	-0.799816	-0.086065
C219	C	0.626710	-0.769763	-0.122879
H220	H	0.566082	-0.770938	-0.062120
H221	H	0.562544	-0.825373	-0.110022
H222	H	0.613959	-0.825390	-0.058770
H223	H	0.602721	-0.744161	-0.150181
H224	H	0.654096	-0.744239	-0.098889
H225	H	0.694857	-0.550072	-0.191153
O226	O	0.821523	-0.185806	-1.057264
C227	C	0.851195	-0.156167	-1.141400
C228	C	0.814415	-0.192962	-1.111320
H229	H	0.845469	-0.161948	-1.185109
H230	H	0.842033	-0.114000	-1.130710
H231	H	0.893345	-0.165338	-1.130643
H232	H	0.772253	-0.183838	-1.122060
H233	H	0.823622	-0.235119	-1.122012
H234	H	0.694913	-0.312384	-1.052840
O235	O	0.453277	-0.186047	-0.317990
C236	C	0.459121	-0.119799	-0.384434
C237	C	0.489083	-0.156530	-0.347546
H238	H	0.488057	-0.095917	-0.408332
H239	H	0.433568	-0.143819	-0.411764
H240	H	0.433551	-0.092442	-0.360482
H241	H	0.514681	-0.183894	-0.371456
H242	H	0.514603	-0.132477	-0.320215
O243	O	0.309606	-0.152623	-0.351464
C244	C	0.303889	-0.086404	-0.417936
C245	C	0.273857	-0.123166	-0.381085
H246	H	0.274999	-0.062586	-0.441903
H247	H	0.329444	-0.058993	-0.394006
H248	H	0.329465	-0.110449	-0.445209
H249	H	0.248253	-0.099164	-0.353805
H250	H	0.248336	-0.150579	-0.405047
O251	O	0.656091	-0.351131	-0.805854
C252	C	0.589728	-0.417473	-0.800047
C253	C	0.626565	-0.380698	-0.770065
H254	H	0.565854	-0.441395	-0.771124
H255	H	0.562372	-0.393485	-0.825595
H256	H	0.613717	-0.444791	-0.825625
H257	H	0.602618	-0.353374	-0.744459
H258	H	0.653922	-0.404719	-0.744549
O259	O	0.656205	-0.351166	-0.698239
C260	C	0.649123	-0.421794	-0.636601
C261	C	0.685910	-0.384997	-0.666671
H262	H	0.673125	-0.449163	-0.611079
H263	H	0.621806	-0.397824	-0.611000
H264	H	0.625200	-0.445660	-0.665494
H265	H	0.709866	-0.361123	-0.637815
H266	H	0.713192	-0.408996	-0.692280
H267	H	0.054187	-0.191310	-0.312708
O268	O	0.201999	-0.152750	-0.351485
C269	C	0.140422	-0.145826	-0.422131
C270	C	0.170431	-0.182531	-0.385256
H271	H	0.114901	-0.169890	-0.449451
H272	H	0.114828	-0.118455	-0.398220
H273	H	0.169356	-0.121958	-0.446045
H274	H	0.141535	-0.206433	-0.361333
H275	H	0.196034	-0.209867	-0.409197
H276	H	-0.044878	-0.191315	-0.312711
O277	O	0.309587	-0.351032	-0.152356
C278	C	0.393675	-0.380654	-0.122673
C279	C	0.363655	-0.343943	-0.159532
H280	H	0.437393	-0.374944	-0.128469
H281	H	0.382968	-0.371407	-0.080521
H282	H	0.382882	-0.422820	-0.131766
H283	H	0.374432	-0.301765	-0.150485
H284	H	0.374364	-0.353235	-0.201672
O285	O	-0.049201	-0.317732	-0.185837
C286	C	-0.043489	-0.383988	-0.119401
C287	C	-0.013454	-0.347254	-0.156278
H288	H	-0.014601	-0.407874	-0.095501
H289	H	-0.069032	-0.359971	-0.092072
H290	H	-0.069076	-0.411341	-0.143361
H291	H	0.012162	-0.319894	-0.132361
H292	H	0.012057	-0.371304	-0.183608
H293	H	0.054066	-0.312464	-0.191135
H294	H	0.206169	-0.345840	-0.157609
H295	H	0.457354	-0.312470	-0.191110
