data_functionalizedCrystal
_audit_creation_method	'MofGen! by Chris Wilmer'
_symmetry_space_group_name_H-M	'P1'
_symmetry_Int_Tables_number	1
_symmetry_cell_setting	triclinic
loop_
_symmetry_equiv_pos_as_xyz
  x,y,z
_cell_length_a	12.837943
_cell_length_b	15.995350
_cell_length_c	11.892095
_cell_angle_alpha	93.891441
_cell_angle_beta	85.689438
_cell_angle_gamma	89.160657
loop_
_atom_site_label
_atom_site_type_symbol
_atom_site_fract_x
_atom_site_fract_y
_atom_site_fract_z
O1	O	1.382080	0.212847	-0.093972
O2	O	1.080275	0.202094	-0.093979
O3	O	1.239427	0.086241	-0.093975
O4	O	1.222927	0.328700	-0.093977
O5	O	1.226157	0.095884	0.094032
O6	O	1.067005	0.211737	0.094028
O7	O	1.368810	0.222490	0.094035
Zn8	Zn	1.215800	0.218644	0.123881
Zn9	Zn	1.233284	0.205939	-0.123826
O10	O	1.209657	0.338343	0.094030
C11	C	1.035019	0.203283	0.000023
C12	C	0.919942	0.192449	0.000020
C13	C	0.678983	0.322688	0.000035
C14	C	0.570857	0.312513	0.000033
C15	C	0.595563	0.161925	0.000023
C16	C	0.703688	0.172100	0.000025
C17	C	0.745394	0.252484	0.000029
C18	C	0.853523	0.262658	0.000023
C19	C	0.878225	0.112072	0.000020
C20	C	0.770100	0.101896	0.000018
C21	C	1.232110	0.059813	0.000027
C22	C	1.230066	-0.033301	0.000020
C23	C	1.222721	-0.371634	0.000024
C24	C	1.109405	-0.333265	-0.000400
C25	C	1.111421	-0.236390	0.000023
C26	C	1.226364	-0.203783	0.000021
C27	C	1.274693	-0.234893	0.107382
C28	C	1.271839	-0.331752	0.107472
C29	C	1.289271	-0.342889	-0.106327
C30	C	1.289344	-0.246018	-0.107746
C31	C	1.228429	-0.108921	0.000024
C32	C	1.220659	-0.466496	0.000029
C33	C	1.414066	0.221301	0.000030
C34	C	1.529143	0.232134	0.000025
C35	C	1.216974	0.364770	0.000026
C36	C	1.219020	0.457884	0.000025
N37	N	1.203876	0.227315	0.292935
N38	N	1.245217	0.197262	-0.292880
C39	C	1.328193	0.136877	0.529587
C40	C	1.319865	0.142945	0.647928
C41	C	1.178889	0.245514	0.647962
C42	C	1.187216	0.239446	0.529621
C43	C	1.261872	0.185127	0.470437
C44	C	1.270204	0.179064	0.352093
C45	C	1.129223	0.281628	0.352129
C46	C	1.120896	0.287696	0.470471
H47	H	0.712940	0.388139	0.000037
N48	N	1.404390	0.081378	0.469063
N49	N	1.376064	0.023411	0.403037
H50	H	1.429861	-0.015791	0.360268
H51	H	1.254075	-0.226105	-0.187169
H52	H	1.373869	0.103654	0.696085
N53	N	1.102631	0.300981	0.708445
N54	N	1.095204	0.306381	0.814106
H55	H	1.041345	0.345555	0.856825
H56	H	1.230224	-0.205512	0.187277
N57	N	1.059357	-0.366003	-0.096962
N58	N	0.968353	-0.342623	-0.111706
H59	H	0.933002	-0.365750	-0.179903
N60	N	1.249987	-0.377612	-0.208402
N61	N	1.172455	-0.423973	-0.204002
H62	H	1.144701	-0.448500	-0.276087
N63	N	1.061469	0.330931	0.291729
N64	N	1.061962	0.409115	0.304960
H65	H	1.014114	0.443939	0.262305
H66	H	1.060110	0.331919	0.518672
H67	H	0.516788	0.369680	0.000041
N68	N	0.552932	0.079828	0.000030
N69	N	0.456389	0.070760	0.000037
H70	H	0.426279	0.012778	0.000042
N71	N	0.727475	0.019797	0.000022
N72	N	0.630934	0.010721	0.000025
H73	H	0.600830	-0.047263	0.000026
H74	H	0.887477	0.328111	0.000028
H75	H	0.932310	0.054906	0.000008
N76	N	1.063100	-0.210092	-0.096523
N77	N	1.027647	-0.263326	-0.164688
H78	H	0.993513	-0.244758	-0.232875
N79	N	1.046052	-0.357439	0.095643
N80	N	1.083994	-0.402803	0.164402
H81	H	1.039254	-0.419878	0.232235
H82	H	1.373623	-0.224301	-0.114230
H83	H	1.225408	-0.349189	0.187727
H84	H	1.061738	-0.208101	0.077113
N85	N	1.375802	-0.363556	0.113596
N86	N	1.450231	-0.314210	0.117799
H87	H	1.523654	-0.336668	0.122132
H88	H	1.330995	0.134837	0.303907
H89	H	1.358857	-0.213825	0.111373
N90	N	1.394172	-0.374405	-0.107214
N91	N	1.419938	-0.417854	-0.029943
H92	H	1.494022	-0.440113	-0.030557
