data_functionalizedCrystal
_audit_creation_method	'MofGen! by Chris Wilmer'
_symmetry_space_group_name_H-M	'P1'
_symmetry_Int_Tables_number	1
_symmetry_cell_setting	triclinic
loop_
_symmetry_equiv_pos_as_xyz
  x,y,z
_cell_length_a	19.288864
_cell_length_b	9.065218
_cell_length_c	17.766277
_cell_angle_alpha	89.995554
_cell_angle_beta	89.976791
_cell_angle_gamma	84.076066
loop_
_atom_site_label
_atom_site_type_symbol
_atom_site_fract_x
_atom_site_fract_y
_atom_site_fract_z
O1	O	0.922782	0.184032	-0.062833
O2	O	0.720714	0.208857	-0.062781
O3	O	0.825925	-0.018344	-0.062807
O4	O	0.817571	0.411233	-0.062808
O5	O	0.825906	-0.018356	0.062382
O6	O	0.720695	0.208846	0.062407
O7	O	0.922763	0.184020	0.062355
Cu8	Cu	0.821727	0.196432	0.073812
Cu9	Cu	0.821750	0.196445	-0.074238
O10	O	0.817552	0.411222	0.062381
C11	C	0.694822	0.208053	-0.000180
C12	C	0.617700	0.205655	-0.000161
C13	C	0.574039	0.338966	-0.000173
C14	C	0.501574	0.336713	-0.000181
C15	C	0.472774	0.201142	-0.000192
C16	C	0.516445	0.067812	-0.000176
C17	C	0.588908	0.070069	-0.000160
C18	C	0.363691	0.094571	-0.044077
C19	C	0.291229	0.092320	-0.044097
C20	C	0.249274	0.194176	-0.000238
C21	C	0.279789	0.298308	0.043632
C22	C	0.352252	0.300565	0.043648
C23	C	0.394201	0.198680	-0.000209
C24	C	0.127038	0.325054	-0.000258
C25	C	0.054572	0.322796	-0.000262
C26	C	0.069445	0.053891	-0.000264
C27	C	0.141909	0.056153	-0.000253
C28	C	0.170701	0.191739	-0.000253
C29	C	0.825112	-0.073309	-0.000213
C30	C	0.822712	-0.237067	-0.000216
C31	C	0.948655	0.184825	-0.000247
C32	C	1.025777	0.187223	-0.000272
C33	C	0.818365	0.466186	-0.000214
C34	C	0.820765	0.629945	-0.000216
N35	N	0.821717	0.196421	0.177942
N36	N	0.821766	0.196444	-0.178368
C37	C	0.868320	0.095866	0.217318
C38	C	0.868324	0.095859	0.296120
C39	C	0.821732	0.196433	0.335543
C40	C	0.775120	0.296996	0.296158
C41	C	0.775113	0.296991	0.217358
C42	C	0.813476	0.330849	0.460382
C43	C	0.813489	0.330856	0.539181
C44	C	0.821750	0.196451	0.578589
C45	C	0.830014	0.062032	0.539189
C46	C	0.830007	0.062026	0.460389
C47	C	0.821734	0.196450	0.420989
C48	C	0.868360	0.095879	0.703411
C49	C	0.868359	0.095871	0.782214
C50	C	0.775159	0.297021	0.782251
C51	C	0.775156	0.297017	0.703449
C52	C	0.821761	0.196448	0.664034
H53	H	0.624457	-0.038493	-0.000151
H54	H	0.150482	0.435456	-0.000247
H55	H	0.906307	0.013978	0.814274
H56	H	0.836741	-0.047414	0.571274
C57	C	0.385817	0.415086	0.091907
H58	H	0.350457	0.475423	0.118032
H59	H	0.410811	0.475534	0.060297
H60	H	0.416884	0.364942	0.127182
H61	H	0.245630	0.381248	0.079347
C62	C	0.006544	0.469446	-0.000275
H63	H	0.034073	0.550512	-0.000280
H64	H	-0.022056	0.474162	0.043375
H65	H	-0.022008	0.474148	-0.043942
C66	C	0.919590	-0.014748	0.339446
H67	H	0.912916	-0.000343	0.392021
H68	H	0.966040	0.001031	0.326505
H69	H	0.911431	-0.113176	0.326546
H70	H	0.906306	0.013985	0.671318
H71	H	0.492991	-0.042571	-0.000196
C72	C	0.723907	0.407654	0.660130
H73	H	0.730574	0.393244	0.607554
H74	H	0.732073	0.506066	0.673037
H75	H	0.677450	0.391888	0.673066
H76	H	0.045997	-0.056494	-0.000320
H77	H	0.177459	-0.052404	-0.000247
C78	C	0.453535	0.483357	-0.000198
H79	H	0.406255	0.462591	-0.000203
H80	H	0.462379	0.538968	-0.043853
H81	H	0.462328	0.538972	0.043465
H82	H	0.906266	0.013973	0.185229
H83	H	0.266390	0.007536	-0.079822
C84	C	0.723872	0.407629	0.339520
H85	H	0.730556	0.393242	0.392090
H86	H	0.677417	0.391859	0.326635
H87	H	0.732035	0.506050	0.326592
H88	H	0.836734	-0.047423	0.428313
C89	C	0.804404	0.478708	0.582514
H90	H	0.799471	0.558754	0.547760
H91	H	0.844143	0.486688	0.613229
H92	H	0.763981	0.481909	0.613278
C93	C	0.723908	0.407651	0.825606
H94	H	0.730588	0.393259	0.878177
H95	H	0.677454	0.391882	0.812718
H96	H	0.732072	0.506072	0.812682
H97	H	0.806737	0.440305	0.428302
C98	C	0.723852	0.407617	0.174043
H99	H	0.696105	0.467522	0.208805
H100	H	0.694608	0.354707	0.143318
H101	H	0.749225	0.468897	0.143290
H102	H	0.597476	0.449370	-0.000175
H103	H	0.397845	0.011625	-0.079796
