data_functionalizedCrystal
_audit_creation_method	'MofGen! by Chris Wilmer'
_symmetry_space_group_name_H-M	'P1'
_symmetry_Int_Tables_number	1
_symmetry_cell_setting	triclinic
loop_
_symmetry_equiv_pos_as_xyz
  x,y,z
_cell_length_a	10.654554
_cell_length_b	11.792254
_cell_length_c	9.130313
_cell_angle_alpha	89.998555
_cell_angle_beta	89.999583
_cell_angle_gamma	84.342720
loop_
_atom_site_label
_atom_site_type_symbol
_atom_site_fract_x
_atom_site_fract_y
_atom_site_fract_z
O1	O	1.667388	0.159439	-0.121806
O2	O	1.301868	0.174622	-0.121808
O3	O	1.493490	0.001882	-0.121797
O4	O	1.475766	0.332180	-0.121818
O5	O	1.493487	0.001886	0.121802
O6	O	1.301865	0.174627	0.121791
O7	O	1.667385	0.159444	0.121792
Cu8	Cu	1.484625	0.167036	0.144034
Cu9	Cu	1.484628	0.167030	-0.144050
O10	O	1.475763	0.332184	0.121781
C11	C	1.255072	0.173509	-0.000009
C12	C	1.115638	0.170170	-0.000009
C13	C	0.933376	0.062185	-0.000015
C14	C	1.064389	0.065321	-0.000004
C15	C	1.035866	0.271889	-0.000009
C16	C	0.904856	0.268752	-0.000009
C17	C	0.882135	-0.042670	-0.000025
C18	C	0.961898	-0.144390	-0.000022
C19	C	1.092910	-0.141254	-0.000011
C20	C	1.144161	-0.036398	-0.000004
C21	C	1.492372	-0.040409	0.000002
C22	C	1.489030	-0.166430	0.000001
C23	C	1.486315	-0.268773	-0.000004
C24	C	1.482920	-0.397167	-0.000018
C25	C	1.714181	0.160558	-0.000010
C26	C	1.853615	0.163896	-0.000019
C27	C	1.476881	0.374475	-0.000021
C28	C	1.480223	0.500496	-0.000029
N29	N	1.484632	0.167039	0.346657
N30	N	1.484631	0.167018	-0.346672
C31	C	1.569504	0.090576	0.423314
C32	C	1.569501	0.090562	0.576651
C33	C	1.399750	0.243485	0.576660
C34	C	1.399748	0.243492	0.423326
C35	C	1.654389	0.014123	0.346645
C36	C	1.739269	-0.062346	0.423302
C37	C	1.739265	-0.062360	0.576638
C38	C	1.654382	0.014095	0.653318
H39	H	1.250841	-0.033852	0.000018
H40	H	0.775459	-0.045236	-0.000037
H41	H	1.330642	0.305733	0.639103
C42	C	0.905527	-0.259721	-0.000029
H43	H	0.816078	-0.247024	-0.000050
H44	H	0.932851	-0.301647	0.084920
H45	H	0.932864	-0.301639	-0.084987
C46	C	0.817109	0.380628	-0.000015
H47	H	0.731746	0.363739	0.000000
H48	H	0.832714	0.423584	-0.084962
H49	H	0.832719	0.423575	0.084945
C50	C	1.654393	0.014141	0.177980
H51	H	1.591694	0.070636	0.143306
H52	H	1.636726	-0.058546	0.143275
H53	H	1.734768	0.030371	0.143306
C54	C	1.180645	-0.253137	-0.000007
H55	H	1.131360	-0.316030	-0.000024
H56	H	1.232346	-0.256215	0.084941
H57	H	1.232344	-0.256202	-0.084966
C58	C	1.092234	0.387222	-0.000018
H59	H	1.025966	0.447350	-0.000011
H60	H	1.142748	0.392735	-0.084968
H61	H	1.142748	0.392741	0.084939
H62	H	1.808371	-0.124600	0.360861
H63	H	1.330636	0.305755	0.360911
C64	C	1.654369	0.014079	0.821985
H65	H	1.591660	0.070560	0.856669
H66	H	1.734737	0.030285	0.856682
H67	H	1.636679	-0.058618	0.856659
C68	C	1.832624	-0.146471	0.660958
H69	H	1.883180	-0.191993	0.593331
H70	H	1.787136	-0.194109	0.720771
H71	H	1.885179	-0.105192	0.720774
