data_functionalizedCrystal
_audit_creation_method	'MofGen! by Chris Wilmer'
_symmetry_space_group_name_H-M	'P1'
_symmetry_Int_Tables_number	1
_symmetry_cell_setting	triclinic
loop_
_symmetry_equiv_pos_as_xyz
  x,y,z
_cell_length_a	16.992694
_cell_length_b	15.455313
_cell_length_c	16.974813
_cell_angle_alpha	89.012317
_cell_angle_beta	92.975366
_cell_angle_gamma	92.857794
loop_
_atom_site_label
_atom_site_type_symbol
_atom_site_fract_x
_atom_site_fract_y
_atom_site_fract_z
O1	O	-1.044194	-0.083524	0.163896
O2	O	-0.710861	0.249809	0.497230
O3	O	-0.377528	0.583142	0.830563
O4	O	-0.815906	-0.083421	0.162062
O5	O	-0.482573	0.249912	0.495395
O6	O	-0.149240	0.583246	0.828728
O7	O	-0.936031	-0.075442	0.048638
O8	O	-0.602698	0.257892	0.381972
O9	O	-0.269365	0.591225	0.715305
O10	O	-0.924070	-0.091503	0.277319
O11	O	-0.590736	0.241830	0.610653
O12	O	-0.257403	0.575163	0.943986
O13	O	-0.929162	0.068366	0.055096
O14	O	-0.595829	0.401699	0.388429
O15	O	-0.262495	0.735033	0.721763
O16	O	-0.809037	0.060387	0.168519
O17	O	-0.475704	0.393720	0.501852
O18	O	-0.142370	0.727054	0.835186
O19	O	-1.037325	0.060284	0.170354
O20	O	-0.703992	0.393617	0.503687
O21	O	-0.370658	0.726950	0.837020
Cu22	Cu	-0.922554	0.073466	0.170026
Cu23	Cu	-0.589220	0.406799	0.503359
Cu24	Cu	-0.255887	0.740133	0.836693
Cu25	Cu	-0.930678	-0.096603	0.162389
Cu26	Cu	-0.597344	0.236730	0.495723
Cu27	Cu	-0.264011	0.570063	0.829056
O28	O	-0.917200	0.052304	0.283777
O29	O	-0.583867	0.385638	0.617110
O30	O	-0.250534	0.718971	0.950444
C31	C	-0.783254	-0.011355	0.162932
C32	C	-0.449920	0.321979	0.496265
C33	C	-0.116587	0.655312	0.829598
C34	C	-0.696194	-0.010870	0.155894
C35	C	-0.362861	0.322463	0.489227
C36	C	-0.029527	0.655796	0.822560
C37	C	-0.932014	-0.001475	0.022471
C38	C	-0.598681	0.331858	0.355804
C39	C	-0.265347	0.665191	0.689137
C40	C	-0.930269	0.004671	-0.065122
C41	C	-0.596935	0.338004	0.268212
C42	C	-0.263602	0.671337	0.601545
C43	C	-1.069978	-0.011785	0.169484
C44	C	-0.736644	0.321549	0.502817
C45	C	-0.403311	0.654882	0.836150
C46	C	-1.157038	-0.012274	0.176521
C47	C	-0.823704	0.321059	0.509855
C48	C	-0.490371	0.654392	0.843188
N49	N	-0.916846	0.193084	0.175397
N50	N	-0.583512	0.526417	0.508731
N51	N	-0.250179	0.859750	0.842064
C52	C	-0.646108	-0.015639	0.223795
C53	C	-0.312774	0.317694	0.557128
C54	C	0.020559	0.651028	0.890462
C55	C	-0.564306	-0.015162	0.217179
C56	C	-0.230972	0.318171	0.550512
C57	C	0.102361	0.651504	0.883845
C58	C	-0.532592	-0.009923	0.142660
C59	C	-0.199258	0.323410	0.475993
C60	C	0.134075	0.656743	0.809326
C61	C	-0.582684	-0.005152	0.074753
C62	C	-0.249351	0.328181	0.408087
C63	C	0.083982	0.661515	0.741420
C64	C	-0.664485	-0.005622	0.081371
C65	C	-0.331151	0.327711	0.414704
C66	C	0.002182	0.661044	0.748037
C67	C	-0.288931	-0.007974	0.115232
C68	C	0.044403	0.325360	0.448566
C69	C	0.377736	0.658693	0.781899
C70	C	-0.207124	-0.007506	0.108620
C71	C	0.126209	0.325827	0.441953
C72	C	0.459543	0.659161	0.775287
C73	C	-0.188751	-0.017515	0.251046
C74	C	0.144583	0.315818	0.584379
C75	C	0.477916	0.649152	0.917713
C76	C	-0.270554	-0.017990	0.257657
C77	C	0.062780	0.315343	0.590990
C78	C	0.396113	0.648677	0.924323
C79	C	-0.320639	-0.013214	0.189751
C80	C	0.012694	0.320119	0.523084
C81	C	0.346028	0.653452	0.856417
N82	N	-0.448977	-0.009439	0.135895
N83	N	-0.115644	0.323895	0.469228
N84	N	0.217690	0.657228	0.802561
N85	N	-0.404252	-0.013693	0.196517
N86	N	-0.070918	0.319641	0.529850
N87	N	0.262415	0.652974	0.863183
N88	N	-0.936392	-0.216221	0.157012
N89	N	-0.603059	0.117113	0.490346
N90	N	-0.269725	0.450446	0.823679
C91	C	-0.967897	0.241866	0.127231
C92	C	-0.634563	0.575200	0.460564
C93	C	-0.301230	0.908533	0.793898
C94	C	-0.963587	0.332388	0.131301
C95	C	-0.630254	0.665721	0.464634
C96	C	-0.296921	0.999055	0.797968
C97	C	-0.908230	0.374125	0.183541
C98	C	-0.574896	0.707458	0.516875
C99	C	-0.241563	1.040792	0.850208
C100	C	-0.857173	0.325336	0.231709
C101	C	-0.523840	0.658669	0.565043
C102	C	-0.190507	0.992003	0.898376
C103	C	-0.861480	0.234816	0.227635
C104	C	-0.528146	0.568150	0.560968
C105	C	-0.194813	0.901483	0.894302
C106	C	-0.889642	0.644471	0.201106
C107	C	-0.556308	0.977804	0.534439
C108	C	-0.222975	1.311137	0.867773
C109	C	-0.885341	0.734997	0.205178
C110	C	-0.552007	1.068330	0.538512
C111	C	-0.218674	1.401663	0.871845
C112	C	-0.991754	0.742043	0.104768
C113	C	-0.658421	1.075376	0.438102
C114	C	-0.325088	1.408709	0.771435
C115	C	-0.996059	0.651521	0.100702
C116	C	-0.662726	0.984854	0.434035
C117	C	-0.329392	1.318187	0.767369
C118	C	-0.945000	0.602740	0.148867
C119	C	-0.611666	0.936073	0.482201
C120	C	-0.278333	1.269406	0.815534
N121	N	-0.903825	0.466652	0.187704
N122	N	-0.570492	0.799986	0.521038
N123	N	-0.237158	1.133319	0.854371
N124	N	-0.949401	0.510214	0.144700
N125	N	-0.616068	0.843548	0.478033
N126	N	-0.282735	1.176881	0.811366
C127	C	-0.933195	-0.070831	-0.109788
C128	C	-0.599862	0.262502	0.223545
C129	C	-0.266528	0.595836	0.556878
C130	C	-0.931550	-0.065054	-0.192090
C131	C	-0.598216	0.268280	0.141243
C132	C	-0.264883	0.601613	0.474577
C133	C	-0.926984	0.016226	-0.229724
C134	C	-0.593651	0.349560	0.103609
C135	C	-0.260317	0.682893	0.436942
C136	C	-0.924055	0.091734	-0.185052
C137	C	-0.590722	0.425067	0.148282
C138	C	-0.257388	0.758400	0.481615
C139	C	-0.925695	0.085955	-0.102751
C140	C	-0.592361	0.419289	0.230582
C141	C	-0.259028	0.752622	0.563916
C142	C	-0.921674	0.041914	-0.475490
C143	C	-0.588340	0.375247	-0.142156
C144	C	-0.255007	0.708580	0.191177
C145	C	-0.920037	0.047686	-0.557797
C146	C	-0.586703	0.381020	-0.224463
C147	C	-0.253370	0.714353	0.108870
C148	C	-0.927530	-0.109102	-0.564829
C149	C	-0.594197	0.224231	-0.231496
C150	C	-0.260863	0.557565	0.101837
C151	C	-0.929174	-0.114873	-0.482527
C152	C	-0.595841	0.218460	-0.149194
C153	C	-0.262507	0.551794	0.184140
C154	C	-0.926241	-0.039366	-0.437861
C155	C	-0.592908	0.293968	-0.104528
C156	C	-0.259574	0.627301	0.228805
N157	N	-0.925305	0.022134	-0.313850
N158	N	-0.591971	0.355467	0.019483
N159	N	-0.258638	0.688800	0.352816
N160	N	-0.927914	-0.045274	-0.353737
N161	N	-0.594581	0.288059	-0.020403
N162	N	-0.261248	0.621393	0.312930
C163	C	-0.921218	-0.021664	0.309944
C164	C	-0.587884	0.311669	0.643278
C165	C	-0.254551	0.645003	0.976611
C166	C	-0.922963	-0.027816	0.397537
C167	C	-0.589630	0.305518	0.730870
C168	C	-0.256296	0.638851	1.064203
H169	H	-0.671922	-0.019906	0.284476
H170	H	-0.338589	0.313428	0.617810
H171	H	-0.005256	0.646761	0.951143
C172	C	-0.922476	0.169004	-0.053614
C173	C	-0.589142	0.502338	0.279719
C174	C	-0.255809	0.835671	0.613052
H175	H	-0.924097	0.153923	0.000791
H176	H	-0.590764	0.487256	0.334125
H177	H	-0.257431	0.820590	0.667458
H178	H	-0.966354	0.202391	-0.068784
H179	H	-0.633021	0.535724	0.264549
H180	H	-0.299688	0.869058	0.597882
H181	H	-0.874972	0.201931	-0.062527
H182	H	-0.541639	0.535264	0.270807
H183	H	-0.208306	0.868598	0.604140
H184	H	-1.033324	0.781768	0.065554
H185	H	-0.699990	1.115102	0.398887
H186	H	-0.366657	1.448435	0.732220
C187	C	-0.305433	-0.023740	0.339628
C188	C	0.027901	0.309593	0.672961
C189	C	0.361234	0.642926	1.006295
H190	H	-0.263886	-0.026503	0.379122
H191	H	0.069447	0.306831	0.712455
H192	H	0.402781	0.640164	1.045788
H193	H	-0.339352	-0.074278	0.342922
H194	H	-0.006019	0.259055	0.676255
H195	H	0.327315	0.592388	1.009589
H196	H	-0.334569	0.026027	0.347416
H197	H	-0.001236	0.359360	0.680750
H198	H	0.332097	0.692693	1.014083
C199	C	-0.547805	0.000610	-0.007218
C200	C	-0.214472	0.333943	0.326116
C201	C	0.118862	0.667277	0.659449
H202	H	-0.589352	0.003390	-0.046709
H203	H	-0.256019	0.336723	0.286624
H204	H	0.077314	0.670057	0.619957
H205	H	-0.518666	-0.049148	-0.015013
H206	H	-0.185332	0.284185	0.318321
H207	H	0.148001	0.617519	0.651654
H208	H	-0.513888	0.051156	-0.010506
H209	H	-0.180555	0.384489	0.322827
H210	H	0.152778	0.717823	0.656160
C211	C	-0.805327	0.181155	0.280621
C212	C	-0.471993	0.514488	0.613954
C213	C	-0.138660	0.847822	0.947288
H214	H	-0.771746	0.218975	0.312323
H215	H	-0.438412	0.552308	0.645656
H216	H	-0.105079	0.885641	0.978989
H217	H	-0.774301	0.147988	0.248605
H218	H	-0.440968	0.481321	0.581939
H219	H	-0.107634	0.814655	0.915272
H220	H	-0.835293	0.143406	0.313637
H221	H	-0.501960	0.476739	0.646970
H222	H	-0.168627	0.810073	0.980304
H223	H	-0.523528	-0.019046	0.272471
H224	H	-0.190195	0.314287	0.605805
H225	H	0.143139	0.647620	0.939138
C226	C	-0.133656	-0.022757	0.325736
C227	C	0.199677	0.310577	0.659069
C228	C	0.533011	0.643910	0.992403
H229	H	-0.080396	-0.021719	0.311126
H230	H	0.252937	0.311614	0.644459
H231	H	0.586271	0.644948	0.977792
H232	H	-0.145674	-0.075036	0.353831
H233	H	0.187660	0.258297	0.687164
H234	H	0.520993	0.591631	1.020498
H235	H	-0.140901	0.025269	0.358328
H236	H	0.192433	0.358602	0.691661
H237	H	0.525766	0.691935	1.024995
H238	H	-0.919301	0.103397	-0.439134
H239	H	-0.585968	0.436731	-0.105800
H240	H	-0.252634	0.770064	0.227533
C241	C	-0.719580	-0.000386	0.006679
C242	C	-0.386247	0.332948	0.340012
C243	C	-0.052913	0.666281	0.673346
H244	H	-0.688979	0.002792	-0.038650
H245	H	-0.355645	0.336126	0.294683
H246	H	-0.022312	0.669459	0.628016
H247	H	-0.749487	0.049786	0.008550
H248	H	-0.416153	0.383119	0.341883
H249	H	-0.082820	0.716453	0.675217
H250	H	-0.754258	-0.050518	0.004050
H251	H	-0.420925	0.282815	0.337384
H252	H	-0.087591	0.616148	0.670717
C253	C	-1.028789	0.195963	0.069765
C254	C	-0.695456	0.529297	0.403098
C255	C	-0.362123	0.862630	0.736432
H256	H	-1.058571	0.237985	0.041657
H257	H	-0.725237	0.571318	0.374990
H258	H	-0.391904	0.904652	0.708324
H259	H	-1.063177	0.158505	0.098600
H260	H	-0.729843	0.491838	0.431933
H261	H	-0.396510	0.825172	0.765266
H262	H	-1.002181	0.163093	0.033571
H263	H	-0.668848	0.496426	0.366904
H264	H	-0.335515	0.829760	0.700237
H265	H	-0.840260	0.768974	0.247722
H266	H	-0.506926	1.102308	0.581055
H267	H	-0.173593	1.435641	0.914389
C268	C	-1.019751	0.386045	0.078326
C269	C	-0.686418	0.719378	0.411659
C270	C	-0.353084	1.052711	0.744993
H271	H	-1.053345	0.348222	0.046639
H272	H	-0.720011	0.681556	0.379972
H273	H	-0.386678	1.014889	0.713306
H274	H	-0.989798	0.423797	0.045308
H275	H	-0.656465	0.757131	0.378641
H276	H	-0.323131	1.090464	0.711975
H277	H	-1.050776	0.419207	0.110354
H278	H	-0.717442	0.752540	0.443687
H279	H	-0.384109	1.085874	0.777020
H280	H	-1.041135	0.617540	0.058164
H281	H	-0.707802	0.950874	0.391497
H282	H	-0.374469	1.284207	0.724831
C283	C	-0.833485	0.590823	0.254093
C284	C	-0.500152	0.924156	0.587426
C285	C	-0.166819	1.257489	0.920759
H286	H	-0.799908	0.628646	0.285794
H287	H	-0.466575	0.961979	0.619127
H288	H	-0.133241	1.295313	0.952461
H289	H	-0.802456	0.557656	0.222080
H290	H	-0.469123	0.890989	0.555414
H291	H	-0.135789	1.224322	0.888747
H292	H	-0.863452	0.553074	0.287109
H293	H	-0.530118	0.886407	0.620442
H294	H	-0.196785	1.219740	0.953776
H295	H	-0.812096	0.359324	0.274242
H296	H	-0.478763	0.692657	0.607575
H297	H	-0.145429	1.025990	0.940908
H298	H	-0.936917	-0.137018	-0.079153
H299	H	-0.603584	0.196315	0.254180
H300	H	-0.270250	0.529649	0.587514
C301	C	-0.919036	0.181140	-0.226447
C302	C	-0.585702	0.514473	0.106886
C303	C	-0.252369	0.847806	0.440219
H304	H	-0.918487	0.173769	-0.281861
H305	H	-0.585154	0.507102	0.051472
H306	H	-0.251820	0.840436	0.384806
H307	H	-0.872078	0.212181	-0.208385
H308	H	-0.538745	0.545514	0.124948
H309	H	-0.205412	0.878848	0.458282
H310	H	-0.963461	0.212624	-0.214643
H311	H	-0.630128	0.545957	0.118691
H312	H	-0.296794	0.879290	0.452024
H313	H	-0.933936	-0.126535	-0.228455
H314	H	-0.600603	0.206798	0.104879
H315	H	-0.267269	0.540131	0.438212
C316	C	-0.915017	0.137096	-0.599197
C317	C	-0.581684	0.470429	-0.265864
C318	C	-0.248351	0.803763	0.067469
H319	H	-0.914473	0.129720	-0.654610
H320	H	-0.581139	0.463053	-0.321277
H321	H	-0.247806	0.796386	0.012056
H322	H	-0.868059	0.168138	-0.581140
H323	H	-0.534725	0.501472	-0.247807
H324	H	-0.201392	0.834805	0.085527
H325	H	-0.959442	0.168582	-0.587392
H326	H	-0.626108	0.501915	-0.254059
H327	H	-0.292775	0.835248	0.079274
H328	H	-0.181306	-0.003241	0.047935
H329	H	0.152027	0.330093	0.381268
H330	H	0.485360	0.663426	0.714601
H331	H	-0.329701	-0.004084	0.059938
H332	H	0.003633	0.329249	0.393271
H333	H	0.336966	0.662583	0.726605
H334	H	-0.932893	-0.181060	-0.451891
H335	H	-0.599560	0.152274	-0.118558
H336	H	-0.266226	0.485607	0.214775
H337	H	-0.929917	-0.170576	-0.601205
H338	H	-0.596583	0.162758	-0.267872
H339	H	-0.263250	0.496091	0.065462
