data_functionalizedCrystal
_audit_creation_method	'MofGen! by Chris Wilmer'
_symmetry_space_group_name_H-M	'P1'
_symmetry_Int_Tables_number	1
_symmetry_cell_setting	triclinic
loop_
_symmetry_equiv_pos_as_xyz
  x,y,z
_cell_length_a	12.594517
_cell_length_b	29.839131
_cell_length_c	12.594509
_cell_angle_alpha	90.042620
_cell_angle_beta	90.011478
_cell_angle_gamma	90.031117
loop_
_atom_site_label
_atom_site_type_symbol
_atom_site_fract_x
_atom_site_fract_y
_atom_site_fract_z
Zn1	Zn	1.627125	-0.178889	0.601474
Zn2	Zn	1.626956	-0.254024	0.423451
Zn3	Zn	1.449129	-0.178903	0.423533
Zn4	Zn	1.449052	-0.253987	0.601411
O5	O	1.538065	-0.216451	0.512467
O6	O	1.776048	-0.188865	0.577850
O7	O	1.603329	-0.244080	0.274516
O8	O	1.472843	-0.116034	0.447198
O9	O	1.775924	-0.244066	0.447057
O10	O	1.603616	-0.116024	0.577930
O11	O	1.472680	-0.188889	0.274576
O12	O	1.300173	-0.188854	0.447138
O13	O	1.472712	-0.244004	0.750365
O14	O	1.300116	-0.244018	0.577824
O15	O	1.603541	-0.188830	0.750411
O16	O	1.603254	-0.316886	0.446997
O17	O	1.472548	-0.316859	0.577744
C18	C	1.261524	-0.216434	0.512483
C19	C	1.143219	-0.216437	0.512516
C20	C	1.537903	-0.333174	0.512378
C21	C	1.537931	-0.383108	0.512375
C22	C	1.073966	-0.246500	0.583458
C23	C	1.003190	-0.205539	0.609661
C24	C	1.003196	-0.257433	0.486289
C25	C	1.074001	-0.175454	0.538769
C26	C	1.074014	-0.227376	0.415352
C27	C	1.003270	-0.186386	0.441518
C28	C	1.606144	-0.692711	0.580636
C29	C	1.606260	-0.880384	0.580700
O30	O	1.664098	-0.904615	0.638672
N31	N	1.538246	-0.903893	0.512585
C32	C	1.470194	-0.880481	0.444454
O33	O	1.412339	-0.904783	0.386527
C34	C	1.470074	-0.692809	0.444397
C35	C	1.538099	-0.669302	0.512508
C36	C	1.674163	-0.669205	0.648744
C37	C	1.674138	-0.622289	0.648723
C38	C	1.606093	-0.598880	0.580595
C39	C	1.538074	-0.622387	0.512488
C40	C	1.402017	-0.669397	0.376272
C41	C	1.401991	-0.622476	0.376265
C42	C	1.470017	-0.598970	0.444377
C43	C	1.470004	-0.552062	0.444339
N44	N	1.538017	-0.528553	0.512454
C45	C	1.606062	-0.551962	0.580582
C46	C	1.470263	-0.979011	0.444488
C47	C	1.470295	-1.025929	0.444501
C48	C	1.606359	-1.025829	0.580749
C49	C	1.606332	-0.978911	0.580730
C50	C	1.538277	-0.955502	0.512603
C51	C	1.606004	-0.453436	0.580533
C52	C	1.605976	-0.406517	0.580503
C53	C	1.469908	-0.406621	0.444259
C54	C	1.469940	-0.453536	0.444285
C55	C	1.537991	-0.476943	0.512430
O56	O	1.412188	-0.527803	0.386406
O57	O	1.663891	-0.527652	0.638517
C58	C	1.606170	-0.739626	0.580657
C59	C	1.538150	-0.763133	0.512550
C60	C	1.470106	-0.739724	0.444422
C61	C	1.538182	-0.810051	0.512563
C62	C	1.606226	-0.833460	0.580691
C63	C	1.674240	-0.809951	0.648806
C64	C	1.674214	-0.763035	0.648785
C65	C	1.402092	-0.763233	0.376307
C66	C	1.402124	-0.810148	0.376332
C67	C	1.470169	-0.833557	0.444460
C68	C	1.815686	-0.216468	0.512452
C69	C	1.933992	-0.216476	0.512445
C70	C	1.538137	-0.216412	0.790088
C71	C	1.538167	-0.216395	0.908394
C72	C	1.538257	-0.099273	0.512581
C73	C	1.538339	-0.049338	0.512629
C74	C	1.538056	-0.216458	0.235926
C75	C	1.538232	-0.216348	0.117621
C76	C	1.467031	-0.246387	0.977622
C77	C	1.564143	-0.257367	1.048389
C78	C	1.441131	-0.205388	1.048426
C79	C	1.635330	-0.227396	0.977603
C80	C	1.512252	-0.175398	0.977633
C81	C	1.609431	-0.186362	1.048368
H82	H	0.972080	-0.196300	0.691800
O83	O	1.733223	-0.238605	0.940605
C84	C	1.725651	-0.277747	0.878278
H85	H	1.651466	-0.297260	0.901807
H86	H	1.798840	-0.299470	0.891812
H87	H	1.720526	-0.268164	0.790820
H88	H	1.669686	-0.160979	1.079235
O89	O	0.966403	-0.156106	0.369793
C90	C	0.904781	-0.178360	0.292550
H91	H	0.928713	-0.215173	0.289180
H92	H	0.918646	-0.162243	0.211690
H93	H	0.817158	-0.175661	0.314316
H94	H	1.490270	-0.140758	0.946529
H95	H	1.346569	-0.603420	0.320789
O96	O	1.110961	-0.276720	0.655261
C97	C	1.074851	-0.265042	0.757558
H98	H	1.055002	-0.227783	0.759730
H99	H	1.139581	-0.272553	0.818263
H100	H	1.000772	-0.285347	0.777399
O101	O	1.111118	-0.134133	0.565345
C102	C	1.223060	-0.134614	0.565079
H103	H	1.252350	-0.170414	0.576761
H104	H	1.253968	-0.112591	0.632334
H105	H	1.253380	-0.121224	0.485931
O106	O	1.672165	-0.476217	0.646580
C107	C	1.740986	-0.503348	0.586051
H108	H	1.703495	-0.510429	0.505368
H109	H	1.755261	-0.536315	0.629443
H110	H	1.819852	-0.485239	0.574398
O111	O	1.343122	-0.194355	1.085415
C112	C	1.268355	-0.226097	1.049390
H113	H	1.299838	-0.243228	0.974848
H114	H	1.190351	-0.208484	1.030335
H115	H	1.254415	-0.252247	1.113855
O116	O	0.965967	-0.298738	0.459726
C117	C	0.904448	-0.295611	0.366485
H118	H	0.873939	-0.259865	0.357211
H119	H	0.834274	-0.319645	0.371959
H120	H	0.955382	-0.304794	0.294891
H121	H	1.346681	-0.744177	0.320830
H122	H	1.406921	-0.271790	0.946560
O123	O	1.590508	-0.298673	1.085536
C124	C	1.683731	-0.295559	1.147110
H125	H	1.730148	-0.264384	1.122951
H126	H	1.734741	-0.326580	1.133442
H127	H	1.661689	-0.293196	1.234724
H128	H	1.105147	-0.236626	0.333237
H129	H	1.661374	-0.387379	0.635967
O130	O	1.740141	-0.740155	0.715008
C131	C	1.679491	-0.713020	0.783723
H132	H	1.598849	-0.706027	0.746119
H133	H	1.722826	-0.680011	0.798022
H134	H	1.667755	-0.731081	0.862591
O135	O	1.740099	-0.599479	0.715048
C136	C	1.716793	-0.610927	0.821109
H137	H	1.631762	-0.623847	0.826413
H138	H	1.725920	-0.580054	0.873704
H139	H	1.773848	-0.638137	0.848976
O140	O	1.740323	-0.691989	0.714778
C141	C	1.809145	-0.719115	0.654240
H142	H	1.771651	-0.726194	0.573557
H143	H	1.823426	-0.752084	0.697623
H144	H	1.888007	-0.701004	0.642587
H145	H	1.661724	-0.959774	0.636193
H146	H	1.661765	-1.044897	0.636220
H147	H	1.414913	-1.045064	0.389026
O148	O	1.404123	-0.956345	0.378197
C149	C	1.344093	-0.987161	0.318104
H150	H	1.387722	-1.020591	0.314478
H151	H	1.332782	-0.973646	0.234224
H152	H	1.263234	-0.992166	0.357015
O153	O	1.335831	-0.692155	0.310077
C154	C	1.275790	-0.661423	0.249940
H155	H	1.272081	-0.627965	0.293532
H156	H	1.191935	-0.675005	0.238535
H157	H	1.314800	-0.656450	0.169126
O158	O	1.403717	-0.476355	0.378231
C159	C	1.297618	-0.464904	0.401388
H160	H	1.292192	-0.451972	0.486407
H161	H	1.245051	-0.495779	0.392199
H162	H	1.269816	-0.437703	0.344286
O163	O	1.403845	-0.383807	0.378185
C164	C	1.418432	-0.337357	0.392766
H165	H	1.453252	-0.330911	0.474929
H166	H	1.338702	-0.319552	0.385494
H167	H	1.475136	-0.324046	0.329668
H168	H	1.729648	-0.829019	0.704275
O169	O	1.335940	-0.832910	0.310128
C170	C	1.275899	-0.802182	0.249980
H171	H	1.272187	-0.768722	0.293563
H172	H	1.192046	-0.815765	0.238576
H173	H	1.314912	-0.797212	0.169167
