data_functionalizedCrystal
_audit_creation_method	'MofGen! by Chris Wilmer'
_symmetry_space_group_name_H-M	'P1'
_symmetry_Int_Tables_number	1
_symmetry_cell_setting	triclinic
loop_
_symmetry_equiv_pos_as_xyz
  x,y,z
_cell_length_a	14.908571
_cell_length_b	13.032721
_cell_length_c	13.032268
_cell_angle_alpha	103.289627
_cell_angle_beta	85.702822
_cell_angle_gamma	85.672883
loop_
_atom_site_label
_atom_site_type_symbol
_atom_site_fract_x
_atom_site_fract_y
_atom_site_fract_z
Zn1	Zn	1.232048	0.593523	0.748408
Zn2	Zn	1.231951	0.748599	0.593348
Zn3	Zn	1.105258	0.561299	0.561133
Zn4	Zn	1.062071	0.758051	0.757901
O5	O	1.157832	0.665368	0.665197
O6	O	1.356192	0.623624	0.737348
O7	O	1.233178	0.706312	0.441834
O8	O	1.140192	0.418331	0.568520
O9	O	1.356121	0.737558	0.623427
O10	O	1.233344	0.442006	0.706110
O11	O	1.140098	0.568703	0.418165
O12	O	0.975372	0.577868	0.577725
O13	O	1.066586	0.753668	0.903882
O14	O	0.943643	0.722421	0.722289
O15	O	1.191467	0.632789	0.896908
O16	O	1.191302	0.897095	0.632631
O17	O	1.066492	0.904039	0.753527
C18	C	0.927315	0.647675	0.647542
C19	C	0.828692	0.640133	0.640017
C20	C	1.124221	0.938750	0.697630
C21	C	1.109919	1.055715	0.711546
C22	C	1.191596	0.390923	0.632663
C23	C	1.205984	0.273971	0.618798
C24	C	0.610376	0.776674	0.776256
C25	C	0.517710	0.769592	0.769190
C26	C	0.550694	0.618884	0.618824
C27	C	0.643360	0.625966	0.625890
C28	C	0.673196	0.704865	0.704608
C29	C	0.765864	0.711950	0.711669
C30	C	0.798846	0.561238	0.561308
C31	C	0.706181	0.554157	0.554242
C32	C	1.389249	0.683131	0.682922
C33	C	1.487866	0.690701	0.690475
C34	C	1.124220	0.697877	0.939641
C35	C	1.109896	0.711731	1.056592
C36	C	1.165338	1.104400	0.657985
C37	C	1.150557	1.225289	0.672367
C38	C	1.191374	0.632913	0.391817
C39	C	1.205906	0.618776	0.274844
C40	C	1.165299	0.658099	1.105282
C41	C	1.150496	0.672416	1.226157
H42	H	0.790155	0.776195	0.775763
H43	H	0.526384	0.554643	0.554742
H44	H	1.223730	1.056587	0.601486
C45	C	1.283801	1.210342	0.543291
C46	C	1.274074	1.223271	0.440855
C47	C	1.345746	1.164686	0.371275
H48	H	1.283467	1.137534	0.543496
H49	H	1.339358	1.234656	0.565368
H50	H	1.218532	1.198953	0.418784
H51	H	1.274418	1.296066	0.440616
H52	H	1.401303	1.188999	0.393351
H53	H	1.345406	1.091881	0.371489
H54	H	1.339160	1.173458	0.301766
H55	H	1.051500	0.768239	1.104393
C56	C	0.866956	0.483095	0.483547
C57	C	0.854367	0.380028	0.492536
C58	C	0.917085	0.308019	0.420911
H59	H	0.926457	0.498463	0.498944
H60	H	0.858527	0.488783	0.413456
H61	H	0.862803	0.374343	0.562612
H62	H	0.794879	0.364627	0.477129
H63	H	0.908656	0.313708	0.350819
H64	H	0.976582	0.323397	0.436314
H65	H	0.908546	0.238080	0.426993
H66	H	0.634669	0.840921	0.840346
C67	C	0.673905	0.468551	0.468626
C68	C	0.706398	0.480680	0.368903
C69	C	0.676696	0.401832	0.290006
H70	H	0.609732	0.474532	0.474530
H71	H	0.695906	0.400848	0.476842
H72	H	0.684393	0.548365	0.360689
H73	H	0.770568	0.474687	0.362965
H74	H	0.698696	0.334129	0.298222
H75	H	0.612523	0.407820	0.295920
H76	H	0.698745	0.410045	0.222335
C77	C	1.072721	1.289210	0.747626
C78	C	1.073517	1.396401	0.746904
C79	C	1.001823	1.455315	0.816207
H80	H	1.079105	1.280705	0.817253
H81	H	1.017157	1.264976	0.725487
H82	H	1.129067	1.420627	0.769049
H83	H	1.067121	1.404939	0.677295
H84	H	0.946259	1.431082	0.794067
H85	H	1.008213	1.446801	0.885828
H86	H	1.002349	1.528049	0.815719
C87	C	1.032036	1.119282	0.786981
C88	C	0.983786	1.050942	0.833627
C89	C	0.912041	1.109462	0.903136
H90	H	0.993035	1.154492	0.748920
H91	H	1.055105	1.170120	0.840567
H92	H	0.960717	1.000124	0.780049
H93	H	1.022761	1.015731	0.871708
H94	H	0.935110	1.160299	0.956722
H95	H	0.873047	1.144669	0.865066
H96	H	0.879300	1.063103	0.934801
H97	H	1.223687	0.601579	1.057479
C98	C	1.072757	0.747933	1.289962
C99	C	1.107030	0.826663	1.364874
C100	C	1.035447	0.896255	1.423660
H101	H	1.033792	0.709893	1.325199
H102	H	1.039924	0.779792	1.243780
H103	H	1.139848	0.794807	1.411050
H104	H	1.145987	0.864729	1.329665
H105	H	1.002614	0.928114	1.377478
H106	H	0.996487	0.858206	1.458891
H107	H	1.058691	0.949687	1.474488
C108	C	0.449644	0.847689	0.847046
C109	C	0.495613	0.918310	0.917477
C110	C	0.432940	0.990276	0.989210
H111	H	0.412790	0.810308	0.885537
H112	H	0.412810	0.885999	0.809434
H113	H	0.532432	0.880004	0.955086
H114	H	0.532463	0.955716	0.879017
H115	H	0.396106	1.028587	0.951598
H116	H	0.396090	0.952886	1.027692
H117	H	0.464121	1.038207	1.037000
C118	C	1.283732	0.543478	1.210939
C119	C	1.282953	0.544256	1.103756
C120	C	1.354631	0.474907	1.044856
H121	H	1.277320	0.473851	1.219407
H122	H	1.339302	0.565550	1.235217
H123	H	1.227397	0.522179	1.079486
H124	H	1.289378	0.613866	1.095256
H125	H	1.410201	0.496979	1.069133
H126	H	1.348212	0.405285	1.053332
H127	H	1.354117	0.475433	0.972127
