data_functionalizedCrystal
_audit_creation_method	'MofGen! by Chris Wilmer'
_symmetry_space_group_name_H-M	'P1'
_symmetry_Int_Tables_number	1
_symmetry_cell_setting	triclinic
loop_
_symmetry_equiv_pos_as_xyz
  x,y,z
_cell_length_a	12.759401
_cell_length_b	21.295417
_cell_length_c	12.759393
_cell_angle_alpha	89.960830
_cell_angle_beta	89.981504
_cell_angle_gamma	90.030668
loop_
_atom_site_label
_atom_site_type_symbol
_atom_site_fract_x
_atom_site_fract_y
_atom_site_fract_z
Zn1	Zn	1.606140	-0.250569	-0.593926
Zn2	Zn	1.605986	-0.355853	-0.418223
Zn3	Zn	1.430442	-0.250602	-0.418265
Zn4	Zn	1.430382	-0.355805	-0.593864
O5	O	1.518237	-0.303208	-0.506069
O6	O	1.753141	-0.264542	-0.570626
O7	O	1.582660	-0.341926	-0.271207
O8	O	1.453838	-0.162509	-0.441611
O9	O	1.753027	-0.341894	-0.441538
O10	O	1.582923	-0.162484	-0.570668
O11	O	1.453689	-0.264598	-0.271238
O12	O	1.283413	-0.264551	-0.441551
O13	O	1.453736	-0.341811	-0.740893
O14	O	1.283369	-0.341843	-0.570562
O15	O	1.582865	-0.264495	-0.740939
O16	O	1.582602	-0.443936	-0.441478
O17	O	1.453587	-0.443901	-0.570521
C18	C	1.245270	-0.303196	-0.506055
C19	C	1.128493	-0.303206	-0.506074
C20	C	1.073636	-0.343516	-0.573139
C21	C	0.963912	-0.343524	-0.573151
C22	C	0.963912	-0.262910	-0.439022
C23	C	1.073635	-0.262899	-0.439017
C24	C	1.128495	-0.383823	-0.640196
C25	C	1.073637	-0.424137	-0.707266
C26	C	0.963913	-0.424145	-0.707277
C27	C	0.909047	-0.383839	-0.640219
C28	C	1.518100	-0.466759	-0.506011
C29	C	1.518137	-0.536727	-0.506021
C30	C	1.585375	-0.569592	-0.438898
C31	C	1.585424	-0.635334	-0.438921
C32	C	1.518217	-0.668210	-0.506058
C33	C	1.450974	-0.635338	-0.573195
C34	C	1.450934	-0.569596	-0.573177
N35	N	1.426309	-0.771475	-0.514062
N36	N	1.426350	-0.833927	-0.514073
C37	C	1.518334	-0.866284	-0.506118
N38	N	1.610278	-0.833832	-0.498130
N39	N	1.610236	-0.771375	-0.498114
C40	C	1.518253	-0.739495	-0.506085
C41	C	1.585631	-0.970434	-0.439016
C42	C	1.585682	-1.036178	-0.439047
C43	C	1.451223	-1.036180	-0.573315
C44	C	1.451181	-0.970438	-0.573289
C45	C	1.518384	-0.937569	-0.506134
C46	C	1.792271	-0.303220	-0.506084
C47	C	1.909047	-0.303225	-0.506091
C48	C	1.518311	-0.303144	-0.780103
C49	C	1.518342	-0.303117	-0.896880
C50	C	1.518404	-0.139017	-0.506151
C51	C	1.518475	-0.069049	-0.506185
C52	C	1.585589	-0.262855	-0.951767
C53	C	1.585614	-0.262832	-1.061491
C54	C	1.451143	-0.343339	-1.061431
C55	C	1.451113	-0.343358	-0.951709
C56	C	1.652818	-0.222613	-0.896938
C57	C	1.720071	-0.182348	-0.951825
C58	C	1.720096	-0.182325	-1.061549
C59	C	1.652868	-0.222568	-1.116386
C60	C	1.518225	-0.303225	-0.233102
C61	C	1.518397	-0.303075	-0.116326
H62	H	1.118317	-0.456949	-0.761869
H63	H	1.396409	-0.376102	-1.106088
O64	O	1.650828	-0.667302	-0.373848
C65	C	1.792635	-0.741516	-0.359795
C66	C	1.718665	-0.705338	-0.433619
H67	H	1.847485	-0.772286	-0.408089
H68	H	1.840737	-0.706767	-0.311799
H69	H	1.744383	-0.772311	-0.304829
H70	H	1.766835	-0.674542	-0.488649
H71	H	1.670559	-0.740121	-0.481541
O72	O	1.785516	-0.143192	-1.114706
C73	C	1.918849	-0.063318	-1.103179
C74	C	1.844824	-0.107613	-1.042853
H75	H	1.966803	-0.034531	-1.045112
H76	H	1.973835	-0.092183	-1.154507
H77	H	1.870647	-0.030415	-1.154593
H78	H	1.892942	-0.140525	-0.991382
H79	H	1.789835	-0.078709	-0.991591
O80	O	1.385793	-1.068039	-0.638481
C81	C	1.207064	-1.088258	-0.689294
C82	C	1.281043	-1.052123	-0.615438
H83	H	1.122358	-1.075413	-0.670675
H84	H	1.225374	-1.075266	-0.774039
H85	H	1.218700	-1.140888	-0.677797
H86	H	1.269449	-0.999486	-0.626841
H87	H	1.262715	-1.065168	-0.530720
H88	H	1.652881	-0.222539	-1.205731
H89	H	1.396339	-0.376134	-0.907018
H90	H	0.919251	-0.456967	-0.761896
O91	O	0.802460	-0.383926	-0.640362
C92	C	0.645004	-0.428098	-0.714090
C93	C	0.765708	-0.428084	-0.714001
H94	H	0.615253	-0.463787	-0.773637
H95	H	0.615068	-0.441134	-0.632736
H96	H	0.615330	-0.379344	-0.736012
H97	H	0.795471	-0.476824	-0.692125
H98	H	0.795572	-0.415012	-0.795365
O99	O	1.385906	-0.938580	-0.638630
C100	C	1.334830	-0.918372	-0.817293
C101	C	1.408805	-0.954500	-0.743407
H102	H	1.353332	-0.931220	-0.902022
H103	H	1.250116	-0.931367	-0.798857
H104	H	1.346325	-0.865741	-0.805695
H105	H	1.397403	-1.007139	-0.754965
H106	H	1.493492	-0.941453	-0.761862
H107	H	0.919231	-0.230095	-0.384426
O108	O	1.785332	-0.143314	-0.898400
C109	C	1.844837	-0.107635	-0.729394
C110	C	1.770895	-0.151886	-0.789764
H111	H	1.833174	-0.114540	-0.641552
H112	H	1.929571	-0.118688	-0.750889
H113	H	1.826452	-0.056879	-0.751061
H114	H	1.789185	-0.202657	-0.768129
H115	H	1.686183	-0.140779	-0.768265
H116	H	1.396255	-0.662109	-0.627859
H117	H	1.217838	-0.383822	-0.640192
H118	H	1.118301	-0.230070	-0.384415
O119	O	1.650969	-0.938433	-0.373938
C120	C	1.792819	-0.864169	-0.359905
C121	C	1.718874	-0.900356	-0.433722
H122	H	1.847753	-0.833384	-0.408211
H123	H	1.744653	-0.833404	-0.304930
H124	H	1.840843	-0.898967	-0.311917
H125	H	1.670834	-0.865602	-0.481779
H126	H	1.767100	-0.931129	-0.488628
H127	H	1.652807	-0.222629	-0.807595
H128	H	1.396180	-0.542838	-0.627838
H129	H	1.640098	-0.542832	-0.384219
O130	O	1.651189	-1.068007	-0.373895
C131	C	1.829985	-1.087986	-0.323139
C132	C	1.755890	-1.051908	-0.396972
H133	H	1.914653	-1.074994	-0.341785
H134	H	1.811669	-1.075091	-0.238388
H135	H	1.818482	-1.140625	-0.334631
H136	H	1.767352	-0.999261	-0.385574
H137	H	1.774225	-1.064855	-0.481695
