data_functionalizedCrystal
_audit_creation_method	'MofGen! by Chris Wilmer'
_symmetry_space_group_name_H-M	'P1'
_symmetry_Int_Tables_number	1
_symmetry_cell_setting	triclinic
loop_
_symmetry_equiv_pos_as_xyz
  x,y,z
_cell_length_a	18.215407
_cell_length_b	12.827892
_cell_length_c	18.215399
_cell_angle_alpha	90.024028
_cell_angle_beta	90.019833
_cell_angle_gamma	90.015840
loop_
_atom_site_label
_atom_site_type_symbol
_atom_site_fract_x
_atom_site_fract_y
_atom_site_fract_z
Zn1	Zn	1.125121	-0.416031	0.416136
Zn2	Zn	1.125049	-0.590790	0.293078
Zn3	Zn	1.002053	-0.416065	0.293083
Zn4	Zn	1.002039	-0.590732	0.416103
O5	O	1.063566	-0.503405	0.354600
O6	O	1.228095	-0.439223	0.399824
O7	O	1.108710	-0.567651	0.190094
O8	O	1.018414	-0.269825	0.309422
O9	O	1.228043	-0.567618	0.309414
O10	O	1.108831	-0.269800	0.399829
O11	O	1.018345	-0.439282	0.190098
O12	O	0.899067	-0.439225	0.309391
O13	O	1.018390	-0.567519	0.519092
O14	O	0.899057	-0.567552	0.399773
O15	O	1.108818	-0.439167	0.519116
O16	O	1.108696	-0.737019	0.309382
O17	O	1.018321	-0.736976	0.399767
C18	C	0.872359	-0.503387	0.354579
C19	C	0.790560	-0.503405	0.354587
C20	C	0.602380	-0.570329	0.401590
C21	C	0.525522	-0.570333	0.401599
C22	C	0.525503	-0.436499	0.307626
C23	C	0.602360	-0.436491	0.307621
C24	C	0.640797	-0.503413	0.354602
C25	C	0.487081	-0.503424	0.354616
C26	C	0.403747	-0.503427	0.354626
C27	C	0.724136	-0.503408	0.354594
C28	C	1.063520	-0.774915	0.354586
C29	C	1.063567	-0.891068	0.354605
C30	C	1.108288	-0.942757	0.399381
C31	C	1.108339	-1.062807	0.399402
C32	C	1.255518	-0.503424	0.354622
C33	C	1.337317	-0.503432	0.354631
C34	C	1.063610	-0.503333	0.546553
C35	C	1.063629	-0.503302	0.628352
C36	C	1.063632	-0.230835	0.354630
C37	C	1.063660	-0.114682	0.354643
C38	C	1.063563	-0.503401	0.163394
C39	C	1.063687	-0.503138	0.081595
C40	C	1.110732	-0.436407	0.816560
C41	C	1.110741	-0.436376	0.893419
C42	C	1.016579	-0.570036	0.893382
C43	C	1.016567	-0.570060	0.816525
C44	C	1.063648	-0.503247	0.778116
C45	C	1.063668	-0.503192	0.931832
C46	C	1.063678	-0.503160	1.015165
C47	C	1.063638	-0.503278	0.694777
H48	H	0.494246	-0.624822	0.439863
C49	C	1.161944	-0.363768	0.935025
C50	C	1.203182	-0.305284	0.884935
C51	C	1.250366	-0.238393	0.923235
H52	H	1.133890	-0.318129	0.965009
H53	H	1.194043	-0.403713	0.964994
H54	H	1.171086	-0.265343	0.854979
H55	H	1.231251	-0.350896	0.854949
H56	H	1.282465	-0.278337	0.953204
H57	H	1.222306	-0.192761	0.953218
H58	H	1.278356	-0.198710	0.889255
C59	C	0.644151	-0.643104	0.452480
C60	C	0.688234	-0.710029	0.410733
C61	C	0.726714	-0.777091	0.457590
H62	H	0.674212	-0.603303	0.484604
H63	H	0.610284	-0.683017	0.480454
H64	H	0.722097	-0.670121	0.382772
H65	H	0.658191	-0.749853	0.378611
H66	H	0.692847	-0.817003	0.485564
H67	H	0.756770	-0.737281	0.489712
H68	H	0.756623	-0.822513	0.429271
H69	H	0.978220	-0.624489	0.785223
H70	H	1.149066	-0.382000	0.785289
H71	H	0.978249	-0.624435	0.924664
H72	H	0.494198	-0.382016	0.269375
H73	H	0.633639	-0.381993	0.269358
H74	H	1.146537	-0.898135	0.437704
H75	H	1.025373	-1.070238	0.316303
H76	H	1.025313	-0.935692	0.316290
C77	C	1.159270	-1.122127	0.450611
C78	C	1.117555	-1.184777	0.497722
C79	C	1.164448	-1.239430	0.544914
H80	H	1.191357	-1.164779	0.422555
H81	H	1.187281	-1.074044	0.478735
H82	H	1.089556	-1.232855	0.469602
H83	H	1.085470	-1.142151	0.525794
H84	H	1.192459	-1.191346	0.573038
H85	H	1.196533	-1.282075	0.516852
H86	H	1.136151	-1.281936	0.576889
