data_functionalizedCrystal
_audit_creation_method	'MofGen! by Chris Wilmer'
_symmetry_space_group_name_H-M	'P1'
_symmetry_Int_Tables_number	1
_symmetry_cell_setting	triclinic
loop_
_symmetry_equiv_pos_as_xyz
  x,y,z
_cell_length_a	16.120530
_cell_length_b	13.032721
_cell_length_c	13.034296
_cell_angle_alpha	89.133654
_cell_angle_beta	79.563197
_cell_angle_gamma	85.323259
loop_
_atom_site_label
_atom_site_type_symbol
_atom_site_fract_x
_atom_site_fract_y
_atom_site_fract_z
Zn1	Zn	1.306904	0.406996	-0.725549
Zn2	Zn	1.271886	0.598932	-0.572940
Zn3	Zn	1.147575	0.420176	-0.542368
Zn4	Zn	1.151997	0.570459	-0.736414
O5	O	1.219591	0.499141	-0.644318
O6	O	1.419113	0.438857	-0.713552
O7	O	1.238890	0.592651	-0.423808
O8	O	1.181515	0.275208	-0.549326
O9	O	1.393386	0.579871	-0.601431
O10	O	1.298574	0.265525	-0.683908
O11	O	1.147559	0.461320	-0.401347
O12	O	1.031308	0.433711	-0.559862
O13	O	1.189052	0.531344	-0.880049
O14	O	1.034557	0.544124	-0.702426
O15	O	1.302862	0.411249	-0.872066
O16	O	1.243178	0.738375	-0.611967
O17	O	1.155096	0.717456	-0.732070
C18	C	1.195842	0.765049	-0.676539
C19	C	1.185763	0.878806	-0.690364
C20	C	1.002633	0.487259	-0.629006
C21	C	0.909819	0.482197	-0.622483
C22	C	1.250356	0.466650	-0.914726
C23	C	1.263467	0.452805	-1.029958
C24	C	0.739888	0.472931	-0.610580
C25	C	0.700136	0.525417	-0.678140
C26	C	0.605581	0.520261	-0.671517
C27	C	0.834452	0.478085	-0.617202
C28	C	1.437395	0.511070	-0.659690
C29	C	1.530211	0.516154	-0.666241
C30	C	1.243457	0.232193	-0.611995
C31	C	1.253628	0.118435	-0.598221
C32	C	1.224901	0.939834	-0.637152
C33	C	1.214484	1.057408	-0.651439
C34	C	1.213001	0.506053	-1.085281
C35	C	1.226550	0.491744	-1.204380
C36	C	1.189000	0.531434	-0.374956
C37	C	1.176077	0.545000	-0.259701
H38	H	0.737116	0.574223	-0.740954
Br39	Br	1.087347	0.638660	-1.191707
Br40	Br	0.678257	0.391587	-0.505893
H41	H	1.294853	1.083646	-0.542088
H42	H	1.144548	0.913600	-0.746501
Br43	Br	1.145786	1.115384	-0.745016
Br44	Br	1.124270	0.599700	-1.017279
H45	H	1.266124	0.905042	-0.581023
H46	H	1.279792	0.435563	-1.245183
H47	H	1.316705	0.396628	-1.070766
