data_functionalizedCrystal
_audit_creation_method	'MofGen! by Chris Wilmer'
_symmetry_space_group_name_H-M	'P1'
_symmetry_Int_Tables_number	1
_symmetry_cell_setting	triclinic
loop_
_symmetry_equiv_pos_as_xyz
  x,y,z
_cell_length_a	17.699077
_cell_length_b	14.044220
_cell_length_c	16.176319
_cell_angle_alpha	90.004229
_cell_angle_beta	90.005422
_cell_angle_gamma	88.234727
loop_
_atom_site_label
_atom_site_type_symbol
_atom_site_fract_x
_atom_site_fract_y
_atom_site_fract_z
O1	O	1.012346	0.119819	0.068738
O2	O	1.345679	0.453152	0.402071
O3	O	1.679013	0.786485	0.735404
O4	O	0.793043	0.135417	0.068742
O5	O	1.126376	0.468751	0.402075
O6	O	1.459710	0.802084	0.735409
O7	O	0.899403	-0.010359	0.068732
O8	O	1.232736	0.322974	0.402065
O9	O	1.566069	0.656308	0.735399
O10	O	0.905986	0.265595	0.068748
O11	O	1.239319	0.598928	0.402081
O12	O	1.572653	0.932262	0.735415
O13	O	0.899389	-0.010359	-0.068761
O14	O	1.232722	0.322974	0.264572
O15	O	1.566056	0.656307	0.597905
O16	O	0.793029	0.135417	-0.068751
O17	O	1.126363	0.468750	0.264582
O18	O	1.459696	0.802084	0.597916
O19	O	1.012332	0.119818	-0.068755
O20	O	1.345666	0.453152	0.264578
O21	O	1.678999	0.786485	0.597911
Cu22	Cu	0.902679	0.127618	-0.081307
Cu23	Cu	1.236013	0.460951	0.252026
Cu24	Cu	1.569346	0.794284	0.585359
Cu25	Cu	0.902696	0.127618	0.081294
Cu26	Cu	1.236029	0.460951	0.414628
Cu27	Cu	1.569362	0.794285	0.747961
O28	O	0.905972	0.265595	-0.068745
O29	O	1.239306	0.598928	0.264588
O30	O	1.572639	0.932261	0.597922
C31	C	0.764800	0.134859	-0.000004
C32	C	1.098134	0.468193	0.333329
C33	C	1.431467	0.801526	0.666663
C34	C	0.680667	0.133185	-0.000003
C35	C	1.014000	0.466519	0.333331
C36	C	1.347333	0.799852	0.666664
C37	C	0.641137	0.132396	-0.074951
C38	C	0.974471	0.465730	0.258382
C39	C	1.307804	0.799063	0.591716
C40	C	0.562085	0.130808	-0.074952
C41	C	0.895419	0.464142	0.258381
C42	C	1.228752	0.797475	0.591715
C43	C	0.522564	0.130016	-0.000004
C44	C	0.855897	0.463350	0.333330
C45	C	1.189230	0.796683	0.666663
C46	C	0.562099	0.130802	0.074951
C47	C	0.895432	0.464136	0.408284
C48	C	1.228765	0.797469	0.741617
C49	C	0.641149	0.132384	0.074951
C50	C	0.974483	0.465717	0.408284
C51	C	1.307816	0.799050	0.741617
C52	C	0.243295	0.124425	0.074952
C53	C	0.576629	0.457758	0.408285
C54	C	0.909962	0.791091	0.741618
C55	C	0.164239	0.122846	0.074946
C56	C	0.497572	0.456180	0.408279
C57	C	0.830905	0.789513	0.741613
C58	C	0.164231	0.122849	-0.074951
C59	C	0.497565	0.456183	0.258382
C60	C	0.830898	0.789516	0.591716
C61	C	0.243282	0.124431	-0.074951
C62	C	0.576615	0.457764	0.258383
C63	C	0.909949	0.791097	0.591716
C64	C	0.282810	0.125212	0.000003
C65	C	0.616144	0.458545	0.333336
C66	C	0.949477	0.791878	0.666670
C67	C	0.368528	0.126932	0.000003
C68	C	0.701861	0.460265	0.333336
C69	C	1.035194	0.793598	0.666670
C70	C	0.436848	0.128303	-0.000003
C71	C	0.770181	0.461636	0.333330
C72	C	1.103514	0.794970	0.666664
C73	C	0.896514	-0.045667	-0.000015
C74	C	1.229847	0.287667	0.333318
C75	C	1.563181	0.621000	0.666652
C76	C	0.887918	-0.150873	-0.000016
C77	C	1.221251	0.182461	0.333317
C78	C	1.554585	0.515794	0.666651
C79	C	0.872203	-0.343497	-0.000004
C80	C	1.205536	-0.010164	0.333330
C81	C	1.538870	0.323169	0.666663
C82	C	0.933169	-0.401273	-0.000002
C83	C	1.266502	-0.067939	0.333331
C84	C	1.599835	0.265394	0.666664
C85	C	0.924425	-0.508456	0.000004
C86	C	1.257758	-0.175122	0.333338
C87	C	1.591091	0.158211	0.666671
C88	C	0.880946	-0.236304	-0.000010
C89	C	1.214279	0.097029	0.333323
C90	C	1.547613	0.430362	0.666656
C91	C	1.040575	0.120376	-0.000007
C92	C	1.373908	0.453710	0.333326
C93	C	1.707241	0.787043	0.666659
C94	C	1.124708	0.122050	-0.000003
C95	C	1.458042	0.455384	0.333330
C96	C	1.791375	0.788717	0.666663
C97	C	0.908861	0.300903	0.000004
C98	C	1.242194	0.634236	0.333337
C99	C	1.575528	0.967569	0.666670
C100	C	0.917457	0.406108	0.000010
C101	C	1.250790	0.739442	0.333343
C102	C	1.584124	1.072775	0.666677
N103	N	0.902674	0.127617	-0.195673
N104	N	1.236007	0.460950	0.137661
N105	N	1.569340	0.794283	0.470994
C106	C	0.952449	0.185026	-0.238931
C107	C	1.285782	0.518360	0.094403
C108	C	1.619115	0.851693	0.427736
C109	C	0.952457	0.185023	-0.325478
C110	C	1.285790	0.518356	0.007856
C111	C	1.619123	0.851689	0.341189
C112	C	0.902685	0.127614	-0.368765
C113	C	1.236018	0.460947	-0.035432
C114	C	1.569352	0.794281	0.297901
C115	C	0.852907	0.070198	-0.325501
C116	C	1.186241	0.403531	0.007832
C117	C	1.519574	0.736864	0.341165
C118	C	0.852904	0.070197	-0.238956
C119	C	1.186237	0.403530	0.094378
C120	C	1.519571	0.736864	0.427711
C121	C	0.852922	0.070199	-0.674529
C122	C	1.186255	0.403532	-0.341196
C123	C	1.519588	0.736866	-0.007863
C124	C	0.852927	0.070206	-0.761081
C125	C	1.186261	0.403540	-0.427748
C126	C	1.519594	0.736873	-0.094414
C127	C	0.952474	0.185025	-0.761051
C128	C	1.285808	0.518358	-0.427718
C129	C	1.619141	0.851691	-0.094385
C130	C	0.952471	0.185024	-0.674506
C131	C	1.285804	0.518357	-0.341173
C132	C	1.619137	0.851690	-0.007839
C133	C	0.902696	0.127604	-0.631249
C134	C	1.236030	0.460938	-0.297916
C135	C	1.569363	0.794271	0.035417
C136	C	0.902689	0.127608	-0.537405
C137	C	1.236023	0.460941	-0.204072
C138	C	1.569356	0.794274	0.129261
C139	C	0.902688	0.127615	-0.462608
C140	C	1.236021	0.460948	-0.129274
C141	C	1.569354	0.794282	0.204059
N142	N	0.902707	0.127611	0.195659
N143	N	1.236040	0.460945	0.528993
N144	N	1.569374	0.794278	0.862326
H145	H	0.132038	0.122209	-0.135982
H146	H	0.465371	0.455542	0.197351
H147	H	0.798705	0.788876	0.530685
H148	H	0.673310	0.133049	-0.135983
H149	H	1.006643	0.466383	0.197350
H150	H	1.339977	0.799716	0.530684
H151	H	0.529905	0.130150	-0.135983
H152	H	0.863238	0.463483	0.197351
H153	H	1.196571	0.796817	0.530684
H154	H	0.813446	-0.374530	-0.000000
H155	H	1.146779	-0.041196	0.333333
H156	H	1.480112	0.292137	0.666666
C157	C	1.050855	0.298516	-0.247604
C158	C	1.384188	0.631850	0.085730
C159	C	1.717521	0.965183	0.419063
C160	C	1.007161	0.248132	-0.191353
C161	C	1.340495	0.581465	0.141980
C162	C	1.673828	0.914798	0.475314
H163	H	1.084636	0.337469	-0.218231
H164	H	1.417970	0.670803	0.115102
H165	H	1.751303	1.004136	0.448436
H166	H	1.018651	0.337407	-0.281359
H167	H	1.351984	0.670740	0.051974
H168	H	1.685317	1.004073	0.385308
H169	H	1.078919	0.254840	-0.281360
H170	H	1.412252	0.588173	0.051973
H171	H	1.745586	0.921506	0.385307
H172	H	0.979093	0.291809	-0.157600
H173	H	1.312426	0.625142	0.175733
H174	H	1.645759	0.958475	0.509066
H175	H	1.039369	0.209238	-0.157583
H176	H	1.372703	0.542572	0.175750
H177	H	1.706036	0.875905	0.509083
H178	H	0.991931	-0.370238	0.000052
H179	H	1.325264	-0.036905	0.333385
H180	H	1.658597	0.296428	0.666719
H181	H	0.275457	0.125080	-0.135982
H182	H	0.608790	0.458414	0.197352
H183	H	0.942123	0.791747	0.530685
C184	C	0.172183	0.122981	0.223126
C185	C	0.505516	0.456314	0.556459
C186	C	0.838850	0.789647	0.889793
C187	C	0.120795	0.121967	0.157336
C188	C	0.454128	0.455300	0.490669
C189	C	0.787462	0.788633	0.824002
H190	H	0.145361	0.122433	0.273985
H191	H	0.478694	0.455766	0.607319
H192	H	0.812028	0.789100	0.940652
H193	H	0.200971	0.178838	0.220020
H194	H	0.534304	0.512171	0.553353
H195	H	0.867637	0.845505	0.886687
H196	H	0.205061	0.068347	0.219996
H197	H	0.538394	0.401680	0.553330
H198	H	0.871728	0.735014	0.886663
H199	H	0.087921	0.176604	0.160462
H200	H	0.421254	0.509938	0.493795
H201	H	0.754587	0.843271	0.827128
H202	H	0.091995	0.066104	0.160443
H203	H	0.425328	0.399437	0.493776
H204	H	0.758662	0.732770	0.827110
H205	H	0.993005	0.231776	-0.796281
H206	H	1.326338	0.565109	-0.462948
H207	H	1.659672	0.898443	-0.129615
H208	H	0.812395	0.023454	-0.796323
H209	H	1.145729	0.356787	-0.462990
H210	H	1.479062	0.690120	-0.129657
H211	H	0.275470	0.125058	0.135984
H212	H	0.608803	0.458391	0.469317
H213	H	0.942136	0.791724	0.802650
C214	C	0.440924	0.128387	0.141511
C215	C	0.774257	0.461720	0.474844
C216	C	1.107591	0.795053	0.808178
C217	C	0.518658	0.129934	0.157336
C218	C	0.851991	0.463267	0.490670
C219	C	1.185325	0.796601	0.824003
H220	H	0.414108	0.127859	0.192375
H221	H	0.747441	0.461192	0.525708
H222	H	1.080775	0.794525	0.859042
H223	H	0.430014	0.072886	0.110719
H224	H	0.763347	0.406219	0.444052
H225	H	1.096680	0.739553	0.777386
H226	H	0.425931	0.183377	0.110717
H227	H	0.759264	0.516710	0.444051
H228	H	1.092597	0.850044	0.777384
H229	H	0.533652	0.074940	0.188125
H230	H	0.866986	0.408273	0.521458
H231	H	1.200319	0.741607	0.854792
H232	H	0.529573	0.185440	0.188142
H233	H	0.862907	0.518774	0.521475
H234	H	1.196240	0.852107	0.854808
H235	H	0.812392	0.023444	-0.639320
H236	H	1.145726	0.356777	-0.305987
H237	H	1.479059	0.690111	0.027346
H238	H	0.812386	0.023450	-0.360753
H239	H	1.145719	0.356783	-0.027419
H240	H	1.479053	0.690116	0.305914
H241	H	0.673333	0.133028	0.135982
H242	H	1.006666	0.466361	0.469315
H243	H	1.340000	0.799694	0.802648
C244	C	1.054651	0.190785	-0.422772
C245	C	1.387984	0.524119	-0.089439
C246	C	1.721317	0.857452	0.243895
C247	C	1.007175	0.248129	-0.373022
C248	C	1.340508	0.581463	-0.039689
C249	C	1.673841	0.914796	0.293645
H250	H	1.088437	0.229747	-0.452118
H251	H	1.421770	0.563080	-0.118784
H252	H	1.755104	0.896413	0.214549
H253	H	1.025013	0.156606	-0.460938
H254	H	1.358346	0.489939	-0.127605
H255	H	1.691680	0.823272	0.205728
H256	H	1.082709	0.147123	-0.388996
H257	H	1.416042	0.480456	-0.055662
H258	H	1.749376	0.813790	0.277671
H259	H	0.979112	0.291787	-0.406799
H260	H	1.312446	0.625121	-0.073466
H261	H	1.645779	0.958454	0.259868
H262	H	1.036816	0.282325	-0.334851
H263	H	1.370149	0.615658	-0.001518
H264	H	1.703482	0.948991	0.331815
C265	C	1.050879	0.298512	-0.683172
C266	C	1.384213	0.631846	-0.349839
C267	C	1.717546	0.965179	-0.016505
C268	C	1.007184	0.248126	-0.626925
C269	C	1.340517	0.581459	-0.293592
C270	C	1.673850	0.914792	0.039741
H271	H	1.084662	0.337462	-0.653797
H272	H	1.417995	0.670795	-0.320463
H273	H	1.751328	1.004129	0.012870
H274	H	1.018677	0.337406	-0.716926
H275	H	1.352010	0.670740	-0.383593
H276	H	1.685344	1.004073	-0.050260
H277	H	1.078943	0.254837	-0.716930
H278	H	1.412277	0.588170	-0.383597
H279	H	1.745610	0.921504	-0.050263
H280	H	0.979115	0.291801	-0.593171
H281	H	1.312449	0.625135	-0.259838
H282	H	1.645782	0.958468	0.073496
H283	H	1.039390	0.209229	-0.593157
H284	H	1.372724	0.542562	-0.259823
H285	H	1.706057	0.875895	0.073510
H286	H	0.812372	0.023448	-0.203736
H287	H	1.145705	0.356782	0.129597
H288	H	1.479038	0.690115	0.462931
