data_functionalizedCrystal
_audit_creation_method	'MofGen! by Chris Wilmer'
_symmetry_space_group_name_H-M	'P1'
_symmetry_Int_Tables_number	1
_symmetry_cell_setting	triclinic
loop_
_symmetry_equiv_pos_as_xyz
  x,y,z
_cell_length_a	11.792254
_cell_length_b	11.792241
_cell_length_c	9.130313
_cell_angle_alpha	90.001417
_cell_angle_beta	90.000198
_cell_angle_gamma	84.196007
loop_
_atom_site_label
_atom_site_type_symbol
_atom_site_fract_x
_atom_site_fract_y
_atom_site_fract_z
O1	O	1.506894	0.155631	0.121799
O2	O	2.006894	0.655631	0.621799
O3	O	1.176555	0.171649	0.121802
O4	O	1.676555	0.671649	0.621802
O5	O	1.349741	-0.001530	0.121790
O6	O	1.849741	0.498470	0.621790
O7	O	1.333708	0.328810	0.121811
O8	O	1.833708	0.828810	0.621811
O9	O	1.349738	-0.001525	-0.121809
O10	O	1.849738	0.498475	0.378191
O11	O	1.176552	0.171654	-0.121797
O12	O	1.676552	0.671654	0.378203
O13	O	1.506892	0.155636	-0.121800
O14	O	2.006892	0.655636	0.378200
Cu15	Cu	1.341722	0.163645	-0.144041
Cu16	Cu	1.841722	0.663645	0.355959
Cu17	Cu	1.341724	0.163640	0.144043
Cu18	Cu	1.841724	0.663640	0.644043
O19	O	1.333706	0.328815	-0.121788
O20	O	1.833706	0.828815	0.378212
C21	C	1.134263	0.170642	0.000003
C22	C	1.634263	0.670642	0.500003
C23	C	1.008250	0.167622	0.000004
C24	C	1.508250	0.667622	0.500004
C25	C	0.905913	0.165168	0.000010
C26	C	1.405913	0.665168	0.500010
C27	C	0.777527	0.162100	0.000011
C28	C	1.277527	0.662100	0.500011
C29	C	1.348732	-0.043819	-0.000009
C30	C	1.848732	0.456181	0.499991
C31	C	1.345718	-0.169832	-0.000007
C32	C	1.845718	0.330168	0.499993
C33	C	1.340175	-0.400545	0.000017
C34	C	1.840175	0.099455	0.500017
C35	C	1.343255	-0.272160	0.000004
C36	C	1.843255	0.227840	0.500004
C37	C	1.549183	0.156643	0.000002
C38	C	2.049183	0.656643	0.500002
C39	C	1.675196	0.159663	0.000011
C40	C	2.175196	0.659663	0.500011
C41	C	1.334714	0.371104	0.000014
C42	C	1.834714	0.871104	0.500014
C43	C	1.337728	0.497118	0.000022
C44	C	1.837728	0.997118	0.500022
N45	N	1.341728	0.163648	-0.346664
N46	N	1.841728	0.663648	0.153336
C47	C	1.418435	0.086991	-0.423321
C48	C	1.918435	0.586991	0.076679
C49	C	1.418432	0.086977	-0.576658
C50	C	1.918432	0.586977	-0.076658
C51	C	1.265012	0.240289	-0.576666
C52	C	1.765012	0.740289	-0.076666
C53	C	1.265011	0.240296	-0.423332
C54	C	1.765011	0.740296	0.076668
C55	C	1.507014	-0.001519	-0.423317
C56	C	2.007014	0.498481	0.076683
C57	C	1.507011	-0.001533	-0.576654
C58	C	2.007011	0.498467	-0.076654
N59	N	1.341727	0.163628	0.346666
N60	N	1.841727	0.663628	0.846666
H61	H	1.202540	0.302707	-0.360919
H62	H	1.702540	0.802707	0.139081
H63	H	1.202550	0.302692	-0.639107
H64	H	1.702550	0.802692	-0.139107
H65	H	1.487858	-0.088712	-0.381702
H66	H	1.987858	0.411288	0.118298
C67	C	1.618249	0.035540	-0.359059
C68	C	2.118249	0.535540	0.140941
N69	N	1.702031	0.063453	-0.310659
N70	N	2.202031	0.563453	0.189341
H71	H	1.479646	-0.083906	-0.624206
H72	H	1.979646	0.416094	-0.124206
C73	C	1.624746	0.024530	-0.632882
C74	C	2.124746	0.524530	-0.132882
N75	N	1.713411	0.044195	-0.675232
N76	N	2.213411	0.544195	-0.175232
