data_functionalizedCrystal
_audit_creation_method	'MofGen! by Chris Wilmer'
_symmetry_space_group_name_H-M	'P1'
_symmetry_Int_Tables_number	1
_symmetry_cell_setting	triclinic
loop_
_symmetry_equiv_pos_as_xyz
  x,y,z
_cell_length_a	15.944499
_cell_length_b	15.944493
_cell_length_c	15.455313
_cell_angle_alpha	92.670512
_cell_angle_beta	87.316496
_cell_angle_gamma	83.476327
loop_
_atom_site_label
_atom_site_type_symbol
_atom_site_fract_x
_atom_site_fract_y
_atom_site_fract_z
O1	O	1.118213	0.104451	-0.072172
O2	O	1.618213	0.604451	0.427828
O3	O	0.873654	0.117854	-0.072161
O4	O	1.373654	0.617854	0.427839
O5	O	1.002638	-0.011127	-0.072174
O6	O	1.502638	0.488873	0.427826
O7	O	0.989230	0.233432	-0.072159
O8	O	1.489230	0.733432	0.427841
O9	O	0.995262	-0.003782	0.072089
O10	O	1.495262	0.496218	0.572089
O11	O	0.866278	0.125199	0.072102
O12	O	1.366278	0.625199	0.572102
O13	O	1.110837	0.111797	0.072091
O14	O	1.610837	0.611797	0.572091
Cu15	Cu	0.987884	0.119169	0.085269
Cu16	Cu	1.487884	0.619169	0.585269
Cu17	Cu	0.996607	0.110482	-0.085339
Cu18	Cu	1.496607	0.610482	0.414661
O19	O	0.981854	0.240778	0.072104
O20	O	1.481854	0.740778	0.572104
C21	C	0.838672	0.120978	-0.000028
C22	C	1.338672	0.620978	0.499972
C23	C	0.745423	0.119333	-0.000025
C24	C	1.245423	0.619333	0.499975
C25	C	0.453872	0.194267	-0.000033
C26	C	0.953872	0.694267	0.499967
C27	C	0.518546	0.151692	-0.071166
C28	C	1.018546	0.651692	0.428834
C29	C	0.409789	0.113356	-0.000045
C30	C	0.909789	0.613356	0.499955
C31	C	0.511260	0.158913	0.071066
C32	C	1.011260	0.658913	0.571066
C33	C	0.574697	0.116297	-0.000033
C34	C	1.074697	0.616297	0.499967
C35	C	0.473238	0.070756	-0.071237
C36	C	0.973238	0.570756	0.428763
C37	C	0.465943	0.077991	0.071059
C38	C	0.965943	0.577991	0.571059
C39	C	0.530600	0.035356	-0.000091
C40	C	1.030600	0.535356	0.499909
C41	C	0.314790	0.111664	-0.000052
C42	C	0.814790	0.611664	0.499948
C43	C	0.669695	0.117983	-0.000032
C44	C	1.169695	0.617983	0.499968
C45	C	0.998402	-0.038749	-0.000046
C46	C	1.498402	0.461251	0.499954
C47	C	0.996760	-0.131998	-0.000057
C48	C	1.496760	0.368002	0.499943
C49	C	1.072681	-0.367771	-0.000044
C50	C	1.572681	0.132229	0.499956
C51	C	1.035376	-0.421953	-0.071171
C52	C	1.535376	0.078047	0.428829
C53	C	0.993715	-0.302718	-0.000046
C54	C	1.493715	0.197282	0.499954
C55	C	1.028085	-0.414688	0.071061
C56	C	1.528085	0.085312	0.571061
C57	C	0.990780	-0.467626	-0.000032
C58	C	1.490780	0.032374	0.499968
C59	C	0.956434	-0.355675	-0.071232
C60	C	1.456434	0.144325	0.428768
C61	C	0.949152	-0.348402	0.071064
C62	C	1.449152	0.151598	0.571064
C63	C	0.911789	-0.402552	-0.000080
C64	C	1.411789	0.097448	0.499920
C65	C	0.995408	-0.207719	-0.000055
C66	C	1.495408	0.292281	0.499945
C67	C	0.989081	-0.562623	-0.000029
C68	C	1.489081	-0.062623	0.499971
C69	C	1.145820	0.108673	-0.000044
C70	C	1.645820	0.608673	0.499956
C71	C	1.239068	0.110317	-0.000053
C72	C	1.739068	0.610317	0.499947
C73	C	0.986090	0.268400	-0.000026
C74	C	1.486090	0.768400	0.499974
C75	C	0.987732	0.361648	-0.000020
C76	C	1.487732	0.861648	0.499980
N77	N	0.981755	0.125278	0.205265
N78	N	1.481755	0.625278	0.705265
N79	N	1.002743	0.104366	-0.205335
N80	N	1.502743	0.604366	0.294665
C81	C	1.036571	0.070502	0.250654
C82	C	1.536571	0.570502	0.750654
C83	C	1.031944	0.075130	0.341462
C84	C	1.531944	0.575130	0.841462
C85	C	0.972504	0.134538	0.386880
C86	C	1.472504	0.634538	0.886880
C87	C	0.917682	0.189316	0.341485
C88	C	1.417682	0.689316	0.841485
C89	C	0.922306	0.184684	0.250678
C90	C	1.422306	0.684684	0.750678
C91	C	0.952545	0.154512	0.658464
C92	C	1.452545	0.654512	1.158464
C93	C	0.947927	0.159142	0.749277
C94	C	1.447927	0.659142	1.249277
C95	C	1.062188	0.044954	0.749247
C96	C	1.562188	0.544954	1.249247
C97	C	1.066810	0.040330	0.658439
C98	C	1.566810	0.540330	1.158439
C99	C	1.011985	0.095105	0.613052
C100	C	1.511985	0.595105	1.113052
N101	N	0.967774	0.139272	0.479701
N102	N	1.467774	0.639272	0.979701
N103	N	1.016712	0.090367	0.520233
N104	N	1.516712	0.590367	1.020233
H105	H	0.456345	0.033500	-0.131442
H106	H	0.956345	0.533500	0.368558
H107	H	0.563793	-0.031854	-0.000133
H108	H	1.063793	0.468146	0.499867
H109	H	0.442758	0.046859	0.131194
H110	H	0.942758	0.546859	0.631194
H111	H	1.071799	-0.453967	-0.131307
H112	H	1.571799	0.046033	0.368693
O113	O	0.863189	0.243766	0.201716
O114	O	1.363189	0.743766	0.701716
H115	H	0.821085	0.285861	0.248552
H116	H	1.321085	0.785861	0.748552
H117	H	0.420532	0.261411	-0.000098
H118	H	0.920532	0.761411	0.499902
O119	O	1.068203	-0.448946	0.150717
O120	O	1.568203	0.051054	0.650717
H121	H	1.033028	-0.418346	0.209695
H122	H	1.533028	0.081654	0.709695
O123	O	0.533779	0.208308	0.150723
O124	O	1.033779	0.708308	0.650723
H125	H	0.475189	0.232176	0.190081
H126	H	0.975189	0.732176	0.690081
O127	O	1.162778	-0.347070	-0.000140
O128	O	1.662778	0.152930	0.499860
H129	H	1.198390	-0.376763	-0.059280
H130	H	1.698390	0.123237	0.440720
O131	O	0.883815	0.223220	0.798270
O132	O	1.383815	0.723220	1.298270
H133	H	0.840906	0.189947	0.839665
H134	H	1.340906	0.689947	1.339665
H135	H	0.541712	0.182856	-0.131296
H136	H	1.041712	0.682856	0.368704
H137	H	0.926182	-0.329914	-0.131428
H138	H	1.426182	0.170086	0.368572
H139	H	0.843719	-0.418007	-0.000116
H140	H	1.343719	0.081993	0.499884
H141	H	0.912757	-0.316373	0.131202
H142	H	1.412757	0.183627	0.631202
H143	H	1.106823	0.000358	0.786210
H144	H	1.606823	0.500358	1.286210
O145	O	1.100678	0.006423	0.201667
O146	O	1.600678	0.506423	0.701667
H147	H	1.138010	-0.030894	0.248489
H148	H	1.638010	0.469106	0.748489
O149	O	1.091081	0.016067	0.390420
O150	O	1.591081	0.516067	0.890420
H151	H	1.133202	-0.026009	0.343583
H152	H	1.633202	0.473991	0.843583
O153	O	1.130913	-0.023752	0.609451
O154	O	1.630913	0.476248	1.109451
H155	H	1.168248	-0.061071	0.656269
H156	H	1.668248	0.438929	1.156269
H157	H	0.907906	0.199113	0.621517
H158	H	1.407906	0.699113	1.121517
H159	H	0.869281	0.237685	0.378470
H160	H	1.369281	0.737685	0.878470
