data_functionalizedCrystal
_audit_creation_method	'MofGen! by Chris Wilmer'
_symmetry_space_group_name_H-M	'P1'
_symmetry_Int_Tables_number	1
_symmetry_cell_setting	triclinic
loop_
_symmetry_equiv_pos_as_xyz
  x,y,z
_cell_length_a	16.793024
_cell_length_b	16.793047
_cell_length_c	33.586455
_cell_angle_alpha	113.253857
_cell_angle_beta	66.219990
_cell_angle_gamma	112.758327
loop_
_atom_site_label
_atom_site_type_symbol
_atom_site_fract_x
_atom_site_fract_y
_atom_site_fract_z
O1	O	0.005016	-0.570216	-0.583573
O2	O	-0.034529	-0.474528	-0.453458
O3	O	0.114723	-0.474535	-0.528082
O4	O	-0.144235	-0.570209	-0.508949
O5	O	0.108729	-0.346329	-0.530229
O6	O	-0.040523	-0.346322	-0.455605
O7	O	-0.000977	-0.442010	-0.585721
Zn8	Zn	-0.021701	-0.373810	-0.521004
Zn9	Zn	-0.013805	-0.542728	-0.518175
O10	O	-0.150229	-0.442003	-0.511097
C11	C	0.005100	-0.790970	-0.238461
C12	C	0.009223	-0.693065	-0.217557
C13	C	0.003804	-0.645758	-0.241627
C14	C	-0.075059	-0.538459	-0.266316
C15	C	0.049838	-0.422849	-0.250165
C16	C	-0.040584	-0.395375	-0.435637
C17	C	-0.044693	-0.353446	-0.386631
C18	C	-0.039275	-0.401741	-0.363054
C19	C	-0.040566	-0.125547	-0.300731
C20	C	-0.044689	-0.223451	-0.321635
C21	C	-0.039266	-0.270752	-0.297563
C22	C	0.039597	-0.378051	-0.272874
C23	C	-0.085304	-0.493667	-0.289026
C24	C	0.005118	-0.521142	-0.103554
C25	C	0.009231	-0.563064	-0.152559
C26	C	0.003809	-0.514775	-0.176138
C27	C	0.010758	-0.652581	-0.172822
C28	C	0.001010	-0.556371	-0.220792
C29	C	-0.008251	-0.506059	-0.245823
C30	C	-0.046224	-0.263935	-0.366370
C31	C	-0.036476	-0.360146	-0.318399
C32	C	-0.027211	-0.410451	-0.293367
C33	C	0.815184	-0.521162	-0.508596
C34	C	0.717729	-0.563083	-0.506815
C35	C	0.669923	-0.514793	-0.509201
C36	C	0.564072	-0.463272	-0.548285
C37	C	0.445555	-0.498966	-0.486078
C38	C	0.415541	-0.125553	-0.528781
C39	C	0.375032	-0.223457	-0.531493
C40	C	0.423813	-0.270761	-0.529101
C41	C	0.149318	-0.395376	-0.530584
C42	C	0.246774	-0.353455	-0.532364
C43	C	0.294574	-0.401748	-0.529976
C44	C	0.400424	-0.453269	-0.490892
C45	C	0.518948	-0.417572	-0.553101
C46	C	0.548961	-0.790984	-0.510398
C47	C	0.589464	-0.693083	-0.507684
C48	C	0.540690	-0.645776	-0.510078
C49	C	0.678399	-0.652598	-0.506649
C50	C	0.581167	-0.556389	-0.510877
C51	C	0.530434	-0.506073	-0.515170
C52	C	0.286104	-0.263940	-0.532530
C53	C	0.383336	-0.360149	-0.528302
C54	C	0.434062	-0.410467	-0.524008
C55	C	-0.040530	-0.395407	-0.935652
C56	C	-0.044651	-0.353482	-0.886645
C57	C	-0.039242	-0.401770	-0.863061
C58	C	0.039602	-0.453292	-0.810474
C59	C	-0.085288	-0.417587	-0.750981
C60	C	0.005063	-0.791004	-0.738448
C61	C	0.009186	-0.693099	-0.717543
C62	C	0.003779	-0.645796	-0.741620
C63	C	0.005077	-0.521171	-0.603544
C64	C	0.009198	-0.563096	-0.652550
C65	C	0.003786	-0.514804	-0.676131
C66	C	-0.075058	-0.463283	-0.728717
C67	C	0.049835	-0.498991	-0.788214
C68	C	-0.040516	-0.125574	-0.800747
C69	C	-0.044642	-0.223476	-0.821649
C70	C	-0.039232	-0.270782	-0.797575
C71	C	-0.046172	-0.263965	-0.866386
C72	C	-0.036447	-0.360171	-0.818406
C73	C	-0.027197	-0.410486	-0.793373
C74	C	0.010719	-0.652613	-0.672809
C75	C	0.000994	-0.556406	-0.720789
C76	C	-0.008259	-0.506089	-0.745819
O77	O	-0.000965	0.173549	-0.277957
O78	O	-0.040516	-0.085616	-0.325254
O79	O	0.108737	0.059592	-0.327284
O80	O	-0.150219	0.028341	-0.275927
O81	O	0.114753	0.055151	-0.263265
O82	O	-0.034500	-0.090057	-0.261234
O83	O	0.005051	0.169108	-0.213937
Zn84	Zn	-0.013769	0.038820	-0.227421
Zn85	Zn	-0.021696	0.044672	-0.311770
O86	O	-0.144202	0.023900	-0.211907
O87	O	-0.034458	-0.474571	0.046517
O88	O	0.005076	-0.570190	-0.083599
O89	O	-0.144170	-0.570237	-0.008972
O90	O	0.114787	-0.474523	-0.028110
O91	O	-0.150200	-0.442024	-0.011093
O92	O	-0.000954	-0.441976	-0.085720
O93	O	-0.040488	-0.346357	0.044396
Zn94	Zn	-0.021679	-0.373810	-0.020999
Zn95	Zn	-0.013734	-0.542737	-0.018204
O96	O	0.108757	-0.346309	-0.030231
C97	C	-0.850734	0.086244	-0.289716
C98	C	-0.753280	0.087165	-0.312001
C99	C	-0.705462	0.081107	-0.288506
C100	C	-0.599592	0.000085	-0.264184
C101	C	-0.481080	0.121287	-0.283645
C102	C	-0.450996	0.035117	-0.097351
C103	C	-0.410501	0.028587	-0.146852
C104	C	-0.459292	0.034683	-0.169840
C105	C	-0.184802	0.024283	-0.235878
C106	C	-0.282257	0.023363	-0.213592
C107	C	-0.330068	0.029423	-0.237088
C108	C	-0.435938	0.110445	-0.261411
C109	C	-0.554456	-0.010759	-0.241948
C110	C	-0.584541	0.075410	-0.428242
C111	C	-0.625029	0.081943	-0.378743
C112	C	-0.576244	0.075844	-0.355753
C113	C	-0.713963	0.086424	-0.357292
C114	C	-0.616708	0.075351	-0.310510
C115	C	-0.565963	0.065400	-0.286043
C116	C	-0.321573	0.024104	-0.168302
C117	C	-0.418828	0.035176	-0.215083
C118	C	-0.469568	0.045131	-0.239552
O119	O	0.585213	0.169090	-0.504004
O120	O	0.494056	-0.090076	-0.525516
O121	O	0.488081	0.055124	-0.449918
O122	O	0.591189	0.023889	-0.579602
O123	O	0.359978	0.059584	-0.452885
O124	O	0.365953	-0.085616	-0.528483
O125	O	0.457110	0.173550	-0.506971
Zn126	Zn	0.391193	0.044675	-0.518198
Zn127	Zn	0.559974	0.038798	-0.514289
O128	O	0.463086	0.028349	-0.582569
C129	C	0.815354	-0.521094	-0.008709
C130	C	0.717898	-0.563028	-0.006927
C131	C	0.670072	-0.514739	-0.009298
C132	C	0.564182	-0.463204	-0.048354
C133	C	0.445681	-0.498945	0.013847
C134	C	0.415547	-0.125494	-0.028771
C135	C	0.375059	-0.223405	-0.031498
C136	C	0.423859	-0.270708	-0.029121
C137	C	0.149365	-0.395355	-0.030599
C138	C	0.246820	-0.353421	-0.032381
C139	C	0.294640	-0.401713	-0.030008
C140	C	0.400530	-0.453248	0.009048
C141	C	0.519038	-0.417504	-0.053155
C142	C	0.549171	-0.790955	-0.010537
C143	C	0.589653	-0.693047	-0.007809
C144	C	0.540859	-0.645741	-0.010187
C145	C	0.678588	-0.652551	-0.006775
C146	C	0.581317	-0.556344	-0.010973
C147	C	0.530562	-0.506029	-0.015250
C148	C	0.286131	-0.263897	-0.032533
C149	C	0.383402	-0.360104	-0.028335
C150	C	0.434150	-0.410423	-0.024057
O151	O	-0.620614	0.089309	0.052274
O152	O	-0.529507	0.043784	-0.078544
O153	O	-0.523494	0.194833	-0.006033
O154	O	-0.626628	-0.061740	-0.020236
O155	O	-0.395386	0.185419	-0.005549
O156	O	-0.401400	0.034370	-0.078059
O157	O	-0.492507	0.079895	0.052758
Zn158	Zn	-0.426614	0.055638	-0.012574
Zn159	Zn	-0.595401	0.068041	-0.013212
O160	O	-0.498521	-0.071154	-0.019752
C161	C	-0.437537	0.048335	0.402491
C162	C	-0.397043	0.041789	0.352989
C163	C	-0.445822	0.047883	0.329994
C164	C	-0.496646	0.126653	0.277022
C165	C	-0.465894	-0.000633	0.218811
C166	C	-0.837226	0.099430	0.210091
C167	C	-0.739773	0.100339	0.187806
C168	C	-0.691967	0.094287	0.211308
C169	C	-0.571027	0.088563	0.071568
C170	C	-0.611521	0.095108	0.121070
C171	C	-0.562739	0.089011	0.144061
C172	C	-0.511915	0.010241	0.197033
C173	C	-0.542670	0.137531	0.255247
C174	C	-0.171338	0.037467	0.263967
C175	C	-0.268788	0.036555	0.286249
C176	C	-0.316597	0.042611	0.262750
C177	C	-0.308112	0.037305	0.331542
C178	C	-0.405351	0.048369	0.284750
C179	C	-0.456092	0.058317	0.260279
C180	C	-0.700452	0.099593	0.142516
C181	C	-0.603213	0.088528	0.189308
C182	C	-0.552469	0.078578	0.213776
O183	O	-0.040608	-1.085661	-0.825229
O184	O	-0.001018	-0.826491	-0.777938
O185	O	-0.150287	-0.971682	-0.775894
O186	O	0.108661	-0.940470	-0.827272
O187	O	-0.144253	-0.976123	-0.711878
O188	O	0.005016	-0.830932	-0.713922
O189	O	-0.034575	-1.090102	-0.761213
Zn190	Zn	-0.013821	-0.961222	-0.727403
Zn191	Zn	-0.021771	-0.955371	-0.811747
O192	O	0.114695	-0.944911	-0.763256
C193	C	-0.036359	-0.225031	-0.248201
C194	C	0.040746	-0.140751	-0.237194
C195	C	0.043649	-0.095033	-0.187832
C196	C	-0.030554	-0.133594	-0.149477
C197	C	-0.107664	-0.217878	-0.160483
C198	C	-0.110566	-0.263597	-0.209845
H199	H	0.095680	-0.112202	-0.265588
H200	H	0.100731	-0.032640	-0.179685
H201	H	-0.028405	-0.099750	-0.112936
H202	H	-0.162598	-0.246428	-0.132090
H203	H	-0.167649	-0.325990	-0.217992
H204	H	0.330510	-0.448858	0.033327
H205	H	0.245727	-0.224039	-0.533582
C206	C	0.105102	-0.285312	-0.276743
C207	C	0.093466	-0.234393	-0.302546
C208	C	0.158972	-0.141648	-0.306413
C209	C	0.236113	-0.099824	-0.284477
C210	C	0.247752	-0.150744	-0.258672
C211	C	0.182246	-0.243488	-0.254805
H212	H	0.036359	-0.265353	-0.318786
H213	H	0.150356	-0.103954	-0.325515
H214	H	0.284604	-0.031169	-0.287339
H215	H	0.304859	-0.119783	-0.242432
H216	H	0.190862	-0.281182	-0.235702
H217	H	0.550886	-0.383867	-0.081621
H218	H	0.107243	-0.392097	-0.234140
H219	H	-0.754334	0.089615	-0.376700
H220	H	0.413839	-0.532573	0.042316
H221	H	-0.489994	0.175891	0.311254
C222	C	0.714408	-0.415992	-0.509999
C223	C	0.672850	-0.341282	-0.472403
C224	C	0.717335	-0.242482	-0.473202
C225	C	0.803377	-0.218393	-0.511597
C226	C	0.844939	-0.293105	-0.549196
C227	C	0.800455	-0.391905	-0.548397
H228	H	0.609152	-0.359112	-0.443978
H229	H	0.686567	-0.187175	-0.445368
H230	H	0.836308	-0.145255	-0.512188
H231	H	0.908637	-0.275275	-0.577621
H232	H	0.831222	-0.447212	-0.576230
C233	C	0.000917	-0.415969	-0.153239
C234	C	0.075120	-0.341272	-0.173528
C235	C	0.072230	-0.242464	-0.150629
C236	C	-0.004861	-0.218354	-0.107440
C237	C	-0.079069	-0.293052	-0.087149
C238	C	-0.076180	-0.391860	-0.110048
H239	H	0.132192	-0.359118	-0.205501
H240	H	0.127165	-0.187168	-0.165650
H241	H	-0.006999	-0.145211	-0.090488
H242	H	-0.136141	-0.275206	-0.055176
H243	H	-0.131114	-0.447156	-0.095027
H244	H	0.718758	-0.692512	-0.505593
C245	C	0.658664	-0.469252	-0.581079
C246	C	0.709952	-0.521183	-0.575608
C247	C	0.804545	-0.527157	-0.608402
C248	C	0.847850	-0.481201	-0.646667
C249	C	0.796562	-0.429266	-0.652140
C250	C	0.701969	-0.423292	-0.619346
H251	H	0.677895	-0.555206	-0.547280
H252	H	0.842511	-0.565603	-0.604350
H253	H	0.917873	-0.485623	-0.670942
H254	H	0.828619	-0.395243	-0.680467
H255	H	0.664003	-0.384846	-0.623398
C256	C	-0.520903	-0.056278	0.150792
C257	C	-0.573200	-0.043926	0.126038
C258	C	-0.582186	-0.110448	0.079794
C259	C	-0.538876	-0.189321	0.058304
C260	C	-0.486576	-0.201676	0.083057
C261	C	-0.477590	-0.135155	0.129301
H262	H	-0.605263	0.014464	0.141947
H263	H	-0.620902	-0.101301	0.061470
H264	H	-0.545529	-0.238564	0.024071
H265	H	-0.454512	-0.260066	0.067149
H266	H	-0.438873	-0.144301	0.147625
H267	H	-0.037138	-0.474881	-0.380005
C268	C	0.127367	-0.544413	-0.810032
C269	C	0.138995	-0.596351	-0.784735
C270	C	0.216525	-0.641775	-0.806552
C271	C	0.282427	-0.635263	-0.853666
C272	C	0.270801	-0.583323	-0.878965
C273	C	0.193271	-0.537898	-0.857148
H274	H	0.090209	-0.601174	-0.749856
H275	H	0.225131	-0.680225	-0.787824
H276	H	0.339819	-0.668889	-0.869816
H277	H	0.319587	-0.578500	-0.913844
H278	H	0.184665	-0.499449	-0.875876
H279	H	0.013390	-0.692483	-0.152899
C280	C	0.305839	-0.447294	-0.458095
C281	C	0.262544	-0.493251	-0.419831
C282	C	0.167957	-0.487272	-0.387031
C283	C	0.116664	-0.435337	-0.392496
C284	C	0.159958	-0.389377	-0.430762
C285	C	0.254546	-0.395355	-0.463562
H286	H	0.300514	-0.531700	-0.415784
H287	H	0.135907	-0.521295	-0.358703
H288	H	0.046645	-0.430912	-0.368215
H289	H	0.121988	-0.350928	-0.434809
H290	H	0.286595	-0.361332	-0.491889
H291	H	-0.048809	-0.224052	-0.886301
C292	C	-0.162851	-0.535209	-0.310678
C293	C	-0.234548	-0.485163	-0.295784
C294	C	-0.312096	-0.526704	-0.317435
C295	C	-0.317946	-0.618290	-0.353980
C296	C	-0.246246	-0.668340	-0.368876
C297	C	-0.168699	-0.626800	-0.347224
H298	H	-0.230220	-0.417361	-0.268730
H299	H	-0.365173	-0.489653	-0.306408
H300	H	-0.375352	-0.649041	-0.370007
H301	H	-0.250575	-0.736142	-0.395930
H302	H	-0.115622	-0.663851	-0.358251
C303	C	-0.162820	-0.372162	-0.729153
C304	C	-0.168635	-0.298912	-0.683283
C305	C	-0.246165	-0.253484	-0.661451
C306	C	-0.317879	-0.281306	-0.685489
C307	C	-0.312067	-0.354560	-0.731362
C308	C	-0.234537	-0.399988	-0.753194
H309	H	-0.115546	-0.278313	-0.665486
H310	H	-0.250467	-0.199257	-0.627492
H311	H	-0.375271	-0.247678	-0.669327
H312	H	-0.365156	-0.375159	-0.749158
H313	H	-0.230234	-0.454216	-0.787152
C314	C	-0.557407	0.040853	-0.145650
C315	C	-0.629806	-0.035460	-0.125999
C316	C	-0.727920	-0.029289	-0.101809
C317	C	-0.753636	0.053194	-0.097272
C318	C	-0.681235	0.129513	-0.116924
C319	C	-0.583121	0.123343	-0.141113
H320	H	-0.610771	-0.096525	-0.129357
H321	H	-0.781515	-0.085786	-0.087262
H322	H	-0.826266	0.057762	-0.079365
H323	H	-0.700270	0.190578	-0.113565
H324	H	-0.529525	0.179839	-0.155661
C325	C	-0.478129	0.069676	-0.379944
C326	C	-0.400900	0.142305	-0.361713
C327	C	-0.302785	0.136137	-0.385903
C328	C	-0.281899	0.057342	-0.428325
C329	C	-0.359130	-0.015293	-0.446559
C330	C	-0.457245	-0.009125	-0.422368
H331	H	-0.416359	0.200639	-0.330307
H332	H	-0.245613	0.189907	-0.372405
H333	H	-0.209268	0.052776	-0.446233
H334	H	-0.343671	-0.073627	-0.477964
H335	H	-0.514417	-0.062894	-0.435866
C336	C	-0.036343	-0.500575	-0.885960
C337	C	0.040763	-0.524679	-0.929141
C338	C	0.043660	-0.623484	-0.952040
C339	C	-0.030548	-0.698186	-0.931757
C340	C	-0.107660	-0.674084	-0.888573
C341	C	-0.110557	-0.575279	-0.865674
H342	H	0.095702	-0.469379	-0.944158
H343	H	0.100744	-0.641326	-0.984008
H344	H	-0.028403	-0.771327	-0.948708
H345	H	-0.162598	-0.729384	-0.873556
H346	H	-0.167641	-0.557437	-0.833706
H347	H	-0.738384	0.080845	-0.251490
H348	H	-0.449229	0.177371	-0.300885
H349	H	-0.669612	-0.046576	-0.265443
C350	C	-0.036333	-0.225063	-0.748212
C351	C	0.045343	-0.216676	-0.735297
C352	C	0.048241	-0.170957	-0.685934
C353	C	-0.030537	-0.133623	-0.649487
C354	C	-0.112219	-0.142008	-0.662401
C355	C	-0.115117	-0.187728	-0.711764
H356	H	0.103665	-0.244314	-0.762278
H357	H	0.108709	-0.164749	-0.676374
H358	H	-0.028391	-0.099779	-0.612945
H359	H	-0.170541	-0.114371	-0.635420
H360	H	-0.175584	-0.193935	-0.721324
H361	H	-0.267732	0.034117	0.350946
H362	H	0.496441	-0.236915	-0.527803
C363	C	-0.597481	-0.086516	-0.218652
C364	C	-0.549749	-0.159875	-0.233215
C365	C	-0.592773	-0.235630	-0.209917
C366	C	-0.683529	-0.238025	-0.172057
C367	C	-0.731265	-0.164663	-0.157492
C368	C	-0.688241	-0.088909	-0.180790
H369	H	-0.482562	-0.158105	-0.261243
H370	H	-0.557435	-0.289937	-0.220699
H371	H	-0.715377	-0.294103	-0.154811
H372	H	-0.798452	-0.166434	-0.129464
H373	H	-0.723580	-0.034602	-0.170008
H374	H	-0.297145	0.029698	-0.274103
C375	C	0.105109	-0.447321	-0.857732
C376	C	0.162617	-0.354830	-0.865559
C377	C	0.228120	-0.348866	-0.912817
C378	C	0.236116	-0.435395	-0.952248
C379	C	0.178606	-0.527893	-0.944422
C380	C	0.113102	-0.533857	-0.897164
H381	H	0.156700	-0.290770	-0.836369
H382	H	0.270693	-0.280392	-0.918610
H383	H	0.284605	-0.430980	-0.987231
H384	H	0.184523	-0.591953	-0.973612
H385	H	0.070530	-0.602331	-0.891370
C386	C	-0.267019	0.019802	-0.142087
C387	C	-0.179226	0.093807	-0.136669
C388	C	-0.124670	0.089509	-0.110454
C389	C	-0.157907	0.011206	-0.089659
C390	C	-0.245704	-0.062804	-0.095077
C391	C	-0.300260	-0.058506	-0.121291
H392	H	-0.154619	0.151776	-0.152063
H393	H	-0.059677	0.144296	-0.106443
H394	H	-0.117521	0.008024	-0.070254
H395	H	-0.270312	-0.120773	-0.079683
H396	H	-0.365254	-0.113294	-0.125302
C397	C	0.014264	-0.706525	-0.645896
C398	C	0.094110	-0.674999	-0.626713
C399	C	0.097650	-0.728911	-0.599798
C400	C	0.021345	-0.814349	-0.592066
C401	C	-0.058507	-0.845880	-0.611249
C402	C	-0.062047	-0.791967	-0.638163
H403	H	0.150601	-0.611749	-0.632437
H404	H	0.156762	-0.705570	-0.585598
H405	H	0.023966	-0.854259	-0.572142
H406	H	-0.114998	-0.909130	-0.605525
H407	H	-0.121159	-0.815308	-0.652364
C408	C	-0.464626	0.082836	0.119872
C409	C	-0.387397	0.155472	0.138101
C410	C	-0.289282	0.149302	0.113913
C411	C	-0.268396	0.070497	0.071497
C412	C	-0.345627	-0.002144	0.053266
C413	C	-0.443742	0.004025	0.077453
H414	H	-0.402856	0.213813	0.169503
H415	H	-0.232111	0.203076	0.127409
H416	H	-0.195766	0.065930	0.053591
H417	H	-0.330168	-0.060486	0.021864
H418	H	-0.500913	-0.049749	0.063957
C419	C	-0.736441	0.093975	0.261321
C420	C	-0.694853	0.168093	0.298091
C421	C	-0.739332	0.167802	0.348107
C422	C	-0.825400	0.093393	0.361352
C423	C	-0.866993	0.019269	0.324581
C424	C	-0.822514	0.019560	0.274566
H425	H	-0.631137	0.223180	0.288286
H426	H	-0.708542	0.222673	0.375327
H427	H	-0.858326	0.093177	0.398377
H428	H	-0.930709	-0.035818	0.334386
H429	H	-0.853304	-0.035311	0.247346
C430	C	0.231567	-0.209986	-0.033933
C431	C	0.214953	-0.124562	0.004799
C432	C	0.160387	-0.070650	0.003401
C433	C	0.122436	-0.102161	-0.036728
C434	C	0.139049	-0.187589	-0.075463
C435	C	0.193615	-0.241502	-0.074065
H436	H	0.243048	-0.101231	0.034507
H437	H	0.148089	-0.007410	0.032075
H438	H	0.082043	-0.062252	-0.037763
H439	H	0.110954	-0.210920	-0.105171
H440	H	0.205913	-0.304741	-0.102739
H441	H	-0.574318	0.196197	0.271049
H442	H	0.001632	-0.679646	-0.778160
H443	H	0.413699	-0.532573	-0.457601
H444	H	0.468233	-0.679598	-0.011487
H445	H	-0.365918	0.157102	-0.260160
H446	H	-0.740818	0.102779	0.123104
C447	C	-0.049780	-0.210017	-0.393277
C448	C	-0.129537	-0.241644	-0.412536
C449	C	-0.133089	-0.187724	-0.439443
C450	C	-0.056885	-0.102177	-0.447092
C451	C	0.022878	-0.070545	-0.427833
C452	C	0.026430	-0.124465	-0.400925
H453	H	-0.185954	-0.304976	-0.406874
H454	H	-0.192136	-0.211140	-0.453700
H455	H	-0.059514	-0.062262	-0.467010
H456	H	0.079295	-0.007214	-0.433495
H457	H	0.085477	-0.101049	-0.386669
C458	C	0.733150	-0.706462	-0.005373
C459	C	0.749605	-0.791992	-0.044056
C460	C	0.804168	-0.845903	-0.042656
C461	C	0.842276	-0.814284	-0.002572
C462	C	0.825822	-0.728750	0.036114
C463	C	0.771259	-0.674839	0.034714
H464	H	0.721394	-0.815402	-0.073731
H465	H	0.816348	-0.909221	-0.071294
H466	H	0.882667	-0.854192	-0.001535
H467	H	0.854033	-0.705340	0.065790
H468	H	0.759079	-0.611521	0.063352
H469	H	0.261721	-0.474856	-0.029430
H470	H	0.702991	-0.441593	-0.009870
C471	C	0.658778	-0.469152	-0.081154
C472	C	0.675680	-0.561633	-0.110539
C473	C	0.770277	-0.567573	-0.143339
C474	C	0.847971	-0.481032	-0.146753
C475	C	0.831071	-0.388545	-0.117367
C476	C	0.736474	-0.382605	-0.084568
H477	H	0.618164	-0.625701	-0.108013
H478	H	0.782787	-0.636038	-0.165093
H479	H	0.917997	-0.485429	-0.171033
H480	H	0.888587	-0.324476	-0.119894
H481	H	0.723964	-0.314139	-0.062814
H482	H	0.001650	-0.679613	-0.278166
C483	C	-0.423141	-0.079888	0.197471
C484	C	-0.351273	-0.088918	0.150706
C485	C	-0.308519	-0.168171	0.129366
C486	C	-0.337632	-0.238395	0.154793
C487	C	-0.409504	-0.229367	0.201561
C488	C	-0.452258	-0.150113	0.222900
H489	H	-0.329719	-0.036932	0.131881
H490	H	-0.255315	-0.174854	0.094745
H491	H	-0.305983	-0.297063	0.138996
H492	H	-0.431059	-0.281352	0.220385
H493	H	-0.505462	-0.143431	0.257521
C494	C	-0.543932	0.054066	0.354186
C495	C	-0.621171	-0.018564	0.335963
C496	C	-0.719281	-0.012383	0.360156
C497	C	-0.740154	0.066428	0.402572
C498	C	-0.662913	0.139064	0.420797
C499	C	-0.564802	0.132883	0.396604
H500	H	-0.605722	-0.076910	0.304563
H501	H	-0.776460	-0.066154	0.346664
H502	H	-0.812781	0.071003	0.420480
H503	H	-0.678362	0.197410	0.452197
H504	H	-0.507624	0.186653	0.410096
H505	H	-0.123560	-0.607102	-0.263443
H506	H	0.496488	-0.236853	-0.027824
H507	H	0.261638	-0.474883	-0.529387
H508	H	0.550810	-0.383955	-0.581575
C509	C	0.442573	-0.691491	-0.511832
C510	C	0.416857	-0.699881	-0.552727
C511	C	0.318739	-0.745597	-0.554480
C512	C	0.246339	-0.782922	-0.515339
C513	C	0.272053	-0.774533	-0.474441
C514	C	0.370171	-0.728818	-0.472687
H515	H	0.470453	-0.672250	-0.581704
H516	H	0.299704	-0.751806	-0.584756
H517	H	0.173706	-0.816763	-0.516637
H518	H	0.218457	-0.802165	-0.445463
H519	H	0.389206	-0.722608	-0.442412
H520	H	0.001639	-0.441666	-0.659178
H521	H	-0.123559	-0.467696	-0.693740
H522	H	-0.283673	0.042875	0.225734
