data_functionalizedCrystal
_audit_creation_method	'MofGen! by Chris Wilmer'
_symmetry_space_group_name_H-M	'P1'
_symmetry_Int_Tables_number	1
_symmetry_cell_setting	triclinic
loop_
_symmetry_equiv_pos_as_xyz
  x,y,z
_cell_length_a	10.654550
_cell_length_b	10.540539
_cell_length_c	9.130313
_cell_angle_alpha	90.000859
_cell_angle_beta	89.996220
_cell_angle_gamma	84.505197
loop_
_atom_site_label
_atom_site_type_symbol
_atom_site_fract_x
_atom_site_fract_y
_atom_site_fract_z
O1	O	1.667897	0.178295	-0.121912
O2	O	1.302424	0.195282	-0.121888
O3	O	1.493499	0.002079	-0.121899
O4	O	1.476823	0.371498	-0.121902
O5	O	1.493496	0.002084	0.121700
O6	O	1.302422	0.195287	0.121711
O7	O	1.667894	0.178300	0.121686
Cu8	Cu	1.485158	0.186794	0.143941
Cu9	Cu	1.485161	0.186788	-0.144143
O10	O	1.476820	0.371503	0.121697
C11	C	1.255625	0.194038	-0.000086
C12	C	1.116180	0.190306	-0.000077
C13	C	1.036734	0.304061	-0.000099
C14	C	0.905712	0.300547	-0.000124
C15	C	0.933595	0.069513	-0.000111
C16	C	1.064614	0.073028	-0.000075
C17	C	1.020636	0.437446	-0.000113
C18	C	0.889614	0.433932	-0.000138
C19	C	1.492247	-0.045221	-0.000102
C20	C	1.488505	-0.186168	-0.000110
C21	C	1.345134	-0.369543	-0.000647
C22	C	1.348927	-0.222926	-0.000099
C23	C	1.555675	-0.247846	0.138993
C24	C	1.550912	-0.394389	0.139110
C25	C	1.553753	-0.394914	-0.137907
C26	C	1.555039	-0.247933	-0.139747
C27	C	1.714694	0.179545	-0.000119
C28	C	1.854139	0.183276	-0.000138
C29	C	1.478072	0.418803	-0.000103
C30	C	1.481813	0.559750	-0.000105
N31	N	1.485165	0.186798	0.346564
N32	N	1.485163	0.186774	-0.346765
C33	C	1.569795	0.101277	0.423211
C34	C	1.569791	0.101262	0.576548
C35	C	1.400525	0.272300	0.576577
C36	C	1.400523	0.272308	0.423243
C37	C	1.667523	0.002533	0.423195
C38	C	1.667520	0.002518	0.576532
H39	H	1.049984	0.489616	0.101838
N40	N	1.490015	-0.193692	-0.276055
H41	H	1.494423	-0.098432	-0.278835
H42	H	1.533253	-0.233863	-0.365432
N43	N	0.829107	0.487340	0.139147
H44	H	0.783898	0.419469	0.189375
H45	H	0.896303	0.515742	0.206369
H46	H	1.056307	0.479916	-0.105285
H47	H	1.764039	0.024268	0.618142
H48	H	1.290221	-0.399728	0.098554
N49	N	0.877961	-0.056967	-0.000120
H50	H	0.906876	-0.106863	-0.090414
H51	H	0.906850	-0.106750	0.090250
H52	H	1.295701	-0.181149	0.099788
N53	N	0.834335	0.500487	-0.135180
H54	H	0.854866	0.592066	-0.135238
H55	H	0.871316	0.455905	-0.225460
H56	H	1.129295	-0.019602	-0.000036
H57	H	1.656802	-0.223748	-0.148154
H58	H	1.509013	-0.205228	0.242515
H59	H	1.646046	-0.095040	0.381578
N60	N	1.309233	0.364521	0.659280
H61	H	1.322070	0.351537	0.768048
H62	H	1.324537	0.454719	0.632491
N63	N	1.278917	-0.166458	-0.132174
H64	H	1.245307	-0.236804	-0.191275
H65	H	1.206447	-0.104398	-0.098830
H66	H	1.508580	-0.426453	-0.243339
N67	N	1.272085	-0.407400	-0.132771
H68	H	1.326876	-0.470755	-0.193561
H69	H	1.194522	-0.447403	-0.099448
H70	H	1.758718	0.033451	0.375631
H71	H	1.654570	-0.442177	-0.138850
H72	H	1.331600	0.341934	0.360838
H73	H	1.636975	-0.089688	0.624082
N74	N	1.485156	-0.431730	0.276849
H75	H	1.459528	-0.353029	0.336918
H76	H	1.407692	-0.474789	0.249782
H77	H	1.651295	-0.442394	0.145414
N78	N	1.691466	-0.218337	0.145819
H79	H	1.710792	-0.164565	0.058603
H80	H	1.705874	-0.170227	0.239038
