data_functionalizedCrystal
_audit_creation_method	'MofGen! by Chris Wilmer'
_symmetry_space_group_name_H-M	'P1'
_symmetry_Int_Tables_number	1
_symmetry_cell_setting	triclinic
loop_
_symmetry_equiv_pos_as_xyz
  x,y,z
_cell_length_a	14.044220
_cell_length_b	13.101039
_cell_length_c	14.044220
_cell_angle_alpha	93.667477
_cell_angle_beta	86.811122
_cell_angle_gamma	93.659868
loop_
_atom_site_label
_atom_site_type_symbol
_atom_site_fract_x
_atom_site_fract_y
_atom_site_fract_z
O1	O	1.281968	0.085109	-0.225348
O2	O	1.005298	0.085135	-0.217041
O3	O	1.139480	0.085112	-0.082860
O4	O	1.147787	0.085132	-0.359530
O5	O	1.129854	-0.085316	-0.092504
O6	O	0.995673	-0.085293	-0.226686
O7	O	1.272343	-0.085319	-0.234993
Zn8	Zn	1.132479	-0.112365	-0.232371
Zn9	Zn	1.145162	0.112181	-0.219663
O10	O	1.138161	-0.085296	-0.369175
C11	C	0.964864	-0.000076	-0.218228
C12	C	0.858722	-0.000066	-0.207383
N13	N	1.123831	-0.265612	-0.241043
C14	C	0.664383	-0.000088	-0.187558
C15	C	0.613253	-0.000087	-0.264472
C16	C	0.505116	-0.000099	-0.253441
C17	C	0.772529	-0.000076	-0.198587
C18	C	1.112065	-0.474653	-0.252851
C19	C	1.165580	-0.525538	-0.199179
C20	C	1.159034	-0.641855	-0.205749
C21	C	1.118610	-0.358325	-0.246282
C22	C	1.312777	-0.000106	-0.233806
C23	C	1.418920	-0.000109	-0.244651
C24	C	1.131031	-0.000102	-0.052060
C25	C	1.120187	-0.000102	0.054083
N26	N	1.153817	0.265428	-0.210984
C27	C	1.146610	-0.000080	-0.399974
C28	C	1.157455	-0.000073	-0.506116
C29	C	1.100362	-0.000086	0.248421
C30	C	1.177276	-0.000090	0.299551
C31	C	1.166245	-0.000080	0.407688
C32	C	1.111391	-0.000095	0.140275
H33	H	0.650693	-0.000077	-0.338605
H34	H	1.216314	-0.481744	-0.148295
C35	C	1.050286	-0.639219	-0.314846
C36	C	1.043589	-0.533764	-0.321550
H37	H	1.008018	-0.675719	-0.357264
H38	H	1.033444	-0.656738	-0.251249
H39	H	1.113937	-0.656720	-0.331494
H40	H	0.979939	-0.516262	-0.304895
H41	H	1.060425	-0.516238	-0.385161
C42	C	0.994215	0.087528	0.361022
C43	C	1.000290	-0.000082	0.298959
H44	H	0.932437	0.087522	0.392234
H45	H	1.005045	0.146948	0.325630
H46	H	1.041034	0.087520	0.407303
H47	H	0.953475	-0.000070	0.252673
H48	H	0.989449	-0.059517	0.334352
C49	C	0.514954	-0.000092	-0.095791
C50	C	0.613849	-0.000089	-0.087484
H51	H	0.483751	-0.000082	-0.034009
H52	H	0.493670	-0.059524	-0.132844
H53	H	0.500372	0.059341	-0.126140
H54	H	0.628431	-0.059526	-0.057142
H55	H	0.635140	0.059349	-0.050416
H56	H	1.251413	-0.000028	0.262115
