data_functionalizedCrystal
_audit_creation_method	'MofGen! by Chris Wilmer'
_symmetry_space_group_name_H-M	'P1'
_symmetry_Int_Tables_number	1
_symmetry_cell_setting	triclinic
loop_
_symmetry_equiv_pos_as_xyz
  x,y,z
_cell_length_a	16.109302
_cell_length_b	17.699083
_cell_length_c	15.186229
_cell_angle_alpha	89.995368
_cell_angle_beta	89.994701
_cell_angle_gamma	83.372398
loop_
_atom_site_label
_atom_site_type_symbol
_atom_site_fract_x
_atom_site_fract_y
_atom_site_fract_z
O1	O	1.102963	0.097287	-0.073270
O2	O	1.602963	0.597287	0.426730
O3	O	0.860880	0.109394	-0.073263
O4	O	1.360880	0.609394	0.426737
O5	O	0.988761	-0.006839	-0.073259
O6	O	1.488761	0.493161	0.426741
O7	O	0.975082	0.213520	-0.073274
O8	O	1.475082	0.713520	0.426726
O9	O	0.988752	-0.006841	0.073198
O10	O	1.488752	0.493159	0.573198
O11	O	0.860871	0.109392	0.073194
O12	O	1.360871	0.609392	0.573194
O13	O	1.102954	0.097286	0.073187
O14	O	1.602954	0.597286	0.573187
Zn15	Zn	0.981911	0.103338	0.096444
Zn16	Zn	1.481911	0.603338	0.596444
Zn17	Zn	0.981923	0.103341	-0.096520
Zn18	Zn	1.481923	0.603341	0.403480
O19	O	0.975073	0.213518	0.073183
O20	O	1.475073	0.713518	0.573183
C21	C	0.829902	0.108902	-0.000034
C22	C	1.329902	0.608902	0.499966
C23	C	0.737609	0.107432	-0.000031
C24	C	1.237609	0.607432	0.499969
C25	C	0.525269	0.104031	0.079795
C26	C	1.025269	0.604031	0.579795
C27	C	0.438552	0.102641	0.079792
C28	C	0.938552	0.602641	0.579792
C29	C	0.438571	0.102646	-0.079884
C30	C	0.938571	0.602646	0.420116
C31	C	0.525288	0.104031	-0.079880
C32	C	1.025288	0.604031	0.420120
C33	C	0.568634	0.104727	-0.000038
C34	C	1.068634	0.604727	0.499962
C35	C	0.395200	0.101952	-0.000045
C36	C	0.895200	0.601952	0.499955
C37	C	0.301177	0.100445	-0.000049
C38	C	0.801177	0.600445	0.499951
C39	C	0.662664	0.106232	-0.000034
C40	C	1.162664	0.606232	0.499966
C41	C	0.988266	-0.035038	-0.000030
C42	C	1.488266	0.464962	0.499970
C43	C	0.986796	-0.119058	-0.000030
C44	C	1.486796	0.380942	0.499970
C45	C	1.061859	-0.167571	-0.000031
C46	C	1.561859	0.332429	0.499969
C47	C	1.060473	-0.246517	-0.000038
C48	C	1.560473	0.253483	0.499962
C49	C	0.984022	-0.276947	-0.000039
C50	C	1.484022	0.223053	0.499961
C51	C	0.908953	-0.228427	-0.000041
C52	C	1.408953	0.271573	0.499959
C53	C	0.910340	-0.149483	-0.000039
C54	C	1.410340	0.350517	0.499961
C55	C	0.903356	-0.546798	-0.000048
C56	C	1.403356	-0.046798	0.499952
C57	C	0.901974	-0.625748	-0.000047
C58	C	1.401974	-0.125748	0.499953
C59	C	1.053488	-0.643832	-0.000047
C60	C	1.553488	-0.143832	0.499953
C61	C	1.054876	-0.564888	-0.000045
C62	C	1.554876	-0.064888	0.499955
C63	C	0.979807	-0.516375	-0.000052
C64	C	1.479807	-0.016375	0.499948
C65	C	0.981311	-0.430774	-0.000045
C66	C	1.481311	0.069226	0.499955
C67	C	0.982517	-0.362547	-0.000039
C68	C	1.482517	0.137453	0.499961
C69	C	1.133932	0.097777	-0.000044
C70	C	1.633932	0.597777	0.499956
C71	C	1.226225	0.099247	-0.000053
C72	C	1.726225	0.599247	0.499947
C73	C	0.975568	0.241717	-0.000048
C74	C	1.475568	0.741717	0.499952
C75	C	0.977038	0.325737	-0.000054
C76	C	1.477038	0.825737	0.499946
N77	N	0.981910	0.103336	0.228137
N78	N	1.481910	0.603336	0.728137
N79	N	0.981931	0.103337	-0.228212
N80	N	1.481931	0.603337	0.271788
C81	C	1.038555	0.051886	0.453861
C82	C	1.538555	0.551886	0.953861
C83	C	1.038557	0.051884	0.546051
C84	C	1.538557	0.551884	1.046051
C85	C	0.925280	0.154789	0.546056
C86	C	1.425280	0.654789	1.046056
C87	C	0.925274	0.154787	0.453868
C88	C	1.425274	0.654787	0.953868
C89	C	0.981916	0.103336	0.407773
C90	C	1.481916	0.603336	0.907773
C91	C	0.981925	0.103337	0.592151
C92	C	1.481925	0.603337	1.092151
C93	C	0.981927	0.103335	0.692107
C94	C	1.481927	0.603335	1.192107
C95	C	0.981913	0.103337	0.307811
C96	C	1.481913	0.603337	0.807811
H97	H	0.560559	0.104597	0.144807
H98	H	1.060559	0.604597	0.644807
H99	H	0.403248	0.102074	0.144800
H100	H	0.903248	0.602074	0.644800
C101	C	0.390886	0.101891	-0.167703
C102	C	0.890886	0.601891	0.332297
H103	H	0.333029	0.100975	-0.156273
H104	H	0.833029	0.600975	0.343727
H105	H	0.411530	0.058011	-0.200508
H106	H	0.911530	0.558011	0.299492
H107	H	0.398673	0.146236	-0.200502
H108	H	0.898673	0.646236	0.299498
C109	C	0.862976	0.211389	0.403164
C110	C	1.362976	0.711389	0.903164
H111	H	0.871082	0.204013	0.341659
H112	H	1.371082	0.704013	0.841659
H113	H	0.871905	0.261904	0.418263
H114	H	1.371905	0.761904	0.918263
H115	H	0.807504	0.203154	0.418279
H116	H	1.307504	0.703154	0.918279
C117	C	1.100858	-0.004709	0.596748
C118	C	1.600858	0.495291	1.096748
H119	H	1.092745	0.002653	0.658255
H120	H	1.592745	0.502653	1.158255
H121	H	1.156326	0.003523	0.581632
H122	H	1.656326	0.503523	1.081632
H123	H	1.091926	-0.055227	0.581644
H124	H	1.591926	0.444773	1.081644
H125	H	1.124114	-0.142802	-0.000025
H126	H	1.624114	0.357198	0.499975
H127	H	1.114613	-0.683341	-0.000046
H128	H	1.614613	-0.183341	0.499954
H129	H	0.839715	-0.650520	-0.000045
H130	H	1.339715	-0.150520	0.499955
C131	C	0.572993	0.104799	-0.167701
C132	C	1.072993	0.604799	0.332299
H133	H	0.534757	0.104198	-0.215252
H134	H	1.034757	0.604198	0.284748
H135	H	0.613253	0.061230	-0.171017
H136	H	1.113253	0.561230	0.328983
H137	H	0.600389	0.149456	-0.171015
H138	H	1.100389	0.649456	0.328985
C139	C	1.138969	-0.531415	-0.000041
C140	C	1.638969	-0.031415	0.499959
H141	H	1.129044	-0.477450	-0.000032
H142	H	1.629044	0.022550	0.499968
H143	H	1.169875	-0.548063	-0.051113
H144	H	1.669875	-0.048063	0.448887
H145	H	1.169863	-0.548072	0.051039
H146	H	1.669863	-0.048072	0.551039
C147	C	0.820784	-0.493444	-0.000039
C148	C	1.320784	0.006556	0.499961
H149	H	0.775056	-0.522876	-0.000028
H150	H	1.275056	-0.022876	0.499972
H151	H	0.818170	-0.462266	-0.051110
H152	H	1.318170	0.037734	0.448890
H153	H	0.818176	-0.462279	0.051042
H154	H	1.318176	0.037721	0.551042
C155	C	1.143042	-0.299879	-0.000030
C156	C	1.643042	0.200121	0.499970
H157	H	1.188772	-0.270449	-0.000017
H158	H	1.688772	0.229551	0.499983
H159	H	1.145662	-0.331048	-0.051103
H160	H	1.645662	0.168952	0.448897
H161	H	1.145641	-0.331052	0.051049
H162	H	1.645641	0.168948	0.551049
C163	C	0.862987	0.211387	0.596764
C164	C	1.362987	0.711387	1.096764
H165	H	0.871107	0.204027	0.658269
H166	H	1.371107	0.704027	1.158269
H167	H	0.807516	0.203157	0.581669
H168	H	1.307516	0.703157	1.081669
H169	H	0.871920	0.261904	0.581644
H170	H	1.371920	0.761904	1.081644
H171	H	0.846705	-0.253209	-0.000047
H172	H	1.346705	0.246791	0.499953
H173	H	0.849216	-0.109983	-0.000039
H174	H	1.349216	0.390017	0.499961
H175	H	1.084675	0.009991	0.416333
H176	H	1.584675	0.509991	0.916333
