data_functionalizedCrystal
_audit_creation_method	'MofGen! by Chris Wilmer'
_symmetry_space_group_name_H-M	'P1'
_symmetry_Int_Tables_number	1
_symmetry_cell_setting	triclinic
loop_
_symmetry_equiv_pos_as_xyz
  x,y,z
_cell_length_a	18.760490
_cell_length_b	21.606444
_cell_length_c	21.606444
_cell_angle_alpha	59.991153
_cell_angle_beta	90.020172
_cell_angle_gamma	60.027417
loop_
_atom_site_label
_atom_site_type_symbol
_atom_site_fract_x
_atom_site_fract_y
_atom_site_fract_z
Zr1	Zr	0.686540	0.677760	-0.081267
O2	O	0.572742	0.806854	-0.180127
O3	O	0.721424	0.548641	-0.050946
O4	O	0.721418	0.677777	-0.180090
O5	O	0.572755	0.677713	0.050871
O6	O	0.838696	0.677819	-0.180079
O7	O	0.572749	0.677718	-0.050983
O8	O	0.838708	0.446819	0.050937
O9	O	0.572743	0.908714	-0.180144
O10	O	0.823827	0.601790	-0.038024
O11	O	0.736307	0.601756	0.037980
O12	O	0.736299	0.753796	-0.114071
O13	O	0.648780	0.753762	-0.038067
Zr14	Zr	0.873595	0.677820	0.081197
Zr15	Zr	0.873586	0.677827	-0.081248
Zr16	Zr	0.686549	0.677753	0.081178
Zr17	Zr	0.686541	0.840215	-0.081294
Zr18	Zr	0.873594	0.515365	0.081224
O19	O	0.838710	0.806939	0.050876
O20	O	0.838697	0.806949	-0.180100
O21	O	0.572756	0.806844	0.050850
O22	O	0.987393	0.548727	0.180057
O23	O	0.987379	0.548737	-0.050920
O24	O	0.721438	0.548631	0.180030
O25	O	0.987380	0.677867	-0.050941
O26	O	0.838717	0.677804	0.180021
O27	O	0.721439	0.677761	0.180009
O28	O	0.987386	0.677863	0.050913
O29	O	0.721419	0.908767	-0.180129
O30	O	0.838716	0.446813	0.180059
O31	O	0.987392	0.446867	0.180074
O32	O	0.987385	0.446872	0.050952
O33	O	0.572750	0.908708	-0.051021
O34	O	0.721427	0.908762	-0.051007
O35	O	0.823835	0.601784	0.114001
O36	O	0.911355	0.601819	0.037997
O37	O	0.823828	0.753825	-0.038050
O38	O	0.736308	0.753790	0.037954
C39	C	0.780066	0.474584	-0.000001
C40	C	0.780066	0.405617	0.000011
C41	C	0.715450	0.429331	-0.056124
C42	C	0.715453	0.364542	-0.056140
C43	C	0.780067	0.276039	-0.000017
C44	C	0.844689	0.252325	0.056121
C45	C	0.844690	0.317114	0.056133
C46	C	0.844689	-0.008961	0.056073
C47	C	0.844682	-0.073750	0.056058
C48	C	0.715452	0.038467	-0.056199
C49	C	0.715452	0.103255	-0.056187
C50	C	0.780076	0.079536	-0.000052
C51	C	0.780074	0.149789	-0.000037
C52	C	0.780067	0.205787	-0.000029
C53	C	0.546102	0.677706	-0.000058
C54	C	0.466696	0.677678	-0.000066
C55	C	0.130705	0.677882	-0.056125
C56	C	0.130828	0.677877	0.056105
C57	C	0.205474	0.677834	0.056093
C58	C	0.242740	0.677813	-0.000029
C59	C	0.205360	0.677836	-0.056138
C60	C	0.242865	0.677802	0.112205
C61	C	0.317516	0.677758	0.112196
C62	C	0.354780	0.677743	0.056070
C63	C	0.317395	0.677767	-0.000041
C64	C	0.354661	0.677747	-0.056163
C65	C	0.317273	0.677777	-0.112278
C66	C	0.242624	0.677822	-0.112263
C67	C	0.429430	0.677698	0.056055
C68	C	0.429316	0.677700	-0.056175
C69	C	1.014033	0.677874	-0.000011
C70	C	1.093439	0.677903	-0.000003
C71	C	0.780056	0.677799	-0.203230
C72	C	0.780052	0.677802	-0.272192
C73	C	0.780069	0.880997	-0.000069
C74	C	0.780069	0.949963	-0.000081
C75	C	0.734363	0.757147	-0.344286
C76	C	0.734370	0.757144	-0.409081
C77	C	0.780062	0.677796	-0.401780
C78	C	0.825756	0.598445	-0.329678
C79	C	0.825753	0.598448	-0.264885
C80	C	0.825770	0.598430	-0.590981
C81	C	0.825767	0.598433	-0.655782
C82	C	0.734387	0.757126	-0.735177
C83	C	0.734384	0.757129	-0.670384
C84	C	0.780082	0.677779	-0.598288
C85	C	0.780075	0.677782	-0.528031
C86	C	0.780065	0.677792	-0.472036
C87	C	0.780079	0.677781	0.203160
C88	C	0.780083	0.677779	0.272122
C89	C	1.014032	0.474668	0.000023
C90	C	1.093437	0.405730	0.000042
C91	C	0.780078	0.474575	0.203194
C92	C	0.780082	0.405605	0.272168
C93	C	1.014044	0.474659	0.203217
C94	C	1.093453	0.405718	0.272199
C95	C	0.546091	0.880922	-0.203287
C96	C	0.466682	0.949862	-0.272269
C97	C	0.546103	0.880913	-0.000092
C98	C	0.466698	0.949851	-0.000112
C99	C	0.780057	0.881006	-0.203264
C100	C	0.780053	0.949975	-0.272238
C101	C	1.085038	0.373341	-0.039638
C102	C	1.159641	0.308575	-0.039635
C103	C	1.242642	0.276195	0.000053
C104	C	1.251039	0.308590	0.039734
C105	C	1.176437	0.373359	0.039726
C106	C	0.825772	0.373231	0.344248
C107	C	0.825772	0.308436	0.409062
C108	C	0.780086	0.276012	0.401795
C109	C	0.734390	0.308392	0.329707
C110	C	0.734386	0.373191	0.264894
C111	C	1.176437	0.373361	0.264921
C112	C	1.251057	0.308592	0.329730
C113	C	1.242693	0.276178	0.401818
C114	C	1.159700	0.308542	0.409095
C115	C	1.085082	0.373313	0.344286
C116	C	0.383698	0.982228	-0.264990
C117	C	0.309078	1.047016	-0.329800
C118	C	0.317442	1.079434	-0.401888
C119	C	0.400434	1.047066	-0.409165
C120	C	0.475053	0.982283	-0.344356
C121	C	0.475097	0.982246	0.039561
C122	C	0.400494	1.047030	0.039540
C123	C	0.317493	1.079412	-0.000150
C124	C	0.309096	1.047014	-0.039828
C125	C	0.383698	0.982236	-0.039811
C126	C	0.825748	0.982379	-0.264946
C127	C	0.825762	1.047174	-0.329748
C128	C	0.780075	1.079569	-0.401841
C129	C	0.734379	1.047159	-0.409131
C130	C	0.734371	0.982361	-0.344330
H131	H	0.459651	0.677688	-0.101879
O132	O	0.564611	0.947333	0.082373
H133	H	0.615086	0.896840	0.075731
H134	H	0.256755	1.132158	-0.000158
O135	O	0.409560	1.081956	0.082348
H136	H	0.479811	1.048538	0.109961
H137	H	0.862975	0.399624	0.350179
H138	H	0.697182	0.399541	0.206206
H139	H	0.212179	0.677845	-0.157949
O140	O	1.340562	0.273662	0.082544
H141	H	1.376729	0.202191	0.126411
H142	H	0.697157	0.955985	-0.350277
H143	H	1.183288	0.399722	0.072043
O144	O	0.875076	0.273504	0.486809
H145	H	0.906858	0.306926	0.480967
H146	H	1.183264	0.399743	0.206229
O147	O	0.685121	0.273416	0.321867
H148	H	0.711528	0.243905	0.290412
O149	O	0.914385	0.156869	0.116649
H150	H	0.959323	0.151265	0.155680
H151	H	0.376847	0.955861	-0.072116
O152	O	0.875037	0.512858	-0.321797
H153	H	0.867356	0.526184	-0.378963
H154	H	1.303459	0.223437	0.454583
H155	H	1.152903	0.282141	0.467797
O156	O	0.780074	1.149471	-0.471733
H157	H	0.819517	1.166564	-0.454543
O158	O	0.219571	1.081944	-0.082637
H159	H	0.169115	1.132423	-0.075972
O160	O	0.685077	0.842735	-0.352170
H161	H	0.634572	0.846519	-0.324564
H162	H	0.662836	0.383858	-0.101850
O163	O	0.090382	0.677925	-0.116654
H164	H	0.032211	0.677962	-0.107221
H165	H	0.862951	0.956013	-0.206250
O166	O	1.150565	0.273641	-0.082432
H167	H	1.182345	0.286107	-0.126303
H168	H	0.780097	0.223249	0.454576
O169	O	0.219576	1.081902	-0.321932
H170	H	0.183391	1.153369	-0.349547
O171	O	0.875045	0.512849	-0.513226
H172	H	0.906805	0.457676	-0.519038
H173	H	0.407235	1.073469	-0.467866
H174	H	0.662833	0.175317	-0.101886
O175	O	0.875047	1.082127	-0.321878
H176	H	0.906799	1.048721	-0.260859
O177	O	0.685094	1.082111	-0.486890
H178	H	0.692772	1.132622	-0.530719
O179	O	1.323099	0.206338	0.000054
H180	H	1.382231	0.189263	0.034312
H181	H	0.662824	0.501392	-0.101818
H182	H	0.662834	0.057774	-0.101910
H183	H	0.542620	0.955932	-0.350291
O184	O	0.914387	-0.169213	0.116583
H185	H	0.959333	-0.174823	0.155613
H186	H	0.862958	0.533838	-0.206182
H187	H	1.318626	0.282249	0.323791
H188	H	0.897310	-0.028284	0.101781
H189	H	0.347627	0.677754	-0.157970
O190	O	0.914378	0.291543	0.116680
H191	H	0.959304	0.219117	0.155709
O192	O	0.995577	0.408193	0.352140
H193	H	1.002306	0.374757	0.413156
H194	H	0.100487	0.677888	0.101801
O195	O	0.202676	0.677822	0.172735
H196	H	0.144480	0.677870	0.163309
O197	O	0.469762	0.677660	0.116573
H198	H	0.421345	0.736995	0.113805
O199	O	0.236957	1.149316	-0.471787
H200	H	0.177851	1.166369	-0.454608
O201	O	0.357840	0.677724	0.172717
H202	H	0.309418	0.737062	0.169945
O203	O	0.685089	0.842723	-0.486842
H204	H	0.653307	0.897899	-0.481033
O205	O	0.685098	0.842711	-0.678257
H206	H	0.711503	0.880776	-0.709718
O207	O	0.685114	0.842717	-0.812940
H208	H	0.692800	0.829389	-0.856771
O209	O	0.875080	0.512847	-0.647910
H210	H	0.906872	0.457669	-0.586892
H211	H	1.017461	0.399704	-0.071966
O212	O	0.374666	0.947274	-0.187243
H213	H	0.304420	0.980681	-0.193082
