data_functionalizedCrystal
_audit_creation_method	'MofGen! by Chris Wilmer'
_symmetry_space_group_name_H-M	'P1'
_symmetry_Int_Tables_number	1
_symmetry_cell_setting	triclinic
loop_
_symmetry_equiv_pos_as_xyz
  x,y,z
_cell_length_a	19.188933
_cell_length_b	19.188928
_cell_length_c	7.088929
_cell_angle_alpha	96.209846
_cell_angle_beta	96.183987
_cell_angle_gamma	96.855309
loop_
_atom_site_label
_atom_site_type_symbol
_atom_site_fract_x
_atom_site_fract_y
_atom_site_fract_z
O1	O	0.918955	-0.094372	-0.158959
O2	O	1.418955	0.405628	0.341041
O3	O	0.715643	-0.106106	-0.158981
O4	O	1.215643	0.393894	0.341019
O5	O	0.823169	0.001419	-0.158921
O6	O	1.323169	0.501419	0.341079
O7	O	0.811429	-0.201897	-0.159019
O8	O	1.311429	0.298103	0.340981
O9	O	0.837539	0.015821	0.159063
O10	O	1.337539	0.515821	0.659063
O11	O	0.730013	-0.091704	0.159003
O12	O	1.230013	0.408296	0.659003
O13	O	0.933325	-0.079970	0.159025
O14	O	1.433325	0.420030	0.659025
Cu15	Cu	0.832981	-0.084522	0.188048
Cu16	Cu	1.332981	0.415478	0.688048
Cu17	Cu	0.815987	-0.101554	-0.188004
Cu18	Cu	1.315987	0.398446	0.311996
O19	O	0.825799	-0.187495	0.158965
O20	O	1.325799	0.312505	0.658965
C21	C	0.696817	-0.098525	0.000009
C22	C	1.196817	0.401475	0.500009
C23	C	0.619312	-0.097384	0.000003
C24	C	1.119312	0.402616	0.500003
C25	C	0.058225	-0.097088	-0.173305
C26	C	0.558225	0.402912	0.326695
C27	C	0.131049	-0.098156	-0.173313
C28	C	0.631049	0.401844	0.326687
C29	C	0.175299	-0.090843	0.000019
C30	C	0.675299	0.409157	0.500019
C31	C	0.146722	-0.082443	0.173371
C32	C	0.646722	0.417557	0.673371
C33	C	0.073900	-0.081368	0.173374
C34	C	0.573900	0.418632	0.673374
N35	N	0.290148	-0.126419	0.129017
N36	N	0.790148	0.373581	0.629017
N37	N	0.359325	-0.127443	0.129003
N38	N	0.859325	0.372557	0.629003
C39	C	0.394707	-0.094081	0.000020
C40	C	0.894707	0.405919	0.500020
N41	N	0.358297	-0.059667	-0.128977
N42	N	0.858297	0.440333	0.371023
N43	N	0.289113	-0.058647	-0.128968
N44	N	0.789113	0.441353	0.371032
C45	C	0.254263	-0.092008	0.000035
C46	C	0.754263	0.407992	0.500035
C47	C	0.502241	-0.103634	-0.173330
C48	C	1.002241	0.396366	0.326670
C49	C	0.575067	-0.104698	-0.173331
C50	C	1.075067	0.395302	0.326669
C51	C	0.590738	-0.088992	0.173359
C52	C	1.090738	0.411008	0.673359
C53	C	0.517914	-0.087921	0.173354
C54	C	1.017914	0.412079	0.673354
C55	C	0.473669	-0.095246	0.000005
C56	C	0.973669	0.404754	0.500005
C57	C	0.829975	0.034631	0.000079
C58	C	1.329975	0.534631	0.500079
C59	C	0.828836	0.112137	0.000104
C60	C	1.328836	0.612137	0.500104
C61	C	0.891928	0.157062	0.000125
C62	C	1.391928	0.657062	0.500125
C63	C	0.890856	0.229885	0.000102
C64	C	1.390856	0.729885	0.500102
C65	C	0.826690	0.257781	0.000097
C66	C	1.326690	0.757781	0.500097
C67	C	0.763589	0.212847	0.000066
C68	C	1.263589	0.712847	0.500066
C69	C	0.764662	0.140024	0.000069
C70	C	1.264662	0.640024	0.500069
N71	N	0.782534	0.370688	0.108319
N72	N	1.282534	0.870688	0.608319
N73	N	0.781519	0.439867	0.108320
N74	N	1.281519	0.939867	0.608320
C75	C	0.823453	0.477190	0.000082
C76	C	1.323453	0.977190	0.500082
N77	N	0.866451	0.442722	-0.108133
N78	N	1.366451	0.942722	0.391867
N79	N	0.867469	0.373538	-0.108125
N80	N	1.367469	0.873538	0.391875
C81	C	0.825519	0.336744	0.000092
C82	C	1.325519	0.836744	0.500092
C83	C	0.885387	0.601077	0.000075
C84	C	1.385387	1.101077	0.500075
C85	C	0.884311	0.673901	0.000040
C86	C	1.384311	1.173901	0.500040
C87	C	0.757044	0.656862	0.000023
C88	C	1.257044	1.156862	0.500023
C89	C	0.758120	0.584039	0.000039
C90	C	1.258120	1.084039	0.500039
C91	C	0.822294	0.556152	0.000073
C92	C	1.322294	1.056152	0.500073
C93	C	0.952151	-0.087551	0.000031
C94	C	1.452151	0.412449	0.500031
C95	C	1.029655	-0.088693	0.000024
C96	C	1.529655	0.411307	0.500024
C97	C	0.818996	0.779294	-0.000012
C98	C	1.318996	1.279294	0.499988
C99	C	0.820145	0.701792	0.000032
C100	C	1.320145	1.201792	0.500032
N101	N	0.844939	-0.072542	0.452543
N102	N	1.344939	0.427458	0.952543
N103	N	0.804035	-0.113528	-0.452499
N104	N	1.304035	0.386472	0.047501
H105	H	0.494652	-0.081087	0.314498
H106	H	0.994652	0.418913	0.814498
Cl107	Cl	0.676376	0.691925	0.000006
Cl108	Cl	1.176376	1.191925	0.500006
Cl109	Cl	0.910402	-0.006968	0.578639
Cl110	Cl	1.410402	0.493032	1.078639
Cl111	Cl	0.738582	-0.179106	0.421412
Cl112	Cl	1.238582	0.320894	0.921412
H113	H	0.154314	-0.104997	-0.314464
H114	H	0.654314	0.395003	0.185536
H115	H	0.022205	-0.103050	-0.314460
H116	H	0.522205	0.396950	0.185540
H117	H	0.182755	-0.076487	0.314499
H118	H	0.682755	0.423513	0.814499
Cl119	Cl	0.037982	-0.070816	0.391293
Cl120	Cl	0.537982	0.429184	0.891293
Cl121	Cl	0.446616	-0.112837	-0.391250
Cl122	Cl	0.946616	0.387163	0.108750
H123	H	0.706744	0.547461	0.000033
H124	H	1.206744	1.047461	0.500033
Cl125	Cl	0.610984	-0.115246	-0.391252
Cl126	Cl	1.110984	0.384754	0.108748
H127	H	0.626766	-0.083034	0.314489
H128	H	1.126766	0.416966	0.814489
Cl129	Cl	0.972601	0.122005	0.000114
Cl130	Cl	1.472601	0.622005	0.500114
H131	H	0.935690	0.710478	0.000046
H132	H	1.435690	1.210478	0.500046
H133	H	0.942234	0.266469	0.000111
H134	H	1.442234	0.766469	0.500111
H135	H	0.711344	0.235565	0.000057
H136	H	1.211344	0.735565	0.500057
Cl137	Cl	0.966061	0.566016	0.000130
Cl138	Cl	1.466061	1.066016	0.500130
Cl139	Cl	0.685339	0.083545	0.000045
Cl140	Cl	1.185339	0.583545	0.500045
