data_functionalizedCrystal
_audit_creation_method	'MofGen! by Chris Wilmer'
_symmetry_space_group_name_H-M	'P1'
_symmetry_Int_Tables_number	1
_symmetry_cell_setting	triclinic
loop_
_symmetry_equiv_pos_as_xyz
  x,y,z
_cell_length_a	16.625548
_cell_length_b	13.897448
_cell_length_c	16.625539
_cell_angle_alpha	90.025684
_cell_angle_beta	89.982945
_cell_angle_gamma	89.981240
loop_
_atom_site_label
_atom_site_type_symbol
_atom_site_fract_x
_atom_site_fract_y
_atom_site_fract_z
Zn1	Zn	1.232679	0.384003	-0.455914
Zn2	Zn	1.482679	0.634003	-0.205914
Zn3	Zn	1.732679	0.884003	0.044086
Zn4	Zn	1.982679	1.134003	0.294086
Zn5	Zn	1.232602	0.545311	-0.321083
Zn6	Zn	1.482602	0.795311	-0.071083
Zn7	Zn	1.732602	1.045311	0.178917
Zn8	Zn	1.982602	1.295311	0.428917
Zn9	Zn	1.097849	0.384035	-0.321094
Zn10	Zn	1.347849	0.634035	-0.071094
Zn11	Zn	1.597849	0.884035	0.178906
Zn12	Zn	1.847849	1.134035	0.428906
Zn13	Zn	1.097823	0.545261	-0.455872
Zn14	Zn	1.347823	0.795261	-0.205872
Zn15	Zn	1.597823	1.045261	0.044128
Zn16	Zn	1.847823	1.295261	0.294128
O17	O	1.165238	0.464653	-0.388491
O18	O	1.415238	0.714653	-0.138491
O19	O	1.665238	0.964653	0.111509
O20	O	1.915238	1.214653	0.361509
O21	O	1.345501	0.405409	-0.438040
O22	O	1.595501	0.655409	-0.188040
O23	O	1.845501	0.905409	0.061960
O24	O	2.095501	1.155409	0.311960
O25	O	1.214706	0.523952	-0.208252
O26	O	1.464706	0.773952	0.041748
O27	O	1.714706	1.023952	0.291748
O28	O	1.964706	1.273952	0.541748
O29	O	1.115778	0.249049	-0.339000
O30	O	1.365778	0.499049	-0.089000
O31	O	1.615778	0.749049	0.161000
O32	O	1.865778	0.999049	0.411000
O33	O	1.345445	0.523921	-0.338981
O34	O	1.595445	0.773921	-0.088981
O35	O	1.845445	1.023921	0.161019
O36	O	2.095445	1.273921	0.411019
O37	O	1.214837	0.249026	-0.438052
O38	O	1.464837	0.499026	-0.188052
O39	O	1.714837	0.749026	0.061948
O40	O	1.964837	0.999026	0.311948
O41	O	1.115703	0.405463	-0.208260
O42	O	1.365703	0.655463	0.041740
O43	O	1.615703	0.905463	0.291740
O44	O	1.865703	1.155463	0.541740
O45	O	0.985013	0.405414	-0.338960
O46	O	1.235013	0.655414	-0.088960
O47	O	1.485013	0.905414	0.161040
O48	O	1.735013	1.155414	0.411040
O49	O	1.115733	0.523836	-0.568710
O50	O	1.365733	0.773836	-0.318710
O51	O	1.615733	1.023836	-0.068710
O52	O	1.865733	1.273836	0.181290
O53	O	0.984994	0.523866	-0.437981
O54	O	1.234994	0.773866	-0.187981
O55	O	1.484994	1.023866	0.062019
O56	O	1.734994	1.273866	0.312019
O57	O	1.214811	0.405360	-0.568741
O58	O	1.464811	0.655360	-0.318741
O59	O	1.714811	0.905360	-0.068741
O60	O	1.964811	1.155360	0.181259
O61	O	1.214680	0.680286	-0.338941
O62	O	1.464680	0.930286	-0.088941
O63	O	1.714680	1.180286	0.161059
O64	O	1.964680	1.430286	0.411059
O65	O	1.115658	0.680249	-0.437970
O66	O	1.365658	0.930249	-0.187970
O67	O	1.615658	1.180249	0.062030
O68	O	1.865658	1.430249	0.312030
C69	C	0.955747	0.464639	-0.388468
C70	C	1.205747	0.714639	-0.138468
C71	C	1.455747	0.964639	0.111532
C72	C	1.705747	1.214639	0.361532
C73	C	0.866126	0.464656	-0.388478
C74	C	1.116126	0.714656	-0.138478
C75	C	1.366126	0.964656	0.111522
C76	C	1.616126	1.214656	0.361522
C77	C	1.165179	0.715267	-0.388467
C78	C	1.415179	0.965267	-0.138467
C79	C	1.665179	1.215267	0.111533
C80	C	1.915179	1.465267	0.361533
C81	C	1.165228	0.822481	-0.388484
C82	C	1.415228	1.072481	-0.138484
C83	C	1.665228	1.322481	0.111516
C84	C	1.915228	1.572481	0.361516
C85	C	1.165278	0.464589	-0.598800
C86	C	1.415278	0.714589	-0.348800
C87	C	1.665278	0.964589	-0.098800
C88	C	1.915278	1.214589	0.151200
C89	C	1.165295	0.464562	-0.688421
C90	C	1.415295	0.714562	-0.438421
C91	C	1.665295	0.964562	-0.188421
C92	C	1.915295	1.214562	0.061579
C93	C	0.537951	0.464663	-0.388512
C94	C	0.787951	0.714663	-0.138512
C95	C	1.037951	0.964663	0.111488
C96	C	1.287951	1.214663	0.361488
C97	C	0.629259	0.464658	-0.388500
C98	C	0.879259	0.714658	-0.138500
C99	C	1.129259	0.964658	0.111500
C100	C	1.379259	1.214658	0.361500
C101	C	0.702036	0.464660	-0.388494
C102	C	0.952036	0.714660	-0.138494
C103	C	1.202036	0.964660	0.111506
C104	C	1.452036	1.214660	0.361506
C105	C	0.793350	0.464654	-0.388483
C106	C	1.043350	0.714654	-0.138483
C107	C	1.293350	0.964654	0.111517
C108	C	1.543350	1.214654	0.361517
C109	C	1.375547	0.464667	-0.388514
C110	C	1.625547	0.714667	-0.138514
C111	C	1.875547	0.964667	0.111486
C112	C	2.125547	1.214667	0.361486
C113	C	1.465168	0.464673	-0.388524
C114	C	1.715168	0.714673	-0.138524
C115	C	1.965168	0.964673	0.111476
C116	C	2.215168	1.214673	0.361476
C117	C	1.165319	0.213060	-0.388532
C118	C	1.415319	0.463060	-0.138532
C119	C	1.665319	0.713060	0.111468
C120	C	1.915319	0.963060	0.361468
C121	C	1.165354	0.105846	-0.388549
C122	C	1.415354	0.355846	-0.138549
C123	C	1.665354	0.605846	0.111451
C124	C	1.915354	0.855846	0.361451
C125	C	1.165313	1.018776	-0.388535
C126	C	1.415313	1.268776	-0.138535
C127	C	1.665313	1.518776	0.111465
C128	C	1.915313	1.768776	0.361465
C129	C	1.165263	0.909544	-0.388509
C130	C	1.415263	1.159544	-0.138509
C131	C	1.665263	1.409544	0.111491
C132	C	1.915263	1.659544	0.361491
C133	C	1.165308	0.464541	-0.761203
C134	C	1.415308	0.714541	-0.511203
C135	C	1.665308	0.964541	-0.261203
C136	C	1.915308	1.214541	-0.011203
C137	C	1.165327	0.464505	-0.852512
C138	C	1.415327	0.714505	-0.602512
C139	C	1.665327	0.964505	-0.352512
C140	C	1.915327	1.214505	-0.102512
C141	C	1.165346	0.464471	-0.925288
C142	C	1.415346	0.714471	-0.675288
C143	C	1.665346	0.964471	-0.425288
C144	C	1.915346	1.214471	-0.175288
C145	C	1.165366	0.464436	-1.016603
C146	C	1.415366	0.714436	-0.766603
C147	C	1.665366	0.964436	-0.516603
C148	C	1.915366	1.214436	-0.266603
C149	C	1.165245	0.464647	-0.179000
C150	C	1.415245	0.714647	0.071000
C151	C	1.665245	0.964647	0.321000
C152	C	1.915245	1.214647	0.571000
C153	C	1.165385	0.464402	-0.089379
C154	C	1.415385	0.714402	0.160621
C155	C	1.665385	0.964402	0.410621
C156	C	1.915385	1.214402	0.660621
