data_functionalizedCrystal
_audit_creation_method	'MofGen! by Chris Wilmer'
_symmetry_space_group_name_H-M	'P1'
_symmetry_Int_Tables_number	1
_symmetry_cell_setting	triclinic
loop_
_symmetry_equiv_pos_as_xyz
  x,y,z
_cell_length_a	8.597187
_cell_length_b	7.681481
_cell_length_c	8.634740
_cell_angle_alpha	83.366800
_cell_angle_beta	87.119854
_cell_angle_gamma	91.833072
loop_
_atom_site_label
_atom_site_type_symbol
_atom_site_fract_x
_atom_site_fract_y
_atom_site_fract_z
O1	O	2.077453	0.461593	-0.276122
O2	O	2.410786	0.794927	0.057212
O3	O	2.744120	1.128260	0.390545
O4	O	1.629067	0.393571	-0.287121
O5	O	1.962401	0.726905	0.046212
O6	O	2.295734	1.060238	0.379545
O7	O	1.832036	0.424358	-0.056504
O8	O	2.165369	0.757692	0.276829
O9	O	2.498702	1.091025	0.610163
O10	O	1.874485	0.430806	-0.506739
O11	O	2.207818	0.764140	-0.173406
O12	O	2.541152	1.097473	0.159928
O13	O	1.857008	0.135288	-0.028053
O14	O	2.190341	0.468622	0.305281
O15	O	2.523674	0.801955	0.638614
O16	O	1.654040	0.104501	-0.258670
O17	O	1.987373	0.437835	0.074663
O18	O	2.320706	0.771168	0.407997
O19	O	2.102425	0.172523	-0.247670
O20	O	2.435759	0.505857	0.085663
O21	O	2.769092	0.839190	0.418996
Zn22	Zn	1.882197	0.092616	-0.248653
Zn23	Zn	2.215531	0.425950	0.084681
Zn24	Zn	2.548864	0.759283	0.418014
Zn25	Zn	1.849295	0.473478	-0.286139
Zn26	Zn	2.182629	0.806812	0.047195
Zn27	Zn	2.515962	1.140145	0.380528
O28	O	1.899457	0.141737	-0.478288
O29	O	2.232790	0.475070	-0.144954
O30	O	2.566124	0.808403	0.188379
C31	C	1.583554	0.240238	-0.270129
C32	C	1.916888	0.573571	0.063205
C33	C	2.250221	0.906904	0.396538
C34	C	1.410732	0.214020	-0.261866
C35	C	1.744065	0.547353	0.071467
C36	C	2.077398	0.880687	0.404801
N37	N	1.904663	-0.167310	-0.223069
N38	N	2.237997	0.166023	0.110264
N39	N	2.571330	0.499356	0.443598
C40	C	2.147938	0.325861	-0.264663
C41	C	2.481272	0.659194	0.068670
C42	C	2.814605	0.992528	0.402004
C43	C	2.320760	0.352090	-0.272927
C44	C	2.654093	0.685423	0.060406
C45	C	2.987427	1.018757	0.393740
C46	C	1.834905	0.278367	0.015462
C47	C	2.168238	0.611700	0.348796
C48	C	2.501572	0.945034	0.682129
C49	C	1.806232	0.274025	0.187511
C50	C	2.139565	0.607358	0.520844
C51	C	2.472898	0.940692	0.854178
N52	N	1.826840	0.733407	-0.311711
N53	N	2.160173	1.066740	0.021623
N54	N	2.493507	1.400073	0.354956
C55	C	1.896587	0.287731	-0.550254
C56	C	2.229921	0.621065	-0.216921
C57	C	2.563254	0.954398	0.116413
C58	C	1.925260	0.292085	-0.722304
C59	C	2.258593	0.625418	-0.388971
C60	C	2.591926	0.958751	-0.055637
H61	H	1.355545	0.075765	-0.246092
H62	H	1.688879	0.409098	0.087241
H63	H	2.022212	0.742432	0.420574
H64	H	1.984124	-0.230463	-0.132598
H65	H	2.317458	0.102870	0.200735
H66	H	2.650791	0.436204	0.534068
F67	F	2.087132	0.316651	0.206579
F68	F	2.420465	0.649984	0.539913
F69	F	2.753799	0.983318	0.873246
H70	H	1.747397	-0.203447	-0.402187
H71	H	2.080730	0.129887	-0.068853
H72	H	2.414064	0.463220	0.264480
H73	H	1.682381	0.255248	0.241928
H74	H	2.015715	0.588581	0.575262
H75	H	2.349048	0.921915	0.908595
H76	H	1.375954	0.490354	-0.288720
H77	H	1.709287	0.823687	0.044614
H78	H	2.042620	1.157021	0.377947
