data_functionalizedCrystal
_audit_creation_method	'MofGen! by Chris Wilmer'
_symmetry_space_group_name_H-M	'P1'
_symmetry_Int_Tables_number	1
_symmetry_cell_setting	triclinic
loop_
_symmetry_equiv_pos_as_xyz
  x,y,z
_cell_length_a	19.077236
_cell_length_b	19.121063
_cell_length_c	19.077271
_cell_angle_alpha	85.379098
_cell_angle_beta	90.102669
_cell_angle_gamma	94.855924
loop_
_atom_site_label
_atom_site_type_symbol
_atom_site_fract_x
_atom_site_fract_y
_atom_site_fract_z
Zn1	Zn	1.046830	-0.255950	0.451003
Zn2	Zn	1.046472	-0.368862	0.338114
Zn3	Zn	0.934087	-0.255548	0.328768
Zn4	Zn	0.923851	-0.378295	0.451237
O5	O	0.987810	-0.314664	0.392281
O6	O	1.145284	-0.267149	0.439842
O7	O	1.035698	-0.349714	0.238376
O8	O	0.953476	-0.156977	0.340973
O9	O	1.145021	-0.350105	0.356903
O10	O	1.036308	-0.157273	0.430779
O11	O	0.953128	-0.266463	0.231509
O12	O	0.834228	-0.275610	0.341200
O13	O	0.936031	-0.366182	0.549704
O14	O	0.826708	-0.365791	0.431178
O15	O	1.026383	-0.276296	0.549533
O16	O	1.025773	-0.468737	0.357130
O17	O	0.935684	-0.475667	0.440241
C18	C	0.804928	-0.321681	0.385201
C19	C	0.726688	-0.324701	0.382189
C20	C	0.690063	-0.283003	0.424028
C21	C	0.616549	-0.285837	0.421192
C22	C	0.579662	-0.330372	0.376521
C23	C	0.616293	-0.372071	0.334677
C24	C	0.689805	-0.369233	0.337510
C25	C	0.359788	-0.343479	0.363407
C26	C	0.286270	-0.346315	0.360579
C27	C	0.286532	-0.260080	0.447093
C28	C	0.360046	-0.257249	0.449925
C29	C	0.396670	-0.298945	0.408079
N30	N	0.504519	-0.333271	0.373622
N31	N	0.471812	-0.296042	0.410974
C32	C	0.979598	-0.497774	0.399741
C33	C	0.976148	-0.576108	0.402958
C34	C	1.021465	-0.609278	0.361237
C35	C	1.018224	-0.682882	0.364267
C36	C	0.969662	-0.723313	0.409016
C37	C	0.924343	-0.690138	0.450741
C38	C	0.927588	-0.616536	0.447714
C39	C	0.957520	-0.945726	0.420322
C40	C	0.954278	-1.019332	0.423344
C41	C	1.048160	-1.012071	0.336871
C42	C	1.051397	-0.938467	0.333844
C43	C	1.006081	-0.905299	0.375573
C44	C	0.966347	-0.798548	0.412113
C45	C	1.009400	-0.830066	0.372479
C46	C	1.171407	-0.307620	0.399389
C47	C	1.249645	-0.304618	0.402418
C48	C	0.980106	-0.322336	0.575872
C49	C	0.976822	-0.325605	0.654108
C50	C	0.996073	-0.130838	0.384808
C51	C	0.999595	-0.052503	0.381623
C52	C	1.022319	-0.280345	0.690775
C53	C	1.019225	-0.283414	0.764285
C54	C	0.970638	-0.331749	0.801128
C55	C	0.925137	-0.377011	0.764455
C56	C	0.928227	-0.373938	0.690946
C57	C	0.956348	-0.345956	1.020986
C58	C	0.953262	-0.349027	1.094501
C59	C	1.047350	-0.255429	1.094326
C60	C	1.050439	-0.252363	1.020815
C61	C	1.004935	-0.297623	0.984149
N62	N	0.967477	-0.334889	0.876267
N63	N	1.008094	-0.294479	0.909011
C64	C	0.995478	-0.307037	1.209404
C65	C	0.998759	-0.303767	1.131168
H66	H	0.256238	-0.382585	0.324202
Cl67	Cl	0.863297	-0.740967	0.507001
H68	H	0.389599	-0.377432	0.329334
Cl69	Cl	0.905299	-0.849383	0.468365
H70	H	0.390074	-0.220986	0.486304
Cl71	Cl	0.892172	-0.409791	1.140816
Cl72	Cl	0.569920	-0.428055	0.278514
Cl73	Cl	1.111523	-0.191598	0.974504
Cl74	Cl	1.070449	-0.779236	0.316229
Cl75	Cl	0.870617	-0.574837	0.500169
H76	H	0.914741	-1.052251	0.459796
H77	H	1.055126	-0.709885	0.330293
H78	H	0.920620	-0.918726	0.454298
Cl79	Cl	0.735849	-0.421656	0.284911
H80	H	1.061006	-0.576363	0.324795
Cl81	Cl	0.864053	-0.437772	0.810771
Cl82	Cl	0.736428	-0.227016	0.480192
H83	H	0.891172	-0.410787	0.661092
Cl84	Cl	0.570508	-0.233417	0.473794
H85	H	1.084396	-0.218580	1.124187
Cl86	Cl	0.240486	-0.207663	0.499695
H87	H	1.061886	-0.240988	0.660783
Cl88	Cl	1.076454	-0.226542	0.810380
H89	H	1.090940	-0.905549	0.297407
H90	H	0.919305	-0.382820	0.991142
Cl91	Cl	1.105130	-1.053773	0.284420
