data_functionalizedCrystal
_audit_creation_method	'MofGen! by Chris Wilmer'
_symmetry_space_group_name_H-M	'P1'
_symmetry_Int_Tables_number	1
_symmetry_cell_setting	triclinic
loop_
_symmetry_equiv_pos_as_xyz
  x,y,z
_cell_length_a	21.606444
_cell_length_b	14.628931
_cell_length_c	21.606444
_cell_angle_alpha	90.001677
_cell_angle_beta	60.001331
_cell_angle_gamma	59.998844
loop_
_atom_site_label
_atom_site_type_symbol
_atom_site_fract_x
_atom_site_fract_y
_atom_site_fract_z
Zr1	Zr	0.677449	0.880602	-0.081200
O2	O	0.806572	0.734632	-0.180023
O3	O	0.548330	0.925352	-0.050908
O4	O	0.677453	0.925340	-0.180027
O5	O	0.677444	0.734651	0.050950
O6	O	0.677453	1.075772	-0.180027
O7	O	0.677448	0.734644	-0.050904
O8	O	0.446474	1.075793	0.050943
O9	O	0.908423	0.734630	-0.180019
O10	O	0.601437	1.056701	-0.037986
O11	O	0.601434	0.944441	0.038027
O12	O	0.753461	0.944427	-0.113993
O13	O	0.753458	0.832167	-0.037981
Zr14	Zr	0.677442	1.120536	0.081246
Zr15	Zr	0.677449	1.120524	-0.081200
Zr16	Zr	0.677442	0.880615	0.081246
Zr17	Zr	0.839890	0.880600	-0.081195
Zr18	Zr	0.515002	1.120539	0.081241
O19	O	0.806562	1.075787	0.050954
O20	O	0.806572	1.075770	-0.180022
O21	O	0.806562	0.734649	0.050954
O22	O	0.548319	1.266507	0.180069
O23	O	0.548329	1.266490	-0.050908
O24	O	0.548320	0.925369	0.180068
O25	O	0.677447	1.266488	-0.050904
O26	O	0.677438	1.075799	0.180073
O27	O	0.677438	0.925367	0.180072
O28	O	0.677443	1.266495	0.050950
O29	O	0.908423	0.925336	-0.180019
O30	O	0.446469	1.075803	0.180065
O31	O	0.446468	1.266508	0.180065
O32	O	0.446474	1.266499	0.050943
O33	O	0.908417	0.734640	-0.050897
O34	O	0.908417	0.925346	-0.050897
O35	O	0.601430	1.056712	0.114039
O36	O	0.601434	1.168972	0.038027
O37	O	0.753457	1.056698	-0.037981
O38	O	0.753454	0.944438	0.038032
C39	C	0.474258	1.000573	0.000016
C40	C	0.405297	1.000574	0.000014
C41	C	0.677446	0.700464	0.000023
C42	C	0.677446	0.598611	0.000023
C43	C	0.372901	1.059170	-0.039665
C44	C	0.308101	1.059174	-0.039660
C45	C	0.275703	1.000574	0.000020
C46	C	0.308102	0.941976	0.039704
C47	C	0.372896	0.941980	0.039703
C48	C	0.046792	0.941963	0.039710
C49	C	-0.018005	0.941962	0.039707
C50	C	-0.018002	1.059157	-0.039652
C51	C	0.046792	1.059161	-0.039653
C52	C	0.079182	1.000568	0.000033
C53	C	0.149444	1.000566	0.000029
C54	C	0.205446	1.000569	0.000021
C55	C	0.602032	0.608897	0.037728
C56	C	0.602031	0.503628	0.037728
C57	C	0.880634	1.000566	0.000030
C58	C	0.949594	1.000565	0.000032
C59	C	0.677454	1.000554	-0.203172
C60	C	0.677457	1.000549	-0.272134
C61	C	0.677445	1.300675	0.000023
C62	C	0.677445	1.402528	0.000023
C63	C	0.756811	0.941943	-0.344208
C64	C	0.756809	0.941952	-0.409003
C65	C	0.677452	1.000562	-0.401722
C66	C	0.598091	1.059176	-0.329641
C67	C	0.598095	1.059172	-0.264847
C68	C	0.598076	1.059194	-0.590944
C69	C	0.598079	1.059190	-0.655744
C70	C	0.756791	0.941974	-0.735099
C71	C	0.756794	0.941970	-0.670306
C72	C	0.677434	1.000588	-0.598230
C73	C	0.677438	1.000579	-0.527973
C74	C	0.677447	1.000566	-0.471978
C75	C	0.677437	1.000585	0.203218
C76	C	0.677434	1.000590	0.272180
C77	C	0.474257	1.300678	0.000017
C78	C	0.405297	1.402532	0.000015
C79	C	0.474249	1.000588	0.203211
C80	C	0.405286	1.000594	0.272171
C81	C	0.474248	1.300693	0.203211
C82	C	0.405285	1.402553	0.272172
C83	C	0.880643	0.700445	-0.203165
C84	C	0.949606	0.598586	-0.272126
C85	C	0.880634	0.700461	0.000029
C86	C	0.949595	0.598606	0.000031
C87	C	0.880642	1.000551	-0.203165
C88	C	0.949605	1.000545	-0.272125
C89	C	0.372914	1.391760	-0.039671
C90	C	0.308127	1.487453	-0.039688
C91	C	0.275720	1.593919	-0.000015
C92	C	0.308109	1.604689	0.039672
C93	C	0.372899	1.508997	0.039684
C94	C	0.372898	1.059201	0.344240
C95	C	0.308109	1.059203	0.409042
C96	C	0.275704	1.000603	0.401773
C97	C	0.308098	0.941988	0.329696
C98	C	0.372891	0.941981	0.264896
C99	C	0.372901	1.508996	0.264878
C100	C	0.308111	1.604713	0.329668
C101	C	0.275703	1.593984	0.401749
C102	C	0.308094	1.487530	0.409041
C103	C	0.372886	1.391816	0.344253
C104	C	0.981998	0.492143	-0.264832
C105	C	1.046808	0.396426	-0.329622
C106	C	1.079220	0.407155	-0.401703
C107	C	1.046825	0.513609	-0.408995
C108	C	0.982021	0.609323	-0.344207
C109	C	0.981984	0.609379	0.039710
C110	C	1.046789	0.513685	0.039710
C111	C	1.079198	0.407220	0.000034
C112	C	1.046806	0.396450	-0.039650
C113	C	0.982007	0.492142	-0.039653
C114	C	0.981990	1.059156	-0.264832
C115	C	1.046779	1.059172	-0.329621
C116	C	1.079188	1.000570	-0.401703
C117	C	1.046797	0.941956	-0.408995
C118	C	0.982004	0.941948	-0.344206
H119	H	0.399280	1.106882	-0.071980
H120	H	-0.044384	1.106871	-0.071965
H121	H	0.281697	1.478811	0.467739
H122	H	0.399299	1.305079	-0.071987
H123	H	1.073151	0.522477	0.072028
H124	H	0.399252	0.894259	0.206217
H125	H	0.281724	1.106888	-0.071968
H126	H	1.073223	0.522331	-0.467692
H127	H	0.281745	1.691383	0.323717
H128	H	0.399245	1.305148	0.350201
H129	H	0.742010	0.511871	-0.032256
H130	H	0.955644	0.894214	-0.350155
H131	H	0.537466	0.512259	0.070004
H132	H	0.399257	1.517784	0.072005
H133	H	0.281764	1.478662	-0.072006
H134	H	1.131987	0.329209	-0.454452
H135	H	0.742013	0.393888	-0.032262
H136	H	1.131961	0.329310	0.000043
H137	H	1.073204	0.309753	-0.071953
H138	H	0.821434	0.894208	-0.350145
H139	H	0.399278	1.517752	0.206191
H140	H	0.399275	1.106921	0.350173
H141	H	1.131947	1.000585	-0.454452
H142	H	0.073172	1.106873	-0.071967
H143	H	0.281714	0.894270	0.072017
H144	H	-0.044382	0.894241	0.072021
H145	H	0.955637	0.483355	-0.071962
H146	H	0.281741	1.106938	0.467723
H147	H	0.537469	0.695637	0.070011
H148	H	0.955613	1.106877	-0.206145
H149	H	1.073145	1.106900	-0.323669
H150	H	0.222946	1.000618	0.454543
H151	H	0.281714	1.691386	0.071972
H152	H	0.821409	0.894247	-0.793793
H153	H	0.533452	1.106921	-0.649808
H154	H	0.955612	0.483386	-0.206146
H155	H	0.533477	1.106904	-0.323717
H156	H	0.399274	0.894262	0.072011
H157	H	0.073153	0.894258	0.072029
H158	H	0.821427	0.894231	-0.467687
H159	H	0.821415	0.894239	-0.676241
H160	H	1.073194	0.894244	-0.467692
H161	H	0.281705	0.894278	0.323789
H162	H	0.533456	1.106925	-0.532265
H163	H	0.222963	1.671829	-0.000030
H164	H	0.533476	1.106895	-0.206161
H165	H	0.222945	1.671930	0.454498
H166	H	1.073173	0.309756	-0.323670
H167	H	0.955648	0.695991	-0.350154
H168	H	0.955601	0.696060	0.072024
