data_functionalizedCrystal
_audit_creation_method	'MofGen! by Chris Wilmer'
_symmetry_space_group_name_H-M	'P1'
_symmetry_Int_Tables_number	1
_symmetry_cell_setting	triclinic
loop_
_symmetry_equiv_pos_as_xyz
  x,y,z
_cell_length_a	19.805407
_cell_length_b	19.805405
_cell_length_c	19.805399
_cell_angle_alpha	90.029301
_cell_angle_beta	90.017803
_cell_angle_gamma	90.023727
loop_
_atom_site_label
_atom_site_type_symbol
_atom_site_fract_x
_atom_site_fract_y
_atom_site_fract_z
Zn1	Zn	1.034736	-0.269527	0.382680
Zn2	Zn	1.284736	-0.019527	0.632680
Zn3	Zn	1.534736	0.230473	0.882680
Zn4	Zn	1.784736	0.480473	1.132680
Zn5	Zn	1.034650	-0.382716	0.269488
Zn6	Zn	1.284650	-0.132716	0.519488
Zn7	Zn	1.534650	0.117284	0.769488
Zn8	Zn	1.784650	0.367284	1.019488
Zn9	Zn	0.921550	-0.269541	0.269508
Zn10	Zn	1.171550	-0.019541	0.519508
Zn11	Zn	1.421550	0.230459	0.769508
Zn12	Zn	1.671550	0.480459	1.019508
Zn13	Zn	0.921514	-0.382674	0.382638
Zn14	Zn	1.171514	-0.132674	0.632638
Zn15	Zn	1.421514	0.117326	0.882638
Zn16	Zn	1.671514	0.367326	1.132638
O17	O	0.978113	-0.326115	0.326078
O18	O	1.228113	-0.076115	0.576078
O19	O	1.478113	0.173885	0.826078
O20	O	1.728113	0.423885	1.076078
O21	O	1.129441	-0.284554	0.367674
O22	O	1.379441	-0.034554	0.617674
O23	O	1.629441	0.215446	0.867674
O24	O	1.879441	0.465446	1.117674
O25	O	1.019627	-0.367726	0.174774
O26	O	1.269627	-0.117726	0.424774
O27	O	1.519627	0.132274	0.674774
O28	O	1.769627	0.382274	0.924774
O29	O	0.936615	-0.174822	0.284546
O30	O	1.186615	0.075178	0.534546
O31	O	1.436615	0.325178	0.784546
O32	O	1.686615	0.575178	1.034546
O33	O	1.129378	-0.367713	0.284512
O34	O	1.379378	-0.117713	0.534512
O35	O	1.629378	0.132287	0.784512
O36	O	1.879378	0.382287	1.034512
O37	O	1.019772	-0.174813	0.367693
O38	O	1.269772	0.075187	0.617693
O39	O	1.519772	0.325187	0.867693
O40	O	1.769772	0.575187	1.117693
O41	O	0.936533	-0.284576	0.174788
O42	O	1.186533	-0.034576	0.424788
O43	O	1.436533	0.215424	0.674788
O44	O	1.686533	0.465424	0.924788
O45	O	0.826829	-0.284536	0.284506
O46	O	1.076829	-0.034536	0.534506
O47	O	1.326829	0.215464	0.784506
O48	O	1.576829	0.465464	1.034506
O49	O	0.936553	-0.367642	0.477360
O50	O	1.186553	-0.117642	0.727360
O51	O	1.436553	0.132358	0.977360
O52	O	1.686553	0.382358	1.227360
O53	O	0.826802	-0.367655	0.367622
O54	O	1.076802	-0.117655	0.617622
O55	O	1.326802	0.132345	0.867622
O56	O	1.576802	0.382345	1.117622
O57	O	1.019737	-0.284514	0.477391
O58	O	1.269737	-0.034514	0.727391
O59	O	1.519737	0.215486	0.977391
O60	O	1.769737	0.465486	1.227391
O61	O	1.019592	-0.477427	0.284472
O62	O	1.269592	-0.227427	0.534472
O63	O	1.519592	0.022573	0.784472
O64	O	1.769592	0.272573	1.034472
O65	O	0.936471	-0.477397	0.367603
O66	O	1.186471	-0.227397	0.617603
O67	O	1.436471	0.022603	0.867603
O68	O	1.686471	0.272603	1.117603
C69	C	0.802257	-0.326093	0.326062
C70	C	1.052257	-0.076093	0.576062
C71	C	1.302257	0.173907	0.826062
C72	C	1.552257	0.423907	1.076062
C73	C	0.727025	-0.326101	0.326071
C74	C	0.977025	-0.076101	0.576071
C75	C	1.227025	0.173899	0.826071
C76	C	1.477025	0.423899	1.076071
C77	C	0.691714	-0.282876	0.369439
C78	C	0.941714	-0.032876	0.619439
C79	C	1.191714	0.217124	0.869439
C80	C	1.441714	0.467124	1.119439
C81	C	0.621025	-0.282880	0.369442
C82	C	0.871025	-0.032880	0.619442
C83	C	1.121025	0.217120	0.869442
C84	C	1.371025	0.467120	1.119442
C85	C	0.585649	-0.326112	0.326079
C86	C	0.835649	-0.076112	0.576079
C87	C	1.085649	0.173888	0.826079
C88	C	1.335649	0.423888	1.076079
C89	C	0.620965	-0.369338	0.282706
C90	C	0.870965	-0.119338	0.532706
C91	C	1.120965	0.130662	0.782706
C92	C	1.370965	0.380662	1.032706
C93	C	0.691652	-0.369330	0.282701
C94	C	0.941652	-0.119330	0.532701
C95	C	1.191652	0.130670	0.782701
C96	C	1.441652	0.380670	1.032701
C97	C	0.335892	-0.369368	0.282727
C98	C	0.585892	-0.119368	0.532727
C99	C	0.835892	0.130632	0.782727
C100	C	1.085892	0.380632	1.032727
C101	C	0.265199	-0.369374	0.282737
C102	C	0.515199	-0.119374	0.532737
C103	C	0.765199	0.130626	0.782737
C104	C	1.015199	0.380626	1.032737
C105	C	0.265265	-0.282918	0.369468
C106	C	0.515265	-0.032918	0.619468
C107	C	0.765265	0.217082	0.869468
C108	C	1.015265	0.467082	1.119468
C109	C	0.335952	-0.282910	0.369462
C110	C	0.585952	-0.032910	0.619462
C111	C	0.835952	0.217090	0.869462
C112	C	1.085952	0.467090	1.119462
C113	C	0.371262	-0.326134	0.326087
C114	C	0.621262	-0.076134	0.576087
C115	C	0.871262	0.173866	0.826087
C116	C	1.121262	0.423866	1.076087
C117	C	0.447910	-0.326128	0.326084
C118	C	0.697910	-0.076128	0.576084
C119	C	0.947910	0.173872	0.826084
C120	C	1.197910	0.423872	1.076084
C121	C	0.509002	-0.326121	0.326085
C122	C	0.759002	-0.076121	0.576085
C123	C	1.009002	0.173879	0.826085
C124	C	1.259002	0.423879	1.076085
C125	C	0.978036	-0.501971	0.326046
C126	C	1.228036	-0.251971	0.576046
C127	C	1.478036	-0.001971	0.826046
C128	C	1.728036	0.248029	1.076046
C129	C	0.978066	-0.577203	0.326054
C130	C	1.228066	-0.327203	0.576054
C131	C	1.478066	-0.077203	0.826054
C132	C	1.728066	0.172797	1.076054
C133	C	1.021389	-0.612540	0.282813
C134	C	1.271389	-0.362540	0.532813
C135	C	1.521389	-0.112540	0.782813
C136	C	1.771389	0.137460	1.032813
C137	C	1.021418	-0.683228	0.282828
C138	C	1.271418	-0.433228	0.532828
C139	C	1.521418	-0.183228	0.782828
C140	C	1.771418	0.066772	1.032828
C141	C	0.978119	-0.718578	0.326081
C142	C	1.228119	-0.468578	0.576081
C143	C	1.478119	-0.218578	0.826081
C144	C	1.728119	0.031422	1.076081
C145	C	0.934794	-0.683236	0.369327
C146	C	1.184794	-0.433236	0.619327
C147	C	1.434794	-0.183236	0.869327
C148	C	1.684794	0.066764	1.119327
C149	C	0.934769	-0.612549	0.369315
C150	C	1.184769	-0.362549	0.619315
C151	C	1.434769	-0.112549	0.869315
C152	C	1.684769	0.137451	1.119315
C153	C	0.934894	-0.968309	0.369377
C154	C	1.184894	-0.718309	0.619377
C155	C	1.434894	-0.468309	0.869377
C156	C	1.684894	-0.218309	1.119377
C157	C	0.934921	-1.039001	0.369384
C158	C	1.184921	-0.789001	0.619384
C159	C	1.434921	-0.539001	0.869384
C160	C	1.684921	-0.289001	1.119384
C161	C	1.021542	-1.038989	0.282890
C162	C	1.271542	-0.788989	0.532890
C163	C	1.521542	-0.538989	0.782890
C164	C	1.771542	-0.288989	1.032890
C165	C	1.021517	-0.968302	0.282878
C166	C	1.271517	-0.718302	0.532878
C167	C	1.521517	-0.468302	0.782878
C168	C	1.771517	-0.218302	1.032878
C169	C	0.978195	-0.932965	0.326126
C170	C	1.228195	-0.682965	0.576126
C171	C	1.478195	-0.432965	0.826126
C172	C	1.728195	-0.182965	1.076126
C173	C	0.978165	-0.856317	0.326110
C174	C	1.228165	-0.606317	0.576110
C175	C	1.478165	-0.356317	0.826110
C176	C	1.728165	-0.106317	1.076110
C177	C	0.978145	-0.795225	0.326094
C178	C	1.228145	-0.545225	0.576094
C179	C	1.478145	-0.295225	0.826094
C180	C	1.728145	-0.045225	1.076094
C181	C	1.154655	-0.326136	0.326095
C182	C	1.404655	-0.076136	0.576095
C183	C	1.654655	0.173864	0.826095
C184	C	1.904655	0.423864	1.076095
C185	C	1.229887	-0.326146	0.326102
C186	C	1.479887	-0.076146	0.576102
C187	C	1.729887	0.173854	0.826102
C188	C	1.979887	0.423854	1.076102
C189	C	0.978151	-0.326072	0.502621
C190	C	1.228151	-0.076072	0.752621
C191	C	1.478151	0.173928	1.002621
C192	C	1.728151	0.423928	1.252621
C193	C	0.978167	-0.326054	0.577853
C194	C	1.228167	-0.076054	0.827853
C195	C	1.478167	0.173946	1.077853
C196	C	1.728167	0.423946	1.327853
C197	C	0.978207	-0.149572	0.326126
C198	C	1.228207	0.100428	0.576126
C199	C	1.478207	0.350428	0.826126
C200	C	1.728207	0.600428	1.076126
C201	C	0.978248	-0.074340	0.326146
C202	C	1.228248	0.175660	0.576146
C203	C	1.478248	0.425660	0.826146
C204	C	1.728248	0.675660	1.076146
C205	C	0.978114	-0.326108	0.150222
C206	C	1.228114	-0.076108	0.400222
C207	C	1.478114	0.173892	0.650222
C208	C	1.728114	0.423892	0.900222
C209	C	0.978229	-0.325936	0.074991
C210	C	1.228229	-0.075936	0.324991
C211	C	1.478229	0.174064	0.574991
C212	C	1.728229	0.424064	0.824991
C213	C	1.021481	-0.282767	0.613214
C214	C	1.271481	-0.032767	0.863214
C215	C	1.521481	0.217233	1.113214
C216	C	1.771481	0.467233	1.363214
C217	C	1.021488	-0.282747	0.683903
C218	C	1.271488	-0.032747	0.933903
C219	C	1.521488	0.217253	1.183903
C220	C	1.771488	0.467253	1.433903
C221	C	0.978184	-0.326018	0.719229
C222	C	1.228184	-0.076018	0.969229
C223	C	1.478184	0.173982	1.219229
C224	C	1.728184	0.423982	1.469229
C225	C	0.934864	-0.369308	0.683863
C226	C	1.184864	-0.119308	0.933863
C227	C	1.434864	0.130692	1.183863
C228	C	1.684864	0.380692	1.433863
C229	C	0.934854	-0.369323	0.613176
C230	C	1.184854	-0.119323	0.863176
C231	C	1.434854	0.130677	1.113176
C232	C	1.684854	0.380677	1.363176
C233	C	0.934902	-0.369244	0.968936
C234	C	1.184902	-0.119244	1.218936
C235	C	1.434902	0.130756	1.468936
C236	C	1.684902	0.380756	1.718936
C237	C	0.934917	-0.369227	1.039628
C238	C	1.184917	-0.119227	1.289628
C239	C	1.434917	0.130773	1.539628
C240	C	1.684917	0.380773	1.789628
C241	C	1.021536	-0.282668	1.039663
C242	C	1.271536	-0.032668	1.289663
C243	C	1.521536	0.217332	1.539663
C244	C	1.771536	0.467332	1.789663
C245	C	1.021527	-0.282684	0.968976
C246	C	1.271527	-0.032684	1.218976
C247	C	1.521527	0.217316	1.468976
C248	C	1.771527	0.467316	1.718976
C249	C	0.978205	-0.325970	0.933616
C250	C	1.228205	-0.075970	1.183616
C251	C	1.478205	0.174030	1.433616
C252	C	1.728205	0.424030	1.683616
C253	C	0.978197	-0.325990	0.856968
C254	C	1.228197	-0.075990	1.106968
C255	C	1.478197	0.174010	1.356968
C256	C	1.728197	0.424010	1.606968
C257	C	0.978194	-0.326002	0.795876
C258	C	1.228194	-0.076002	1.045876
C259	C	1.478194	0.173998	1.295876
C260	C	1.728194	0.423998	1.545876
H261	H	0.592156	-0.404535	0.247397
H262	H	0.842156	-0.154535	0.497397
H263	H	1.092156	0.095465	0.747397
H264	H	1.342156	0.345465	0.997397
O265	O	0.227181	-0.236291	0.416249
O266	O	0.477181	0.013709	0.666249
O267	O	0.727181	0.263709	0.916249
O268	O	0.977181	0.513709	1.166249
H269	H	0.240769	-0.183154	0.404741
H270	H	0.490769	0.066846	0.654741
H271	H	0.740769	0.316846	0.904741
H272	H	0.990769	0.566846	1.154741
H273	H	0.899602	-0.404538	0.712631
H274	H	1.149602	-0.154538	0.962631
H275	H	1.399602	0.095462	1.212631
H276	H	1.649602	0.345462	1.462631
H277	H	1.056773	-0.939522	0.247655
H278	H	1.306773	-0.689522	0.497655
H279	H	1.556773	-0.439522	0.747655
H280	H	1.806773	-0.189522	0.997655
H281	H	0.592278	-0.247684	0.404757
H282	H	0.842278	0.002316	0.654757
H283	H	1.092278	0.252316	0.904757
H284	H	1.342278	0.502316	1.154757
O285	O	0.888135	-0.416010	0.575031
O286	O	1.138135	-0.166010	0.825031
O287	O	1.388135	0.083990	1.075031
O288	O	1.638135	0.333990	1.325031
H289	H	0.853711	-0.385710	0.542837
H290	H	1.103711	-0.135710	0.792837
H291	H	1.353711	0.114290	1.042837
H292	H	1.603711	0.364290	1.292837
O293	O	0.888198	-0.415894	1.077729
O294	O	1.138198	-0.165894	1.327729
O295	O	1.388198	0.084106	1.577729
O296	O	1.638198	0.334106	1.827729
H297	H	0.918473	-0.450335	1.109925
H298	H	1.168473	-0.200335	1.359925
H299	H	1.418473	0.049665	1.609925
H300	H	1.668473	0.299665	1.859925
O301	O	0.888096	-0.721363	0.415980
O302	O	1.138096	-0.471363	0.665980
O303	O	1.388096	-0.221363	0.915980
O304	O	1.638096	0.028637	1.165980
H305	H	0.857971	-0.684913	0.446051
H306	H	1.107971	-0.434913	0.696051
H307	H	1.357971	-0.184913	0.946051
H308	H	1.607971	0.065087	1.196051
O309	O	0.729869	-0.236243	0.416205
O310	O	0.979869	0.013757	0.666205
O311	O	1.229869	0.263757	0.916205
O312	O	1.479869	0.513757	1.166205
H313	H	0.693436	-0.206182	0.446355
H314	H	0.943436	0.043818	0.696355
H315	H	1.193436	0.293818	0.946355
H316	H	1.443436	0.543818	1.196355
O317	O	1.068192	-0.236098	0.575112
O318	O	1.318192	0.013902	0.825112
O319	O	1.568192	0.263902	1.075112
O320	O	1.818192	0.513902	1.325112
H321	H	1.056611	-0.182971	0.588687
H322	H	1.306611	0.067029	0.838687
H323	H	1.556611	0.317029	1.088687
H324	H	1.806611	0.567029	1.338687
O325	O	1.068144	-0.721341	0.236187
O326	O	1.318144	-0.471341	0.486187
O327	O	1.568144	-0.221341	0.736187
O328	O	1.818144	0.028659	0.986187
H329	H	1.037880	-0.753598	0.201735
H330	H	1.287880	-0.503598	0.451735
H331	H	1.537880	-0.253598	0.701735
H332	H	1.787880	-0.003598	0.951735
H333	H	1.056792	-0.247450	0.940217
H334	H	1.306792	0.002550	1.190217
H335	H	1.556792	0.252550	1.440217
H336	H	1.806792	0.502550	1.690217
O337	O	1.068208	-0.236060	0.722044
O338	O	1.318208	0.013940	0.972044
O339	O	1.568208	0.263940	1.222044
O340	O	1.818208	0.513940	1.472044
H341	H	1.121321	-0.247688	0.708487
H342	H	1.371321	0.002312	0.958487
H343	H	1.621321	0.252312	1.208487
H344	H	1.871321	0.502312	1.458487
O345	O	0.374110	-0.236276	0.416225
O346	O	0.624110	0.013724	0.666225
O347	O	0.874110	0.263724	0.916225
O348	O	1.124110	0.513724	1.166225
H349	H	0.337679	-0.206213	0.446376
H350	H	0.587679	0.043787	0.696376
H351	H	0.837679	0.293787	0.946376
H352	H	1.087679	0.543787	1.196376
O353	O	0.373965	-0.415988	0.235944
O354	O	0.623965	-0.165988	0.485944
O355	O	0.873965	0.084012	0.735944
O356	O	1.123965	0.334012	0.985944
H357	H	0.406178	-0.450461	0.266166
H358	H	0.656178	-0.200461	0.516166
H359	H	0.906178	0.049539	0.766166
H360	H	1.156178	0.299539	1.016166
O361	O	0.729743	-0.415951	0.235927
O362	O	0.979743	-0.165951	0.485927
O363	O	1.229743	0.084049	0.735927
O364	O	1.479743	0.334049	0.985927
H365	H	0.693270	-0.446019	0.205778
H366	H	0.943270	-0.196019	0.455778
H367	H	1.193270	0.053981	0.705778
H368	H	1.443270	0.303981	0.955778
H369	H	0.236398	-0.404580	0.247424
H370	H	0.486398	-0.154580	0.497424
H371	H	0.736398	0.095420	0.747424
H372	H	0.986398	0.345420	0.997424
O373	O	1.068246	-0.235958	1.077800
O374	O	1.318246	0.014042	1.327800
O375	O	1.568246	0.264042	1.577800
O376	O	1.818246	0.514042	1.827800
H377	H	1.060970	-0.243203	1.132888
H378	H	1.310970	0.006797	1.382888
H379	H	1.560970	0.256797	1.632888
H380	H	1.810970	0.506797	1.882888
O381	O	1.068092	-0.574413	0.236164
O382	O	1.318092	-0.324413	0.486164
O383	O	1.568092	-0.074413	0.736164
O384	O	1.818092	0.175587	0.986164
H385	H	1.098228	-0.610865	0.206105
H386	H	1.348228	-0.360865	0.456105
H387	H	1.598228	-0.110865	0.706105
H388	H	1.848228	0.139135	0.956105
H389	H	0.899637	-0.404501	0.940155
H390	H	1.149637	-0.154501	1.190155
H391	H	1.399637	0.095499	1.440155
H392	H	1.649637	0.345499	1.690155
O393	O	1.068291	-1.077100	0.236260
O394	O	1.318291	-0.827100	0.486260
O395	O	1.568291	-0.577100	0.736260
O396	O	1.818291	-0.327100	0.986260
H397	H	1.061047	-1.132192	0.243543
H398	H	1.311047	-0.882192	0.493543
H399	H	1.561047	-0.632192	0.743543
H400	H	1.811047	-0.382192	0.993543
H401	H	0.899663	-1.067781	0.404611
H402	H	1.149663	-0.817781	0.654611
H403	H	1.399663	-0.567781	0.904611
H404	H	1.649663	-0.317781	1.154611
O405	O	0.888150	-0.930199	0.416000
O406	O	1.138150	-0.680199	0.666000
O407	O	1.388150	-0.430199	0.916000
O408	O	1.638150	-0.180199	1.166000
H409	H	0.858036	-0.966658	0.446065
H410	H	1.108036	-0.716658	0.696065
H411	H	1.358036	-0.466658	0.946065
H412	H	1.608036	-0.216658	1.196065
O413	O	0.888035	-0.574429	0.415945
O414	O	1.138035	-0.324429	0.665945
O415	O	1.388035	-0.074429	0.915945
O416	O	1.638035	0.175571	1.165945
H417	H	0.857924	-0.610884	0.446018
H418	H	1.107924	-0.360884	0.696018
H419	H	1.357924	-0.110884	0.946018
H420	H	1.607924	0.139116	1.196018
