data_functionalizedCrystal
_audit_creation_method	'MofGen! by Chris Wilmer'
_symmetry_space_group_name_H-M	'P1'
_symmetry_Int_Tables_number	1
_symmetry_cell_setting	triclinic
loop_
_symmetry_equiv_pos_as_xyz
  x,y,z
_cell_length_a	17.038272
_cell_length_b	16.098524
_cell_length_c	15.995350
_cell_angle_alpha	86.937675
_cell_angle_beta	92.698035
_cell_angle_gamma	92.870584
loop_
_atom_site_label
_atom_site_type_symbol
_atom_site_fract_x
_atom_site_fract_y
_atom_site_fract_z
O1	O	1.040527	0.069145	-0.185382
O2	O	0.812897	0.069170	-0.182496
O3	O	0.932935	0.069156	-0.062494
O4	O	0.920490	0.069159	-0.305383
O5	O	0.926682	-0.069357	-0.055361
O6	O	0.806645	-0.069343	-0.175363
O7	O	1.034275	-0.069367	-0.178249
Zn8	Zn	0.919467	-0.091347	-0.175673
Zn9	Zn	0.927705	0.091150	-0.185071
O10	O	0.914238	-0.069354	-0.298250
C11	C	0.780642	-0.000083	-0.176304
C12	C	0.693848	-0.000074	-0.168470
C13	C	0.643751	-0.000074	-0.240398
C14	C	0.562198	-0.000085	-0.233032
C15	C	0.530744	-0.000091	-0.153736
C16	C	0.580847	-0.000094	-0.081802
C17	C	0.662398	-0.000088	-0.089169
C18	C	0.284979	-0.000113	-0.127709
C19	C	0.203421	-0.000117	-0.120347
C20	C	0.184778	-0.000110	-0.271577
C21	C	0.266332	-0.000099	-0.278938
C22	C	0.316427	-0.000106	-0.207004
C23	C	0.447384	-0.000100	-0.146204
C24	C	0.399785	-0.000103	-0.214536
N25	N	0.913851	-0.215896	-0.169259
C26	C	0.959303	-0.259482	-0.221207
C27	C	0.955384	-0.346671	-0.216716
C28	C	0.906010	-0.390272	-0.160280
C29	C	0.860556	-0.346680	-0.108326
C30	C	0.864479	-0.259493	-0.112814
C31	C	0.891797	-0.653522	-0.144014
C32	C	0.887875	-0.740715	-0.139531
C33	C	0.982705	-0.740700	-0.247920
C34	C	0.986620	-0.653511	-0.252407
C35	C	0.941170	-0.609927	-0.200450
C36	C	0.902002	-0.479393	-0.155689
C37	C	0.945183	-0.520807	-0.205037
C38	C	1.066530	-0.000112	-0.184441
C39	C	1.153325	-0.000116	-0.192275
C40	C	0.929294	-0.000099	-0.027697
C41	C	0.927752	-0.000094	0.065363
N42	N	0.933327	0.215699	-0.191479
C43	C	0.917878	-0.000097	-0.333048
C44	C	0.919421	-0.000096	-0.426109
C45	C	0.922212	-0.000096	0.403506
C46	C	0.836738	0.000224	0.362145
C47	C	0.838266	-0.000088	0.265361
C48	C	0.924960	-0.000094	0.235749
C49	C	0.963556	-0.079195	0.277897
C50	C	0.961405	-0.079261	0.374689
C51	C	0.970281	0.078254	0.366809
C52	C	0.970308	0.079299	0.269812
C53	C	0.926517	-0.000096	0.140941
C54	C	0.920657	-0.000100	0.498314
H55	H	0.521412	-0.000084	-0.291604
N56	N	0.788301	-0.074488	0.395141
H57	H	0.741314	-0.055177	0.423658
H58	H	0.821543	-0.108509	0.436734
H59	H	0.425399	-0.000103	-0.279098
N60	N	1.012554	-0.212458	-0.282082
H61	H	1.040754	-0.253303	-0.314307
H62	H	1.052403	-0.176283	-0.250182
H63	H	0.827467	-0.224006	-0.070512
H64	H	0.927989	-0.138386	0.398225
N65	N	0.716429	-0.000093	-0.011586
H66	H	0.708626	0.051251	0.020113
H67	H	0.772840	-0.000124	-0.028348
N68	N	1.031733	-0.787701	-0.303954
H69	H	0.996070	-0.823877	-0.340633
H70	H	1.068372	-0.823824	-0.268331
H71	H	1.033744	0.084071	0.249701
H72	H	1.024008	-0.082854	0.402651
H73	H	1.033336	0.078781	0.394053
H74	H	0.325757	-0.000120	-0.069134
N75	N	1.047756	-0.083088	0.253410
H76	H	1.061725	-0.033498	0.214663
H77	H	1.054067	-0.136095	0.223871
H78	H	0.555230	-0.000110	-0.017237
N79	N	0.921259	-0.157166	0.247075
H80	H	0.877096	-0.141431	0.205831
H81	H	0.898975	-0.191069	0.296161
H82	H	0.421764	-0.000128	-0.081640
N83	N	0.300257	-0.000077	-0.364465
H84	H	0.256146	-0.000075	-0.408915
H85	H	0.331383	-0.051418	-0.368182
H86	H	0.669354	-0.000068	-0.304970
N87	N	0.169504	-0.000136	-0.034810
H88	H	0.133773	-0.051485	-0.025748
H89	H	0.138437	0.051242	-0.031070
H90	H	0.992398	-0.382155	-0.259016
N91	N	0.834608	-0.787745	-0.078669
H92	H	0.806408	-0.746906	-0.046437
H93	H	0.867064	-0.823929	-0.038326
N94	N	1.039882	-0.606486	-0.313269
H95	H	1.068086	-0.647328	-0.345494
H96	H	1.079728	-0.570315	-0.281360
H97	H	0.854788	-0.618046	-0.101706
H98	H	0.945037	0.138207	0.386253
N99	N	0.130748	-0.000104	-0.349160
H100	H	0.074313	-0.000108	-0.332464
H101	H	0.138623	-0.051451	-0.380822
H102	H	0.861800	-0.514903	-0.109739
H103	H	0.820358	-0.382187	-0.062370
N104	N	0.998438	-0.473780	-0.265900
H105	H	0.966020	-0.437605	-0.306293
H106	H	1.026630	-0.514668	-0.298076
H107	H	0.807681	0.056614	0.236380
N108	N	0.794859	0.075358	0.386045
H109	H	0.830883	0.109919	0.423918
H110	H	0.745938	0.056417	0.416382
N111	N	0.933024	0.156818	0.232577
H112	H	0.886952	0.140585	0.193803
H113	H	0.973102	0.191916	0.200029
H114	H	0.802335	-0.056881	0.242797
