data_functionalizedCrystal
_audit_creation_method	'MofGen! by Chris Wilmer'
_symmetry_space_group_name_H-M	'P1'
_symmetry_Int_Tables_number	1
_symmetry_cell_setting	triclinic
loop_
_symmetry_equiv_pos_as_xyz
  x,y,z
_cell_length_a	10.654562
_cell_length_b	9.730223
_cell_length_c	10.654551
_cell_angle_alpha	89.998531
_cell_angle_beta	84.487733
_cell_angle_gamma	90.003039
loop_
_atom_site_label
_atom_site_type_symbol
_atom_site_fract_x
_atom_site_fract_y
_atom_site_fract_z
O1	O	1.667825	0.114371	0.176469
O2	O	1.302349	0.114353	0.193259
O3	O	1.493489	0.114363	0.002125
O4	O	1.476685	0.114361	0.367603
O5	O	1.493487	-0.114217	0.002130
O6	O	1.302347	-0.114227	0.193263
O7	O	1.667823	-0.114209	0.176474
Zn8	Zn	1.485085	-0.150510	0.184869
Zn9	Zn	1.485088	0.150654	0.184863
O10	O	1.476683	-0.114219	0.367607
C11	C	1.255550	0.000061	0.192025
C12	C	1.116108	0.000054	0.188327
C13	C	1.050576	-0.124534	0.186604
C14	C	0.919554	-0.124511	0.183139
C15	C	0.919606	0.124700	0.183125
C16	C	1.050627	0.124675	0.186581
C17	C	1.116057	-0.249155	0.188350
C18	C	1.050524	-0.373753	0.186629
C19	C	0.919502	-0.373730	0.183165
C20	C	0.854012	-0.249109	0.181421
N21	N	1.485092	-0.356046	0.184873
C22	C	1.492254	0.000076	-0.044670
C23	C	1.488562	0.000085	-0.184114
C24	C	1.714622	0.000086	0.177708
C25	C	1.854064	0.000102	0.181406
C26	C	1.569751	-0.427968	0.100268
C27	C	1.569747	-0.571851	0.100253
C28	C	1.400422	-0.571878	0.269459
C29	C	1.400420	-0.427998	0.269467
C30	C	1.654422	-0.356017	0.015674
C31	C	1.739089	-0.427938	-0.068937
C32	C	1.739086	-0.571821	-0.068952
C33	C	1.654415	-0.643783	0.015644
N34	N	1.485090	0.356190	0.184850
C35	C	1.486831	0.124682	-0.249629
C36	C	1.483351	0.124675	-0.380649
C37	C	1.483338	-0.124535	-0.380629
C38	C	1.486809	-0.124527	-0.249610
C39	C	1.488584	0.249294	-0.184132
C40	C	1.486854	0.373901	-0.249647
C41	C	1.483374	0.373894	-0.380668
C42	C	1.481623	0.249281	-0.446173
C43	C	1.477918	0.000071	0.414403
C44	C	1.481610	0.000071	0.553846
H45	H	1.103984	0.226126	0.187989
C46	C	1.307298	-0.348877	0.362536
C47	C	1.214224	-0.428019	0.455644
C48	C	1.121094	-0.348899	0.548711
C49	C	1.121039	-0.190636	0.548672
C50	C	1.214116	-0.111485	0.455561
C51	C	1.307245	-0.190605	0.362493
H52	H	1.214262	-0.545183	0.455676
H53	H	1.052193	-0.407493	0.617638
H54	H	1.052099	-0.132067	0.617566
H55	H	1.214078	0.005679	0.455528
H56	H	1.376147	-0.132011	0.293566
C57	C	1.832210	-0.650939	-0.162022
C58	C	1.925335	-0.571792	-0.255075
C59	C	2.018467	-0.650908	-0.348143
C60	C	2.018475	-0.809171	-0.348159
C61	C	1.925346	-0.888327	-0.255102
C62	C	1.832214	-0.809211	-0.162034
H63	H	1.925333	-0.454629	-0.255066
H64	H	2.087407	-0.592311	-0.417030
H65	H	2.087417	-0.867737	-0.417053
H66	H	1.925349	-1.005490	-0.255110
H67	H	1.763274	-0.867808	-0.093147
C68	C	0.847568	0.261774	0.181220
C69	C	0.770789	0.296059	0.069984
C70	C	0.698752	0.433136	0.068084
C71	C	0.703493	0.535929	0.177421
C72	C	0.780275	0.501648	0.288666
C73	C	0.852313	0.364570	0.290565
H74	H	0.767276	0.219963	-0.010962
H75	H	0.641913	0.458513	-0.014267
H76	H	0.650167	0.637402	0.176015
H77	H	0.783788	0.577744	0.369611
H78	H	0.909152	0.339193	0.372916
H79	H	1.478771	0.249286	-0.552857
H80	H	1.654411	-0.760942	0.015616
C81	C	1.481423	-0.261599	-0.452687
C82	C	1.370174	-0.295869	-0.529457
C83	C	1.368263	-0.432934	-0.601516
C84	C	1.477600	-0.535729	-0.596806
C85	C	1.588857	-0.501461	-0.520033
C86	C	1.590768	-0.364396	-0.447974
H87	H	1.289229	-0.219771	-0.532946
H88	H	1.285903	-0.458300	-0.658348
H89	H	1.476185	-0.637192	-0.650148
H90	H	1.669802	-0.577559	-0.516544
H91	H	1.673128	-0.339030	-0.391142
C92	C	1.488712	-0.261580	-0.177530
C93	C	1.379364	-0.364376	-0.182224
C94	C	1.381258	-0.501431	-0.110140
C95	C	1.492500	-0.535689	-0.033362
C96	C	1.601856	-0.432890	-0.028664
C97	C	1.599962	-0.295836	-0.100748
H98	H	1.297009	-0.339019	-0.239064
H99	H	1.300305	-0.577529	-0.113619
H100	H	1.493902	-0.637144	0.019999
H101	H	1.684211	-0.458248	0.028175
H102	H	1.680916	-0.219737	-0.097270
H103	H	1.222741	-0.249187	0.191176
H104	H	1.808018	-0.369340	-0.137819
H105	H	1.103856	-0.475215	0.188040
H106	H	1.331488	-0.630478	0.338334
H107	H	0.866150	-0.475184	0.181753
H108	H	0.747325	-0.249100	0.178596
H109	H	1.654435	-0.238860	0.015682
H110	H	1.491421	0.249313	-0.077449
H111	H	1.488267	0.475356	-0.196303
H112	H	1.481953	0.475355	-0.434005
