data_functionalizedCrystal
_audit_creation_method	'MofGen! by Chris Wilmer'
_symmetry_space_group_name_H-M	'P1'
_symmetry_Int_Tables_number	1
_symmetry_cell_setting	triclinic
loop_
_symmetry_equiv_pos_as_xyz
  x,y,z
_cell_length_a	11.026607
_cell_length_b	12.837942
_cell_length_c	10.065875
_cell_angle_alpha	99.723749
_cell_angle_beta	79.302338
_cell_angle_gamma	101.707478
loop_
_atom_site_label
_atom_site_type_symbol
_atom_site_fract_x
_atom_site_fract_y
_atom_site_fract_z
O1	O	1.677813	0.431471	-0.113501
O2	O	1.318665	0.380952	-0.113502
O3	O	1.490274	0.253824	-0.113493
O4	O	1.506204	0.558600	-0.113509
O5	O	1.457565	0.278190	0.113494
O6	O	1.285956	0.405318	0.113485
O7	O	1.645104	0.455838	0.113486
Zn8	Zn	1.460337	0.434446	0.149525
Zn9	Zn	1.503433	0.402343	-0.149540
O10	O	1.473495	0.582966	0.113478
C11	C	1.256022	0.383815	-0.000008
C12	C	1.118096	0.356032	-0.000008
C13	C	1.053161	0.432745	-0.000013
C14	C	0.910607	0.404032	-0.000014
C15	C	1.468539	0.226382	0.000000
C16	C	1.452492	0.108310	-0.000002
C17	C	1.645414	-0.096651	-0.000030
C18	C	1.630342	-0.207590	-0.000032
C19	C	1.407280	-0.224509	-0.000019
C20	C	1.422351	-0.113570	-0.000017
C21	C	1.541422	-0.049645	-0.000020
C22	C	1.556491	0.061297	-0.000008
C23	C	1.333431	0.044375	-0.000004
C24	C	1.318359	-0.066563	-0.000007
C25	C	1.707748	0.452974	-0.000010
C26	C	1.845676	0.480756	-0.000019
C27	C	1.495231	0.610407	-0.000018
C28	C	1.511279	0.728478	-0.000025
N29	N	1.430934	0.456357	0.353629
N30	N	1.532844	0.380426	-0.353644
C31	C	1.493194	0.409958	0.421411
C32	C	1.470575	0.426831	0.578577
H33	H	0.895613	0.567697	-0.000014
H34	H	1.653444	0.113344	-0.000006
O35	O	1.773831	-0.027693	-0.000036
H36	H	1.843615	-0.079019	-0.000049
O37	O	1.338155	0.525541	0.430856
H38	H	1.263247	0.476760	0.495987
O39	O	1.625629	0.311244	0.569124
H40	H	1.700540	0.360035	0.504007
H41	H	1.103105	0.519680	-0.000010
H42	H	1.715025	-0.245858	-0.000045
O43	O	1.585978	0.340779	0.344186
H44	H	1.556420	0.258168	0.371554
H45	H	1.400518	0.479046	0.636895
O46	O	1.189934	-0.135509	0.000016
H47	H	1.196920	-0.220549	0.000026
H48	H	1.310340	-0.276577	-0.000031
H49	H	1.248752	0.082660	0.000015
H50	H	1.068156	0.269094	-0.000039
O51	O	0.844473	0.288866	-0.000007
H52	H	0.742885	0.284385	-0.000016
