data_functionalizedCrystal
_audit_creation_method	'MofGen! by Chris Wilmer'
_symmetry_space_group_name_H-M	'P1'
_symmetry_Int_Tables_number	1
_symmetry_cell_setting	triclinic
loop_
_symmetry_equiv_pos_as_xyz
  x,y,z
_cell_length_a	14.908742
_cell_length_b	14.908520
_cell_length_c	14.908308
_cell_angle_alpha	96.360765
_cell_angle_beta	96.760659
_cell_angle_gamma	89.837416
loop_
_atom_site_label
_atom_site_type_symbol
_atom_site_fract_x
_atom_site_fract_y
_atom_site_fract_z
Zn1	Zn	1.325909	-0.462157	-0.460058
Zn2	Zn	1.825909	0.037843	0.039942
Zn3	Zn	1.325807	-0.604797	-0.317434
Zn4	Zn	1.825807	-0.104797	0.182566
Zn5	Zn	1.184290	-0.445739	-0.316460
Zn6	Zn	1.684290	0.054261	0.183540
Zn7	Zn	1.165782	-0.604746	-0.477494
Zn8	Zn	1.665782	-0.104746	0.022506
O9	O	1.250447	-0.529359	-0.392862
O10	O	1.750447	-0.029359	0.107138
O11	O	1.452134	-0.487971	-0.434249
O12	O	1.952134	0.012029	0.065751
O13	O	1.314737	-0.576847	-0.190223
O14	O	1.814737	-0.076847	0.309777
O15	O	1.210864	-0.321677	-0.327804
O16	O	1.710864	0.178323	0.172196
O17	O	1.452059	-0.592767	-0.329464
O18	O	1.952059	-0.092767	0.170536
O19	O	1.314911	-0.333739	-0.433305
O20	O	1.814911	0.166261	0.066695
O21	O	1.210765	-0.459988	-0.189508
O22	O	1.710765	0.040012	0.310492
O23	O	1.055596	-0.459939	-0.344712
O24	O	1.555596	0.040061	0.155288
O25	O	1.179321	-0.592681	-0.602263
O26	O	1.679321	-0.092681	-0.102263
O27	O	1.041998	-0.576761	-0.463022
O28	O	1.541998	-0.076761	0.036978
O29	O	1.296965	-0.487921	-0.589453
O30	O	1.796965	0.012079	-0.089453
O31	O	1.296791	-0.731030	-0.346371
O32	O	1.796791	-0.231030	0.153629
O33	O	1.179221	-0.730993	-0.463966
O34	O	1.679221	-0.230993	0.036034
C35	C	1.016065	-0.516564	-0.405654
C36	C	1.516065	-0.016564	0.094346
C37	C	0.915792	-0.511112	-0.411149
C38	C	1.415792	-0.011112	0.088851
C39	C	0.774487	-0.448974	-0.473541
C40	C	1.274487	0.051026	0.026459
C41	C	0.868702	-0.454088	-0.468381
C42	C	1.368702	0.045912	0.031619
C43	C	0.868661	-0.563028	-0.359075
C44	C	1.368661	-0.063028	0.140925
C45	C	0.774445	-0.557914	-0.364234
C46	C	1.274445	-0.057914	0.135766
C47	C	0.727362	-0.500883	-0.421468
C48	C	1.227362	-0.000883	0.078532
C49	C	0.633146	-0.495765	-0.426622
C50	C	1.133146	0.004235	0.073378
C51	C	0.633106	-0.604709	-0.317321
C52	C	1.133106	-0.104709	0.182679
C53	C	0.727321	-0.609823	-0.312161
C54	C	1.227321	-0.109823	0.187839
C55	C	1.236010	-0.763746	-0.407185
C56	C	1.736010	-0.263746	0.092815
C57	C	1.229914	-0.864024	-0.413338
C58	C	1.729914	-0.364024	0.086662
C59	C	1.340998	-1.052446	-0.302536
C60	C	1.840998	-0.552446	0.197464
C61	C	1.335274	-1.146666	-0.308314
C62	C	1.835274	-0.646666	0.191686
C63	C	1.212747	-1.146686	-0.430677
C64	C	1.712747	-0.646686	0.069323
C65	C	1.218471	-1.052466	-0.424898
C66	C	1.718471	-0.552466	0.075102
C67	C	1.282598	-1.005349	-0.360825
C68	C	1.782598	-0.505349	0.139175
C69	C	1.288317	-0.911127	-0.355043
C70	C	1.788317	-0.411127	0.144957
C71	C	1.165795	-0.911149	-0.477409
C72	C	1.665795	-0.411149	0.022591
C73	C	1.160071	-1.005369	-0.483188
C74	C	1.660071	-0.505369	0.016812
C75	C	1.485744	-0.542206	-0.380020
C76	C	1.985744	-0.042206	0.119980
C77	C	1.586014	-0.547680	-0.374547
C78	C	2.086014	-0.047680	0.125453
C79	C	1.236090	-0.542127	-0.629730
C80	C	1.736090	-0.042127	-0.129730
C81	C	1.229972	-0.547567	-0.730669
C82	C	1.729972	-0.047567	-0.230669
C83	C	1.264964	-0.294060	-0.378501
C84	C	1.764964	0.205940	0.121499
C85	C	1.271150	-0.193789	-0.372382
C86	C	1.771150	0.306211	0.127618
C87	C	1.340977	-0.448684	-0.907006
C88	C	1.840977	0.051316	-0.407006
C89	C	1.335232	-0.453793	-1.001847
C90	C	1.835232	0.046207	-0.501847
C91	C	1.212732	-0.562889	-1.015194
C92	C	1.712732	-0.062889	-0.515194
C93	C	1.218477	-0.557780	-0.920353
C94	C	1.718477	-0.057780	-0.420353
C95	C	1.282603	-0.500676	-0.866262
C96	C	1.782603	-0.000676	-0.366262
C97	C	1.288352	-0.495573	-0.771419
C98	C	1.788352	0.004427	-0.271419
C99	C	1.165849	-0.604664	-0.784768
C100	C	1.665849	-0.104664	-0.284768
C101	C	1.160103	-0.609773	-0.879609
C102	C	1.660103	-0.109773	-0.379609
C103	C	1.264804	-0.516580	-0.156908
C104	C	1.764804	-0.016580	0.343092
C105	C	1.271112	-0.510894	-0.055944
C106	C	1.771112	-0.010894	0.444056
H107	H	0.736151	-0.402528	-0.520134
H108	H	1.236151	0.097472	-0.020134
H109	H	1.160524	-0.609379	-1.059251
H110	H	1.660524	-0.109379	-0.559251
H111	H	1.382831	-1.185009	-0.260850
H112	H	1.882831	-0.685009	0.239150
H113	H	0.907067	-0.411818	-0.510785
H114	H	1.407067	0.088182	-0.010785
C115	C	1.358888	-0.432755	-0.711921
C116	C	1.858888	0.067245	-0.211921
N117	N	1.412016	-0.385436	-0.667109
N118	N	1.912016	0.114564	-0.167109
H119	H	0.907012	-0.609462	-0.312481
H120	H	1.407012	-0.109462	0.187519
H121	H	0.765669	-0.656258	-0.265565
H122	H	1.265669	-0.156258	0.234435
C123	C	0.581261	-0.661815	-0.260038
C124	C	1.081261	-0.161815	0.239962
N125	N	0.542211	-0.704824	-0.216892
N126	N	1.042211	-0.204824	0.283108
C127	C	1.142212	-1.198531	-0.501151
C128	C	1.642212	-0.698531	-0.001151
N129	N	1.089082	-1.237581	-0.554230
N130	N	1.589082	-0.737581	-0.054230
C131	C	1.089531	-1.057208	-0.553660
C132	C	1.589531	-0.557208	-0.053660
N133	N	1.036394	-1.096252	-0.606738
N134	N	1.536394	-0.596252	-0.106738
H135	H	1.118239	-0.872792	-0.524870
H136	H	1.618239	-0.372792	-0.024870
H137	H	1.382764	-0.411452	-1.035017
H138	H	1.882764	0.088548	-0.535017
H139	H	1.340530	-0.872765	-0.302868
H140	H	1.840530	-0.372765	0.197132
H141	H	1.107892	-0.656263	-0.923662
H142	H	1.607892	-0.156263	-0.423662
H143	H	0.594812	-0.449324	-0.473221
H144	H	1.094812	0.050676	0.026779
C145	C	1.411519	-0.385875	-0.847504
C146	C	1.911519	0.114125	-0.347504
N147	N	1.464652	-0.338565	-0.802688
N148	N	1.964652	0.161435	-0.302688
H149	H	1.393207	-1.014082	-0.250358
H150	H	1.893207	-0.514082	0.249642
C151	C	1.101633	-0.661860	-0.739942
C152	C	1.601633	-0.161860	-0.239942
N153	N	1.053269	-0.704941	-0.706179
N154	N	1.553269	-0.204941	-0.206179
