data_functionalizedCrystal
_audit_creation_method	'MofGen! by Chris Wilmer'
_symmetry_space_group_name_H-M	'P1'
_symmetry_Int_Tables_number	1
_symmetry_cell_setting	triclinic
loop_
_symmetry_equiv_pos_as_xyz
  x,y,z
_cell_length_a	13.596369
_cell_length_b	14.971486
_cell_length_c	14.971486
_cell_angle_alpha	96.385871
_cell_angle_beta	89.993775
_cell_angle_gamma	89.996008
loop_
_atom_site_label
_atom_site_type_symbol
_atom_site_fract_x
_atom_site_fract_y
_atom_site_fract_z
O1	O	-0.081679	-1.186940	0.116565
O2	O	0.418321	-0.686940	0.616565
O3	O	-0.081706	-0.926540	0.130524
O4	O	0.418294	-0.426540	0.630524
O5	O	-0.081684	-1.063719	-0.006656
O6	O	0.418316	-0.563719	0.493344
O7	O	-0.081700	-1.049760	0.253744
O8	O	0.418300	-0.549760	0.753744
O9	O	0.081898	-1.063717	-0.006664
O10	O	0.581898	-0.563717	0.493336
O11	O	0.081877	-0.926538	0.130515
O12	O	0.581877	-0.426538	0.630515
O13	O	0.081904	-1.186938	0.116556
O14	O	0.581904	-0.686938	0.616556
Zn15	Zn	0.107863	-1.056737	0.123534
Zn16	Zn	0.607863	-0.556737	0.623534
Zn17	Zn	-0.107665	-1.056740	0.123546
Zn18	Zn	0.392335	-0.556740	0.623546
O19	O	0.081883	-1.049758	0.253736
O20	O	0.581883	-0.549758	0.753736
C21	C	0.000082	-0.893214	0.129895
C22	C	0.500082	-0.393214	0.629895
C23	C	0.000072	-0.793917	0.128024
C24	C	0.500072	-0.293917	0.628024
N25	N	-0.254756	-1.056743	0.123547
N26	N	0.245244	-0.556743	0.623547
C27	C	0.000107	-1.063094	-0.039985
C28	C	0.500107	-0.563094	0.460015
C29	C	0.000106	-1.061223	-0.139282
C30	C	0.500106	-0.561223	0.360718
C31	C	-0.656047	-1.056738	0.123537
C32	C	-0.156047	-0.556738	0.623537
C33	C	-0.544396	-1.056736	0.123542
C34	C	-0.044396	-0.556736	0.623542
C35	C	-0.455405	-1.056740	0.123542
C36	C	0.044595	-0.556740	0.623542
C37	C	-0.343747	-1.056739	0.123548
C38	C	0.156253	-0.556739	0.623548
N39	N	0.254955	-1.056742	0.123526
N40	N	0.754955	-0.556742	0.623526
C41	C	0.000114	-1.220263	0.117185
C42	C	0.500114	-0.720263	0.617185
C43	C	0.000118	-1.319561	0.119056
C44	C	0.500118	-0.819561	0.619056
C45	C	0.000069	-0.736692	0.208614
C46	C	0.500069	-0.236692	0.708614
C47	C	0.000084	-0.643392	0.206850
C48	C	0.500084	-0.143392	0.706850
C49	C	0.000095	-0.607320	0.124497
C50	C	0.500095	-0.107320	0.624497
C51	C	0.000101	-0.664552	0.043902
C52	C	0.500101	-0.164552	0.543902
C53	C	0.000094	-0.757850	0.045666
C54	C	0.500094	-0.257850	0.545666
C55	C	0.000115	-0.470090	0.040231
C56	C	0.500115	0.029910	0.540231
C57	C	0.000121	-0.376786	0.038466
C58	C	0.500121	0.123214	0.538466
C59	C	0.000105	-0.355632	0.201415
C60	C	0.500105	0.144368	0.701415
C61	C	0.000098	-0.448930	0.203179
C62	C	0.500098	0.051070	0.703179
C63	C	0.000102	-0.506156	0.122584
C64	C	0.500102	-0.006156	0.622584
C65	C	0.000115	-1.141812	-0.196507
C66	C	0.500115	-0.641812	0.303493
C67	C	0.000105	-1.140049	-0.289807
C68	C	0.500105	-0.640049	0.210193
C69	C	0.000092	-1.057696	-0.325879
C70	C	0.500092	-0.557696	0.174121
C71	C	0.000080	-0.977101	-0.268646
C72	C	0.500080	-0.477101	0.231354
C73	C	0.000084	-0.978865	-0.175349
C74	C	0.500084	-0.478865	0.324651
C75	C	0.000077	-0.973430	-0.463109
C76	C	0.500077	-0.473430	0.036891
C77	C	0.000075	-0.971665	-0.556413
C78	C	0.500075	-0.471665	-0.056413
C79	C	0.000098	-1.134614	-0.577567
C80	C	0.500098	-0.634614	-0.077567
C81	C	0.000101	-1.136378	-0.484269
C82	C	0.500101	-0.636378	0.015731
C83	C	0.000090	-1.055782	-0.427043
C84	C	0.500090	-0.555782	0.072957
C85	C	0.000090	-1.050384	0.287065
C86	C	0.500090	-0.550384	0.787065
C87	C	0.000084	-1.052254	0.386362
C88	C	0.500084	-0.552254	0.886362
H89	H	0.000059	-0.766054	0.275675
H90	H	0.500059	-0.266054	0.775675
Cl91	Cl	0.000168	-0.331439	-0.065065
Cl92	Cl	0.500168	0.168561	0.434935
H93	H	0.000124	-0.635175	-0.023152
H94	H	0.500124	-0.135175	0.476848
H95	H	0.000080	-0.596802	0.272474
H96	H	0.500080	-0.096802	0.772474
H97	H	0.000130	-1.208874	-0.167145
H98	H	0.500130	-0.708874	0.332855
Cl99	Cl	0.000053	-0.873570	-0.313995
Cl100	Cl	0.500053	-0.373570	0.186005
H101	H	0.000120	-0.516682	-0.025399
H102	H	0.500120	-0.016682	0.474601
Cl103	Cl	0.000061	-0.868134	-0.601760
Cl104	Cl	0.500061	-0.368134	-0.101760
Cl105	Cl	0.000119	-1.241366	-0.361744
Cl106	Cl	0.500119	-0.741366	0.138256
H107	H	0.000096	-0.804443	-0.019958
H108	H	0.500096	-0.304443	0.480042
H109	H	0.000066	-0.907800	-0.416517
H110	H	0.500066	-0.407800	0.083483
H111	H	0.000117	-1.203437	-0.454903
H112	H	0.500117	-0.703437	0.045097
H113	H	0.000076	-0.913240	-0.128756
H114	H	0.500076	-0.413240	0.371244
H115	H	0.000103	-1.200238	-0.624165
H116	H	0.500103	-0.700238	-0.124165
H117	H	0.000079	-0.478296	0.270239
H118	H	0.500079	0.021704	0.770239
H119	H	0.000106	-0.309033	0.267039
H120	H	0.500106	0.190967	0.767039
