data_functionalizedCrystal
_audit_creation_method	'MofGen! by Chris Wilmer'
_symmetry_space_group_name_H-M	'P1'
_symmetry_Int_Tables_number	1
_symmetry_cell_setting	triclinic
loop_
_symmetry_equiv_pos_as_xyz
  x,y,z
_cell_length_a	12.759401
_cell_length_b	29.839131
_cell_length_c	12.759393
_cell_angle_alpha	90.043835
_cell_angle_beta	90.019196
_cell_angle_gamma	90.035655
loop_
_atom_site_label
_atom_site_type_symbol
_atom_site_fract_x
_atom_site_fract_y
_atom_site_fract_z
Zn1	Zn	1.606111	-0.178829	0.593883
Zn2	Zn	2.106111	0.321171	1.093883
Zn3	Zn	1.605941	-0.253966	0.418160
Zn4	Zn	2.105941	0.246034	0.918160
Zn5	Zn	1.430412	-0.178851	0.418222
Zn6	Zn	1.930412	0.321149	0.918222
Zn7	Zn	1.430339	-0.253934	0.593801
Zn8	Zn	1.930339	0.246066	1.093801
O9	O	1.518201	-0.216395	0.506016
O10	O	2.018201	0.283605	1.006016
O11	O	1.753110	-0.188801	0.570581
O12	O	2.253110	0.311199	1.070581
O13	O	1.582616	-0.244024	0.271147
O14	O	2.082616	0.255976	0.771147
O15	O	1.453820	-0.115981	0.441584
O16	O	1.953820	0.384019	0.941584
O17	O	1.752985	-0.244003	0.441478
O18	O	2.252985	0.255997	0.941478
O19	O	1.582906	-0.115965	0.570641
O20	O	2.082906	0.384035	1.070641
O21	O	1.453655	-0.188838	0.271192
O22	O	1.953655	0.311162	0.771192
O23	O	1.283381	-0.188806	0.441504
O24	O	1.783381	0.311194	0.941504
O25	O	1.453697	-0.243948	0.740833
O26	O	1.953697	0.256052	1.240833
O27	O	1.283328	-0.243969	0.570502
O28	O	1.783328	0.256031	1.070502
O29	O	1.582836	-0.188770	0.740893
O30	O	2.082836	0.311230	1.240893
O31	O	1.582545	-0.316828	0.441399
O32	O	2.082545	0.183172	0.941399
O33	O	1.453531	-0.316805	0.570442
O34	O	1.953531	0.183195	1.070442
C35	C	1.245234	-0.216387	0.506001
C36	C	1.745234	0.283613	1.006001
C37	C	1.128457	-0.216395	0.506020
C38	C	1.628457	0.283605	1.006020
C39	C	1.073661	-0.187703	0.573347
C40	C	1.573661	0.312297	1.073347
C41	C	0.963937	-0.187707	0.573354
C42	C	1.463937	0.312293	1.073354
C43	C	0.963815	-0.245100	0.438704
C44	C	1.463815	0.254900	0.938704
C45	C	1.073537	-0.245092	0.438692
C46	C	1.573537	0.254908	0.938692
C47	C	1.518041	-0.333117	0.505928
C48	C	2.018041	0.166883	1.005928
C49	C	1.518068	-0.383052	0.505925
C50	C	2.018068	0.116948	1.005925
C51	C	1.585401	-0.692652	0.573312
C52	C	2.085401	-0.192652	1.073312
C53	C	1.585515	-0.880325	0.573375
C54	C	2.085515	-0.380325	1.073375
O55	O	1.642607	-0.904553	0.630605
O56	O	2.142607	-0.404553	1.130605
N57	N	1.518379	-0.903837	0.506133
N58	N	2.018379	-0.403837	1.006133
C59	C	1.451205	-0.880428	0.438875
C60	C	1.951205	-0.380428	0.938875
O61	O	1.394097	-0.904732	0.381690
O62	O	1.894097	-0.404732	0.881690
C63	C	1.451087	-0.692755	0.438818
C64	C	1.951087	-0.192755	0.938818
C65	C	1.518234	-0.669246	0.506057
C66	C	2.018234	-0.169246	1.006057
C67	C	1.652543	-0.669143	0.640547
C68	C	2.152543	-0.169143	1.140547
C69	C	1.652518	-0.622227	0.640526
C70	C	2.152518	-0.122227	1.140526
C71	C	1.585351	-0.598821	0.573271
C72	C	2.085351	-0.098821	1.073271
C73	C	1.518209	-0.622331	0.506037
C74	C	2.018209	-0.122331	1.006037
C75	C	1.383908	-0.669347	0.371566
C76	C	1.883908	-0.169347	0.871566
C77	C	1.383882	-0.622426	0.371559
C78	C	1.883882	-0.122426	0.871559
C79	C	1.451030	-0.598917	0.438799
C80	C	1.951030	-0.098917	0.938799
C81	C	1.451017	-0.552009	0.438761
C82	C	1.951017	-0.052009	0.938761
N83	N	1.518153	-0.528497	0.506003
N84	N	2.018153	-0.028497	1.006003
C85	C	1.585320	-0.551903	0.573259
C86	C	2.085320	-0.051903	1.073259
C87	C	1.451274	-0.978958	0.438908
C88	C	1.951274	-0.478958	0.938908
C89	C	1.451304	-1.025876	0.438921
C90	C	1.951304	-0.525876	0.938921
C91	C	1.585613	-1.025770	0.573423
C92	C	2.085613	-0.525770	1.073423
C93	C	1.585587	-0.978852	0.573404
C94	C	2.085587	-0.478852	1.073404
C95	C	1.518410	-0.955446	0.506150
C96	C	2.018410	-0.455446	1.006150
C97	C	1.585263	-0.453378	0.573210
C98	C	2.085263	0.046622	1.073210
C99	C	1.585235	-0.406458	0.573180
C100	C	2.085235	0.093542	1.073180
C101	C	1.450922	-0.406568	0.438682
C102	C	1.950922	0.093432	0.938682
C103	C	1.450954	-0.453483	0.438707
C104	C	1.950954	0.046517	0.938707
C105	C	1.518128	-0.476887	0.505980
C106	C	2.018128	0.023113	1.005980
O107	O	1.393947	-0.527752	0.381570
O108	O	1.893947	-0.027752	0.881570
O109	O	1.642403	-0.527591	0.630451
O110	O	2.142403	-0.027591	1.130451
C111	C	1.585426	-0.739568	0.573333
C112	C	2.085426	-0.239568	1.073333
C113	C	1.518285	-0.763077	0.506098
C114	C	2.018285	-0.263077	1.006098
C115	C	1.451118	-0.739671	0.438843
C116	C	1.951118	-0.239671	0.938843
C117	C	1.518316	-0.809995	0.506111
C118	C	2.018316	-0.309995	1.006111
C119	C	1.585482	-0.833401	0.573366
C120	C	2.085482	-0.333401	1.073366
C121	C	1.652618	-0.809889	0.640608
C122	C	2.152618	-0.309889	1.140608
C123	C	1.652593	-0.762974	0.640588
C124	C	2.152593	-0.262974	1.140588
C125	C	1.383982	-0.763183	0.371600
C126	C	1.883982	-0.263183	0.871600
C127	C	1.384014	-0.810098	0.371626
C128	C	1.884014	-0.310098	0.871626
C129	C	1.451180	-0.833504	0.438881
C130	C	1.951180	-0.333504	0.938881
C131	C	1.792234	-0.216403	0.506032
C132	C	2.292234	0.283597	1.006032
C133	C	1.909011	-0.216406	0.506038
C134	C	2.409011	0.283594	1.006038
C135	C	1.518277	-0.216353	0.780050
C136	C	2.018277	0.283647	1.280050
C137	C	1.518310	-0.216335	0.896827
C138	C	2.018310	0.283665	1.396827
C139	C	1.518390	-0.099216	0.506128
C140	C	2.018390	0.400784	1.006128
C141	C	1.518471	-0.049282	0.506176
C142	C	2.018471	0.450718	1.006176
C143	C	1.518185	-0.216404	0.233049
C144	C	2.018185	0.283596	0.733049
C145	C	1.518356	-0.216295	0.116273
C146	C	2.018356	0.283705	0.616273
C147	C	1.585487	-0.245037	1.061400
C148	C	2.085487	0.254963	1.561400
C149	C	1.585462	-0.245059	0.951676
C150	C	2.085462	0.254941	1.451676
C151	C	1.451171	-0.187592	0.951707
C152	C	1.951171	0.312408	1.451707
C153	C	1.451192	-0.187573	1.061429
C154	C	1.951192	0.312427	1.561429
H155	H	1.118153	-0.268457	0.383860
H156	H	1.618153	0.231543	0.883860
H157	H	1.396521	-0.164167	1.106107
H158	H	1.896521	0.335833	1.606107
H159	H	1.329175	-0.603372	0.316794
H160	H	1.829175	-0.103372	0.816794
C161	C	1.377308	-0.155996	0.891375
C162	C	1.877308	0.344004	1.391375
H163	H	1.386917	-0.160119	0.818169
H164	H	1.886917	0.339881	1.318169
H165	H	1.306708	-0.162563	0.909338
H166	H	1.806708	0.337437	1.409338
H167	H	1.392747	-0.125807	0.909388
H168	H	1.892747	0.374193	1.409388
H169	H	1.639918	-0.387318	0.627934
H170	H	2.139918	0.112682	1.127934
C171	C	1.726439	-0.694882	0.714528
C172	C	2.226439	-0.194882	1.214528
H173	H	1.766421	-0.674155	0.754556
H174	H	2.266421	-0.174155	1.254556
H175	H	1.686254	-0.713185	0.760284
H176	H	2.186254	-0.213185	1.260284
H177	H	1.772258	-0.713179	0.674375
H178	H	2.272258	-0.213179	1.174375
H179	H	1.639955	-0.472427	0.627996
H180	H	2.139955	0.027573	1.127996
C181	C	1.659356	-0.276632	1.121731
C182	C	2.159356	0.223368	1.621731
H183	H	1.649763	-0.272502	1.194937
H184	H	2.149763	0.227498	1.694937
H185	H	1.643927	-0.306819	1.103721
H186	H	2.143927	0.193181	1.603721
H187	H	1.729957	-0.270060	1.103762
H188	H	2.229957	0.229940	1.603762
C189	C	1.659310	-0.276673	0.891321
C190	C	2.159310	0.223327	1.391321
H191	H	1.699315	-0.293773	0.939702
H192	H	2.199315	0.206227	1.439702
H193	H	1.619084	-0.296255	0.848497
H194	H	2.119084	0.203745	1.348497
H195	H	1.705108	-0.259493	0.848540
H196	H	2.205108	0.240507	1.348540
H197	H	1.118373	-0.164334	0.628167
H198	H	1.618373	0.335666	1.128167
H199	H	1.640264	-0.959713	0.628157
H200	H	2.140264	-0.459713	1.128157
C201	C	1.726377	-0.596373	0.714494
C202	C	2.226377	-0.096373	1.214494
H203	H	1.766372	-0.617038	0.754551
H204	H	2.266372	-0.117038	1.254551
H205	H	1.772169	-0.578068	0.674345
H206	H	2.272169	-0.078068	1.174345
H207	H	1.686151	-0.578068	0.760240
H208	H	2.186151	-0.078068	1.260240
C209	C	1.659491	-1.051523	0.647407
C210	C	2.159491	-0.551523	1.147407
H211	H	1.649880	-1.082831	0.637784
H212	H	2.149880	-0.582831	1.137784
H213	H	1.730089	-1.043816	0.632104
H214	H	2.230089	-0.543816	1.132104
H215	H	1.644056	-1.043814	0.717985
H216	H	2.144056	-0.543814	1.217985
H217	H	0.919326	-0.164343	0.628178
H218	H	1.419326	0.335657	1.128178
H219	H	0.919085	-0.268465	0.383889
H220	H	1.419085	0.231535	0.883889
H221	H	1.396568	-0.959905	0.384139
H222	H	1.896568	-0.459905	0.884139
C223	C	1.377448	-1.051731	0.364951
C224	C	1.877448	-0.551731	0.864951
H225	H	1.337438	-1.031068	0.324906
H226	H	1.837438	-0.531068	0.824906
H227	H	1.417666	-1.070037	0.319210
H228	H	1.917666	-0.570037	0.819210
H229	H	1.331655	-1.070034	0.405113
H230	H	1.831655	-0.570034	0.905113
C231	C	1.310036	-0.695197	0.297609
C232	C	1.810036	-0.195197	0.797609
H233	H	1.270026	-0.674531	0.257569
H234	H	1.770026	-0.174531	0.757569
H235	H	1.350243	-0.713504	0.251862
H236	H	1.850243	-0.213504	0.751862
H237	H	1.264243	-0.713498	0.337775
H238	H	1.764243	-0.213498	0.837775
H239	H	1.396285	-0.472626	0.383947
H240	H	1.896285	0.027374	0.883947
C241	C	1.377040	-0.380815	0.364712
C242	C	1.877040	0.119185	0.864712
H243	H	1.386639	-0.349506	0.374345
H244	H	1.886639	0.150494	0.874345
H245	H	1.392445	-0.388523	0.294133
H246	H	1.892445	0.111477	0.794133
H247	H	1.306443	-0.388523	0.380044
H248	H	1.806443	0.111477	0.880044
H249	H	1.707312	-0.828954	0.695366
H250	H	2.207312	-0.328954	1.195366
C251	C	1.310144	-0.835953	0.297659
C252	C	1.810144	-0.335953	0.797659
H253	H	1.270134	-0.815290	0.257613
H254	H	1.770134	-0.315290	0.757613
H255	H	1.350353	-0.854262	0.251919
H256	H	1.850353	-0.354262	0.751919
H257	H	1.264350	-0.854253	0.337829
H258	H	1.764350	-0.354253	0.837829
H259	H	1.707271	-0.743836	0.695341
H260	H	2.207271	-0.243836	1.195341
H261	H	1.329285	-0.744129	0.316834
H262	H	1.829285	-0.244129	0.816834
