data_functionalizedCrystal
_audit_creation_method	'MofGen! by Chris Wilmer'
_symmetry_space_group_name_H-M	'P1'
_symmetry_Int_Tables_number	1
_symmetry_cell_setting	triclinic
loop_
_symmetry_equiv_pos_as_xyz
  x,y,z
_cell_length_a	14.519709
_cell_length_b	10.654550
_cell_length_c	13.596369
_cell_angle_alpha	89.999203
_cell_angle_beta	90.000316
_cell_angle_gamma	84.082524
loop_
_atom_site_label
_atom_site_type_symbol
_atom_site_fract_x
_atom_site_fract_y
_atom_site_fract_z
O1	O	-1.224724	-0.164615	-0.081661
O2	O	-0.724724	0.335385	0.418339
O3	O	-0.956347	-0.184001	-0.081690
O4	O	-0.456347	0.315999	0.418310
O5	O	-1.096706	0.008491	-0.081671
O6	O	-0.596706	0.508491	0.418329
O7	O	-1.084365	-0.357107	-0.081680
O8	O	-0.584365	0.142893	0.418320
O9	O	-1.096689	0.008480	0.081912
O10	O	-0.596689	0.508480	0.581912
O11	O	-0.956330	-0.184012	0.081892
O12	O	-0.456330	0.315988	0.581892
O13	O	-1.224706	-0.164625	0.081922
O14	O	-0.724706	0.335375	0.581922
Zn15	Zn	-1.090515	-0.174320	0.107880
Zn16	Zn	-0.590515	0.325680	0.607880
Zn17	Zn	-1.090538	-0.174306	-0.107648
Zn18	Zn	-0.590538	0.325694	0.392352
O19	O	-1.084348	-0.357117	0.081903
O20	O	-0.584348	0.142883	0.581903
C21	C	-1.095791	0.055275	0.000119
C22	C	-0.595791	0.555275	0.500119
C23	C	-1.093080	0.194692	0.000115
C24	C	-0.593080	0.694692	0.500115
C25	C	-0.921974	-0.183103	0.000097
C26	C	-0.421974	0.316897	0.500097
C27	C	-0.819579	-0.180396	0.000086
C28	C	-0.319579	0.319604	0.500086
C29	C	-1.259079	-0.165524	0.000132
C30	C	-0.759079	0.334476	0.500132
C31	C	-1.361475	-0.168231	0.000137
C32	C	-0.861475	0.331769	0.500137
C33	C	-0.444631	-0.170428	0.000131
C34	C	0.055369	0.329572	0.500131
C35	C	-0.548954	-0.173196	0.000118
C36	C	-0.048954	0.326804	0.500118
C37	C	-0.632102	-0.175412	0.000107
C38	C	-0.132102	0.324588	0.500107
C39	C	-0.736431	-0.178180	0.000096
C40	C	-0.236431	0.321820	0.500096
C41	C	-1.085262	-0.403901	0.000111
C42	C	-0.585262	0.096099	0.500111
C43	C	-1.087973	-0.543318	0.000108
C44	C	-0.587973	-0.043318	0.500108
N45	N	-1.090506	-0.174329	0.254972
N46	N	-0.590506	0.325671	0.754972
C47	C	-1.175721	0.274972	0.000127
C48	C	-0.675721	0.774972	0.500127
C49	C	-1.173168	0.405968	0.000120
C50	C	-0.673168	0.905968	0.500120
C51	C	-1.005326	0.376391	0.000093
C52	C	-0.505326	0.876391	0.500093
C53	C	-1.007880	0.245397	0.000093
C54	C	-0.507880	0.745397	0.500093
C55	C	-1.260921	0.224266	0.000150
C56	C	-0.760921	0.724266	0.500150
C57	C	-1.343569	0.304548	0.000163
C58	C	-0.843569	0.804548	0.500163
C59	C	-1.341016	0.435544	0.000156
C60	C	-0.841016	0.935544	0.500156
C61	C	-1.255815	0.486259	0.000135
C62	C	-0.755815	0.986259	0.500135
N63	N	-1.090554	-0.174288	-0.254740
N64	N	-0.590554	0.325712	0.245260
C65	C	-1.090511	-0.174332	0.343969
C66	C	-0.590511	0.325668	0.843969
C67	C	-1.090520	-0.174323	0.455621
C68	C	-0.590520	0.325677	0.955621
C69	C	-1.090532	-0.174309	0.544611
C70	C	-0.590532	0.325691	1.044611
C71	C	-1.090542	-0.174302	0.656270
C72	C	-0.590542	0.325698	1.156270
H73	H	-1.263009	0.117604	0.000158
H74	H	-0.763009	0.617604	0.500158
Br75	Br	-1.459192	0.235725	0.000173
Br76	Br	-0.959192	0.735725	0.500173
H77	H	-1.408312	0.500907	0.000156
H78	H	-0.908312	1.000907	0.500156
Br79	Br	-0.889704	0.445219	0.000065
Br80	Br	-0.389704	0.945219	0.500065
Br81	Br	-0.895723	0.136437	0.000072
Br82	Br	-0.395723	0.636437	0.500072
H83	H	-1.253743	0.592926	0.000119
H84	H	-0.753743	1.092926	0.500119
