data_functionalizedCrystal
_audit_creation_method	'MofGen! by Chris Wilmer'
_symmetry_space_group_name_H-M	'P1'
_symmetry_Int_Tables_number	1
_symmetry_cell_setting	triclinic
loop_
_symmetry_equiv_pos_as_xyz
  x,y,z
_cell_length_a	15.298708
_cell_length_b	15.299816
_cell_length_c	14.908308
_cell_angle_alpha	103.454544
_cell_angle_beta	102.311050
_cell_angle_gamma	88.425743
loop_
_atom_site_label
_atom_site_type_symbol
_atom_site_fract_x
_atom_site_fract_y
_atom_site_fract_z
Zn1	Zn	1.385675	-0.135968	-0.294227
Zn2	Zn	1.885675	0.364032	0.205773
Zn3	Zn	1.417050	-0.273728	-0.161818
Zn4	Zn	1.917050	0.226272	0.338182
Zn5	Zn	1.244941	-0.153257	-0.170698
Zn6	Zn	1.744941	0.346743	0.329302
Zn7	Zn	1.262108	-0.311129	-0.345877
Zn8	Zn	1.762108	0.188871	0.154123
O9	O	1.327444	-0.218520	-0.243155
O10	O	1.827444	0.281480	0.256845
O11	O	1.513578	-0.131354	-0.251331
O12	O	2.013578	0.368646	0.248669
O13	O	1.400165	-0.249330	-0.034269
O14	O	1.900165	0.250670	0.465731
O15	O	1.243295	-0.027241	-0.169184
O16	O	1.743295	0.472759	0.330816
O17	O	1.536629	-0.232565	-0.154050
O18	O	2.036629	0.267435	0.345950
O19	O	1.346691	-0.014538	-0.259941
O20	O	1.846691	0.485462	0.240059
O21	O	1.273718	-0.160821	-0.040793
O22	O	1.773718	0.339179	0.459207
O23	O	1.123478	-0.197087	-0.219267
O24	O	1.623478	0.302913	0.280733
O25	O	1.272554	-0.296310	-0.467753
O26	O	1.772554	0.203690	0.032247
O27	O	1.136090	-0.313075	-0.347971
O28	O	1.636090	0.186925	0.152029
O29	O	1.363338	-0.167620	-0.429805
O30	O	1.863338	0.332380	0.070195
O31	O	1.416811	-0.402412	-0.204133
O32	O	1.916811	0.097588	0.295867
O33	O	1.302977	-0.429891	-0.339361
O34	O	1.802977	0.070109	0.160639
C35	C	1.097699	-0.261017	-0.290188
C36	C	1.597699	0.238983	0.209812
C37	C	0.999416	-0.279220	-0.310334
C38	C	1.499416	0.220780	0.189666
C39	C	0.695931	-0.088659	-0.099427
C40	C	1.195931	0.411341	0.400573
C41	C	0.788272	-0.071552	-0.080499
C42	C	1.288272	0.428448	0.419501
C43	C	0.841063	-0.123467	-0.137956
C44	C	1.341063	0.376533	0.362044
C45	C	0.801503	-0.192493	-0.214344
C46	C	1.301503	0.307507	0.285656
C47	C	0.709152	-0.209597	-0.233279
C48	C	1.209152	0.290403	0.266721
C49	C	0.854284	-0.244406	-0.271807
C50	C	1.354284	0.255594	0.228193
C51	C	0.814724	-0.313431	-0.348196
C52	C	1.314724	0.186569	0.151804
C53	C	0.722382	-0.330533	-0.367126
C54	C	1.222382	0.169467	0.132874
C55	C	0.669592	-0.278618	-0.309669
C56	C	1.169592	0.221382	0.190331
C57	C	0.946635	-0.227301	-0.252873
C58	C	1.446635	0.272699	0.247127
C59	C	0.959856	-0.348240	-0.386725
C60	C	1.459856	0.151760	0.113275
C61	C	0.867515	-0.365347	-0.405652
C62	C	1.367515	0.134653	0.094348
C63	C	1.365185	-0.448228	-0.276403
C64	C	1.865185	0.051772	0.223597
C65	C	1.381410	-0.546485	-0.290641
C66	C	1.881410	-0.046485	0.209359
C67	C	1.212045	-0.850158	-0.141587
C68	C	1.712045	-0.350158	0.358413
C69	C	1.196796	-0.757842	-0.128213
C70	C	1.696796	-0.257842	0.371787
C71	C	1.242948	-0.704998	-0.168819
C72	C	1.742948	-0.204998	0.331181
C73	C	1.304352	-0.744480	-0.222801
C74	C	1.804352	-0.244480	0.277199
C75	C	1.319597	-0.836807	-0.236183
C76	C	1.819597	-0.336807	0.263817
C77	C	1.350500	-0.691647	-0.263414
C78	C	1.850500	-0.191647	0.236586
C79	C	1.411904	-0.731128	-0.317397
C80	C	1.911904	-0.231128	0.182603
C81	C	1.427147	-0.823446	-0.330776
C82	C	1.927147	-0.323446	0.169224
C83	C	1.380995	-0.876290	-0.290170
C84	C	1.880995	-0.376290	0.209830
C85	C	1.335255	-0.599320	-0.250033
C86	C	1.835255	-0.099320	0.249967
C87	C	1.442807	-0.585969	-0.344629
C88	C	1.942807	-0.085969	0.155371
C89	C	1.458056	-0.678285	-0.358003
C90	C	1.958056	-0.178285	0.141997
C91	C	1.558085	-0.175859	-0.195939
C92	C	2.058085	0.324141	0.304061
C93	C	1.656371	-0.157679	-0.175818
C94	C	2.156371	0.342321	0.324182
C95	C	1.316361	-0.234209	-0.483090
C96	C	1.816361	0.265791	0.016910
C97	C	1.311638	-0.240894	-0.585336
C98	C	1.811638	0.259106	-0.085336
C99	C	1.289578	0.012088	-0.209792
C100	C	1.789578	0.512088	0.290208
C101	C	1.273443	0.110359	-0.195574
C102	C	1.773443	0.610359	0.304426
C103	C	1.397291	-0.119431	-0.737952
C104	C	1.897291	0.380569	-0.237952
C105	C	1.392855	-0.125709	-0.834020
C106	C	1.892855	0.374291	-0.334020
C107	C	1.298328	-0.259724	-0.873542
C108	C	1.798328	0.240276	-0.373542
C109	C	1.302763	-0.253446	-0.777474
C110	C	1.802763	0.246554	-0.277474
C111	C	1.352247	-0.183298	-0.709681
C112	C	1.852247	0.316702	-0.209681
C113	C	1.356687	-0.177024	-0.613611
C114	C	1.856687	0.322976	-0.113611
C115	C	1.262155	-0.311034	-0.653135
C116	C	1.762155	0.188966	-0.153135
C117	C	1.257719	-0.317312	-0.749203
C118	C	1.757719	0.182688	-0.249203
C119	C	1.338524	-0.202820	-0.004134
C120	C	1.838524	0.297180	0.495866
C121	C	1.343377	-0.195854	0.098183
C122	C	1.843377	0.304146	0.598183
H123	H	0.594400	-0.292547	-0.325073
H124	H	1.094400	0.207453	0.174927
H125	H	1.258040	-0.316834	-0.928754
H126	H	1.758040	0.183166	-0.428754
F127	F	1.214222	-0.379017	-0.623042
F128	F	1.714222	0.120983	-0.123042
H129	H	1.002838	-0.390511	-0.433513
H130	H	1.502838	0.109489	0.066487
H131	H	1.477142	-0.855590	-0.374737
H132	H	1.977142	-0.355590	0.125263
H133	H	1.217429	-0.374423	-0.804412
H134	H	1.717429	0.125577	-0.304412
H135	H	0.978834	-0.171097	-0.190680
H136	H	1.478834	0.328903	0.309320
H137	H	0.916250	-0.109534	-0.122541
H138	H	1.416250	0.390466	0.377459
F139	F	1.269907	-0.557311	-0.192582
F140	F	1.769907	-0.057311	0.307418
H141	H	0.820475	-0.015353	-0.018302
H142	H	1.320475	0.484647	0.481698
F143	F	1.226462	-0.606809	-0.154887
F144	F	1.726462	-0.106809	0.345113
H145	H	0.652940	-0.046392	-0.052658
H146	H	1.152940	0.453608	0.447342
H147	H	0.690175	-0.386733	-0.429332
H148	H	1.190175	0.113267	0.070668
F149	F	1.409355	-0.102370	-0.541462
F150	F	1.909355	0.397630	-0.041462
F151	F	1.491928	-0.529733	-0.387849
F152	F	1.991928	-0.029733	0.112151
F153	F	0.825403	-0.438811	-0.486945
F154	F	1.325403	0.061189	0.013055
F155	F	1.131440	-0.715831	-0.070773
F156	F	1.631440	-0.215831	0.429227
F157	F	1.397374	-0.974508	-0.304220
F158	F	1.897374	-0.474508	0.195780
F159	F	1.162922	-0.906405	-0.098393
F160	F	1.662922	-0.406405	0.401607
H161	H	1.437588	-0.062318	-0.682753
H162	H	1.937588	0.437682	-0.182753
H163	H	1.429532	-0.073701	-0.857032
H164	H	1.929532	0.426299	-0.357032
H165	H	1.508051	-0.710444	-0.401957
H166	H	2.008051	-0.210444	0.098043
