data_functionalizedCrystal
_audit_creation_method	'MofGen! by Chris Wilmer'
_symmetry_space_group_name_H-M	'P1'
_symmetry_Int_Tables_number	1
_symmetry_cell_setting	triclinic
loop_
_symmetry_equiv_pos_as_xyz
  x,y,z
_cell_length_a	10.723024
_cell_length_b	12.837942
_cell_length_c	9.198806
_cell_angle_alpha	89.997396
_cell_angle_beta	89.996352
_cell_angle_gamma	89.648405
loop_
_atom_site_label
_atom_site_type_symbol
_atom_site_fract_x
_atom_site_fract_y
_atom_site_fract_z
O1	O	1.672992	0.145513	-0.120882
O2	O	1.311352	0.159441	-0.120887
O3	O	1.484153	0.001517	-0.120876
O4	O	1.500191	0.303437	-0.120894
O5	O	1.484138	0.001517	0.120909
O6	O	1.311337	0.159441	0.120898
O7	O	1.672977	0.145512	0.120903
Cu8	Cu	1.492155	0.152477	0.142977
Cu9	Cu	1.492173	0.152477	-0.142962
O10	O	1.500176	0.303436	0.120892
C11	C	1.264735	0.158427	0.000005
C12	C	1.125851	0.155395	0.000003
C13	C	1.060466	0.243761	-0.000003
C14	C	0.916922	0.240629	-0.000005
C15	C	1.478728	-0.037142	0.000016
C16	C	1.462569	-0.152334	0.000013
C17	C	1.656825	-0.391911	-0.000015
C18	C	1.641648	-0.500145	-0.000017
C19	C	1.417040	-0.477037	-0.000005
C20	C	1.432217	-0.368804	-0.000002
C21	C	1.552113	-0.326245	-0.000005
C22	C	1.567289	-0.218009	0.000008
C23	C	1.342681	-0.194904	0.000010
C24	C	1.327505	-0.303137	0.000007
C25	C	1.719594	0.146526	0.000008
C26	C	1.858478	0.149559	-0.000000
C27	C	1.505601	0.342096	-0.000003
C28	C	1.521760	0.457288	-0.000010
N29	N	1.492152	0.152476	0.344091
N30	N	1.492186	0.152470	-0.344076
C31	C	1.564674	0.085875	0.416293
C32	C	1.564693	0.085872	0.583705
H33	H	0.860706	0.316277	-0.000016
H34	H	0.914686	0.073907	-0.000004
H35	H	1.430098	0.209496	0.593843
C36	C	0.983168	0.042805	-0.124292
C37	C	1.057977	0.050127	0.000003
H38	H	0.941276	-0.022188	-0.124295
H39	H	0.923551	0.097831	-0.124282
H40	H	1.033951	0.047791	-0.208597
H41	H	1.007193	0.045149	0.084308
H42	H	1.117601	-0.004914	0.000006
H43	H	1.319426	-0.511708	-0.000019
H44	H	1.664914	-0.183360	0.000011
C45	C	1.094671	0.405538	0.124285
C46	C	1.128342	0.349028	-0.000004
H47	H	1.136579	0.470525	0.124286
H48	H	1.007122	0.417241	0.124270
H49	H	1.117497	0.367178	0.208594
H50	H	1.105507	0.387384	-0.084314
H51	H	1.215910	0.337329	-0.000002
H52	H	1.626745	0.028855	0.354171
H53	H	1.754449	-0.357259	-0.000002
H54	H	1.430071	0.209488	0.406215
C55	C	1.616054	-0.093268	0.630835
C56	C	1.648514	0.008890	0.667513
H57	H	1.667809	-0.140793	0.682572
H58	H	1.531319	-0.104944	0.655734
H59	H	1.627043	-0.103352	0.529324
H60	H	1.637516	0.018976	0.769023
H61	H	1.733270	0.020571	0.642624
C62	C	1.754877	-0.635277	0.124261
C63	C	1.756748	-0.572330	-0.000025
H64	H	1.825935	-0.679845	0.124246
H65	H	1.756137	-0.592578	0.208563
H66	H	1.681298	-0.676111	0.124249
H67	H	1.830323	-0.531490	-0.000008
H68	H	1.755500	-0.615034	-0.084349
H69	H	1.229888	-0.337804	0.000003
H70	H	1.257417	-0.141426	0.000029
