data_functionalizedCrystal
_audit_creation_method	'MofGen! by Chris Wilmer'
_symmetry_space_group_name_H-M	'P1'
_symmetry_Int_Tables_number	1
_symmetry_cell_setting	triclinic
loop_
_symmetry_equiv_pos_as_xyz
  x,y,z
_cell_length_a	14.908795
_cell_length_b	16.625545
_cell_length_c	14.908308
_cell_angle_alpha	86.733823
_cell_angle_beta	90.211334
_cell_angle_gamma	93.315945
loop_
_atom_site_label
_atom_site_type_symbol
_atom_site_fract_x
_atom_site_fract_y
_atom_site_fract_z
Zn1	Zn	1.345285	-0.282027	0.587830
Zn2	Zn	1.353853	-0.408678	0.437470
Zn3	Zn	1.203598	-0.281153	0.428802
Zn4	Zn	1.194877	-0.424116	0.579091
O5	O	1.274403	-0.348994	0.508298
O6	O	1.472249	-0.292732	0.575170
O7	O	1.341157	-0.384935	0.310497
O8	O	1.222457	-0.168435	0.449927
O9	O	1.478544	-0.385782	0.464701
O10	O	1.326554	-0.169077	0.566765
O11	O	1.230765	-0.291243	0.304128
O12	O	1.076613	-0.306213	0.441453
O13	O	1.207593	-0.412095	0.706074
O14	O	1.070205	-0.411247	0.551870
O15	O	1.318097	-0.307702	0.712494
O16	O	1.332700	-0.523560	0.456227
O17	O	1.215901	-0.534903	0.560275
C18	C	1.040783	-0.360311	0.494773
C19	C	0.940839	-0.365174	0.489008
C20	C	0.803255	-0.420382	0.423279
C21	C	0.897162	-0.415817	0.428695
C22	C	0.890601	-0.319091	0.543907
C23	C	0.796694	-0.323656	0.538491
C24	C	0.753025	-0.374304	0.478176
C25	C	0.659116	-0.378874	0.472764
C26	C	0.652557	-0.282144	0.587972
C27	C	0.746464	-0.277579	0.593388
C28	C	1.274307	-0.558488	0.508264
C29	C	1.274346	-0.648108	0.508285
C30	C	1.274380	-0.720890	0.508305
C31	C	1.274431	-0.812197	0.508327
C32	C	1.274477	-0.884971	0.508342
C33	C	1.274528	-0.976284	0.508363
C34	C	1.508935	-0.337632	0.521877
C35	C	1.608878	-0.332791	0.527664
C36	C	1.260916	-0.361718	0.742821
C37	C	1.255169	-0.367140	0.842760
C38	C	1.274523	-0.138681	0.508354
C39	C	1.274574	-0.049059	0.508377
C40	C	1.287889	-0.336258	0.274691
C41	C	1.293810	-0.330600	0.174762
C42	C	1.359435	-0.268607	1.037245
C43	C	1.354038	-0.273699	1.131147
C44	C	1.238974	-0.382412	1.124469
C45	C	1.244371	-0.377320	1.030566
C46	C	1.304605	-0.320416	0.986958
C47	C	1.310006	-0.315329	0.893054
C48	C	1.194938	-0.424037	0.886377
C49	C	1.189541	-0.429129	0.980279
H50	H	0.938057	-0.453337	0.383991
H51	H	1.140499	-0.475456	1.015798
O52	O	0.933172	-0.269958	0.602466
C53	C	1.074942	-0.220013	0.661809
C54	C	1.026846	-0.275704	0.595469
H55	H	1.150686	-0.224627	0.656161
H56	H	1.052398	-0.239096	0.733247
H57	H	1.057343	-0.155035	0.645086
H58	H	1.044422	-0.340698	0.612109
H59	H	1.049394	-0.256553	0.524050
O60	O	0.603862	-0.237262	0.641264
C61	C	0.572617	-0.103946	0.683492
C62	C	0.627839	-0.154672	0.623101
H63	H	0.591968	-0.037163	0.668815
H64	H	0.586943	-0.121175	0.757046
H65	H	0.498001	-0.115954	0.669278
H66	H	0.702471	-0.142692	0.637235
H67	H	0.613437	-0.137435	0.549565
H68	H	0.782033	-0.236340	0.642492
H69	H	1.408484	-0.222278	1.001738
O70	O	1.368533	-0.259985	0.850831
C71	C	1.482122	-0.152722	0.867372
C72	C	1.415867	-0.215353	0.915300
H73	H	1.520423	-0.116632	0.919474
H74	H	1.443428	-0.110126	0.821057
H75	H	1.531613	-0.185088	0.826096
H76	H	1.366361	-0.183055	0.956624
H77	H	1.454620	-0.257946	0.961561
H78	H	1.150293	-0.466226	0.845424
H79	H	1.398684	-0.231509	1.172087
O80	O	1.180531	-0.437649	1.166981
C81	C	1.121156	-0.493603	1.308685
C82	C	1.187404	-0.431030	1.260656
H83	H	1.126677	-0.488262	1.384428
H84	H	1.137955	-0.556884	1.291205
H85	H	1.049739	-0.481951	1.285967
H86	H	1.258844	-0.442607	1.283348
H87	H	1.170528	-0.367770	1.278136
H88	H	0.623561	-0.420117	0.423656
H89	H	0.767698	-0.461628	0.374175
