data_functionalizedCrystal
_audit_creation_method	'MofGen! by Chris Wilmer'
_symmetry_space_group_name_H-M	'P1'
_symmetry_Int_Tables_number	1
_symmetry_cell_setting	triclinic
loop_
_symmetry_equiv_pos_as_xyz
  x,y,z
_cell_length_a	19.188923
_cell_length_b	17.666332
_cell_length_c	19.188924
_cell_angle_alpha	90.008552
_cell_angle_beta	96.858228
_cell_angle_gamma	89.988569
loop_
_atom_site_label
_atom_site_type_symbol
_atom_site_fract_x
_atom_site_fract_y
_atom_site_fract_z
O1	O	-0.926151	0.062988	0.087143
O2	O	-0.722839	0.062982	0.098883
O3	O	-0.830364	0.062976	-0.008643
O4	O	-0.818625	0.062994	0.194669
O5	O	-0.830346	-0.062921	-0.008649
O6	O	-0.722820	-0.062915	0.098877
O7	O	-0.926132	-0.062909	0.087137
Cu8	Cu	-0.824474	-0.074407	0.093007
Cu9	Cu	-0.824496	0.074480	0.093014
O10	O	-0.818606	-0.062903	0.194664
C11	C	-0.696818	0.000033	0.098501
C12	C	-0.619313	0.000030	0.097362
N13	N	-0.824464	-0.179127	0.093002
C14	C	-0.057541	0.000025	0.152831
C15	C	-0.130364	0.000030	0.153907
C16	C	-0.175300	0.000024	0.090815
C17	C	-0.147408	0.000032	0.026641
C18	C	-0.074586	0.000034	0.025567
N19	N	-0.295972	-0.042833	0.045135
N20	N	-0.365150	-0.042836	0.046160
C21	C	-0.394710	0.000021	0.094047
N22	N	-0.352478	0.042872	0.140881
N23	N	-0.283294	0.042872	0.139858
C24	C	-0.254265	0.000023	0.091972
C25	C	-0.501557	0.000024	0.159383
C26	C	-0.574382	0.000035	0.160456
C27	C	-0.591425	0.000029	0.033188
C28	C	-0.518601	0.000026	0.032116
C29	C	-0.473671	0.000020	0.095216
C30	C	-0.872091	-0.218739	0.045412
C31	C	-0.872096	-0.297987	0.045409
C32	C	-0.824478	-0.337619	0.093007
C33	C	-0.776842	-0.297997	0.140600
C34	C	-0.776834	-0.218751	0.140597
N35	N	-0.815401	-0.462032	0.154815
N36	N	-0.815412	-0.537313	0.154815
C37	C	-0.824497	-0.576383	0.093017
N38	N	-0.833584	-0.537329	0.031216
N39	N	-0.833576	-0.462041	0.031216
C40	C	-0.824481	-0.423548	0.093015
C41	C	-0.872132	-0.701924	0.045420
C42	C	-0.872131	-0.781174	0.045415
C43	C	-0.776880	-0.781182	0.140613
C44	C	-0.776878	-0.701935	0.140611
C45	C	-0.824507	-0.662311	0.093015
C46	C	0.047848	0.000037	0.087522
C47	C	-0.029656	0.000028	0.088666
C48	C	-0.829976	0.000027	-0.034657
C49	C	-0.828837	0.000025	-0.112162
N50	N	-0.824512	0.179200	0.093013
C51	C	-0.828316	0.068651	-0.148558
C52	C	-0.827236	0.068657	-0.221380
C53	C	-0.826691	0.000033	-0.257806
C54	C	-0.827208	-0.068603	-0.221401
C55	C	-0.828281	-0.068607	-0.148579
N56	N	-0.864731	-0.051042	-0.377473
N57	N	-0.863714	-0.051034	-0.446651
C58	C	-0.823457	0.000040	-0.477215
N59	N	-0.784265	0.051116	-0.435989
N60	N	-0.785286	0.051110	-0.366805
C61	C	-0.825527	0.000029	-0.336770
C62	C	-0.821764	0.068677	-0.592574
C63	C	-0.820679	0.068680	-0.665397
C64	C	-0.820659	-0.068582	-0.665417
C65	C	-0.821737	-0.068583	-0.592594
C66	C	-0.822292	0.000049	-0.556177
C67	C	-0.818995	0.000048	0.220677
C68	C	-0.820134	0.000055	0.298182
H69	H	-0.020963	0.000024	0.204212
H70	H	-0.910872	-0.186479	0.006656
C71	C	-0.724466	-0.341589	0.192958
H72	H	-0.731297	-0.394459	0.186149
H73	H	-0.677893	-0.328621	0.185492
H74	H	-0.731906	-0.328587	0.239540
C75	C	-0.828856	-0.144097	-0.108539
H76	H	-0.829570	-0.134270	-0.059952
H77	H	-0.869380	-0.172298	-0.125929
H78	H	-0.787962	-0.172291	-0.115024
C79	C	-0.924513	-0.658335	-0.006939
H80	H	-0.952873	-0.693280	-0.035291
H81	H	-0.953496	-0.627407	0.018102
H82	H	-0.899481	-0.627435	-0.035943
H83	H	-0.153073	0.000020	0.206160
H84	H	-0.495897	0.000025	-0.020134
H85	H	-0.826763	-0.124478	-0.251064
H86	H	-0.910881	-0.330245	0.006654
H87	H	-0.464973	0.000021	0.210762
C88	C	-0.724447	-0.175176	0.192953
H89	H	-0.696089	-0.210126	0.221304
H90	H	-0.695462	-0.144272	0.167910
H91	H	-0.749475	-0.144252	0.221957
H92	H	-0.822212	0.124561	-0.562921
H93	H	-0.183999	0.000030	-0.024729
H94	H	-0.826807	0.124543	-0.251019
H95	H	-0.910913	-0.813426	0.006659
C96	C	-0.828914	0.144143	-0.108501
H97	H	-0.828442	0.185016	-0.140610
H98	H	-0.870037	0.147000	-0.085539
H99	H	-0.788619	0.146992	-0.074645
H100	H	-0.051884	0.000037	-0.026685
C101	C	-0.605055	0.000029	0.231041
H102	H	-0.567865	0.000018	0.268464
H103	H	-0.633116	0.043931	0.234115
H104	H	-0.633101	-0.043880	0.234095
H105	H	-0.738107	-0.813450	0.179365
C106	C	-0.724494	-0.658359	0.192967
H107	H	-0.696139	-0.693310	0.221319
H108	H	-0.695507	-0.627458	0.167925
H109	H	-0.749522	-0.627434	0.221970
H110	H	-0.820252	0.124566	-0.695029
H111	H	-0.820211	-0.124458	-0.695074
C112	C	-0.822322	-0.144073	-0.552559
H113	H	-0.821849	-0.184944	-0.584681
H114	H	-0.782035	-0.146931	-0.518698
H115	H	-0.863453	-0.146923	-0.529606
H116	H	-0.628011	0.000030	-0.018183
