data_functionalizedCrystal
_audit_creation_method	'MofGen! by Chris Wilmer'
_symmetry_space_group_name_H-M	'P1'
_symmetry_Int_Tables_number	1
_symmetry_cell_setting	triclinic
loop_
_symmetry_equiv_pos_as_xyz
  x,y,z
_cell_length_a	18.215407
_cell_length_b	19.121611
_cell_length_c	19.120904
_cell_angle_alpha	94.953252
_cell_angle_beta	87.574329
_cell_angle_gamma	92.404447
loop_
_atom_site_label
_atom_site_type_symbol
_atom_site_fract_x
_atom_site_fract_y
_atom_site_fract_z
Zn1	Zn	1.119946	0.297135	0.409745
Zn2	Zn	1.369946	0.547135	0.659745
Zn3	Zn	1.619946	0.797135	0.909745
Zn4	Zn	1.869946	1.047135	1.159745
Zn5	Zn	1.129903	0.409774	0.297105
Zn6	Zn	1.379903	0.659774	0.547105
Zn7	Zn	1.629903	0.909774	0.797105
Zn8	Zn	1.879903	1.159774	1.047105
Zn9	Zn	1.001921	0.292131	0.292103
Zn10	Zn	1.251921	0.542131	0.542103
Zn11	Zn	1.501921	0.792131	0.792103
Zn12	Zn	1.751921	1.042131	1.042103
Zn13	Zn	1.001850	0.414749	0.414732
Zn14	Zn	1.251850	0.664749	0.664732
Zn15	Zn	1.501850	0.914749	0.914732
Zn16	Zn	1.751850	1.164749	1.164732
O17	O	1.063405	0.353447	0.353421
O18	O	1.313405	0.603447	0.603421
O19	O	1.563405	0.853447	0.853421
O20	O	1.813405	1.103447	1.103421
O21	O	1.224251	0.312089	0.394810
O22	O	1.474251	0.562089	0.644810
O23	O	1.724251	0.812089	0.894810
O24	O	1.974251	1.062089	1.144810
O25	O	1.117123	0.389993	0.197981
O26	O	1.367123	0.639993	0.447981
O27	O	1.617123	0.889993	0.697981
O28	O	1.867123	1.139993	0.947981
O29	O	1.013439	0.194339	0.303528
O30	O	1.263439	0.444339	0.553528
O31	O	1.513439	0.694339	0.803528
O32	O	1.763439	0.944339	1.053528
O33	O	1.231567	0.394844	0.312054
O34	O	1.481567	0.644844	0.562054
O35	O	1.731567	0.894844	0.812054
O36	O	1.981567	1.144844	1.062054
O37	O	1.100151	0.198015	0.389960
O38	O	1.350151	0.448015	0.639960
O39	O	1.600151	0.698015	0.889960
O40	O	1.850151	0.948015	1.139960
O41	O	1.023095	0.303561	0.194306
O42	O	1.273095	0.553561	0.444306
O43	O	1.523095	0.803561	0.694306
O44	O	1.773095	1.053561	0.944306
O45	O	0.898927	0.308384	0.308364
O46	O	1.148927	0.558384	0.558364
O47	O	1.398927	0.808384	0.808364
O48	O	1.648927	1.058384	1.058364
O49	O	1.013319	0.403323	0.512531
O50	O	1.263319	0.653323	0.762531
O51	O	1.513319	0.903323	1.012531
O52	O	1.763319	1.153323	1.262531
O53	O	0.898875	0.398471	0.398458
O54	O	1.148875	0.648471	0.648458
O55	O	1.398875	0.898471	0.898458
O56	O	1.648875	1.148471	1.148458
O57	O	1.100083	0.316912	0.508868
O58	O	1.350083	0.566912	0.758868
O59	O	1.600083	0.816912	1.008868
O60	O	1.850083	1.066912	1.258868
O61	O	1.117055	0.508890	0.316889
O62	O	1.367055	0.758890	0.566889
O63	O	1.617055	1.008890	0.816889
O64	O	1.867055	1.258890	1.066889
O65	O	1.022975	0.512545	0.403309
O66	O	1.272975	0.762545	0.653309
O67	O	1.522975	1.012545	0.903309
O68	O	1.772975	1.262545	1.153309
C69	C	0.872198	0.353425	0.353410
C70	C	1.122198	0.603425	0.603410
C71	C	1.372198	0.853425	0.853410
C72	C	1.622198	1.103425	1.103410
C73	C	0.790399	0.353433	0.353422
C74	C	1.040399	0.603433	0.603422
C75	C	1.290399	0.853433	0.853422
C76	C	1.540399	1.103433	1.103422
C77	C	0.525340	0.400426	0.400275
C78	C	0.775340	0.650426	0.650275
C79	C	1.025340	0.900426	0.900275
C80	C	1.275340	1.150426	1.150275
C81	C	0.602199	0.400420	0.400272
C82	C	0.852199	0.650420	0.650272
C83	C	1.102199	0.900420	0.900272
C84	C	1.352199	1.150420	1.150272
C85	C	0.602211	0.306484	0.306581
C86	C	0.852211	0.556484	0.556581
C87	C	1.102211	0.806484	0.806581
C88	C	1.352211	1.056484	1.056581
C89	C	0.525354	0.306494	0.306582
C90	C	0.775354	0.556494	0.556582
C91	C	1.025354	0.806494	0.806582
C92	C	1.275354	1.056494	1.056582
C93	C	0.486920	0.353465	0.353433
C94	C	0.736920	0.603465	0.603433
C95	C	0.986920	0.853465	0.853433
C96	C	1.236920	1.103465	1.103433
C97	C	0.640636	0.353448	0.353428
C98	C	0.890636	0.603448	0.603428
C99	C	1.140636	0.853448	0.853428
C100	C	1.390636	1.103448	1.103428
C101	C	0.723970	0.353441	0.353424
C102	C	0.973970	0.603441	0.603424
C103	C	1.223970	0.853441	0.853424
C104	C	1.473970	1.103441	1.103424
C105	C	0.403582	0.353473	0.353436
C106	C	0.653582	0.603473	0.603436
C107	C	0.903582	0.853473	0.853436
C108	C	1.153582	1.103473	1.103436
C109	C	1.071107	0.536246	0.361198
C110	C	1.321107	0.786246	0.611198
C111	C	1.571107	1.036246	0.861198
C112	C	1.821107	1.286246	1.111198
C113	C	1.074468	0.614450	0.364549
C114	C	1.324468	0.864450	0.614549
C115	C	1.574468	1.114450	0.864549
C116	C	1.824468	1.364450	1.114549
C117	C	1.030945	0.649337	0.321093
C118	C	1.280945	0.899337	0.571093
C119	C	1.530945	1.149337	0.821093
C120	C	1.780945	1.399337	1.071093
C121	C	1.034110	0.722818	0.324244
C122	C	1.284110	0.972818	0.574244
C123	C	1.534110	1.222818	0.824244
C124	C	1.784110	1.472818	1.074244
C125	C	1.080796	0.761409	0.370855
C126	C	1.330796	1.011409	0.620855
C127	C	1.580796	1.261409	0.870855
C128	C	1.830796	1.511409	1.120855
C129	C	1.124324	0.726517	0.414312
C130	C	1.374324	0.976517	0.664312
C131	C	1.624324	1.226517	0.914312
C132	C	1.874324	1.476517	1.164312
C133	C	1.121162	0.653038	0.411157
C134	C	1.371162	0.903038	0.661157
C135	C	1.621162	1.153038	0.911157
C136	C	1.871162	1.403038	1.161157
C137	C	1.092603	0.983362	0.382631
C138	C	1.342603	1.233362	0.632631
C139	C	1.592603	1.483362	0.882631
C140	C	1.842603	1.733362	1.132631
C141	C	1.095761	1.056846	0.385784
C142	C	1.345761	1.306846	0.635784
C143	C	1.595761	1.556846	0.885784
C144	C	1.845761	1.806846	1.135784
C145	C	1.005548	1.053142	0.295715
C146	C	1.255548	1.303142	0.545715
C147	C	1.505548	1.553142	0.795715
C148	C	1.755548	1.803142	1.045715
C149	C	1.002386	0.979661	0.292567
C150	C	1.252386	1.229661	0.542567
C151	C	1.502386	1.479661	0.792567
C152	C	1.752386	1.729661	1.042567
C153	C	1.045917	0.944775	0.336022
C154	C	1.295917	1.194775	0.586022
C155	C	1.545917	1.444775	0.836022
C156	C	1.795917	1.694775	1.086022
C157	C	1.084031	0.836518	0.374078
C158	C	1.334031	1.086518	0.624078
C159	C	1.584031	1.336518	0.874078
C160	C	1.834031	1.586518	1.124078
C161	C	1.042686	0.869667	0.332794
C162	C	1.292686	1.119667	0.582794
C163	C	1.542686	1.369667	0.832794
C164	C	1.792686	1.619667	1.082794
C165	C	1.255358	0.353470	0.353434
C166	C	1.505358	0.603470	0.603434
C167	C	1.755358	0.853470	0.853434
C168	C	2.005358	1.103470	1.103434
C169	C	1.337157	0.353479	0.353439
C170	C	1.587157	0.603479	0.603439
C171	C	1.837157	0.853479	0.853439
C172	C	2.087157	1.103479	1.103439
C173	C	1.055583	0.361231	0.536943
C174	C	1.305583	0.611231	0.786943
C175	C	1.555583	0.861231	1.036943
C176	C	1.805583	1.111231	1.286943
C177	C	1.052249	0.364548	0.615149
C178	C	1.302249	0.614548	0.865149
C179	C	1.552249	0.864548	1.115149
C180	C	1.802249	1.114548	1.365149
C181	C	1.055650	1.169935	0.345635
C182	C	1.305650	1.419935	0.595635
C183	C	1.555650	1.669935	0.845635
C184	C	1.805650	1.919935	1.095635
C185	C	1.052237	1.091734	0.342329
C186	C	1.302237	1.341734	0.592329
C187	C	1.552237	1.591734	0.842329
C188	C	1.802237	1.841734	1.092329
C189	C	1.071237	0.345643	0.170612
C190	C	1.321237	0.595643	0.420612
C191	C	1.571237	0.845643	0.670612
C192	C	1.821237	1.095643	0.920612
C193	C	1.074705	0.342128	0.092398
C194	C	1.324705	0.592128	0.342398
C195	C	1.574705	0.842128	0.592398
C196	C	1.824705	1.092128	0.842398
C197	C	1.095854	0.321119	0.649984
C198	C	1.345854	0.571119	0.899984
C199	C	1.595854	0.821119	1.149984
C200	C	1.845854	1.071119	1.399984
C201	C	1.092713	0.324233	0.723467
C202	C	1.342713	0.574233	0.973467
C203	C	1.592713	0.824233	1.223467
C204	C	1.842713	1.074233	1.473467
C205	C	1.045970	0.370779	0.762114
C206	C	1.295970	0.620779	1.012114
C207	C	1.545970	0.870779	1.262114
C208	C	1.795970	1.120779	1.512114
C209	C	1.002360	0.414210	0.727273
C210	C	1.252360	0.664210	0.977273
C211	C	1.502360	0.914210	1.227273
C212	C	1.752360	1.164210	1.477273
C213	C	1.005498	0.411092	0.653792
C214	C	1.255498	0.661092	0.903792
C215	C	1.505498	0.911092	1.153792
C216	C	1.755498	1.161092	1.403792
C217	C	1.034232	0.382441	0.984076
C218	C	1.284232	0.632441	1.234076
C219	C	1.534232	0.882441	1.484076
C220	C	1.784232	1.132441	1.734076
C221	C	1.031100	0.385557	1.057562
C222	C	1.281100	0.635557	1.307562
C223	C	1.531100	0.885557	1.557562
C224	C	1.781100	1.135557	1.807562
C225	C	1.121452	0.295578	1.053751
C226	C	1.371452	0.545578	1.303751
C227	C	1.621452	0.795578	1.553751
C228	C	1.871452	1.045578	1.803751
C229	C	1.124589	0.292467	0.980268
C230	C	1.374589	0.542467	1.230268
C231	C	1.624589	0.792467	1.480268
C232	C	1.874589	1.042467	1.730268
C233	C	1.080976	0.335895	0.945434
C234	C	1.330976	0.585895	1.195434
C235	C	1.580976	0.835895	1.445434
C236	C	1.830976	1.085895	1.695434
C237	C	1.042760	0.373965	0.837225
C238	C	1.292760	0.623965	1.087225
C239	C	1.542760	0.873965	1.337225
C240	C	1.792760	1.123965	1.587225
C241	C	1.084183	0.332706	0.870324
C242	C	1.334183	0.582706	1.120324
C243	C	1.584183	0.832706	1.370324
C244	C	1.834183	1.082706	1.620324
H245	H	0.998670	0.751220	0.288857
H246	H	1.248670	1.001220	0.538857
H247	H	1.498670	1.251220	0.788857
H248	H	1.748670	1.501220	1.038857
H249	H	0.964371	0.948241	0.254614
H250	H	1.214371	1.198241	0.504614
H251	H	1.464371	1.448241	0.754614
H252	H	1.714371	1.698241	1.004614
O253	O	0.992334	0.828050	0.282519
O254	O	1.242334	1.078050	0.532519
O255	O	1.492334	1.328050	0.782519
O256	O	1.742334	1.578050	1.032519
H257	H	0.952084	0.795927	0.312546
H258	H	1.202084	1.045927	0.562546
H259	H	1.452084	1.295927	0.812546
H260	H	1.702084	1.545927	1.062546
O261	O	1.139747	0.277392	0.761038
O262	O	1.389747	0.527392	1.011038
O263	O	1.639747	0.777392	1.261038
O264	O	1.889747	1.027392	1.511038
H265	H	1.177076	0.310309	0.795863
H266	H	1.427076	0.560309	1.045863
H267	H	1.677076	0.810309	1.295863
H268	H	1.927076	1.060309	1.545863
H269	H	0.964298	0.452107	0.758745
H270	H	1.214298	0.702107	1.008745
H271	H	1.464298	0.952107	1.258745
H272	H	1.714298	1.202107	1.508745
O273	O	1.139571	0.945737	0.429480
O274	O	1.389571	1.195737	0.679480
O275	O	1.639571	1.445737	0.929480
O276	O	1.889571	1.695737	1.179480
H277	H	1.172566	0.984919	0.462417
H278	H	1.422566	1.234919	0.712417
H279	H	1.672566	1.484919	0.962417
H280	H	1.922566	1.734919	1.212417
O281	O	0.958457	0.457923	0.616213
O282	O	1.208457	0.707923	0.866213
O283	O	1.458457	0.957923	1.116213
O284	O	1.708457	1.207923	1.366213
H285	H	0.925427	0.490815	0.655430
H286	H	1.175427	0.740815	0.905430
H287	H	1.425427	0.990815	1.155430
H288	H	1.675427	1.240815	1.405430
O289	O	0.643664	0.255825	0.256050
O290	O	0.893664	0.505825	0.506050
O291	O	1.143664	0.755825	0.756050
O292	O	1.393664	1.005825	1.006050
H293	H	0.626055	0.201141	0.265849
H294	H	0.876055	0.451141	0.515849
H295	H	1.126055	0.701141	0.765849
H296	H	1.376055	0.951141	1.015849
H297	H	1.133920	0.283217	0.618524
H298	H	1.383920	0.533217	0.868524
H299	H	1.633920	0.783217	1.118524
H300	H	1.883920	1.033217	1.368524
O301	O	0.643640	0.451064	0.450802
O302	O	0.893640	0.701064	0.700802
O303	O	1.143640	0.951064	0.950802
O304	O	1.393640	1.201064	1.200802
H305	H	0.631737	0.505754	0.441008
H306	H	0.881737	0.755754	0.691008
H307	H	1.131737	1.005754	0.941008
H308	H	1.381737	1.255754	1.191008
O309	O	0.483906	0.255838	0.256059
O310	O	0.733906	0.505838	0.506059
O311	O	0.983906	0.755838	0.756059
O312	O	1.233906	1.005838	1.006059
H313	H	0.523541	0.223167	0.223488
H314	H	0.773541	0.473167	0.473488
H315	H	1.023541	0.723167	0.723488
H316	H	1.273541	0.973167	0.973488
O317	O	0.483888	0.451137	0.450752
O318	O	0.733888	0.701137	0.700752
O319	O	0.983888	0.951137	0.950752
O320	O	1.233888	1.201137	1.200752
H321	H	0.523521	0.483813	0.483302
H322	H	0.773521	0.733813	0.733302
H323	H	1.023521	0.983813	0.983302
H324	H	1.273521	1.233813	1.233302
O325	O	0.980669	0.435755	1.099244
O326	O	1.230669	0.685755	1.349244
O327	O	1.480669	0.935755	1.599244
O328	O	1.730669	1.185755	1.849244
H329	H	0.985820	0.430629	1.156192
H330	H	1.235820	0.680629	1.406192
H331	H	1.485820	0.930629	1.656192
H332	H	1.735820	1.180629	1.906192
O333	O	0.980596	0.607714	0.270816
O334	O	1.230596	0.857714	0.520816
O335	O	1.480596	1.107714	0.770816
O336	O	1.730596	1.357714	1.020816
H337	H	0.950871	0.644321	0.241122
H338	H	1.200871	0.894321	0.491122
H339	H	1.450871	1.144321	0.741122
H340	H	1.700871	1.394321	0.991122
H341	H	0.970108	1.081554	0.260337
H342	H	1.220108	1.331554	0.510337
H343	H	1.470108	1.581554	0.760337
H344	H	1.720108	1.831554	1.010337
H345	H	1.133767	1.088266	0.423753
H346	H	1.383767	1.338266	0.673753
H347	H	1.633767	1.588266	0.923753
H348	H	1.883767	1.838266	1.173753
O349	O	1.175007	0.242266	0.938585
O350	O	1.425007	0.492266	1.188585
O351	O	1.675007	0.742266	1.438585
O352	O	1.925007	0.992266	1.688585
H353	H	1.204800	0.212588	0.975154
H354	H	1.454800	0.462588	1.225154
H355	H	1.704800	0.712588	1.475154
H356	H	1.954800	0.962588	1.725154
O357	O	1.174673	0.768136	0.464593
O358	O	1.424673	1.018136	0.714593
O359	O	1.674673	1.268136	0.964593
O360	O	1.924673	1.518136	1.214593
H361	H	1.169553	0.825093	0.459495
H362	H	1.419553	1.075093	0.709495
H363	H	1.669553	1.325093	0.959495
H364	H	1.919553	1.575093	1.209495
O365	O	1.168108	0.615403	0.458022
O366	O	1.418108	0.865403	0.708022
O367	O	1.668108	1.115403	0.958022
O368	O	1.918108	1.365403	1.208022
H369	H	1.201101	0.654581	0.490966
H370	H	1.451101	0.904581	0.740966
H371	H	1.701101	1.154581	0.990966
H372	H	1.951101	1.404581	1.240966
H373	H	1.122041	0.867948	0.412030
H374	H	1.372041	1.117948	0.662030
H375	H	1.622041	1.367948	0.912030
H376	H	1.872041	1.617948	1.162030
H377	H	0.998731	0.417814	0.955723
H378	H	1.248731	0.667814	1.205723
H379	H	1.498731	0.917814	1.455723
H380	H	1.748731	1.167814	1.705723
H381	H	1.156958	0.260221	1.082121
H382	H	1.406958	0.510221	1.332121
H383	H	1.656958	0.760221	1.582121
H384	H	1.906958	1.010221	1.832121
O385	O	1.134604	0.282509	0.828644
O386	O	1.384604	0.532509	1.078644
O387	O	1.634604	0.782509	1.328644
O388	O	1.884604	1.032509	1.578644
H389	H	1.101594	0.245292	0.793636
H390	H	1.351594	0.495292	1.043636
H391	H	1.601594	0.745292	1.293636
H392	H	1.851594	0.995292	1.543636
O393	O	0.992343	0.424166	0.878910
O394	O	1.242343	0.674166	1.128910
O395	O	1.492343	0.924166	1.378910
O396	O	1.742343	1.174166	1.628910
H397	H	1.025356	0.461386	0.913912
H398	H	1.275356	0.711386	1.163912
H399	H	1.525356	0.961386	1.413912
H400	H	1.775356	1.211386	1.663912
