data_functionalizedCrystal
_audit_creation_method	'MofGen! by Chris Wilmer'
_symmetry_space_group_name_H-M	'P1'
_symmetry_Int_Tables_number	1
_symmetry_cell_setting	triclinic
loop_
_symmetry_equiv_pos_as_xyz
  x,y,z
_cell_length_a	33.428889
_cell_length_b	33.428139
_cell_length_c	33.424847
_cell_angle_alpha	60.004234
_cell_angle_beta	60.008465
_cell_angle_gamma	59.994972
loop_
_atom_site_label
_atom_site_type_symbol
_atom_site_fract_x
_atom_site_fract_y
_atom_site_fract_z
O1	O	0.055565	-0.584504	0.488714
O2	O	0.020982	-0.455083	0.393778
O3	O	0.102943	-0.536959	0.393689
O4	O	-0.026396	-0.502628	0.488803
O5	O	0.130140	-0.509767	0.420792
O6	O	0.048179	-0.427891	0.420881
O7	O	0.082762	-0.557312	0.515817
Cu8	Cu	0.067954	-0.490119	0.470823
Cu9	Cu	0.035790	-0.522276	0.438771
O10	O	0.000801	-0.475436	0.515906
N11	N	0.090577	-0.467504	0.493370
N12	N	0.013171	-0.544895	0.416225
C13	C	0.143377	-0.280390	0.546067
C14	C	0.143515	-0.414755	0.680369
C15	C	0.143392	-0.414735	0.546069
C16	C	0.277766	-0.414702	0.545966
C17	C	0.158177	-0.324719	0.560828
C18	C	0.158255	-0.399967	0.636038
C19	C	0.233434	-0.399936	0.560773
C20	C	0.158186	-0.399955	0.560829
C21	C	0.124540	-0.223964	0.527278
C22	C	0.124565	-0.433545	0.527281
C23	C	0.177014	-0.381145	0.579617
C24	C	0.359814	-0.400540	0.502735
C25	C	0.411105	-0.417624	0.485606
C26	C	0.411136	-0.500620	0.517255
C27	C	0.359845	-0.483534	0.534385
C28	C	0.136887	-0.198305	0.476855
C29	C	0.119761	-0.147011	0.459777
C30	C	0.077945	-0.147038	0.543547
C31	C	0.095072	-0.198332	0.560625
C32	C	0.074134	-0.421169	0.539710
C33	C	0.057023	-0.438269	0.522625
C34	C	0.140770	-0.480120	0.480694
C35	C	0.157883	-0.463020	0.497773
C36	C	0.074339	-0.421208	0.762475
C37	C	0.057288	-0.438323	0.813768
C38	C	0.141075	-0.480183	0.813699
C39	C	0.158125	-0.463069	0.762404
C40	C	0.124756	-0.433580	0.736794
C41	C	0.334186	-0.433494	0.527123
C42	C	-0.173769	-0.597444	0.363037
C43	C	-0.039302	-0.597595	0.228856
C44	C	-0.039496	-0.597587	0.363300
C45	C	-0.039512	-0.731889	0.363237
C46	C	-0.129442	-0.612265	0.348329
C47	C	-0.054138	-0.612351	0.273187
C48	C	-0.054257	-0.687554	0.348440
C49	C	-0.054247	-0.612346	0.348477
C50	C	-0.230191	-0.578579	0.381758
C51	C	-0.020722	-0.578803	0.382168
C52	C	-0.073020	-0.631130	0.329609
C53	C	-0.053713	-0.813916	0.406386
C54	C	-0.036654	-0.865210	0.423504
C55	C	0.046338	-0.865293	0.391984
C56	C	0.029278	-0.813999	0.374865
C57	C	-0.255900	-0.590938	0.432169
C58	C	-0.307191	-0.573786	0.449185
C59	C	-0.307060	-0.531922	0.365377
C60	C	-0.255769	-0.549074	0.348360
C61	C	-0.033081	-0.528377	0.369764
C62	C	-0.016014	-0.511306	0.386922
C63	C	0.025770	-0.595083	0.428877
C64	C	0.008703	-0.612156	0.411725
C65	C	-0.032755	-0.528393	0.146761
C66	C	-0.015585	-0.511324	0.095468
C67	C	0.026262	-0.595106	0.095516
C68	C	0.009094	-0.612174	0.146811
C69	C	-0.020417	-0.578816	0.172432
C70	C	-0.020748	-0.788312	0.382068
N71	N	0.436037	-0.467415	0.493101
O72	O	0.592642	-0.471896	0.376066
O73	O	0.592838	-0.567146	0.505347
O74	O	0.592754	-0.566928	0.423360
O75	O	0.592727	-0.472113	0.458053
O76	O	0.511269	-0.539835	0.450606
O77	O	0.511353	-0.540052	0.532594
O78	O	0.511157	-0.444802	0.403312
Cu79	Cu	0.503815	-0.489954	0.470441
Cu80	Cu	0.600180	-0.521995	0.438219
O81	O	0.511242	-0.445020	0.485300
N82	N	0.667959	-0.544533	0.415554
N83	N	0.090544	-0.122107	0.493359
O84	O	-0.026406	0.034587	0.488773
O85	O	0.102877	0.034627	0.393499
O86	O	0.020848	0.034591	0.393771
O87	O	0.055623	0.034623	0.488500
O88	O	0.048051	-0.046899	0.420925
O89	O	0.130080	-0.046864	0.420653
O90	O	0.000796	-0.046903	0.515927
Cu91	Cu	0.067922	-0.054324	0.470769
Cu92	Cu	0.035752	0.042048	0.438656
O93	O	0.082825	-0.046867	0.515655
N94	N	0.013123	0.109830	0.416068
N95	N	0.090892	-0.467554	0.838649
O96	O	0.086330	-0.584488	0.995334
O97	O	-0.008902	-0.455160	0.995379
O98	O	-0.008679	-0.537172	0.995355
O99	O	0.086107	-0.502475	0.995358
O100	O	0.018452	-0.509990	0.913868
O101	O	0.018230	-0.427978	0.913891
O102	O	0.113461	-0.557306	0.913847
Cu103	Cu	0.068323	-0.490160	0.906429
Cu104	Cu	0.036237	-0.522306	1.002797
O105	O	0.113239	-0.475293	0.913870
N106	N	0.013667	-0.544916	1.070577
C107	C	0.031339	-0.425179	0.394250
C108	C	0.132837	-0.526572	0.394139
C109	C	0.072405	-0.587216	0.515344
C110	C	-0.029093	-0.485823	0.515455
C111	C	0.552119	-0.566716	0.535258
C112	C	0.552016	-0.566447	0.433726
C113	C	0.551873	-0.445232	0.373402
C114	C	0.551980	-0.445502	0.474933
C115	C	0.132731	-0.006013	0.393923
C116	C	0.031182	-0.006158	0.394293
C117	C	-0.029092	-0.006163	0.515469
C118	C	0.072491	-0.006119	0.515133
C119	C	-0.008451	-0.425276	0.954641
C120	C	-0.008170	-0.526833	0.954596
C121	C	0.113010	-0.587190	0.954585
C122	C	0.112735	-0.485627	0.954611
H123	H	0.016234	-0.428240	0.834672
O124	O	0.081464	-0.006140	0.550596
C125	C	0.129621	-0.006114	0.532722
H126	H	0.152782	-0.021531	0.501264
H127	H	0.146135	-0.029774	0.563392
H128	H	0.128888	0.032985	0.519057
O129	O	0.176952	-0.005705	0.358196
C130	C	0.207436	-0.005608	0.375780
H131	H	0.183876	0.009655	0.407348
H132	H	0.230711	0.018247	0.345006
H133	H	0.232372	-0.044648	0.389203
H134	H	-0.066220	-0.006175	0.545378
O135	O	-0.073430	-0.477151	0.551074
C136	C	-0.095147	-0.510812	0.564283
H137	H	-0.078947	-0.525106	0.532852
H138	H	-0.136371	-0.491802	0.572345
H139	H	-0.087685	-0.542747	0.598330
O140	O	0.551867	-0.409537	0.329107
C141	C	0.594048	-0.396348	0.307378
H142	H	0.608159	-0.406270	0.337065
H143	H	0.584505	-0.355216	0.286881
H144	H	0.623588	-0.416893	0.280619
H145	H	-0.038348	-0.388133	0.954654
O146	O	-0.043621	-0.535745	0.954532
C147	C	-0.025771	-0.583909	0.954516
H148	H	0.015963	-0.596807	0.939106
H149	H	-0.040672	-0.584600	0.930829
H150	H	-0.038170	-0.609266	0.993599
O151	O	0.148620	-0.631533	0.954588
C152	C	0.130990	-0.662020	0.954566
H153	H	0.089256	-0.648755	0.970004
H154	H	0.146025	-0.701273	0.978210
H155	H	0.143430	-0.660685	0.915468
H156	H	0.169984	-0.533889	0.364272
O157	O	0.552205	-0.602345	0.579573
C158	C	0.552210	-0.584698	0.610063
H159	H	0.567596	-0.553223	0.586500
H160	H	0.575911	-0.615479	0.633505
H161	H	0.513128	-0.571122	0.634837
H162	H	0.551974	-0.415718	0.482355
O163	O	0.148217	-0.476683	0.954583
C164	C	0.130364	-0.428523	0.954609
H165	H	0.098901	-0.405341	0.939195
H166	H	0.161042	-0.412035	0.930948
H167	H	0.116713	-0.429249	0.993706
O168	O	0.022437	-0.380808	0.358721
C169	C	-0.025709	-0.350420	0.376514
H170	H	-0.048920	-0.374069	0.407986
H171	H	-0.042173	-0.326932	0.345807
H172	H	-0.024967	-0.325686	0.390135
O173	O	0.081211	-0.631605	0.550874
C174	C	0.092728	-0.668506	0.534054
H175	H	0.076931	-0.651792	0.503619
H176	H	0.076348	-0.697836	0.565632
H177	H	0.134218	-0.685728	0.519308
O178	O	0.041856	-0.392582	0.737675
C179	C	-0.006300	-0.385321	0.771342
H180	H	-0.006170	-0.416254	0.807895
H181	H	-0.030674	-0.385054	0.756548
H182	H	-0.020995	-0.348785	0.776809
O183	O	0.552007	-0.601922	0.424800
C184	C	0.551959	-0.584075	0.376648
H185	H	0.536491	-0.542340	0.363776
H186	H	0.528307	-0.599016	0.375964
H187	H	0.591038	-0.596436	0.351267
H188	H	0.198948	-0.473094	0.487648
O189	O	0.022316	-0.006265	0.358830
C190	C	0.010791	-0.048479	0.375734
H191	H	0.026624	-0.077962	0.406153
H192	H	0.027130	-0.062658	0.344191
H193	H	-0.030700	-0.038953	0.390527
O194	O	0.173557	-0.508839	0.838501
C195	C	0.221713	-0.516079	0.804836
H196	H	0.221587	-0.510335	0.768281
H197	H	0.246087	-0.554981	0.819629
H198	H	0.236406	-0.488776	0.799375
H199	H	0.199181	-0.473148	0.741498
H200	H	0.047002	-0.397168	0.563734
H201	H	0.167905	-0.504126	0.456671
O202	O	0.008031	-0.426312	0.534781
C203	C	-0.013225	-0.443868	0.586160
H204	H	0.016008	-0.475499	0.602663
H205	H	-0.043456	-0.457199	0.595997
H206	H	-0.029417	-0.413105	0.601365
O207	O	0.335028	-0.515611	0.558048
C208	C	0.368679	-0.563442	0.560790
H209	H	0.405224	-0.561478	0.530477
H210	H	0.353854	-0.584501	0.556161
H211	H	0.374170	-0.583023	0.597950
H212	H	0.432025	-0.541365	0.523165
H213	H	0.338923	-0.359792	0.496821
O214	O	0.435928	-0.385544	0.461903
C215	C	0.402283	-0.337714	0.459176
H216	H	0.365711	-0.335723	0.462566
H217	H	0.417074	-0.310602	0.422511
H218	H	0.396857	-0.328139	0.490245
H219	H	0.129813	-0.126117	0.418717
O220	O	0.165438	-0.223180	0.444442
C221	C	0.139507	-0.210640	0.414809
H222	H	0.098478	-0.196555	0.434643
H223	H	0.148683	-0.244370	0.407052
H224	H	0.150393	-0.180854	0.378772
O225	O	0.049311	-0.122213	0.576006
C226	C	0.042104	-0.155861	0.624174
H227	H	0.047840	-0.192427	0.624082
H228	H	0.003215	-0.141058	0.648553
H229	H	0.069427	-0.161309	0.638839
H230	H	0.085016	-0.219221	0.601683
H231	H	-0.056788	-0.501226	0.167618
O232	O	-0.027644	-0.462325	0.070611
C233	C	-0.057364	-0.436548	0.104228
H234	H	-0.076056	-0.460986	0.140772
H235	H	-0.086348	-0.402300	0.089355
H236	H	-0.033723	-0.425512	0.109740
H237	H	0.050281	-0.622271	0.074658
O238	O	0.021021	-0.661163	0.171725
C239	C	0.003510	-0.682437	0.159127
H240	H	-0.028085	-0.653206	0.144964
H241	H	-0.009853	-0.712650	0.192846
H242	H	0.034308	-0.698658	0.129384
O243	O	-0.061739	-0.495956	0.341132
C244	C	-0.104764	-0.466260	0.366984
H245	H	-0.111952	-0.486056	0.408029
H246	H	-0.137046	-0.458472	0.357742
H247	H	-0.100087	-0.430241	0.356084
O248	O	-0.027924	-0.462335	0.374855
C249	C	0.015198	-0.450003	0.349102
H250	H	0.047387	-0.483835	0.358416
H251	H	0.010607	-0.420266	0.360031
H252	H	0.022470	-0.435936	0.308036
O253	O	0.054409	-0.627533	0.457528
C254	C	0.097447	-0.657216	0.431673
H255	H	0.090613	-0.657713	0.401778
H256	H	0.108221	-0.696112	0.458016
H257	H	0.128309	-0.641824	0.414318
O258	O	0.020687	-0.661151	0.423855
C259	C	0.003064	-0.682427	0.475226
H260	H	-0.001985	-0.658111	0.493196
H261	H	0.030518	-0.720173	0.487261
H262	H	-0.033592	-0.686201	0.486762
H263	H	0.087072	-0.886205	0.386121
O264	O	0.061358	-0.789185	0.351193
C265	C	0.096212	-0.801745	0.308926
H266	H	0.098612	-0.838977	0.313548
H267	H	0.133532	-0.803541	0.303387
H268	H	0.084676	-0.772874	0.275665
O269	O	-0.068744	-0.890009	0.447136
C270	C	-0.116556	-0.856339	0.449812
H271	H	-0.118547	-0.819783	0.446462
H272	H	-0.143700	-0.871129	0.486443
H273	H	-0.126084	-0.850880	0.418696
O274	O	-0.102288	-0.788902	0.413287
C275	C	-0.109183	-0.759245	0.367465
H276	H	-0.073890	-0.751606	0.338935
H277	H	-0.139963	-0.723152	0.370381
H278	H	-0.119272	-0.778994	0.356027
O279	O	-0.231130	-0.619575	0.464677
C280	C	-0.264822	-0.626810	0.512822
H281	H	-0.301362	-0.595856	0.512673
H282	H	-0.250043	-0.627092	0.537220
H283	H	-0.270304	-0.663332	0.527505
H284	H	-0.327887	-0.507903	0.338181
O285	O	-0.332188	-0.585709	0.498152
C286	C	-0.361863	-0.542595	0.510521
H287	H	-0.346366	-0.511807	0.481626
H288	H	-0.362497	-0.549354	0.547782
H289	H	-0.400720	-0.531763	0.512160
O290	O	-0.230873	-0.537040	0.299375
C291	C	-0.264450	-0.507308	0.273550
H292	H	-0.301033	-0.513813	0.297958
H293	H	-0.249589	-0.516930	0.239314
H294	H	-0.269880	-0.467139	0.262494
