data_functionalizedCrystal
_audit_creation_method	'MofGen! by Chris Wilmer'
_symmetry_space_group_name_H-M	'P1'
_symmetry_Int_Tables_number	1
_symmetry_cell_setting	triclinic
loop_
_symmetry_equiv_pos_as_xyz
  x,y,z
_cell_length_a	19.288864
_cell_length_b	9.065218
_cell_length_c	17.766277
_cell_angle_alpha	89.995554
_cell_angle_beta	89.976791
_cell_angle_gamma	84.076066
loop_
_atom_site_label
_atom_site_type_symbol
_atom_site_fract_x
_atom_site_fract_y
_atom_site_fract_z
O1	O	0.922782	0.184032	-0.062833
O2	O	0.720714	0.208857	-0.062781
O3	O	0.825925	-0.018344	-0.062807
O4	O	0.817571	0.411233	-0.062808
O5	O	0.825906	-0.018356	0.062382
O6	O	0.720695	0.208846	0.062407
O7	O	0.922763	0.184020	0.062355
Cu8	Cu	0.821727	0.196432	0.073812
Cu9	Cu	0.821750	0.196445	-0.074238
O10	O	0.817552	0.411222	0.062381
C11	C	0.694822	0.208053	-0.000180
C12	C	0.617700	0.205655	-0.000161
C13	C	0.574039	0.338966	-0.000173
C14	C	0.501574	0.336713	-0.000181
C15	C	0.472774	0.201142	-0.000192
C16	C	0.516445	0.067812	-0.000176
C17	C	0.588908	0.070069	-0.000160
C18	C	0.363691	0.094571	-0.044077
C19	C	0.291229	0.092320	-0.044097
C20	C	0.249274	0.194176	-0.000238
C21	C	0.279789	0.298308	0.043632
C22	C	0.352252	0.300565	0.043648
C23	C	0.394201	0.198680	-0.000209
C24	C	0.127038	0.325054	-0.000258
C25	C	0.054572	0.322796	-0.000262
C26	C	0.069445	0.053891	-0.000264
C27	C	0.141909	0.056153	-0.000253
C28	C	0.170701	0.191739	-0.000253
C29	C	0.825112	-0.073309	-0.000213
C30	C	0.822712	-0.237067	-0.000216
C31	C	0.948655	0.184825	-0.000247
C32	C	1.025777	0.187223	-0.000272
C33	C	0.818365	0.466186	-0.000214
C34	C	0.820765	0.629945	-0.000216
N35	N	0.821717	0.196421	0.177942
N36	N	0.821766	0.196444	-0.178368
C37	C	0.868320	0.095866	0.217318
C38	C	0.868324	0.095859	0.296120
C39	C	0.821732	0.196433	0.335543
C40	C	0.775120	0.296996	0.296158
C41	C	0.775113	0.296991	0.217358
C42	C	0.813476	0.330849	0.460382
C43	C	0.813489	0.330856	0.539181
C44	C	0.821750	0.196451	0.578589
C45	C	0.830014	0.062032	0.539189
C46	C	0.830007	0.062026	0.460389
C47	C	0.821734	0.196450	0.420989
C48	C	0.868360	0.095879	0.703411
C49	C	0.868359	0.095871	0.782214
C50	C	0.775159	0.297021	0.782251
C51	C	0.775156	0.297017	0.703449
C52	C	0.821761	0.196448	0.664034
H53	H	0.466018	0.445275	-0.000189
H54	H	0.906307	0.013978	0.814274
H55	H	0.045997	-0.056494	-0.000320
C56	C	0.724567	0.406428	0.338859
C57	C	0.736721	0.551336	0.319658
C58	C	0.690154	0.652179	0.358970
H59	H	0.731197	0.392242	0.391441
H60	H	0.678101	0.390737	0.325955
H61	H	0.783176	0.567020	0.332567
H62	H	0.730086	0.565569	0.267082
H63	H	0.643687	0.636489	0.346066
H64	H	0.696788	0.637980	0.411550
H65	H	0.698389	0.750510	0.345942
H66	H	0.177459	-0.052404	-0.000247
H67	H	0.266390	0.007536	-0.079822
C68	C	0.485219	-0.079426	-0.000036
C69	C	0.507278	-0.159981	0.064384
C70	C	0.478521	-0.295620	0.064547
H71	H	0.500156	-0.134473	-0.043638
H72	H	0.435806	-0.061741	-0.000009
H73	H	0.556680	-0.177671	0.064351
H74	H	0.492342	-0.104980	0.107997
H75	H	0.429107	-0.277935	0.064574
H76	H	0.493459	-0.350653	0.020942
H77	H	0.493478	-0.350288	0.108258
H78	H	0.397845	0.011625	-0.079796
H79	H	0.624457	-0.038493	-0.000151
C80	C	0.234339	0.409277	0.091142
C81	C	0.244110	0.553434	0.068184
C82	C	0.202275	0.655758	0.111917
H83	H	0.246888	0.396921	0.142624
H84	H	0.186778	0.393270	0.084886
H85	H	0.291661	0.569435	0.074446
H86	H	0.231558	0.565837	0.016708
H87	H	0.154713	0.639751	0.105661
H88	H	0.214827	0.643389	0.163397
H89	H	0.208894	0.753579	0.096341
C90	C	0.724458	0.406049	0.825002
C91	C	0.656058	0.382465	0.805885
C92	C	0.609330	0.482859	0.845264
H93	H	0.732522	0.504532	0.812111
H94	H	0.731087	0.391645	0.877581
H95	H	0.649432	0.396881	0.753319
H96	H	0.647972	0.284002	0.818779
H97	H	0.615960	0.468455	0.897842
H98	H	0.617401	0.581335	0.832369
H99	H	0.562916	0.466862	0.832304
C100	C	0.918998	-0.013395	0.338747
C101	C	0.959817	-0.101453	0.287362
C102	C	1.006509	-0.202103	0.326600
H103	H	0.893709	-0.074808	0.369506
H104	H	0.948281	0.039483	0.369453
H105	H	0.930538	-0.154327	0.256669
H106	H	0.985120	-0.040081	0.256602
H107	H	1.035792	-0.149225	0.357306
H108	H	0.981215	-0.263505	0.357358
H109	H	1.034215	-0.261853	0.291742
H110	H	0.737162	0.378876	0.185297
H111	H	0.377094	0.385348	0.079371
H112	H	0.737210	0.378905	0.671387
H113	H	0.906266	0.013973	0.185229
C114	C	0.804474	0.476943	0.581818
C115	C	0.797209	0.594647	0.530443
C116	C	0.788894	0.729246	0.569691
H117	H	0.844189	0.485136	0.612537
H118	H	0.764035	0.480221	0.612566
H119	H	0.837643	0.591372	0.499708
H120	H	0.757494	0.586503	0.499723
H121	H	0.748454	0.732523	0.600438
H122	H	0.828610	0.737423	0.600408
H123	H	0.783957	0.809123	0.534839
C124	C	0.918980	-0.013483	0.660747
C125	C	0.959778	-0.101588	0.712102
C126	C	1.006410	-0.202362	0.672830
H127	H	0.948288	0.039254	0.629987
H128	H	0.893625	-0.074839	0.630039
H129	H	0.985131	-0.040240	0.742797
H130	H	0.930489	-0.154357	0.742864
H131	H	0.981055	-0.263718	0.642122
H132	H	1.035713	-0.149613	0.642071
H133	H	1.034092	-0.262162	0.707668
C134	C	0.804623	0.476679	0.417500
C135	C	0.863260	0.488011	0.372214
C136	C	0.855126	0.622311	0.332691
H137	H	0.799737	0.556863	0.452158
H138	H	0.764219	0.479895	0.386737
H139	H	0.903654	0.484809	0.402974
H140	H	0.868158	0.407858	0.337541
H141	H	0.814721	0.625527	0.301929
H142	H	0.850238	0.702485	0.367356
H143	H	0.894906	0.630012	0.301955
H144	H	0.150482	0.435456	-0.000247
C145	C	0.605431	0.486019	-0.000225
C146	C	0.678238	0.459469	-0.000237
C147	C	0.707182	0.594897	-0.000303
H148	H	0.590559	0.541030	0.043409
H149	H	0.590559	0.540877	-0.043909
H150	H	0.693104	0.404634	0.043443
H151	H	0.693130	0.404481	-0.043867
H152	H	0.692309	0.649756	-0.043987
H153	H	0.692304	0.649898	0.043331
H154	H	0.756583	0.576902	-0.000318
H155	H	0.836741	-0.047414	0.571274
H156	H	0.836734	-0.047423	0.428313
C157	C	0.007282	0.467703	-0.000311
C158	C	0.048011	0.586916	-0.000329
C159	C	0.004470	0.720428	-0.000384
H160	H	-0.021332	0.472626	0.043328
H161	H	-0.021262	0.472489	-0.043989
H162	H	0.076543	0.582133	0.043345
H163	H	0.076623	0.582042	-0.043965
H164	H	-0.024074	0.725214	-0.044062
H165	H	-0.024141	0.725336	0.043256
H166	H	0.032098	0.801330	-0.000403
