data_functionalizedCrystal
_audit_creation_method	'MofGen! by Chris Wilmer'
_symmetry_space_group_name_H-M	'P1'
_symmetry_Int_Tables_number	1
_symmetry_cell_setting	triclinic
loop_
_symmetry_equiv_pos_as_xyz
  x,y,z
_cell_length_a	10.654562
_cell_length_b	10.654552
_cell_length_c	9.730223
_cell_angle_alpha	89.999256
_cell_angle_beta	90.004630
_cell_angle_gamma	95.512116
loop_
_atom_site_label
_atom_site_type_symbol
_atom_site_fract_x
_atom_site_fract_y
_atom_site_fract_z
O1	O	1.667828	-0.176474	0.114369
O2	O	1.302352	-0.193263	0.114351
O3	O	1.493492	-0.002130	0.114363
O4	O	1.476688	-0.367607	0.114357
O5	O	1.493485	-0.002125	-0.114217
O6	O	1.302345	-0.193259	-0.114229
O7	O	1.667821	-0.176469	-0.114211
Zn8	Zn	1.485082	-0.184863	-0.150512
Zn9	Zn	1.485091	-0.184869	0.150652
O10	O	1.476681	-0.367603	-0.114223
C11	C	1.255551	-0.192025	0.000059
C12	C	1.116108	-0.188327	0.000052
C13	C	1.050574	-0.186599	-0.124536
C14	C	0.919551	-0.183134	-0.124513
C15	C	0.919609	-0.183130	0.124698
C16	C	1.050630	-0.186586	0.124673
C17	C	1.116052	-0.188340	-0.249157
C18	C	1.050517	-0.186614	-0.373755
C19	C	0.919495	-0.183149	-0.373732
C20	C	0.854007	-0.181410	-0.249111
C21	C	1.714622	-0.177708	0.000084
C22	C	1.854065	-0.181406	0.000100
C23	C	1.492254	0.044670	0.000077
C24	C	1.488561	0.184114	0.000087
C25	C	1.486833	0.249623	0.124684
C26	C	1.483352	0.380644	0.124679
C27	C	1.483334	0.380634	-0.124531
C28	C	1.486806	0.249615	-0.124525
C29	C	1.488588	0.184122	0.249296
C30	C	1.486861	0.249631	0.373903
C31	C	1.483381	0.380652	0.373898
C32	C	1.481627	0.446163	0.249286
N33	N	1.485085	-0.184858	-0.356048
C34	C	1.477918	0.585597	0.000069
C35	C	1.481609	0.446153	0.000076
C36	C	1.408266	-0.107971	-0.427999
C37	C	1.408269	-0.107977	-0.571882
C38	C	1.561920	-0.261760	-0.571851
C39	C	1.561910	-0.261760	-0.427970
C40	C	1.331441	-0.031069	-0.356077
C41	C	1.254617	0.045825	-0.428028
C42	C	1.254620	0.045819	-0.571911
C43	C	1.331447	-0.031082	-0.643843
N44	N	1.485098	-0.184865	0.356188
H45	H	0.866141	-0.181733	-0.475186
H46	H	1.491426	0.077439	0.249314
H47	H	1.103846	-0.188020	-0.475217
H48	H	0.866278	-0.181717	0.226158
H49	H	1.624469	-0.324368	-0.630429
H50	H	1.192059	0.108426	-0.369451
H51	H	0.747320	-0.178586	-0.249102
O52	O	1.488597	0.185810	0.494822
C53	C	1.491996	0.056116	0.468114
H54	H	1.532178	0.043069	0.361041
H55	H	1.392399	0.006649	0.473992
C56	C	1.526617	0.014918	0.707145
C57	C	1.575980	-0.001106	0.575641
H58	H	1.578417	-0.020382	0.773476
H59	H	1.524322	0.102295	0.725141
H60	H	1.443620	-0.026305	0.712024
H61	H	1.658968	0.040130	0.570758
H62	H	1.578290	-0.088477	0.557647
H63	H	1.103989	-0.187999	0.226124
H64	H	1.488186	0.196273	-0.225983
H65	H	1.481962	0.433985	0.475359
H66	H	1.331432	-0.031054	-0.238920
H67	H	1.478775	0.552846	0.249292
O68	O	1.481467	0.444384	-0.245485
C69	C	1.370866	0.506873	-0.252963
H70	H	1.334153	0.522080	-0.144780
H71	H	1.296170	0.447084	-0.314452
C72	C	1.445639	0.616681	-0.457078
C73	C	1.400553	0.635367	-0.324205
H74	H	1.463948	0.695939	-0.501030
H75	H	1.520151	0.574577	-0.452044
H76	H	1.383385	0.566852	-0.508302
H77	H	1.462813	0.685181	-0.272979
H78	H	1.326052	0.677482	-0.329232
O79	O	1.179960	0.120620	-0.641596
C80	C	1.112128	0.188467	-0.547261
H81	H	1.164048	0.195311	-0.444690
H82	H	1.013995	0.137656	-0.531970
C83	C	1.036689	0.313567	-0.729404
C84	C	1.100464	0.321982	-0.603428
H85	H	1.029488	0.395924	-0.764052
H86	H	1.082385	0.267855	-0.792961
H87	H	0.954919	0.271219	-0.716645
H88	H	1.182238	0.364315	-0.616192
H89	H	1.054781	0.367705	-0.539874
H90	H	1.222736	-0.191165	-0.249189
O91	O	1.636347	-0.336583	-0.358005
C92	C	1.560504	-0.421540	-0.274763
H93	H	1.460695	-0.434093	-0.318146
H94	H	1.558034	-0.382703	-0.165723
C95	C	1.738409	-0.534427	-0.219241
C96	C	1.615823	-0.549854	-0.272532
H97	H	1.772533	-0.613575	-0.217859
H98	H	1.789507	-0.477187	-0.275318
H99	H	1.736334	-0.502059	-0.128380
H100	H	1.617901	-0.582205	-0.363397
H101	H	1.564726	-0.607101	-0.216470
H102	H	1.331436	-0.031087	-0.761002
