data_functionalizedCrystal
_audit_creation_method	'MofGen! by Chris Wilmer'
_symmetry_space_group_name_H-M	'P1'
_symmetry_Int_Tables_number	1
_symmetry_cell_setting	triclinic
loop_
_symmetry_equiv_pos_as_xyz
  x,y,z
_cell_length_a	12.811457
_cell_length_b	23.532357
_cell_length_c	11.892095
_cell_angle_alpha	86.141688
_cell_angle_beta	88.501673
_cell_angle_gamma	83.439233
loop_
_atom_site_label
_atom_site_type_symbol
_atom_site_fract_x
_atom_site_fract_y
_atom_site_fract_z
O1	O	1.388364	0.078564	-0.048312
O2	O	1.084928	0.085706	-0.017201
O3	O	1.245822	-0.000711	-0.033720
O4	O	1.227470	0.164982	-0.031792
O5	O	1.232407	0.006483	-0.220350
O6	O	1.071513	0.092901	-0.203831
O7	O	1.374949	0.085758	-0.234942
Zn8	Zn	1.221101	0.090472	-0.249018
Zn9	Zn	1.238776	0.080993	-0.003125
O10	O	1.214056	0.172176	-0.218422
C11	C	1.039407	0.088683	-0.106537
C12	C	0.923757	0.086827	-0.094680
C13	C	0.691813	0.091172	-0.275888
C14	C	0.583149	0.089427	-0.264754
C15	C	0.597765	0.081590	-0.061278
C16	C	0.706428	0.083334	-0.072413
C17	C	0.753448	0.088126	-0.179721
C18	C	0.862113	0.089874	-0.190854
C19	C	0.876728	0.082033	0.012620
C20	C	0.768064	0.080289	0.023754
C21	C	1.238655	-0.018335	-0.126992
C22	C	1.237274	-0.081566	-0.126861
C23	C	1.235925	-0.477583	-0.024180
C24	C	1.234613	-0.536995	-0.024039
O25	O	1.240118	-0.571053	0.062554
N26	N	1.226650	-0.562791	-0.125703
C27	C	1.219988	-0.529171	-0.227513
O28	O	1.213093	-0.556567	-0.313973
C29	C	1.221292	-0.469759	-0.227652
C30	C	1.229266	-0.443967	-0.125982
C31	C	1.243897	-0.451790	0.077482
C32	C	1.245211	-0.392383	0.077340
C33	C	1.238552	-0.358767	-0.024463
C34	C	1.230580	-0.384559	-0.126124
C35	C	1.214622	-0.436140	-0.329461
C36	C	1.215927	-0.376724	-0.329591
C37	C	1.223901	-0.350932	-0.227921
C38	C	1.225235	-0.291536	-0.228069
N39	N	1.233198	-0.265740	-0.126405
C40	C	1.239856	-0.299356	-0.024602
C41	C	1.217248	-0.653939	-0.227213
C42	C	1.215951	-0.713349	-0.227076
C43	C	1.230574	-0.721170	-0.023601
C44	C	1.231879	-0.661758	-0.023740
C45	C	1.225211	-0.628143	-0.125549
C46	C	1.242615	-0.174595	-0.024907
C47	C	1.243933	-0.115181	-0.025058
C48	C	1.229303	-0.107366	-0.228531
C49	C	1.227992	-0.166775	-0.228382
C50	C	1.234645	-0.200387	-0.126560
O51	O	1.219729	-0.257442	-0.314616
O52	O	1.246736	-0.271950	0.061845
C53	C	1.420470	0.082782	-0.145603
C54	C	1.536121	0.084638	-0.157452
C55	C	1.221222	0.189799	-0.125148
C56	C	1.222604	0.253030	-0.125272
N57	N	1.209046	0.096940	-0.416834
C58	C	1.334723	0.029476	-0.666386
C59	C	1.326304	0.034002	-0.783863
C60	C	1.183786	0.110514	-0.769268
C61	C	1.192204	0.105988	-0.651791
C62	C	1.267677	0.065469	-0.600354
C63	C	1.276100	0.060946	-0.482875
C64	C	1.133577	0.137455	-0.468282
C65	C	1.125158	0.141981	-0.585759
N66	N	1.250839	0.074520	0.164691
H67	H	0.926923	0.079556	0.090926
H68	H	0.900394	0.093779	-0.278230
C69	C	1.251234	-0.488760	0.189474
H70	H	1.256177	-0.464882	0.249989
H71	H	1.190270	-0.508143	0.200010
H72	H	1.311807	-0.516055	0.187524
C73	C	1.252698	-0.086813	0.086784
H74	H	1.256464	-0.115345	0.147432
H75	H	1.314279	-0.067762	0.084734
H76	H	1.192739	-0.059838	0.097189
H77	H	1.238370	-0.640763	0.059048
C78	C	1.237887	-0.758153	0.088383
H79	H	1.235956	-0.797229	0.073898
H80	H	1.301868	-0.753990	0.123941
H81	H	1.180329	-0.746063	0.136387
H82	H	1.063707	0.174970	-0.627653
C83	C	0.546031	0.076317	0.056747
H84	H	0.472487	0.075716	0.049600
H85	H	0.575142	0.041856	0.095870
H86	H	0.558533	0.108135	0.097582
H87	H	0.730095	0.095081	-0.363263
C88	C	1.417739	-0.015088	-0.609796
H89	H	1.413155	-0.012626	-0.530374
H90	H	1.405460	-0.052430	-0.627941
H91	H	1.485829	-0.007694	-0.636152
C92	C	0.716335	0.075021	0.141784
H93	H	0.642790	0.074423	0.134644
H94	H	0.745445	0.040562	0.180912
H95	H	0.728845	0.106842	0.182608
H96	H	0.532968	0.091911	-0.343063
H97	H	1.248028	-0.201955	0.058007
C98	C	1.253963	-0.364018	0.189180
H99	H	1.257727	-0.392553	0.249823
H100	H	1.315539	-0.344963	0.187143
H101	H	1.193999	-0.337046	0.199584
C102	C	1.359118	0.016381	-0.426290
H103	H	1.354540	0.018844	-0.346868
H104	H	1.346834	-0.020960	-0.444433
H105	H	1.427206	0.023774	-0.452652
H106	H	1.209473	-0.734345	-0.309867
C107	C	1.209932	-0.616968	-0.339212
H108	H	1.205013	-0.640845	-0.399733
H109	H	1.149374	-0.589666	-0.337279
H110	H	1.270913	-0.597592	-0.349728
H111	H	1.208131	-0.457129	-0.412251
H112	H	1.210481	-0.349356	-0.412496
C113	C	1.219223	-0.195147	-0.340215
H114	H	1.215441	-0.166615	-0.400863
H115	H	1.279165	-0.222128	-0.350627
H116	H	1.157628	-0.214192	-0.338152
H117	H	1.223887	-0.079986	-0.311417
H118	H	1.380899	0.004693	-0.837623
H119	H	1.122331	0.143500	-0.811163
C120	C	1.059834	0.177055	-0.395646
H121	H	1.075656	0.168558	-0.318313
H122	H	1.069376	0.215875	-0.416018
H123	H	0.988979	0.171155	-0.407784
