data_functionalizedCrystal
_audit_creation_method	'MofGen! by Chris Wilmer'
_symmetry_space_group_name_H-M	'P1'
_symmetry_Int_Tables_number	1
_symmetry_cell_setting	triclinic
loop_
_symmetry_equiv_pos_as_xyz
  x,y,z
_cell_length_a	6.817900
_cell_length_b	11.168121
_cell_length_c	10.943624
_cell_angle_alpha	91.899023
_cell_angle_beta	108.838799
_cell_angle_gamma	108.508496
loop_
_atom_site_label
_atom_site_type_symbol
_atom_site_fract_x
_atom_site_fract_y
_atom_site_fract_z
V1	V	-4.113777	-0.174672	-0.402562
O2	O	-4.073287	0.008428	-0.394888
O3	O	-4.090038	-0.346377	-0.399819
O4	O	-4.091766	-0.171970	-0.578128
O5	O	-4.071547	-0.167187	-0.215344
V6	V	-4.590790	-0.152773	-0.380168
O7	O	-4.389315	-0.222709	-0.451685
O8	O	-4.765448	-0.104735	-0.331045
O9	O	-4.391322	0.018933	-0.382910
O10	O	-4.748676	-0.335872	-0.387842
O11	O	-4.750416	-0.160257	-0.567385
O12	O	-4.389594	-0.155474	-0.204602
C13	C	-3.940184	-0.388236	-0.393471
C14	C	-4.002237	-0.528607	-0.392399
C15	C	-4.204801	-0.597299	-0.398045
C16	C	-4.268940	-0.742380	-0.396937
C17	C	-3.942387	-0.165760	-0.620920
C18	C	-4.005837	-0.164687	-0.764447
C19	C	-3.850738	-0.157463	-0.841594
C20	C	-4.039042	-0.264697	-0.947591
C21	C	-3.930618	-0.055553	-0.914191
C22	C	-4.193350	-0.272023	-0.868567
C23	C	-4.084847	-0.062784	-0.835144
C24	C	-4.273287	-0.170049	-0.941111
C25	C	-4.204518	0.060785	-0.389255
C26	C	-4.121705	0.201155	-0.390335
C27	C	-4.202315	-0.161688	-0.161802
C28	C	-4.118102	-0.162754	-0.018275
H29	H	-4.442462	-0.801428	-0.401755
H30	H	-3.820169	0.035911	-0.934948
H31	H	-4.303832	-0.363609	-0.848028
H32	H	-4.452549	-0.175396	-0.984355
C33	C	-4.109991	0.052537	-0.768948
C34	C	-4.336767	0.069422	-0.808802
C35	C	-4.361882	0.184756	-0.742601
C36	C	-4.160222	0.283205	-0.636546
C37	C	-3.933430	0.266322	-0.596687
C38	C	-3.908314	0.150988	-0.662888
H39	H	-4.486063	-0.003458	-0.887315
H40	H	-4.529770	0.197253	-0.772108
H41	H	-4.178814	0.368582	-0.587540
H42	H	-3.784134	0.339202	-0.518174
H43	H	-3.740427	0.138491	-0.633381
C44	C	-4.013791	-0.380011	-1.013740
C45	C	-3.786110	-0.395556	-0.975550
C46	C	-3.760841	-0.510864	-1.041692
C47	C	-3.963252	-0.610628	-1.146024
C48	C	-4.190950	-0.595087	-1.184219
C49	C	-4.216219	-0.479778	-1.118077
H50	H	-3.636258	-0.321702	-0.898312
H51	H	-3.592283	-0.522369	-1.013416
H52	H	-3.944547	-0.695986	-1.194986
H53	H	-4.340802	-0.668940	-1.261457
H54	H	-4.384777	-0.468274	-1.146353
H55	H	-4.330742	-0.548702	-0.403706
H56	H	-3.948169	-0.739802	-0.385498
H57	H	-3.876303	-0.577206	-0.386753
H58	H	-3.671589	-0.152285	-0.798145
