data_functionalizedCrystal
_audit_creation_method	'MofGen! by Chris Wilmer'
_symmetry_space_group_name_H-M	'P1'
_symmetry_Int_Tables_number	1
_symmetry_cell_setting	triclinic
loop_
_symmetry_equiv_pos_as_xyz
  x,y,z
_cell_length_a	16.625547
_cell_length_b	12.594516
_cell_length_c	16.625539
_cell_angle_alpha	90.023675
_cell_angle_beta	89.975178
_cell_angle_gamma	89.973331
loop_
_atom_site_label
_atom_site_type_symbol
_atom_site_fract_x
_atom_site_fract_y
_atom_site_fract_z
Zn1	Zn	1.232657	0.423742	-0.456027
Zn2	Zn	1.565990	0.757075	-0.122693
Zn3	Zn	1.899323	1.090409	0.210640
Zn4	Zn	1.232550	0.601743	-0.321205
Zn5	Zn	1.565883	0.935077	0.012128
Zn6	Zn	1.899216	1.268410	0.345462
Zn7	Zn	1.097818	0.423779	-0.321197
Zn8	Zn	1.431152	0.757112	0.012136
Zn9	Zn	1.764485	1.090446	0.345469
Zn10	Zn	1.097779	0.601679	-0.455985
Zn11	Zn	1.431112	0.935012	-0.122651
Zn12	Zn	1.764445	1.268345	0.210682
O13	O	1.165201	0.512736	-0.388603
O14	O	1.498534	0.846069	-0.055270
O15	O	1.831868	1.179402	0.278063
O16	O	1.345475	0.447366	-0.438163
O17	O	1.678808	0.780699	-0.104830
O18	O	2.012142	1.114032	0.228504
O19	O	1.214649	0.578178	-0.208371
O20	O	1.547983	0.911512	0.124962
O21	O	1.881316	1.244845	0.458295
O22	O	1.115766	0.274828	-0.339097
O23	O	1.449100	0.608162	-0.005764
O24	O	1.782433	0.941495	0.327570
O25	O	1.345396	0.578143	-0.339110
O26	O	1.678730	0.911476	-0.005777
O27	O	2.012063	1.244809	0.327557
O28	O	1.214831	0.274801	-0.438156
O29	O	1.548165	0.608134	-0.104822
O30	O	1.881498	0.941468	0.228511
O31	O	1.115663	0.447429	-0.208366
O32	O	1.448996	0.780762	0.124967
O33	O	1.782329	1.114096	0.458301
O34	O	0.984981	0.447366	-0.339056
O35	O	1.318314	0.780700	-0.005723
O36	O	1.651647	1.114033	0.327610
O37	O	1.115699	0.578032	-0.568823
O38	O	1.449032	0.911366	-0.235489
O39	O	1.782365	1.244699	0.097844
O40	O	0.984952	0.578068	-0.438084
O41	O	1.318285	0.911402	-0.104751
O42	O	1.651618	1.244735	0.228583
O43	O	1.214793	0.447303	-0.568854
O44	O	1.548126	0.780636	-0.235520
O45	O	1.881460	1.113970	0.097813
O46	O	1.214611	0.750681	-0.339069
O47	O	1.547944	1.084014	-0.005736
O48	O	1.881278	1.417347	0.327597
O49	O	1.115595	0.750633	-0.438091
O50	O	1.448929	1.083966	-0.104758
O51	O	1.782262	1.417300	0.228575
C52	C	0.955710	0.512715	-0.388565
C53	C	1.289043	0.846048	-0.055232
C54	C	1.622377	1.179382	0.278101
C55	C	0.866089	0.512732	-0.388568
C56	C	1.199422	0.846065	-0.055235
C57	C	1.532756	1.179399	0.278098
C58	C	0.793307	0.512734	-0.388578
C59	C	1.126640	0.846067	-0.055245
C60	C	1.459973	1.179401	0.278089
C61	C	0.701998	0.512740	-0.388598
C62	C	1.035331	0.846073	-0.055265
C63	C	1.368665	1.179406	0.278068
C64	C	0.629222	0.512749	-0.388619
C65	C	0.962555	0.846083	-0.055285
C66	C	1.295888	1.179416	0.278048
C67	C	0.537907	0.512757	-0.388638
C68	C	0.871241	0.846090	-0.055305
C69	C	1.204574	1.179423	0.278029
C70	C	1.165109	0.789277	-0.388594
C71	C	1.498442	1.122610	-0.055261
C72	C	1.831776	1.455943	0.278072
C73	C	1.165143	0.907582	-0.388617
C74	C	1.498477	1.240915	-0.055284
C75	C	1.831810	1.574249	0.278049
C76	C	1.111274	0.976848	-0.442437
C77	C	1.444607	1.310181	-0.109104
C78	C	1.777941	1.643515	0.224229
C79	C	1.091619	1.047709	-0.368861
C80	C	1.424952	1.381042	-0.035528
C81	C	1.758286	1.714375	0.297806
C82	C	1.184842	1.047521	-0.462205
C83	C	1.518176	1.380854	-0.128872
C84	C	1.851509	1.714187	0.204461
C85	C	1.145450	0.976884	-0.315002
C86	C	1.478783	1.310218	0.018331
C87	C	1.812116	1.643551	0.351665
C88	C	1.238707	0.976690	-0.408396
C89	C	1.572041	1.310024	-0.075063
C90	C	1.905374	1.643357	0.258271
C91	C	1.219080	1.047519	-0.334769
C92	C	1.552414	1.380852	-0.001436
C93	C	1.885747	1.714185	0.331898
C94	C	1.375510	0.512757	-0.388642
C95	C	1.708843	0.846091	-0.055309
C96	C	2.042176	1.179424	0.278025
C97	C	1.465131	0.512766	-0.388659
C98	C	1.798464	0.846100	-0.055325
C99	C	2.131798	1.179433	0.278008
C100	C	1.165280	1.235115	-0.388629
C101	C	1.498613	1.568448	-0.055296
C102	C	1.831946	1.901782	0.278038
C103	C	1.165223	1.116809	-0.388637
C104	C	1.498556	1.450143	-0.055304
C105	C	1.831889	1.783476	0.278030
C106	C	1.165253	0.512656	-0.598912
C107	C	1.498587	0.845990	-0.265579
C108	C	1.831920	1.179323	0.067754
C109	C	1.165276	0.512623	-0.688534
C110	C	1.498609	0.845956	-0.355200
C111	C	1.831942	1.179289	-0.021867
C112	C	1.165313	0.512503	-1.016709
C113	C	1.498646	0.845837	-0.683376
C114	C	1.831980	1.179170	-0.350043
C115	C	1.165300	0.512540	-0.925401
C116	C	1.498634	0.845873	-0.592068
C117	C	1.831967	1.179207	-0.258734
C118	C	1.165295	0.512564	-0.852624
C119	C	1.498628	0.845897	-0.519291
C120	C	1.831961	1.179231	-0.185958
C121	C	1.165281	0.512599	-0.761310
C122	C	1.498615	0.845932	-0.427977
C123	C	1.831948	1.179265	-0.094643
C124	C	1.165195	0.512738	-0.179113
C125	C	1.498528	0.846071	0.154221
C126	C	1.831862	1.179405	0.487554
C127	C	1.165329	0.512472	-0.089492
C128	C	1.498662	0.845805	0.243841
C129	C	1.831996	1.179139	0.577175
H130	H	1.065649	0.945817	-0.487885
H131	H	1.398983	1.279150	-0.154552
H132	H	1.732316	1.612483	0.178781
H133	H	1.029445	1.078927	-0.352149
H134	H	1.362778	1.412260	-0.018815
H135	H	1.696112	1.745593	0.314518
C136	C	1.207312	1.089435	-0.546262
C137	C	1.540646	1.422768	-0.212929
C138	C	1.873979	1.756102	0.120405
H139	H	1.168956	1.065224	-0.584425
H140	H	1.502289	1.398558	-0.251092
H141	H	1.835623	1.731891	0.082242
H142	H	1.207663	1.164852	-0.545551
H143	H	1.540996	1.498185	-0.212218
H144	H	1.874330	1.831519	0.121115
H145	H	1.259175	1.064063	-0.560674
H146	H	1.592509	1.397397	-0.227340
H147	H	1.925842	1.730730	0.105993
H148	H	1.264670	1.078354	-0.289211
H149	H	1.598003	1.411687	0.044122
H150	H	1.931337	1.745020	0.377456
C151	C	1.122879	0.935151	-0.230921
C152	C	1.456212	1.268484	0.102412
C153	C	1.789546	1.601817	0.435746
H154	H	1.122959	0.859721	-0.231435
H155	H	1.456292	1.193054	0.101899
H156	H	1.789626	1.526388	0.435232
H157	H	1.160930	0.959911	-0.192665
H158	H	1.494263	1.293244	0.140669
H159	H	1.827597	1.626578	0.474002
H160	H	1.070808	0.960059	-0.216800
H161	H	1.404141	1.293393	0.116533
H162	H	1.737474	1.626726	0.449866
C163	C	1.322693	0.934553	-0.431004
C164	C	1.656026	1.267887	-0.097671
C165	C	1.989360	1.601220	0.235663
H166	H	1.336588	0.958706	-0.483321
H167	H	1.669921	1.292039	-0.149988
H168	H	2.003254	1.625373	0.183345
H169	H	1.361102	0.959828	-0.393302
H170	H	1.694435	1.293162	-0.059969
H171	H	2.027768	1.626495	0.273365
H172	H	1.322201	0.859132	-0.430352
H173	H	1.655535	1.192465	-0.097019
H174	H	1.988868	1.525799	0.236314
