data_functionalizedCrystal
_audit_creation_method	'MofGen! by Chris Wilmer'
_symmetry_space_group_name_H-M	'P1'
_symmetry_Int_Tables_number	1
_symmetry_cell_setting	triclinic
loop_
_symmetry_equiv_pos_as_xyz
  x,y,z
_cell_length_a	10.723024
_cell_length_b	12.837942
_cell_length_c	9.198806
_cell_angle_alpha	89.997396
_cell_angle_beta	89.996352
_cell_angle_gamma	89.648405
loop_
_atom_site_label
_atom_site_type_symbol
_atom_site_fract_x
_atom_site_fract_y
_atom_site_fract_z
O1	O	1.672992	0.145513	-0.120882
O2	O	1.311352	0.159441	-0.120887
O3	O	1.484153	0.001517	-0.120876
O4	O	1.500191	0.303437	-0.120894
O5	O	1.484138	0.001517	0.120909
O6	O	1.311337	0.159441	0.120898
O7	O	1.672977	0.145512	0.120903
Cu8	Cu	1.492155	0.152477	0.142977
Cu9	Cu	1.492173	0.152477	-0.142962
O10	O	1.500176	0.303436	0.120892
C11	C	1.264735	0.158427	0.000005
C12	C	1.125851	0.155395	0.000003
C13	C	1.478728	-0.037142	0.000016
C14	C	1.462569	-0.152334	0.000013
C15	C	1.060466	0.243761	-0.000003
C16	C	0.916922	0.240629	-0.000005
C17	C	1.656825	-0.391911	-0.000015
C18	C	1.641648	-0.500145	-0.000017
C19	C	1.417040	-0.477037	-0.000005
C20	C	1.432217	-0.368804	-0.000002
C21	C	1.552113	-0.326245	-0.000005
C22	C	1.567289	-0.218009	0.000008
C23	C	1.342681	-0.194904	0.000010
C24	C	1.327505	-0.303137	0.000007
C25	C	1.719594	0.146526	0.000008
C26	C	1.858478	0.149559	-0.000000
C27	C	1.505601	0.342096	-0.000003
C28	C	1.521760	0.457288	-0.000010
N29	N	1.492152	0.152476	0.344091
N30	N	1.492186	0.152470	-0.344076
C31	C	1.564674	0.085875	0.416293
C32	C	1.564693	0.085872	0.583705
H33	H	1.110757	0.321733	0.000001
H34	H	0.860706	0.316277	-0.000016
H35	H	1.319426	-0.511708	-0.000019
H36	H	0.914686	0.073907	-0.000004
C37	C	1.058742	0.051451	-0.000294
C38	C	0.984059	0.044371	-0.124705
C39	C	0.922236	-0.051376	-0.125039
H40	H	1.007876	0.046364	0.083923
H41	H	1.118340	-0.003614	-0.000370
H42	H	0.924468	0.099421	-0.124616
H43	H	1.034894	0.049439	-0.208942
H44	H	0.981834	-0.106441	-0.125115
H45	H	0.871377	-0.056454	-0.040817
H46	H	0.871566	-0.056196	-0.209457
C47	C	1.647402	0.009670	0.666301
C48	C	1.614730	-0.092382	0.629365
C49	C	1.690905	-0.162609	0.705413
H50	H	1.636481	0.019629	0.767840
H51	H	1.732167	0.021290	0.641379
H52	H	1.529985	-0.103998	0.654297
H53	H	1.625656	-0.102374	0.527840
H54	H	1.775670	-0.150989	0.680491
H55	H	1.679978	-0.152641	0.806947
H56	H	1.668755	-0.231859	0.680352
H57	H	1.664914	-0.183360	0.000011
H58	H	1.726916	-0.553607	-0.000030
H59	H	1.754449	-0.357259	-0.000002
C60	C	1.409347	0.228623	0.573417
C61	C	1.342482	0.290079	0.672501
C62	C	1.266171	0.360252	0.596538
H63	H	1.352731	0.191120	0.514045
H64	H	1.459565	0.272055	0.514061
H65	H	1.292267	0.246653	0.731832
H66	H	1.399065	0.327604	0.731876
H67	H	1.316390	0.403684	0.537182
H68	H	1.209564	0.322740	0.537168
H69	H	1.220803	0.401965	0.663754
H70	H	1.229888	-0.337804	0.000003
H71	H	1.257417	-0.141426	0.000029
C72	C	1.647684	0.009897	0.333695
C73	C	1.772482	0.027348	0.370655
C74	C	1.848999	-0.042634	0.294631
H75	H	1.636863	0.019913	0.232153
H76	H	1.625764	-0.059435	0.358619
H77	H	1.794394	0.096664	0.345721
H78	H	1.783341	0.017325	0.472184
H79	H	1.827080	-0.111966	0.319555
H80	H	1.838168	-0.032612	0.193093
H81	H	1.933682	-0.030809	0.319708
H82	H	1.430071	0.209488	0.406215
