data_functionalizedCrystal
_audit_creation_method	'MofGen! by Chris Wilmer'
_symmetry_space_group_name_H-M	'P1'
_symmetry_Int_Tables_number	1
_symmetry_cell_setting	triclinic
loop_
_symmetry_equiv_pos_as_xyz
  x,y,z
_cell_length_a	17.637651
_cell_length_b	25.639243
_cell_length_c	17.639306
_cell_angle_alpha	101.227787
_cell_angle_beta	92.131371
_cell_angle_gamma	78.779139
loop_
_atom_site_label
_atom_site_type_symbol
_atom_site_fract_x
_atom_site_fract_y
_atom_site_fract_z
Zn1	Zn	-0.389168	-0.796522	-0.368209
Zn2	Zn	0.110832	-0.296522	0.131791
Zn3	Zn	-0.490516	-0.762513	-0.215527
Zn4	Zn	0.009484	-0.262513	0.284473
Zn5	Zn	-0.363525	-0.695546	-0.241234
Zn6	Zn	0.136475	-0.195546	0.258766
Zn7	Zn	-0.516144	-0.688660	-0.342464
Zn8	Zn	-0.016144	-0.188660	0.157536
O9	O	-0.439838	-0.735810	-0.291858
O10	O	0.060162	-0.235810	0.208142
O11	O	-0.402619	-0.865177	-0.347971
O12	O	0.097381	-0.365177	0.152029
O13	O	-0.452213	-0.742279	-0.112674
O14	O	0.047787	-0.242279	0.387326
O15	O	-0.260640	-0.726055	-0.279610
O16	O	0.239360	-0.226055	0.220390
O17	O	-0.477079	-0.840191	-0.235796
O18	O	0.022921	-0.340191	0.264204
O19	O	-0.279480	-0.800241	-0.372898
O20	O	0.220520	-0.300241	0.127102
O21	O	-0.358913	-0.693078	-0.131560
O22	O	0.141087	-0.193078	0.368440
O23	O	-0.383763	-0.621466	-0.254646
O24	O	0.116237	-0.121466	0.245354
O25	O	-0.520758	-0.714319	-0.452142
O26	O	-0.020758	-0.214319	0.047858
O27	O	-0.495892	-0.616407	-0.329019
O28	O	0.004108	-0.116407	0.170981
O29	O	-0.427469	-0.793565	-0.471057
O30	O	0.072531	-0.293565	0.028943
O31	O	-0.600202	-0.735602	-0.210832
O32	O	-0.100202	-0.235602	0.289168
O33	O	-0.619031	-0.681343	-0.304092
O34	O	-0.119031	-0.181343	0.195908
C35	C	-0.439827	-0.599965	-0.291829
C36	C	0.060173	-0.099965	0.208171
C37	C	-0.439844	-0.541849	-0.291831
C38	C	0.060156	-0.041849	0.208169
C39	C	-0.637178	-0.704051	-0.251896
C40	C	-0.137178	-0.204051	0.248104
C41	C	-0.721606	-0.690514	-0.234825
C42	C	-0.221606	-0.190514	0.265175
C43	C	-0.401159	-0.194492	-0.350333
C44	C	0.098841	0.305508	0.149667
C45	C	-0.401159	-0.139888	-0.350337
C46	C	0.098841	0.360112	0.149663
O47	O	-0.368246	-0.122707	-0.400043
O48	O	0.131754	0.377293	0.099957
N49	N	-0.439839	-0.099574	-0.291879
N50	N	0.060161	0.400426	0.208121
C51	C	-0.478515	-0.113866	-0.233407
C52	C	0.021485	0.386134	0.266593
O53	O	-0.511415	-0.074562	-0.183684
O54	O	-0.011415	0.425438	0.316316
C55	C	-0.478510	-0.168469	-0.233400
C56	C	0.021490	0.331531	0.266600
C57	C	-0.439834	-0.208781	-0.291867
C58	C	0.060166	0.291219	0.208133
C59	C	-0.362485	-0.234802	-0.408794
C60	C	0.137515	0.265198	0.091206
C61	C	-0.362486	-0.289402	-0.408790
C62	C	0.137514	0.210598	0.091210
C63	C	-0.401161	-0.303691	-0.350324
C64	C	0.098839	0.196309	0.149676
C65	C	-0.439835	-0.263380	-0.291863
C66	C	0.060165	0.236620	0.208137
C67	C	-0.517181	-0.182760	-0.174926
C68	C	-0.017181	0.317240	0.325074
C69	C	-0.517172	-0.237368	-0.174924
C70	C	-0.017172	0.262632	0.325076
C71	C	-0.478496	-0.277680	-0.233391
C72	C	0.021504	0.222320	0.266609
C73	C	-0.478511	-0.332269	-0.233393
C74	C	0.021489	0.167731	0.266607
N75	N	-0.439831	-0.372583	-0.291851
N76	N	0.060169	0.127417	0.208149
C77	C	-0.401156	-0.358294	-0.350317
C78	C	0.098844	0.141706	0.149683
C79	C	-0.478522	0.000803	-0.233426
C80	C	0.021478	0.500803	0.266574
C81	C	-0.478533	0.055406	-0.233436
C82	C	0.021467	0.555406	0.266564
C83	C	-0.401175	0.029380	-0.350365
C84	C	0.098825	0.529380	0.149635
C85	C	-0.401170	-0.025223	-0.350358
C86	C	0.098830	0.474777	0.149642
C87	C	-0.439842	-0.039511	-0.291885
C88	C	0.060158	0.460489	0.208115
C89	C	-0.401162	-0.472957	-0.350304
C90	C	0.098838	0.027043	0.149696
C91	C	-0.401169	-0.527560	-0.350296
C92	C	0.098831	-0.027560	0.149704
C93	C	-0.478523	-0.501530	-0.233365
C94	C	0.021477	-0.001530	0.266635
C95	C	-0.478519	-0.446931	-0.233375
C96	C	0.021481	0.053069	0.266625
C97	C	-0.439833	-0.432647	-0.291848
C98	C	0.060167	0.067353	0.208152
O99	O	-0.511404	-0.349491	-0.183710
O100	O	-0.011404	0.150509	0.316290
O101	O	-0.368253	-0.397604	-0.400027
O102	O	0.131747	0.102396	0.099973
C103	C	-1.048081	-0.839010	-0.421782
C104	C	-0.548081	-0.339010	0.078218
C105	C	-1.127411	-0.826272	-0.405728
C106	C	-0.627411	-0.326272	0.094272
C107	C	-1.107881	-0.749056	-0.308493
C108	C	-0.607881	-0.249056	0.191507
C109	C	-1.028547	-0.761789	-0.324536
C110	C	-0.528547	-0.261789	0.175464
C111	C	-0.998654	-0.806766	-0.381182
C112	C	-0.498654	-0.306766	0.118818
C113	C	-0.979120	-0.729545	-0.283936
C114	C	-0.479120	-0.229545	0.216064
C115	C	-0.899793	-0.742275	-0.299981
C116	C	-0.399793	-0.242275	0.200019
C117	C	-0.869894	-0.787249	-0.356626
C118	C	-0.369894	-0.287249	0.143374
C119	C	-0.919327	-0.819496	-0.397227
C120	C	-0.419327	-0.319496	0.102773
C121	C	-1.009016	-0.684566	-0.227295
C122	C	-0.509016	-0.184566	0.272705
C123	C	-0.959589	-0.652322	-0.186695
C124	C	-0.459589	-0.152322	0.313305
C125	C	-0.880260	-0.665054	-0.202736
C126	C	-0.380260	-0.165054	0.297264
C127	C	-0.850360	-0.710028	-0.259380
C128	C	-0.350360	-0.210028	0.240620
C129	C	-0.830827	-0.632807	-0.162135
C130	C	-0.330827	-0.132807	0.337865
C131	C	-0.751500	-0.645537	-0.178179
C132	C	-0.251500	-0.145537	0.321821
C133	C	-0.771034	-0.722758	-0.275425
C134	C	-0.271034	-0.222758	0.224575
C135	C	-0.241731	-0.767710	-0.331993
C136	C	0.258269	-0.267710	0.168007
C137	C	-0.157309	-0.781304	-0.349096
C138	C	0.342691	-0.281304	0.150904
C139	C	-0.479832	-0.756967	-0.489923
C140	C	0.020168	-0.256967	0.010077
C141	C	-0.496876	-0.765983	-0.574326
C142	C	0.003124	-0.265983	-0.074326
C143	C	-0.439850	0.127814	-0.291888
C144	C	0.060150	0.627814	0.208112
C145	C	-0.439854	0.069699	-0.291900
C146	C	0.060146	0.569699	0.208100
C147	C	-0.310080	-0.667566	-0.901101
C148	C	0.189920	-0.167566	-0.401101
C149	C	-0.326111	-0.676047	-0.980408
C150	C	0.173889	-0.176047	-0.480408
C151	C	-0.423254	-0.727274	-0.960723
C152	C	0.076746	-0.227274	-0.460723
C153	C	-0.407229	-0.718800	-0.881414
C154	C	0.092771	-0.218800	-0.381414
C155	C	-0.350642	-0.688945	-0.851609
C156	C	0.149358	-0.188945	-0.351609
C157	C	-0.447790	-0.740179	-0.831922
C158	C	0.052210	-0.240179	-0.331922
C159	C	-0.431769	-0.731702	-0.752619
C160	C	0.068231	-0.231702	-0.252619
C161	C	-0.375186	-0.701847	-0.722808
C162	C	0.124814	-0.201847	-0.222808
C163	C	-0.334621	-0.680469	-0.772307
C164	C	0.165379	-0.180469	-0.272307
C165	C	-0.504381	-0.770030	-0.861727
C166	C	-0.004381	-0.270030	-0.361727
C167	C	-0.544943	-0.791409	-0.812235
C168	C	-0.044943	-0.291409	-0.312235
C169	C	-0.528918	-0.782936	-0.732932
C170	C	-0.028918	-0.282936	-0.232932
C171	C	-0.472335	-0.753081	-0.703121
C172	C	0.027665	-0.253081	-0.203121
C173	C	-0.569484	-0.804315	-0.683433
C174	C	-0.069484	-0.304315	-0.183433
C175	C	-0.553463	-0.795838	-0.604130
C176	C	-0.053463	-0.295838	-0.104130
C177	C	-0.456314	-0.744605	-0.623818
C178	C	0.043686	-0.244605	-0.123818
C179	C	-0.399945	-0.714774	-0.094575
C180	C	0.100055	-0.214774	0.405425
C181	C	-0.382688	-0.705894	-0.010216
C182	C	0.117312	-0.205894	0.489784
H183	H	-0.369674	-0.560382	-0.397910
H184	H	0.130326	-0.060382	0.102090
F185	F	-0.396080	-0.712835	-0.592095
F186	F	0.103920	-0.212835	-0.092095
F187	F	-0.360004	-0.068122	-0.412585
F188	F	0.139996	0.431878	0.087415
H189	H	-0.510037	0.088225	-0.185833
H190	H	-0.010037	0.588225	0.314167
H191	H	-0.263993	-0.643262	-0.876835
H192	H	0.236007	-0.143262	-0.376835
F193	F	-0.629713	-0.836081	-0.715162
F194	F	-0.129713	-0.336081	-0.215162
F195	F	-0.519690	-0.014396	-0.171189
F196	F	-0.019690	0.485604	0.328811
H197	H	-0.369657	-0.461335	-0.397917
H198	H	0.130343	0.038665	0.102083
F199	F	-0.558332	-0.139869	-0.112688
F200	F	-0.058332	0.360131	0.387312
F201	F	-0.739213	-0.770633	-0.335706
F202	F	-0.239213	-0.270633	0.164294
F203	F	-1.180013	-0.860596	-0.448941
F204	F	-0.680013	-0.360596	0.051059
H205	H	-0.805301	-0.797613	-0.369688
H206	H	-0.305301	-0.297613	0.130312
F207	F	-0.558334	-0.252569	-0.112687
F208	F	-0.058334	0.247431	0.387313
H209	H	-0.517422	-0.776932	-0.926302
H210	H	-0.017422	-0.276932	-0.426302
F211	F	-0.862654	-0.584936	-0.101860
F212	F	-0.362654	-0.084936	0.398140
F213	F	-0.887506	-0.867370	-0.457507
F214	F	-0.387506	-0.367370	0.042493
H215	H	-0.330991	-0.322221	-0.456399
H216	H	0.169009	0.177779	0.043601
H217	H	-1.023740	-0.875638	-0.467903
H218	H	-0.523740	-0.375638	0.032097
F219	F	-1.139706	-0.701187	-0.248214
F220	F	-0.639706	-0.201187	0.251786
H221	H	-1.073611	-0.674199	-0.214240
H222	H	-0.573611	-0.174199	0.285760
F223	F	-0.519705	-0.404026	-0.171164
F224	F	-0.019705	0.095974	0.328836
H225	H	-0.983940	-0.615701	-0.140576
H226	H	-0.483940	-0.115701	0.359424
F227	F	-0.519683	-0.516747	-0.171146
F228	F	-0.019683	-0.016747	0.328854
F229	F	-0.321318	-0.219605	-0.471027
F230	F	0.178682	0.280395	0.028973
H231	H	-0.369682	0.041023	-0.397970
H232	H	0.130318	0.541023	0.102030
F233	F	-0.698893	-0.611221	-0.134967
F234	F	-0.198893	-0.111221	0.365033
F235	F	-0.358140	-0.692821	-0.638405
F236	F	0.141860	-0.192821	-0.138405
H237	H	-0.288534	-0.656164	-0.748040
H238	H	0.211466	-0.156164	-0.248040
H239	H	-0.293073	-0.658638	-1.020703
H240	H	0.206927	-0.158638	-0.520703
H241	H	-0.469330	-0.751580	-0.985000
H242	H	0.030670	-0.251580	-0.485000
F243	F	-0.605168	-0.823179	-0.843963
F244	F	-0.105168	-0.323179	-0.343963
H245	H	-0.586482	-0.813256	-0.563834
H246	H	-0.086482	-0.313256	-0.063834
