data_functionalizedCrystal
_audit_creation_method	'MofGen! by Chris Wilmer'
_symmetry_space_group_name_H-M	'P1'
_symmetry_Int_Tables_number	1
_symmetry_cell_setting	triclinic
loop_
_symmetry_equiv_pos_as_xyz
  x,y,z
_cell_length_a	21.395362
_cell_length_b	13.032721
_cell_length_c	21.395356
_cell_angle_alpha	82.844645
_cell_angle_beta	90.035878
_cell_angle_gamma	97.222741
loop_
_atom_site_label
_atom_site_type_symbol
_atom_site_fract_x
_atom_site_fract_y
_atom_site_fract_z
Zn1	Zn	0.926201	-0.415636	0.386224
Zn2	Zn	0.912827	-0.590403	0.294751
Zn3	Zn	0.821424	-0.415714	0.281432
Zn4	Zn	0.808094	-0.590395	0.399455
O5	O	0.867136	-0.503037	0.340465
O6	O	1.012107	-0.438790	0.374127
O7	O	0.900684	-0.567266	0.205309
O8	O	0.846499	-0.269459	0.284222
O9	O	1.002281	-0.567190	0.306922
O10	O	0.923477	-0.269402	0.361213
O11	O	0.833531	-0.438923	0.195523
O12	O	0.731976	-0.438916	0.297051
O13	O	0.823780	-0.567177	0.485375
O14	O	0.722182	-0.567253	0.383762
O15	O	0.910552	-0.438782	0.475655
O16	O	0.887758	-0.736647	0.319751
O17	O	0.810812	-0.736641	0.396676
C18	C	0.704345	-0.503092	0.340397
C19	C	0.634700	-0.503141	0.340384
C20	C	0.846404	-0.774563	0.361108
C21	C	0.837592	-0.890724	0.369960
C22	C	0.596897	-0.570055	0.385481
C23	C	0.531463	-0.570029	0.385507
C24	C	0.503834	-0.503101	0.340426
C25	C	0.541646	-0.436174	0.295325
C26	C	0.607079	-0.436195	0.295304
C27	C	0.400757	-0.494698	0.283381
C28	C	0.335325	-0.494685	0.283401
C29	C	0.302019	-0.503033	0.340490
C30	C	0.334151	-0.511415	0.397562
C31	C	0.399584	-0.511436	0.397541
C32	C	0.432884	-0.503071	0.340444
C33	C	0.193265	-0.569922	0.385619
C34	C	0.127831	-0.569889	0.385645
C35	C	0.138015	-0.436040	0.295458
C36	C	0.203448	-0.436067	0.295436
C37	C	0.231069	-0.503014	0.340517
C38	C	0.871769	-0.942480	0.335874
C39	C	0.862662	-1.062537	0.345022
C40	C	1.030564	-0.502982	0.340534
C41	C	1.100207	-0.502959	0.340564
C42	C	0.867171	-0.502970	0.503884
C43	C	0.867185	-0.502941	0.573523
C44	C	0.887967	-0.230451	0.319756
C45	C	0.896843	-0.114291	0.310931
C46	C	0.867144	-0.503029	0.177677
C47	C	0.867274	-0.502763	0.108016
C48	C	0.912439	-0.435920	1.070246
C49	C	0.912432	-0.435945	1.004813
C50	C	0.867249	-0.502802	0.977151
C51	C	0.822080	-0.569658	1.014929
C52	C	0.822092	-0.569638	1.080362
C53	C	0.810149	-0.511105	0.874087
C54	C	0.810137	-0.511117	0.808655
C55	C	0.867212	-0.502869	0.775335
C56	C	0.924304	-0.494587	0.807453
C57	C	0.924316	-0.494567	0.872885
C58	C	0.867232	-0.502831	0.906200
C59	C	0.912374	-0.436050	0.666614
C60	C	0.912368	-0.436082	0.601180
C61	C	0.822011	-0.569790	0.611298
C62	C	0.822022	-0.569763	0.676731
C63	C	0.867203	-0.502887	0.704385
H64	H	0.619381	-0.624567	0.422190
O65	O	0.914634	-0.889267	0.292907
C66	C	0.883735	-0.826216	0.247637
H67	H	0.831901	-0.859275	0.246206
H68	H	0.906527	-0.824873	0.199346
H69	H	0.887792	-0.743517	0.260752
H70	H	0.307035	-0.518211	0.444049
O71	O	0.819717	-1.115858	0.387874
C72	C	0.820192	-1.223858	0.387477
H73	H	0.839628	-1.238673	0.340271
H74	H	0.770123	-1.265503	0.394819
H75	H	0.851210	-1.254732	0.427019
O76	O	0.778108	-0.634560	0.988130
C77	C	0.717405	-0.611738	1.002347
H78	H	0.719182	-0.571543	1.046801
H79	H	0.683555	-0.687181	1.010306
H80	H	0.700392	-0.558040	0.961430
O81	O	0.494822	-0.635126	0.429347
C82	C	0.533234	-0.694192	0.469144
H83	H	0.579579	-0.697777	0.443734
H84	H	0.508019	-0.776538	0.482015
H85	H	0.543166	-0.656025	0.513862
O86	O	0.956245	-0.370955	0.693404
C87	C	0.950499	-0.266804	0.669510
H88	H	0.926573	-0.264662	0.621825
H89	H	0.999300	-0.219929	0.663735
H90	H	0.920980	-0.231604	0.703647
O91	O	0.754646	-0.519079	0.906352
C92	C	0.704255	-0.526409	0.863977
H93	H	0.721764	-0.491300	0.814674
H94	H	0.665536	-0.482033	0.879494
H95	H	0.684718	-0.611818	0.863497
O96	O	0.979733	-0.486770	0.775084
C97	C	0.980994	-0.575741	0.743989
H98	H	0.947104	-0.642943	0.768799
H99	H	1.030760	-0.598469	0.745003
H100	H	0.966139	-0.557758	0.693021
O101	O	0.778202	-0.634788	0.584371
C102	C	0.808710	-0.702305	0.551678
H103	H	0.859008	-0.665431	0.539096
H104	H	0.782110	-0.716339	0.506719
H105	H	0.809683	-0.779740	0.582782
O106	O	0.956157	-0.371078	0.564420
C107	C	0.925621	-0.303597	0.521447
H108	H	0.875326	-0.340503	0.514417
H109	H	0.952206	-0.289565	0.474383
H110	H	0.924638	-0.226157	0.540790
O111	O	0.939845	-1.061294	0.268025
C112	C	0.969841	-1.132730	0.238096
H113	H	0.966133	-1.210536	0.269649
H114	H	1.021599	-1.101026	0.229076
H115	H	0.946048	-1.144391	0.191364
O116	O	0.643840	-0.371086	0.251573
C117	C	0.686905	-0.303697	0.282172
H118	H	0.667724	-0.297339	0.331049
H119	H	0.693797	-0.223222	0.253471
H120	H	0.734019	-0.336036	0.286738
O121	O	0.091018	-0.634793	0.429428
C122	C	0.027340	-0.620437	0.419775
H123	H	0.024571	-0.539734	0.393206
H124	H	0.001968	-0.627626	0.467255
H125	H	0.003991	-0.682341	0.391058
H126	H	0.425744	-0.518258	0.444010
H127	H	0.801593	-0.935295	0.405918
H128	H	0.949232	-0.381469	1.092758
O129	O	0.956333	-0.370908	0.968203
C130	C	0.996223	-0.311899	1.006644
H131	H	0.970848	-0.308282	1.053003
H132	H	1.009186	-0.229561	0.981487
H133	H	1.040893	-0.350137	1.016525
H134	H	0.785241	-0.624189	0.707484
H135	H	0.115521	-0.381541	0.258754
O136	O	0.979825	-0.486571	0.903992
C137	C	1.030203	-0.479266	0.860556
H138	H	1.012681	-0.514400	0.816571
H139	H	1.068927	-0.523635	0.882853
H140	H	1.049740	-0.393862	0.847121
O141	O	0.778233	-0.634716	1.116995
C142	C	0.783980	-0.738875	1.108935
H143	H	0.807894	-0.741047	1.061603
H144	H	0.735180	-0.785758	1.110234
H145	H	0.813510	-0.774048	1.148451
O146	O	0.220002	-0.634973	0.429474
C147	C	0.172601	-0.694039	0.469281
H148	H	0.129241	-0.651222	0.468252
H149	H	0.190693	-0.705296	0.519484
H150	H	0.159538	-0.773361	0.452295
O151	O	0.240079	-0.371041	0.251563
C152	C	0.201666	-0.311941	0.211787
H153	H	0.151741	-0.354727	0.212844
H154	H	0.221387	-0.300691	0.161571
H155	H	0.200810	-0.232618	0.228782
O156	O	0.754703	-0.518974	0.777415
C157	C	0.753423	-0.430033	0.732798
H158	H	0.787310	-0.362808	0.747429
H159	H	0.703652	-0.407324	0.730304
H160	H	0.768270	-0.448047	0.684582
H161	H	0.427869	-0.487896	0.236889
O162	O	0.304215	-0.486489	0.227908
C163	C	0.347640	-0.479134	0.177516
H164	H	0.396618	-0.448903	0.193499
H165	H	0.332990	-0.423130	0.136472
H166	H	0.348425	-0.559420	0.161827
H167	H	0.519147	-0.381679	0.258620
