data_functionalizedCrystal
_audit_creation_method	'MofGen! by Chris Wilmer'
_symmetry_space_group_name_H-M	'P1'
_symmetry_Int_Tables_number	1
_symmetry_cell_setting	triclinic
loop_
_symmetry_equiv_pos_as_xyz
  x,y,z
_cell_length_a	14.519709
_cell_length_b	8.559649
_cell_length_c	12.996460
_cell_angle_alpha	90.005498
_cell_angle_beta	89.992910
_cell_angle_gamma	103.270595
loop_
_atom_site_label
_atom_site_type_symbol
_atom_site_fract_x
_atom_site_fract_y
_atom_site_fract_z
O1	O	-0.031278	-2.120041	-0.085549
O2	O	0.468722	-1.620041	0.414451
O3	O	0.016340	-1.654973	-0.085556
O4	O	0.516340	-1.154973	0.414444
O5	O	-0.142593	-1.899837	-0.085543
O6	O	0.357407	-1.399837	0.414457
O7	O	0.127654	-1.875176	-0.085562
O8	O	0.627654	-1.375176	0.414438
O9	O	-0.142599	-1.899812	0.085591
O10	O	0.357401	-1.399812	0.585591
O11	O	0.016334	-1.654947	0.085578
O12	O	0.516334	-1.154947	0.585578
O13	O	-0.031284	-2.120015	0.085585
O14	O	0.468716	-1.620015	0.585585
Cu15	Cu	-0.007476	-1.887479	0.101207
Cu16	Cu	0.492524	-1.387479	0.601207
Cu17	Cu	-0.007469	-1.887509	-0.101178
Cu18	Cu	0.492531	-1.387509	0.398822
O19	O	0.127648	-1.875151	0.085572
O20	O	0.627648	-1.375151	0.585572
C21	C	0.019945	-1.595441	0.000010
C22	C	0.519945	-1.095441	0.500010
C23	C	0.030687	-1.418091	0.000008
C24	C	0.530687	-0.918091	0.500008
C25	C	-0.176873	-1.898675	0.000024
C26	C	0.323127	-1.398675	0.500024
C27	C	-0.279007	-1.895231	0.000025
C28	C	0.220993	-1.395231	0.500025
C29	C	-0.034890	-2.179548	0.000017
C30	C	0.465110	-1.679548	0.500017
C31	C	-0.045631	-2.356897	0.000012
C32	C	0.454369	-1.856897	0.500012
C33	C	-0.652993	-1.882552	-0.000002
C34	C	-0.152993	-1.382552	0.499998
C35	C	-0.548938	-1.886073	0.000006
C36	C	-0.048938	-1.386073	0.500006
C37	C	-0.466003	-1.888891	0.000012
C38	C	0.033997	-1.388891	0.500012
C39	C	-0.361941	-1.892413	0.000018
C40	C	0.138059	-1.392413	0.500018
C41	C	0.161929	-1.876313	0.000003
C42	C	0.661929	-1.376313	0.500003
C43	C	0.264063	-1.879757	-0.000004
C44	C	0.764063	-1.379757	0.499996
N45	N	-0.007482	-1.887469	0.243555
N46	N	0.492518	-1.387469	0.743555
N47	N	-0.007470	-1.887531	-0.243525
N48	N	0.492530	-1.387531	0.256475
C49	C	-0.007468	-1.887507	0.663369
C50	C	0.492532	-1.387507	1.163369
C51	C	-0.007468	-1.887492	0.546564
C52	C	0.492532	-1.387492	1.046564
C53	C	-0.007474	-1.887489	0.453465
C54	C	0.492526	-1.387489	0.953465
C55	C	-0.007476	-1.887472	0.336653
C56	C	0.492524	-1.387472	0.836653
H57	H	-0.119188	-1.440184	0.000012
H58	H	0.380812	-0.940184	0.500012
H59	H	0.104249	-1.334796	-0.000002
H60	H	0.604249	-0.834796	0.499998
