data_functionalizedCrystal
_audit_creation_method	'MofGen! by Chris Wilmer'
_symmetry_space_group_name_H-M	'P1'
_symmetry_Int_Tables_number	1
_symmetry_cell_setting	triclinic
loop_
_symmetry_equiv_pos_as_xyz
  x,y,z
_cell_length_a	16.109301
_cell_length_b	15.538191
_cell_length_c	15.186229
_cell_angle_alpha	89.999546
_cell_angle_beta	89.999362
_cell_angle_gamma	65.366787
loop_
_atom_site_label
_atom_site_type_symbol
_atom_site_fract_x
_atom_site_fract_y
_atom_site_fract_z
O1	O	1.066616	0.121093	-0.073166
O2	O	0.820010	0.136163	-0.073179
O3	O	0.991317	-0.008516	-0.073174
O4	O	0.895309	0.265773	-0.073171
O5	O	0.991309	-0.008518	0.073283
O6	O	0.820002	0.136161	0.073278
O7	O	1.066608	0.121091	0.073291
Zn8	Zn	0.943304	0.128626	0.096538
Zn9	Zn	0.943314	0.128629	-0.096426
O10	O	0.895301	0.265771	0.073286
C11	C	0.789215	0.135552	0.000048
C12	C	0.697472	0.133722	0.000042
C13	C	0.450596	0.215316	0.000053
C14	C	0.364396	0.213589	0.000059
C15	C	0.436032	0.041932	0.000053
C16	C	0.522229	0.043660	0.000054
C17	C	0.529508	0.130355	0.000050
C18	C	0.357111	0.126900	0.000055
C19	C	0.263649	0.125027	0.000061
C20	C	0.622975	0.132228	0.000045
C21	C	1.001358	-0.043615	0.000052
C22	C	1.031279	-0.148198	0.000045
C23	C	0.734025	-0.435898	0.000048
C24	C	0.762161	-0.534172	0.000051
C25	C	0.920419	-0.556664	0.000059
C26	C	0.892297	-0.458389	0.000052
C27	C	0.799099	-0.398013	0.000047
C28	C	0.957370	-0.420505	0.000051
C29	C	0.929249	-0.322239	0.000047
C30	C	0.836055	-0.261857	0.000045
C31	C	0.770978	-0.299747	0.000044
C32	C	1.050568	-0.480882	0.000062
C33	C	1.115641	-0.442998	0.000061
C34	C	1.087520	-0.344730	0.000051
C35	C	0.994326	-0.284349	0.000049
C36	C	1.152598	-0.306840	0.000053
C37	C	1.124477	-0.208574	0.000050
C38	C	0.966206	-0.186083	0.000046
C39	C	1.097403	0.121703	0.000062
C40	C	1.189147	0.123533	0.000062
C41	C	0.885260	0.300870	0.000058
C42	C	0.855340	0.405453	0.000059
N43	N	0.943303	0.128624	0.228231
N44	N	0.943324	0.128624	-0.228119
C45	C	1.019171	0.064581	0.453956
C46	C	1.019174	0.064579	0.546145
C47	C	0.867450	0.192669	0.546150
C48	C	0.867445	0.192666	0.453962
C49	C	0.943310	0.128623	0.407867
C50	C	0.943318	0.128624	0.592245
C51	C	0.943321	0.128622	0.692201
C52	C	0.943306	0.128624	0.307905
H53	H	0.586487	-0.025530	0.000054
H54	H	1.191523	-0.492169	0.000068
H55	H	0.805665	0.244817	0.416434
H56	H	1.080946	0.012429	0.583668
H57	H	0.805683	0.244813	0.583690
H58	H	0.456517	0.285908	0.000056
H59	H	0.430094	-0.028652	0.000062
C60	C	0.863687	-0.119656	0.000031
C61	C	0.802276	-0.123887	-0.076029
C62	C	0.699763	-0.057460	-0.076045
C63	C	0.658661	0.013198	-0.000001
C64	C	0.720072	0.017431	0.076065
C65	C	0.822585	-0.048996	0.076081
H66	H	0.832702	-0.176194	-0.132326
H67	H	0.654303	-0.060594	-0.132354
H68	H	0.582774	0.062371	-0.000013
H69	H	0.689646	0.069738	0.132362
H70	H	0.868045	-0.045862	0.132390
C71	C	1.022934	-0.623082	0.000060
C72	C	1.064032	-0.693730	0.076112
C73	C	1.166548	-0.760147	0.076109
C74	C	1.227965	-0.755917	0.000054
C75	C	1.186867	-0.685266	-0.076003
C76	C	1.084352	-0.618849	-0.076000
H77	H	1.018567	-0.696864	0.132417
H78	H	1.196971	-0.812447	0.132412
H79	H	1.303853	-0.805083	0.000052
H80	H	1.232333	-0.682132	-0.132308
H81	H	1.053929	-0.566549	-0.132303
H82	H	0.300146	0.282773	0.000064
C83	C	0.631507	-0.369471	0.000033
C84	C	0.570096	-0.373702	-0.076027
C85	C	0.467583	-0.307275	-0.076043
C86	C	0.426480	-0.236617	0.000001
C87	C	0.487892	-0.232384	0.076067
C88	C	0.590405	-0.298811	0.076083
H89	H	0.600522	-0.426009	-0.132324
H90	H	0.422123	-0.310409	-0.132352
H91	H	0.350594	-0.187444	-0.000011
H92	H	0.457466	-0.180077	0.132364
H93	H	0.635865	-0.295677	0.132392
C94	C	1.255111	-0.373261	0.000063
C95	C	1.296198	-0.443901	0.076122
C96	C	1.398713	-0.510321	0.076132
C97	C	1.460141	-0.506101	0.000083
C98	C	1.419055	-0.435457	-0.075982
C99	C	1.316540	-0.369037	-0.075992
H100	H	1.250725	-0.447028	0.132423
H101	H	1.429128	-0.562616	0.132440
H102	H	1.536029	-0.555269	0.000090
H103	H	1.464528	-0.432330	-0.132283
H104	H	1.286126	-0.316742	-0.132301
H105	H	0.813161	-0.181843	0.000048
C106	C	1.102616	-0.005871	0.403251
C107	C	1.133593	-0.113152	0.415931
C108	C	1.217039	-0.183609	0.365230
C109	C	1.269508	-0.146785	0.301848
C110	C	1.238531	-0.039499	0.289165
C111	C	1.155085	0.030958	0.339866
H112	H	1.094752	-0.140416	0.462853
H113	H	1.239970	-0.263030	0.374619
H114	H	1.331280	-0.198942	0.264316
H115	H	1.277372	-0.012235	0.242243
H116	H	1.132154	0.110379	0.330477
H117	H	0.695087	-0.250585	0.000033
H118	H	1.073460	-0.560896	0.000056
H119	H	0.709164	-0.565012	0.000065
H120	H	1.177466	-0.177729	0.000050
