data_functionalizedCrystal
_audit_creation_method	'MofGen! by Chris Wilmer'
_symmetry_space_group_name_H-M	'P1'
_symmetry_Int_Tables_number	1
_symmetry_cell_setting	triclinic
loop_
_symmetry_equiv_pos_as_xyz
  x,y,z
_cell_length_a	12.759395
_cell_length_b	12.594516
_cell_length_c	12.759387
_cell_angle_alpha	90.030166
_cell_angle_beta	90.019431
_cell_angle_gamma	90.011661
loop_
_atom_site_label
_atom_site_type_symbol
_atom_site_fract_x
_atom_site_fract_y
_atom_site_fract_z
Zn1	Zn	1.606290	-0.423690	0.593979
Zn2	Zn	2.106290	0.076310	1.093979
Zn3	Zn	1.606189	-0.601708	0.418302
Zn4	Zn	2.106189	-0.101708	0.918302
Zn5	Zn	1.430588	-0.423743	0.418320
Zn6	Zn	1.930588	0.076257	0.918320
Zn7	Zn	1.430589	-0.601627	0.593944
Zn8	Zn	1.930589	-0.101627	1.093944
O9	O	1.518414	-0.512692	0.506136
O10	O	2.018414	-0.012692	1.006136
O11	O	1.753297	-0.447317	0.570683
O12	O	2.253297	0.052683	1.070683
O13	O	1.582853	-0.578156	0.271283
O14	O	2.082853	-0.078156	0.771283
O15	O	1.453937	-0.274790	0.441643
O16	O	1.953937	0.225210	0.941643
O17	O	1.753224	-0.578105	0.441613
O18	O	2.253224	-0.078105	0.941613
O19	O	1.583024	-0.274752	0.570700
O20	O	2.083024	0.225248	1.070700
O21	O	1.453839	-0.447407	0.271296
O22	O	1.953839	0.052593	0.771296
O23	O	1.283567	-0.447328	0.441609
O24	O	1.783567	0.052672	0.941609
O25	O	1.453939	-0.577967	0.740970
O26	O	1.953939	-0.077967	1.240970
O27	O	1.283568	-0.578018	0.570640
O28	O	1.783568	-0.078018	1.070640
O29	O	1.583025	-0.447238	0.740996
O30	O	2.083025	0.052762	1.240996
O31	O	1.582854	-0.750643	0.441579
O32	O	2.082854	-0.250643	0.941579
O33	O	1.453841	-0.750583	0.570623
O34	O	1.953841	-0.250583	1.070623
C35	C	1.245446	-0.512671	0.506123
C36	C	1.745446	-0.012671	1.006123
C37	C	1.128670	-0.512687	0.506143
C38	C	1.628670	-0.012687	1.006143
C39	C	1.128727	-0.376717	0.640760
C40	C	1.628727	0.123283	1.140760
C41	C	1.073895	-0.308745	0.708077
C42	C	1.573895	0.191255	1.208077
C43	C	0.964174	-0.308764	0.708090
C44	C	1.464174	0.191236	1.208090
C45	C	0.909282	-0.376760	0.640777
C46	C	1.409282	0.123240	1.140777
C47	C	0.964114	-0.444732	0.573460
C48	C	1.464114	0.055268	1.073460
C49	C	1.073838	-0.444708	0.573456
C50	C	1.573838	0.055292	1.073456
C51	C	0.964056	-0.580695	0.438839
C52	C	1.464056	-0.080695	0.938839
C53	C	1.073778	-0.580684	0.438829
C54	C	1.573778	-0.080684	0.938829
C55	C	0.909164	-0.648692	0.371525
C56	C	1.409164	-0.148692	0.871525
C57	C	0.963996	-0.716671	0.304212
C58	C	1.463996	-0.216671	0.804212
C59	C	1.073724	-0.716650	0.304202
C60	C	1.573724	-0.216650	0.804202
C61	C	1.128610	-0.648656	0.371512
C62	C	1.628610	-0.148656	0.871512
C63	C	1.518365	-0.789233	0.506118
C64	C	2.018365	-0.289233	1.006118
C65	C	1.518441	-0.907538	0.506145
C66	C	2.018441	-0.407538	1.006145
C67	C	1.588692	-0.976785	0.436033
C68	C	2.088692	-0.476785	0.936033
C69	C	1.614370	-1.047478	0.531926
C70	C	2.114370	-0.547478	1.031926
C71	C	1.492894	-1.047645	0.410314
C72	C	1.992894	-0.547645	0.910314
C73	C	1.544167	-0.976673	0.602088
C74	C	2.044167	-0.476673	1.102088
C75	C	1.422647	-0.976833	0.480412
C76	C	1.922647	-0.476833	0.980412
C77	C	1.448289	-1.047494	0.576370
C78	C	1.948289	-0.547494	1.076370
C79	C	1.792447	-0.512714	0.506150
C80	C	2.292447	-0.012714	1.006150
C81	C	1.909224	-0.512723	0.506156
C82	C	2.409224	-0.012723	1.006156
C83	C	1.518493	-0.512588	0.780170
C84	C	2.018493	-0.012588	1.280170
C85	C	1.518527	-0.512543	0.896947
C86	C	2.018527	-0.012543	1.396947
C87	C	1.518491	-0.235071	0.506178
C88	C	2.018491	0.264929	1.006178
C89	C	1.518524	-0.116766	0.506195
C90	C	2.018524	0.383234	1.006195
C91	C	1.518395	-0.512719	0.233169
C92	C	2.018395	-0.012719	0.733169
C93	C	1.518565	-0.512464	0.116393
C94	C	2.018565	-0.012464	0.616393
C95	C	1.652954	-0.376424	0.896993
C96	C	2.152954	0.123576	1.396993
C97	C	1.720182	-0.308348	0.951878
C98	C	2.220182	0.191652	1.451878
C99	C	1.720208	-0.308310	1.061599
C100	C	2.220208	0.191690	1.561599
C101	C	1.652996	-0.376351	1.116439
C102	C	2.152996	0.123649	1.616439
C103	C	1.585768	-0.444427	1.061555
C104	C	2.085768	0.055573	1.561555
C105	C	1.585752	-0.444461	0.951831
C106	C	2.085752	0.055539	1.451831
C107	C	1.451337	-0.580539	1.061508
C108	C	1.951337	-0.080539	1.561508
C109	C	1.451315	-0.580585	0.951787
C110	C	1.951315	-0.080585	1.451787
C111	C	1.384125	-0.648581	1.116348
C112	C	1.884125	-0.148581	1.616348
C113	C	1.316901	-0.716664	1.061464
C114	C	1.816901	-0.216664	1.561464
C115	C	1.316879	-0.716701	0.951736
C116	C	1.816879	-0.216701	1.451736
C117	C	1.384087	-0.648661	0.896903
C118	C	1.884087	-0.148661	1.396903
H119	H	1.118601	-0.253382	0.762881
H120	H	1.618601	0.246618	1.262881
H121	H	1.774903	-0.252948	0.907215
H122	H	2.274903	0.247052	1.407215
H123	H	1.384147	-0.648541	1.205690
H124	H	1.884147	-0.148541	1.705690
H125	H	1.118362	-0.771997	0.249381
H126	H	1.618362	-0.271997	0.749381
H127	H	0.919530	-0.253409	0.762900
H128	H	1.419530	0.246591	1.262900
F129	F	1.653018	-0.376298	1.233215
F130	F	2.153018	0.123702	1.733215
F131	F	0.792506	-0.376765	0.640783
F132	F	1.292506	0.123235	1.140783
F133	F	1.666353	-0.936201	0.358604
F134	F	2.166353	-0.436201	0.858604
H135	H	1.262177	-0.772052	1.106124
H136	H	1.762177	-0.272052	1.606124
F137	F	1.791745	-0.235843	1.120013
F138	F	2.291745	0.264157	1.620013
H139	H	1.217951	-0.648627	0.371506
H140	H	1.717951	-0.148627	0.871506
F141	F	1.245318	-0.789152	0.893332
F142	F	1.745318	-0.289152	1.393332
F143	F	1.384074	-0.648699	0.780127
F144	F	1.884074	-0.148699	1.280127
H145	H	1.652950	-0.376459	0.807652
H146	H	2.152950	0.123541	1.307652
F147	F	1.245503	-0.376704	0.640763
F148	F	1.745503	0.123296	1.140763
F149	F	0.905571	-0.789022	0.232574
F150	F	1.405571	-0.289022	0.732574
H151	H	0.819823	-0.648699	0.371538
H152	H	1.319823	-0.148699	0.871538
H153	H	1.565729	-0.945631	0.683222
H154	H	2.065729	-0.445631	1.183222
F155	F	1.720306	-1.088022	0.560428
F156	F	2.220306	-0.588022	1.060428
F157	F	1.370683	-1.087823	0.653983
F158	F	1.870683	-0.587823	1.153983
F159	F	1.316740	-0.936244	0.451892
F160	F	1.816740	-0.436244	0.951892
H161	H	1.471253	-1.078818	0.329250
H162	H	1.971253	-0.578818	0.829250
