data_functionalizedCrystal
_audit_creation_method	'MofGen! by Chris Wilmer'
_symmetry_space_group_name_H-M	'P1'
_symmetry_Int_Tables_number	1
_symmetry_cell_setting	triclinic
loop_
_symmetry_equiv_pos_as_xyz
  x,y,z
_cell_length_a	15.538191
_cell_length_b	11.792241
_cell_length_c	14.185569
_cell_angle_alpha	76.753184
_cell_angle_beta	97.875798
_cell_angle_gamma	65.732755
loop_
_atom_site_label
_atom_site_type_symbol
_atom_site_fract_x
_atom_site_fract_y
_atom_site_fract_z
O1	O	1.226838	-0.333383	-0.083428
O2	O	0.953247	-0.202607	-0.083428
O3	O	1.096684	-0.435953	-0.083421
O4	O	1.083402	-0.100037	-0.083435
O5	O	1.139056	-0.504880	0.083416
O6	O	0.995620	-0.271534	0.083409
O7	O	1.269211	-0.402310	0.083409
Cu8	Cu	1.136284	-0.343215	0.098642
Cu9	Cu	1.086174	-0.261702	-0.098662
O10	O	1.125774	-0.168964	0.083402
C11	C	0.939408	-0.223388	-0.000010
C12	C	0.835042	-0.182633	-0.000009
C13	C	0.545184	-0.587531	-0.000008
C14	C	0.447114	-0.549205	-0.000010
C15	C	0.425769	-0.333634	-0.000019
C16	C	0.523842	-0.371943	-0.000012
C17	C	0.583541	-0.498893	-0.000008
C18	C	0.562199	-0.283305	-0.000011
C19	C	0.660261	-0.321610	-0.000010
C20	C	0.719966	-0.448553	-0.000008
C21	C	0.681604	-0.537198	-0.000006
C22	C	0.502495	-0.156353	-0.000023
C23	C	0.540852	-0.067715	-0.000023
C24	C	0.638918	-0.106023	-0.000013
C25	C	0.698623	-0.232966	-0.000012
C26	C	0.677280	-0.017378	-0.000016
C27	C	0.775343	-0.055683	-0.000014
C28	C	0.796685	-0.271271	-0.000010
C29	C	1.117036	-0.512357	-0.000003
C30	C	1.114539	-0.637324	-0.000004
C31	C	1.109944	-0.866104	-0.000021
C32	C	1.112497	-0.738792	-0.000012
C33	C	1.283050	-0.381528	-0.000012
C34	C	1.387413	-0.422281	-0.000019
C35	C	1.105422	-0.092559	-0.000019
C36	C	1.107917	0.032410	-0.000024
N37	N	1.171536	-0.400551	0.237415
N38	N	1.050930	-0.204378	-0.237434
C39	C	0.947360	-0.035974	0.605054
C40	C	0.974069	-0.079400	0.710077
C41	C	1.101108	-0.285981	0.710044
C42	C	1.074406	-0.242574	0.605019
C43	C	0.997532	-0.117569	0.552532
C44	C	1.124579	-0.324170	0.552497
C45	C	1.097882	-0.280763	0.447481
C46	C	1.021013	-0.155762	0.394987
C47	C	0.970836	-0.074163	0.447516
C48	C	1.201457	-0.449171	0.604986
C49	C	1.251630	-0.530766	0.552464
C50	C	1.224929	-0.487364	0.447447
C51	C	1.148060	-0.362362	0.394952
C52	C	1.275107	-0.568963	0.394918
C53	C	1.248410	-0.525557	0.289902
C54	C	1.121363	-0.318956	0.289937
H55	H	0.415888	-0.621394	-0.000013
H56	H	0.422646	-0.125168	-0.000028
H57	H	0.377148	-0.230269	-0.000027
H58	H	0.999281	-0.120420	0.309477
H59	H	1.163702	-0.387760	0.752791
F60	F	0.920661	0.007461	0.765967
H61	H	0.884754	0.065813	0.562317
H62	H	0.628656	0.085989	-0.000029
F63	F	0.608730	-0.722651	0.000008
H64	H	0.908230	0.027624	0.404780
H65	H	0.845299	-0.374648	-0.000000
F66	F	0.477305	0.067392	-0.000033
H67	H	0.806575	0.016492	-0.000004
F68	F	1.039535	-0.185916	0.234074
F69	F	1.229870	-0.495358	0.716755
F70	F	1.333446	-0.663801	0.608333
F71	F	1.356928	-0.701992	0.450789
H72	H	1.289267	-0.592000	0.247138
H73	H	0.799811	-0.479734	-0.000020
F74	F	0.745149	-0.672318	0.000010
