data_functionalizedCrystal
_audit_creation_method	'MofGen! by Chris Wilmer'
_symmetry_space_group_name_H-M	'P1'
_symmetry_Int_Tables_number	1
_symmetry_cell_setting	triclinic
loop_
_symmetry_equiv_pos_as_xyz
  x,y,z
_cell_length_a	13.897448
_cell_length_b	12.759395
_cell_length_c	12.759387
_cell_angle_alpha	90.020674
_cell_angle_beta	89.967288
_cell_angle_gamma	89.984831
loop_
_atom_site_label
_atom_site_type_symbol
_atom_site_fract_x
_atom_site_fract_y
_atom_site_fract_z
Zn1	Zn	-0.384029	-1.606247	-0.593996
Zn2	Zn	-0.545357	-1.606128	-0.418310
Zn3	Zn	-0.384070	-1.430545	-0.418332
Zn4	Zn	-0.545277	-1.430528	-0.593949
O5	O	-0.464683	-1.518362	-0.506147
O6	O	-0.405446	-1.753252	-0.570701
O7	O	-0.524012	-1.582794	-0.271292
O8	O	-0.249083	-1.453909	-0.441663
O9	O	-0.523972	-1.753165	-0.441626
O10	O	-0.249053	-1.582996	-0.570722
O11	O	-0.405516	-1.453794	-0.271308
O12	O	-0.405438	-1.283522	-0.441618
O13	O	-0.523836	-1.453880	-0.740976
O14	O	-0.523876	-1.283509	-0.570642
O15	O	-0.405368	-1.582980	-0.741011
O16	O	-0.680328	-1.582778	-0.441580
O17	O	-0.680269	-1.453765	-0.570621
C18	C	-0.464654	-1.245395	-0.506128
C19	C	-0.464664	-1.128618	-0.506145
C20	C	-0.341442	-1.128689	-0.640768
C21	C	-0.279840	-1.073864	-0.708087
C22	C	-0.279853	-0.964143	-0.708098
C23	C	-0.341472	-0.909244	-0.640780
C24	C	-0.403074	-0.964069	-0.573461
C25	C	-0.403056	-1.073793	-0.573460
C26	C	-0.526290	-0.963997	-0.438834
C27	C	-0.526283	-1.073719	-0.438827
C28	C	-0.587909	-0.909098	-0.371516
C29	C	-0.649517	-0.963923	-0.304201
C30	C	-0.649502	-1.073652	-0.304194
C31	C	-0.587885	-1.128544	-0.371508
C32	C	-0.715297	-1.518285	-0.506116
C33	C	-0.822511	-1.518349	-0.506138
C34	C	-1.018806	-1.518459	-0.506204
C35	C	-0.909574	-1.518395	-0.506171
C36	C	-0.213090	-1.518468	-0.506200
C37	C	-0.105876	-1.518513	-0.506223
C38	C	-0.464589	-1.518441	-0.780180
C39	C	-0.464548	-1.518475	-0.896957
C40	C	-0.464704	-0.792395	-0.506161
C41	C	-0.464688	-0.909172	-0.506153
C42	C	-0.341196	-1.652916	-0.897013
C43	C	-0.279505	-1.720151	-0.951901
C44	C	-0.279470	-1.720176	-1.061623
C45	C	-0.341130	-1.652958	-1.116459
C46	C	-0.402821	-1.585723	-1.061570
C47	C	-0.402851	-1.585707	-0.951846
C48	C	-0.526167	-1.451278	-1.061514
C49	C	-0.526208	-1.451256	-0.951793
C50	C	-0.587827	-1.384059	-1.116350
C51	C	-0.649524	-1.316828	-1.061461
C52	C	-0.649557	-1.316806	-0.951733
C53	C	-0.587899	-1.384021	-0.896904
C54	C	-0.464708	-1.518343	-0.233179
C55	C	-0.464476	-1.518513	-0.116403
H56	H	-0.699663	-1.118284	-0.249371
O57	O	-0.213377	-1.133073	-0.780689
H58	H	-0.256603	-1.183074	-0.834060
H59	H	-0.341421	-1.218030	-0.640761
O60	O	-0.341477	-0.790901	-0.640785
H61	H	-0.321887	-0.761948	-0.561582
O62	O	-0.587861	-1.246887	-0.371488
H63	H	-0.534658	-1.275846	-0.429596
H64	H	-0.341227	-1.652912	-0.807672
H65	H	-0.229301	-1.774877	-0.907242
H66	H	-0.229230	-1.774918	-1.106313
H67	H	-0.341088	-1.652975	-1.205800
H68	H	-0.587790	-1.384081	-1.205691
O69	O	-0.213416	-0.904999	-0.780704
H70	H	-0.170569	-0.961601	-0.827516
H71	H	-0.699783	-1.262044	-0.907049
H72	H	-0.587913	-0.819757	-0.371527
H73	H	-0.699678	-0.919216	-0.249392
H74	H	-0.699718	-1.262098	-1.106117
H75	H	-0.587924	-1.384014	-0.807563
