data_functionalizedCrystal
_audit_creation_method	'MofGen! by Chris Wilmer'
_symmetry_space_group_name_H-M	'P1'
_symmetry_Int_Tables_number	1
_symmetry_cell_setting	triclinic
loop_
_symmetry_equiv_pos_as_xyz
  x,y,z
_cell_length_a	16.992694
_cell_length_b	14.853567
_cell_length_c	16.053802
_cell_angle_alpha	92.572962
_cell_angle_beta	87.249047
_cell_angle_gamma	87.151577
loop_
_atom_site_label
_atom_site_type_symbol
_atom_site_fract_x
_atom_site_fract_y
_atom_site_fract_z
O1	O	1.043898	0.187626	-0.069313
O2	O	0.815612	0.185528	-0.069338
O3	O	0.935853	0.055778	-0.069327
O4	O	0.923657	0.317376	-0.069323
O5	O	0.929234	0.062888	0.069531
O6	O	0.808993	0.192638	0.069521
O7	O	1.037280	0.194737	0.069545
Zn8	Zn	0.922086	0.194816	0.091580
Zn9	Zn	0.930806	0.185448	-0.091372
O10	O	0.917038	0.324487	0.069535
C11	C	0.783087	0.186385	0.000088
C12	C	0.696035	0.178334	0.000078
C13	C	0.645879	0.256009	0.000080
C14	C	0.564083	0.248440	0.000092
C15	C	0.532446	0.163195	0.000095
C16	C	0.582608	0.085513	0.000096
C17	C	0.664401	0.093084	0.000091
C18	C	0.288813	0.131819	0.000117
C19	C	0.207013	0.124255	0.000120
C20	C	0.188494	0.287183	0.000117
C21	C	0.270290	0.294745	0.000107
C22	C	0.320445	0.217064	0.000112
N23	N	0.448838	0.155456	0.000104
N24	N	0.404051	0.224804	0.000109
C25	C	0.931991	0.025705	0.000099
C26	C	0.930335	-0.074496	0.000092
C27	C	0.851909	-0.492567	0.000099
C28	C	0.994758	-0.503761	0.000115
C29	C	0.996315	-0.409617	0.000110
C30	C	0.925668	-0.356944	0.000101
C31	C	0.853464	-0.398414	0.000097
C32	C	1.068518	-0.368139	0.000123
C33	C	1.070078	-0.273990	0.000119
C34	C	0.999430	-0.221316	0.000104
C35	C	0.927223	-0.262792	0.000099
C36	C	0.856576	-0.210118	0.000090
C37	C	0.784368	-0.251593	0.000079
C38	C	0.782816	-0.345740	0.000082
C39	C	1.000983	-0.127169	0.000101
C40	C	0.858131	-0.115966	0.000088
C41	C	1.069804	0.193880	0.000118
C42	C	1.156857	0.201930	0.000122
C43	C	0.920900	0.354559	0.000106
C44	C	0.922556	0.454760	0.000108
N45	N	0.916140	0.201210	0.216440
N46	N	0.936757	0.179048	-0.216232
C47	C	0.967322	0.146023	0.260138
C48	C	0.963170	0.150505	0.347544
C49	C	0.907840	0.210178	0.391251
C50	C	0.856653	0.265367	0.347546
C51	C	0.860801	0.260880	0.260141
C52	C	0.889719	0.229750	0.652659
C53	C	0.885576	0.234235	0.740070
C54	C	0.992092	0.119371	0.740062
C55	C	0.996239	0.114894	0.652655
C56	C	0.945049	0.170079	0.608958
N57	N	0.903597	0.214762	0.480594
N58	N	0.949289	0.165490	0.519617
H59	H	0.147649	0.350426	0.000115
H60	H	1.004845	0.105567	0.383123
C61	C	1.186390	-0.403017	0.071522
C62	C	1.146171	-0.426034	0.000133
H63	H	1.234330	-0.438766	0.071528
H64	H	1.197648	-0.341019	0.071520
H65	H	1.154472	-0.413673	0.119935
H66	H	1.178088	-0.415373	-0.048280
H67	H	1.134915	-0.488047	0.000128
H68	H	0.819123	0.305817	0.224563
H69	H	0.840517	0.282831	0.775651
H70	H	0.793119	-0.526340	0.000087
C71	C	0.740252	-0.081098	-0.071310
C72	C	0.780471	-0.058072	0.000078
H73	H	0.692306	-0.045360	-0.071312
H74	H	0.772162	-0.070442	-0.119718
H75	H	0.729000	-0.143106	-0.071303
H76	H	0.791728	0.003935	0.000068
H77	H	0.748554	-0.068721	0.048499
H78	H	1.052275	-0.546652	0.000129
H79	H	0.296043	0.364160	0.000094
H80	H	0.181257	0.054834	0.000122
H81	H	1.041293	0.066303	0.617071
C82	C	0.803004	0.323254	0.481533
C83	C	0.795834	0.330963	0.395587
H84	H	0.765460	0.363758	0.511188
H85	H	0.793743	0.263204	0.495862
H86	H	0.854670	0.337587	0.495839
H87	H	0.744170	0.316624	0.381280
H88	H	0.805090	0.391026	0.381252
C89	C	0.464748	0.330783	-0.071293
C90	C	0.508953	0.333825	0.000085
H91	H	0.430712	0.383497	-0.071294
H92	H	0.499343	0.327863	-0.119708
H93	H	0.434201	0.278930	-0.071275
H94	H	0.539505	0.385674	0.000064
H95	H	0.474354	0.336753	0.048513
C96	C	0.619349	0.416294	0.000087
C97	C	0.680650	0.349715	0.000078
H98	H	0.640815	0.474145	0.000093
H99	H	0.590134	0.407474	-0.048331
H100	H	0.585530	0.412423	0.048515
H101	H	0.714466	0.353582	-0.048353
H102	H	0.709878	0.358538	0.048501
H103	H	0.848039	0.274686	0.617088
H104	H	0.329640	0.068566	0.000122
H105	H	1.128874	-0.240230	0.000127
H106	H	0.556842	0.016105	0.000111
C107	C	1.066792	0.012181	0.000111
C108	C	1.080344	-0.081578	0.000116
H109	H	1.115790	0.040324	0.000126
H110	H	1.040018	0.027420	-0.048316
H111	H	1.035386	0.032385	0.048531
H112	H	1.111745	-0.101784	-0.048306
H113	H	1.107130	-0.096825	0.048548
H114	H	1.012380	0.097435	0.224558
H115	H	0.705238	0.029832	0.000089
H116	H	0.726847	-0.208694	0.000078
C117	C	1.004309	0.002947	0.838359
C118	C	1.048349	0.058704	0.788097
H119	H	1.039040	-0.034513	0.868009
H120	H	0.970772	0.039131	0.876892
H121	H	0.973255	-0.033602	0.804257
H122	H	1.079398	0.095259	0.822198
H123	H	1.081899	0.022517	0.749559
C124	C	0.701602	-0.448792	-0.071296
C125	C	0.703453	-0.391334	0.000080
H126	H	0.652608	-0.476947	-0.071291
H127	H	0.707475	-0.414781	-0.119713
H128	H	0.743461	-0.493627	-0.071280
H129	H	0.661597	-0.346495	0.000061
H130	H	0.697571	-0.425347	0.048509
