data_functionalizedCrystal
_audit_creation_method	'MofGen! by Chris Wilmer'
_symmetry_space_group_name_H-M	'P1'
_symmetry_Int_Tables_number	1
_symmetry_cell_setting	triclinic
loop_
_symmetry_equiv_pos_as_xyz
  x,y,z
_cell_length_a	16.625548
_cell_length_b	11.169416
_cell_length_c	11.169409
_cell_angle_alpha	89.969126
_cell_angle_beta	90.023153
_cell_angle_gamma	89.988592
loop_
_atom_site_label
_atom_site_type_symbol
_atom_site_fract_x
_atom_site_fract_y
_atom_site_fract_z
Zn1	Zn	1.232769	0.477676	0.678662
Zn2	Zn	1.566102	0.811009	1.011995
Zn3	Zn	1.899436	1.144342	1.345328
Zn4	Zn	1.232695	0.678416	0.477984
Zn5	Zn	1.566028	1.011750	0.811317
Zn6	Zn	1.899361	1.345083	1.144650
Zn7	Zn	1.097925	0.477750	0.477984
Zn8	Zn	1.431258	0.811083	0.811318
Zn9	Zn	1.764591	1.144416	1.144651
Zn10	Zn	1.097930	0.678319	0.678617
Zn11	Zn	1.431263	1.011653	1.011950
Zn12	Zn	1.764596	1.344986	1.345283
O13	O	1.165330	0.578040	0.578312
O14	O	1.498663	0.911373	0.911645
O15	O	1.831996	1.244707	1.244978
O16	O	1.345592	0.504314	0.652060
O17	O	1.678925	0.837647	0.985393
O18	O	2.012258	1.170981	1.318726
O19	O	1.214784	0.651869	0.310034
O20	O	1.548117	0.985202	0.643367
O21	O	1.881451	1.318536	0.976700
O22	O	1.115841	0.309790	0.504624
O23	O	1.449174	0.643123	0.837957
O24	O	1.782508	0.976457	1.171290
O25	O	1.345537	0.651797	0.504622
O26	O	1.678870	0.985131	0.837956
O27	O	2.012204	1.318464	1.171289
O28	O	1.214911	0.309736	0.652060
O29	O	1.548244	0.643069	0.985394
O30	O	1.881577	0.976402	1.318727
O31	O	1.115769	0.504440	0.310034
O32	O	1.449102	0.837773	0.643368
O33	O	1.782436	1.171107	0.976701
O34	O	0.985093	0.504346	0.504580
O35	O	1.318426	0.837679	0.837913
O36	O	1.651760	1.171012	1.171247
O37	O	1.115850	0.651632	0.846573
O38	O	1.449183	0.984965	1.179906
O39	O	1.782516	1.318299	1.513239
O40	O	0.985097	0.651703	0.651984
O41	O	1.318430	0.985037	0.985317
O42	O	1.651763	1.318370	1.318651
O43	O	1.214915	0.504220	0.846605
O44	O	1.548249	0.837553	1.179939
O45	O	1.881582	1.170887	1.513272
O46	O	1.214789	0.846353	0.504579
O47	O	1.548122	1.179686	0.837912
O48	O	1.881455	1.513020	1.171246
O49	O	1.115778	0.846282	0.651983
O50	O	1.449111	1.179615	0.985317
O51	O	1.782444	1.512948	1.318650
C52	C	0.955839	0.578023	0.578278
C53	C	1.289172	0.911356	0.911611
C54	C	1.622505	1.244690	1.244945
C55	C	0.866218	0.578045	0.578292
C56	C	1.199551	0.911378	0.911625
C57	C	1.532884	1.244711	1.244959
C58	C	1.165298	0.889865	0.578302
C59	C	1.498631	1.223198	0.911636
C60	C	1.831964	1.556532	1.244969
C61	C	1.165358	1.023265	0.578339
C62	C	1.498691	1.356598	0.911672
C63	C	1.832024	1.689931	1.245005
C64	C	1.165391	0.577907	0.891354
C65	C	1.498725	0.911240	1.224687
C66	C	1.832058	1.244574	1.558021
C67	C	1.165418	0.577850	1.024754
C68	C	1.498751	0.911183	1.358088
C69	C	1.832084	1.244517	1.691421
C70	C	0.538042	0.578052	0.578343
C71	C	0.871375	0.911386	0.911677
C72	C	1.204709	1.244719	1.245010
C73	C	0.629350	0.578047	0.578325
C74	C	0.962684	0.911380	0.911659
C75	C	1.296017	1.244714	1.244992
C76	C	0.702127	0.578049	0.578317
C77	C	1.035460	0.911382	0.911650
C78	C	1.368794	1.244716	1.244983
C79	C	0.793441	0.578042	0.578301
C80	C	1.126774	0.911376	0.911634
C81	C	1.460108	1.244709	1.244967
C82	C	1.375638	0.578058	0.578346
C83	C	1.708972	0.911392	0.911679
C84	C	2.042305	1.244725	1.245013
C85	C	1.465260	0.578066	0.578361
C86	C	1.798593	0.911399	0.911694
C87	C	2.131926	1.244733	1.245027
C88	C	1.165384	0.264998	0.578347
C89	C	1.498717	0.598331	0.911680
C90	C	1.832050	0.931664	1.245014
C91	C	1.165407	0.131598	0.578362
C92	C	1.498740	0.464931	0.911695
C93	C	1.832073	0.798264	1.245029
C94	C	1.165314	0.578086	0.266487
C95	C	1.498648	0.911420	0.599820
C96	C	1.831981	1.244753	0.933153
C97	C	1.165444	0.577805	0.133087
C98	C	1.498777	0.911138	0.466421
C99	C	1.832111	1.244472	0.799754
