data_functionalizedCrystal
_audit_creation_method	'MofGen! by Chris Wilmer'
_symmetry_space_group_name_H-M	'P1'
_symmetry_Int_Tables_number	1
_symmetry_cell_setting	triclinic
loop_
_symmetry_equiv_pos_as_xyz
  x,y,z
_cell_length_a	25.639239
_cell_length_b	25.639242
_cell_length_c	12.759387
_cell_angle_alpha	89.968335
_cell_angle_beta	89.963582
_cell_angle_gamma	90.034213
loop_
_atom_site_label
_atom_site_type_symbol
_atom_site_fract_x
_atom_site_fract_y
_atom_site_fract_z
Zn1	Zn	-0.208186	0.799274	-0.594277
Zn2	Zn	0.125148	1.132607	-0.260943
Zn3	Zn	0.458481	1.465941	0.072390
Zn4	Zn	-0.295631	0.799183	-0.418580
Zn5	Zn	0.037702	1.132516	-0.085246
Zn6	Zn	0.371035	1.465850	0.248087
Zn7	Zn	-0.208205	0.711836	-0.418579
Zn8	Zn	0.125128	1.045169	-0.085246
Zn9	Zn	0.458462	1.378503	0.248087
Zn10	Zn	-0.295585	0.711796	-0.594185
Zn11	Zn	0.037748	1.045129	-0.260851
Zn12	Zn	0.371082	1.378462	0.072482
O13	O	-0.251902	0.755522	-0.506405
O14	O	0.081432	1.088856	-0.173072
O15	O	0.414765	1.422189	0.160262
O16	O	-0.219797	0.872427	-0.571009
O17	O	0.113537	1.205761	-0.237675
O18	O	0.446870	1.539094	0.095658
O19	O	-0.284061	0.787575	-0.271559
O20	O	0.049272	1.120908	0.061775
O21	O	0.382605	1.454242	0.395108
O22	O	-0.135037	0.723490	-0.441924
O23	O	0.198296	1.056823	-0.108591
O24	O	0.531630	1.390156	0.224742
O25	O	-0.284043	0.872360	-0.441925
O26	O	0.049291	1.205694	-0.108592
O27	O	0.382624	1.539027	0.224742
O28	O	-0.135023	0.787730	-0.571008
O29	O	0.198310	1.121064	-0.237675
O30	O	0.531644	1.454397	0.095658
O31	O	-0.219830	0.723402	-0.271558
O32	O	0.113504	1.056735	0.061775
O33	O	0.446837	1.390068	0.395109
O34	O	-0.219785	0.638665	-0.441835
O35	O	0.113549	0.971999	-0.108502
O36	O	0.446882	1.305332	0.224832
O37	O	-0.283964	0.723421	-0.741218
O38	O	0.049370	1.056754	-0.407885
O39	O	0.382703	1.390088	-0.074551
O40	O	-0.283983	0.638636	-0.570852
O41	O	0.049351	0.971969	-0.237518
O42	O	0.382684	1.305302	0.095815
O43	O	-0.219752	0.787691	-0.741286
O44	O	0.113582	1.121024	-0.407952
O45	O	0.446915	1.454358	-0.074619
O46	O	-0.368790	0.787536	-0.441836
O47	O	-0.035457	1.120869	-0.108503
O48	O	0.297876	1.454203	0.224831
O49	O	-0.368756	0.723333	-0.570852
O50	O	-0.035423	1.056666	-0.237519
O51	O	0.297910	1.389999	0.095815
C52	C	-0.251881	0.619680	-0.506334
C53	C	0.081452	0.953013	-0.173001
C54	C	0.414786	1.286346	0.160333
C55	C	-0.251885	0.561566	-0.506328
C56	C	0.081448	0.894899	-0.172995
C57	C	0.414782	1.228232	0.160338
C58	C	-0.285385	0.201196	-0.573520
C59	C	0.047948	0.534529	-0.240187
C60	C	0.381281	0.867863	0.093146
C61	C	-0.285389	0.146592	-0.573537
C62	C	0.047945	0.479925	-0.240204
C63	C	0.381278	0.813258	0.093130
O64	O	-0.313846	0.118349	-0.630606
O65	O	0.019487	0.451683	-0.297272
O66	O	0.352820	0.785016	0.036061
N67	N	-0.251916	0.119283	-0.506474
N68	N	0.081417	0.452616	-0.173140
N69	N	0.414751	0.785950	0.160193
C70	C	-0.218434	0.146582	-0.439397
C71	C	0.114899	0.479915	-0.106064
C72	C	0.448232	0.813248	0.227270
O73	O	-0.189963	0.118340	-0.382357
O74	O	0.143370	0.451673	-0.049023
O75	O	0.476703	0.785006	0.284310
C76	C	-0.218429	0.201185	-0.439386
C77	C	0.114904	0.534518	-0.106053
C78	C	0.448238	0.867852	0.227280
C79	C	-0.251907	0.228491	-0.506447
C80	C	0.081426	0.561824	-0.173113
C81	C	0.414759	0.895157	0.160220
C82	C	-0.318861	0.228502	-0.640576
C83	C	0.014473	0.561835	-0.307242
C84	C	0.347806	0.895168	0.026091
C85	C	-0.318858	0.283102	-0.640558
C86	C	0.014475	0.616436	-0.307224
C87	C	0.347809	0.949769	0.026109
C88	C	-0.285380	0.310397	-0.573484
C89	C	0.047953	0.643730	-0.240151
C90	C	0.381287	0.977064	0.093183
C91	C	-0.251905	0.283091	-0.506428
C92	C	0.081429	0.616425	-0.173095
C93	C	0.414762	0.949758	0.160238
C94	C	-0.184945	0.228483	-0.372316
C95	C	0.148388	0.561816	-0.038983
C96	C	0.481721	0.895149	0.294351
C97	C	-0.184942	0.283090	-0.372312
C98	C	0.148391	0.616423	-0.038978
C99	C	0.481724	0.949756	0.294355
C100	C	-0.218421	0.310395	-0.439372
C101	C	0.114913	0.643729	-0.106039
C102	C	0.448246	0.977062	0.227295
C103	C	-0.218424	0.364987	-0.439336
C104	C	0.114909	0.698320	-0.106003
C105	C	0.448242	1.031653	0.227330
N106	N	-0.251897	0.392295	-0.506400
N107	N	0.081437	0.725628	-0.173066
N108	N	0.414770	1.058962	0.160267
C109	C	-0.285375	0.365000	-0.573473
C110	C	0.047959	0.698334	-0.240140
C111	C	0.381292	1.031667	0.093193
C112	C	-0.218448	0.031911	-0.439425
C113	C	0.114886	0.365244	-0.106092
C114	C	0.448219	0.698578	0.227241
C115	C	-0.218455	-0.022691	-0.439430
C116	C	0.114878	0.310642	-0.106096
C117	C	0.448211	0.643975	0.227237
C118	C	-0.285409	-0.022678	-0.573571
C119	C	0.047924	0.310656	-0.240238
C120	C	0.381258	0.643989	0.093095
C121	C	-0.285404	0.031926	-0.573561
C122	C	0.047930	0.365259	-0.240228
C123	C	0.381263	0.698592	0.093106
C124	C	-0.251920	0.059220	-0.506489
C125	C	0.081413	0.392553	-0.173155
C126	C	0.414746	0.725886	0.160178
C127	C	-0.285367	0.479665	-0.573429
C128	C	0.047966	0.812999	-0.240096
C129	C	0.381300	1.146332	0.093237
C130	C	-0.285363	0.534271	-0.573402
C131	C	0.047971	0.867604	-0.240069
C132	C	0.381304	1.200937	0.093265
C133	C	-0.218408	0.534252	-0.439265
C134	C	0.114926	0.867586	-0.105932
C135	C	0.448259	1.200919	0.227402
C136	C	-0.218413	0.479652	-0.439288
C137	C	0.114920	0.812985	-0.105954
C138	C	0.448253	1.146318	0.227379
C139	C	-0.251895	0.452360	-0.506379
C140	C	0.081439	0.785693	-0.173045
C141	C	0.414772	1.119026	0.160288
O142	O	-0.189980	0.393264	-0.382300
O143	O	0.143354	0.726597	-0.048966
O144	O	0.476687	1.059930	0.284367
O145	O	-0.313836	0.393249	-0.630514
O146	O	0.019497	0.726582	-0.297181
O147	O	0.352831	1.059916	0.036153
C148	C	-0.387744	0.755434	-0.506357
C149	C	-0.054411	1.088768	-0.173024
C150	C	0.278922	1.422101	0.160310
C151	C	-0.445858	0.755444	-0.506372
C152	C	-0.112525	1.088778	-0.173038
C153	C	0.220808	1.422111	0.160295
C154	C	-0.806226	0.789040	-0.439341
C155	C	-0.472893	1.122373	-0.106008
C156	C	-0.139560	1.455707	0.227326
C157	C	-0.860831	0.789060	-0.439355
C158	C	-0.527497	1.122394	-0.106022
C159	C	-0.194164	1.455727	0.227312
O160	O	-0.889072	0.817533	-0.382310
O161	O	-0.555739	1.150867	-0.048977
O162	O	-0.222405	1.484200	0.284356
N163	N	-0.888141	0.755614	-0.506475
N164	N	-0.554807	1.088947	-0.173141
N165	N	-0.221474	1.422281	0.160192
C166	C	-0.860843	0.722149	-0.573592
C167	C	-0.527510	1.055482	-0.240259
C168	C	-0.194177	1.388816	0.093074
O169	O	-0.889087	0.693703	-0.630685
O170	O	-0.555753	1.027036	-0.297352
O171	O	-0.222420	1.360369	0.035982
C172	C	-0.806240	0.722132	-0.573583
C173	C	-0.472907	1.055465	-0.240250
C174	C	-0.139574	1.388799	0.093084
C175	C	-0.778933	0.755577	-0.506451
C176	C	-0.445600	1.088910	-0.173118
C177	C	-0.112266	1.422243	0.160216
C178	C	-0.778919	0.822482	-0.372216
C179	C	-0.445586	1.155816	-0.038882
C180	C	-0.112253	1.489149	0.294451
C181	C	-0.724319	0.822461	-0.372200
C182	C	-0.390985	1.155795	-0.038867
C183	C	-0.057652	1.489128	0.294466
C184	C	-0.697025	0.788998	-0.439311
C185	C	-0.363692	1.122331	-0.105977
C186	C	-0.030359	1.455665	0.227356
C187	C	-0.724333	0.755555	-0.506436
C188	C	-0.390999	1.088889	-0.173103
C189	C	-0.057666	1.422222	0.160231
C190	C	-0.778944	0.688670	-0.640705
C191	C	-0.445611	1.022003	-0.307372
C192	C	-0.112277	1.355337	0.025962
C193	C	-0.724337	0.688656	-0.640690
C194	C	-0.391004	1.021989	-0.307357
C195	C	-0.057670	1.355323	0.025976
C196	C	-0.697030	0.722101	-0.573559
C197	C	-0.363697	1.055434	-0.240225
C198	C	-0.030363	1.388767	0.093108
C199	C	-0.642439	0.722071	-0.573531
C200	C	-0.309105	1.055404	-0.240198
C201	C	0.024228	1.388738	0.093136
N202	N	-0.615129	0.755517	-0.506411
N203	N	-0.281795	1.088851	-0.173078
N204	N	0.051538	1.422184	0.160255
C205	C	-0.642422	0.788981	-0.439301
C206	C	-0.309089	1.122314	-0.105968
C207	C	0.024245	1.455647	0.227366
C208	C	-0.975514	0.722189	-0.573609
C209	C	-0.642181	1.055522	-0.240275
C210	C	-0.308847	1.388855	0.093058
C211	C	-1.030116	0.722203	-0.573614
C212	C	-0.696783	1.055536	-0.240280
C213	C	-0.363450	1.388869	0.093053
C214	C	-1.030100	0.789115	-0.439377
C215	C	-0.696767	1.122448	-0.106044
C216	C	-0.363433	1.455781	0.227289
C217	C	-0.975497	0.789098	-0.439368
C218	C	-0.642163	1.122431	-0.106034
C219	C	-0.308830	1.455764	0.227299
C220	C	-0.948204	0.755635	-0.506489
C221	C	-0.614871	1.088968	-0.173156
C222	C	-0.281538	1.422301	0.160178
C223	C	-0.527757	0.788934	-0.439274
C224	C	-0.194424	1.122267	-0.105940
C225	C	0.138910	1.455600	0.227393
C226	C	-0.473152	0.788908	-0.439261
C227	C	-0.139818	1.122241	-0.105928
C228	C	0.193515	1.455575	0.227405
C229	C	-0.473173	0.721998	-0.573501
C230	C	-0.139840	1.055331	-0.240168
C231	C	0.193494	1.388665	0.093166
C232	C	-0.527774	0.722021	-0.573510
C233	C	-0.194440	1.055355	-0.240177
C234	C	0.138893	1.388688	0.093157
C235	C	-0.555064	0.755493	-0.506393
C236	C	-0.221731	1.088827	-0.173059
C237	C	0.111602	1.422160	0.160274
O238	O	-0.614163	0.693614	-0.630550
O239	O	-0.280830	1.026947	-0.297216
O240	O	0.052504	1.360281	0.036117
O241	O	-0.614172	0.817427	-0.382228
O242	O	-0.280839	1.150760	-0.048894
O243	O	0.052494	1.484094	0.284439
C244	C	-0.115529	0.755625	-0.506476
C245	C	0.217805	1.088958	-0.173143
C246	C	0.551138	1.422291	0.160190
C247	C	-0.057415	0.755668	-0.506507
C248	C	0.275919	1.089002	-0.173173
C249	C	0.609252	1.422335	0.160160
C250	C	-0.251850	0.755562	-0.780439
C251	C	0.081483	1.088895	-0.447105
C252	C	0.414816	1.422228	-0.113772
C253	C	-0.251829	0.755579	-0.897216
C254	C	0.081505	1.088912	-0.563882
C255	C	0.414838	1.422245	-0.230549
C256	C	-0.251923	0.891895	-0.506477
C257	C	0.081411	1.225228	-0.173144
C258	C	0.414744	1.558562	0.160189
C259	C	-0.251932	0.950009	-0.506508
C260	C	0.081402	1.283343	-0.173175
C261	C	0.414735	1.616676	0.160159
C262	C	-0.184969	0.822508	-0.897306
C263	C	0.148364	1.155841	-0.563972
C264	C	0.481698	1.489174	-0.230639
C265	C	-0.151531	0.855979	-0.952212
C266	C	0.181802	1.189313	-0.618878
C267	C	0.515135	1.522646	-0.285545
C268	C	-0.151512	0.855992	-1.061933
C269	C	0.181821	1.189325	-0.728600
C270	C	0.515154	1.522659	-0.395267
C271	C	-0.184933	0.822528	-1.116752
C272	C	0.148400	1.155862	-0.783418
C273	C	0.481733	1.489195	-0.450085
C274	C	-0.218371	0.789056	-1.061846
C275	C	0.114962	1.122390	-0.728512
C276	C	0.448296	1.455723	-0.395179
C277	C	-0.218388	0.789048	-0.952121
C278	C	0.114946	1.122382	-0.618788
C279	C	0.448279	1.455715	-0.285455
C280	C	-0.285227	0.722126	-1.061756
C281	C	0.048106	1.055459	-0.728422
C282	C	0.381440	1.388792	-0.395089
C283	C	-0.285250	0.722115	-0.952034
C284	C	0.048084	1.055448	-0.618701
C285	C	0.381417	1.388781	-0.285367
C286	C	-0.318648	0.688662	-1.116574
C287	C	0.014685	1.021995	-0.783241
C288	C	0.348019	1.355328	-0.449907
C289	C	-0.352089	0.655192	-1.061668
C290	C	-0.018756	0.988525	-0.728335
C291	C	0.314577	1.321859	-0.395001
C292	C	-0.352107	0.655181	-0.951940
C293	C	-0.018774	0.988514	-0.618606
C294	C	0.314559	1.321848	-0.285273
C295	C	-0.318687	0.688643	-0.897128
C296	C	0.014646	1.021976	-0.563795
C297	C	0.347979	1.355310	-0.230461
C298	C	-0.251915	0.755513	-0.233438
C299	C	0.081418	1.088846	0.099896
C300	C	0.414752	1.422180	0.433229
C301	C	-0.251790	0.755597	-0.116661
C302	C	0.081544	1.088931	0.216672
C303	C	0.414877	1.422264	0.550005
H304	H	-0.191199	-0.044919	-0.384812
H305	H	0.142134	0.288414	-0.051479
H306	H	0.475467	0.621748	0.281855
H307	H	-0.450942	0.694751	-0.628138
H308	H	-0.117609	1.028084	-0.294805
H309	H	0.215724	1.361418	0.038528
F310	F	-0.318627	0.688676	-1.233350
F311	F	0.014707	1.022009	-0.900017
F312	F	0.348040	1.355342	-0.566683
H313	H	-0.191182	0.054130	-0.384800
H314	H	0.142151	0.387464	-0.051466
H315	H	0.475485	0.720797	0.281867
F316	F	-0.387651	0.619579	-1.120015
F317	F	-0.054318	0.952912	-0.786681
F318	F	0.279015	1.286245	-0.453348
F319	F	-1.059173	0.686600	-0.645052
F320	F	-0.725839	1.019934	-0.311719
F321	F	-0.392506	1.353267	0.021614
F322	F	-0.387694	0.619552	-0.893513
F323	F	-0.054361	0.952885	-0.560180
F324	F	0.278972	1.286219	-0.226846
F325	F	-0.149310	0.199434	-0.300945
F326	F	0.184024	0.532767	0.032388
F327	F	0.517357	0.866100	0.365721
F328	F	-0.556837	0.686417	-0.644939
F329	F	-0.223503	1.019750	-0.311606
F330	F	0.109830	1.353083	0.021728
H331	H	-0.318701	0.688639	-0.807787
H332	H	0.014632	1.021973	-0.474453
H333	H	0.347966	1.355306	-0.141120
H334	H	-0.312627	0.556501	-0.628011
H335	H	0.020706	0.889834	-0.294678
H336	H	0.354040	1.223167	0.038655
F337	F	-0.946439	0.824694	-0.367918
F338	F	-0.613106	1.158027	-0.034585
F339	F	-0.279773	1.491360	0.298748
F340	F	-0.946472	0.686567	-0.645046
F341	F	-0.613139	1.019900	-0.311712
F342	F	-0.279805	1.353234	0.021621
F343	F	-0.149303	0.312135	-0.300924
F344	F	0.184030	0.645468	0.032410
F345	F	0.517364	0.978801	0.365743
H346	H	-1.052332	0.816364	-0.384736
H347	H	-0.718999	1.149698	-0.051403
H348	H	-0.385665	1.483031	0.281931
H349	H	-0.801168	0.661433	-0.695366
H350	H	-0.467835	0.994766	-0.362033
H351	H	-0.134501	1.328100	-0.028699
H352	H	-0.191154	0.457418	-0.384680
H353	H	0.142180	0.790752	-0.051347
H354	H	0.475513	1.124085	0.281987
H355	H	-0.346123	0.206284	-0.695201
H356	H	-0.012789	0.539617	-0.361868
H357	H	0.320544	0.872951	-0.028534
H358	H	-0.702118	0.661407	-0.695352
H359	H	-0.368785	0.994740	-0.362018
H360	H	-0.035451	1.328074	-0.028685
H361	H	-0.312629	0.457451	-0.628063
H362	H	0.020704	0.790784	-0.294730
H363	H	0.354037	1.124117	0.038603
F364	F	-0.321036	-0.051736	-0.644966
F365	F	0.012298	0.281597	-0.311633
F366	F	0.345631	0.614930	0.021701
F367	F	-0.556794	0.824558	-0.367840
F368	F	-0.223461	1.157891	-0.034506
F369	F	0.109873	1.491225	0.298827
F370	F	-0.354488	0.312156	-0.711937
F371	F	-0.021155	0.645490	-0.378604
F372	F	0.312178	0.978823	-0.045271
H373	H	-0.312664	0.054154	-0.628169
H374	H	0.020669	0.387488	-0.294836
H375	H	0.354003	0.720821	0.038498
F376	F	-0.182780	0.563311	-0.367883
F377	F	0.150553	0.896644	-0.034550
F378	F	0.483887	1.229978	0.298783
F379	F	-0.444092	0.824506	-0.367807
F380	F	-0.110759	1.157839	-0.034474
F381	F	0.222574	1.491172	0.298860
H382	H	-0.702088	0.849696	-0.317539
H383	H	-0.368755	1.183030	0.015794
H384	H	-0.035422	1.516363	0.349127
F385	F	-0.807959	0.858103	-0.300783
F386	F	-0.474625	1.191436	0.032550
F387	F	-0.141292	1.524770	0.365884
H388	H	-0.184986	0.822505	-0.807964
H389	H	0.148347	1.155839	-0.474631
H390	H	0.481681	1.489172	-0.141298
F391	F	-0.115954	0.891582	-0.893863
F392	F	0.217379	1.224915	-0.560530
F393	F	0.550713	1.558249	-0.227196
H394	H	-0.124281	0.883244	-1.106637
H395	H	0.209052	1.216578	-0.773304
H396	H	0.542385	1.549911	-0.439971
H397	H	-0.184910	0.822537	-1.206093
H398	H	0.148423	1.155871	-0.872759
H399	H	0.481756	1.489204	-0.539426
