data_functionalizedCrystal
_audit_creation_method	'MofGen! by Chris Wilmer'
_symmetry_space_group_name_H-M	'P1'
_symmetry_Int_Tables_number	1
_symmetry_cell_setting	triclinic
loop_
_symmetry_equiv_pos_as_xyz
  x,y,z
_cell_length_a	14.853567
_cell_length_b	14.853567
_cell_length_c	13.930277
_cell_angle_alpha	89.997356
_cell_angle_beta	89.996364
_cell_angle_gamma	96.365069
loop_
_atom_site_label
_atom_site_type_symbol
_atom_site_fract_x
_atom_site_fract_y
_atom_site_fract_z
O1	O	-1.196369	0.117691	0.079769
O2	O	-0.933909	0.131713	0.079786
O3	O	-1.072150	-0.006528	0.079766
O4	O	-1.058128	0.255932	0.079789
O5	O	-1.072130	-0.006506	-0.079896
O6	O	-0.933889	0.131734	-0.079876
O7	O	-1.196349	0.117713	-0.079893
Zn8	Zn	-1.065116	0.124727	-0.105234
Zn9	Zn	-1.065142	0.124699	0.105127
O10	O	-1.058108	0.255953	-0.079873
C11	C	-0.900311	0.131088	-0.000043
C12	C	-0.800227	0.129184	-0.000037
N13	N	-1.065104	0.124745	-0.248800
C14	C	-1.229947	0.118337	-0.000062
C15	C	-1.330031	0.120241	-0.000062
C16	C	-0.387693	0.039019	-0.000066
C17	C	-0.366412	0.203251	-0.000051
C18	C	-0.460446	0.205042	-0.000048
C19	C	-0.518108	0.123819	-0.000052
C20	C	-0.481736	0.040806	-0.000060
C21	C	-0.496825	0.288053	-0.000030
C22	C	-0.590864	0.289846	-0.000026
C23	C	-0.648528	0.208623	-0.000037
C24	C	-0.612150	0.125607	-0.000046
C25	C	-0.669812	0.044384	-0.000051
C26	C	-0.633437	-0.038633	-0.000067
C27	C	-0.539399	-0.040417	-0.000072
C28	C	-0.742565	0.210407	-0.000032
C29	C	-0.763855	0.046172	-0.000045
C30	C	-1.058754	0.289531	-0.000039
C31	C	-1.060657	0.389615	-0.000030
C32	C	-1.071504	-0.040106	-0.000066
C33	C	-1.069601	-0.140189	-0.000068
C34	C	-1.150823	0.802149	-0.000071
C35	C	-0.986590	0.823430	-0.000059
C36	C	-0.984800	0.729396	-0.000050
C37	C	-1.066023	0.671734	-0.000052
C38	C	-1.149036	0.708106	-0.000064
C39	C	-0.901789	0.693017	-0.000048
C40	C	-0.899996	0.598978	-0.000039
C41	C	-0.981219	0.541314	-0.000035
C42	C	-1.064235	0.577691	-0.000046
C43	C	-1.145458	0.520029	-0.000048
C44	C	-1.228475	0.556405	-0.000052
C45	C	-1.230259	0.650442	-0.000060
C46	C	-0.979435	0.447277	-0.000028
C47	C	-1.143670	0.425987	-0.000042
C48	C	-1.119898	0.179462	-0.701058
C49	C	-1.010414	0.069899	-0.701050
C50	C	-1.010401	0.069914	-0.600555
C51	C	-1.065138	0.124702	-0.550306
C52	C	-1.119888	0.179476	-0.600553
C53	C	-0.955658	0.015134	-0.550300
C54	C	-0.955643	0.015145	-0.449798
C55	C	-1.010376	0.069939	-0.399548
C56	C	-1.065128	0.124716	-0.449801
C57	C	-1.119865	0.179505	-0.399552
C58	C	-1.174612	0.234287	-0.449804
C59	C	-1.174621	0.234270	-0.550302
C60	C	-1.010367	0.069957	-0.299049
C61	C	-1.119855	0.179519	-0.299047
N62	N	-1.065161	0.124673	0.248693
H63	H	-0.810798	-0.019971	-0.000052
Br64	Br	-0.791930	0.323063	0.000001
Br65	Br	-0.711703	-0.148859	-0.000062
Br66	Br	-0.791565	0.771274	-0.000050
H67	H	-1.294606	0.509444	-0.000060
Br68	Br	-1.248911	0.308614	-0.618505
H69	H	-1.297847	0.680068	-0.000088
H70	H	-1.164470	0.224067	-0.741977
Br71	Br	-0.787333	0.549619	-0.000030
Br72	Br	-0.866779	0.397912	-0.000036
H73	H	-1.164424	0.224140	-0.258142
Br74	Br	-0.490027	-0.153073	-0.000090
H75	H	-0.965856	0.025287	-0.741969
H76	H	-1.219183	0.278892	-0.408878
Br77	Br	-0.640223	0.402509	-0.000004
Br78	Br	-0.936094	-0.004405	-0.230854
Br79	Br	-0.881377	-0.059217	-0.618498
H80	H	-0.358072	-0.028572	-0.000083
Br81	Br	-0.881329	-0.059184	-0.381608
H82	H	-0.449870	0.354180	-0.000016
Br83	Br	-1.253907	0.347738	-0.000034
Br84	Br	-1.263484	0.851511	-0.000066
H85	H	-0.319459	0.269379	-0.000039
H86	H	-0.920463	0.870383	-0.000063
