data_functionalizedCrystal
_audit_creation_method	'MofGen! by Chris Wilmer'
_symmetry_space_group_name_H-M	'P1'
_symmetry_Int_Tables_number	1
_symmetry_cell_setting	triclinic
loop_
_symmetry_equiv_pos_as_xyz
  x,y,z
_cell_length_a	19.121063
_cell_length_b	17.638686
_cell_length_c	17.640968
_cell_angle_alpha	114.307628
_cell_angle_beta	98.351500
_cell_angle_gamma	81.676033
loop_
_atom_site_label
_atom_site_type_symbol
_atom_site_fract_x
_atom_site_fract_y
_atom_site_fract_z
Zn1	Zn	-0.388282	1.338519	0.735687
Zn2	Zn	0.111718	1.838519	1.235687
Zn3	Zn	-0.523526	1.305137	0.603248
Zn4	Zn	-0.023526	1.805137	1.103248
Zn5	Zn	-0.388249	1.172848	0.570080
Zn6	Zn	0.111751	1.672848	1.070080
Zn7	Zn	-0.484517	1.196815	0.711660
Zn8	Zn	0.015483	1.696815	1.211660
O9	O	-0.446144	1.253330	0.655169
O10	O	0.053856	1.753330	1.155169
O11	O	-0.422562	1.448759	0.742055
O12	O	0.077438	1.948759	1.242055
O13	O	-0.521893	1.263588	0.484170
O14	O	-0.021893	1.763588	0.984170
O15	O	-0.291365	1.198764	0.588223
O16	O	0.208635	1.698764	1.088223
O17	O	-0.521925	1.424233	0.644752
O18	O	-0.021925	1.924233	1.144752
O19	O	-0.291389	1.320482	0.709894
O20	O	0.208611	1.820482	1.209894
O21	O	-0.422506	1.166395	0.459802
O22	O	0.077494	1.666395	0.959802
O23	O	-0.384680	1.061359	0.564925
O24	O	0.115320	1.561359	1.064925
O25	O	-0.455439	1.239613	0.829525
O26	O	0.044561	1.739613	1.329525
O27	O	-0.455407	1.078968	0.668943
O28	O	0.044593	1.578968	1.168943
O29	O	-0.384736	1.343723	0.847178
O30	O	0.115264	1.843723	1.347178
O31	O	-0.615240	1.286828	0.621454
O32	O	-0.115240	1.786828	1.121454
O33	O	-0.586580	1.207244	0.701104
O34	O	-0.086580	1.707244	1.201104
C35	C	-0.415808	1.040432	0.610728
C36	C	0.084192	1.540432	1.110728
C37	C	-0.402844	0.949357	0.591736
C38	C	0.097156	1.449357	1.091736
C39	C	-0.626033	1.246041	0.662293
C40	C	-0.126033	1.746041	1.162293
C41	C	-0.702997	1.243003	0.665384
C42	C	-0.202997	1.743003	1.165384
C43	C	-0.544751	0.695670	0.799660
C44	C	-0.044751	1.195670	1.299660
C45	C	-0.532566	0.610087	0.781793
C46	C	-0.032566	1.110087	1.281793
C47	C	-0.458757	0.591757	0.673636
C48	C	0.041243	1.091757	1.173636
C49	C	-0.470939	0.677340	0.691491
C50	C	0.029061	1.177340	1.191491
C51	C	-0.513936	0.729290	0.754504
C52	C	-0.013936	1.229290	1.254504
C53	C	-0.440123	0.710960	0.646336
C54	C	0.059877	1.210960	1.146336
C55	C	-0.452301	0.796535	0.664192
C56	C	0.047699	1.296535	1.164192
C57	C	-0.495294	0.848492	0.727204
C58	C	0.004706	1.348492	1.227204
C59	C	-0.526113	0.814866	0.772361
C60	C	-0.026113	1.314866	1.272361
C61	C	-0.397123	0.659009	0.583327
C62	C	0.102877	1.159009	1.083327
C63	C	-0.366307	0.692628	0.538171
C64	C	0.133693	1.192628	1.038171
C65	C	-0.378489	0.778205	0.556023
C66	C	0.121511	1.278205	1.056023
C67	C	-0.421482	0.830161	0.619035
C68	C	0.078518	1.330161	1.119035
C69	C	-0.347669	0.811830	0.510867
C70	C	0.152331	1.311830	1.010867
C71	C	-0.359847	0.897406	0.528723
C72	C	0.140153	1.397406	1.028723
C73	C	-0.433659	0.915737	0.636892
C74	C	0.066341	1.415737	1.136892
C75	C	-0.754053	1.283061	0.625419
C76	C	-0.254053	1.783061	1.125419
C77	C	-0.826368	1.280210	0.628332
C78	C	-0.326368	1.780210	1.128332
C79	C	-0.847625	1.237296	0.671205
C80	C	-0.347625	1.737296	1.171205
C81	C	-0.796563	1.197237	0.711176
C82	C	-0.296563	1.697237	1.211176
C83	C	-0.724250	1.200093	0.708267
C84	C	-0.224250	1.700093	1.208267
C85	C	-1.065220	1.226600	0.682063
C86	C	-0.565220	1.726600	1.182063
C87	C	-1.137540	1.223745	0.684966
C88	C	-0.637540	1.723745	1.184966
C89	C	-1.167339	1.306720	0.602123
C90	C	-0.667339	1.806720	1.102123
C91	C	-1.095023	1.309568	0.599214
C92	C	-0.595023	1.809568	1.099214
C93	C	-1.043967	1.269513	0.639188
C94	C	-0.543967	1.769513	1.139188
C95	C	-0.921542	1.234378	0.674181
C96	C	-0.421542	1.734378	1.174181
C97	C	-0.970052	1.272436	0.636217
C98	C	-0.470052	1.772436	1.136217
C99	C	-0.265553	1.260673	0.648039
C100	C	0.234447	1.760673	1.148039
C101	C	-0.188596	1.263803	0.645001
C102	C	0.311404	1.763803	1.145001
C103	C	-0.415740	1.298065	0.868917
C104	C	0.084260	1.798065	1.368917
C105	C	-0.402783	1.317129	0.960004
C106	C	0.097217	1.817129	1.460004
C107	C	-0.476598	1.467059	0.699783
C108	C	0.023402	1.967059	1.199783
C109	C	-0.489577	1.558138	0.718796
C110	C	0.010423	2.058138	1.218796
C111	C	-0.476386	1.208818	0.442260
C112	C	0.023614	1.708818	0.942260
C113	C	-0.489170	1.189921	0.351198
C114	C	0.010830	1.689921	0.851198
C115	C	-0.544239	1.108836	1.213630
C116	C	-0.044239	1.608836	1.713630
C117	C	-0.532059	1.126767	1.299223
C118	C	-0.032059	1.626767	1.799223
C119	C	-0.458441	1.235167	1.317593
C120	C	0.041559	1.735167	1.817593
C121	C	-0.470613	1.217242	1.231999
C122	C	0.029387	1.717242	1.731999
C123	C	-0.513513	1.154077	1.180024
C124	C	-0.013513	1.654077	1.680024
C125	C	-0.439887	1.262483	1.198393
C126	C	0.060113	1.762483	1.698393
C127	C	-0.452061	1.244563	1.112807
C128	C	0.047939	1.744563	1.612807
C129	C	-0.494961	1.181402	1.060827
C130	C	0.005039	1.681402	1.560827
C131	C	-0.525687	1.136157	1.094438
C132	C	-0.025687	1.636157	1.594438
C133	C	-0.396992	1.325652	1.250371
C134	C	0.103008	1.825652	1.750371
C135	C	-0.366266	1.370893	1.216765
C136	C	0.133734	1.870893	1.716765
C137	C	-0.378435	1.352969	1.131176
C138	C	0.121565	1.852969	1.631176
C139	C	-0.421335	1.289808	1.079196
C140	C	0.078665	1.789808	1.579196
C141	C	-0.347709	1.398214	1.097565
C142	C	0.152291	1.898214	1.597565
C143	C	-0.359883	1.380294	1.011979
C144	C	0.140117	1.880294	1.511979
C145	C	-0.433509	1.271888	0.993610
C146	C	0.066491	1.771888	1.493610
H147	H	-0.468676	0.958037	0.688199
H148	H	0.031324	1.458037	1.188199
F149	F	-0.944173	1.188706	0.719809
F150	F	-0.444173	1.688706	1.219809
H151	H	-0.736751	1.318002	0.590502
H152	H	-0.236751	1.818002	1.090502
F153	F	-0.947426	1.318111	0.590593
F154	F	-0.447426	1.818111	1.090593
F155	F	-0.880703	1.322848	0.585797
F156	F	-0.380703	1.822848	1.085797
H157	H	-0.579153	1.057381	1.171304
H158	H	-0.079153	1.557381	1.671304
F159	F	-1.010891	1.183969	0.724606
F160	F	-0.510891	1.683969	1.224606
F161	F	-0.564763	1.078608	1.334985
F162	F	-0.064763	1.578608	1.834985
H163	H	-0.682679	1.167475	0.740813
H164	H	-0.182679	1.667475	1.240813
F165	F	-0.301902	0.756533	0.443814
F166	F	0.198098	1.256533	0.943814
H167	H	-0.423514	1.286598	1.359923
H168	H	0.076486	1.786598	1.859923
F169	F	-0.384160	0.567931	0.564326
F170	F	0.115840	1.067931	1.064326
H171	H	-0.561129	0.857167	0.823668
H172	H	-0.061129	1.357167	1.323668
F173	F	-0.571340	1.068922	1.039116
F174	F	-0.071340	1.568922	1.539116
H175	H	-0.468423	1.220433	0.951284
H176	H	0.031577	1.720433	1.451284
H177	H	-0.557660	0.582719	0.818572
H178	H	-0.057660	1.082719	1.318572
H179	H	-1.077718	1.344512	0.564303
H180	H	-0.577718	1.844512	1.064303
H181	H	-0.504876	1.166816	0.991139
H182	H	-0.004876	1.666816	1.491139
F183	F	-0.508253	0.939571	0.746210
F184	F	-0.008253	1.439571	1.246210
F185	F	-0.590521	0.750963	0.866719
F186	F	-0.090521	1.250963	1.366719
F187	F	-1.221681	1.349350	0.559587
F188	F	-0.721681	1.849350	1.059587
H189	H	-0.331297	0.650320	0.486868
H190	H	0.168703	1.150320	0.986868
H191	H	-0.387083	1.340243	1.320060
H192	H	0.112917	1.840243	1.820060
F193	F	-0.320612	1.438118	1.272089
F194	F	0.179388	1.938118	1.772089
H195	H	-0.813876	1.162300	0.746089
H196	H	-0.313876	1.662300	1.246089
H197	H	-0.312786	1.449649	1.139897
H198	H	0.187214	1.949649	1.639897
H199	H	-0.334862	1.417133	0.984617
H200	H	0.165138	1.917133	1.484617
H201	H	-0.334748	0.924781	0.491959
H202	H	0.165252	1.424781	0.991959
H203	H	-1.154843	1.188812	0.719895
H204	H	-0.654843	1.688812	1.219895
H205	H	-0.423747	0.549448	0.622333
H206	H	0.076253	1.049448	1.122333
