data_functionalizedCrystal
_audit_creation_method	'MofGen! by Chris Wilmer'
_symmetry_space_group_name_H-M	'P1'
_symmetry_Int_Tables_number	1
_symmetry_cell_setting	triclinic
loop_
_symmetry_equiv_pos_as_xyz
  x,y,z
_cell_length_a	19.077105
_cell_length_b	19.121111
_cell_length_c	19.077174
_cell_angle_alpha	85.193718
_cell_angle_beta	85.483752
_cell_angle_gamma	89.735527
loop_
_atom_site_label
_atom_site_type_symbol
_atom_site_fract_x
_atom_site_fract_y
_atom_site_fract_z
Zn1	Zn	1.079653	0.341256	-0.455855
Zn2	Zn	1.579653	0.841256	0.044145
Zn3	Zn	1.070204	0.453789	-0.342588
Zn4	Zn	1.570204	0.953789	0.157412
Zn5	Zn	0.957442	0.331438	-0.332850
Zn6	Zn	1.457442	0.831438	0.167150
Zn7	Zn	0.957100	0.453743	-0.455704
Zn8	Zn	1.457100	0.953743	0.044296
O9	O	1.016100	0.395056	-0.396749
O10	O	1.516100	0.895056	0.103251
O11	O	1.176880	0.360311	-0.444969
O12	O	1.676880	0.860311	0.055031
O13	O	1.051435	0.433469	-0.242478
O14	O	1.551435	0.933469	0.257522
O15	O	0.977752	0.234459	-0.345154
O16	O	1.477752	0.734459	0.154846
O17	O	1.169938	0.442989	-0.361752
O18	O	1.669938	0.942989	0.138248
O19	O	1.067539	0.241672	-0.435526
O20	O	1.567539	0.741672	0.064474
O21	O	0.968589	0.343578	-0.235324
O22	O	1.468589	0.843578	0.264676
O23	O	0.858917	0.343534	-0.345008
O24	O	1.358917	0.843534	0.154992
O25	O	0.977168	0.442911	-0.554542
O26	O	1.477168	0.942911	-0.054542
O27	O	0.858665	0.433391	-0.435268
O28	O	1.358665	0.933391	0.064732
O29	O	1.067207	0.360267	-0.554653
O30	O	1.567207	0.860267	-0.054653
O31	O	1.051103	0.552064	-0.361605
O32	O	1.551103	1.052064	0.138395
O33	O	0.968005	0.552030	-0.444711
O34	O	1.468005	1.052030	0.055289
C35	C	0.833256	0.387392	-0.389065
C36	C	1.333256	0.887392	0.110935
C37	C	0.755035	0.384131	-0.385795
C38	C	1.255035	0.884131	0.114205
C39	C	0.718168	0.429448	-0.431185
C40	C	1.218168	0.929448	0.068815
C41	C	0.644671	0.426375	-0.428115
C42	C	1.144671	0.926375	0.071885
C43	C	0.608042	0.377988	-0.379653
C44	C	1.108042	0.877988	0.120347
C45	C	0.644914	0.332667	-0.334261
C46	C	1.144914	0.832667	0.165739
C47	C	0.718410	0.335737	-0.337335
C48	C	1.218410	0.835737	0.162665
C49	C	0.388246	0.363778	-0.365433
C50	C	0.888246	0.863778	0.134567
C51	C	0.314745	0.360713	-0.362361
C52	C	0.814745	0.860713	0.137639
C53	C	0.314508	0.454421	-0.456217
C54	C	0.814508	0.954421	0.043783
C55	C	0.388004	0.457490	-0.459283
C56	C	0.888004	0.957490	0.040717
C57	C	0.424870	0.412166	-0.413894
C58	C	0.924870	0.912166	0.086106
N59	N	0.532917	0.374847	-0.376513
N60	N	1.032917	0.874847	0.123487
N61	N	0.499995	0.415304	-0.417038
N62	N	0.999995	0.915304	0.082962
C63	C	1.008511	0.577532	-0.404215
C64	C	1.508511	1.077532	0.095785
C65	C	1.005330	0.655599	-0.407435
C66	C	1.505330	1.155599	0.092565
C67	C	1.047136	0.692273	-0.365718
C68	C	1.547136	1.192273	0.134282
C69	C	1.044148	0.765626	-0.368751
C70	C	1.544148	1.265626	0.131249
C71	C	0.999351	0.802303	-0.413497
C72	C	1.499351	1.302303	0.086503
C73	C	0.957543	0.765625	-0.455219
C74	C	1.457543	1.265625	0.044781
C75	C	0.960535	0.692274	-0.452189
C76	C	1.460535	1.192274	0.047811
C77	C	0.988155	1.023777	-0.424811
C78	C	1.488155	1.523777	0.075189
C79	C	0.985164	1.097134	-0.427836
C80	C	1.485164	1.597134	0.072164
C81	C	1.071771	1.097130	-0.341368
C82	C	1.571771	1.597130	0.158632
C83	C	1.074756	1.023777	-0.338339
C84	C	1.574756	1.523777	0.161661
C85	C	1.032951	0.987105	-0.380064
C86	C	1.532951	1.487105	0.119936
C87	C	0.996294	0.877282	-0.416597
C88	C	1.496294	1.377282	0.083403
C89	C	1.036012	0.912128	-0.376967
C90	C	1.536012	1.412128	0.123033
C91	C	1.199657	0.402751	-0.404464
C92	C	1.699657	0.902751	0.095536
C93	C	1.277879	0.406030	-0.407751
C94	C	1.777879	0.906030	0.092249
C95	C	1.023203	0.402679	-0.580936
C96	C	1.523203	0.902679	-0.080936
C97	C	1.026230	0.405927	-0.659425
C98	C	1.526230	0.905927	-0.159425
C99	C	1.023732	1.211870	-0.389279
C100	C	1.523732	1.711870	0.110721
C101	C	1.026971	1.133807	-0.386119
C102	C	1.526971	1.633807	0.113881
C103	C	0.984521	0.360653	-0.692574
C104	C	1.484521	0.860653	-0.192574
C105	C	0.987363	0.363711	-0.766324
C106	C	1.487363	0.863711	-0.266324
C107	C	1.031917	0.412040	-0.806923
C108	C	1.531917	0.912040	-0.306923
C109	C	1.073628	0.457319	-0.773769
C110	C	1.573628	0.957319	-0.273769
C111	C	1.070782	0.454264	-0.700021
C112	C	1.570782	0.954264	-0.200021
C113	C	1.045049	0.426198	-1.027885
C114	C	1.545049	0.926198	-0.527885
C115	C	1.047893	0.429248	-1.101638
C116	C	1.547893	0.929248	-0.601638
C117	C	0.961626	0.335640	-1.094188
C118	C	1.461626	0.835640	-0.594188
C119	C	0.958788	0.332587	-1.020439
C120	C	1.458788	0.832587	-0.520439
C121	C	1.000496	0.377868	-0.987291
C122	C	1.500496	0.877868	-0.487291
N123	N	1.034824	0.415165	-0.882306
N124	N	1.534824	0.915165	-0.382306
N125	N	0.997585	0.374746	-0.911909
N126	N	1.497585	0.874746	-0.411909
C127	C	1.009066	0.387414	-0.213279
C128	C	1.509066	0.887414	0.286721
C129	C	1.006184	0.383974	-0.134787
C130	C	1.506184	0.883974	0.365213
H131	H	0.417823	0.496893	-0.498745
H132	H	0.917823	0.996893	0.001255
H133	H	0.615085	0.293266	-0.294805
H134	H	1.115085	0.793266	0.205195
H135	H	0.748426	0.298832	-0.300377
H136	H	1.248426	0.798832	0.199623
H137	H	0.926493	0.662415	-0.486161
H138	H	1.426493	1.162415	0.013839
H139	H	1.105808	1.126996	-0.307399
H140	H	1.605808	1.626996	0.192601
H141	H	0.927670	0.298775	-1.121185
H142	H	1.427670	0.798775	-0.621185
H143	H	1.072489	0.882263	-0.340537
H144	H	1.572489	1.382263	0.159463
H145	H	0.948694	1.126996	-0.464287
H146	H	1.448694	1.626996	0.035713
H147	H	1.109901	0.496674	-0.806830
H148	H	1.609901	0.996674	-0.306830
H149	H	0.418253	0.326878	-0.328469
H150	H	0.918253	0.826878	0.171531
H151	H	0.953396	0.326846	-0.793310
H152	H	1.453396	0.826846	-0.293310
H153	H	0.284484	0.491320	-0.493171
H154	H	0.784484	0.991320	0.006829
H155	H	1.079003	0.463077	-1.000906
H156	H	1.579003	0.963077	-0.500906
H157	H	0.922505	0.293234	-0.987388
H158	H	1.422505	0.793234	-0.487388
H159	H	1.084178	0.468605	-1.134692
H160	H	1.584178	0.968605	-0.634692
H161	H	1.104752	0.491127	-0.673032
H162	H	1.604752	0.991127	-0.173032
H163	H	1.083612	0.662414	-0.329277
H164	H	1.583612	1.162414	0.170723
H165	H	0.954114	0.993925	-0.458783
H166	H	1.454114	1.493925	0.041217
H167	H	0.614657	0.463277	-0.465076
H168	H	1.114657	0.963277	0.034924
H169	H	0.747986	0.468852	-0.470646
H170	H	1.247986	0.968852	0.029354
H171	H	0.921071	0.795494	-0.491656
H172	H	1.421071	1.295494	0.008344
H173	H	0.284925	0.321302	-0.322901
H174	H	0.784925	0.821302	0.177099
H175	H	1.078191	0.795482	-0.334780
H176	H	1.578191	1.295482	0.165220
H177	H	0.948244	0.321294	-0.659523
H178	H	1.448244	0.821294	-0.159523
H179	H	1.111234	0.993915	-0.301903
H180	H	1.611234	1.493915	0.198097
H181	H	0.959818	0.907153	-0.453028
H182	H	1.459818	1.407153	0.046972
