data_functionalizedCrystal
_audit_creation_method	'MofGen! by Chris Wilmer'
_symmetry_space_group_name_H-M	'P1'
_symmetry_Int_Tables_number	1
_symmetry_cell_setting	triclinic
loop_
_symmetry_equiv_pos_as_xyz
  x,y,z
_cell_length_a	8.497367
_cell_length_b	8.497374
_cell_length_c	18.101398
_cell_angle_alpha	90.008882
_cell_angle_beta	90.038203
_cell_angle_gamma	90.038609
loop_
_atom_site_label
_atom_site_type_symbol
_atom_site_fract_x
_atom_site_fract_y
_atom_site_fract_z
Zn1	Zn	0.628529	0.892774	1.132341
Zn2	Zn	0.892276	0.629193	1.132409
Zn3	Zn	0.628481	0.628968	1.008533
Zn4	Zn	0.892240	0.892892	1.008590
O5	O	0.760382	0.760957	1.070468
O6	O	0.663551	0.857854	1.235983
O7	O	0.857277	0.408401	1.115982
O8	O	0.407725	0.663819	1.024904
O9	O	0.857324	0.664202	1.236033
O10	O	0.407760	0.857636	1.115865
O11	O	0.663469	0.408236	1.024970
O12	O	0.663434	0.663933	0.904908
O13	O	0.857264	1.113638	1.025001
O14	O	0.857217	0.857837	0.904949
O15	O	0.663517	1.113552	1.115920
O16	O	1.113033	0.664317	1.116037
O17	O	1.113007	0.858055	1.025067
C18	C	0.760317	0.760874	0.878058
C19	C	0.760328	0.760876	0.795744
C20	C	1.348901	0.760811	1.070417
C21	C	1.170257	0.761099	1.070510
C22	C	0.760384	1.172437	1.070463
C23	C	0.760401	1.351081	1.070464
C24	C	0.760427	0.761009	0.496653
C25	C	0.637895	0.639604	0.527926
C26	C	0.638223	0.639087	0.613545
C27	C	0.760376	0.760943	0.645035
C28	C	0.926546	0.715662	0.614011
C29	C	0.925865	0.714818	0.528365
C30	C	0.718233	0.927981	0.528224
C31	C	0.714532	0.927067	0.613873
C32	C	0.760358	0.760909	0.728895
C33	C	0.760456	0.761040	0.412793
C34	C	0.760447	0.761040	1.263630
C35	C	0.760475	0.761076	1.345944
H36	H	0.514295	0.667657	0.507287
H37	H	0.592250	0.961213	0.634148
N38	N	0.972213	0.564174	0.640896
N39	N	0.999128	0.454842	0.596469
H40	H	1.031372	0.347848	0.615455
H41	H	0.666112	0.515359	0.634029
H42	H	0.599174	0.969178	0.506584
N43	N	1.044157	0.823092	0.639623
N44	N	1.157577	0.773822	0.677031
H45	H	1.240639	0.849694	0.695123
H46	H	0.665469	0.516597	0.506407
N47	N	0.818428	1.046578	0.640717
N48	N	0.928445	1.011104	0.683442
H49	H	1.001868	1.095497	0.702381
H50	H	0.961653	0.592758	0.508388
H51	H	1.020249	0.799396	0.507683
N52	N	0.830226	1.041437	0.502870
N53	N	0.940679	0.999721	0.461730
H54	H	1.019788	1.079834	0.443825
H55	H	0.515000	0.667453	0.634517
