data_functionalizedCrystal
_audit_creation_method	'MofGen! by Chris Wilmer'
_symmetry_space_group_name_H-M	'P1'
_symmetry_Int_Tables_number	1
_symmetry_cell_setting	triclinic
loop_
_symmetry_equiv_pos_as_xyz
  x,y,z
_cell_length_a	15.944557
_cell_length_b	15.021413
_cell_length_c	14.853567
_cell_angle_alpha	89.992183
_cell_angle_beta	96.431850
_cell_angle_gamma	89.994532
loop_
_atom_site_label
_atom_site_type_symbol
_atom_site_fract_x
_atom_site_fract_y
_atom_site_fract_z
O1	O	-1.114655	0.073986	0.116289
O2	O	-0.781322	0.407319	0.449622
O3	O	-0.447988	0.740653	0.782956
O4	O	-0.870122	0.073995	0.130618
O5	O	-0.536789	0.407329	0.463951
O6	O	-0.203455	0.740662	0.797285
O7	O	-0.998920	0.073993	-0.007784
O8	O	-0.665587	0.407327	0.325549
O9	O	-0.332254	0.740660	0.658882
O10	O	-0.985857	0.073988	0.254692
O11	O	-0.652523	0.407322	0.588025
O12	O	-0.319190	0.740655	0.921358
O13	O	-0.998900	-0.074071	-0.007765
O14	O	-0.665567	0.259262	0.325569
O15	O	-0.332233	0.592596	0.658902
O16	O	-0.870102	-0.074069	0.130638
O17	O	-0.536768	0.259265	0.463971
O18	O	-0.203435	0.592598	0.797305
O19	O	-1.114635	-0.074078	0.116309
O20	O	-0.781301	0.259255	0.449642
O21	O	-0.447968	0.592589	0.782975
Zn22	Zn	-0.992365	-0.097582	0.123476
Zn23	Zn	-0.659032	0.235752	0.456810
Zn24	Zn	-0.325698	0.569085	0.790143
Zn25	Zn	-0.992392	0.097499	0.123450
Zn26	Zn	-0.659059	0.430833	0.456784
Zn27	Zn	-0.325725	0.764166	0.790117
O28	O	-0.985836	-0.074076	0.254711
O29	O	-0.652503	0.259257	0.588045
O30	O	-0.319170	0.592591	0.921378
C31	C	-0.838817	-0.000035	0.130032
C32	C	-0.505484	0.333298	0.463365
C33	C	-0.172151	0.666631	0.796699
C34	C	-0.745570	-0.000032	0.128246
C35	C	-0.412236	0.333302	0.461579
C36	C	-0.078903	0.666635	0.794912
N37	N	-0.992353	-0.230719	0.123494
N38	N	-0.659019	0.102614	0.456827
N39	N	-0.325686	0.435947	0.790160
C40	C	-0.474837	-0.000044	0.037116
C41	C	-0.141504	0.333289	0.370449
C42	C	0.191830	0.666623	0.703782
C43	C	-0.525457	-0.073049	0.081057
C44	C	-0.192124	0.260284	0.414390
C45	C	0.141210	0.593617	0.747724
C46	C	-0.409921	-0.000052	0.121875
C47	C	-0.076587	0.333281	0.455208
C48	C	0.256746	0.666614	0.788541
C49	C	-0.525458	0.072930	0.081060
C50	C	-0.192125	0.406264	0.414394
C51	C	0.141209	0.739597	0.747727
C52	C	-0.574837	-0.000041	0.125000
C53	C	-0.241503	0.333293	0.458334
C54	C	0.091830	0.666626	0.791667
C55	C	-0.459313	-0.073118	0.165793
C56	C	-0.125979	0.260215	0.499127
C57	C	0.207354	0.593548	0.832460
C58	C	-0.459310	0.072927	0.165784
C59	C	-0.125977	0.406260	0.499117
C60	C	0.207357	0.739594	0.832451
C61	C	-0.509897	-0.000096	0.209788
C62	C	-0.176564	0.333237	0.543121
C63	C	0.156769	0.666570	0.876454
C64	C	-0.314917	-0.000060	0.120071
C65	C	0.018416	0.333273	0.453405
C66	C	0.351750	0.666607	0.786738
C67	C	-0.669837	-0.000040	0.126810
C68	C	-0.336504	0.333294	0.460143
C69	C	-0.003171	0.666627	0.793477
C70	C	-0.932787	-0.470402	0.187461
C71	C	-0.599454	-0.137068	0.520794
C72	C	-0.266120	0.196265	0.854128
C73	C	-1.008707	-0.529740	0.204965
C74	C	-0.675373	-0.196406	0.538299
C75	C	-0.342040	0.136927	0.871632
C76	C	-0.992374	-0.412326	0.123471
C77	C	-0.659041	-0.078993	0.456804
C78	C	-0.325707	0.254340	0.790138
C79	C	-0.916475	-0.529730	0.105987
C80	C	-0.583142	-0.196397	0.439320
C81	C	-0.249808	0.136936	0.772654
C82	C	-0.992388	-0.587750	0.123451
C83	C	-0.659055	-0.254417	0.456785
C84	C	-0.325721	0.078916	0.790118
C85	C	-1.068332	-0.470358	0.141016
C86	C	-0.734999	-0.137024	0.474349
C87	C	-0.401665	0.196309	0.807683
C88	C	-0.976050	-0.470343	0.042002
C89	C	-0.642717	-0.137010	0.375336
C90	C	-0.309384	0.196323	0.708669
C91	C	-1.052025	-0.529654	0.059472
C92	C	-0.718691	-0.196321	0.392805
C93	C	-0.385358	0.137012	0.726139
C94	C	-0.992365	-0.311269	0.123485
C95	C	-0.659031	0.022064	0.456818
C96	C	-0.325698	0.355398	0.790151
C97	C	-0.992406	-0.688806	0.123437
C98	C	-0.659073	-0.355472	0.456770
C99	C	-0.325739	-0.022139	0.790104
C100	C	-0.145941	-0.000050	0.116882
C101	C	0.187393	0.333284	0.450216
C102	C	0.520726	0.666617	0.783549
C103	C	-0.239193	-0.000061	0.118632
C104	C	0.094140	0.333273	0.451966
C105	C	0.427474	0.666606	0.785299
C106	C	-0.998318	-0.000036	-0.041363
C107	C	-0.664985	0.333297	0.291971
C108	C	-0.331652	0.666630	0.625304
C109	C	-0.996544	-0.000028	-0.141444
C110	C	-0.663211	0.333305	0.191889
C111	C	-0.329878	0.666638	0.525223
N112	N	-0.992411	0.230637	0.123426
N113	N	-0.659077	0.563970	0.456759
N114	N	-0.325744	0.897303	0.790093
C115	C	-0.912537	-0.000042	-0.553872
C116	C	-0.579204	0.333291	-0.220539
C117	C	-0.245871	0.666624	0.112795
C118	C	-1.065553	-0.000048	-0.575346
C119	C	-0.732219	0.333285	-0.242012
C120	C	-0.398886	0.666619	0.091321
C121	C	-1.067220	-0.000043	-0.481314
C122	C	-0.733887	0.333291	-0.147981
C123	C	-0.400554	0.666624	0.185353
C124	C	-0.991546	-0.000039	-0.423557
C125	C	-0.658212	0.333295	-0.090224
C126	C	-0.324879	0.666628	0.243110
C127	C	-0.914203	-0.000040	-0.459831
C128	C	-0.580870	0.333294	-0.126498
C129	C	-0.247536	0.666627	0.206835
C130	C	-1.144562	-0.000051	-0.445032
C131	C	-0.811229	0.333283	-0.111699
C132	C	-0.477895	0.666616	0.221634
C133	C	-1.146233	-0.000047	-0.350995
C134	C	-0.812899	0.333287	-0.017662
C135	C	-0.479566	0.666620	0.315671
C136	C	-1.070557	-0.000036	-0.293236
C137	C	-0.737224	0.333297	0.040097
C138	C	-0.403890	0.666631	0.373430
C139	C	-0.993211	-0.000036	-0.329516
C140	C	-0.659878	0.333297	0.003817
C141	C	-0.326544	0.666631	0.337150
C142	C	-0.917536	-0.000032	-0.271759
C143	C	-0.584203	0.333301	0.061574
C144	C	-0.250870	0.666635	0.394908
C145	C	-0.840189	-0.000026	-0.308037
C146	C	-0.506856	0.333308	0.025296
C147	C	-0.173523	0.666641	0.358630
C148	C	-0.838527	-0.000029	-0.402072
C149	C	-0.505194	0.333304	-0.068739
C150	C	-0.171860	0.666637	0.264594
C151	C	-1.072219	-0.000033	-0.199201
C152	C	-0.738886	0.333301	0.134132
C153	C	-0.405553	0.666634	0.467466
C154	C	-0.919202	-0.000030	-0.177718
C155	C	-0.585868	0.333304	0.155615
C156	C	-0.252535	0.666637	0.488948
C157	C	-0.986438	-0.000044	0.288289
C158	C	-0.653105	0.333289	0.621623
C159	C	-0.319772	0.666622	0.954956
C160	C	-0.988212	-0.000046	0.388371
C161	C	-0.654879	0.333287	0.721704
C162	C	-0.321546	0.666620	1.055037
H163	H	-0.459102	-0.000114	-0.035883
H164	H	-0.125769	0.333219	0.297450
H165	H	0.207564	0.666553	0.630784
H166	H	-0.849563	-0.000034	-0.583414
H167	H	-0.516230	0.333300	-0.250081
H168	H	-0.182897	0.666633	0.083253
N169	N	-0.563729	-0.154796	0.033653
N170	N	-0.230396	0.178538	0.366987
N171	N	0.102937	0.511871	0.700320
H172	H	-0.593282	-0.191363	0.077665
H173	H	-0.259949	0.141970	0.410999
H174	H	0.073385	0.475303	0.744332
H175	H	-0.517681	-0.191557	0.010407
H176	H	-0.184348	0.141776	0.343741
H177	H	0.148986	0.475110	0.677074
N178	N	-0.866113	-0.435923	0.259195
N179	N	-0.532780	-0.102589	0.592528
N180	N	-0.199447	0.230744	0.925861
H181	H	-0.823882	-0.398916	0.229724
H182	H	-0.490549	-0.065583	0.563058
H183	H	-0.157215	0.267751	0.896391
H184	H	-0.836288	-0.487800	0.292099
H185	H	-0.502955	-0.154466	0.625432
H186	H	-0.169622	0.178867	0.958765
N187	N	-0.421016	0.154681	0.213140
N188	N	-0.087683	0.488014	0.546473
N189	N	0.245651	0.821348	0.879806
H190	H	-0.379735	0.136081	0.266386
H191	H	-0.046402	0.469415	0.599720
H192	H	0.286932	0.802748	0.933053
H193	H	-0.467183	0.192095	0.235276
H194	H	-0.133849	0.525428	0.568609
H195	H	0.199484	0.858761	0.901943
H196	H	-0.430535	-0.134906	0.201571
H197	H	-0.097201	0.198427	0.534904
H198	H	0.236132	0.531761	0.868237
N199	N	-1.118844	-0.563914	-0.012224
N200	N	-0.785511	-0.230581	0.321109
N201	N	-0.452177	0.102753	0.654442
H202	H	-1.149379	-0.511984	-0.044277
H203	H	-0.816046	-0.178651	0.289056
H204	H	-0.482712	0.154682	0.622390
H205	H	-1.160457	-0.601795	0.017200
H206	H	-0.827124	-0.268462	0.350533
H207	H	-0.493791	0.064872	0.683867
N208	N	-0.530542	-0.000140	0.306550
N209	N	-0.197209	0.333193	0.639884
N210	N	0.136124	0.666526	0.973217
H211	H	-0.505405	0.054467	0.338798
H212	H	-0.172071	0.387800	0.672131
H213	H	0.161262	0.721133	1.005465
H214	H	-0.506245	-0.055341	0.338385
H215	H	-0.172912	0.277993	0.671718
H216	H	0.160422	0.611326	1.005051
N217	N	-0.563726	0.154682	0.033622
N218	N	-0.230393	0.488015	0.366956
N219	N	0.102940	0.821348	0.700289
H220	H	-0.551259	0.154614	-0.031562
H221	H	-0.217925	0.487948	0.301771
H222	H	0.115408	0.821281	0.635104
H223	H	-0.538715	0.209776	0.065025
H224	H	-0.205381	0.543109	0.398358
H225	H	0.127952	0.876443	0.731692
N226	N	-1.027020	-0.564300	0.296210
N227	N	-0.693687	-0.230967	0.629543
N228	N	-0.360353	0.102367	0.962876
H229	H	-0.981974	-0.542753	0.344515
H230	H	-0.648641	-0.209419	0.677848
H231	H	-0.315308	0.123914	1.011182
H232	H	-1.027453	-0.631527	0.295262
H233	H	-0.694120	-0.298194	0.628595
H234	H	-0.360787	0.035140	0.961928
N235	N	-0.957723	-0.435756	-0.049221
N236	N	-0.624389	-0.102423	0.284112
N237	N	-0.291056	0.230910	0.617446
H238	H	-0.900340	-0.457316	-0.062366
H239	H	-0.567007	-0.123982	0.270967
H240	H	-0.233674	0.209351	0.604301
H241	H	-0.958452	-0.368529	-0.048649
H242	H	-0.625119	-0.035196	0.284685
H243	H	-0.291785	0.298137	0.618018
N244	N	-1.229649	-0.000038	-0.311865
N245	N	-0.896315	0.333295	0.021469
N246	N	-0.562982	0.666628	0.354802
H247	H	-1.233746	-0.054922	-0.273314
H248	H	-0.900413	0.278412	0.060019
H249	H	-0.567079	0.611745	0.393353
H250	H	-1.277288	-0.000007	-0.362771
H251	H	-0.943954	0.333326	-0.029437
H252	H	-0.610621	0.666660	0.303896
H253	H	-1.135194	-0.000044	-0.169668
H254	H	-0.801860	0.333290	0.163666
H255	H	-0.468527	0.666623	0.496999
H256	H	-1.132538	-0.444388	0.155878
H257	H	-0.799205	-0.111054	0.489211
H258	H	-0.465872	0.222279	0.822545
H259	H	-0.852283	-0.555812	0.091208
H260	H	-0.518949	-0.222479	0.424541
H261	H	-0.185616	0.110854	0.757875
N262	N	-0.837580	-0.000018	-0.115425
N263	N	-0.504246	0.333316	0.217908
N264	N	-0.170913	0.666649	0.551242
H265	H	-0.788333	-0.000013	-0.152678
H266	H	-0.455000	0.333320	0.180655
H267	H	-0.121666	0.666654	0.513988
H268	H	-0.834927	-0.054907	-0.075933
H269	H	-0.501593	0.278426	0.257400
H270	H	-0.168260	0.611760	0.590733
H271	H	-0.778575	-0.000029	-0.260999
H272	H	-0.445242	0.333305	0.072334
H273	H	-0.111909	0.666638	0.405668
H274	H	-0.775555	-0.000025	-0.431619
H275	H	-0.442222	0.333308	-0.098286
H276	H	-0.108889	0.666642	0.235048
H277	H	-1.127164	-0.000058	-0.622377
H278	H	-0.793830	0.333275	-0.289043
H279	H	-0.460497	0.666608	0.044290
H280	H	-1.206172	-0.000062	-0.492064
H281	H	-0.872839	0.333271	-0.158731
H282	H	-0.539505	0.666604	0.174602
