data_functionalizedCrystal
_audit_creation_method	'MofGen! by Chris Wilmer'
_symmetry_space_group_name_H-M	'P1'
_symmetry_Int_Tables_number	1
_symmetry_cell_setting	triclinic
loop_
_symmetry_equiv_pos_as_xyz
  x,y,z
_cell_length_a	20.919287
_cell_length_b	14.395555
_cell_length_c	14.395555
_cell_angle_alpha	59.998369
_cell_angle_beta	86.845317
_cell_angle_gamma	58.213407
loop_
_atom_site_label
_atom_site_type_symbol
_atom_site_fract_x
_atom_site_fract_y
_atom_site_fract_z
Zr1	Zr	0.616745	1.016841	-0.171317
O2	O	0.514518	1.210641	-0.311479
O3	O	0.648084	0.823038	-0.128340
O4	O	0.648083	1.016835	-0.322148
O5	O	0.514518	1.016850	0.035196
O6	O	0.753440	1.016835	-0.330576
O7	O	0.514519	1.016843	-0.117671
O8	O	0.753442	0.670167	0.016111
O9	O	0.514516	1.363518	-0.311490
O10	O	0.740075	0.902754	-0.116313
O11	O	0.661448	0.902759	0.004060
O12	O	0.661447	1.130930	-0.224124
O13	O	0.582819	1.130935	-0.103751
Zr14	Zr	0.784776	1.016853	0.059047
Zr15	Zr	0.784777	1.016842	-0.184759
Zr16	Zr	0.616743	1.016852	0.072488
Zr17	Zr	0.616742	1.260664	-0.171336
Zr18	Zr	0.784778	0.773031	0.059065
O19	O	0.753437	1.210657	0.016069
O20	O	0.753438	1.210641	-0.330591
O21	O	0.514516	1.210656	0.035182
O22	O	0.887003	0.823054	0.199208
O23	O	0.887004	0.823038	-0.147452
O24	O	0.648082	0.823053	0.218320
O25	O	0.887003	1.016844	-0.147467
O26	O	0.753437	1.016859	0.209877
O27	O	0.648080	1.016859	0.218305
O28	O	0.887002	1.016851	0.005400
O29	O	0.648080	1.363518	-0.322175
O30	O	0.753441	0.670176	0.209904
O31	O	0.887004	0.670176	0.199220
O32	O	0.887005	0.670167	0.005427
O33	O	0.514515	1.363527	-0.117697
O34	O	0.648079	1.363527	-0.128382
O35	O	0.740074	0.902764	0.111853
O36	O	0.818701	0.902759	-0.008520
O37	O	0.740073	1.130936	-0.116331
O38	O	0.661445	1.130940	0.004042
C39	C	0.700763	0.711863	-0.056112
C40	C	0.700764	0.608354	-0.056104
C41	C	0.657882	0.485885	0.009491
C42	C	0.731816	0.471608	0.048696
C43	C	0.626844	0.623969	-0.095258
C44	C	0.774734	0.409638	-0.016903
C45	C	0.669709	0.562062	-0.160912
C46	C	0.743687	0.547739	-0.121737
C47	C	0.490577	1.016847	-0.039322
C48	C	0.419243	1.016847	-0.033616
C49	C	0.385730	1.016846	-0.115153
C50	C	0.318706	1.016840	-0.109786
C51	C	0.285194	1.016842	-0.022885
C52	C	0.318712	1.016838	0.058660
C53	C	0.385738	1.016836	0.053297
C54	C	0.082822	1.016841	-0.002473
C55	C	0.015790	1.016848	0.002882
C56	C	0.015790	1.016847	-0.165563
C57	C	0.082814	1.016852	-0.170923
C58	C	0.116329	1.016841	-0.089375
C59	C	0.216683	1.016839	-0.017399
C60	C	0.184842	1.016835	-0.094857
C61	C	0.910943	1.016848	-0.072949
C62	C	0.982277	1.016848	-0.078655
C63	C	0.700762	1.016833	-0.361099
C64	C	0.700762	1.016829	-0.464601
C65	C	0.700757	1.321831	-0.056159
C66	C	0.700756	1.425340	-0.056167
C67	C	0.743638	0.892417	-0.466407
C68	C	0.669705	0.954611	-0.553519
C69	C	0.774677	0.954640	-0.561916
C70	C	0.626786	1.079023	-0.550347
C71	C	0.731811	1.079035	-0.558733
C72	C	0.657834	1.141319	-0.645859
C73	C	0.700759	1.016861	0.248828
C74	C	0.700758	1.016866	0.352330
C75	C	0.910946	0.711863	-0.072925
C76	C	0.982281	0.608355	-0.078624
C77	C	0.700761	0.711877	0.248852
C78	C	0.700762	0.608372	0.352361
C79	C	0.910944	0.711877	0.232038
C80	C	0.982279	0.608373	0.329842
C81	C	0.490576	1.321817	-0.344309
C82	C	0.419241	1.425321	-0.442113
C83	C	0.490574	1.321831	-0.039345
C84	C	0.419239	1.425340	-0.033647
C85	C	0.700759	1.321818	-0.361123
C86	C	0.700759	1.425322	-0.464632
C87	C	0.974739	0.559743	-0.137577
C88	C	1.041759	0.462499	-0.142954
C89	C	1.116321	0.413862	-0.089369
C90	C	1.123862	0.462483	-0.030414
C91	C	1.056842	0.559732	-0.025045
C92	C	1.056828	0.559764	0.312937
C93	C	1.123861	0.462524	0.404824
C94	C	1.116343	0.413889	0.513615
C95	C	1.041786	0.462508	0.530518
C96	C	0.974755	0.559752	0.438632
C97	C	0.344692	1.473942	-0.425208
C98	C	0.277659	1.571212	-0.517095
C99	C	0.285177	1.619852	-0.625886
C100	C	0.359734	1.571227	-0.642788
C101	C	0.426766	1.473966	-0.550902
C102	C	0.426782	1.473961	0.025296
C103	C	0.359761	1.571232	0.030646
C104	C	0.285199	1.619873	-0.022942
C105	C	0.277658	1.571247	-0.081893
C106	C	0.344678	1.473985	-0.087248
C107	C	0.657890	0.547784	0.354181
C108	C	0.731826	0.409680	0.441295
C109	C	0.626852	0.562020	0.449688
C110	C	0.774741	0.471569	0.438109
C111	C	0.669714	0.623983	0.446492
C112	C	0.743694	0.485888	0.533619
H113	H	0.643424	0.599269	-0.249500
N114	N	1.188646	0.308979	0.612712
H115	H	1.172578	0.285532	0.684201
H116	H	1.220880	0.342898	0.610069
N117	N	0.507167	1.421520	-0.569158
H118	H	0.536798	1.323898	-0.533841
H119	H	0.536761	1.438519	-0.533856
N120	N	-0.020346	1.016841	-0.253512
H121	H	-0.036590	1.097838	-0.329534
H122	H	-0.067864	1.016792	-0.236841
H123	H	0.837273	0.318072	0.016291
H124	H	1.035604	0.422924	-0.190960
H125	H	1.062995	0.599299	0.022968
H126	H	0.914056	0.599317	0.452411
N127	N	0.791775	0.583470	-0.195250
H128	H	0.847579	0.503252	-0.165566
H129	H	0.791085	0.654187	-0.195321
N130	N	0.421870	1.016856	-0.208889
H131	H	0.390467	1.016853	-0.259726
H132	H	0.477591	0.935855	-0.176513
H133	H	-0.011493	1.016851	0.073651
H134	H	0.338556	1.434345	-0.336633
N135	N	0.791784	0.450092	0.635255
H136	H	0.847587	0.415185	0.631543
H137	H	0.791093	0.380519	0.705043
H138	H	1.062965	0.599348	0.224362
H139	H	0.365916	1.610807	0.078653
N140	N	0.609945	0.583663	0.252361
H141	H	0.609873	0.654407	0.182693
H142	H	0.554360	0.617042	0.256661
N143	N	0.766618	0.288303	0.439768
H144	H	0.814582	0.211547	0.505972
H145	H	0.781892	0.304035	0.368257
H146	H	0.110104	1.016836	0.063925
H147	H	0.291425	1.016832	0.129422
N148	N	0.857583	0.422045	0.430406
H149	H	0.857065	0.492713	0.360046
H150	H	0.881077	0.341465	0.428356
N151	N	0.197249	1.623630	-0.498858
H152	H	0.167604	1.721253	-0.534167
H153	H	0.202726	1.577950	-0.415982
N154	N	0.421892	1.016822	0.141246
H155	H	0.390493	1.016824	0.197112
H156	H	0.421795	1.097818	0.104425
N157	N	1.204273	0.410079	0.386591
H158	H	1.210547	0.484282	0.343107
H159	H	1.210496	0.369702	0.343177
H160	H	0.230590	1.699048	-0.700695
H161	H	0.189390	1.016845	0.053356
H162	H	0.212132	1.016826	-0.165609
N163	N	0.634905	0.745371	0.447996
H164	H	0.579041	0.780391	0.451417
H165	H	0.635691	0.814485	0.377885
N166	N	0.857477	0.884981	-0.569743
H167	H	0.856825	0.886250	-0.640479
H168	H	0.889769	0.791034	-0.502783
H169	H	0.643438	0.902030	-0.552346
N170	N	1.033683	0.410044	0.647858
H171	H	1.087463	0.341061	0.703493
H172	H	1.004053	0.369751	0.659247
H173	H	0.564345	0.599196	0.455601
N174	N	0.543943	1.148625	-0.542650
H175	H	0.544457	1.148148	-0.472294
H176	H	0.520450	1.101959	-0.540593
H177	H	0.564333	0.715575	-0.128347
N178	N	0.367837	1.623694	-0.760129
H179	H	0.314057	1.692680	-0.815763
H180	H	0.397467	1.549424	-0.771511
N181	N	0.894325	0.612185	-0.195377
H182	H	0.853004	0.681166	-0.183034
H183	H	0.888126	0.537900	-0.163606
N184	N	0.791595	0.753070	-0.364585
H185	H	0.768038	0.706236	-0.361827
H186	H	0.791656	0.754144	-0.294976
N187	N	0.609645	1.280560	-0.747807
H188	H	0.553808	1.327301	-0.744201
H189	H	0.610500	1.279077	-0.817282
N190	N	0.212917	1.724777	-0.017161
H191	H	0.229016	1.748188	0.028317
H192	H	0.180685	1.690860	0.019289
N193	N	0.507197	1.421512	0.083098
H194	H	0.501793	1.467090	0.121241
H195	H	0.536792	1.438433	0.026046
H196	H	1.170887	0.334674	-0.093749
H197	H	0.216941	1.610865	-0.125521
H198	H	0.758096	1.131570	-0.559865
N199	N	0.118956	1.016828	-0.264649
H200	H	0.174675	0.935825	-0.232354
H201	H	0.118801	1.097877	-0.308877
N202	N	1.204285	0.410020	0.027376
H203	H	1.245590	0.341034	0.015026
H204	H	1.210500	0.369729	0.110165
H205	H	0.338526	1.434400	-0.135243
H206	H	0.621682	0.458630	0.065045
H207	H	0.291421	1.016838	-0.176179
N208	N	0.766621	0.422286	0.166066
H209	H	0.734198	0.399823	0.215586
H210	H	0.766842	0.492784	0.165032
