data_functionalizedCrystal
_audit_creation_method	'MofGen! by Chris Wilmer'
_symmetry_space_group_name_H-M	'P1'
_symmetry_Int_Tables_number	1
_symmetry_cell_setting	triclinic
loop_
_symmetry_equiv_pos_as_xyz
  x,y,z
_cell_length_a	10.654541
_cell_length_b	13.262508
_cell_length_c	9.130307
_cell_angle_alpha	105.915023
_cell_angle_beta	89.999822
_cell_angle_gamma	84.458382
loop_
_atom_site_label
_atom_site_type_symbol
_atom_site_fract_x
_atom_site_fract_y
_atom_site_fract_z
O1	O	1.667072	0.147409	-0.063028
O2	O	1.301520	0.161457	-0.057444
O3	O	1.493493	0.001711	-0.121069
O4	O	1.475099	0.307155	0.000598
O5	O	1.493487	0.001710	0.122529
O6	O	1.301514	0.161456	0.186155
O7	O	1.667066	0.147407	0.180571
Cu8	Cu	1.484289	0.154431	0.205605
Cu9	Cu	1.484297	0.154433	-0.082478
O10	O	1.475093	0.307153	0.244196
C11	C	1.254724	0.160425	0.063943
C12	C	1.115297	0.157341	0.062710
C13	C	1.086333	0.348360	0.138780
C14	C	1.006350	0.442417	0.176230
C15	C	0.875347	0.439512	0.175072
C16	C	0.824326	0.342541	0.136463
C17	C	0.904309	0.248484	0.099013
C18	C	1.035313	0.251400	0.100171
C19	C	0.933273	0.057467	0.022954
C20	C	1.064276	0.060370	0.024101
C21	C	0.882252	-0.039504	-0.015654
C22	C	0.962235	-0.133563	-0.053116
C23	C	1.093245	-0.130654	-0.051958
C24	C	1.144259	-0.033687	-0.013349
C25	C	1.492460	-0.037400	-0.014852
C26	C	1.489374	-0.153938	-0.061282
C27	C	1.480654	-0.482455	0.338998
C28	C	1.483544	-0.372961	0.382623
C29	C	1.485002	-0.318200	0.271651
C30	C	1.483569	-0.372943	0.117045
C31	C	1.480669	-0.482447	0.073416
C32	C	1.485017	-0.318192	0.006069
C33	C	1.483584	-0.372936	-0.148536
C34	C	1.480686	-0.482429	-0.192158
C35	C	1.479228	-0.537190	-0.081185
C36	C	1.487917	-0.208688	0.049698
C37	C	1.487932	-0.208681	-0.215884
C38	C	1.485042	-0.318174	-0.259509
C39	C	1.713862	0.148439	0.059181
C40	C	1.853289	0.151524	0.060404
C41	C	1.476127	0.346265	0.137976
C42	C	1.479213	0.462802	0.184396
N43	N	1.484293	0.154429	0.408227
N44	N	1.484303	0.154427	-0.285104
C45	C	1.654355	0.013016	0.351893
C46	C	1.739394	-0.057688	0.400394
C47	C	1.739407	-0.057688	0.553728
C48	C	1.654368	0.013020	0.658565
C49	C	1.569329	0.083724	0.610064
C50	C	1.569328	0.083719	0.456725
C51	C	1.399264	0.225130	0.666395
C52	C	1.399255	0.225138	0.513065
C53	C	1.314225	0.295839	0.771233
C54	C	1.229190	0.366549	0.722735
C55	C	1.229182	0.366548	0.569392
C56	C	1.314216	0.295842	0.464564
H57	H	0.717655	0.340184	0.135541
H58	H	1.487353	-0.229045	0.307180
H59	H	1.479508	-0.526997	-0.318047
Cl60	Cl	1.478797	-0.551299	0.478487
H61	H	1.489072	-0.164126	0.175579
Cl62	Cl	1.846308	-0.146579	0.614700
H63	H	0.810223	0.516101	0.205577
H64	H	0.775581	-0.041862	-0.016587
Cl65	Cl	1.485324	-0.304146	0.576975
H66	H	1.250927	-0.031309	-0.012419
Cl67	Cl	1.475594	-0.674845	-0.136023
Cl68	Cl	1.654364	0.013023	0.159133
H69	H	1.489110	-0.164093	-0.306247
H70	H	0.920682	-0.212509	-0.084549
Cl71	Cl	1.193786	-0.248904	-0.099030
H72	H	1.808630	-0.115260	0.315021
H73	H	1.314221	0.295838	0.339710
H74	H	1.654374	0.013007	0.783412
H75	H	1.314234	0.295831	0.896082
H76	H	1.159952	0.424111	0.808100
H77	H	1.159928	0.424119	0.529912
Cl78	Cl	1.483243	-0.387008	-0.453864
H79	H	1.047906	0.521369	0.207668
Cl80	Cl	1.251022	0.352019	0.140212
