data_functionalizedCrystal
_audit_creation_method	'MofGen! by Chris Wilmer'
_symmetry_space_group_name_H-M	'P1'
_symmetry_Int_Tables_number	1
_symmetry_cell_setting	triclinic
loop_
_symmetry_equiv_pos_as_xyz
  x,y,z
_cell_length_a	21.395362
_cell_length_b	17.640280
_cell_length_c	21.395356
_cell_angle_alpha	78.779580
_cell_angle_beta	89.964230
_cell_angle_gamma	78.812025
loop_
_atom_site_label
_atom_site_type_symbol
_atom_site_fract_x
_atom_site_fract_y
_atom_site_fract_z
Zn1	Zn	1.008267	-0.314342	-0.304298
Zn2	Zn	1.029399	-0.446502	-0.178378
Zn3	Zn	0.903505	-0.314395	-0.199490
Zn4	Zn	0.924665	-0.446502	-0.283082
O5	O	0.966459	-0.380436	-0.241312
O6	O	1.098744	-0.331851	-0.287637
O7	O	1.012687	-0.429000	-0.093497
O8	O	0.899703	-0.203792	-0.231108
O9	O	1.114270	-0.428949	-0.195124
O10	O	0.976671	-0.203753	-0.308109
O11	O	0.920194	-0.331942	-0.109008
O12	O	0.818638	-0.331942	-0.210536
O13	O	0.935767	-0.428949	-0.373578
O14	O	0.834184	-0.429000	-0.271951
O15	O	0.997189	-0.331851	-0.389165
O16	O	1.033205	-0.557099	-0.174552
O17	O	0.956258	-0.557099	-0.251478
C18	C	0.803678	-0.380477	-0.241233
C19	C	0.734043	-0.380514	-0.241210
C20	C	0.709452	-0.431120	-0.273118
C21	C	0.644013	-0.431100	-0.273149
C22	C	0.603170	-0.380484	-0.241260
C23	C	0.627767	-0.329869	-0.209351
C24	C	0.693204	-0.329884	-0.209326
C25	C	0.498432	-0.374126	-0.185872
C26	C	0.432998	-0.374116	-0.185895
C27	C	0.401341	-0.380432	-0.241337
C28	C	0.435129	-0.386775	-0.296756
C29	C	0.500565	-0.386790	-0.296732
C30	C	0.532214	-0.380461	-0.241284
C31	C	0.305794	-0.431019	-0.273282
C32	C	0.240354	-0.430994	-0.273315
C33	C	0.224109	-0.329767	-0.209510
C34	C	0.289548	-0.329788	-0.209483
C35	C	0.330387	-0.380418	-0.241368
C36	C	0.999337	-0.585775	-0.208436
C37	C	1.013460	-0.673621	-0.194392
C38	C	0.859427	-0.962670	-0.348228
C39	C	0.872698	-1.045214	-0.335012
C40	C	0.952873	-1.045149	-0.254990
C41	C	0.939610	-0.962603	-0.268201
C42	C	0.892886	-0.921370	-0.314820
C43	C	0.973070	-0.921303	-0.234794
C44	C	0.959805	-0.838765	-0.248002
C45	C	0.913082	-0.797526	-0.294618
C46	C	0.879622	-0.838832	-0.328029
C47	C	1.019791	-0.962537	-0.188172
C48	C	1.053250	-0.921238	-0.154764
C49	C	1.039989	-0.838698	-0.167975
C50	C	0.993265	-0.797459	-0.214591
C51	C	1.073449	-0.797392	-0.134565
C52	C	1.060185	-0.714853	-0.147773
C53	C	0.980001	-0.714921	-0.227800
C54	C	1.129876	-0.380394	-0.241392
C55	C	1.199514	-0.380376	-0.241426
C56	C	0.966481	-0.380394	-0.404742
C57	C	0.966491	-0.380376	-0.474386
C58	C	0.933469	-0.174294	-0.274330
C59	C	0.919411	-0.086449	-0.288401
C60	C	1.014696	-0.430749	-0.968133
C61	C	1.014688	-0.430774	-0.902693
C62	C	0.966530	-0.380251	-0.878045
C63	C	0.918367	-0.329713	-0.918839
C64	C	0.918372	-0.329695	-0.984276
C65	C	0.950180	-0.309076	-0.785774
C66	C	0.950179	-0.309092	-0.720339
C67	C	0.966511	-0.380307	-0.676215
C68	C	0.982858	-0.451507	-0.697534
C69	C	0.982863	-0.451489	-0.762972
C70	C	0.966519	-0.380265	-0.807090
C71	C	1.014661	-0.430872	-0.564471
C72	C	1.014650	-0.430899	-0.499030
C73	C	0.918330	-0.329831	-0.515179
C74	C	0.918339	-0.329812	-0.580617
C75	C	0.966508	-0.380331	-0.605260
C76	C	0.966464	-0.380420	-0.078527
C77	C	0.966540	-0.380215	-0.008919
H78	H	0.623987	-0.472309	-0.299135
H79	H	0.996158	-0.509497	-0.661609
Br80	Br	0.206978	-0.499672	-0.316629
H81	H	1.053862	-0.472057	-0.465821
H82	H	0.990914	-1.078732	-0.217030
H83	H	0.879155	-0.288578	-0.898766
Br84	Br	1.037816	-1.074555	-0.170269
Br85	Br	0.827274	-1.101262	-0.380346
H86	H	0.879157	-0.288543	-1.017485
H87	H	0.528072	-0.391952	-0.341856
Br88	Br	1.116660	-0.977203	-0.091498
H89	H	0.821384	-0.929097	-0.386195
Br90	Br	0.852956	-0.261288	-0.481731
H91	H	1.111487	-0.830976	-0.096603
H92	H	1.053910	-0.471916	-0.869480
Br93	Br	0.852973	-0.261241	-0.635972
Br94	Br	0.392174	-0.395345	-0.372006
H95	H	0.309570	-0.288583	-0.183497
Br96	Br	0.928002	-0.212465	-0.691411
Br97	Br	0.928353	-0.212381	-0.845657
H98	H	1.053882	-0.472010	-0.584536
Br99	Br	0.764873	-0.499830	-0.316391
Br100	Br	0.361222	-0.499726	-0.316555
Br101	Br	1.105585	-0.658798	-0.102426
Br102	Br	0.168684	-0.261064	-0.166238
H103	H	0.996171	-0.509463	-0.780327
H104	H	0.405493	-0.368957	-0.140768
Br105	Br	0.541389	-0.365554	-0.110621
H106	H	1.053917	-0.471888	-0.988192
H107	H	0.594508	-0.288655	-0.183388
H108	H	0.713224	-0.288673	-0.183343
Br109	Br	0.816217	-0.782865	-0.391307
Br110	Br	0.916596	-0.658954	-0.291077
H111	H	0.902278	-0.730318	-0.305367
