data_functionalizedCrystal
_audit_creation_method	'MofGen! by Chris Wilmer'
_symmetry_space_group_name_H-M	'P1'
_symmetry_Int_Tables_number	1
_symmetry_cell_setting	triclinic
loop_
_symmetry_equiv_pos_as_xyz
  x,y,z
_cell_length_a	18.050589
_cell_length_b	13.032951
_cell_length_c	13.032268
_cell_angle_alpha	89.114265
_cell_angle_beta	97.149417
_cell_angle_gamma	97.169409
loop_
_atom_site_label
_atom_site_type_symbol
_atom_site_fract_x
_atom_site_fract_y
_atom_site_fract_z
Zn1	Zn	-0.501584	-1.498346	-0.780877
Zn2	Zn	-0.001584	-0.998346	-0.280877
Zn3	Zn	-0.612231	-1.520060	-0.608897
Zn4	Zn	-0.112231	-1.020060	-0.108897
Zn5	Zn	-0.470555	-1.348213	-0.587113
Zn6	Zn	0.029445	-0.848213	-0.087113
Zn7	Zn	-0.608208	-1.326309	-0.759017
Zn8	Zn	-0.108208	-0.826309	-0.259017
O9	O	-0.548144	-1.423232	-0.683976
O10	O	-0.048144	-0.923232	-0.183976
O11	O	-0.530930	-1.645142	-0.776328
O12	O	-0.030930	-1.145142	-0.276328
O13	O	-0.582135	-1.515518	-0.462091
O14	O	-0.082135	-1.015518	0.037909
O15	O	-0.370756	-1.368207	-0.612848
O16	O	0.129244	-0.868207	-0.112848
O17	O	-0.612222	-1.661096	-0.649976
O18	O	-0.112222	-1.161096	-0.149976
O19	O	-0.393553	-1.478509	-0.755205
O20	O	0.106447	-0.978509	-0.255205
O21	O	-0.478046	-1.389262	-0.446087
O22	O	0.021954	-0.889262	0.053913
O23	O	-0.474146	-1.201391	-0.591652
O24	O	0.025854	-0.701391	-0.091652
O25	O	-0.605367	-1.330876	-0.905833
O26	O	-0.105367	-0.830876	-0.405833
O27	O	-0.575280	-1.185299	-0.717949
O28	O	-0.075280	-0.685299	-0.217949
O29	O	-0.527030	-1.457271	-0.921893
O30	O	-0.027030	-0.957271	-0.421893
O31	O	-0.715612	-1.494279	-0.628779
O32	O	-0.215612	-0.994279	-0.128779
O33	O	-0.712657	-1.351932	-0.739072
O34	O	-0.212657	-0.851932	-0.239072
C35	C	-0.520910	-1.156029	-0.650065
C36	C	-0.020910	-0.656029	-0.150065
C37	C	-0.509279	-1.041715	-0.635582
C38	C	-0.009279	-0.541715	-0.135582
C39	C	-0.741083	-1.423110	-0.683943
C40	C	-0.241083	-0.923110	-0.183943
C41	C	-0.823635	-1.423147	-0.683976
C42	C	-0.323635	-0.923147	-0.183976
C43	C	-0.554197	-0.982827	-0.691521
C44	C	-0.054197	-0.482827	-0.191521
C45	C	-0.542177	-0.864678	-0.676554
C46	C	-0.042177	-0.364678	-0.176554
C47	C	-1.021510	-1.345809	-0.743937
C48	C	-0.521510	-0.845809	-0.243937
C49	C	-1.061011	-1.332664	-0.646916
C50	C	-0.561011	-0.832664	-0.146916
C51	C	-0.974776	-1.423247	-0.684002
C52	C	-0.474776	-0.923247	-0.184002
C53	C	-1.082363	-1.436441	-0.781040
C54	C	-0.582363	-0.936441	-0.281040
C55	C	-1.120773	-1.423340	-0.684035
C56	C	-0.620773	-0.923340	-0.184035
C57	C	-1.013181	-1.410058	-0.586925
C58	C	-0.513181	-0.910058	-0.086925
C59	C	-1.034538	-1.513871	-0.721118
C60	C	-0.534538	-1.013871	-0.221118
C61	C	-1.074015	-1.500770	-0.624036
C62	C	-0.574015	-1.000770	-0.124036
C63	C	-0.890671	-1.423190	-0.683984
C64	C	-0.390671	-0.923190	-0.183984
C65	C	-1.204875	-1.423397	-0.684043
C66	C	-0.704875	-0.923397	-0.184043
C67	C	-0.354457	-1.423379	-0.684035
C68	C	0.145543	-0.923379	-0.184035
C69	C	-0.271920	-1.423442	-0.684060
C70	C	0.228080	-0.923442	-0.184060
C71	C	-0.569211	-1.389208	-0.952222
C72	C	-0.069211	-0.889208	-0.452222
C73	C	-0.578188	-1.374709	-1.066533
C74	C	-0.078188	-0.874709	-0.566533
C75	C	-0.575477	-0.691479	-0.718013
C76	C	-0.075477	-0.191479	-0.218013
C77	C	-0.587101	-0.805792	-0.732500
C78	C	-0.087101	-0.305792	-0.232500
C79	C	-0.543431	-1.430783	-1.125442
C80	C	-0.043431	-0.930783	-0.625442
C81	C	-0.552708	-1.415799	-1.243589
C82	C	-0.052708	-0.915799	-0.743589
C83	C	-0.527112	-1.457182	-0.416781
C84	C	-0.027112	-0.957182	0.083219
C85	C	-0.517946	-1.471880	-0.302496
C86	C	-0.017946	-0.971880	0.197504
H87	H	-0.601550	-1.019881	-0.750496
H88	H	-0.101550	-0.519881	-0.250496
H89	H	-0.506803	-1.489879	-1.088410
H90	H	-0.006803	-0.989879	-0.588410
F91	F	-0.626057	-1.297455	-1.114931
F92	F	-0.126057	-0.797455	-0.614931
H93	H	-0.461921	-1.004660	-0.576615
H94	H	0.038079	-0.504660	-0.076615
F95	F	-0.480272	-0.816256	-0.599472
F96	F	0.019728	-0.316256	-0.099472
F97	F	-0.600580	-1.338540	-1.291982
F98	F	-0.100580	-0.838540	-0.791982
H99	H	-1.112420	-1.447566	-0.863092
H100	H	-0.612420	-0.947566	-0.363092
H101	H	-1.022515	-1.590443	-0.752527
H102	H	-0.522515	-1.090443	-0.252527
H103	H	-0.998494	-1.280248	-0.794529
H104	H	-0.498494	-0.780248	-0.294529
F105	F	-0.648995	-0.854210	-0.809601
F106	F	-0.148995	-0.354210	-0.309601
F107	F	-1.076705	-1.232546	-0.605893
F108	F	-0.576705	-0.732546	-0.105893
H109	H	-0.481314	-1.530978	-1.265469
H110	H	0.018686	-1.030978	-0.765469
F111	F	-0.974000	-1.395404	-0.479632
F112	F	-0.474000	-0.895404	0.020368
F113	F	-1.103900	-1.586430	-0.557722
F114	F	-0.603900	-1.086430	-0.057722
