data_functionalizedCrystal
_audit_creation_method	'MofGen! by Chris Wilmer'
_symmetry_space_group_name_H-M	'P1'
_symmetry_Int_Tables_number	1
_symmetry_cell_setting	triclinic
loop_
_symmetry_equiv_pos_as_xyz
  x,y,z
_cell_length_a	19.188930
_cell_length_b	19.188933
_cell_length_c	14.185569
_cell_angle_alpha	76.889451
_cell_angle_beta	76.885558
_cell_angle_gamma	96.854825
loop_
_atom_site_label
_atom_site_type_symbol
_atom_site_fract_x
_atom_site_fract_y
_atom_site_fract_z
O1	O	0.103049	-0.910261	-0.083399
O2	O	0.603049	-0.410261	0.416601
O3	O	0.114784	-0.706948	-0.083410
O4	O	0.614784	-0.206948	0.416590
O5	O	0.007257	-0.814476	-0.083384
O6	O	0.507257	-0.314476	0.416616
O7	O	0.210575	-0.802734	-0.083424
O8	O	0.710575	-0.302734	0.416576
O9	O	-0.024504	-0.846240	0.083458
O10	O	0.475496	-0.346240	0.583458
O11	O	0.083023	-0.738713	0.083432
O12	O	0.583023	-0.238713	0.583432
O13	O	0.071288	-0.942026	0.083443
O14	O	0.571288	-0.442026	0.583443
Cu15	Cu	0.074255	-0.843270	0.098672
Cu16	Cu	0.574255	-0.343270	0.598672
Cu17	Cu	0.111816	-0.805704	-0.098638
Cu18	Cu	0.611816	-0.305704	0.401362
O19	O	0.178815	-0.834498	0.083418
O20	O	0.678815	-0.334498	0.583418
C21	C	-0.034635	-0.829978	0.000040
C22	C	0.465365	-0.329978	0.500040
C23	C	-0.112142	-0.828839	0.000048
C24	C	0.387858	-0.328839	0.500048
C25	C	0.098523	-0.696819	0.000010
C26	C	0.598523	-0.196819	0.500010
C27	C	0.097382	-0.619314	0.000007
C28	C	0.597382	-0.119314	0.500007
C29	C	0.087549	-0.952154	0.000021
C30	C	0.587549	-0.452154	0.500021
C31	C	0.088690	-1.029658	0.000018
C32	C	0.588690	-0.529658	0.500018
C33	C	-0.157067	-0.891932	0.000056
C34	C	0.342933	-0.391932	0.500056
C35	C	-0.229887	-0.890857	0.000040
C36	C	0.270113	-0.390857	0.500040
C37	C	-0.257784	-0.826690	0.000036
C38	C	0.242216	-0.326690	0.500036
C39	C	-0.212848	-0.763588	0.000022
C40	C	0.287152	-0.263588	0.500022
C41	C	-0.140027	-0.764663	0.000028
C42	C	0.359973	-0.264663	0.500028
N43	N	-0.376597	-0.788452	0.056813
N44	N	0.123403	-0.288452	0.556813
N45	N	-0.445775	-0.787436	0.056809
N46	N	0.054225	-0.287436	0.556809
C47	C	-0.477188	-0.823448	0.000016
C48	C	0.022812	-0.323448	0.500016
N49	N	-0.436814	-0.860527	-0.056762
N50	N	0.063186	-0.360527	0.443238
N51	N	-0.367631	-0.861547	-0.056754
N52	N	0.132369	-0.361547	0.443246
C53	C	-0.336745	-0.825518	0.000029
C54	C	0.163255	-0.325518	0.500029
C55	C	-0.601074	-0.885379	0.000005
C56	C	-0.101074	-0.385379	0.500005
C57	C	-0.673895	-0.884301	-0.000017
C58	C	-0.173895	-0.384301	0.499983
C59	C	-0.656855	-0.757032	-0.000025
C60	C	-0.156855	-0.257032	0.499975
C61	C	-0.584034	-0.758111	-0.000013
C62	C	-0.084034	-0.258111	0.499987
C63	C	-0.556149	-0.822287	0.000007
C64	C	-0.056149	-0.322287	0.500007
C65	C	0.220707	-0.818995	-0.000008
C66	C	0.720707	-0.318995	0.499992
C67	C	0.298214	-0.820133	-0.000023
C68	C	0.798214	-0.320133	0.499977
C69	C	0.106548	-0.048746	-0.090926
C70	C	0.606548	0.451254	0.409074
C71	C	0.107617	-0.121570	-0.090930
C72	C	0.607617	0.378430	0.409070
C73	C	0.090841	-0.175301	0.000015
C74	C	0.590841	0.324699	0.500015
C75	C	0.072977	-0.156207	0.090971
C76	C	0.572977	0.343793	0.590971
C77	C	0.071902	-0.083386	0.090972
C78	C	0.571902	0.416614	0.590972
N79	N	0.119375	-0.297208	0.067702
N80	N	0.619375	0.202792	0.567702
N81	N	0.120399	-0.366384	0.067694
N82	N	0.620399	0.133616	0.567694
C83	C	0.094079	-0.394710	0.000016
C84	C	0.594079	0.105290	0.500016
N85	N	0.066708	-0.351243	-0.067669
N86	N	0.566708	0.148757	0.432331
N87	N	0.065687	-0.282059	-0.067665
N88	N	0.565687	0.217941	0.432335
C89	C	0.092005	-0.254266	0.000023
C90	C	0.592005	0.245734	0.500023
C91	C	0.113095	-0.492761	-0.090939
C92	C	0.613095	0.007239	0.409061
C93	C	0.114159	-0.565587	-0.090939
C94	C	0.614159	-0.065587	0.409061
C95	C	0.079527	-0.600223	0.090965
C96	C	0.579527	-0.100223	0.590965
C97	C	0.078456	-0.527399	0.090962
C98	C	0.578456	-0.027399	0.590962
C99	C	0.095245	-0.473671	0.000008
C100	C	0.595245	0.026329	0.500008
N101	N	0.047836	-0.869696	0.237449
N102	N	0.547836	-0.369696	0.737449
N103	N	0.138229	-0.779283	-0.237415
N104	N	0.638229	-0.279283	0.262585
C105	C	0.215818	-0.701642	0.605059
C106	C	0.715818	-0.201642	1.105059
C107	C	0.195810	-0.721665	0.710086
C108	C	0.695810	-0.221665	1.210086
C109	C	0.100631	-0.816900	0.710069
C110	C	0.600631	-0.316900	1.210069
C111	C	0.120628	-0.796883	0.605041
C112	C	0.620628	-0.296883	1.105041
C113	C	0.178222	-0.739254	0.552544
C114	C	0.678222	-0.239254	1.052544
C115	C	0.083032	-0.834495	0.552525
C116	C	0.583032	-0.334495	1.052525
C117	C	0.103030	-0.814482	0.447506
C118	C	0.603030	-0.314482	0.947506
C119	C	0.160624	-0.756857	0.395002
C120	C	0.660624	-0.256857	0.895002
C121	C	0.198220	-0.719241	0.447525
C122	C	0.698220	-0.219241	0.947525
C123	C	0.025441	-0.892126	0.605024
C124	C	0.525441	-0.392126	1.105024
C125	C	-0.012154	-0.929738	0.552509
C126	C	0.487846	-0.429738	1.052509
C127	C	0.007840	-0.909722	0.447488
C128	C	0.507840	-0.409722	0.947488
C129	C	0.065434	-0.852097	0.394984
C130	C	0.565434	-0.352097	0.894984
C131	C	-0.029756	-0.947338	0.394965
C132	C	0.470244	-0.447338	0.894965
C133	C	-0.009758	-0.927325	0.289946
C134	C	0.490242	-0.427325	0.789946
C135	C	0.085432	-0.832084	0.289964
C136	C	0.585432	-0.332084	0.789964
H137	H	-0.134367	-0.944188	0.000069
H138	H	0.365633	-0.444188	0.500069
N139	N	0.052640	-0.062794	0.189066
N140	N	0.552640	0.437206	0.689066
H141	H	0.041689	-0.107944	0.246680
H142	H	0.541689	0.392056	0.746680
H143	H	0.094902	-0.027927	0.193324
H144	H	0.594902	0.472073	0.693324
H145	H	0.009163	-0.908421	0.690537
H146	H	0.509163	-0.408421	1.190537
N147	N	-0.278350	-0.958916	0.000062
N148	N	0.221650	-0.458916	0.500062
H149	H	-0.320722	-0.973073	0.061912
H150	H	0.179278	-0.473073	0.561912
H151	H	-0.297112	-0.949493	-0.061826
H152	H	0.202888	-0.449493	0.438174
N153	N	-0.722353	-0.952353	-0.000013
N154	N	-0.222353	-0.452353	0.499987
H155	H	-0.693636	-0.993169	0.000004
H156	H	-0.193636	-0.493169	0.500004
H157	H	-0.764721	-0.966448	0.061834
H158	H	-0.264721	-0.466448	0.561834
N159	N	-0.242929	-0.694378	0.000012
N160	N	0.257071	-0.194378	0.500012
H161	H	-0.295879	-0.703271	0.000013
H162	H	0.204121	-0.203271	0.500013
H163	H	-0.238261	-0.678552	0.061860
H164	H	0.261739	-0.178552	0.561860
N165	N	-0.686930	-0.687820	-0.000041
N166	N	-0.186930	-0.187820	0.499959
H167	H	-0.739879	-0.696711	-0.000047
H168	H	-0.239879	-0.196711	0.499953
H169	H	-0.682265	-0.671994	0.061808
H170	H	-0.182265	-0.171994	0.561808
N171	N	-0.091566	-0.696611	0.000019
N172	N	0.408434	-0.196611	0.500019
H173	H	-0.120284	-0.655796	0.000010
H174	H	0.379716	-0.155796	0.500010
H175	H	-0.072766	-0.706060	0.061874
H176	H	0.427234	-0.206060	0.561874
H177	H	-0.076646	-0.994264	0.437721
H178	H	0.423354	-0.494264	0.937721
N179	N	0.236368	-0.681100	0.766730
N180	N	0.736368	-0.181100	1.266730
H181	H	0.275888	-0.641559	0.717534
H182	H	0.775888	-0.141559	1.217534
H183	H	0.201419	-0.658622	0.810319
H184	H	0.701419	-0.158622	1.310319
N185	N	0.133413	-0.586171	-0.189039
N186	N	0.633413	-0.086171	0.310961
H187	H	0.184071	-0.560135	-0.228803
H188	H	0.684071	-0.060135	0.271197
H189	H	0.131501	-0.640463	-0.175165
H190	H	0.631501	-0.140463	0.324835
N191	N	0.124642	0.009201	-0.189021
N192	N	0.624642	0.509201	0.310979
H193	H	0.175672	0.009895	-0.228793
H194	H	0.675672	0.509895	0.271207
H195	H	0.089081	-0.001735	-0.228692
H196	H	0.589081	0.498265	0.271308
H197	H	-0.547456	-0.706735	-0.000014
H198	H	-0.047456	-0.206735	0.499986
H199	H	0.132326	-0.785152	0.247220
H200	H	0.632326	-0.285152	0.747220
H201	H	-0.578368	-0.937634	0.000016
H202	H	-0.078368	-0.437634	0.500016
H203	H	-0.059047	-0.976662	0.595263
H204	H	0.440953	-0.476662	1.095263
H205	H	0.053738	-0.863823	0.752824
H206	H	0.553738	-0.363823	1.252824
H207	H	0.176908	-0.740565	0.309489
H208	H	0.676908	-0.240565	0.809489
N209	N	0.131193	-0.434803	-0.189028
N210	N	0.631193	0.065197	0.310972
H211	H	0.182222	-0.434112	-0.228800
H212	H	0.682222	0.065888	0.271200
H213	H	0.095632	-0.445729	-0.228703
H214	H	0.595632	0.054271	0.271297
N215	N	0.126877	-0.142169	-0.189023
N216	N	0.626877	0.357831	0.310977
H217	H	0.137348	-0.097083	-0.246641
H218	H	0.637348	0.402917	0.253359
H219	H	0.171351	-0.165835	-0.192981
H220	H	0.671351	0.334165	0.307019
H221	H	0.059318	-0.199961	0.165019
H222	H	0.559318	0.300039	0.665019
N223	N	0.061425	-0.658167	0.189059
N224	N	0.561425	-0.158167	0.689059
H225	H	0.064813	-0.707197	0.175259
H226	H	0.564813	-0.207197	0.675259
H227	H	0.096948	-0.647209	0.228771
H228	H	0.596948	-0.147209	0.728771
H229	H	-0.040372	-0.957953	0.247187
H230	H	0.459628	-0.457953	0.747187
N231	N	0.059199	-0.506805	0.189053
N232	N	0.559199	-0.006805	0.689053
H233	H	0.048249	-0.551954	0.246666
H234	H	0.548249	-0.051954	0.746666
H235	H	0.101461	-0.471937	0.193310
H236	H	0.601461	0.028063	0.693310
N237	N	0.260334	-0.657078	0.390892
N238	N	0.760334	-0.157078	0.890892
H239	H	0.281116	-0.636282	0.440094
H240	H	0.781116	-0.136282	0.940094
H241	H	0.299435	-0.675404	0.347306
H242	H	0.799435	-0.175404	0.847306
H243	H	0.262712	-0.654711	0.562315
H244	H	0.762712	-0.154711	1.062315
