data_functionalizedCrystal
_audit_creation_method	'MofGen! by Chris Wilmer'
_symmetry_space_group_name_H-M	'P1'
_symmetry_Int_Tables_number	1
_symmetry_cell_setting	triclinic
loop_
_symmetry_equiv_pos_as_xyz
  x,y,z
_cell_length_a	15.995350
_cell_length_b	16.992695
_cell_length_c	16.053802
_cell_angle_alpha	92.741074
_cell_angle_beta	87.422378
_cell_angle_gamma	87.080299
loop_
_atom_site_label
_atom_site_type_symbol
_atom_site_fract_x
_atom_site_fract_y
_atom_site_fract_z
O1	O	1.121056	0.097771	-0.069359
O2	O	1.454390	0.431104	0.263975
O3	O	1.787723	0.764437	0.597308
O4	O	0.878117	0.110251	-0.069376
O5	O	1.211450	0.443584	0.263957
O6	O	1.544784	0.776917	0.597291
O7	O	0.998613	-0.010132	-0.069361
O8	O	1.331946	0.323202	0.263972
O9	O	1.665279	0.656535	0.597306
O10	O	1.000561	0.218153	-0.069374
O11	O	1.333894	0.551486	0.263959
O12	O	1.667228	0.884820	0.597293
O13	O	0.991978	-0.003533	0.069497
O14	O	1.325312	0.329801	0.402831
O15	O	1.658645	0.663134	0.736164
O16	O	0.871483	0.116849	0.069482
O17	O	1.204816	0.450183	0.402815
O18	O	1.538150	0.783516	0.736149
O19	O	1.114422	0.104370	0.069499
O20	O	1.447756	0.437703	0.402833
O21	O	1.781089	0.771036	0.736166
Zn22	Zn	0.991899	0.111657	0.091537
Zn23	Zn	1.325233	0.444991	0.424871
Zn24	Zn	1.658566	0.778324	0.758204
Zn25	Zn	1.000640	0.102963	-0.091414
Zn26	Zn	1.333973	0.436296	0.241919
Zn27	Zn	1.667307	0.769630	0.575253
O28	O	0.993927	0.224752	0.069484
O29	O	1.327260	0.558085	0.402817
O30	O	1.660593	0.891419	0.736151
C31	C	0.992790	-0.036045	0.000068
C32	C	1.326123	0.297289	0.333401
C33	C	1.659456	0.630622	0.666735
C34	C	0.985314	-0.123089	0.000067
C35	C	1.318647	0.210244	0.333400
C36	C	1.651980	0.543578	0.666734
C37	C	0.843571	0.113034	0.000051
C38	C	1.176904	0.446367	0.333384
C39	C	1.510238	0.779701	0.666718
C40	C	0.750517	0.111487	0.000044
C41	C	1.083851	0.444820	0.333378
C42	C	1.417184	0.778153	0.666711
C43	C	1.057449	-0.173329	0.000073
C44	C	1.390782	0.160004	0.333406
C45	C	1.724115	0.493338	0.666740
C46	C	1.050419	-0.255116	0.000065
C47	C	1.383753	0.078217	0.333398
C48	C	1.717086	0.411551	0.666731
C49	C	0.971254	-0.286661	0.000056
C50	C	1.304587	0.046672	0.333390
C51	C	1.637921	0.380006	0.666723
C52	C	0.899114	-0.236415	0.000048
C53	C	1.232447	0.096919	0.333381
C54	C	1.565780	0.430252	0.666714
C55	C	0.906144	-0.154630	0.000050
C56	C	1.239477	0.178704	0.333384
C57	C	1.572811	0.512037	0.666717
C58	C	0.942116	-0.530260	0.000043
C59	C	1.275450	-0.196926	0.333376
C60	C	1.608783	0.136407	0.666709
C61	C	0.935091	-0.612051	0.000043
C62	C	1.268424	-0.278718	0.333376
C63	C	1.601758	0.054616	0.666709
C64	C	1.086398	-0.630747	0.000058
C65	C	1.419731	-0.297414	0.333392
C66	C	1.753064	0.035920	0.666725
C67	C	1.093421	-0.548959	0.000066
C68	C	1.426754	-0.215626	0.333399
C69	C	1.760087	0.117708	0.666732
C70	C	1.021281	-0.498720	0.000053
C71	C	1.354614	-0.165387	0.333386
C72	C	1.687947	0.167947	0.666719
N73	N	0.964067	-0.370260	0.000050
N74	N	1.297400	-0.036927	0.333384
N75	N	1.630734	0.296406	0.666717
N76	N	1.028469	-0.415123	0.000053
N77	N	1.361802	-0.081790	0.333386
N78	N	1.695135	0.251544	0.666719
C79	C	0.412397	0.105932	0.000062
C80	C	0.745731	0.439266	0.333395
C81	C	1.079064	0.772599	0.666729
C82	C	0.454079	0.020213	0.000377
C83	C	0.787413	0.353546	0.333710
C84	C	1.120746	0.686879	0.667043
C85	C	0.550888	0.021745	0.000058
C86	C	0.884222	0.355078	0.333391
C87	C	1.217555	0.688411	0.666725
C88	C	0.580143	0.108688	0.000054
C89	C	0.913476	0.442021	0.333387
C90	C	1.246809	0.775354	0.666720
C91	C	0.545673	0.147206	-0.079240
C92	C	0.879007	0.480540	0.254093
C93	C	1.212340	0.813873	0.587427
C94	C	0.448896	0.145050	-0.079301
C95	C	0.782230	0.478383	0.254033
C96	C	1.115563	0.811716	0.587366
C97	C	0.441132	0.154325	0.078607
C98	C	0.774465	0.487659	0.411940
C99	C	1.107798	0.820992	0.745274
C100	C	0.538026	0.154355	0.079649
C101	C	0.871359	0.487688	0.412983
C102	C	1.204693	0.821021	0.746316
C103	C	0.674945	0.110249	0.000046
C104	C	1.008278	0.443582	0.333380
C105	C	1.341612	0.776916	0.666713
C106	C	0.317595	0.104373	0.000064
C107	C	0.650928	0.437706	0.333397
C108	C	0.984262	0.771040	0.666731
C109	C	1.148969	0.101586	0.000071
C110	C	1.482302	0.434920	0.333404
C111	C	1.815635	0.768253	0.666737
C112	C	1.242022	0.103133	0.000072
C113	C	1.575356	0.436466	0.333405
C114	C	1.908689	0.769800	0.666738
C115	C	0.999750	0.250665	0.000054
C116	C	1.333083	0.583998	0.333387
C117	C	1.666416	0.917332	0.666720
C118	C	1.007226	0.337709	0.000049
C119	C	1.340559	0.671042	0.333382
C120	C	1.673893	1.004376	0.666715
N121	N	0.985940	0.117590	0.216397
N122	N	1.319273	0.450924	0.549730
N123	N	1.652607	0.784257	0.883064
N124	N	1.006606	0.097024	-0.216274
N125	N	1.339939	0.430357	0.117060
N126	N	1.673272	0.763690	0.450393
C127	C	1.037232	0.066386	0.260097
C128	C	1.370565	0.399719	0.593431
C129	C	1.703899	0.733052	0.926764
C130	C	1.033072	0.070544	0.347504
C131	C	1.366405	0.403877	0.680837
C132	C	1.699738	0.737210	1.014170
C133	C	0.977623	0.125910	0.391208
C134	C	1.310956	0.459244	0.724541
C135	C	1.644290	0.792577	1.057874
C136	C	0.926325	0.177117	0.347501
C137	C	1.259658	0.510450	0.680835
C138	C	1.592992	0.843784	1.014168
C139	C	0.930482	0.172955	0.260097
C140	C	1.263815	0.506288	0.593430
C141	C	1.597148	0.839622	0.926763
C142	C	0.959465	0.144068	0.652615
C143	C	1.292798	0.477402	0.985949
C144	C	1.626131	0.810735	1.319282
C145	C	0.955314	0.148228	0.740026
C146	C	1.288647	0.481562	1.073359
C147	C	1.621980	0.814895	1.406693
C148	C	1.062060	0.041653	0.740022
C149	C	1.395393	0.374987	1.073355
C150	C	1.728726	0.708320	1.406689
C151	C	1.066215	0.037499	0.652616
C152	C	1.399548	0.370833	0.985949
C153	C	1.732882	0.704166	1.319282
C154	C	1.014914	0.088703	0.608917
C155	C	1.348247	0.422037	0.942250
C156	C	1.681581	0.755370	1.275584
N157	N	0.973371	0.130163	0.480551
N158	N	1.306704	0.463496	0.813884
N159	N	1.640038	0.796830	1.147218
N160	N	1.019162	0.084446	0.519575
N161	N	1.352496	0.417779	0.852909
N162	N	1.685829	0.751113	1.186242
H163	H	1.121913	-0.147652	0.000085
H164	H	1.455247	0.185681	0.333418
H165	H	1.788580	0.519015	0.666752
Cl166	Cl	0.594638	-0.033880	-0.087999
Cl167	Cl	0.927971	0.299453	0.245335
Cl168	Cl	1.261305	0.632786	0.578668
H169	H	0.910158	0.193318	0.775606
H170	H	1.243491	0.526651	1.108939
H171	H	1.576825	0.859984	1.442273
H172	H	0.415849	0.129153	0.138710
H173	H	0.749183	0.462486	0.472043
H174	H	1.082516	0.795820	0.805376
Cl175	Cl	0.574322	0.245599	-0.083819
Cl176	Cl	0.907656	0.578932	0.249515
Cl177	Cl	1.240989	0.912266	0.582848
H178	H	1.145130	-0.671660	0.000067
H179	H	1.478463	-0.338327	0.333400
H180	H	1.811796	-0.004993	0.666734
H181	H	0.881173	0.222195	0.383090
H182	H	1.214506	0.555529	0.716424
H183	H	1.547840	0.888862	1.049757
H184	H	1.157885	-0.523282	0.000073
H185	H	1.491219	-0.189948	0.333406
H186	H	1.824552	0.143385	0.666739
Cl187	Cl	0.865994	0.237327	0.205160
Cl188	Cl	1.199327	0.570660	0.538493
Cl189	Cl	1.532660	0.903994	0.871826
H190	H	1.109160	-0.296019	0.000071
H191	H	1.442493	0.037314	0.333405
H192	H	1.775826	0.370648	0.666738
Cl193	Cl	0.894977	0.208441	0.597685
Cl194	Cl	1.228311	0.541774	0.931019
Cl195	Cl	1.561644	0.875107	1.264352
Cl196	Cl	0.424472	-0.036609	-0.086923
Cl197	Cl	0.757805	0.296724	0.246411
Cl198	Cl	1.091138	0.630057	0.579744
H199	H	0.574902	0.115031	-0.138249
H200	H	0.908235	0.448365	0.195084
H201	H	1.241568	0.781698	0.528417
Cl202	Cl	0.799591	-0.276072	0.000027
Cl203	Cl	1.132925	0.057262	0.333360
Cl204	Cl	1.466258	0.390595	0.666694
Cl205	Cl	1.097553	0.006170	0.402443
Cl206	Cl	1.430887	0.339504	0.735776
Cl207	Cl	1.764220	0.672837	1.069109
Cl208	Cl	1.135924	-0.032104	0.597673
Cl209	Cl	1.469257	0.301229	0.931007
Cl210	Cl	1.802590	0.634562	1.264340
H211	H	0.560474	0.126273	0.138311
H212	H	0.893808	0.459606	0.471644
H213	H	1.227141	0.792940	0.804977
H214	H	0.870621	-0.637730	0.000049
H215	H	1.203955	-0.304397	0.333383
H216	H	1.537288	0.028936	0.666716
Cl217	Cl	0.851425	-0.467113	0.000024
Cl218	Cl	1.184758	-0.133779	0.333358
Cl219	Cl	1.518091	0.199554	0.666691
H220	H	0.557405	0.217983	0.084436
H221	H	0.890738	0.551317	0.417769
H222	H	1.224072	0.884650	0.751102
Cl223	Cl	0.815456	-0.091470	0.000040
Cl224	Cl	1.148789	0.241864	0.333373
Cl225	Cl	1.482123	0.575197	0.666706
H226	H	0.574377	-0.008794	0.056899
H227	H	0.907711	0.324539	0.390233
H228	H	1.241044	0.657873	0.723566
H229	H	1.103825	-0.000036	0.775610
H230	H	1.437159	0.333298	1.108943
H231	H	1.770492	0.666631	1.442276
H232	H	0.430547	-0.011355	0.057242
H233	H	0.763881	0.321978	0.390575
H234	H	1.097214	0.655312	0.723908
H235	H	0.431356	0.111395	-0.138572
H236	H	0.764690	0.444729	0.194762
H237	H	1.098023	0.778062	0.528095
H238	H	0.421032	0.207824	-0.082902
H239	H	0.754365	0.541157	0.250431
H240	H	1.087699	0.874490	0.583765
Cl241	Cl	1.106947	-0.003218	0.205164
Cl242	Cl	1.440281	0.330115	0.538497
Cl243	Cl	1.773614	0.663448	0.871831
H244	H	0.413574	0.217562	0.079140
H245	H	0.746908	0.550895	0.412474
H246	H	1.080241	0.884229	0.745807
