data_functionalizedCrystal
_audit_creation_method	'MofGen! by Chris Wilmer'
_symmetry_space_group_name_H-M	'P1'
_symmetry_Int_Tables_number	1
_symmetry_cell_setting	triclinic
loop_
_symmetry_equiv_pos_as_xyz
  x,y,z
_cell_length_a	19.805407
_cell_length_b	12.827892
_cell_length_c	19.805399
_cell_angle_alpha	90.022529
_cell_angle_beta	90.017803
_cell_angle_gamma	90.012708
loop_
_atom_site_label
_atom_site_type_symbol
_atom_site_fract_x
_atom_site_fract_y
_atom_site_fract_z
Zn1	Zn	1.034787	-0.416132	0.382711
Zn2	Zn	1.534787	0.083868	0.882711
Zn3	Zn	1.034724	-0.590887	0.269533
Zn4	Zn	1.534724	-0.090887	0.769533
Zn5	Zn	0.921602	-0.416153	0.269540
Zn6	Zn	1.421602	0.083847	0.769540
Zn7	Zn	0.921587	-0.590824	0.382683
Zn8	Zn	1.421587	-0.090824	0.882683
O9	O	0.978175	-0.503499	0.326117
O10	O	1.478175	-0.003499	0.826117
O11	O	1.129496	-0.439332	0.367707
O12	O	1.629496	0.060668	0.867707
O13	O	1.019698	-0.567744	0.174817
O14	O	1.519698	-0.067744	0.674817
O15	O	0.936649	-0.269914	0.284566
O16	O	1.436649	0.230086	0.784566
O17	O	1.129449	-0.567724	0.284556
O18	O	1.629449	-0.067724	0.784556
O19	O	1.019806	-0.269899	0.367713
O20	O	1.519806	0.230101	0.867713
O21	O	0.936588	-0.439367	0.174822
O22	O	1.436588	0.060633	0.674822
O23	O	0.826884	-0.439305	0.284539
O24	O	1.326884	0.060695	0.784539
O25	O	0.936624	-0.567615	0.477404
O26	O	1.436624	-0.067615	0.977404
O27	O	0.826873	-0.567635	0.367666
O28	O	1.326873	-0.067635	0.867666
O29	O	1.019792	-0.439270	0.477424
O30	O	1.519792	0.060730	0.977424
O31	O	1.019684	-0.737115	0.284528
O32	O	1.519684	-0.237115	0.784528
O33	O	0.936563	-0.737068	0.367659
O34	O	1.436563	-0.237068	0.867659
C35	C	0.802319	-0.503466	0.326100
C36	C	1.302319	-0.003466	0.826100
C37	C	0.727087	-0.503477	0.326109
C38	C	1.227087	-0.003477	0.826109
C39	C	0.691768	-0.436742	0.369472
C40	C	1.191768	0.063258	0.869472
C41	C	0.621080	-0.436747	0.369475
C42	C	1.121080	0.063253	0.869475
C43	C	0.585712	-0.503494	0.326118
C44	C	1.085712	-0.003494	0.826118
C45	C	0.621036	-0.570233	0.282750
C46	C	1.121036	-0.070233	0.782750
C47	C	0.691723	-0.570221	0.282744
C48	C	1.191723	-0.070221	0.782744
C49	C	0.335963	-0.570280	0.282771
C50	C	0.835963	-0.070280	0.782771
C51	C	0.265271	-0.570288	0.282781
C52	C	0.765271	-0.070288	0.782781
C53	C	0.265319	-0.436806	0.369501
C54	C	0.765319	0.063194	0.869501
C55	C	0.336006	-0.436794	0.369496
C56	C	0.836006	0.063206	0.869496
C57	C	0.371324	-0.503528	0.326126
C58	C	0.871324	-0.003528	0.826126
C59	C	0.447973	-0.503520	0.326123
C60	C	0.947973	-0.003520	0.826123
C61	C	0.509065	-0.503509	0.326124
C62	C	1.009065	-0.003509	0.826124
C63	C	0.978133	-0.775009	0.326105
C64	C	1.478133	-0.275009	0.826105
C65	C	0.978177	-0.891162	0.326122
C66	C	1.478177	-0.391162	0.826122
C67	C	1.019356	-0.942935	0.285032
C68	C	1.519356	-0.442935	0.785032
C69	C	1.019403	-1.062986	0.285049
C70	C	1.519403	-0.562986	0.785049
C71	C	1.154718	-0.503533	0.326134
C72	C	1.654718	-0.003533	0.826134
C73	C	1.229950	-0.503547	0.326141
C74	C	1.729950	-0.003547	0.826141
C75	C	0.978213	-0.503433	0.502660
C76	C	1.478213	-0.003433	1.002660
C77	C	0.978229	-0.503405	0.577892
C78	C	1.478229	-0.003405	1.077892
C79	C	0.978236	-0.230929	0.326144
C80	C	1.478236	0.269071	0.826144
C81	C	0.978262	-0.114776	0.326155
C82	C	1.478262	0.385224	0.826155
C83	C	0.978176	-0.503489	0.150261
C84	C	1.478176	-0.003489	0.650261
C85	C	0.978291	-0.503223	0.075029
C86	C	1.478291	-0.003223	0.575029
C87	C	1.021536	-0.436572	0.613248
C88	C	1.521536	0.063428	1.113248
C89	C	1.021543	-0.436542	0.683936
C90	C	1.521543	0.063458	1.183936
C91	C	0.978246	-0.503350	0.719267
C92	C	1.478246	-0.003350	1.219267
C93	C	0.934935	-0.570186	0.683906
C94	C	1.434935	-0.070186	1.183906
C95	C	0.934925	-0.570210	0.613219
C96	C	1.434925	-0.070210	1.113219
C97	C	0.934973	-0.570089	0.968980
C98	C	1.434973	-0.070089	1.468980
C99	C	0.934988	-0.570061	1.039672
C100	C	1.434988	-0.070061	1.539672
C101	C	1.021591	-0.436420	1.039697
C102	C	1.521591	0.063580	1.539697
C103	C	1.021581	-0.436445	0.969010
C104	C	1.521581	0.063555	1.469010
C105	C	0.978268	-0.503276	0.933655
C106	C	1.478268	-0.003276	1.433655
C107	C	0.978260	-0.503307	0.857006
C108	C	1.478260	-0.003307	1.357006
C109	C	0.978257	-0.503326	0.795915
C110	C	1.478257	-0.003326	1.295915
H111	H	0.364799	-0.382446	0.404804
H112	H	0.864799	0.117554	0.904804
C113	C	1.069183	-0.363031	0.722825
C114	C	1.569183	0.136969	1.222825
H115	H	1.094973	-0.323257	0.691659
H116	H	1.594973	0.176743	1.191659
H117	H	1.043309	-0.317480	0.750400
H118	H	1.543309	0.182520	1.250400
H119	H	1.098669	-0.403012	0.750400
H120	H	1.598669	0.096988	1.250400
H121	H	1.056795	-0.382172	0.584486
H122	H	1.556795	0.117828	1.084486
C123	C	1.069204	-0.362952	0.930149
C124	C	1.569204	0.137048	1.430149
H125	H	1.094993	-0.323136	0.961330
H126	H	1.594993	0.176864	1.461330
H127	H	1.098683	-0.402938	0.902572
H128	H	1.598683	0.097062	1.402572
H129	H	1.043311	-0.317423	0.902577
H130	H	1.543311	0.182577	1.402577
C131	C	0.887309	-0.643676	0.722766
C132	C	1.387309	-0.143676	1.222766
H133	H	0.861511	-0.683476	0.691583
H134	H	1.361511	-0.183476	1.191583
H135	H	0.913193	-0.689204	0.750340
H136	H	1.413193	-0.189204	1.250340
H137	H	0.857828	-0.603680	0.750340
H138	H	1.357828	-0.103680	1.250340
H139	H	0.236555	-0.382464	0.404813
H140	H	0.736555	0.117536	0.904813
C141	C	0.887305	-0.643752	0.574328
C142	C	1.387305	-0.143752	1.074328
H143	H	0.861529	-0.683551	0.605492
H144	H	1.361529	-0.183551	1.105492
H145	H	0.857815	-0.603802	0.546744
H146	H	1.357815	-0.103802	1.046744
H147	H	0.913201	-0.689295	0.546760
H148	H	1.413201	-0.189295	1.046760
C149	C	1.067029	-1.123125	0.237521
C150	C	1.567029	-0.623125	0.737521
H151	H	1.060814	-1.195923	0.243770
H152	H	1.560814	-0.695923	0.743770
H153	H	1.057154	-1.105341	0.192023
H154	H	1.557154	-0.605341	0.692023
H155	H	1.112507	-1.105226	0.247458
H156	H	1.612507	-0.605226	0.747458
C157	C	0.930631	-1.054648	0.373685
C158	C	1.430631	-0.554648	0.873685
H159	H	0.904824	-1.102714	0.399473
H160	H	1.404824	-0.602714	0.899473
H161	H	0.956514	-1.012006	0.403167
H162	H	1.456514	-0.512006	0.903167
H163	H	0.901160	-1.012133	0.347732
H164	H	1.401160	-0.512133	0.847732
C165	C	0.730667	-0.363319	0.417166
C166	C	1.230667	0.136681	0.917166
H167	H	0.699505	-0.323568	0.442987
H168	H	1.199505	0.176432	0.942987
H169	H	0.758251	-0.403346	0.446612
H170	H	1.258251	0.096654	0.946612
H171	H	0.758234	-0.317726	0.391318
H172	H	1.258234	0.182274	0.891318
H173	H	0.899715	-0.624522	0.940203
H174	H	1.399715	-0.124522	1.440203
C175	C	1.069231	-0.362899	1.078589
C176	C	1.569231	0.137101	1.578589
H177	H	1.063033	-0.372442	1.125748
H178	H	1.563033	0.127558	1.625748
H179	H	1.114702	-0.378210	1.067010
H180	H	1.614702	0.121790	1.567010
H181	H	1.059337	-0.292684	1.067008
H182	H	1.559337	0.207316	1.567008
H183	H	0.236476	-0.624644	0.247472
H184	H	0.736476	-0.124644	0.747472
H185	H	0.942958	-0.935714	0.361317
H186	H	1.442958	-0.435714	0.861317
C187	C	0.582231	-0.363341	0.417176
C188	C	1.082231	0.136659	0.917176
H189	H	0.613419	-0.323597	0.443002
H190	H	1.113419	0.176403	0.943002
H191	H	0.554651	-0.317756	0.391338
H192	H	1.054651	0.182244	0.891338
H193	H	0.554664	-0.403387	0.446626
H194	H	1.054664	0.096613	0.946626
H195	H	0.592234	-0.624574	0.247444
H196	H	1.092234	-0.124574	0.747444
C197	C	0.374804	-0.643687	0.235068
C198	C	0.874804	-0.143687	0.735068
H199	H	0.343614	-0.683446	0.209253
H200	H	0.843614	-0.183446	0.709253
H201	H	0.402369	-0.603649	0.205618
H202	H	0.902369	-0.103649	0.705618
H203	H	0.402386	-0.689274	0.260908
H204	H	0.902386	-0.189274	0.760908
C205	C	0.730574	-0.643638	0.235051
C206	C	1.230574	-0.143638	0.735051
H207	H	0.699388	-0.683401	0.209235
H208	H	1.199388	-0.183401	0.709235
H209	H	0.758143	-0.603604	0.205601
H210	H	1.258143	-0.103604	0.705601
H211	H	0.758153	-0.689221	0.260897
H212	H	1.258153	-0.189221	0.760897
H213	H	0.899728	-0.624467	1.068437
H214	H	1.399728	-0.124467	1.568437
C215	C	1.066940	-0.882760	0.237490
C216	C	1.566940	-0.382760	0.737490
H217	H	1.060664	-0.809967	0.243713
H218	H	1.560664	-0.309967	0.743713
H219	H	1.112428	-0.900531	0.247428
H220	H	1.612428	-0.400531	0.747428
H221	H	1.057074	-0.900650	0.191994
H222	H	1.557074	-0.400650	0.691994
