data_functionalizedCrystal
_audit_creation_method	'MofGen! by Chris Wilmer'
_symmetry_space_group_name_H-M	'P1'
_symmetry_Int_Tables_number	1
_symmetry_cell_setting	triclinic
loop_
_symmetry_equiv_pos_as_xyz
  x,y,z
_cell_length_a	12.759401
_cell_length_b	16.959454
_cell_length_c	12.759393
_cell_angle_alpha	89.970360
_cell_angle_beta	89.979062
_cell_angle_gamma	90.021600
loop_
_atom_site_label
_atom_site_type_symbol
_atom_site_fract_x
_atom_site_fract_y
_atom_site_fract_z
Zn1	Zn	1.606227	-0.314611	-0.594026
Zn2	Zn	1.606102	-0.446810	-0.418349
Zn3	Zn	1.430526	-0.314653	-0.418362
Zn4	Zn	1.430501	-0.446755	-0.593986
O5	O	1.518339	-0.380707	-0.506181
O6	O	1.753232	-0.332153	-0.570734
O7	O	1.582769	-0.429320	-0.271330
O8	O	1.453896	-0.204037	-0.441686
O9	O	1.753139	-0.429279	-0.441665
O10	O	1.582983	-0.204006	-0.570746
O11	O	1.453774	-0.332225	-0.271339
O12	O	1.283502	-0.332171	-0.441647
O13	O	1.453854	-0.429185	-0.741013
O14	O	1.283484	-0.429226	-0.570678
O15	O	1.582959	-0.332100	-0.741042
O16	O	1.582745	-0.557414	-0.441626
O17	O	1.453732	-0.557373	-0.570666
C18	C	1.245372	-0.380698	-0.506160
C19	C	1.128595	-0.380713	-0.506176
C20	C	1.518251	-0.586074	-0.506163
C21	C	1.518309	-0.673930	-0.506190
C22	C	1.073751	-0.431326	-0.573257
C23	C	0.964027	-0.431329	-0.573277
C24	C	0.964000	-0.330103	-0.439128
C25	C	1.073722	-0.330097	-0.439113
C26	C	1.451259	-1.045415	-0.573365
C27	C	1.585711	-1.045397	-0.439104
C28	C	1.585675	-0.962851	-0.439094
C29	C	1.518428	-0.921583	-0.506220
C30	C	1.451218	-0.962861	-0.573355
C31	C	1.652875	-0.921567	-0.371953
C32	C	1.652841	-0.839016	-0.371940
C33	C	1.585599	-0.797747	-0.439071
C34	C	1.518387	-0.839030	-0.506210
C35	C	1.451141	-0.797762	-0.573335
C36	C	1.383934	-0.839043	-0.640480
C37	C	1.383977	-0.921592	-0.640486
C38	C	1.585556	-0.715198	-0.439065
C39	C	1.451100	-0.715208	-0.573326
C40	C	1.792372	-0.380718	-0.506202
C41	C	1.909149	-0.380722	-0.506212
C42	C	1.518418	-0.380632	-0.780214
C43	C	1.518451	-0.380599	-0.896991
C44	C	1.518456	-0.174539	-0.506222
C45	C	1.518506	-0.086683	-0.506239
C46	C	1.585681	-0.330039	-0.951870
C47	C	1.585699	-0.330005	-1.061594
C48	C	1.451254	-0.431098	-1.061551
C49	C	1.451232	-0.431128	-0.951829
C50	C	1.518321	-0.380726	-0.233213
C51	C	1.518491	-0.380536	-0.116437
H52	H	0.919378	-0.472542	-0.627903
O53	O	1.651055	-0.281000	-1.115022
C54	C	1.792966	-0.270335	-1.238888
C55	C	1.719001	-0.325927	-1.178465
H56	H	1.847933	-0.306637	-1.290179
H57	H	1.744818	-0.229000	-1.290322
H58	H	1.840953	-0.234208	-1.180826
H59	H	1.670998	-0.362105	-1.236451
H60	H	1.767210	-0.367210	-1.127014
H61	H	0.919310	-0.288895	-0.384526
O62	O	1.318805	-0.961658	-0.705850
C63	C	1.267679	-0.986842	-0.884512
C64	C	1.341567	-0.941428	-0.810614
H65	H	1.286040	-0.970490	-0.969228
H66	H	1.279263	-1.052939	-0.873072
H67	H	1.182971	-0.970678	-0.865931
H68	H	1.426303	-0.957527	-0.829149
H69	H	1.329891	-0.875342	-0.822067
H70	H	1.396544	-1.079030	-0.628035
O71	O	1.386034	-0.480360	-0.898558
C72	C	1.334905	-0.614816	-0.864985
C73	C	1.408821	-0.559158	-0.925360
H74	H	1.353287	-0.678535	-0.886648
H75	H	1.346440	-0.606222	-0.777132
H76	H	1.250208	-0.600885	-0.886533
H77	H	1.493546	-0.573055	-0.903900
H78	H	1.397195	-0.567762	-1.013198
H79	H	1.707565	-0.805410	-0.317268
H80	H	1.640454	-1.079002	-0.384447
H81	H	1.640270	-0.681591	-0.384392
O82	O	1.386064	-0.480158	-1.114984
C83	C	1.326469	-0.524884	-1.283997
C84	C	1.400367	-0.469295	-1.223618
H85	H	1.337991	-0.516109	-1.371838
H86	H	1.344876	-0.588644	-1.262491
H87	H	1.241769	-0.511012	-1.262351
H88	H	1.485092	-0.483096	-1.245233
H89	H	1.381869	-0.405551	-1.245130
H90	H	1.118425	-0.472539	-0.627866
H91	H	1.118378	-0.288876	-0.384488
H92	H	1.640413	-0.288893	-0.907225
H93	H	1.396343	-0.681613	-0.627992
O94	O	1.318464	-0.798989	-0.705576
C95	C	1.139721	-0.773838	-0.756469
C96	C	1.213740	-0.819236	-0.682668
H97	H	1.055038	-0.790203	-0.737990
H98	H	1.151145	-0.707738	-0.744919
H99	H	1.158196	-0.790005	-0.841198
H100	H	1.195311	-0.803135	-0.597912
H101	H	1.202303	-0.885324	-0.694309
O102	O	1.718068	-0.961775	-0.306758
C103	C	1.777459	-1.088944	-0.247024
C104	C	1.703649	-1.043502	-0.320989
H105	H	1.765811	-1.155028	-0.258488
H106	H	1.862226	-1.072768	-0.265419
H107	H	1.758929	-1.072668	-0.162345
H108	H	1.722084	-1.059754	-0.405693
H109	H	1.618903	-1.059682	-0.302504
