data_functionalizedCrystal
_audit_creation_method	'MofGen! by Chris Wilmer'
_symmetry_space_group_name_H-M	'P1'
_symmetry_Int_Tables_number	1
_symmetry_cell_setting	triclinic
loop_
_symmetry_equiv_pos_as_xyz
  x,y,z
_cell_length_a	10.654541
_cell_length_b	17.699082
_cell_length_c	9.130307
_cell_angle_alpha	90.001351
_cell_angle_beta	90.000178
_cell_angle_gamma	83.883205
loop_
_atom_site_label
_atom_site_type_symbol
_atom_site_fract_x
_atom_site_fract_y
_atom_site_fract_z
O1	O	1.665977	0.106293	0.121748
O2	O	2.165977	0.606293	0.621748
O3	O	1.300321	0.116422	0.121760
O4	O	1.800321	0.616422	0.621760
O5	O	1.493481	0.001234	0.121751
O6	O	1.993481	0.501234	0.621751
O7	O	1.472818	0.221481	0.121756
O8	O	1.972818	0.721481	0.621756
O9	O	1.493474	0.001233	-0.121848
O10	O	1.993474	0.501233	0.378152
O11	O	1.300315	0.116421	-0.121839
O12	O	1.800315	0.616421	0.378161
O13	O	1.665971	0.106292	-0.121851
O14	O	2.165971	0.606292	0.378149
Cu15	Cu	1.483142	0.111356	-0.144088
Cu16	Cu	1.983142	0.611356	0.355912
Cu17	Cu	1.483150	0.111358	0.143996
Cu18	Cu	1.983150	0.611358	0.643996
O19	O	1.472811	0.221480	-0.121843
O20	O	1.972811	0.721480	0.378157
C21	C	1.253533	0.115678	-0.000038
C22	C	1.753533	0.615678	0.499962
C23	C	1.114128	0.113454	-0.000033
C24	C	1.614128	0.613454	0.499967
C25	C	1.492737	-0.026968	-0.000046
C26	C	1.992737	0.473032	0.499954
C27	C	1.490517	-0.111001	-0.000039
C28	C	1.990517	0.388999	0.499961
N29	N	1.483146	0.111355	-0.346711
N30	N	1.983146	0.611355	0.153289
C31	C	1.083745	0.251193	-0.000012
C32	C	1.583745	0.751193	0.499988
C33	C	1.003063	0.319015	0.000005
C34	C	1.503063	0.819015	0.500005
C35	C	0.872082	0.316921	0.000007
C36	C	1.372082	0.816921	0.500007
C37	C	0.821781	0.246997	-0.000013
C38	C	1.321781	0.746997	0.499987
C39	C	0.902463	0.179176	-0.000030
C40	C	1.402463	0.679176	0.499970
C41	C	1.033446	0.181278	-0.000027
C42	C	1.533446	0.681278	0.499973
C43	C	0.932846	0.041438	-0.000062
C44	C	1.432846	0.541438	0.499938
C45	C	1.063827	0.043531	-0.000053
C46	C	1.563827	0.543531	0.499947
C47	C	0.882545	-0.028485	-0.000082
C48	C	1.382545	0.471515	0.499918
C49	C	0.963227	-0.096308	-0.000088
C50	C	1.463227	0.403692	0.499912
C51	C	1.094216	-0.094211	-0.000088
C52	C	1.594216	0.405789	0.499912
C53	C	1.144509	-0.024291	-0.000070
C54	C	1.644509	0.475709	0.499930
C55	C	1.712759	0.107036	-0.000050
C56	C	2.212759	0.607036	0.499950
C57	C	1.852164	0.109260	-0.000045
C58	C	2.352164	0.609260	0.499955
C59	C	1.473555	0.249682	-0.000042
C60	C	1.973555	0.749682	0.499958
C61	C	1.475775	0.333715	-0.000040
C62	C	1.975775	0.833715	0.499960
C63	C	1.476823	0.373191	0.132747
C64	C	1.976823	0.873191	0.632747
C65	C	1.478925	0.452147	0.132749
C66	C	1.978925	0.952147	0.632749
C67	C	1.479971	0.491626	-0.000038
C68	C	1.979971	0.991626	0.499962
C69	C	1.478927	0.452144	-0.132836
C70	C	1.978927	0.952144	0.367164
C71	C	1.476833	0.373188	-0.132836
C72	C	1.976833	0.873188	0.367164
C73	C	1.487371	0.770561	-0.132838
C74	C	1.987371	1.270561	0.367162
C75	C	1.489460	0.849522	-0.132828
C76	C	1.989460	1.349522	0.367172
C77	C	1.489462	0.849520	0.132747
C78	C	1.989462	1.349520	0.632747
C79	C	1.487369	0.770564	0.132747
C80	C	1.987369	1.270564	0.632747
C81	C	1.486332	0.731089	-0.000050
C82	C	1.986332	1.231089	0.499950
C83	C	1.484054	0.645475	-0.000050
C84	C	1.984054	1.145475	0.499950
C85	C	1.482239	0.577238	-0.000039
C86	C	1.982239	1.077238	0.499961
C87	C	1.654258	0.009386	-0.346708
C88	C	2.154258	0.509386	0.153292
C89	C	1.739823	-0.041597	-0.423374
C90	C	2.239823	0.458403	0.076626
C91	C	1.739835	-0.041597	-0.576707
C92	C	2.239835	0.458403	-0.076707
C93	C	1.654272	0.009389	-0.653379
C94	C	2.154272	0.509389	-0.153379
C95	C	1.568707	0.060371	-0.576713
C96	C	2.068707	0.560371	-0.076713
C97	C	1.568707	0.060368	-0.423376
C98	C	2.068707	0.560368	0.076624
C99	C	1.397591	0.162336	-0.576715
C100	C	1.897591	0.662336	-0.076715
C101	C	1.397583	0.162341	-0.423382
C102	C	1.897583	0.662341	0.076618
C103	C	1.312028	0.213322	-0.653387
C104	C	1.812028	0.713322	-0.153387
C105	C	1.226467	0.264309	-0.576721
C106	C	1.726467	0.764309	-0.076721
C107	C	1.226459	0.264308	-0.423378
C108	C	1.726459	0.764308	0.076622
C109	C	1.312018	0.213324	-0.346716
C110	C	1.812018	0.713324	0.153284
N111	N	1.483156	0.111353	0.346619
N112	N	1.983156	0.611353	0.846619
H113	H	1.190396	0.252906	0.000020
H114	H	1.690396	0.752906	0.500020
H115	H	0.922261	-0.153235	-0.000103
H116	H	1.422261	0.346765	0.499897
H117	H	1.654267	0.009387	-0.221856
H118	H	2.154267	0.509387	0.278144
H119	H	1.044033	0.375945	0.000017
H120	H	1.544033	0.875945	0.500017
H121	H	1.486511	0.738425	0.240876
H122	H	1.986511	1.238425	0.740876
H123	H	0.806389	0.372147	0.000010
H124	H	1.306389	0.872147	0.500010
H125	H	1.479781	0.484285	0.240878
H126	H	1.979781	0.984285	0.740878
H127	H	0.775892	-0.030186	-0.000089
H128	H	1.275892	0.469814	0.499911
H129	H	1.251159	-0.022576	-0.000052
H130	H	1.751159	0.477424	0.499948
H131	H	0.715128	0.245298	-0.000030
H132	H	1.215128	0.745298	0.499970
H133	H	1.486528	0.738429	-0.240969
H134	H	1.986528	1.238429	0.259031
H135	H	1.475959	0.341054	0.240878
H136	H	1.975959	0.841054	0.740878
H137	H	1.490305	0.881664	-0.240965
H138	H	1.990305	1.381664	0.259035
H139	H	1.312036	0.213316	-0.778239
H140	H	1.812036	0.713316	-0.278239
H141	H	1.159901	-0.149440	-0.000107
H142	H	1.659901	0.350560	0.499893
H143	H	1.809486	-0.083111	-0.360935
H144	H	2.309486	0.416889	0.139065
H145	H	1.312024	0.213321	-0.221864
H146	H	1.812024	0.713321	0.278136
H147	H	1.490311	0.881670	0.240877
H148	H	1.990311	1.381670	0.740877
H149	H	1.479786	0.484293	-0.240954
H150	H	1.979786	0.984293	0.259046
H151	H	1.475979	0.341048	-0.240966
H152	H	1.975979	0.841048	0.259034
H153	H	1.156778	0.305821	-0.360965
H154	H	1.656778	0.805821	0.139035
H155	H	1.809505	-0.083115	-0.639129
H156	H	2.309505	0.416885	-0.139129
H157	H	1.654277	0.009379	-0.778231
H158	H	2.154277	0.509379	-0.278231
H159	H	1.156802	0.305815	-0.639156
H160	H	1.656802	0.805815	-0.139156
