data_functionalizedCrystal
_audit_creation_method	'MofGen! by Chris Wilmer'
_symmetry_space_group_name_H-M	'P1'
_symmetry_Int_Tables_number	1
_symmetry_cell_setting	triclinic
loop_
_symmetry_equiv_pos_as_xyz
  x,y,z
_cell_length_a	18.426585
_cell_length_b	15.698487
_cell_length_c	15.698487
_cell_angle_alpha	89.998999
_cell_angle_beta	59.999816
_cell_angle_gamma	119.998171
loop_
_atom_site_label
_atom_site_type_symbol
_atom_site_fract_x
_atom_site_fract_y
_atom_site_fract_z
Zr1	Zr	0.794369	0.111767	0.820602
O2	O	0.945768	0.247776	0.684582
O3	O	0.642970	0.070077	0.862300
O4	O	0.794373	0.247785	0.862293
O5	O	0.794363	-0.070116	0.684593
O6	O	0.794376	0.247788	1.002474
O7	O	0.794365	0.070068	0.684589
O8	O	0.523543	-0.070100	1.002486
O9	O	1.065195	0.247771	0.684581
O10	O	0.705245	0.052293	0.984699
O11	O	0.705240	-0.052326	0.880086
O12	O	0.883498	0.156902	0.880079
O13	O	0.883494	0.052282	0.775466
Zr14	Zr	0.794369	-0.111808	1.044182
Zr15	Zr	0.794374	0.111770	1.044175
Zr16	Zr	0.794364	-0.111811	0.820609
Zr17	Zr	0.984841	0.111759	0.820601
Zr18	Zr	0.603898	-0.111799	1.044183
O19	O	0.945768	-0.070118	1.002484
O20	O	0.945775	0.247781	1.002474
O21	O	0.945762	-0.070123	0.684592
O22	O	0.642970	-0.247817	1.180202
O23	O	0.642976	0.070082	1.180192
O24	O	0.642963	-0.247822	0.862310
O25	O	0.794376	0.070076	1.180191
O26	O	0.794365	-0.247826	1.002491
O27	O	0.794363	-0.247829	0.862310
O28	O	0.794373	-0.070109	1.180195
O29	O	1.065199	0.247774	0.862292
O30	O	0.523540	-0.247814	1.002492
O31	O	0.523543	-0.247812	1.180203
O32	O	0.523547	-0.070097	1.180197
O33	O	1.065191	0.070056	0.684587
O34	O	1.065195	0.070059	0.862298
O35	O	0.705240	-0.156943	0.984705
O36	O	0.705245	-0.052323	1.089318
O37	O	0.883498	0.052286	0.984698
O38	O	0.883494	-0.052334	0.880085
C39	C	0.556118	-0.000010	0.932393
C40	C	0.475258	-0.000006	0.932394
C41	C	0.794375	0.279642	0.932383
C42	C	0.794377	0.374556	0.932380
C43	C	0.794363	-0.279683	0.932401
C44	C	0.794361	-0.374597	0.932404
C45	C	0.179148	-0.000037	0.932388
C46	C	0.261535	-0.000031	0.932387
C47	C	0.327201	-0.000021	0.932390
C48	C	0.409592	-0.000016	0.932391
C49	C	1.032620	-0.000031	0.932391
C50	C	1.113480	-0.000034	0.932390
C51	C	0.794363	-0.000025	0.652737
C52	C	0.794361	-0.000026	0.557824
C53	C	0.794359	0.548321	0.932403
C54	C	0.794365	0.451623	0.932393
C55	C	0.794379	-0.000016	0.384039
C56	C	0.794374	-0.000019	0.480743
C57	C	0.794375	-0.000016	1.212047
C58	C	0.794377	-0.000015	1.306960
C59	C	0.556124	-0.000006	1.212049
C60	C	0.475266	-0.000001	1.306962
C61	C	0.556113	-0.279672	0.932403
C62	C	0.475250	-0.374583	0.932406
C63	C	0.556118	-0.279668	1.212058
C64	C	0.475258	-0.374578	1.306974
C65	C	1.032620	0.279627	0.652726
C66	C	1.113480	0.374537	0.557810
C67	C	1.032614	-0.000035	0.652735
C68	C	1.113472	-0.000040	0.557822
C69	C	1.032626	0.279631	0.932381
C70	C	1.113488	0.374542	0.932378
C71	C	0.437294	0.054620	1.296924
C72	C	0.361330	0.054645	1.386096
C73	C	0.323333	0.000044	1.485305
C74	C	0.361313	-0.054578	1.495341
C75	C	0.437281	-0.054597	1.406170
C76	C	0.437277	-0.473773	0.987018
C77	C	0.361309	-0.562960	0.987017
C78	C	0.323311	-0.552956	0.932411
C79	C	0.361292	-0.453757	0.877792
C80	C	0.437264	-0.364571	0.877787
C81	C	0.437288	-0.364538	1.406163
C82	C	0.361322	-0.453707	1.495356
C83	C	0.323322	-0.552915	1.485356
C84	C	0.361300	-0.562953	1.386156
C85	C	0.437270	-0.473785	1.296966
C86	C	1.151460	0.364497	0.458621
C87	C	1.227449	0.453666	0.369428
C88	C	1.265453	0.552874	0.379428
C89	C	1.227470	0.562912	0.478628
C90	C	1.151487	0.473744	0.567818
C91	C	1.151452	-0.054651	0.567860
C92	C	1.227437	-0.054652	0.478688
C93	C	1.265436	-0.000048	0.379479
C94	C	1.227453	0.054570	0.369443
C95	C	1.151475	0.054577	0.458614
C96	C	1.151462	0.364505	0.986995
C97	C	1.227430	0.453676	0.987012
C98	C	1.265428	0.552883	0.932405
C99	C	1.227447	0.562918	0.877786
C100	C	1.151475	0.473748	0.877776
H101	H	0.468230	0.099096	1.216151
C102	C	1.109677	0.255376	0.447596
N103	N	1.078216	0.173188	0.439283
H104	H	0.330416	0.099125	1.377904
C105	C	1.349011	-0.000071	0.281397
N106	N	1.411956	-0.000095	0.207526
C107	C	1.269275	0.672051	0.489610
N108	N	1.300759	0.754257	0.497878
C109	C	0.479078	-0.255417	1.417188
N110	N	0.510556	-0.173229	1.425501
H111	H	0.330365	-0.099033	1.576129
H112	H	1.258362	0.445473	0.288664
H113	H	1.120564	0.481931	0.648580
H114	H	1.120519	-0.099124	0.648633
C115	C	0.239730	-0.651074	0.932437
N116	N	0.176771	-0.724980	0.932467
H117	H	1.120554	0.099045	0.450426
H118	H	1.120535	0.283734	1.031463
C119	C	1.349002	0.650962	0.932425
N120	N	1.411952	0.724833	0.932441
H121	H	1.258346	0.445484	1.031488
H122	H	1.258397	0.643704	0.833326
C123	C	1.349029	0.650952	0.281305
N124	N	1.411974	0.724821	0.207395
H125	H	0.261462	-0.625513	1.557989
H126	H	0.330408	-0.445515	1.576120
H127	H	0.330343	-0.445627	0.833333
C128	C	1.269196	-0.114748	0.489751
N129	N	1.300645	-0.160015	0.498087
H130	H	0.468188	-0.099082	1.414358
H131	H	1.120565	0.481936	0.833295
C132	C	1.269249	0.114615	0.260303
N133	N	1.300724	0.159830	0.178095
C134	C	0.239759	0.000067	1.583387
N135	N	0.176807	0.000084	1.657258
H136	H	0.468206	-0.481938	1.031486
C137	C	0.319481	-0.672092	1.375174
N138	N	0.287975	-0.754298	1.366906
H139	H	0.330394	-0.643724	1.031498
H140	H	0.468172	-0.283810	0.833319
C141	C	0.479027	-0.484846	1.187860
N142	N	0.510476	-0.493185	1.105682
