data_functionalizedCrystal
_audit_creation_method	'MofGen! by Chris Wilmer'
_symmetry_space_group_name_H-M	'P1'
_symmetry_Int_Tables_number	1
_symmetry_cell_setting	triclinic
loop_
_symmetry_equiv_pos_as_xyz
  x,y,z
_cell_length_a	11.169416
_cell_length_b	17.639874
_cell_length_c	11.169409
_cell_angle_alpha	101.172648
_cell_angle_beta	90.031365
_cell_angle_gamma	78.767784
loop_
_atom_site_label
_atom_site_type_symbol
_atom_site_fract_x
_atom_site_fract_y
_atom_site_fract_z
Zn1	Zn	-0.106515	-1.208360	0.308343
Zn2	Zn	0.393485	-0.708360	0.808343
Zn3	Zn	-0.307278	-1.208287	0.107685
Zn4	Zn	0.192722	-0.708287	0.607685
Zn5	Zn	-0.147188	-1.076186	0.148172
Zn6	Zn	0.352812	-0.576186	0.648172
Zn7	Zn	-0.347756	-1.076191	0.348801
Zn8	Zn	0.152244	-0.576191	0.848801
O9	O	-0.227184	-1.142256	0.228250
O10	O	0.272816	-0.642256	0.728250
O11	O	-0.099185	-1.318948	0.247850
O12	O	0.400815	-0.818948	0.747850
O13	O	-0.286123	-1.190731	-0.054884
O14	O	0.213877	-0.690731	0.445116
O15	O	0.026166	-1.093747	0.169431
O16	O	0.526166	-0.593747	0.669431
O17	O	-0.246685	-1.318895	0.100427
O18	O	0.253315	-0.818895	0.600427
O19	O	0.056048	-1.190855	0.287108
O20	O	0.556048	-0.690855	0.787108
O21	O	-0.168506	-1.093677	-0.025139
O22	O	0.331494	-0.593677	0.474861
O23	O	-0.207755	-0.965588	0.208661
O24	O	0.292245	-0.465588	0.708661
O25	O	-0.315673	-1.093756	0.511374
O26	O	0.184327	-0.593756	1.011374
O27	O	-0.355112	-0.965592	0.356062
O28	O	0.144888	-0.465592	0.856062
O29	O	-0.138435	-1.190860	0.481649
O30	O	0.361565	-0.690860	0.981649
O31	O	-0.480606	-1.190736	0.139658
O32	O	0.019394	-0.690736	0.639658
O33	O	-0.510345	-1.093686	0.316804
O34	O	-0.010345	-0.593686	0.816804
C35	C	-0.290240	-0.936913	0.291146
C36	C	0.209760	-0.436913	0.791146
C37	C	-0.317245	-0.849067	0.318082
C38	C	0.182755	-0.349067	0.818082
C39	C	-0.021937	-0.560031	0.023572
C40	C	0.478063	-0.060031	0.523572
C41	C	-0.047336	-0.477486	0.048898
C42	C	0.452664	0.022514	0.548898
C43	C	-0.200990	-0.477544	0.202122
C44	C	0.299010	0.022456	0.702122
C45	C	-0.175600	-0.560091	0.176813
C46	C	0.324400	-0.060091	0.676813
C47	C	-0.086073	-0.601328	0.087535
C48	C	0.413927	-0.101328	0.587535
C49	C	-0.239735	-0.601388	0.240777
C50	C	0.260265	-0.101388	0.740777
C51	C	-0.214351	-0.683927	0.215465
C52	C	0.285649	-0.183927	0.715465
C53	C	-0.124831	-0.725170	0.126189
C54	C	0.375169	-0.225170	0.626189
C55	C	-0.060689	-0.683867	0.062223
C56	C	0.439311	-0.183867	0.562223
C57	C	-0.329268	-0.560149	0.330048
C58	C	0.170732	-0.060149	0.830048
C59	C	-0.393403	-0.601446	0.394012
C60	C	0.106597	-0.101446	0.894012
C61	C	-0.368013	-0.683988	0.368706
C62	C	0.131987	-0.183988	0.868706
C63	C	-0.278493	-0.725230	0.279430
C64	C	0.221507	-0.225230	0.779430
C65	C	-0.432156	-0.725290	0.432671
C66	C	0.067844	-0.225290	0.932671
C67	C	-0.406771	-0.807830	0.407359
C68	C	0.093229	-0.307830	0.907359
C69	C	-0.253109	-0.807770	0.254118
C70	C	0.246891	-0.307770	0.754118
C71	C	-0.539018	-1.142225	0.228248
C72	C	-0.039018	-0.642225	0.728248
C73	C	-0.672400	-1.142284	0.228265
C74	C	-0.172400	-0.642284	0.728265
C75	C	0.085874	-1.142308	0.228272
C76	C	0.585874	-0.642308	0.728272
C77	C	0.219281	-1.142330	0.228282
C78	C	0.719281	-0.642330	0.728282
C79	C	-0.227032	-1.142317	0.541274
C80	C	0.272968	-0.642317	1.041274
C81	C	-0.226968	-1.142342	0.674666
C82	C	0.273032	-0.642342	1.174666
C83	C	-0.163868	-0.348400	0.165097
C84	C	0.336132	0.151600	0.665097
C85	C	-0.136847	-0.436247	0.138153
C86	C	0.363153	0.063753	0.638153
C87	C	-0.227235	-1.142241	-0.083570
C88	C	0.272765	-0.642241	0.416430
C89	C	-0.226915	-1.142368	-0.217008
C90	C	0.273085	-0.642368	0.282992
H91	H	-0.458996	-0.841455	0.459446
H92	H	0.041004	-0.341455	0.959446
H93	H	0.012231	-0.717445	-0.010458
H94	H	0.512231	-0.217445	0.489542
C95	C	-0.154620	-0.853135	0.155912
C96	C	0.345380	-0.353135	0.655912
N97	N	-0.080444	-0.887304	0.081945
N98	N	0.419556	-0.387304	0.581945
H99	H	-0.104167	-0.792379	0.105579
H100	H	0.395833	-0.292379	0.605579
H101	H	-0.273886	-0.443958	0.274809
H102	H	0.226114	0.056042	0.774809
H103	H	0.050982	-0.593608	-0.049109
H104	H	0.550982	-0.093608	0.450891
H105	H	0.004906	-0.443865	-0.003188
H106	H	0.504906	0.056135	0.496812
H107	H	-0.349933	-0.492940	0.350654
H108	H	0.150067	0.007060	0.850654
H109	H	-0.466299	-0.567860	0.466698
H110	H	0.033701	-0.067860	0.966698
H111	H	-0.505056	-0.691703	0.505352
H112	H	-0.005056	-0.191703	1.005352
