data_functionalizedCrystal
_audit_creation_method	'MofGen! by Chris Wilmer'
_symmetry_space_group_name_H-M	'P1'
_symmetry_Int_Tables_number	1
_symmetry_cell_setting	triclinic
loop_
_symmetry_equiv_pos_as_xyz
  x,y,z
_cell_length_a	19.805407
_cell_length_b	16.120297
_cell_length_c	19.805405
_cell_angle_alpha	87.131250
_cell_angle_beta	89.974343
_cell_angle_gamma	92.872735
loop_
_atom_site_label
_atom_site_type_symbol
_atom_site_fract_x
_atom_site_fract_y
_atom_site_fract_z
Zn1	Zn	1.015332	-0.471487	0.288903
Zn2	Zn	1.515332	0.028513	0.788903
Zn3	Zn	1.020985	-0.332069	0.396352
Zn4	Zn	1.520985	0.167931	0.896352
Zn5	Zn	0.907884	-0.332078	0.283181
Zn6	Zn	1.407884	0.167922	0.783181
Zn7	Zn	0.902113	-0.471420	0.402052
Zn8	Zn	1.402113	0.028580	0.902052
O9	O	0.961579	-0.401763	0.342622
O10	O	1.461579	0.098237	0.842622
O11	O	1.110798	-0.453017	0.303166
O12	O	1.610798	0.046983	0.803166
O13	O	1.010762	-0.215408	0.376560
O14	O	1.510762	0.284592	0.876560
O15	O	0.922187	-0.350602	0.189225
O16	O	1.422187	0.149398	0.689225
O17	O	1.114950	-0.350587	0.382108
O18	O	1.614950	0.149413	0.882108
O19	O	1.001129	-0.453025	0.193429
O20	O	1.501129	0.046975	0.693429
O21	O	0.927668	-0.215415	0.293413
O22	O	1.427668	0.284585	0.793413
O23	O	0.812403	-0.350538	0.298940
O24	O	1.312403	0.149462	0.798940
O25	O	0.912351	-0.588091	0.391822
O26	O	1.412351	-0.088091	0.891822
O27	O	0.808163	-0.452912	0.386274
O28	O	1.308163	0.047088	0.886274
O29	O	0.995533	-0.588140	0.308693
O30	O	1.495533	-0.088140	0.808693
O31	O	1.005166	-0.350523	0.491823
O32	O	1.505166	0.149477	0.991823
O33	O	0.917832	-0.452903	0.496011
O34	O	1.417832	0.047097	0.996011
C35	C	0.785724	-0.401719	0.342605
C36	C	1.285724	0.098281	0.842605
C37	C	0.710492	-0.401720	0.342615
C38	C	1.210492	0.098280	0.842615
C39	C	0.246511	-0.455039	0.388177
C40	C	0.746511	0.044961	0.888177
C41	C	0.317200	-0.455022	0.388175
C42	C	0.817200	0.044978	0.888175
C43	C	0.354727	-0.401796	0.342640
C44	C	0.854727	0.098204	0.842640
C45	C	0.321563	-0.348579	0.297108
C46	C	0.821563	0.151421	0.797108
C47	C	0.250875	-0.348593	0.297114
C48	C	0.750875	0.151407	0.797114
C49	C	0.606638	-0.348520	0.297085
C50	C	1.106638	0.151480	0.797085
C51	C	0.677331	-0.348512	0.297081
C52	C	1.177331	0.151488	0.797081
C53	C	0.672963	-0.454949	0.388146
C54	C	1.172963	0.045051	0.888146
C55	C	0.602276	-0.454963	0.388152
C56	C	1.102276	0.045037	0.888152
C57	C	0.569117	-0.401743	0.342623
C58	C	1.069117	0.098257	0.842623
C59	C	0.492468	-0.401762	0.342626
C60	C	0.992468	0.098238	0.842626
C61	C	0.431375	-0.401781	0.342632
C62	C	0.931375	0.098219	0.842632
C63	C	0.952668	-0.619210	0.351532
C64	C	1.452668	-0.119210	0.851532
C65	C	0.948870	-0.711873	0.355328
C66	C	1.448870	-0.211873	0.855328
C67	C	0.941913	-0.881529	0.362245
C68	C	1.441913	-0.381529	0.862245
C69	C	0.981378	-0.922849	0.322796
C70	C	1.481378	-0.422849	0.822796
C71	C	0.977506	-1.017252	0.326645
C72	C	1.477506	-0.517252	0.826645
C73	C	0.945783	-0.787118	0.358397
C74	C	1.445783	-0.287118	0.858397
C75	C	1.138119	-0.401809	0.342640
C76	C	1.638119	0.098191	0.842640
C77	C	1.213351	-0.401828	0.342647
C78	C	1.713351	0.098172	0.842647
C79	C	0.961504	-0.401723	0.518476
C80	C	1.461504	0.098277	1.018476
C81	C	0.961533	-0.401734	0.593709
C82	C	1.461533	0.098266	1.093709
C83	C	0.970494	-0.185163	0.333698
C84	C	1.470494	0.314837	0.833698
C85	C	0.974422	-0.092500	0.329711
C86	C	1.474422	0.407500	0.829711
C87	C	0.961671	-0.401822	0.166082
C88	C	1.461671	0.098178	0.666082
C89	C	0.961710	-0.401847	0.090851
C90	C	1.461710	0.098153	0.590851
C91	C	1.007048	-0.348480	0.626852
C92	C	1.507048	0.151520	1.126852
C93	C	1.007076	-0.348498	0.697542
C94	C	1.507076	0.151502	1.197542
C95	C	0.961585	-0.401767	0.735086
C96	C	1.461585	0.098233	1.235086
C97	C	0.916068	-0.455027	0.701937
C98	C	1.416068	0.044973	1.201937
C99	C	0.916044	-0.455012	0.631250
C100	C	1.416044	0.044988	1.131250
C101	C	0.916165	-0.455088	0.987013
C102	C	1.416165	0.044912	1.487013
C103	C	0.916192	-0.455097	1.057706
C104	C	1.416192	0.044903	1.557706
C105	C	1.007197	-0.348575	1.053305
C106	C	1.507197	0.151425	1.553305
C107	C	1.007173	-0.348560	0.982617
C108	C	1.507173	0.151440	1.482617
C109	C	0.961659	-0.401823	0.949475
C110	C	1.461659	0.098177	1.449475
C111	C	0.961630	-0.401803	0.872826
C112	C	1.461630	0.098197	1.372826
C113	C	0.961610	-0.401783	0.811733
C114	C	1.461610	0.098217	1.311733
H115	H	0.352123	-0.305238	0.260035
H116	H	0.852123	0.194762	0.760035
N117	N	1.053573	-0.294091	0.731381
N118	N	1.553573	0.205909	1.231381
N119	N	1.052286	-0.217157	0.720362
N120	N	1.552286	0.282843	1.220362
H121	H	1.085129	-0.178730	0.744259
H122	H	1.585129	0.321270	1.244259
H123	H	0.699970	-0.498281	0.425220
H124	H	1.199970	0.001719	0.925220
H125	H	1.044213	-0.305181	0.952051
H126	H	1.544213	0.194819	1.452051
N127	N	0.895885	-0.926077	0.408245
N128	N	1.395885	-0.426077	0.908245
N129	N	0.900725	-0.916428	0.470316
N130	N	1.400725	-0.416428	0.970316
H131	H	0.868216	-0.947895	0.502803
H132	H	1.368216	-0.447895	1.002803
H133	H	1.018071	-0.887326	0.286132
H134	H	1.518071	-0.387326	0.786132
N135	N	1.053515	-0.294054	0.588515
N136	N	1.553515	0.205946	1.088515
N137	N	1.094150	-0.246510	0.618120
N138	N	1.594150	0.253490	1.118120
H139	H	1.126970	-0.208071	0.591046
H140	H	1.626970	0.291929	1.091046
H141	H	1.044259	-0.305209	1.080298
H142	H	1.544259	0.194791	1.580298
H143	H	0.879149	-0.498481	1.088273
H144	H	1.379149	0.001519	1.588273
H145	H	0.579649	-0.305182	0.260015
H146	H	1.079649	0.194818	0.760015
H147	H	0.879105	-0.498455	0.960035
H148	H	1.379105	0.001545	1.460035
N149	N	0.869610	-0.509442	0.740296
N150	N	1.369610	-0.009442	1.240296
N151	N	0.869638	-0.509449	0.803409
N152	N	1.369638	-0.009449	1.303409
H153	H	0.836825	-0.547881	0.830500
H154	H	1.336825	-0.047881	1.330500
N155	N	0.869560	-0.509420	0.597392
N156	N	1.369560	-0.009420	1.097392
N157	N	0.870854	-0.586354	0.608408
N158	N	1.370854	-0.086354	1.108408
H159	H	0.838027	-0.624785	0.584497
H160	H	1.338027	-0.124785	1.084497
N161	N	0.208190	-0.509421	0.434690
N162	N	0.708190	-0.009421	0.934690
N163	N	0.237810	-0.556926	0.475339
N164	N	0.737810	-0.056926	0.975339
H165	H	0.210749	-0.595334	0.508192
H166	H	0.710749	-0.095334	1.008192
N167	N	0.351061	-0.509379	0.434689
N168	N	0.851061	-0.009379	0.934689
N169	N	0.317547	-0.556900	0.475339
N170	N	0.817547	-0.056900	0.975339
H171	H	0.341461	-0.595292	0.508193
H172	H	0.841461	-0.095292	1.008193
H173	H	0.571724	-0.498308	0.425229
H174	H	1.071724	0.001692	0.925229
H175	H	0.707884	-0.305167	0.259998
H176	H	1.207884	0.194833	0.759998
H177	H	0.223877	-0.305264	0.260037
H178	H	0.723877	0.194736	0.760037
