data_functionalizedCrystal
_audit_creation_method	'MofGen! by Chris Wilmer'
_symmetry_space_group_name_H-M	'P1'
_symmetry_Int_Tables_number	1
_symmetry_cell_setting	triclinic
loop_
_symmetry_equiv_pos_as_xyz
  x,y,z
_cell_length_a	10.654550
_cell_length_b	14.519709
_cell_length_c	9.730223
_cell_angle_alpha	89.994652
_cell_angle_beta	89.999957
_cell_angle_gamma	84.082538
loop_
_atom_site_label
_atom_site_type_symbol
_atom_site_fract_x
_atom_site_fract_y
_atom_site_fract_z
O1	O	1.666594	0.129532	-0.114191
O2	O	2.166594	0.629532	0.385809
O3	O	1.300996	0.141873	-0.114216
O4	O	1.800996	0.641873	0.385784
O5	O	1.493488	0.001514	-0.114190
O6	O	1.993488	0.501514	0.385810
O7	O	1.474102	0.269891	-0.114216
O8	O	1.974102	0.769891	0.385784
O9	O	1.493476	0.001511	0.114390
O10	O	1.993476	0.501511	0.614390
O11	O	1.300984	0.141869	0.114364
O12	O	1.800984	0.641869	0.614364
O13	O	1.666581	0.129528	0.114389
O14	O	2.166581	0.629528	0.614389
Zn15	Zn	1.483781	0.135698	0.150669
Zn16	Zn	1.983781	0.635698	0.650669
Zn17	Zn	1.483797	0.135703	-0.150495
Zn18	Zn	1.983797	0.635703	0.349505
O19	O	1.474089	0.269887	0.114363
O20	O	1.974089	0.769887	0.614363
C21	C	1.254201	0.140965	0.000071
C22	C	1.754201	0.640965	0.500071
C23	C	1.114784	0.138254	0.000061
C24	C	1.614784	0.638254	0.500061
C25	C	1.034504	0.220895	0.000057
C26	C	1.534504	0.720895	0.500057
C27	C	0.903507	0.218342	0.000081
C28	C	1.403507	0.718342	0.500081
C29	C	0.933084	0.050500	0.000108
C30	C	1.433084	0.550500	0.500108
C31	C	1.064078	0.053054	0.000094
C32	C	1.564078	0.553054	0.500094
C33	C	1.492579	-0.032852	0.000100
C34	C	1.992579	0.467148	0.500100
C35	C	1.489871	-0.135247	0.000100
C36	C	1.989871	0.364753	0.500100
C37	C	1.479904	-0.510195	0.000064
C38	C	1.979904	-0.010195	0.500064
C39	C	1.482672	-0.405872	0.000075
C40	C	1.982672	0.094128	0.500075
C41	C	1.484887	-0.322724	0.000083
C42	C	1.984887	0.177276	0.500083
C43	C	1.487656	-0.218395	0.000091
C44	C	1.987656	0.281605	0.500091
C45	C	1.713377	0.130436	0.000099
C46	C	2.213377	0.630436	0.500099
C47	C	1.852794	0.133147	0.000100
C48	C	2.352794	0.633147	0.500100
C49	C	1.474999	0.304253	0.000070
C50	C	1.974999	0.804253	0.500070
C51	C	1.477706	0.406649	0.000061
C52	C	1.977706	0.906649	0.500061
N53	N	1.483779	0.135694	0.356205
N54	N	1.983779	0.635694	0.856205
N55	N	1.483809	0.135700	-0.356032
N56	N	1.983809	0.635700	0.143968
C57	C	1.569043	0.073570	0.428142
C58	C	2.069043	0.573570	0.928142
C59	C	1.569056	0.073570	0.572025
C60	C	2.069056	0.573570	1.072025
C61	C	1.398535	0.197827	0.572021
C62	C	1.898535	0.697827	1.072021
C63	C	1.398518	0.197822	0.428140
C64	C	1.898518	0.697822	0.928140
H65	H	1.075783	0.290270	0.000041
H66	H	1.575783	0.790270	0.500041
H67	H	1.329120	0.248412	0.630605
H68	H	1.829120	0.748412	1.130605
H69	H	0.891783	-0.018867	0.000143
H70	H	1.391783	0.481133	0.500143
N71	N	1.656149	0.010118	0.645520
N72	N	2.156149	0.510118	1.145520
N73	N	1.734166	0.039904	0.725806
N74	N	2.234166	0.539904	1.225806
H75	H	1.795672	-0.004915	0.777717
H76	H	2.295672	0.495085	1.277717
N77	N	1.311418	0.261298	0.354672
N78	N	1.811418	0.761298	0.854672
N79	N	1.313321	0.346556	0.370720
N80	N	1.813321	0.846556	0.870720
H81	H	1.251807	0.391384	0.318834
H82	H	1.751807	0.891384	0.818834
N83	N	0.821521	0.302767	0.000087
N84	N	1.321521	0.802767	0.500087
N85	N	0.866817	0.378827	0.000067
N86	N	1.366817	0.878827	0.500067
H87	H	0.808915	0.438457	0.000074
H88	H	1.308915	0.938457	0.500074
H89	H	1.129446	-0.014247	0.000101
H90	H	1.629446	0.485753	0.500101
H91	H	1.638466	0.022980	0.369576
H92	H	2.138466	0.522980	0.869576
