data_functionalizedCrystal
_audit_creation_method	'MofGen! by Chris Wilmer'
_symmetry_space_group_name_H-M	'P1'
_symmetry_Int_Tables_number	1
_symmetry_cell_setting	triclinic
loop_
_symmetry_equiv_pos_as_xyz
  x,y,z
_cell_length_a	18.050591
_cell_length_b	18.050589
_cell_length_c	18.050582
_cell_angle_alpha	89.981795
_cell_angle_beta	89.979078
_cell_angle_gamma	90.024227
loop_
_atom_site_label
_atom_site_type_symbol
_atom_site_fract_x
_atom_site_fract_y
_atom_site_fract_z
Zn1	Zn	1.135293	-0.295786	-0.420054
Zn2	Zn	1.385293	-0.045786	-0.170054
Zn3	Zn	1.635293	0.204214	0.079946
Zn4	Zn	1.885293	0.454214	0.329946
Zn5	Zn	1.135203	-0.419969	-0.295873
Zn6	Zn	1.385203	-0.169969	-0.045873
Zn7	Zn	1.635203	0.080031	0.204127
Zn8	Zn	1.885203	0.330031	0.454127
Zn9	Zn	1.011112	-0.295789	-0.295865
Zn10	Zn	1.261112	-0.045789	-0.045865
Zn11	Zn	1.511112	0.204211	0.204135
Zn12	Zn	1.761112	0.454211	0.454135
Zn13	Zn	1.011060	-0.419930	-0.420009
Zn14	Zn	1.261060	-0.169930	-0.170009
Zn15	Zn	1.511060	0.080070	0.079991
Zn16	Zn	1.761060	0.330070	0.329991
O17	O	1.073167	-0.357868	-0.357950
O18	O	1.323167	-0.107868	-0.107950
O19	O	1.573167	0.142132	0.142050
O20	O	1.823167	0.392132	0.392050
O21	O	1.239205	-0.312274	-0.403603
O22	O	1.489205	-0.062274	-0.153603
O23	O	1.739205	0.187726	0.096397
O24	O	1.989205	0.437726	0.346397
O25	O	1.118727	-0.403514	-0.191948
O26	O	1.368727	-0.153514	0.058052
O27	O	1.618727	0.096486	0.308052
O28	O	1.868727	0.346486	0.558052
O29	O	1.027644	-0.191864	-0.312354
O30	O	1.277644	0.058136	-0.062354
O31	O	1.527644	0.308136	0.187646
O32	O	1.777644	0.558136	0.437646
O33	O	1.239140	-0.403511	-0.312369
O34	O	1.489140	-0.153511	-0.062369
O35	O	1.739140	0.096489	0.187631
O36	O	1.989140	0.346489	0.437631
O37	O	1.118879	-0.191862	-0.403595
O38	O	1.368879	0.058138	-0.153595
O39	O	1.618879	0.308138	0.096405
O40	O	1.868879	0.558138	0.346405
O41	O	1.027557	-0.312279	-0.191942
O42	O	1.277557	-0.062279	0.058058
O43	O	1.527557	0.187721	0.308058
O44	O	1.777557	0.437721	0.558058
O45	O	0.907180	-0.312241	-0.312311
O46	O	1.157180	-0.062241	-0.062311
O47	O	1.407180	0.187759	0.187689
O48	O	1.657180	0.437759	0.437689
O49	O	1.027555	-0.403444	-0.523940
O50	O	1.277555	-0.153444	-0.273940
O51	O	1.527555	0.096556	-0.023940
O52	O	1.777555	0.346556	0.226060
O53	O	0.907142	-0.403447	-0.403519
O54	O	1.157142	-0.153447	-0.153519
O55	O	1.407142	0.096553	0.096481
O56	O	1.657142	0.346553	0.346481
O57	O	1.118828	-0.312236	-0.523973
O58	O	1.368828	-0.062236	-0.273973
O59	O	1.618828	0.187764	-0.023973
O60	O	1.868828	0.437764	0.226027
O61	O	1.118676	-0.523888	-0.312325
O62	O	1.368676	-0.273888	-0.062325
O63	O	1.618676	-0.023888	0.187675
O64	O	1.868676	0.226112	0.437675
O65	O	1.027468	-0.523860	-0.403527
O66	O	1.277468	-0.273860	-0.153527
O67	O	1.527468	-0.023860	0.096473
O68	O	1.777468	0.226140	0.346473
C69	C	0.880215	-0.357841	-0.357909
C70	C	1.130215	-0.107841	-0.107909
C71	C	1.380215	0.142159	0.142091
C72	C	1.630215	0.392159	0.392091
C73	C	0.797669	-0.357847	-0.357909
C74	C	1.047669	-0.107847	-0.107909
C75	C	1.297669	0.142153	0.142091
C76	C	1.547669	0.392153	0.392091
C77	C	0.598217	-0.308191	-0.308425
C78	C	0.848217	-0.058191	-0.058425
C79	C	1.098217	0.191809	0.191575
C80	C	1.348217	0.441809	0.441575
C81	C	0.548798	-0.375927	-0.290154
C82	C	0.798798	-0.125927	-0.040154
C83	C	1.048798	0.124073	0.209846
C84	C	1.298798	0.374073	0.459846
C85	C	0.646539	-0.357869	-0.357943
C86	C	0.896539	-0.107869	-0.107943
C87	C	1.146539	0.142131	0.142057
C88	C	1.396539	0.392131	0.392057
C89	C	0.548877	-0.290157	-0.376212
C90	C	0.798877	-0.040157	-0.126212
C91	C	1.048877	0.209843	0.123788
C92	C	1.298877	0.459843	0.373788
C93	C	0.500553	-0.357885	-0.357974
C94	C	0.750553	-0.107885	-0.107974
C95	C	1.000553	0.142115	0.142026
C96	C	1.250553	0.392115	0.392026
C97	C	0.598206	-0.425641	-0.339637
C98	C	0.848206	-0.175641	-0.089637
C99	C	1.098206	0.074359	0.160363
C100	C	1.348206	0.324359	0.410363
C101	C	0.598289	-0.339825	-0.425726
C102	C	0.848289	-0.089825	-0.175726
C103	C	1.098289	0.160175	0.074274
C104	C	1.348289	0.410175	0.324274
C105	C	0.548892	-0.407607	-0.407481
C106	C	0.798892	-0.157607	-0.157481
C107	C	1.048892	0.092393	0.092519
C108	C	1.298892	0.342393	0.342519
C109	C	0.730637	-0.357859	-0.357923
C110	C	0.980637	-0.107859	-0.107923
C111	C	1.230637	0.142141	0.142077
C112	C	1.480637	0.392141	0.392077
C113	C	0.416457	-0.357903	-0.357994
C114	C	0.666457	-0.107903	-0.107994
C115	C	0.916457	0.142097	0.142006
C116	C	1.166457	0.392097	0.392006
C117	C	1.073077	-0.550820	-0.357938
C118	C	1.323077	-0.300820	-0.107938
C119	C	1.573077	-0.050820	0.142062
C120	C	1.823077	0.199180	0.392062
C121	C	1.073107	-0.633366	-0.357958
C122	C	1.323107	-0.383366	-0.107958
C123	C	1.573107	-0.133366	0.142042
C124	C	1.823107	0.116634	0.392042
C125	C	1.023557	-0.832828	-0.407536
C126	C	1.273557	-0.582828	-0.157536
C127	C	1.523557	-0.332828	0.092464
C128	C	1.773557	-0.082828	0.342464
C129	C	1.005459	-0.882261	-0.339767
C130	C	1.255459	-0.632261	-0.089767
C131	C	1.505459	-0.382261	0.160233
C132	C	1.755459	-0.132261	0.410233
C133	C	1.073180	-0.784497	-0.357967
C134	C	1.323180	-0.534497	-0.107967
C135	C	1.573180	-0.284497	0.142033
C136	C	1.823180	-0.034497	0.392033
C137	C	1.091314	-0.882146	-0.425744
C138	C	1.341314	-0.632146	-0.175744
C139	C	1.591314	-0.382146	0.074256
C140	C	1.841314	-0.132146	0.324256
C141	C	1.073249	-0.930482	-0.357983
C142	C	1.323249	-0.680482	-0.107983
C143	C	1.573249	-0.430482	0.142017
C144	C	1.823249	-0.180482	0.392017
C145	C	1.055046	-0.832842	-0.290162
C146	C	1.305046	-0.582842	-0.040162
C147	C	1.555046	-0.332842	0.209838
C148	C	1.805046	-0.082842	0.459838
C149	C	1.140933	-0.832722	-0.376186
C150	C	1.390933	-0.582722	-0.126186
C151	C	1.640933	-0.332722	0.123814
C152	C	1.890933	-0.082722	0.373814
C153	C	1.122861	-0.882133	-0.308370
C154	C	1.372861	-0.632133	-0.058370
C155	C	1.622861	-0.382133	0.191630
C156	C	1.872861	-0.132133	0.441630
C157	C	1.073138	-0.700398	-0.357959
C158	C	1.323138	-0.450398	-0.107959
C159	C	1.573138	-0.200398	0.142041
C160	C	1.823138	0.049602	0.392041
C161	C	1.073291	-1.014578	-0.357983
C162	C	1.323291	-0.764578	-0.107983
C163	C	1.573291	-0.514578	0.142017
C164	C	1.823291	-0.264578	0.392017
C165	C	1.266872	-0.357897	-0.357992
C166	C	1.516872	-0.107897	-0.107992
C167	C	1.766872	0.142103	0.142008
C168	C	2.016872	0.392103	0.392008
C169	C	1.349418	-0.357909	-0.358010
C170	C	1.599418	-0.107909	-0.108010
C171	C	1.849418	0.142091	0.141990
C172	C	2.099418	0.392091	0.391990
C173	C	1.073196	-0.357835	-0.551656
C174	C	1.323196	-0.107835	-0.301656
C175	C	1.573196	0.142165	-0.051656
C176	C	1.823196	0.392165	0.198344
C177	C	1.073208	-0.357821	-0.634202
C178	C	1.323208	-0.107821	-0.384202
C179	C	1.573208	0.142179	-0.134202
C180	C	1.823208	0.392179	0.115798
C181	C	1.073277	-0.164163	-0.357979
C182	C	1.323277	0.085837	-0.107979
C183	C	1.573277	0.335837	0.142021
C184	C	1.823277	0.585837	0.392021
C185	C	1.073324	-0.081617	-0.357991
C186	C	1.323324	0.168383	-0.107991
C187	C	1.573324	0.418383	0.142009
C188	C	1.823324	0.668383	0.392009
C189	C	1.023612	-0.407353	-0.833635
C190	C	1.273612	-0.157353	-0.583635
C191	C	1.523612	0.092647	-0.333635
C192	C	1.773612	0.342647	-0.083635
C193	C	1.091367	-0.425511	-0.883034
C194	C	1.341367	-0.175511	-0.633034
C195	C	1.591367	0.074489	-0.383034
C196	C	1.841367	0.324489	-0.133034
C197	C	1.073245	-0.357765	-0.785332
C198	C	1.323245	-0.107765	-0.535332
C199	C	1.573245	0.142235	-0.285332
C200	C	1.823245	0.392235	-0.035332
C201	C	1.005527	-0.339586	-0.883014
C202	C	1.255527	-0.089586	-0.633014
C203	C	1.505527	0.160414	-0.383014
C204	C	1.755527	0.410414	-0.133014
C205	C	1.073274	-0.357711	-0.931317
C206	C	1.323274	-0.107711	-0.681317
C207	C	1.573274	0.142289	-0.431317
C208	C	1.823274	0.392289	-0.181317
C209	C	1.141036	-0.375958	-0.833645
C210	C	1.391036	-0.125958	-0.583645
C211	C	1.641036	0.124042	-0.333645
C212	C	1.891036	0.374042	-0.083645
C213	C	1.055150	-0.290002	-0.833620
C214	C	1.305150	-0.040002	-0.583620
C215	C	1.555150	0.209998	-0.333620
C216	C	1.805150	0.459998	-0.083620
C217	C	1.122952	-0.308134	-0.882998
C218	C	1.372952	-0.058134	-0.632998
C219	C	1.622952	0.191866	-0.382998
C220	C	1.872952	0.441866	-0.132998
C221	C	1.073227	-0.357797	-0.701234
C222	C	1.323227	-0.107797	-0.451234
C223	C	1.573227	0.142203	-0.201234
C224	C	1.823227	0.392203	0.048766
C225	C	1.073300	-0.357679	-1.015414
C226	C	1.323300	-0.107679	-0.765414
C227	C	1.573300	0.142321	-0.515414
C228	C	1.823300	0.392321	-0.265414
C229	C	1.073181	-0.357848	-0.164998
C230	C	1.323181	-0.107848	0.085002
C231	C	1.573181	0.142152	0.335002
C232	C	1.823181	0.392152	0.585002
C233	C	1.073312	-0.357652	-0.082453
C234	C	1.323312	-0.107652	0.167547
C235	C	1.573312	0.142348	0.417547
C236	C	1.823312	0.392348	0.667547
H237	H	0.527370	-0.449673	-0.449370
H238	H	0.777370	-0.199673	-0.199370
H239	H	1.027370	0.050327	0.050630
H240	H	1.277370	0.300327	0.300630
H241	H	1.164855	-0.903645	-0.266409
H242	H	1.414855	-0.653645	-0.016409
H243	H	1.664855	-0.403645	0.233591
H244	H	1.914855	-0.153645	0.483591
H245	H	1.198333	-0.391377	-0.812050
H246	H	1.448333	-0.141377	-0.562050
H247	H	1.698333	0.108623	-0.312050
H248	H	1.948333	0.358623	-0.062050
C249	C	0.627483	-0.251498	-0.251801
C250	C	0.877483	-0.001498	-0.001801
C251	C	1.127483	0.248502	0.248199
C252	C	1.377483	0.498502	0.498199
H253	H	0.656466	-0.215236	-0.276642
H254	H	0.906466	0.034764	-0.026642
H255	H	1.156466	0.284764	0.223358
H256	H	1.406466	0.534764	0.473358
H257	H	0.657137	-0.276164	-0.216011
H258	H	0.907137	-0.026164	0.033989
H259	H	1.157137	0.223836	0.283989
H260	H	1.407137	0.473836	0.533989
H261	H	0.586893	-0.228110	-0.227823
H262	H	0.836893	0.021890	0.022177
H263	H	1.086893	0.271890	0.272177
H264	H	1.336893	0.521890	0.522177
H265	H	0.981531	-0.811178	-0.449395
H266	H	1.231531	-0.561178	-0.199395
H267	H	1.481531	-0.311178	0.050605
H268	H	1.731531	-0.061178	0.300605
H269	H	0.620045	-0.324530	-0.483019
H270	H	0.870045	-0.074530	-0.233019
H271	H	1.120045	0.175470	0.016981
H272	H	1.370045	0.425470	0.266981
H273	H	0.527169	-0.232894	-0.391625
H274	H	0.777169	0.017106	-0.141625
H275	H	1.027169	0.267106	0.108375
H276	H	1.277169	0.517106	0.358375
C277	C	1.179732	-0.251456	-0.912102
C278	C	1.429732	-0.001456	-0.662102
C279	C	1.679732	0.248544	-0.412102
C280	C	1.929732	0.498544	-0.162102
H281	H	1.227803	-0.264472	-0.895106
H282	H	1.477803	-0.014472	-0.645106
H283	H	1.727803	0.235528	-0.395106
H284	H	1.977803	0.485528	-0.145106
H285	H	1.167278	-0.203484	-0.894434
H286	H	1.417278	0.046516	-0.644434
H287	H	1.667278	0.296516	-0.394434
H288	H	1.917278	0.546516	-0.144434
H289	H	1.179153	-0.251460	-0.964729
H290	H	1.429153	-0.001460	-0.714729
H291	H	1.679153	0.248540	-0.464729
H292	H	1.929153	0.498540	-0.214729
H293	H	1.039807	-0.232736	-0.811899
H294	H	1.289807	0.017264	-0.561899
H295	H	1.539807	0.267264	-0.311899
H296	H	1.789807	0.517264	-0.061899
C297	C	0.928149	-0.318840	-0.912309
C298	C	1.178149	-0.068840	-0.662309
C299	C	1.428149	0.181160	-0.412309
C300	C	1.678149	0.431160	-0.162309
H301	H	0.892938	-0.354141	-0.895398
H302	H	1.142938	-0.104141	-0.645398
H303	H	1.392938	0.145859	-0.395398
H304	H	1.642938	0.395859	-0.145398
H305	H	0.928822	-0.318525	-0.964930
H306	H	1.178822	-0.068525	-0.714930
H307	H	1.428822	0.181475	-0.464930
H308	H	1.678822	0.431475	-0.214930
H309	H	0.914943	-0.271059	-0.894656
H310	H	1.164943	-0.021059	-0.644656
H311	H	1.414943	0.228941	-0.394656
H312	H	1.664943	0.478941	-0.144656
C313	C	0.627347	-0.503030	-0.318686
C314	C	0.877347	-0.253030	-0.068686
C315	C	1.127347	-0.003030	0.181314
C316	C	1.377347	0.246970	0.431314
H317	H	0.586702	-0.535339	-0.309979
H318	H	0.836702	-0.285339	-0.059979
H319	H	1.086702	-0.035339	0.190021
H320	H	1.336702	0.214661	0.440021
H321	H	0.656619	-0.499543	-0.275103
H322	H	0.906619	-0.249543	-0.025103
H323	H	1.156619	0.000457	0.224897
H324	H	1.406619	0.250457	0.474897
H325	H	0.656690	-0.521958	-0.358063
H326	H	0.906690	-0.271958	-0.108063
H327	H	1.156690	-0.021958	0.141937
H328	H	1.406690	0.228042	0.391937
C329	C	1.034271	-0.803716	-0.212716
C330	C	1.284271	-0.553716	0.037284
C331	C	1.534271	-0.303716	0.287284
C332	C	1.784271	-0.053716	0.537284
H333	H	1.025650	-0.844367	-0.180396
H334	H	1.275650	-0.594367	0.069604
H335	H	1.525650	-0.344367	0.319604
H336	H	1.775650	-0.094367	0.569604
H337	H	0.990672	-0.774458	-0.216092
H338	H	1.240672	-0.524458	0.033908
H339	H	1.490672	-0.274458	0.283908
H340	H	1.740672	-0.024458	0.533908
H341	H	1.073685	-0.774362	-0.193877
H342	H	1.323685	-0.524362	0.056123
H343	H	1.573685	-0.274362	0.306123
H344	H	1.823685	-0.024362	0.556123
C345	C	0.519425	-0.396560	-0.212738
C346	C	0.769425	-0.146560	0.037262
C347	C	1.019425	0.103440	0.287262
C348	C	1.269425	0.353440	0.537262
H349	H	0.536308	-0.361211	-0.177599
H350	H	0.786308	-0.111211	0.072401
H351	H	1.036308	0.138789	0.322401
H352	H	1.286308	0.388789	0.572401
H353	H	0.537040	-0.444327	-0.199429
H354	H	0.787040	-0.194327	0.050571
H355	H	1.037040	0.055673	0.300571
H356	H	1.287040	0.305673	0.550571
H357	H	0.466800	-0.396856	-0.213423
H358	H	0.716800	-0.146856	0.036577
H359	H	0.966800	0.103144	0.286577
H360	H	1.216800	0.353144	0.536577
H361	H	1.106625	-0.903802	-0.483056
H362	H	1.356625	-0.653802	-0.233056
H363	H	1.606625	-0.403802	0.016944
H364	H	1.856625	-0.153802	0.266944
C365	C	0.928099	-0.911660	-0.318952
C366	C	1.178099	-0.661660	-0.068952
C367	C	1.428099	-0.411660	0.181048
C368	C	1.678099	-0.161660	0.431048
H369	H	0.892873	-0.894783	-0.354213
H370	H	1.142873	-0.644783	-0.104213
H371	H	1.392873	-0.394783	0.145787
H372	H	1.642873	-0.144783	0.395787
H373	H	0.914899	-0.894054	-0.271151
H374	H	1.164899	-0.644054	-0.021151
H375	H	1.414899	-0.394054	0.228849
H376	H	1.664899	-0.144054	0.478849
H377	H	0.928798	-0.964284	-0.318670
H378	H	1.178798	-0.714284	-0.068670
H379	H	1.428798	-0.464284	0.181330
H380	H	1.678798	-0.214284	0.431330
H381	H	1.198184	-0.810948	-0.391613
H382	H	1.448184	-0.560948	-0.141613
H383	H	1.698184	-0.310948	0.108387
H384	H	1.948184	-0.060948	0.358387
H385	H	0.981678	-0.449342	-0.811961
H386	H	1.231678	-0.199342	-0.561961
H387	H	1.481678	0.050658	-0.311961
H388	H	1.731678	0.300658	-0.061961
C389	C	1.112066	-0.502890	-0.912364
C390	C	1.362066	-0.252890	-0.662364
C391	C	1.612066	-0.002890	-0.412364
C392	C	1.862066	0.247110	-0.162364
H393	H	1.076743	-0.538086	-0.895467
H394	H	1.326743	-0.288086	-0.645467
H395	H	1.576743	-0.038086	-0.395467
H396	H	1.826743	0.211914	-0.145467
H397	H	1.159841	-0.516128	-0.894734
H398	H	1.409841	-0.266128	-0.644734
H399	H	1.659841	-0.016128	-0.394734
H400	H	1.909841	0.233872	-0.144734
H401	H	1.112365	-0.502196	-0.964988
H402	H	1.362365	-0.252196	-0.714988
H403	H	1.612365	-0.002196	-0.464988
H404	H	1.862365	0.247804	-0.214988
