data_functionalizedCrystal
_audit_creation_method	'MofGen! by Chris Wilmer'
_symmetry_space_group_name_H-M	'P1'
_symmetry_Int_Tables_number	1
_symmetry_cell_setting	triclinic
loop_
_symmetry_equiv_pos_as_xyz
  x,y,z
_cell_length_a	15.944493
_cell_length_b	9.065218
_cell_length_c	7.540329
_cell_angle_alpha	90.001345
_cell_angle_beta	89.996752
_cell_angle_gamma	95.754535
loop_
_atom_site_label
_atom_site_type_symbol
_atom_site_fract_x
_atom_site_fract_y
_atom_site_fract_z
O1	O	1.115992	-0.189861	-0.147452
O2	O	0.871614	-0.213408	-0.147460
O3	O	0.998855	0.013128	-0.147452
O4	O	0.988752	-0.416397	-0.147459
O5	O	0.998845	0.013128	0.147513
O6	O	0.871604	-0.213408	0.147506
O7	O	1.115982	-0.189860	0.147513
Cu8	Cu	0.993793	-0.201634	0.174442
Cu9	Cu	0.993804	-0.201635	-0.174388
O10	O	0.988742	-0.416396	0.147506
C11	C	0.840307	-0.212446	0.000022
C12	C	0.747037	-0.209560	0.000019
C13	C	0.512287	-0.342905	0.000015
C14	C	0.461179	-0.270997	0.145457
C15	C	0.576275	-0.204214	0.000022
C16	C	0.461193	-0.270965	-0.145355
C17	C	0.411327	-0.199060	0.000018
C18	C	0.526396	-0.132344	0.145584
C19	C	0.526413	-0.132331	-0.145359
C20	C	0.475337	-0.060322	0.000119
C21	C	0.671298	-0.207187	0.000026
C22	C	0.316307	-0.196076	0.000027
C23	C	0.997879	0.068092	0.000028
C24	C	0.994976	0.231866	0.000019
C25	C	1.147289	-0.190823	0.000028
C26	C	1.240560	-0.193708	0.000020
C27	C	0.989718	-0.471360	0.000022
C28	C	0.992621	-0.635134	0.000019
N29	N	0.993790	-0.201632	0.419791
N30	N	0.993805	-0.201632	0.580263
H31	H	0.528816	-0.462372	0.000149
C32	C	0.453546	0.099116	0.000592
C33	C	0.486833	0.171034	0.153132
C34	C	0.466763	0.317900	0.153648
H35	H	0.476865	0.148902	-0.101622
H36	H	0.394025	0.100167	-0.000286
H37	H	0.546342	0.169992	0.153993
H38	H	0.463519	0.121293	0.255370
H39	H	0.407242	0.318951	0.152771
H40	H	0.490084	0.367672	0.051428
H41	H	0.489339	0.366710	0.257152
H42	H	0.554920	-0.073805	-0.268321
H43	H	0.432681	-0.329568	0.268413
H44	H	0.554776	-0.073807	0.268666
C45	C	0.423111	-0.348844	-0.309360
C46	C	0.381530	-0.248672	-0.409957
C47	C	0.346431	-0.320377	-0.561027
H48	H	0.466575	-0.384625	-0.378498
H49	H	0.384028	-0.429646	-0.274453
H50	H	0.420610	-0.167896	-0.444866
H51	H	0.338054	-0.212885	-0.340872
H52	H	0.307348	-0.401179	-0.526119
H53	H	0.389901	-0.356155	-0.630150
H54	H	0.318208	-0.252425	-0.629292
