data_functionalizedCrystal
_audit_creation_method	'MofGen! by Chris Wilmer'
_symmetry_space_group_name_H-M	'P1'
_symmetry_Int_Tables_number	1
_symmetry_cell_setting	triclinic
loop_
_symmetry_equiv_pos_as_xyz
  x,y,z
_cell_length_a	10.540535
_cell_length_b	10.540510
_cell_length_c	14.048226
_cell_angle_alpha	89.996066
_cell_angle_beta	89.995942
_cell_angle_gamma	84.518476
loop_
_atom_site_label
_atom_site_type_symbol
_atom_site_fract_x
_atom_site_fract_y
_atom_site_fract_z
O1	O	1.685875	0.178878	-0.079103
O2	O	1.316459	0.195740	-0.079116
O3	O	1.509615	0.002600	-0.079109
O4	O	1.492719	0.372018	-0.079110
O5	O	1.509591	0.002589	0.079213
O6	O	1.316436	0.195729	0.079206
O7	O	1.685851	0.178867	0.079218
Zn8	Zn	1.501140	0.187296	0.104349
Zn9	Zn	1.501171	0.187311	-0.104246
O10	O	1.492696	0.372007	0.079211
C11	C	1.269145	0.194471	0.000043
C12	C	1.128197	0.190691	0.000038
C13	C	1.508344	-0.044709	0.000050
C14	C	1.504577	-0.185659	0.000044
C15	C	1.091541	0.049676	0.000043
C16	C	0.944941	0.045698	0.000411
C17	C	0.918840	0.255056	0.090283
C18	C	1.065605	0.258057	0.090349
C19	C	1.065516	0.260122	-0.089698
C20	C	0.919170	0.253600	-0.090875
C21	C	1.638761	-0.403117	0.000411
C22	C	1.642779	-0.256521	0.000050
C23	C	1.433844	-0.230410	-0.090366
C24	C	1.430805	-0.377171	-0.090436
C25	C	1.427900	-0.376993	0.089604
C26	C	1.434455	-0.230652	0.090795
C27	C	1.733166	0.180136	0.000057
C28	C	1.874114	0.183915	0.000056
C29	C	1.493967	0.419316	0.000051
C30	C	1.497733	0.560266	0.000050
N31	N	1.501128	0.187284	0.246710
N32	N	1.501193	0.187312	-0.246607
C33	C	1.586685	0.101798	0.296531
C34	C	1.586693	0.101797	0.396189
C35	C	1.501150	0.187290	0.446023
C36	C	1.415584	0.272781	0.396195
C37	C	1.415571	0.272774	0.296539
C38	C	1.415621	0.272790	0.603909
C39	C	1.415636	0.272799	0.703572
C40	C	1.586744	0.101813	0.703559
C41	C	1.586730	0.101807	0.603903
C42	C	1.501165	0.187299	0.554081
H43	H	0.915619	-0.009939	-0.064254
N44	N	1.674123	0.014439	0.754426
N45	N	1.671318	-0.102913	0.743279
H46	H	1.733030	-0.164626	0.779201
H47	H	1.479163	-0.417382	-0.158016
N48	N	0.880103	0.193825	0.174857
N49	N	0.906800	0.236329	0.254707
H50	H	0.879446	0.193079	0.314437
H51	H	1.692594	-0.445078	0.065249
N52	N	0.909204	-0.023729	0.082038
N53	N	0.794581	-0.038729	0.096500
H54	H	0.769339	-0.087756	0.154157
H55	H	0.890584	0.201829	-0.157626
H56	H	1.107990	0.216124	-0.158111
H57	H	0.870112	0.354475	-0.096604
N58	N	1.301131	-0.406005	-0.095579
N59	N	1.213163	-0.317770	-0.099111
H60	H	1.121581	-0.338128	-0.102743
N61	N	1.115983	0.197778	0.175288
N62	N	1.042714	0.153788	0.234106
H63	H	1.078286	0.111214	0.294097
N64	N	1.705920	-0.457693	-0.080464
N65	N	1.650369	-0.523438	-0.138367
H66	H	1.697795	-0.561985	-0.195487
H67	H	1.345927	0.342387	0.436776
N68	N	1.482659	-0.430222	0.175585
N69	N	1.415515	-0.485298	0.232807
H70	H	1.454199	-0.522891	0.293529
H71	H	1.656359	0.032187	0.436752
H72	H	1.134995	-0.003574	0.064651
H73	H	1.656391	0.032198	0.563328
N74	N	1.499030	-0.194764	0.174696
N75	N	1.596334	-0.136265	0.167755
H76	H	1.641945	-0.110914	0.227009
N77	N	1.328250	0.360102	0.754494
N78	N	1.328281	0.360089	0.843471
H79	H	1.266563	0.421746	0.879437
H80	H	1.333556	-0.181584	0.096250
H81	H	1.088625	0.361432	0.094204
N82	N	1.328206	0.360122	0.553031
N83	N	1.251838	0.436453	0.597535
H84	H	1.190105	0.498134	0.561603
N85	N	1.297732	-0.404779	0.090354
N86	N	1.256425	-0.470484	0.025289
H87	H	1.164497	-0.490114	0.025810
H88	H	1.656349	0.032185	0.255962
N89	N	1.328163	0.360100	0.245660
N90	N	1.251790	0.436427	0.290163
H91	H	1.190050	0.498101	0.254231
H92	H	1.133525	-0.004471	-0.064651
H93	H	1.698124	-0.227183	0.064858
N94	N	1.306215	-0.170953	-0.094622
N95	N	1.235033	-0.195195	-0.162056
H96	H	1.144895	-0.153200	-0.165064
N97	N	0.859394	0.382710	0.094194
N98	N	0.790872	0.418159	0.163676
H99	H	0.748882	0.508314	0.166438
H100	H	1.698465	-0.228112	-0.064867
N101	N	1.093312	0.390282	-0.090818
N102	N	1.004525	0.477785	-0.088778
H103	H	1.024159	0.569709	-0.089564
N104	N	1.495514	-0.191715	-0.174762
N105	N	1.609640	-0.229893	-0.190015
H106	H	1.653204	-0.202569	-0.249618
