data_functionalizedCrystal
_audit_creation_method	'MofGen! by Chris Wilmer'
_symmetry_space_group_name_H-M	'P1'
_symmetry_Int_Tables_number	1
_symmetry_cell_setting	triclinic
loop_
_symmetry_equiv_pos_as_xyz
  x,y,z
_cell_length_a	15.995350
_cell_length_b	15.995350
_cell_length_c	15.072220
_cell_angle_alpha	90.001101
_cell_angle_beta	89.991149
_cell_angle_gamma	83.492375
loop_
_atom_site_label
_atom_site_type_symbol
_atom_site_fract_x
_atom_site_fract_y
_atom_site_fract_z
O1	O	1.110996	0.107921	-0.073703
O2	O	1.610996	0.607921	0.426297
O3	O	0.867221	0.121249	-0.073721
O4	O	1.367221	0.621249	0.426279
O5	O	0.995772	-0.007303	-0.073710
O6	O	1.495772	0.492697	0.426290
O7	O	0.982444	0.236472	-0.073713
O8	O	1.482444	0.736472	0.426287
O9	O	0.995740	-0.007296	0.073855
O10	O	1.495740	0.492704	0.573855
O11	O	0.867189	0.121256	0.073844
O12	O	1.367189	0.621256	0.573844
O13	O	1.110964	0.107928	0.073862
O14	O	1.610964	0.607928	0.573862
Zn15	Zn	0.989071	0.114593	0.097283
Zn16	Zn	1.489071	0.614593	0.597283
Zn17	Zn	0.989113	0.114584	-0.097141
Zn18	Zn	1.489113	0.614584	0.402859
O19	O	0.982413	0.236480	0.073852
O20	O	1.482413	0.736480	0.573852
C21	C	0.836010	0.120701	0.000060
C22	C	1.336010	0.620701	0.500060
C23	C	0.743060	0.119049	0.000053
C24	C	1.243060	0.619049	0.500053
C25	C	0.405312	0.113117	0.000071
C26	C	0.905312	0.613117	0.500071
C27	C	0.452746	0.021565	0.000401
C28	C	0.952746	0.521565	0.500401
C29	C	0.549436	0.023217	0.000063
C30	C	1.049436	0.523217	0.500063
C31	C	0.572873	0.116060	0.000063
C32	C	1.072873	0.616060	0.500063
C33	C	0.531804	0.161212	-0.084201
C34	C	1.031804	0.661212	0.415799
C35	C	0.435168	0.158912	-0.084266
C36	C	0.935168	0.658912	0.415734
C37	C	0.434793	0.160812	0.083543
C38	C	0.934793	0.660812	0.583543
C39	C	0.531738	0.160790	0.084651
C40	C	1.031738	0.660790	0.584651
C41	C	0.667570	0.117727	0.000055
C42	C	1.167570	0.617727	0.500055
C43	C	0.310614	0.111452	0.000073
C44	C	0.810614	0.611452	0.500073
C45	C	0.995205	-0.038494	0.000070
C46	C	1.495205	0.461506	0.500070
C47	C	0.993553	-0.131444	0.000065
C48	C	1.493553	0.368556	0.500065
C49	C	0.987621	-0.469192	0.000068
C50	C	1.487621	0.030808	0.500068
C51	C	0.896069	-0.421758	-0.000270
C52	C	1.396069	0.078242	0.499730
C53	C	0.897721	-0.325068	0.000063
C54	C	1.397721	0.174932	0.500063
C55	C	0.990564	-0.301631	0.000066
C56	C	1.490564	0.198369	0.500066
C57	C	1.035702	-0.342705	0.084335
C58	C	1.535702	0.157295	0.584335
C59	C	1.033402	-0.439341	0.084405
C60	C	1.533402	0.060659	0.584405
C61	C	1.035330	-0.439707	-0.083404
C62	C	1.535330	0.060293	0.416596
C63	C	1.035308	-0.342761	-0.084518
C64	C	1.535308	0.157239	0.415482
C65	C	0.992231	-0.206934	0.000068
C66	C	1.492231	0.293066	0.500068
C67	C	0.985956	-0.563890	0.000072
C68	C	1.485956	-0.063890	0.500072
C69	C	1.142175	0.108476	0.000080
C70	C	1.642175	0.608476	0.500080
C71	C	1.235125	0.110127	0.000081
C72	C	1.735125	0.610127	0.500081
C73	C	0.982980	0.267671	0.000069
C74	C	1.482980	0.767671	0.500069
C75	C	0.984631	0.360621	0.000069
C76	C	1.484631	0.860621	0.500069
N77	N	0.989049	0.114599	0.229971
N78	N	1.489049	0.614599	0.729971
N79	N	0.989142	0.114571	-0.229830
N80	N	1.489142	0.614571	0.270170
C81	C	0.989112	0.114580	0.589173
C82	C	1.489112	0.614580	1.089173
C83	C	0.920095	0.183135	0.551560
C84	C	1.420095	0.683135	1.051560
C85	C	0.920254	0.183385	0.448735
C86	C	1.420254	0.683385	0.948735
C87	C	0.989080	0.114590	0.410969
C88	C	1.489080	0.614590	0.910969
C89	C	1.076445	0.133671	0.448266
C90	C	1.576445	0.633671	0.948266
C91	C	1.076058	0.134159	0.551124
C92	C	1.576058	0.634159	1.051124
C93	C	0.971542	0.026741	0.551272
C94	C	1.471542	0.526741	1.051272
C95	C	0.969537	0.027327	0.448409
C96	C	1.469537	0.527327	0.948409
C97	C	0.989067	0.114593	0.310255
C98	C	1.489067	0.614593	0.810255
C99	C	0.989130	0.114579	0.689886
C100	C	1.489130	0.614579	1.189886
H101	H	0.402920	0.226128	-0.088090
H102	H	0.902920	0.726128	0.411910
O103	O	0.569389	0.119663	-0.167276
O104	O	1.069389	0.619663	0.332724
H105	H	0.617308	0.066862	-0.148763
H106	H	1.117308	0.566862	0.351237
O107	O	1.031812	-0.043412	0.414377
O108	O	1.531812	0.456588	0.914377
H109	H	1.028644	-0.045450	0.340855
H110	H	1.528644	0.454550	0.840855
O111	O	0.935119	0.269728	0.416127
O112	O	1.435119	0.769728	0.916127
H113	H	0.880756	0.296259	0.375269
H114	H	1.380756	0.796259	0.875269
H115	H	0.855314	0.172016	0.423519
H116	H	1.355314	0.672016	0.923519
H117	H	0.403031	0.228312	0.084113
H118	H	0.903031	0.728312	0.584113
H119	H	0.577852	-0.012275	0.060467
H120	H	1.077852	0.487725	0.560467
O121	O	0.850719	-0.287411	-0.079948
O122	O	1.350719	0.212589	0.420052
H123	H	0.797195	-0.241983	-0.057731
H124	H	1.297195	0.258017	0.442269
H125	H	0.905271	0.012846	0.424032
H126	H	1.405271	0.512846	0.924032
H127	H	0.577307	-0.012521	-0.060446
H128	H	1.077307	0.487479	0.439554
O129	O	0.833793	0.168344	0.584363
O130	O	1.333793	0.668344	1.084363
H131	H	0.839163	0.111976	0.627829
H132	H	1.339163	0.611976	1.127829
H133	H	1.091540	0.198219	0.575106
H134	H	1.591540	0.698219	1.075106
H135	H	1.129029	0.085068	0.423801
H136	H	1.629029	0.585068	0.923801
H137	H	0.931160	0.247952	0.577399
H138	H	1.431160	0.747952	1.077399
H139	H	0.545929	0.229421	-0.087335
H140	H	1.045929	0.729421	0.412665
H141	H	1.129019	0.086195	0.576003
H142	H	1.629019	0.586195	1.076003
O143	O	1.124744	-0.481771	-0.084149
O144	O	1.624744	0.018229	0.415851
H145	H	1.158011	-0.460628	-0.143262
H146	H	1.658011	0.039372	0.356738
O147	O	0.407595	0.121164	0.168153
O148	O	0.907595	0.621164	0.668153
H149	H	0.372756	0.067017	0.151650
H150	H	0.872756	0.567017	0.651650
H151	H	0.559041	0.127829	0.146989
H152	H	1.059041	0.627829	0.646989
O153	O	0.410923	0.115286	-0.167696
O154	O	0.910923	0.615286	0.332304
H155	H	0.380230	0.058798	-0.149643
H156	H	0.880230	0.558798	0.350357
H157	H	0.547102	0.228494	0.089741
H158	H	1.047102	0.728494	0.589741
O159	O	1.097447	0.217565	0.414151
O160	O	1.597447	0.717565	0.914151
H161	H	1.045803	0.245797	0.370643
H162	H	1.545803	0.745797	0.870643
O163	O	0.847597	-0.446319	-0.080302
O164	O	1.347597	0.053681	0.419698
H165	H	0.888236	-0.492600	-0.120695
H166	H	1.388236	0.007400	0.379305
O167	O	1.038198	-0.040844	0.583495
O168	O	1.538198	0.459156	1.083495
H169	H	1.083627	-0.012068	0.626295
H170	H	1.583627	0.487932	1.126295
H171	H	0.859626	-0.441349	0.059819
H172	H	1.359626	0.058651	0.559819
H173	H	1.002306	-0.315516	-0.146857
H174	H	1.502306	0.184484	0.353143
O175	O	0.428197	-0.026910	0.080447
O176	O	0.928197	0.473090	0.580447
H177	H	0.359396	-0.030978	0.079086
H178	H	0.859396	0.469022	0.579086
O179	O	0.426802	-0.026699	-0.079192
O180	O	0.926802	0.473301	0.420808
H181	H	0.482979	-0.046734	-0.120482
H182	H	0.982979	0.453266	0.379518
O183	O	0.850389	-0.288144	0.080218
O184	O	1.350389	0.211856	0.580218
H185	H	0.826235	-0.339360	0.118898
H186	H	1.326235	0.160640	0.618898
O187	O	0.989759	-0.463589	0.167833
O188	O	1.489759	0.036411	0.667833
H189	H	0.970489	-0.406319	0.207746
H190	H	1.470489	0.093681	0.707746
O191	O	1.122430	-0.482067	0.089494
O192	O	1.622430	0.017933	0.589494
H193	H	1.166934	-0.433680	0.091901
H194	H	1.666934	0.066320	0.591901
H195	H	0.909219	0.008392	0.577258
H196	H	1.409219	0.508392	1.077258
H197	H	1.103910	-0.328579	0.087471
H198	H	1.603910	0.171421	0.587471
H199	H	1.004325	-0.314320	0.147042
H200	H	1.504325	0.185680	0.647042
H201	H	1.103014	-0.327400	-0.089603
H202	H	1.603014	0.172600	0.410397
O203	O	0.995729	-0.466912	-0.168027
O204	O	1.495729	0.033088	0.331973
H205	H	0.929095	-0.438768	-0.171027
H206	H	1.429095	0.061232	0.328973
