data_functionalizedCrystal
_audit_creation_method	'MofGen! by Chris Wilmer'
_symmetry_space_group_name_H-M	'P1'
_symmetry_Int_Tables_number	1
_symmetry_cell_setting	triclinic
loop_
_symmetry_equiv_pos_as_xyz
  x,y,z
_cell_length_a	12.827893
_cell_length_b	19.805405
_cell_length_c	19.805399
_cell_angle_alpha	90.029462
_cell_angle_beta	89.986233
_cell_angle_gamma	89.966665
loop_
_atom_site_label
_atom_site_type_symbol
_atom_site_fract_x
_atom_site_fract_y
_atom_site_fract_z
Zn1	Zn	1.597486	0.269467	-0.382661
Zn2	Zn	1.597342	0.382658	-0.269472
Zn3	Zn	1.422743	0.269488	-0.269492
Zn4	Zn	1.422658	0.382619	-0.382625
O5	O	1.510057	0.326058	-0.326062
O6	O	1.743703	0.284489	-0.367653
O7	O	1.574156	0.367671	-0.174758
O8	O	1.446019	0.174769	-0.284527
O9	O	1.743597	0.367650	-0.284494
O10	O	1.574402	0.174753	-0.367672
O11	O	1.445880	0.284526	-0.174773
O12	O	1.276496	0.284488	-0.284492
O13	O	1.445874	0.367584	-0.477346
O14	O	1.276433	0.367605	-0.367611
O15	O	1.574319	0.284451	-0.477373
O16	O	1.574074	0.477369	-0.284458
O17	O	1.445734	0.477341	-0.367591
C18	C	1.238547	0.326046	-0.326050
C19	C	1.122394	0.326057	-0.326061
C20	C	1.070613	0.284873	-0.285004
C21	C	0.950563	0.284884	-0.285014
C22	C	1.509908	0.501914	-0.326033
C23	C	1.509939	0.577146	-0.326044
C24	C	1.576742	0.612424	-0.369370
C25	C	1.576768	0.683112	-0.369381
C26	C	1.509995	0.718522	-0.326061
C27	C	1.443184	0.683239	-0.282733
C28	C	1.443154	0.612552	-0.282726
C29	C	1.443302	0.968312	-0.282760
C30	C	1.443340	1.039004	-0.282769
C31	C	1.576916	1.038872	-0.369416
C32	C	1.576886	0.968185	-0.369409
C33	C	1.510072	0.932909	-0.326083
C34	C	1.510044	0.856261	-0.326073
C35	C	1.510027	0.795169	-0.326068
C36	C	1.782627	0.326071	-0.326075
C37	C	1.898780	0.326077	-0.326081
C38	C	1.510103	0.326011	-0.502605
C39	C	1.510123	0.325991	-0.577837
C40	C	1.510192	1.149515	-0.326100
C41	C	1.510138	1.074283	-0.326100
C42	C	1.443348	0.282693	-0.613188
C43	C	1.443362	0.282680	-0.683877
C44	C	1.510157	0.325962	-0.719213
C45	C	1.576935	0.369264	-0.683857
C46	C	1.576915	0.369280	-0.613169
C47	C	1.577018	0.369201	-0.968930
C48	C	1.577035	0.369180	-1.039622
C49	C	1.443466	0.282601	-1.039638
C50	C	1.443445	0.282617	-0.968950
C51	C	1.510218	0.325922	-0.933600
C52	C	1.510201	0.325936	-0.856952
C53	C	1.510181	0.325944	-0.795860
C54	C	1.510072	0.326056	-0.150206
C55	C	1.510255	0.325885	-0.074975
H56	H	1.631121	0.583598	-0.404643
O57	O	0.891573	0.238183	-0.238451
H58	H	0.912490	0.185060	-0.250140
H59	H	0.943304	0.361334	-0.361236
O60	O	1.371258	0.930275	-0.236017
H61	H	1.289235	0.943888	-0.247570
H62	H	1.631297	0.404533	-0.584387
O63	O	1.129611	0.238162	-0.238427
H64	H	1.073418	0.208000	-0.208349
H65	H	1.077849	0.361325	-0.361217
H66	H	1.388984	0.247425	-0.712657
O67	O	1.648820	0.721164	-0.416111
H68	H	1.695255	0.684666	-0.446226
O69	O	1.648907	0.929991	-0.416129
H70	H	1.702090	0.897781	-0.385856
H71	H	1.388960	1.067833	-0.247492
O72	O	1.648968	1.076919	-0.416159
H73	H	1.637764	1.132021	-0.408897
O74	O	1.371175	0.721426	-0.235998
H75	H	1.382430	0.776506	-0.243273
H76	H	1.388755	0.583830	-0.247446
H77	H	1.388961	0.247444	-0.584423
H78	H	1.631315	0.404508	-0.712633
H79	H	1.631431	0.404428	-1.068391
H80	H	1.389057	0.247370	-0.940183
O81	O	1.371449	0.235885	-1.077764
H82	H	1.382678	0.243144	-1.132854
O83	O	1.649060	0.415889	-0.930806
H84	H	1.695523	0.445970	-0.967255
