data_functionalizedCrystal
_audit_creation_method	'MofGen! by Chris Wilmer'
_symmetry_space_group_name_H-M	'P1'
_symmetry_Int_Tables_number	1
_symmetry_cell_setting	triclinic
loop_
_symmetry_equiv_pos_as_xyz
  x,y,z
_cell_length_a	18.050591
_cell_length_b	18.050589
_cell_length_c	18.050582
_cell_angle_alpha	89.981795
_cell_angle_beta	90.020922
_cell_angle_gamma	89.975773
loop_
_atom_site_label
_atom_site_type_symbol
_atom_site_fract_x
_atom_site_fract_y
_atom_site_fract_z
Zn1	Zn	1.135293	0.295786	0.420054
Zn2	Zn	1.385293	0.545786	0.670054
Zn3	Zn	1.635293	0.795786	0.920054
Zn4	Zn	1.885293	1.045786	1.170054
Zn5	Zn	1.135203	0.419969	0.295873
Zn6	Zn	1.385203	0.669969	0.545873
Zn7	Zn	1.635203	0.919969	0.795873
Zn8	Zn	1.885203	1.169969	1.045873
Zn9	Zn	1.011112	0.295789	0.295865
Zn10	Zn	1.261112	0.545789	0.545865
Zn11	Zn	1.511112	0.795789	0.795865
Zn12	Zn	1.761112	1.045789	1.045865
Zn13	Zn	1.011060	0.419930	0.420009
Zn14	Zn	1.261060	0.669930	0.670009
Zn15	Zn	1.511060	0.919930	0.920009
Zn16	Zn	1.761060	1.169930	1.170009
O17	O	1.073167	0.357868	0.357950
O18	O	1.323167	0.607868	0.607950
O19	O	1.573167	0.857868	0.857950
O20	O	1.823167	1.107868	1.107950
O21	O	1.239205	0.312274	0.403603
O22	O	1.489205	0.562274	0.653603
O23	O	1.739205	0.812274	0.903603
O24	O	1.989205	1.062274	1.153603
O25	O	1.118727	0.403514	0.191948
O26	O	1.368727	0.653514	0.441948
O27	O	1.618727	0.903514	0.691948
O28	O	1.868727	1.153514	0.941948
O29	O	1.027644	0.191864	0.312354
O30	O	1.277644	0.441864	0.562354
O31	O	1.527644	0.691864	0.812354
O32	O	1.777644	0.941864	1.062354
O33	O	1.239140	0.403511	0.312369
O34	O	1.489140	0.653511	0.562369
O35	O	1.739140	0.903511	0.812369
O36	O	1.989140	1.153511	1.062369
O37	O	1.118879	0.191862	0.403595
O38	O	1.368879	0.441862	0.653595
O39	O	1.618879	0.691862	0.903595
O40	O	1.868879	0.941862	1.153595
O41	O	1.027557	0.312279	0.191942
O42	O	1.277557	0.562279	0.441942
O43	O	1.527557	0.812279	0.691942
O44	O	1.777557	1.062279	0.941942
O45	O	0.907180	0.312241	0.312311
O46	O	1.157180	0.562241	0.562311
O47	O	1.407180	0.812241	0.812311
O48	O	1.657180	1.062241	1.062311
O49	O	1.027555	0.403444	0.523940
O50	O	1.277555	0.653444	0.773940
O51	O	1.527555	0.903444	1.023940
O52	O	1.777555	1.153444	1.273940
O53	O	0.907142	0.403447	0.403519
O54	O	1.157142	0.653447	0.653519
O55	O	1.407142	0.903447	0.903519
O56	O	1.657142	1.153447	1.153519
O57	O	1.118828	0.312236	0.523973
O58	O	1.368828	0.562236	0.773973
O59	O	1.618828	0.812236	1.023973
O60	O	1.868828	1.062236	1.273973
O61	O	1.118676	0.523888	0.312325
O62	O	1.368676	0.773888	0.562325
O63	O	1.618676	1.023888	0.812325
O64	O	1.868676	1.273888	1.062325
O65	O	1.027468	0.523860	0.403527
O66	O	1.277468	0.773860	0.653527
O67	O	1.527468	1.023860	0.903527
O68	O	1.777468	1.273860	1.153527
C69	C	0.880215	0.357841	0.357909
C70	C	1.130215	0.607841	0.607909
C71	C	1.380215	0.857841	0.857909
C72	C	1.630215	1.107841	1.107909
C73	C	0.797669	0.357847	0.357909
C74	C	1.047669	0.607847	0.607909
C75	C	1.297669	0.857847	0.857909
C76	C	1.547669	1.107847	1.107909
C77	C	1.073077	0.550820	0.357938
C78	C	1.323077	0.800820	0.607938
C79	C	1.573077	1.050820	0.857938
C80	C	1.823077	1.300820	1.107938
C81	C	1.073107	0.633366	0.357958
C82	C	1.323107	0.883366	0.607958
C83	C	1.573107	1.133366	0.857958
C84	C	1.823107	1.383366	1.107958
C85	C	0.598217	0.308191	0.308425
C86	C	0.848217	0.558191	0.558425
C87	C	1.098217	0.808191	0.808425
C88	C	1.348217	1.058191	1.058425
C89	C	0.548798	0.375927	0.290154
C90	C	0.798798	0.625927	0.540154
C91	C	1.048798	0.875927	0.790154
C92	C	1.298798	1.125927	1.040154
C93	C	0.646539	0.357869	0.357943
C94	C	0.896539	0.607869	0.607943
C95	C	1.146539	0.857869	0.857943
C96	C	1.396539	1.107869	1.107943
C97	C	0.548877	0.290157	0.376212
C98	C	0.798877	0.540157	0.626212
C99	C	1.048877	0.790157	0.876212
C100	C	1.298877	1.040157	1.126212
C101	C	0.500553	0.357885	0.357974
C102	C	0.750553	0.607885	0.607974
C103	C	1.000553	0.857885	0.857974
C104	C	1.250553	1.107885	1.107974
C105	C	0.598206	0.425641	0.339637
C106	C	0.848206	0.675641	0.589637
C107	C	1.098206	0.925641	0.839637
C108	C	1.348206	1.175641	1.089637
C109	C	0.598289	0.339825	0.425726
C110	C	0.848289	0.589825	0.675726
C111	C	1.098289	0.839825	0.925726
C112	C	1.348289	1.089825	1.175726
C113	C	0.548892	0.407607	0.407481
C114	C	0.798892	0.657607	0.657481
C115	C	1.048892	0.907607	0.907481
C116	C	1.298892	1.157607	1.157481
C117	C	0.730637	0.357859	0.357923
C118	C	0.980637	0.607859	0.607923
C119	C	1.230637	0.857859	0.857923
C120	C	1.480637	1.107859	1.107923
C121	C	0.416457	0.357903	0.357994
C122	C	0.666457	0.607903	0.607994
C123	C	0.916457	0.857903	0.857994
C124	C	1.166457	1.107903	1.107994
C125	C	1.073196	0.357835	0.551656
C126	C	1.323196	0.607835	0.801656
C127	C	1.573196	0.857835	1.051656
C128	C	1.823196	1.107835	1.301656
C129	C	1.073208	0.357821	0.634202
C130	C	1.323208	0.607821	0.884202
C131	C	1.573208	0.857821	1.134202
C132	C	1.823208	1.107821	1.384202
C133	C	1.266872	0.357897	0.357992
C134	C	1.516872	0.607897	0.607992
C135	C	1.766872	0.857897	0.857992
C136	C	2.016872	1.107897	1.107992
C137	C	1.349418	0.357909	0.358010
C138	C	1.599418	0.607909	0.608010
C139	C	1.849418	0.857909	0.858010
C140	C	2.099418	1.107909	1.108010
C141	C	1.073277	0.164163	0.357979
C142	C	1.323277	0.414163	0.607979
C143	C	1.573277	0.664163	0.857979
C144	C	1.823277	0.914163	1.107979
C145	C	1.073324	0.081617	0.357991
C146	C	1.323324	0.331617	0.607991
C147	C	1.573324	0.581617	0.857991
C148	C	1.823324	0.831617	1.107991
C149	C	1.023557	0.832828	0.407536
C150	C	1.273557	1.082828	0.657536
C151	C	1.523557	1.332828	0.907536
C152	C	1.773557	1.582828	1.157536
C153	C	1.005459	0.882261	0.339767
C154	C	1.255459	1.132261	0.589767
C155	C	1.505459	1.382261	0.839767
C156	C	1.755459	1.632261	1.089767
C157	C	1.073180	0.784497	0.357967
C158	C	1.323180	1.034497	0.607967
C159	C	1.573180	1.284497	0.857967
C160	C	1.823180	1.534497	1.107967
C161	C	1.091314	0.882146	0.425744
C162	C	1.341314	1.132146	0.675744
C163	C	1.591314	1.382146	0.925744
C164	C	1.841314	1.632146	1.175744
C165	C	1.073249	0.930482	0.357983
C166	C	1.323249	1.180482	0.607983
C167	C	1.573249	1.430482	0.857983
C168	C	1.823249	1.680482	1.107983
C169	C	1.055046	0.832842	0.290162
C170	C	1.305046	1.082842	0.540162
C171	C	1.555046	1.332842	0.790162
C172	C	1.805046	1.582842	1.040162
C173	C	1.140933	0.832722	0.376186
C174	C	1.390933	1.082722	0.626186
C175	C	1.640933	1.332722	0.876186
C176	C	1.890933	1.582722	1.126186
C177	C	1.122861	0.882133	0.308370
C178	C	1.372861	1.132133	0.558370
C179	C	1.622861	1.382133	0.808370
C180	C	1.872861	1.632133	1.058370
C181	C	1.073138	0.700398	0.357959
C182	C	1.323138	0.950398	0.607959
C183	C	1.573138	1.200398	0.857959
C184	C	1.823138	1.450398	1.107959
C185	C	1.073291	1.014578	0.357983
C186	C	1.323291	1.264578	0.607983
C187	C	1.573291	1.514578	0.857983
C188	C	1.823291	1.764578	1.107983
C189	C	1.073181	0.357848	0.164998
C190	C	1.323181	0.607848	0.414998
C191	C	1.573181	0.857848	0.664998
C192	C	1.823181	1.107848	0.914998
C193	C	1.073312	0.357652	0.082453
C194	C	1.323312	0.607652	0.332453
C195	C	1.573312	0.857652	0.582453
C196	C	1.823312	1.107652	0.832453
C197	C	1.023612	0.407353	0.833635
C198	C	1.273612	0.657353	1.083635
C199	C	1.523612	0.907353	1.333635
C200	C	1.773612	1.157353	1.583635
C201	C	1.091367	0.425511	0.883034
C202	C	1.341367	0.675511	1.133034
C203	C	1.591367	0.925511	1.383034
C204	C	1.841367	1.175511	1.633034
C205	C	1.073245	0.357765	0.785332
C206	C	1.323245	0.607765	1.035332
C207	C	1.573245	0.857765	1.285332
C208	C	1.823245	1.107765	1.535332
C209	C	1.005527	0.339586	0.883014
C210	C	1.255527	0.589586	1.133014
C211	C	1.505527	0.839586	1.383014
C212	C	1.755527	1.089586	1.633014
C213	C	1.073274	0.357711	0.931317
C214	C	1.323274	0.607711	1.181317
C215	C	1.573274	0.857711	1.431317
C216	C	1.823274	1.107711	1.681317
C217	C	1.141036	0.375958	0.833645
C218	C	1.391036	0.625958	1.083645
C219	C	1.641036	0.875958	1.333645
C220	C	1.891036	1.125958	1.583645
C221	C	1.055150	0.290002	0.833620
C222	C	1.305150	0.540002	1.083620
C223	C	1.555150	0.790002	1.333620
C224	C	1.805150	1.040002	1.583620
C225	C	1.122952	0.308134	0.882998
C226	C	1.372952	0.558134	1.132998
C227	C	1.622952	0.808134	1.382998
C228	C	1.872952	1.058134	1.632998
C229	C	1.073227	0.357797	0.701234
C230	C	1.323227	0.607797	0.951234
C231	C	1.573227	0.857797	1.201234
C232	C	1.823227	1.107797	1.451234
C233	C	1.073300	0.357679	1.015414
C234	C	1.323300	0.607679	1.265414
C235	C	1.573300	0.857679	1.515414
C236	C	1.823300	1.107679	1.765414
H237	H	0.619875	0.266226	0.266503
H238	H	0.869875	0.516226	0.516503
H239	H	1.119875	0.766226	0.766503
H240	H	1.369875	1.016226	1.016503
F241	F	1.215765	0.804260	0.396350
F242	F	1.465765	1.054260	0.646350
F243	F	1.715765	1.304260	0.896350
F244	F	1.965765	1.554260	1.146350
H245	H	0.527169	0.232894	0.391625
H246	H	0.777169	0.482894	0.641625
H247	H	1.027169	0.732894	0.891625
H248	H	1.277169	0.982894	1.141625
H249	H	1.198333	0.391377	0.812050
H250	H	1.448333	0.641377	1.062050
H251	H	1.698333	0.891377	1.312050
H252	H	1.948333	1.141377	1.562050
H253	H	1.039807	0.232736	0.811899
H254	H	1.289807	0.482736	1.061899
H255	H	1.539807	0.732736	1.311899
H256	H	1.789807	0.982736	1.561899
H257	H	0.948246	0.324232	0.904701
H258	H	1.198246	0.574232	1.154701
H259	H	1.448246	0.824232	1.404701
H260	H	1.698246	1.074232	1.654701
F261	F	0.626408	0.500519	0.319370
F262	F	0.876408	0.750519	0.569370
F263	F	1.126408	1.000519	0.819370
F264	F	1.376408	1.250519	1.069370
F265	F	1.111396	0.500382	0.911406
F266	F	1.361396	0.750382	1.161406
F267	F	1.611396	1.000382	1.411406
F268	F	1.861396	1.250382	1.661406
F269	F	0.930607	0.910701	0.319626
F270	F	1.180607	1.160701	0.569626
F271	F	1.430607	1.410701	0.819626
F272	F	1.680607	1.660701	1.069626
F273	F	0.520383	0.395892	0.215247
F274	F	0.770383	0.645892	0.465247
F275	F	1.020383	0.895892	0.715247
F276	F	1.270383	1.145892	0.965247
F277	F	0.520759	0.462588	0.462234
F278	F	0.770759	0.712588	0.712234
F279	F	1.020759	0.962588	0.962234
F280	F	1.270759	1.212588	1.212234
F281	F	0.968801	0.462234	0.805303
F282	F	1.218801	0.712234	1.055303
F283	F	1.468801	0.962234	1.305303
F284	F	1.718801	1.212234	1.555303
F285	F	0.626724	0.319835	0.500614
F286	F	0.876724	0.569835	0.750614
F287	F	1.126724	0.819835	1.000614
F288	F	1.376724	1.069835	1.250614
H289	H	0.981531	0.811178	0.449395
H290	H	1.231531	1.061178	0.699395
H291	H	1.481531	1.311178	0.949395
H292	H	1.731531	1.561178	1.199395
F293	F	1.034949	0.804655	0.215229
F294	F	1.284949	1.054655	0.465229
F295	F	1.534949	1.304655	0.715229
F296	F	1.784949	1.554655	0.965229
F297	F	1.177752	0.910252	0.253527
F298	F	1.427752	1.160252	0.503527
F299	F	1.677752	1.410252	0.753527
F300	F	1.927752	1.660252	1.003527
H301	H	1.106625	0.903802	0.483056
H302	H	1.356625	1.153802	0.733056
H303	H	1.606625	1.403802	0.983056
H304	H	1.856625	1.653802	1.233056
H305	H	1.164986	0.266177	0.904535
H306	H	1.414986	0.516177	1.154535
H307	H	1.664986	0.766177	1.404535
H308	H	1.914986	1.016177	1.654535
