data_functionalizedCrystal
_audit_creation_method	'MofGen! by Chris Wilmer'
_symmetry_space_group_name_H-M	'P1'
_symmetry_Int_Tables_number	1
_symmetry_cell_setting	triclinic
loop_
_symmetry_equiv_pos_as_xyz
  x,y,z
_cell_length_a	19.805407
_cell_length_b	19.121063
_cell_length_c	19.805399
_cell_angle_alpha	92.411105
_cell_angle_beta	89.980427
_cell_angle_gamma	92.469032
loop_
_atom_site_label
_atom_site_type_symbol
_atom_site_fract_x
_atom_site_fract_y
_atom_site_fract_z
Zn1	Zn	1.023234	-0.279631	-0.394203
Zn2	Zn	1.523234	0.220369	0.105797
Zn3	Zn	1.018317	-0.397083	-0.285838
Zn4	Zn	1.518317	0.102917	0.214162
Zn5	Zn	0.910048	-0.279650	-0.281028
Zn6	Zn	1.410048	0.220350	0.218972
Zn7	Zn	0.905182	-0.397046	-0.398983
Zn8	Zn	1.405182	0.102954	0.101017
O9	O	0.964195	-0.338352	-0.340013
O10	O	1.464195	0.161648	0.159987
O11	O	1.117298	-0.295218	-0.379840
O12	O	1.617298	0.204782	0.120160
O13	O	1.003934	-0.381529	-0.190484
O14	O	1.503934	0.118471	0.309516
O15	O	0.929156	-0.181363	-0.292028
O16	O	1.429156	0.318637	0.207972
O17	O	1.113686	-0.381510	-0.300225
O18	O	1.613686	0.118490	0.199775
O19	O	1.012313	-0.181348	-0.375177
O20	O	1.512313	0.318652	0.124823
O21	O	0.924388	-0.295251	-0.186951
O22	O	1.424388	0.204749	0.313049
O23	O	0.814686	-0.295215	-0.296663
O24	O	1.314686	0.204785	0.203337
O25	O	0.920863	-0.381447	-0.493065
O26	O	1.420863	0.118553	0.006935
O27	O	0.811111	-0.381465	-0.383324
O28	O	1.311111	0.118535	0.116676
O29	O	1.007595	-0.295182	-0.489553
O30	O	1.507595	0.204818	0.010447
O31	O	0.999216	-0.495363	-0.304860
O32	O	1.499216	0.004637	0.195140
O33	O	0.916096	-0.495335	-0.387987
O34	O	1.416096	0.004665	0.112013
C35	C	0.788340	-0.338339	-0.339991
C36	C	1.288340	0.161661	0.160009
C37	C	0.713107	-0.338350	-0.339998
C38	C	1.213107	0.161650	0.160002
C39	C	0.956613	-0.520833	-0.347479
C40	C	1.456613	-0.020833	0.152521
C41	C	0.953431	-0.598899	-0.350696
C42	C	1.453431	-0.098899	0.149304
C43	C	0.675917	-0.383328	-0.385055
C44	C	1.175917	0.116672	0.114945
C45	C	0.605228	-0.383329	-0.385064
C46	C	1.105228	0.116671	0.114936
C47	C	0.571732	-0.338356	-0.340013
C48	C	1.071732	0.161644	0.159987
C49	C	0.608927	-0.293373	-0.294954
C50	C	1.108927	0.206627	0.205046
C51	C	0.679614	-0.293368	-0.294948
C52	C	1.179614	0.206632	0.205052
C53	C	0.323853	-0.293388	-0.294977
C54	C	0.823853	0.206612	0.205023
C55	C	0.253161	-0.293397	-0.294985
C56	C	0.753161	0.206603	0.205015
C57	C	0.249467	-0.383349	-0.385093
C58	C	0.749467	0.116651	0.114907
C59	C	0.320154	-0.383345	-0.385087
C60	C	0.820154	0.116655	0.114913
C61	C	0.357344	-0.338360	-0.340031
C62	C	0.857344	0.161640	0.159969
C63	C	0.433992	-0.338358	-0.340022
C64	C	0.933992	0.161642	0.159978
C65	C	0.495084	-0.338360	-0.340018
C66	C	0.995084	0.161640	0.159982
C67	C	0.995246	-0.635566	-0.308963
C68	C	1.495246	-0.135566	0.191037
C69	C	0.992258	-0.708917	-0.311992
C70	C	1.492258	-0.208917	0.188008
C71	C	0.947451	-0.745601	-0.356752
C72	C	1.447451	-0.245601	0.143248
C73	C	0.905634	-0.708929	-0.398489
C74	C	1.405634	-0.208929	0.101511
C75	C	0.908626	-0.635579	-0.395463
C76	C	1.408626	-0.135579	0.104537
C77	C	0.936252	-0.967071	-0.368056
C78	C	1.436252	-0.467071	0.131944
C79	C	0.933262	-1.040426	-0.371078
C80	C	1.433262	-0.540426	0.128922
C81	C	1.019887	-1.040409	-0.284581
C82	C	1.519887	-0.540409	0.215419
C83	C	1.022872	-0.967058	-0.281556
C84	C	1.522872	-0.467058	0.218444
C85	C	0.981058	-0.930393	-0.323296
C86	C	1.481058	-0.430393	0.176704
C87	C	0.944394	-0.820578	-0.359848
C88	C	1.444394	-0.320578	0.140152
C89	C	0.984119	-0.855417	-0.320203
C90	C	1.484119	-0.355417	0.179797
C91	C	1.140737	-0.338366	-0.340036
C92	C	1.640737	0.161634	0.159964
C93	C	1.215969	-0.338372	-0.340046
C94	C	1.715969	0.161628	0.159954
C95	C	0.964235	-0.338308	-0.516554
C96	C	1.464235	0.161692	-0.016554
C97	C	0.964252	-0.338289	-0.591785
C98	C	1.464252	0.161711	-0.091785
C99	C	0.971825	-0.155159	-0.332532
C100	C	1.471825	0.344841	0.167468
C101	C	0.975077	-0.077093	-0.329345
C102	C	1.475077	0.422907	0.170655
C103	C	1.009414	-0.293369	-0.625302
C104	C	1.509414	0.206631	-0.125302
C105	C	1.009422	-0.293349	-0.695989
C106	C	1.509422	0.206651	-0.195989
C107	C	0.964270	-0.338253	-0.733159
C108	C	1.464270	0.161747	-0.233159
C109	C	0.919103	-0.383175	-0.699638
C110	C	1.419103	0.116825	-0.199638
C111	C	0.919093	-0.383191	-0.628952
C112	C	1.419093	0.116809	-0.128952
C113	C	0.919144	-0.383109	-0.984709
C114	C	1.419144	0.116891	-0.484709
C115	C	0.919159	-0.383091	-1.055400
C116	C	1.419159	0.116909	-0.555400
C117	C	1.009474	-0.293267	-1.051747
C118	C	1.509474	0.206733	-0.551747
C119	C	1.009463	-0.293283	-0.981060
C120	C	1.509463	0.206717	-0.481060
C121	C	0.964294	-0.338202	-0.947545
C122	C	1.464294	0.161798	-0.447545
C123	C	0.964285	-0.338223	-0.870897
C124	C	1.464285	0.161777	-0.370897
C125	C	0.964282	-0.338236	-0.809806
C126	C	1.464282	0.161764	-0.309806
C127	C	0.964197	-0.338346	-0.164157
C128	C	1.464197	0.161654	0.335843
C129	C	0.964319	-0.338167	-0.088918
C130	C	1.464319	0.161833	0.411082
H131	H	0.703185	-0.419953	-0.421739
H132	H	1.203185	0.080047	0.078261
C133	C	0.216316	-0.243918	-0.245431
C134	C	0.716316	0.256082	0.254569
H135	H	0.248588	-0.217120	-0.218601
H136	H	0.748588	0.282880	0.281399
H137	H	0.187614	-0.270744	-0.216996
H138	H	0.687614	0.229256	0.283004
H139	H	0.190021	-0.213356	-0.270133
H140	H	0.690021	0.286644	0.229867
C141	C	1.059081	-0.243976	-0.584418
C142	C	1.559081	0.256024	-0.084418
H143	H	1.052613	-0.250422	-0.537519
H144	H	1.552613	0.249578	-0.037519
H145	H	1.051144	-0.196783	-0.594074
H146	H	1.551144	0.303217	-0.094074
H147	H	1.104134	-0.254261	-0.596432
H148	H	1.604134	0.245739	-0.096432
C149	C	0.208557	-0.432826	-0.434662
C150	C	0.708557	0.067174	0.065338
H151	H	0.161661	-0.426384	-0.428221
H152	H	0.661661	0.073616	0.071779
H153	H	0.218178	-0.480002	-0.426610
H154	H	0.718178	0.019998	0.073390
H155	H	0.220589	-0.422604	-0.479738
H156	H	0.720589	0.077396	0.020262
C157	C	0.564320	-0.432848	-0.434587
C158	C	1.064320	0.067152	0.065413
H159	H	0.594393	-0.459651	-0.461400
H160	H	1.094393	0.040349	0.038600
H161	H	0.537849	-0.406064	-0.463043
H162	H	1.037849	0.093936	0.036957
H163	H	0.535486	-0.463403	-0.409857
H164	H	1.035486	0.036597	0.090143
H165	H	0.347424	-0.419970	-0.421771
H166	H	0.847424	0.080030	0.078229
C167	C	0.869491	-0.432485	-1.096289
C168	C	1.369491	0.067515	-0.596289
H169	H	0.875974	-0.426046	-1.143188
H170	H	1.375974	0.073954	-0.643188
H171	H	0.824439	-0.422205	-1.084282
H172	H	1.324439	0.077795	-0.584282
H173	H	0.877431	-0.479682	-1.086632
H174	H	1.377431	0.020318	-0.586632
C175	C	0.364752	-0.243919	-0.245406
C176	C	0.864752	0.256081	0.254594
H177	H	0.334677	-0.217144	-0.218570
H178	H	0.834677	0.282856	0.281430
H179	H	0.393611	-0.213345	-0.270083
H180	H	0.893611	0.286655	0.229917
H181	H	0.391197	-0.270754	-0.216967
H182	H	0.891197	0.229246	0.283033
H183	H	1.020604	-0.825547	-0.283763
H184	H	1.520604	-0.325547	0.216237
H185	H	1.053931	-1.070270	-0.250600
H186	H	1.553931	-0.570270	0.249400
C187	C	1.038251	-0.749248	-0.266083
C188	C	1.538251	-0.249248	0.233917
H189	H	1.065359	-0.716895	-0.238986
H190	H	1.565359	-0.216895	0.261014
H191	H	1.066565	-0.777818	-0.293177
H192	H	1.566565	-0.277818	0.206823
H193	H	1.011202	-0.777904	-0.237749
H194	H	1.511202	-0.277904	0.262251
H195	H	0.581649	-0.256751	-0.258275
H196	H	1.081649	0.243249	0.241725
H197	H	0.709894	-0.256739	-0.258261
H198	H	1.209894	0.243261	0.241739
H199	H	1.046199	-0.256772	-0.723275
H200	H	1.546199	0.243228	-0.223275
C201	C	1.059127	-0.243887	-0.940176
C202	C	1.559127	0.256113	-0.440176
H203	H	1.086022	-0.217126	-0.970262
H204	H	1.586022	0.282874	-0.470262
H205	H	1.087496	-0.270760	-0.913702
H206	H	1.587496	0.229240	-0.413702
H207	H	1.034499	-0.213288	-0.911350
H208	H	1.534499	0.286712	-0.411350
C209	C	1.044536	-0.595220	-0.259728
C210	C	1.544536	-0.095220	0.240272
H211	H	1.069015	-0.627566	-0.235313
H212	H	1.569015	-0.127566	0.264687
H213	H	1.019830	-0.566648	-0.229033
H214	H	1.519830	-0.066648	0.270967
H215	H	1.075183	-0.566565	-0.284471
H216	H	1.575183	-0.066565	0.215529
H217	H	1.059358	-0.937192	-0.245110
H218	H	1.559358	-0.437192	0.254890
H219	H	1.046250	-0.256689	-1.079043
H220	H	1.546250	0.243311	-0.579043
C221	C	0.883978	-1.080777	-0.420320
C222	C	1.383978	-0.580777	0.079680
H223	H	0.859508	-1.048436	-0.444751
H224	H	1.359508	-0.548436	0.055249
H225	H	0.853331	-1.109435	-0.395587
H226	H	1.353331	-0.609435	0.104413
H227	H	0.908697	-1.109347	-0.451012
H228	H	1.408697	-0.609347	0.048988
H229	H	0.902204	-0.937224	-0.402041
H230	H	1.402204	-0.437224	0.097959
C231	C	0.895105	-0.860929	-0.409079
C232	C	1.395105	-0.360929	0.090921
H233	H	0.870629	-0.828589	-0.433505
H234	H	1.370629	-0.328589	0.066495
H235	H	0.864465	-0.889590	-0.384342
H236	H	1.364465	-0.389590	0.115658
H237	H	0.919822	-0.889496	-0.439775
H238	H	1.419822	-0.389496	0.060225
C239	C	0.856348	-0.749276	-0.447726
C240	C	1.356348	-0.249276	0.052274
H241	H	0.831878	-0.716931	-0.472153
H242	H	1.331878	-0.216931	0.027847
H243	H	0.825702	-0.777933	-0.422992
H244	H	1.325702	-0.277933	0.077008
H245	H	0.881063	-0.777845	-0.478422
H246	H	1.381063	-0.277845	0.021578
H247	H	0.882374	-0.419695	-0.957430
H248	H	1.382374	0.080305	-0.457430
C249	C	0.869436	-0.432569	-0.740520
C250	C	1.369436	0.067431	-0.240520
H251	H	0.842533	-0.459320	-0.710433
H252	H	1.342533	0.040680	-0.210433
H253	H	0.894056	-0.463167	-0.769349
H254	H	1.394056	0.036833	-0.269349
H255	H	0.841066	-0.405689	-0.766992
H256	H	1.341066	0.094311	-0.266992
H257	H	0.874577	-0.605726	-0.429447
H258	H	1.374577	-0.105726	0.070553
H259	H	0.882310	-0.419762	-0.601663
H260	H	1.382310	0.080238	-0.101663
