data_functionalizedCrystal
_audit_creation_method	'MofGen! by Chris Wilmer'
_symmetry_space_group_name_H-M	'P1'
_symmetry_Int_Tables_number	1
_symmetry_cell_setting	triclinic
loop_
_symmetry_equiv_pos_as_xyz
  x,y,z
_cell_length_a	9.065218
_cell_length_b	10.654562
_cell_length_c	9.130313
_cell_angle_alpha	89.996930
_cell_angle_beta	89.999789
_cell_angle_gamma	95.247005
loop_
_atom_site_label
_atom_site_type_symbol
_atom_site_fract_x
_atom_site_fract_y
_atom_site_fract_z
O1	O	-0.207317	1.668646	-0.121891
O2	O	-0.227042	1.303248	-0.121872
O3	O	-0.002496	1.493499	-0.121877
O4	O	-0.431863	1.478394	-0.121885
O5	O	-0.002502	1.493497	0.121721
O6	O	-0.227048	1.303245	0.121727
O7	O	-0.207324	1.668644	0.121708
Cu8	Cu	-0.217186	1.485944	0.143960
Cu9	Cu	-0.217179	1.485947	-0.144124
O10	O	-0.431869	1.478392	0.121714
C11	C	-0.225593	1.256443	-0.000070
C12	C	-0.221248	1.116983	-0.000063
C13	C	-0.219225	1.051443	0.132711
C14	C	-0.215154	0.920405	0.132687
C15	C	-0.215137	0.920457	-0.132898
C16	C	-0.219196	1.051494	-0.132872
C17	C	-0.219241	1.051411	0.286045
C18	C	-0.215171	0.920373	0.286020
C19	C	-0.486845	1.479845	-0.000087
C20	C	-0.650664	1.484185	-0.000091
C21	C	0.052479	1.492047	-0.000080
C22	C	0.216299	1.487706	-0.000086
C23	C	-0.208773	1.715448	-0.000097
C24	C	-0.213117	1.854908	-0.000113
N25	N	-0.217190	1.485951	0.346583
N26	N	-0.217163	1.485950	-0.346746
C27	C	-0.117796	1.570217	0.423232
C28	C	-0.117778	1.570213	0.576569
C29	C	-0.316563	1.401675	0.576593
C30	C	-0.316572	1.401673	0.423259
C31	C	-0.003033	1.667525	0.423220
C32	C	-0.003016	1.667522	0.576556
H33	H	-0.117276	1.097267	0.344930
C34	C	-0.050753	1.789277	0.359551
C35	C	0.063777	1.847014	0.273251
C36	C	0.019836	1.959149	0.214545
H37	H	-0.072364	1.844369	0.436865
H38	H	-0.136635	1.771080	0.300927
H39	H	0.149632	1.865215	0.331871
H40	H	0.085402	1.791958	0.195914
H41	H	-0.066046	1.940952	0.155921
H42	H	-0.001775	2.014230	0.291868
H43	H	0.097531	1.998332	0.155973
H44	H	-0.397476	1.333057	0.639040
C45	C	0.148111	1.638063	0.367807
C46	C	0.178797	1.519364	0.419092
C47	C	0.318004	1.492170	0.368064
H48	H	0.221684	1.700190	0.402446
H49	H	0.148143	1.637985	0.263751
H50	H	0.178778	1.519451	0.523126
H51	H	0.105261	1.457211	0.384457
H52	H	0.318035	1.492093	0.264009
H53	H	0.391564	1.554305	0.402707
H54	H	0.338836	1.411627	0.402842
C55	C	-0.362783	1.091179	0.349605
C56	C	-0.453745	0.983951	0.391672
C57	C	-0.585980	1.020537	0.450242
H58	H	-0.412238	1.136429	0.277837
H59	H	-0.341323	1.143472	0.432593
H60	H	-0.475209	0.931679	0.308694
H61	H	-0.404337	0.938688	0.463453
H62	H	-0.564520	1.072830	0.533230
H63	H	-0.635422	1.065788	0.378467
H64	H	-0.647708	0.947791	0.478804
C65	C	0.139891	1.626499	0.640199
C66	C	0.208122	1.723803	0.726449
C67	C	0.339751	1.686056	0.785129
H68	H	0.204532	1.607912	0.562873
H69	H	0.118247	1.553478	0.698853
H70	H	0.229771	1.796802	0.667799
H71	H	0.143523	1.742402	0.803798
H72	H	0.318107	1.613035	0.843782
H73	H	0.404380	1.667469	0.707793
H74	H	0.386056	1.752065	0.843666
C75	C	-0.221076	1.122755	-0.276982
C76	C	-0.096672	1.210632	-0.284722
C77	C	-0.098343	1.276290	-0.417467
H78	H	-0.308450	1.165398	-0.282645
H79	H	-0.219197	1.065032	-0.356122
H80	H	-0.098565	1.268347	-0.205604
H81	H	-0.009279	1.168022	-0.279084
H82	H	-0.096463	1.218567	-0.496607
H83	H	-0.185722	1.318926	-0.423118
H84	H	-0.013930	1.335914	-0.422742
H85	H	-0.317142	0.874490	0.344883
C86	C	-0.036512	1.796453	0.631858
C87	C	0.071867	1.887955	0.580504
C88	C	0.041051	2.006737	0.631404
H89	H	-0.036461	1.796632	0.735895
H90	H	-0.130986	1.814790	0.597157
H91	H	0.166316	1.869624	0.615212
H92	H	0.071833	1.887817	0.476473
H93	H	-0.053422	2.025073	0.596703
H94	H	0.041102	2.006902	0.735439
H95	H	0.114573	2.068836	0.596557
H96	H	-0.213466	0.867121	-0.241026
H97	H	-0.397494	1.333047	0.360853
H98	H	-0.107566	0.890358	0.333602
