data_functionalizedCrystal
_audit_creation_method	'MofGen! by Chris Wilmer'
_symmetry_space_group_name_H-M	'P1'
_symmetry_Int_Tables_number	1
_symmetry_cell_setting	triclinic
loop_
_symmetry_equiv_pos_as_xyz
  x,y,z
_cell_length_a	12.837943
_cell_length_b	17.038272
_cell_length_c	11.892095
_cell_angle_alpha	94.170821
_cell_angle_beta	85.689438
_cell_angle_gamma	92.970248
loop_
_atom_site_label
_atom_site_type_symbol
_atom_site_fract_x
_atom_site_fract_y
_atom_site_fract_z
O1	O	1.399724	0.200065	-0.093986
O2	O	1.097028	0.189958	-0.093992
O3	O	1.246576	0.081062	-0.093980
O4	O	1.250175	0.308961	-0.093998
O5	O	1.234106	0.090126	0.094026
O6	O	1.084557	0.199022	0.094014
O7	O	1.387254	0.209129	0.094021
Zn8	Zn	1.233926	0.205514	0.123868
Zn9	Zn	1.250356	0.193572	-0.123839
O10	O	1.237705	0.318025	0.094009
C11	C	1.051871	0.191076	0.000010
C12	C	0.935896	0.180893	0.000008
C13	C	0.705733	0.303310	0.000015
C14	C	0.596764	0.293746	0.000013
C15	C	0.608986	0.152201	0.000012
C16	C	0.717955	0.161765	0.000014
C17	C	0.766325	0.237322	0.000013
C18	C	0.875296	0.246885	0.000006
C19	C	0.887516	0.105342	0.000013
C20	C	0.778547	0.095777	0.000012
C21	C	1.237069	0.056221	0.000023
C22	C	1.227305	-0.031301	0.000022
C23	C	1.316945	-0.074719	0.000026
C24	C	1.307766	-0.156956	0.000015
C25	C	1.208945	-0.195773	0.000009
C26	C	1.119299	-0.152349	0.000002
C27	C	1.128480	-0.070114	0.000005
C28	C	1.176511	-0.443954	-0.000008
C29	C	1.167337	-0.526195	-0.000007
C30	C	1.355805	-0.530796	0.000003
C31	C	1.364977	-0.448559	0.000013
C32	C	1.275331	-0.405143	0.000001
C33	C	1.199560	-0.279832	0.000001
C34	C	1.284718	-0.321086	0.000000
C35	C	1.432411	0.208011	0.000016
C36	C	1.548386	0.218194	0.000011
C37	C	1.247213	0.342865	0.000003
C38	C	1.256977	0.430387	-0.000004
N39	N	1.222720	0.213665	0.292921
N40	N	1.261569	0.185416	-0.292892
C41	C	1.339540	0.128657	0.529578
C42	C	1.331715	0.134361	0.647919
C43	C	1.199241	0.230770	0.647947
C44	C	1.207066	0.225067	0.529605
C45	C	1.277219	0.174010	0.470425
C46	C	1.285048	0.168311	0.352082
C47	C	1.152569	0.264716	0.352111
C48	C	1.144745	0.270419	0.470453
H49	H	0.914677	0.308407	0.000008
H50	H	1.397415	-0.043120	0.000037
H51	H	1.101826	0.301647	0.303936
H52	H	1.396668	0.087090	0.481393
O53	O	0.752556	0.376759	0.000056
C54	C	0.728943	0.516138	-0.000032
C55	C	0.675783	0.433004	-0.000051
H56	H	0.666898	0.561634	-0.000143
H57	H	0.774402	0.528001	0.078666
H58	H	0.784903	0.520318	-0.078695
H59	H	0.619774	0.428764	0.078558
H60	H	0.630390	0.421177	-0.078801
H61	H	0.547433	0.347480	0.000018
O62	O	1.392363	0.090275	0.705206
C63	C	1.524531	-0.005993	0.692685
C64	C	1.455928	0.043907	0.627668
H65	H	1.575926	-0.043506	0.630025
H66	H	1.576067	0.034520	0.748047
H67	H	1.472326	-0.045977	0.748131
H68	H	1.508054	0.083897	0.572162
H69	H	1.404385	0.003348	0.572378
O70	O	0.562154	0.078758	0.000062
C71	C	0.585767	-0.060631	-0.000016
C72	C	0.638936	0.022499	-0.000043
H73	H	0.647823	-0.106140	-0.000125
H74	H	0.529872	-0.064906	0.078685
H75	H	0.540236	-0.072391	-0.078676
H76	H	0.684522	0.034314	0.078564
H77	H	0.694771	0.026734	-0.078795
O78	O	0.731684	0.022339	-0.000143
C79	C	0.715197	-0.106236	-0.097595
C80	C	0.768360	-0.023101	-0.097541
H81	H	0.744813	-0.142993	-0.176344
H82	H	0.734447	-0.135525	-0.018972
H83	H	0.626906	-0.101714	-0.097539
H84	H	0.856662	-0.027553	-0.097636
H85	H	0.749026	0.006157	-0.176156
H86	H	0.936862	0.051609	0.000004
O87	O	1.460928	-0.410778	-0.000139
C88	C	1.587165	-0.325341	-0.097570
C89	C	1.478466	-0.368067	-0.097530
H90	H	1.601388	-0.290812	-0.176314
H91	H	1.590984	-0.283117	-0.018942
H92	H	1.649630	-0.370516	-0.097517
H93	H	1.415938	-0.322949	-0.097623
H94	H	1.474736	-0.410305	-0.176151
O95	O	1.394827	-0.199172	-0.000183
C96	C	1.500284	-0.299403	-0.097558
C97	C	1.401660	-0.251637	-0.097483
H98	H	1.505828	-0.341844	-0.176204
H99	H	1.572528	-0.257569	-0.097621
H100	H	1.495469	-0.334197	-0.018847
H101	H	1.406372	-0.216839	-0.176180
H102	H	1.329456	-0.293511	-0.097361
H103	H	1.342172	0.126740	0.303898
H104	H	1.428789	-0.566154	0.000011
H105	H	1.086860	-0.557796	0.000006
O106	O	1.130945	0.280262	0.705400
C107	C	0.951175	0.314540	0.741614
C108	C	1.028407	0.258428	0.676494
H109	H	0.868259	0.296918	0.718249
H110	H	0.956199	0.310808	0.836367
H111	H	0.971908	0.377478	0.718375
H112	H	1.007726	0.195466	0.699638
H113	H	1.023370	0.262229	0.581756
O114	O	1.089322	-0.401903	0.000046
C115	C	0.901422	-0.406027	-0.000011
C116	C	1.000081	-0.453749	-0.000050
H117	H	0.829248	-0.447926	-0.000112
H118	H	0.895716	-0.363642	0.078690
H119	H	0.906276	-0.371179	-0.078671
H120	H	0.995296	-0.488644	0.078557
H121	H	1.005753	-0.496086	-0.078803
H122	H	1.087625	0.311987	0.518651
H123	H	1.038837	-0.183960	-0.000010
H124	H	1.365179	-0.289479	-0.000020
H125	H	1.055485	-0.034764	0.000002
H126	H	1.119099	-0.311445	-0.000001
