data_functionalizedCrystal
_audit_creation_method	'MofGen! by Chris Wilmer'
_symmetry_space_group_name_H-M	'P1'
_symmetry_Int_Tables_number	1
_symmetry_cell_setting	triclinic
loop_
_symmetry_equiv_pos_as_xyz
  x,y,z
_cell_length_a	16.625548
_cell_length_b	13.897441
_cell_length_c	13.897448
_cell_angle_alpha	90.030599
_cell_angle_beta	90.018760
_cell_angle_gamma	90.021870
loop_
_atom_site_label
_atom_site_type_symbol
_atom_site_fract_x
_atom_site_fract_y
_atom_site_fract_z
Zn1	Zn	1.232718	0.545410	-0.383957
Zn2	Zn	1.732718	1.045410	0.116043
Zn3	Zn	1.232629	0.384112	-0.545278
Zn4	Zn	1.732629	0.884112	-0.045278
Zn5	Zn	1.097876	0.384126	-0.384002
Zn6	Zn	1.597876	0.884126	0.115998
Zn7	Zn	1.097861	0.545361	-0.545214
Zn8	Zn	1.597861	1.045361	-0.045214
O9	O	1.165271	0.464752	-0.464613
O10	O	1.665271	0.964752	0.035387
O11	O	1.345538	0.524029	-0.405364
O12	O	1.845538	1.024029	0.094636
O13	O	1.214723	0.249132	-0.523930
O14	O	1.714723	0.749132	-0.023930
O15	O	1.115807	0.405547	-0.249014
O16	O	1.615807	0.905547	0.250986
O17	O	1.345473	0.405523	-0.523886
O18	O	1.845473	0.905523	-0.023886
O19	O	1.214874	0.524042	-0.248981
O20	O	1.714874	1.024042	0.251019
O21	O	1.115721	0.249142	-0.405441
O22	O	1.615721	0.749142	0.094559
O23	O	0.985042	0.405499	-0.405379
O24	O	1.485042	0.905499	0.094621
O25	O	1.115781	0.680349	-0.523777
O26	O	1.615781	1.180349	-0.023777
O27	O	0.985031	0.523958	-0.523821
O28	O	1.485031	1.023958	-0.023821
O29	O	1.214859	0.680386	-0.405302
O30	O	1.714859	1.180386	0.094698
O31	O	1.214708	0.405476	-0.680251
O32	O	1.714708	0.905476	-0.180251
O33	O	1.115695	0.523945	-0.680204
O34	O	1.615695	1.023945	-0.180204
C35	C	0.955780	0.464725	-0.464599
C36	C	1.455780	0.964725	0.035401
C37	C	0.866159	0.464737	-0.464616
C38	C	1.366159	0.964737	0.035384
C39	C	1.165328	0.716345	-0.464528
C40	C	1.665328	1.216345	0.035472
C41	C	1.165353	0.823559	-0.464491
C42	C	1.665353	1.323559	0.035509
C43	C	1.165212	0.464724	-0.715227
C44	C	1.665212	0.964724	-0.215227
C45	C	1.165261	0.464745	-0.822441
C46	C	1.665261	0.964745	-0.322441
C47	C	0.537983	0.464778	-0.464623
C48	C	1.037983	0.964778	0.035377
C49	C	0.629292	0.464763	-0.464618
C50	C	1.129292	0.964763	0.035382
C51	C	0.702068	0.464757	-0.464620
C52	C	1.202068	0.964757	0.035380
C53	C	0.793383	0.464743	-0.464615
C54	C	1.293383	0.964743	0.035385
C55	C	1.375580	0.464780	-0.464627
C56	C	1.875580	0.964780	0.035373
C57	C	1.465201	0.464792	-0.464634
C58	C	1.965201	0.964792	0.035366
C59	C	1.165260	0.214138	-0.464628
C60	C	1.665260	0.714138	0.035372
C61	C	1.165392	0.106925	-0.464393
C62	C	1.665392	0.606925	0.035607
C63	C	1.165374	1.019855	-0.464426
C64	C	1.665374	1.519855	0.035574
C65	C	1.165360	0.910622	-0.464465
C66	C	1.665360	1.410622	0.035535
C67	C	1.165345	0.464805	-1.018736
C68	C	1.665345	0.964805	-0.518736
C69	C	1.165296	0.464774	-0.909504
C70	C	1.665296	0.964774	-0.409504
C71	C	1.165352	0.464801	-0.213020
C72	C	1.665352	0.964801	0.286980
C73	C	1.165387	0.464822	-0.105806
C74	C	1.665387	0.964822	0.394194
