data_functionalizedCrystal
_audit_creation_method	'MofGen! by Chris Wilmer'
_symmetry_space_group_name_H-M	'P1'
_symmetry_Int_Tables_number	1
_symmetry_cell_setting	triclinic
loop_
_symmetry_equiv_pos_as_xyz
  x,y,z
_cell_length_a	11.792254
_cell_length_b	14.044209
_cell_length_c	10.268362
_cell_angle_alpha	89.991300
_cell_angle_beta	90.000669
_cell_angle_gamma	91.306725
loop_
_atom_site_label
_atom_site_type_symbol
_atom_site_fract_x
_atom_site_fract_y
_atom_site_fract_z
O1	O	1.519101	-0.130046	0.108308
O2	O	1.852434	0.203287	0.441642
O3	O	2.185767	0.536621	0.774975
O4	O	1.190018	-0.143430	0.108312
O5	O	1.523351	0.189903	0.441646
O6	O	1.856685	0.523237	0.774979
O7	O	1.349621	0.001272	0.108292
O8	O	1.682954	0.334606	0.441625
O9	O	2.016288	0.667939	0.774959
O10	O	1.359498	-0.274748	0.108329
O11	O	1.692831	0.058585	0.441662
O12	O	2.026164	0.391918	0.774995
O13	O	1.349618	0.001281	-0.108309
O14	O	1.682951	0.334614	0.225025
O15	O	2.016285	0.667947	0.558358
O16	O	1.190015	-0.143422	-0.108288
O17	O	1.523348	0.189912	0.225045
O18	O	1.856682	0.523245	0.558378
O19	O	1.519098	-0.130038	-0.108292
O20	O	1.852431	0.203296	0.225041
O21	O	2.185764	0.536629	0.558374
Cu22	Cu	1.354556	-0.136729	-0.128068
Cu23	Cu	1.687889	0.196604	0.205266
Cu24	Cu	2.021223	0.529938	0.538599
Cu25	Cu	1.354560	-0.136739	0.128088
Cu26	Cu	1.687893	0.196594	0.461421
Cu27	Cu	2.021226	0.529928	0.794754
O28	O	1.359495	-0.274740	-0.108272
O29	O	1.692828	0.058593	0.225062
O30	O	2.026161	0.391927	0.558395
C31	C	1.147647	-0.142583	0.000012
C32	C	1.480980	0.190751	0.333346
C33	C	1.814313	0.524084	0.666679
C34	C	1.021397	-0.140059	0.000013
C35	C	1.354730	0.193274	0.333346
C36	C	1.688063	0.526607	0.666680
C37	C	0.918868	-0.138009	0.000018
C38	C	1.252201	0.195324	0.333352
C39	C	1.585534	0.528658	0.666685
C40	C	0.790240	-0.135445	0.000019
C41	C	1.123574	0.197888	0.333352
C42	C	1.456907	0.531222	0.666685
C43	C	1.345296	0.036613	-0.000010
C44	C	1.678629	0.369947	0.333323
C45	C	2.011962	0.703280	0.666656
C46	C	1.332398	0.141906	-0.000016
C47	C	1.665731	0.475239	0.333317
C48	C	1.999064	0.808573	0.666650
C49	C	1.308818	0.334690	-0.000005
C50	C	1.642151	0.668023	0.333328
C51	C	1.975484	1.001356	0.666662
C52	C	1.400303	0.391849	-0.000004
C53	C	1.733636	0.725183	0.333329
C54	C	2.066969	1.058516	0.666662
C55	C	1.387182	0.499121	0.000002
C56	C	1.720516	0.832454	0.333335
C57	C	2.053849	1.165787	0.666668
C58	C	1.321936	0.227408	-0.000011
C59	C	1.655269	0.560741	0.333322
C60	C	1.988603	0.894075	0.666655
C61	C	1.561469	-0.130885	0.000011
C62	C	1.894802	0.202448	0.333344
C63	C	2.228136	0.535782	0.666677
C64	C	1.687719	-0.133409	0.000019
C65	C	2.021052	0.199925	0.333352
C66	C	2.354386	0.533258	0.666685
C67	C	1.363823	0.689919	0.000023
C68	C	1.697156	1.023253	0.333356
C69	C	2.030489	1.356586	0.666690
C70	C	1.376728	0.584627	0.000007
C71	C	1.710061	0.917961	0.333340
C72	C	2.043394	1.251294	0.666673
N73	N	1.354562	-0.136739	0.308254
N74	N	1.687895	0.196594	0.641587
N75	N	2.021229	0.529928	0.974920
N76	N	1.354562	-0.136721	-0.308234
N77	N	1.687895	0.196612	0.025100
N78	N	2.021229	0.529945	0.358433
C79	C	1.354559	-0.136733	0.573924
C80	C	1.687892	0.196600	0.907257
C81	C	2.021225	0.529933	1.240591
C82	C	1.354557	-0.136740	0.426086
C83	C	1.687891	0.196594	0.759420
C84	C	2.021224	0.529927	1.092753
H85	H	1.488479	0.360222	0.000083
H86	H	1.821813	0.693555	0.333417
H87	H	2.155146	1.026888	0.666750
H88	H	1.220648	0.366315	-0.000002
H89	H	1.553981	0.699649	0.333331
H90	H	1.887315	1.032982	0.666664
