data_functionalizedCrystal
_audit_creation_method	'MofGen! by Chris Wilmer'
_symmetry_space_group_name_H-M	'P1'
_symmetry_Int_Tables_number	1
_symmetry_cell_setting	triclinic
loop_
_symmetry_equiv_pos_as_xyz
  x,y,z
_cell_length_a	12.827893
_cell_length_b	15.299816
_cell_length_c	12.827879
_cell_angle_alpha	99.615268
_cell_angle_beta	89.958408
_cell_angle_gamma	80.350679
loop_
_atom_site_label
_atom_site_type_symbol
_atom_site_fract_x
_atom_site_fract_y
_atom_site_fract_z
Zn1	Zn	1.669772	-0.358682	-0.662811
Zn2	Zn	2.169772	0.141318	-0.162811
Zn3	Zn	1.699837	-0.509594	-0.518348
Zn4	Zn	2.199837	-0.009594	-0.018348
Zn5	Zn	1.494971	-0.358812	-0.488110
Zn6	Zn	1.994971	0.141188	0.011890
Zn7	Zn	1.525207	-0.509441	-0.693017
Zn8	Zn	2.025207	-0.009441	-0.193017
O9	O	1.597447	-0.434132	-0.590571
O10	O	2.097447	0.065868	-0.090571
O11	O	1.819998	-0.378710	-0.643660
O12	O	2.319998	0.121290	-0.143660
O13	O	1.672590	-0.489711	-0.368124
O14	O	2.172590	0.010289	0.131876
O15	O	1.492922	-0.232599	-0.485988
O16	O	1.992922	0.267401	0.014012
O17	O	1.842087	-0.489584	-0.537524
O18	O	2.342087	0.010416	-0.037524
O19	O	1.621348	-0.232503	-0.614340
O20	O	2.121348	0.267497	-0.114340
O21	O	1.522076	-0.378932	-0.345909
O22	O	2.022076	0.121068	0.154091
O23	O	1.352744	-0.378784	-0.515279
O24	O	1.852744	0.121216	-0.015279
O25	O	1.544455	-0.489324	-0.835223
O26	O	2.044455	0.010676	-0.335223
O27	O	1.374958	-0.489451	-0.665823
O28	O	1.874958	0.010549	-0.165823
O29	O	1.650666	-0.378562	-0.813030
O30	O	2.150666	0.121438	-0.313030
O31	O	1.701908	-0.635770	-0.566814
O32	O	2.201908	-0.135770	-0.066814
O33	O	1.573608	-0.635658	-0.695143
O34	O	2.073608	-0.135658	-0.195143
C35	C	1.325933	-0.434116	-0.590548
C36	C	1.825933	0.065884	-0.090548
C37	C	1.209783	-0.434130	-0.590567
C38	C	1.709783	0.065870	-0.090567
C39	C	1.147088	-0.379363	-0.643206
C40	C	1.647088	0.120637	-0.143206
C41	C	1.027040	-0.379377	-0.643227
C42	C	1.527040	0.120623	-0.143227
C43	C	1.644330	-0.668435	-0.637560
C44	C	2.144330	-0.168435	-0.137560
C45	C	1.664483	-0.768670	-0.657697
C46	C	2.164483	-0.268670	-0.157697
C47	C	1.454098	-1.051716	-0.447004
C48	C	1.954098	-0.551716	0.052996
C49	C	1.435159	-0.957540	-0.428087
C50	C	1.935159	-0.457540	0.071913
C51	C	1.492488	-0.910318	-0.485488
C52	C	1.992488	-0.410318	0.014512
C53	C	1.568760	-0.957281	-0.561809
C54	C	2.068760	-0.457281	-0.061809
C55	C	1.587696	-1.051467	-0.580734
C56	C	2.087696	-0.551467	-0.080734
C57	C	1.626086	-0.910069	-0.619218
C58	C	2.126086	-0.410069	-0.119218
C59	C	1.702358	-0.957032	-0.695539
C60	C	2.202358	-0.457032	-0.195539
C61	C	1.721291	-1.051208	-0.714460
C62	C	2.221291	-0.551208	-0.214460
C63	C	1.663961	-1.098430	-0.657060
C64	C	2.163961	-0.598430	-0.157060
C65	C	1.607150	-0.815883	-0.600293
C66	C	2.107150	-0.315883	-0.100293
C67	C	1.740748	-0.815634	-0.734023
C68	C	2.240748	-0.315634	-0.234023
C69	C	1.759688	-0.909810	-0.752940
C70	C	2.259688	-0.409810	-0.252940
C71	C	1.870020	-0.434150	-0.590595
C72	C	2.370020	0.065850	-0.090595
C73	C	1.986175	-0.434157	-0.590606
C74	C	2.486175	0.065843	-0.090606
C75	C	1.597580	-0.433912	-0.863098
C76	C	2.097580	0.066088	-0.363098
C77	C	1.597637	-0.433818	-0.979232
C78	C	2.097637	0.066182	-0.479232
C79	C	1.550409	-0.198915	-0.543422
C80	C	2.050409	0.301085	-0.043422
C81	C	1.530364	-0.098679	-0.523330
C82	C	2.030364	0.401321	-0.023330
C83	C	1.597361	-0.434287	-0.319092
C84	C	2.097361	0.065713	0.180908
C85	C	1.597456	-0.434127	-0.202907
C86	C	2.097456	0.065873	0.297093
C87	C	1.672445	-0.488301	-0.041894
C88	C	2.172445	0.011699	0.458106
C89	C	1.672349	-0.488467	-0.161978
C90	C	2.172349	0.011533	0.338022
H91	H	1.182285	-0.332462	-0.688251
H92	H	1.682285	0.167538	-0.188251
C93	C	1.058948	-0.497504	-0.529717
C94	C	1.558948	0.002496	-0.029717
N95	N	1.113769	-0.545216	-0.483854
N96	N	1.613769	-0.045216	0.016146
H97	H	1.407424	-1.090173	-0.400282
H98	H	1.907424	-0.590173	0.099718
C99	C	1.684791	-1.202031	-0.677865
C100	C	2.184791	-0.702031	-0.177865
N101	N	1.700477	-1.280064	-0.693534
N102	N	2.200477	-0.780064	-0.193534
H103	H	0.973166	-0.332492	-0.688296
H104	H	1.473166	0.167508	-0.188296
C105	C	1.523253	-0.764234	-0.516340
C106	C	2.023253	-0.264234	-0.016340
N107	N	1.460057	-0.725333	-0.453101
N108	N	1.960057	-0.225333	0.046899
C109	C	1.351240	-0.905887	-0.344158
C110	C	1.851240	-0.405887	0.155842
N111	N	1.288021	-0.866981	-0.280945
N112	N	1.788021	-0.366981	0.219055
C113	C	1.805194	-1.102866	-0.798415
C114	C	2.305194	-0.602866	-0.298415
N115	N	1.868394	-1.141773	-0.861647
N116	N	2.368394	-0.641773	-0.361647
H117	H	1.787429	-0.777186	-0.780765
H118	H	2.287429	-0.277186	-0.280765
C119	C	1.843581	-0.961482	-0.836897
C120	C	2.343581	-0.461482	-0.336897
N121	N	1.906768	-1.000403	-0.900134
N122	N	2.406768	-0.500403	-0.400134
H123	H	1.736566	-0.534819	-0.006640
H124	H	2.236566	-0.034819	0.493360
H125	H	1.736394	-0.535114	-0.215824
H126	H	2.236394	-0.035114	0.284176
C127	C	1.510928	-0.371104	-0.130172
C128	C	2.010928	0.128896	0.369828
N129	N	1.445757	-0.323632	-0.075379
N130	N	1.945757	0.176368	0.424621
H131	H	1.533523	-0.387292	-0.014485
H132	H	2.033523	0.112708	0.485515
H133	H	1.477064	-0.833635	-0.470079
H134	H	1.977064	-0.333635	0.029921
H135	H	1.174584	-0.481027	-0.545515
H136	H	1.674584	0.018973	-0.045515
