data_functionalizedCrystal
_audit_creation_method	'MofGen! by Chris Wilmer'
_symmetry_space_group_name_H-M	'P1'
_symmetry_Int_Tables_number	1
_symmetry_cell_setting	triclinic
loop_
_symmetry_equiv_pos_as_xyz
  x,y,z
_cell_length_a	19.288856
_cell_length_b	26.809956
_cell_length_c	19.288865
_cell_angle_alpha	90.000900
_cell_angle_beta	96.865496
_cell_angle_gamma	89.989211
loop_
_atom_site_label
_atom_site_type_symbol
_atom_site_fract_x
_atom_site_fract_y
_atom_site_fract_z
O1	O	-0.921358	0.041508	0.086610
O2	O	-0.421358	0.541508	0.586610
O3	O	-0.719096	0.041505	0.098305
O4	O	-0.219096	0.541505	0.598305
O5	O	-0.826071	0.041497	-0.008673
O6	O	-0.326071	0.541497	0.491327
O7	O	-0.814382	0.041516	0.193588
O8	O	-0.314382	0.541516	0.693588
O9	O	-0.826051	-0.041463	-0.008657
O10	O	-0.326051	0.458537	0.491343
O11	O	-0.719076	-0.041454	0.098321
O12	O	-0.219076	0.458546	0.598321
O13	O	-0.921337	-0.041451	0.086626
O14	O	-0.421337	0.458549	0.586626
Zn15	Zn	-0.820203	-0.054624	0.092476
Zn16	Zn	-0.320203	0.445376	0.592476
Zn17	Zn	-0.820230	0.054678	0.092455
Zn18	Zn	-0.320230	0.554678	0.592455
O19	O	-0.814362	-0.041443	0.193604
O20	O	-0.314362	0.458557	0.693604
C21	C	-0.693209	0.000025	0.097937
C22	C	-0.193209	0.500025	0.597937
C23	C	-0.616106	0.000023	0.096811
C24	C	-0.116106	0.500023	0.596811
N25	N	-0.820190	-0.129220	0.092490
N26	N	-0.320190	0.370780	0.592490
C27	C	-0.052064	0.000021	0.151959
C28	C	0.447936	0.500021	0.651959
C29	C	-0.124511	0.000025	0.153024
C30	C	0.375489	0.500025	0.653024
C31	C	-0.169218	0.000018	0.090254
C32	C	0.330782	0.500018	0.590254
C33	C	-0.141472	0.000021	0.026415
C34	C	0.358528	0.500021	0.526415
C35	C	-0.069027	0.000022	0.025352
C36	C	0.430973	0.500022	0.525352
C37	C	-0.290481	-0.029051	0.043446
C38	C	0.209519	0.470949	0.543446
C39	C	-0.362925	-0.029055	0.044511
C40	C	0.137075	0.470945	0.544511
C41	C	-0.392664	0.000017	0.093530
C42	C	0.107336	0.500017	0.593530
C43	C	-0.349949	0.029086	0.141494
C44	C	0.150051	0.529086	0.641494
C45	C	-0.277503	0.029088	0.140431
C46	C	0.222497	0.529088	0.640431
C47	C	-0.247773	0.000017	0.091399
C48	C	0.252227	0.500017	0.591399
C49	C	-0.498955	0.000022	0.158519
C50	C	0.001045	0.500022	0.658519
C51	C	-0.571404	0.000029	0.159581
C52	C	-0.071404	0.500029	0.659581
C53	C	-0.588364	0.000020	0.032971
C54	C	-0.088364	0.500020	0.532971
C55	C	-0.515917	0.000018	0.031910
C56	C	-0.015917	0.500018	0.531910
C57	C	-0.471217	0.000017	0.094687
C58	C	0.028783	0.500017	0.594687
C59	C	-0.867592	-0.473850	0.045096
C60	C	-0.367592	0.026150	0.545096
C61	C	-0.867609	-0.682728	0.045086
C62	C	-0.367609	-0.182728	0.545086
O63	O	-0.907884	-0.709735	0.004794
O64	O	-0.407884	-0.209735	0.504794
N65	N	-0.820234	-0.708847	0.092439
N66	N	-0.320234	-0.208847	0.592439
C67	C	-0.772848	-0.682745	0.139796
C68	C	-0.272848	-0.182745	0.639796
O69	O	-0.732548	-0.709754	0.180068
O70	O	-0.232548	-0.209754	0.680068
C71	C	-0.772829	-0.473868	0.139802
C72	C	-0.272829	0.026132	0.639802
C73	C	-0.820212	-0.447751	0.092451
C74	C	-0.320212	0.052249	0.592451
C75	C	-0.914971	-0.447733	-0.002252
C76	C	-0.414971	0.052267	0.497748
C77	C	-0.914969	-0.395517	-0.002247
C78	C	-0.414969	0.104483	0.497753
C79	C	-0.867588	-0.369417	0.045108
C80	C	-0.367588	0.130583	0.545108
C81	C	-0.820210	-0.395534	0.092456
C82	C	-0.320210	0.104466	0.592456
C83	C	-0.725440	-0.447766	0.187155
C84	C	-0.225440	0.052234	0.687155
C85	C	-0.725439	-0.395543	0.187151
C86	C	-0.225439	0.104457	0.687151
C87	C	-0.772822	-0.369426	0.139799
C88	C	-0.272822	0.130574	0.639799
C89	C	-0.772827	-0.317219	0.139816
C90	C	-0.272827	0.182781	0.639816
N91	N	-0.820202	-0.291099	0.092463
N92	N	-0.320202	0.208901	0.592463
C93	C	-0.867583	-0.317198	0.045108
C94	C	-0.367583	0.182802	0.545108
C95	C	-0.772862	-0.792408	0.139790
C96	C	-0.272862	-0.292408	0.639790
C97	C	-0.772868	-0.844627	0.139789
C98	C	-0.272868	-0.344627	0.639789
C99	C	-0.867628	-0.844606	0.045078
C100	C	-0.367628	-0.344606	0.545078
C101	C	-0.867625	-0.792386	0.045083
C102	C	-0.367625	-0.292386	0.545083
C103	C	-0.820238	-0.766288	0.092436
C104	C	-0.320238	-0.266288	0.592436
C105	C	-0.867575	-0.207540	0.045124
C106	C	-0.367575	0.292460	0.545124
C107	C	-0.867571	-0.155320	0.045136
C108	C	-0.367571	0.344680	0.545136
C109	C	-0.772809	-0.155345	0.139844
C110	C	-0.272809	0.344655	0.639844
C111	C	-0.772815	-0.207561	0.139835
C112	C	-0.272815	0.292439	0.639835
C113	C	-0.820201	-0.233658	0.092469
C114	C	-0.320201	0.266342	0.592469
O115	O	-0.732568	-0.290180	0.180081
O116	O	-0.232568	0.209820	0.680081
O117	O	-0.907866	-0.290180	0.004832
O118	O	-0.407866	0.209820	0.504832
C119	C	-0.867595	-0.526066	0.045091
C120	C	-0.367595	-0.026066	0.545091
C121	C	-0.820216	-0.552183	0.092439
C122	C	-0.320216	-0.052183	0.592439
C123	C	-0.772835	-0.526084	0.139793
C124	C	-0.272835	-0.026084	0.639793
C125	C	-0.820221	-0.604402	0.092439
C126	C	-0.320221	-0.104402	0.592439
C127	C	-0.867602	-0.630502	0.045084
C128	C	-0.367602	-0.130502	0.545084
C129	C	-0.914977	-0.604382	-0.002269
C130	C	-0.414977	-0.104382	0.497731
C131	C	-0.914975	-0.552166	-0.002263
C132	C	-0.414975	-0.052166	0.497737
C133	C	-0.725460	-0.552204	0.187147
C134	C	-0.225460	-0.052204	0.687147
C135	C	-0.725467	-0.604420	0.187138
C136	C	-0.225467	-0.104420	0.687138
C137	C	-0.772847	-0.630519	0.139784
C138	C	-0.272847	-0.130519	0.639784
C139	C	0.052776	0.000027	0.086995
C140	C	0.552776	0.500027	0.586995
C141	C	-0.024327	0.000021	0.088128
C142	C	0.475673	0.500021	0.588128
C143	C	-0.825685	0.000016	-0.034542
C144	C	-0.325685	0.500016	0.465458
C145	C	-0.824556	0.000011	-0.111645
C146	C	-0.324556	0.500011	0.388355
N147	N	-0.820249	0.129274	0.092435
N148	N	-0.320249	0.629274	0.592435
C149	C	-0.887324	0.000010	-0.156343
C150	C	-0.387324	0.500010	0.343657
C151	C	-0.886263	0.000018	-0.228790
C152	C	-0.386263	0.500018	0.271210
C153	C	-0.822431	0.000017	-0.256536
C154	C	-0.322431	0.500017	0.243464
C155	C	-0.759655	0.000021	-0.211828
C156	C	-0.259655	0.500021	0.288172
C157	C	-0.760717	0.000018	-0.139383
C158	C	-0.260717	0.500018	0.360617
C159	C	-0.772244	-0.029043	-0.364816
C160	C	-0.272244	0.470957	0.135184
C161	C	-0.771184	-0.029043	-0.437261
C162	C	-0.271184	0.470957	0.062739
C163	C	-0.819151	0.000028	-0.479982
C164	C	-0.319151	0.500028	0.020018
C165	C	-0.868190	0.029093	-0.450251
C166	C	-0.368190	0.529093	0.049749
C167	C	-0.869253	0.029090	-0.377805
C168	C	-0.369253	0.529090	0.122195
C169	C	-0.821272	0.000020	-0.335090
C170	C	-0.321272	0.500020	0.164910
C171	C	-0.880774	0.000036	-0.603236
C172	C	-0.380774	0.500036	-0.103236
C173	C	-0.879710	0.000047	-0.675684
C174	C	-0.379710	0.500047	-0.175684
C175	C	-0.753100	0.000045	-0.658720
C176	C	-0.253100	0.500045	-0.158720
C177	C	-0.754165	0.000039	-0.586273
C178	C	-0.254165	0.500039	-0.086273
C179	C	-0.818004	0.000032	-0.558536
C180	C	-0.318004	0.500032	-0.058536
C181	C	-0.814748	0.000039	0.219472
C182	C	-0.314748	0.500039	0.719472
C183	C	-0.815877	0.000047	0.296576
C184	C	-0.315877	0.500047	0.796576
H185	H	-0.015673	0.000022	0.203076
H186	H	0.484327	0.500022	0.703076
Cl187	Cl	-0.416615	-0.065603	-0.015781
Cl188	Cl	0.083385	0.434397	0.484219
Cl189	Cl	-0.974543	-0.637202	-0.061798
Cl190	Cl	-0.474543	-0.137202	0.438202
H191	H	-0.707682	0.000022	-0.234423
H192	H	-0.207682	0.500022	0.265577
H193	H	-0.177877	0.000017	-0.024693
H194	H	0.322123	0.500017	0.475307
H195	H	-0.374160	0.052758	0.181411
H196	H	0.125840	0.552758	0.681411
Cl197	Cl	-0.665869	-0.480588	0.246684
Cl198	Cl	-0.165869	0.019412	0.746684
H199	H	-0.734292	-0.865888	0.178354
H200	H	-0.234292	-0.365888	0.678354
H201	H	-0.953559	-0.530905	-0.040822
H202	H	-0.453559	-0.030905	0.459178
Cl203	Cl	-0.665891	-0.519400	0.246684
Cl204	Cl	-0.165891	-0.019400	0.746684
Cl205	Cl	-0.713286	-0.759604	0.199328
Cl206	Cl	-0.213286	-0.259604	0.699328
Cl207	Cl	-0.928495	0.065643	-0.503949
Cl208	Cl	-0.428495	0.565643	-0.003949
Cl209	Cl	-0.927193	-0.759559	-0.014449
Cl210	Cl	-0.427193	-0.259559	0.485551
H211	H	-0.703052	0.000038	-0.549879
H212	H	-0.203052	0.500038	-0.049879
H213	H	-0.731251	-0.052706	-0.461461
H214	H	-0.231251	0.447294	0.038539
Cl215	Cl	-0.672852	0.000047	-0.693593
Cl216	Cl	-0.172852	0.500047	-0.193593
H217	H	-0.906158	-0.134057	0.006576
H218	H	-0.406158	0.365943	0.506576
Cl219	Cl	-0.665896	-0.637247	0.246675
Cl220	Cl	-0.165896	-0.137247	0.746675
Cl221	Cl	-0.974534	-0.362689	-0.061781
Cl222	Cl	-0.474534	0.137311	0.438219
H223	H	-0.709602	0.000019	-0.102988
H224	H	-0.209602	0.500019	0.397012
H225	H	-0.624764	0.000018	-0.018138
H226	H	-0.124764	0.500018	0.481862
Cl227	Cl	-0.442758	0.000022	0.237436
Cl228	Cl	0.057242	0.500022	0.737436
H229	H	-0.686847	-0.374297	0.225712
H230	H	-0.186847	0.125703	0.725712
Cl231	Cl	-0.961026	0.000024	-0.568362
Cl232	Cl	-0.461026	0.500024	-0.068362
Cl233	Cl	-0.159389	0.000024	0.233274
Cl234	Cl	0.340611	0.500024	0.733274
Cl235	Cl	-0.965178	0.000016	-0.284993
Cl236	Cl	-0.465178	0.500016	0.215007
Cl237	Cl	-0.958627	0.000048	-0.731878
Cl238	Cl	-0.458627	0.500048	-0.231878
H239	H	-0.939307	0.000006	-0.133765
H240	H	-0.439307	0.500006	0.366235
Cl241	Cl	-0.711938	-0.065594	-0.311117
Cl242	Cl	-0.211938	0.434406	0.188883
H243	H	-0.734238	-0.228826	0.178400
H244	H	-0.234238	0.271174	0.678400
H245	H	-0.909180	0.052756	-0.353601
H246	H	-0.409180	0.552756	0.146399
H247	H	-0.242727	0.052758	0.179485
H248	H	0.257273	0.552758	0.679485
H249	H	-0.046445	0.000022	-0.026628
H250	H	0.453555	0.500022	0.473372
H251	H	-0.593985	0.000033	0.211562
H252	H	-0.093985	0.500033	0.711562
H253	H	-0.493334	0.000015	-0.020068
H254	H	0.006666	0.500015	0.479932
Cl255	Cl	-0.253108	-0.065572	-0.018218
Cl256	Cl	0.246892	0.434428	0.481782
Cl257	Cl	-0.927148	-0.240339	-0.014421
Cl258	Cl	-0.427148	0.259661	0.485579
H259	H	-0.734234	-0.134086	0.178402
H260	H	-0.234234	0.365914	0.678402
Cl261	Cl	-0.974543	-0.480535	-0.061791
Cl262	Cl	-0.474543	0.019465	0.438209
H263	H	-0.906208	-0.865865	0.006521
H264	H	-0.406208	-0.365865	0.506521
