data_functionalizedCrystal
_audit_creation_method	'MofGen! by Chris Wilmer'
_symmetry_space_group_name_H-M	'P1'
_symmetry_Int_Tables_number	1
_symmetry_cell_setting	triclinic
loop_
_symmetry_equiv_pos_as_xyz
  x,y,z
_cell_length_a	13.033293
_cell_length_b	16.625545
_cell_length_c	13.033109
_cell_angle_alpha	97.153577
_cell_angle_beta	74.800007
_cell_angle_gamma	97.195104
loop_
_atom_site_label
_atom_site_type_symbol
_atom_site_fract_x
_atom_site_fract_y
_atom_site_fract_z
Zn1	Zn	1.700241	-0.233630	-0.807168
Zn2	Zn	1.677549	-0.353294	-0.629535
Zn3	Zn	1.500045	-0.233645	-0.606971
Zn4	Zn	1.522542	-0.383600	-0.784507
O5	O	1.600094	-0.301042	-0.707045
O6	O	1.845884	-0.236815	-0.802532
O7	O	1.635090	-0.324746	-0.477902
O8	O	1.526683	-0.120807	-0.633568
O9	O	1.829212	-0.324732	-0.672025
O10	O	1.673766	-0.120796	-0.780652
O11	O	1.504679	-0.236840	-0.461324
O12	O	1.354376	-0.266226	-0.611594
O13	O	1.565027	-0.376382	-0.936153
O14	O	1.370905	-0.376397	-0.742030
O15	O	1.695581	-0.266201	-0.952802
O16	O	1.656905	-0.470151	-0.650052
O17	O	1.543023	-0.492416	-0.763909
C18	C	1.324096	-0.324602	-0.671905
C19	C	1.206026	-0.334703	-0.656897
C20	C	1.161649	-0.295791	-0.714878
C21	C	1.039617	-0.306229	-0.699368
C22	C	1.599975	-0.510540	-0.706997
C23	C	1.600025	-0.600159	-0.707024
C24	C	1.600069	-0.672940	-0.707051
C25	C	1.600134	-0.764245	-0.707082
C26	C	1.600191	-0.837018	-0.707103
C27	C	1.600254	-0.928329	-0.707132
C28	C	1.877170	-0.277391	-0.742323
C29	C	1.995243	-0.267312	-0.757357
C30	C	1.635344	-0.324670	-0.984096
C31	C	1.650366	-0.334739	-1.102158
C32	C	1.600246	-0.090726	-0.707120
C33	C	1.600311	-0.001101	-0.707153
C34	C	1.592538	-0.295734	-1.146592
C35	C	1.608062	-0.306140	-1.268615
C36	C	1.565042	-0.277443	-0.431080
C37	C	1.550227	-0.267129	-0.313045
H38	H	1.047587	-0.226263	-0.818478
H39	H	0.987271	-0.347272	-0.638239
N40	N	1.140348	-0.386180	-0.580212
N41	N	1.041310	-0.394582	-0.567717
H42	H	0.994924	-0.430938	-0.513555
H43	H	1.531533	-0.254640	-1.094295
H44	H	1.669067	-0.347241	-1.320908
N45	N	1.473705	-0.215565	-1.247441
N46	N	1.503295	-0.155750	-1.190296
H47	H	1.449254	-0.119332	-1.143963
N48	N	1.227325	-0.244299	-0.791545
N49	N	1.326361	-0.235889	-0.804032
H50	H	1.372745	-0.199521	-0.858179
N51	N	1.726881	-0.386301	-1.167767
N52	N	1.739380	-0.394684	-1.266798
H53	H	1.793420	-0.431102	-1.313135
