data_functionalizedCrystal
_audit_creation_method	'MofGen! by Chris Wilmer'
_symmetry_space_group_name_H-M	'P1'
_symmetry_Int_Tables_number	1
_symmetry_cell_setting	triclinic
loop_
_symmetry_equiv_pos_as_xyz
  x,y,z
_cell_length_a	10.489741
_cell_length_b	19.188930
_cell_length_c	8.965430
_cell_angle_alpha	89.995304
_cell_angle_beta	89.998843
_cell_angle_gamma	83.841978
loop_
_atom_site_label
_atom_site_type_symbol
_atom_site_fract_x
_atom_site_fract_y
_atom_site_fract_z
O1	O	1.691851	0.098497	-0.123966
O2	O	1.320449	0.107743	-0.123991
O3	O	1.516868	0.001536	-0.123949
O4	O	1.495432	0.204704	-0.124008
O5	O	1.516851	0.001543	0.124130
O6	O	1.320432	0.107750	0.124088
O7	O	1.691834	0.098504	0.124113
Cu8	Cu	1.506132	0.103128	0.146752
Cu9	Cu	1.506151	0.103120	-0.146630
O10	O	1.495415	0.204711	0.124070
C11	C	1.272924	0.107048	0.000046
C12	C	1.131341	0.104959	0.000037
C13	C	1.516165	-0.024476	0.000095
C14	C	1.514081	-0.101994	0.000108
C15	C	1.064712	0.037383	0.000071
C16	C	0.971880	0.069302	-0.122251
C17	C	0.971897	0.069325	0.122336
C18	C	1.040374	0.136906	-0.122386
C19	C	1.040401	0.136919	0.122310
C20	C	0.947595	0.168887	-0.000041
C21	C	1.629334	-0.146146	0.000123
C22	C	1.627376	-0.218983	0.000099
C23	C	1.510159	-0.247665	0.000090
C24	C	1.394892	-0.203503	0.000066
C25	C	1.396853	-0.130668	0.000075
N26	N	1.420556	-0.356268	0.084510
N27	N	1.418701	-0.425459	0.084504
C28	C	1.504244	-0.467113	0.000059
N29	N	1.591732	-0.436964	-0.084362
N30	N	1.593591	-0.367767	-0.084350
C31	C	1.508020	-0.326642	0.000079
C32	C	1.617382	-0.590244	0.000046
C33	C	1.615419	-0.663081	0.000012
C34	C	1.382932	-0.647600	-0.000005
C35	C	1.384898	-0.574764	0.000013
C36	C	1.502126	-0.546090	0.000046
C37	C	1.739359	0.099199	0.000073
C38	C	1.880941	0.101288	0.000071
C39	C	1.496118	0.230723	0.000023
C40	C	1.498202	0.308242	0.000001
N41	N	1.506127	0.103133	0.353101
N42	N	1.506166	0.103109	-0.352979
C43	C	1.415262	0.152234	0.450387
C44	C	1.530443	0.166361	0.549804
C45	C	1.390995	0.089012	0.549812
C46	C	1.621366	0.117292	0.450329
C47	C	1.481842	0.039916	0.450328
C48	C	1.597106	0.054016	0.549700
H49	H	1.115644	-0.018169	-0.000065
H50	H	1.709275	-0.699030	0.000016
N51	N	0.884041	0.238652	-0.000153
N52	N	0.901599	0.279335	-0.105282
H53	H	0.856714	0.328606	-0.105369
N54	N	1.743567	0.132331	0.395758
N55	N	1.808614	0.088842	0.315129
H56	H	1.894917	0.099464	0.276586
N57	N	1.078531	0.172760	0.252040
N58	N	1.056979	0.149737	0.378961
H59	H	1.083910	0.175045	0.470596
H60	H	1.551010	0.219812	0.593498
N61	N	1.693635	0.001912	0.604048
N62	N	1.808735	0.005339	0.571844
H63	H	1.876912	-0.031458	0.610228
N64	N	0.933831	0.033437	0.252058
N65	N	0.976360	-0.029103	0.273834
H66	H	0.949480	-0.054455	0.365444
H67	H	1.461239	-0.013519	0.406599
H68	H	1.724790	-0.122805	0.000144
N69	N	1.737119	-0.560946	0.000095
N70	N	1.814720	-0.574271	0.104675
H71	H	1.899285	-0.553580	0.104714
H72	H	1.721231	-0.254938	0.000105
H73	H	1.299453	-0.226861	0.000056
H74	H	1.302998	-0.094719	0.000064
H75	H	1.070570	0.165474	-0.225917
N76	N	1.263207	-0.676900	-0.000031
N77	N	1.261469	-0.741932	-0.000048
H78	H	1.176911	-0.762629	-0.000072
N79	N	1.267157	-0.529670	0.000004
N80	N	1.162505	-0.555284	-0.000010
H81	H	1.079344	-0.523437	-0.000022
H82	H	0.941512	0.040706	-0.225651
N83	N	1.318955	0.204375	0.395697
N84	N	1.323773	0.267448	0.427619
H85	H	1.255761	0.304274	0.388995
H86	H	1.293614	0.077080	0.593514
