data_functionalizedCrystal
_audit_creation_method	'MofGen! by Chris Wilmer'
_symmetry_space_group_name_H-M	'P1'
_symmetry_Int_Tables_number	1
_symmetry_cell_setting	triclinic
loop_
_symmetry_equiv_pos_as_xyz
  x,y,z
_cell_length_a	14.446369
_cell_length_b	23.196402
_cell_length_c	23.196401
_cell_angle_alpha	60.007472
_cell_angle_beta	90.011772
_cell_angle_gamma	60.002038
loop_
_atom_site_label
_atom_site_type_symbol
_atom_site_fract_x
_atom_site_fract_y
_atom_site_fract_z
Zr1	Zr	0.891720	0.631038	-0.075674
O2	O	0.743889	0.751301	-0.167719
O3	O	0.937035	0.510772	-0.047459
O4	O	0.936994	0.631041	-0.167727
O5	O	0.743966	0.631031	0.047421
O6	O	1.089323	0.631046	-0.167733
O7	O	0.743930	0.631033	-0.047451
O8	O	1.089396	0.415907	0.047406
O9	O	0.743893	0.846170	-0.167718
O10	O	1.070047	0.560244	-0.035428
O11	O	0.956393	0.560239	0.035378
O12	O	0.956344	0.701840	-0.106223
O13	O	0.842690	0.701835	-0.035418
Zr14	Zr	1.134725	0.631044	0.075627
Zr15	Zr	1.134667	0.631046	-0.075682
Zr16	Zr	0.891778	0.631036	0.075635
Zr17	Zr	0.891727	0.782343	-0.075672
Zr18	Zr	1.134718	0.479740	0.075624
O19	O	1.089410	0.751310	0.047411
O20	O	1.089328	0.751313	-0.167731
O21	O	0.743971	0.751298	0.047423
O22	O	1.282556	0.510781	0.167671
O23	O	1.282474	0.510784	-0.047470
O24	O	0.937117	0.510769	0.167683
O25	O	1.282479	0.631051	-0.047469
O26	O	1.089451	0.631041	0.167680
O27	O	0.937123	0.631036	0.167685
O28	O	1.282516	0.631050	0.047403
O29	O	0.937003	0.846177	-0.167724
O30	O	1.089442	0.415906	0.167676
O31	O	1.282552	0.415912	0.167670
O32	O	1.282506	0.415914	0.047399
O33	O	0.743939	0.846168	-0.047447
O34	O	0.937049	0.846175	-0.047454
O35	O	1.070101	0.560242	0.106175
O36	O	1.183755	0.560247	0.035370
O37	O	1.070053	0.701843	-0.035425
O38	O	0.956399	0.701838	0.035380
C39	C	1.013214	0.441782	-0.000027
C40	C	1.013212	0.377550	-0.000028
C41	C	0.929304	-0.033035	-0.052286
C42	C	0.929295	0.027323	-0.052286
C43	C	1.013232	0.005243	-0.000024
C44	C	1.097169	-0.077204	0.052251
C45	C	1.097170	-0.137559	0.052254
C46	C	1.115668	0.060825	0.016260
C47	C	1.115668	0.121181	0.016253
C48	C	1.013231	0.191395	-0.000027
C49	C	0.910787	0.201256	-0.016315
C50	C	0.910788	0.140901	-0.016313
C51	C	1.013241	0.070682	-0.000021
C52	C	0.929284	0.339278	-0.052296
C53	C	0.929274	0.399634	-0.052291
C54	C	1.097158	0.295105	0.052244
C55	C	1.097159	0.234751	0.052241
C56	C	1.013223	0.256843	-0.000032
C57	C	0.709333	0.631031	-0.000014
C58	C	0.606196	0.631027	-0.000010
C59	C	0.531227	0.541732	0.044409
C60	C	0.638555	0.541672	0.044663
C61	C	0.531651	0.675385	0.032562
C62	C	0.424792	0.674818	0.032883
C63	C	0.423176	0.676658	-0.077074
C64	C	0.531848	0.674976	-0.076947
C65	C	1.317112	0.631052	-0.000034
C66	C	1.420249	0.631055	-0.000037
C67	C	1.013150	0.631044	-0.189288
C68	C	1.013125	0.631045	-0.253523
C69	C	1.013231	0.820300	-0.000021
C70	C	1.013234	0.884533	-0.000020
C71	C	0.953779	0.704954	-0.320650
C72	C	0.953808	0.704956	-0.381006
C73	C	1.013167	0.631043	-0.374229
C74	C	1.072526	0.557124	-0.307090
C75	C	1.072505	0.557125	-0.246736
C76	C	1.004736	0.574414	-0.441547
C77	C	1.004749	0.574416	-0.501900
C78	C	1.013239	0.631037	-0.560377
C79	C	1.021694	0.687669	-0.558499
C80	C	1.021673	0.687670	-0.498146
C81	C	1.013198	0.631034	-0.439668
C82	C	0.953922	0.704953	-0.692951
C83	C	0.953959	0.704951	-0.753306
C84	C	1.072669	0.557117	-0.679388
C85	C	1.072640	0.557121	-0.619035
C86	C	1.013260	0.631041	-0.625821
C87	C	1.013295	0.631038	0.189240
C88	C	1.013320	0.631037	0.253475
C89	C	1.317104	0.441793	-0.000037
C90	C	1.420238	0.377563	-0.000041
C91	C	1.013287	0.441779	0.189238
C92	C	1.013309	0.377546	0.253471
C93	C	1.317176	0.441790	0.189227
C94	C	1.420336	0.377560	0.253458
C95	C	0.709269	0.820293	-0.189275
C96	C	0.606110	0.884523	-0.253505
C97	C	0.709341	0.820290	-0.000011
C98	C	0.606207	0.884519	-0.000006
C99	C	1.013158	0.820303	-0.189285
C100	C	1.013136	0.884537	-0.253519
C101	C	1.409317	0.347399	-0.037005
C102	C	1.506213	0.287057	-0.037024
C103	C	1.614030	0.256877	-0.000073
C104	C	1.624950	0.287047	0.036892
C105	C	1.528054	0.347392	0.036905
C106	C	1.072674	0.347382	0.320598
C107	C	1.072690	0.287036	0.380958
C108	C	1.013347	0.256851	0.374190
C109	C	0.953975	0.287020	0.307056
C110	C	0.953953	0.347369	0.246697
C111	C	1.528117	0.347399	0.246661
C112	C	1.625055	0.287056	0.307006
C113	C	1.614210	0.256871	0.374147
C114	C	1.506417	0.287038	0.380943
C115	C	1.409481	0.347383	0.320598
C116	C	0.498329	0.914691	-0.246709
C117	C	0.401390	0.975052	-0.307054
C118	C	0.412235	1.005240	-0.374195
C119	C	0.520028	0.975070	-0.380990
C120	C	0.616964	0.914714	-0.320646
C121	C	0.617129	0.914689	0.036951
C122	C	0.520232	0.975048	0.036953
C123	C	0.412415	1.005231	0.000001
C124	C	0.401496	0.975058	-0.036962
C125	C	0.498391	0.914704	-0.036967
C126	C	1.072491	0.914703	-0.246728
C127	C	1.072492	0.975050	-0.307077
C128	C	1.013132	1.005233	-0.374215
C129	C	0.953776	0.975060	-0.381005
C130	C	0.953782	0.914711	-0.320657
H131	H	0.827373	0.258428	-0.029574
N132	N	0.600022	0.634584	0.106941
H133	H	0.562743	0.613833	0.140803
H134	H	0.603844	0.675248	0.110127
N135	N	0.995639	0.513333	-0.503921
H136	H	0.996934	0.521925	-0.551028
H137	H	0.922275	0.520905	-0.497174
H138	H	1.165496	0.277126	0.094800
N139	N	1.013114	1.070330	-0.439306
H140	H	1.046875	1.049331	-0.468359
H141	H	1.059702	1.084838	-0.424759
H142	H	0.529145	0.999605	0.067055
N143	N	1.494725	0.254470	0.453360
H144	H	1.451924	0.300504	0.459030
H145	H	1.572530	0.211651	0.490507
N146	N	1.136687	0.379927	0.327914
H147	H	1.105561	0.404970	0.354573
H148	H	1.127659	0.422704	0.279473
H149	H	1.121042	0.262480	0.435615
H150	H	1.199082	0.113148	0.029511
H151	H	0.905433	0.765146	-0.326183
H152	H	1.497300	0.262500	-0.067125
H153	H	0.905660	0.262434	0.301556
H154	H	1.121002	0.496936	-0.673869
H155	H	1.321535	0.371972	-0.067104
N156	N	0.733206	0.882173	-0.327991
H157	H	0.776053	0.821593	-0.304609
H158	H	0.776004	0.892722	-0.304613
H159	H	1.013375	0.207711	0.423343
H160	H	0.533551	0.506673	0.022673
H161	H	1.712747	0.262465	0.066975
H162	H	0.905447	0.999644	-0.435677
H163	H	1.536963	0.371944	0.067010
N164	N	1.293233	0.379907	0.327934
H165	H	1.301083	0.351622	0.379625
H166	H	1.250436	0.369394	0.304511
N167	N	0.889852	0.379942	0.174297
H168	H	0.852246	0.351671	0.179175
H169	H	0.944270	0.369466	0.147605
H170	H	1.536969	0.371967	0.191997
H171	H	1.712815	0.262501	0.301461
N172	N	0.838756	0.363096	-0.108671
H173	H	0.785578	0.424479	-0.141779
H174	H	0.794754	0.340328	-0.085813
N175	N	0.417721	0.638792	-0.113116
H176	H	0.487895	0.618367	-0.126681
H177	H	0.348286	0.680980	-0.156913
N178	N	0.307911	1.070326	0.000010
H179	H	0.331200	1.084853	0.029033
H180	H	0.261317	1.049276	0.021030
N181	N	0.599949	0.632156	-0.109195
H182	H	0.678633	0.584487	-0.074119
H183	H	0.605278	0.671554	-0.153171
H184	H	1.120828	0.890138	-0.192066
H185	H	0.692809	0.506882	0.022805
H186	H	0.313698	0.999642	-0.067047
N187	N	1.226154	-0.014904	0.033811
H188	H	1.236507	-0.064576	0.076636
H189	H	1.290984	-0.011918	0.044086
H190	H	1.693150	0.207734	0.423278
H191	H	0.489476	0.890115	-0.192045
H192	H	0.313631	0.999607	-0.301508
N193	N	0.800349	0.151461	-0.033833
H194	H	0.801660	0.105326	0.007568
H195	H	0.790076	0.151046	-0.076661
H196	H	1.120961	0.496936	-0.564375
H197	H	0.860925	0.466758	-0.094853
N198	N	0.307678	1.070338	-0.439278
H199	H	0.237757	1.084862	-0.424778
H200	H	0.307712	1.049291	-0.468303
N201	N	0.498027	0.761327	-0.124508
H202	H	0.530562	0.773237	-0.096731
H203	H	0.412634	0.800443	-0.143602
N204	N	1.136517	1.007583	-0.299745
H205	H	1.174110	0.979307	-0.248054
H206	H	1.082033	1.068167	-0.323174
N207	N	0.889752	0.882185	-0.327993
H208	H	0.806735	0.928240	-0.354657
H209	H	0.898840	0.839362	-0.279558
N210	N	0.531717	1.007633	-0.453408
H211	H	0.453948	1.050443	-0.490599
H212	H	0.574551	0.961546	-0.459007
H213	H	1.165507	0.167628	0.094800
H214	H	0.704910	0.890119	0.067047
N215	N	1.187702	-0.101024	0.108621
H216	H	1.174970	-0.050281	0.100688
H217	H	1.264705	-0.134398	0.106311
H218	H	0.532279	0.506847	0.100894
H219	H	0.905636	0.765139	-0.807966
H220	H	0.489483	0.890141	-0.067061
H221	H	0.860954	-0.015040	-0.094850
H222	H	0.905479	0.765143	-0.435671
N223	N	0.838774	0.116246	-0.108660
H224	H	0.761724	0.128599	-0.106384
H225	H	0.842533	0.128531	-0.156612
N226	N	1.187699	-0.226475	0.108628
H227	H	1.240873	-0.231308	0.141738
H228	H	1.231705	-0.253789	0.085768
N229	N	1.718534	0.191792	-0.000093
H230	H	1.695245	0.177266	-0.029117
H231	H	1.765154	0.141750	0.049977
H232	H	0.692438	0.506547	0.101499
N233	N	0.425162	0.633057	0.107970
H234	H	0.424169	0.663638	0.127509
H235	H	0.495685	0.575283	0.137728
N236	N	1.030804	0.748738	-0.496109
H237	H	0.964853	0.805803	-0.535147
H238	H	1.104218	0.741112	-0.502793
N239	N	0.320686	0.761621	-0.007224
H240	H	0.344350	0.800084	-0.025032
H241	H	0.276243	0.768711	0.025116
N242	N	0.495563	0.762412	-0.008239
H243	H	0.449833	0.792790	-0.058895
H244	H	0.564991	0.762939	-0.006730
N245	N	0.319565	0.763820	-0.121145
H246	H	0.249066	0.764608	-0.123040
H247	H	0.322013	0.792765	-0.170554
N248	N	1.030846	0.748748	-0.621564
H249	H	1.029583	0.740154	-0.660083
H250	H	1.104207	0.741169	-0.607205
H251	H	0.997813	0.528307	-0.393937
H252	H	0.905572	0.765143	-0.698478
N253	N	1.136555	0.477405	-0.299780
H254	H	1.082141	0.474104	-0.323184
H255	H	1.174148	0.430628	-0.248080
N256	N	1.136518	0.477405	-0.174329
H257	H	1.174132	0.430580	-0.179190
H258	H	1.082022	0.474183	-0.147692
