data_functionalizedCrystal
_audit_creation_method	'MofGen! by Chris Wilmer'
_symmetry_space_group_name_H-M	'P1'
_symmetry_Int_Tables_number	1
_symmetry_cell_setting	triclinic
loop_
_symmetry_equiv_pos_as_xyz
  x,y,z
_cell_length_a	33.428889
_cell_length_b	33.428139
_cell_length_c	33.424847
_cell_angle_alpha	60.004234
_cell_angle_beta	60.008465
_cell_angle_gamma	59.994972
loop_
_atom_site_label
_atom_site_type_symbol
_atom_site_fract_x
_atom_site_fract_y
_atom_site_fract_z
O1	O	0.055565	-0.584504	0.488714
O2	O	0.020982	-0.455083	0.393778
O3	O	0.102943	-0.536959	0.393689
O4	O	-0.026396	-0.502628	0.488803
O5	O	0.130140	-0.509767	0.420792
O6	O	0.048179	-0.427891	0.420881
O7	O	0.082762	-0.557312	0.515817
Cu8	Cu	0.067954	-0.490119	0.470823
Cu9	Cu	0.035790	-0.522276	0.438771
O10	O	0.000801	-0.475436	0.515906
N11	N	0.090577	-0.467504	0.493370
N12	N	0.013171	-0.544895	0.416225
C13	C	0.143377	-0.280390	0.546067
C14	C	0.143515	-0.414755	0.680369
C15	C	0.143392	-0.414735	0.546069
C16	C	0.277766	-0.414702	0.545966
C17	C	0.158177	-0.324719	0.560828
C18	C	0.158255	-0.399967	0.636038
C19	C	0.233434	-0.399936	0.560773
C20	C	0.158186	-0.399955	0.560829
C21	C	0.124540	-0.223964	0.527278
C22	C	0.124565	-0.433545	0.527281
C23	C	0.177014	-0.381145	0.579617
C24	C	0.359814	-0.400540	0.502735
C25	C	0.411105	-0.417624	0.485606
C26	C	0.411136	-0.500620	0.517255
C27	C	0.359845	-0.483534	0.534385
C28	C	0.136887	-0.198305	0.476855
C29	C	0.119761	-0.147011	0.459777
C30	C	0.077945	-0.147038	0.543547
C31	C	0.095072	-0.198332	0.560625
C32	C	0.074134	-0.421169	0.539710
C33	C	0.057023	-0.438269	0.522625
C34	C	0.140770	-0.480120	0.480694
C35	C	0.157883	-0.463020	0.497773
C36	C	0.074339	-0.421208	0.762475
C37	C	0.057288	-0.438323	0.813768
C38	C	0.141075	-0.480183	0.813699
C39	C	0.158125	-0.463069	0.762404
C40	C	0.124756	-0.433580	0.736794
C41	C	0.334186	-0.433494	0.527123
C42	C	-0.173769	-0.597444	0.363037
C43	C	-0.039302	-0.597595	0.228856
C44	C	-0.039496	-0.597587	0.363300
C45	C	-0.039512	-0.731889	0.363237
C46	C	-0.129442	-0.612265	0.348329
C47	C	-0.054138	-0.612351	0.273187
C48	C	-0.054257	-0.687554	0.348440
C49	C	-0.054247	-0.612346	0.348477
C50	C	-0.230191	-0.578579	0.381758
C51	C	-0.020722	-0.578803	0.382168
C52	C	-0.073020	-0.631130	0.329609
C53	C	-0.053713	-0.813916	0.406386
C54	C	-0.036654	-0.865210	0.423504
C55	C	0.046338	-0.865293	0.391984
C56	C	0.029278	-0.813999	0.374865
C57	C	-0.255900	-0.590938	0.432169
C58	C	-0.307191	-0.573786	0.449185
C59	C	-0.307060	-0.531922	0.365377
C60	C	-0.255769	-0.549074	0.348360
C61	C	-0.033081	-0.528377	0.369764
C62	C	-0.016014	-0.511306	0.386922
C63	C	0.025770	-0.595083	0.428877
C64	C	0.008703	-0.612156	0.411725
C65	C	-0.032755	-0.528393	0.146761
C66	C	-0.015585	-0.511324	0.095468
C67	C	0.026262	-0.595106	0.095516
C68	C	0.009094	-0.612174	0.146811
C69	C	-0.020417	-0.578816	0.172432
C70	C	-0.020748	-0.788312	0.382068
N71	N	0.436037	-0.467415	0.493101
O72	O	0.592642	-0.471896	0.376066
O73	O	0.592838	-0.567146	0.505347
O74	O	0.592754	-0.566928	0.423360
O75	O	0.592727	-0.472113	0.458053
O76	O	0.511269	-0.539835	0.450606
O77	O	0.511353	-0.540052	0.532594
O78	O	0.511157	-0.444802	0.403312
Cu79	Cu	0.503815	-0.489954	0.470441
Cu80	Cu	0.600180	-0.521995	0.438219
O81	O	0.511242	-0.445020	0.485300
N82	N	0.667959	-0.544533	0.415554
N83	N	0.090544	-0.122107	0.493359
O84	O	-0.026406	0.034587	0.488773
O85	O	0.102877	0.034627	0.393499
O86	O	0.020848	0.034591	0.393771
O87	O	0.055623	0.034623	0.488500
O88	O	0.048051	-0.046899	0.420925
O89	O	0.130080	-0.046864	0.420653
O90	O	0.000796	-0.046903	0.515927
Cu91	Cu	0.067922	-0.054324	0.470769
Cu92	Cu	0.035752	0.042048	0.438656
O93	O	0.082825	-0.046867	0.515655
N94	N	0.013123	0.109830	0.416068
N95	N	0.090892	-0.467554	0.838649
O96	O	0.086330	-0.584488	0.995334
O97	O	-0.008902	-0.455160	0.995379
O98	O	-0.008679	-0.537172	0.995355
O99	O	0.086107	-0.502475	0.995358
O100	O	0.018452	-0.509990	0.913868
O101	O	0.018230	-0.427978	0.913891
O102	O	0.113461	-0.557306	0.913847
Cu103	Cu	0.068323	-0.490160	0.906429
Cu104	Cu	0.036237	-0.522306	1.002797
O105	O	0.113239	-0.475293	0.913870
N106	N	0.013667	-0.544916	1.070577
C107	C	0.031339	-0.425179	0.394250
C108	C	0.132837	-0.526572	0.394139
C109	C	0.072405	-0.587216	0.515344
C110	C	-0.029093	-0.485823	0.515455
C111	C	0.552119	-0.566716	0.535258
C112	C	0.552016	-0.566447	0.433726
C113	C	0.551873	-0.445232	0.373402
C114	C	0.551980	-0.445502	0.474933
C115	C	0.132731	-0.006013	0.393923
C116	C	0.031182	-0.006158	0.394293
C117	C	-0.029092	-0.006163	0.515469
C118	C	0.072491	-0.006119	0.515133
C119	C	-0.008451	-0.425276	0.954641
C120	C	-0.008170	-0.526833	0.954596
C121	C	0.113010	-0.587190	0.954585
C122	C	0.112735	-0.485627	0.954611
H123	H	0.016234	-0.428240	0.834672
H124	H	-0.037935	-0.534246	0.954563
H125	H	0.551811	-0.415327	0.336274
H126	H	0.169783	-0.005775	0.363939
O127	O	0.552056	-0.409980	0.483733
C128	C	0.594209	-0.356462	0.460116
C129	C	0.594188	-0.396695	0.450104
H130	H	0.628263	-0.345702	0.432927
H131	H	0.594292	-0.370819	0.499022
H132	H	0.560062	-0.323054	0.455791
H133	H	0.628328	-0.430117	0.454402
H134	H	0.594079	-0.382299	0.411202
O135	O	0.552051	-0.602044	0.424948
C136	C	0.552104	-0.684614	0.456999
C137	C	0.552077	-0.644348	0.467001
H138	H	0.552116	-0.718823	0.490995
H139	H	0.586191	-0.693777	0.424921
H140	H	0.517988	-0.671035	0.447682
H141	H	0.586171	-0.657893	0.476339
H142	H	0.517968	-0.635192	0.499065
O143	O	-0.044061	-0.380925	0.954591
C144	C	-0.067754	-0.293759	0.912382
C145	C	-0.027380	-0.343954	0.912384
H146	H	-0.054286	-0.263856	0.878257
H147	H	-0.076993	-0.286549	0.946466
H148	H	-0.101890	-0.293720	0.912409
H149	H	0.006781	-0.344029	0.912340
H150	H	-0.018184	-0.351144	0.878303
H151	H	0.142910	-0.624330	0.954565
O152	O	-0.061604	-0.496000	0.340991
C153	C	-0.070654	-0.466711	0.262864
C154	C	-0.038295	-0.503395	0.295392
H155	H	-0.051827	-0.472684	0.225995
H156	H	-0.076554	-0.427725	0.256909
H157	H	-0.107560	-0.472587	0.281628
H158	H	-0.001372	-0.497564	0.276656
H159	H	-0.032436	-0.542368	0.301349
H160	H	0.079796	-0.624394	0.545162
H161	H	0.431972	-0.390789	0.465748
O162	O	-0.073428	-0.477011	0.551042
C163	C	-0.154123	-0.418978	0.573707
C164	C	-0.103933	-0.428889	0.533365
H165	H	-0.178804	-0.380076	0.559427
H166	H	-0.149009	-0.423362	0.607113
H167	H	-0.171726	-0.446179	0.584439
H168	H	-0.086304	-0.401698	0.522592
H169	H	-0.109080	-0.424522	0.499986
H170	H	0.142514	-0.478200	0.954606
H171	H	0.552170	-0.596617	0.572390
O172	O	0.022316	-0.006265	0.358830
C173	C	0.000722	-0.048513	0.335506
C174	C	0.010756	-0.048452	0.375706
H175	H	-0.008637	-0.082613	0.349139
H176	H	0.034692	-0.048541	0.301275
H177	H	-0.031352	-0.014407	0.326354
H178	H	0.042814	-0.082552	0.384900
H179	H	-0.023239	-0.048399	0.409912
O180	O	0.041856	-0.392582	0.737675
C181	C	-0.043050	-0.352842	0.743161
C182	C	-0.006318	-0.385270	0.771308
H183	H	-0.082007	-0.346911	0.770342
H184	H	-0.037199	-0.371623	0.719163
H185	H	-0.037134	-0.315952	0.719136
H186	H	-0.012212	-0.422165	0.795360
H187	H	-0.012178	-0.366451	0.795276
H188	H	-0.066220	-0.006175	0.545378
H189	H	0.079939	-0.006110	0.544893
H190	H	0.168250	-0.504186	0.834549
O191	O	0.173204	-0.508734	0.452020
C192	C	0.258078	-0.548468	0.412259
C193	C	0.221403	-0.516052	0.444727
H194	H	0.297055	-0.554403	0.406361
H195	H	0.252170	-0.529674	0.375357
H196	H	0.252157	-0.585356	0.431053
H197	H	0.227302	-0.479158	0.425976
H198	H	0.227321	-0.534884	0.481626
H199	H	0.199181	-0.473148	0.741498
H200	H	0.047002	-0.397168	0.563734
H201	H	0.198948	-0.473094	0.487648
O202	O	0.008031	-0.426312	0.534781
C203	C	-0.068750	-0.430245	0.599857
C204	C	-0.013272	-0.443825	0.586158
H205	H	-0.085992	-0.444389	0.641396
H206	H	-0.075282	-0.447544	0.582613
H207	H	-0.086053	-0.388712	0.585699
H208	H	0.004067	-0.485352	0.600313
H209	H	-0.006775	-0.426491	0.603396
O210	O	0.334978	-0.515559	0.557995
C211	C	0.319319	-0.575889	0.553444
C212	C	0.347500	-0.539628	0.526648
H213	H	0.329440	-0.595366	0.528115
H214	H	0.278245	-0.555112	0.564429
H215	H	0.329436	-0.604060	0.587646
H216	H	0.337424	-0.511448	0.492428
H217	H	0.388567	-0.560439	0.515700
O218	O	0.334941	-0.351910	0.495596
C219	C	0.319169	-0.270345	0.436943
C220	C	0.347374	-0.325402	0.444960
H221	H	0.329204	-0.248898	0.396005
H222	H	0.329281	-0.257575	0.455497
H223	H	0.278110	-0.263807	0.453396
H224	H	0.388440	-0.331982	0.428505
H225	H	0.337222	-0.338145	0.426417
O226	O	0.165488	-0.223126	0.444394
C227	C	0.205174	-0.217685	0.359501
C228	C	0.172769	-0.189512	0.396208
H229	H	0.211079	-0.190520	0.320534
H230	H	0.186390	-0.241696	0.365391
H231	H	0.242074	-0.241703	0.365409
H232	H	0.135864	-0.165468	0.390322
H233	H	0.191591	-0.165533	0.390308
H234	H	0.432025	-0.541365	0.523165
O235	O	0.177186	-0.535370	0.358566
C236	C	0.257861	-0.593423	0.335881
C237	C	0.207662	-0.583521	0.376214
H238	H	0.282511	-0.632356	0.350130
H239	H	0.275521	-0.566275	0.325161
H240	H	0.252700	-0.588975	0.302474
H241	H	0.212780	-0.587975	0.409647
H242	H	0.190019	-0.610667	0.386892
O243	O	0.022473	-0.380849	0.358661
C244	C	-0.027222	-0.321837	0.307103
C245	C	-0.017228	-0.372054	0.347400
H246	H	-0.059328	-0.314705	0.297993
H247	H	0.006751	-0.321651	0.272875
H248	H	-0.036508	-0.291960	0.320635
H249	H	-0.007955	-0.401959	0.333914
H250	H	-0.051209	-0.372198	0.381620
O251	O	0.049311	-0.122213	0.576006
C252	C	0.009679	-0.127654	0.660899
C253	C	0.042103	-0.155827	0.624193
H254	H	0.003850	-0.154819	0.699866
H255	H	-0.027254	-0.103664	0.655060
H256	H	0.028470	-0.103617	0.654941
H257	H	0.023355	-0.179892	0.630129
H258	H	0.079035	-0.179787	0.630041
H259	H	0.085016	-0.219221	0.601683
O260	O	-0.027644	-0.462325	0.070611
C261	C	-0.070951	-0.381028	0.075983
C262	C	-0.057343	-0.436507	0.104194
H263	H	-0.094956	-0.360138	0.103123
H264	H	-0.091816	-0.370889	0.051927
H265	H	-0.036121	-0.370987	0.052010
H266	H	-0.092148	-0.446588	0.128194
H267	H	-0.036459	-0.446616	0.128219
H268	H	-0.056788	-0.501226	0.167618
O269	O	0.054863	-0.627556	0.070681
C270	C	0.061411	-0.693879	0.054934
C271	C	0.028971	-0.657166	0.083100
H272	H	0.040486	-0.717822	0.064956
H273	H	0.096179	-0.717961	0.065094
H274	H	0.071575	-0.673007	0.013867
H275	H	0.018769	-0.677998	0.124173
H276	H	-0.005774	-0.633085	0.072899
O277	O	0.020992	-0.661147	0.171800
C278	C	-0.008562	-0.729006	0.229646
C279	C	-0.022105	-0.673539	0.201386
H280	H	-0.043397	-0.739044	0.253565
H281	H	0.012252	-0.739143	0.253750
H282	H	0.015493	-0.749903	0.202513
H283	H	-0.046175	-0.652604	0.228485
H284	H	-0.042893	-0.663440	0.177275
H285	H	-0.026079	-0.470245	0.376824
O286	O	0.054409	-0.627533	0.457528
C287	C	0.129866	-0.693930	0.464192
C288	C	0.097477	-0.657219	0.431698
H289	H	0.164698	-0.717934	0.443317
H290	H	0.108974	-0.717950	0.498970
H291	H	0.139915	-0.673055	0.474336
H292	H	0.087418	-0.678054	0.421517
H293	H	0.118386	-0.633199	0.396943
O294	O	0.020687	-0.661151	0.423855
C295	C	0.016648	-0.737941	0.488888
C296	C	0.003054	-0.682464	0.475222
H297	H	0.002389	-0.755187	0.530417
H298	H	0.058180	-0.755301	0.474831
H299	H	-0.000590	-0.744399	0.471523
H300	H	0.020260	-0.675962	0.492582
H301	H	-0.038481	-0.665132	0.489269
H302	H	0.056124	-0.793157	0.355062
O303	O	0.094948	-0.890224	0.384902
C304	C	0.176554	-0.905976	0.326332
C305	C	0.121516	-0.877718	0.334282
H306	H	0.198050	-0.895868	0.285408
H307	H	0.183117	-0.947041	0.342709
H308	H	0.189242	-0.895912	0.345001
H309	H	0.108791	-0.887740	0.315613
H310	H	0.114984	-0.836660	0.317918
O311	O	-0.068713	-0.890032	0.447063
C312	C	-0.128953	-0.905695	0.442369
C313	C	-0.092675	-0.877544	0.415631
H314	H	-0.148329	-0.895616	0.416964
H315	H	-0.157203	-0.895575	0.476548
H316	H	-0.108156	-0.946765	0.453382
H317	H	-0.113430	-0.836467	0.404585
H318	H	-0.064426	-0.887705	0.381474
O319	O	-0.102297	-0.788886	0.413358
C320	C	-0.165360	-0.709829	0.400933
C321	C	-0.110330	-0.738111	0.393012
H322	H	-0.171871	-0.668773	0.384478
H323	H	-0.186889	-0.719854	0.441850
H324	H	-0.178056	-0.719929	0.382302
H325	H	-0.097589	-0.728027	0.411614
H326	H	-0.088833	-0.728084	0.352087
O327	O	-0.231130	-0.619575	0.464677
C328	C	-0.236673	-0.659306	0.549601
C329	C	-0.264788	-0.626861	0.512840
H330	H	-0.263873	-0.665216	0.588549
H331	H	-0.212670	-0.640551	0.543776
H332	H	-0.212656	-0.696204	0.543689
H333	H	-0.288831	-0.589958	0.518730
H334	H	-0.288760	-0.645655	0.518675
O335	O	-0.331834	-0.503252	0.332869
C336	C	-0.326290	-0.463575	0.247945
C337	C	-0.298176	-0.496039	0.284707
H338	H	-0.299090	-0.457741	0.208998
H339	H	-0.350280	-0.426643	0.253788
H340	H	-0.350321	-0.482338	0.253839
H341	H	-0.274119	-0.477319	0.278835
H342	H	-0.274217	-0.532969	0.278854
O343	O	-0.230744	-0.537156	0.299402
C344	C	-0.172791	-0.566674	0.231525
C345	C	-0.201094	-0.580243	0.286980
H346	H	-0.148820	-0.601501	0.221463
H347	H	-0.148736	-0.545848	0.221458
H348	H	-0.199895	-0.542620	0.210592
H349	H	-0.174025	-0.604312	0.307950
H350	H	-0.225156	-0.601044	0.297009
O351	O	-0.332188	-0.585709	0.498152
C352	C	-0.390184	-0.556189	0.566021
C353	C	-0.361902	-0.542618	0.510561
H354	H	-0.414222	-0.521358	0.576070
H355	H	-0.363110	-0.580201	0.586989
H356	H	-0.414184	-0.577059	0.576057
H357	H	-0.337901	-0.521731	0.500480
H358	H	-0.389002	-0.518628	0.489624
H359	H	0.129813	-0.126117	0.418717
