data_functionalizedCrystal
_audit_creation_method	'MofGen! by Chris Wilmer'
_symmetry_space_group_name_H-M	'P1'
_symmetry_Int_Tables_number	1
_symmetry_cell_setting	triclinic
loop_
_symmetry_equiv_pos_as_xyz
  x,y,z
_cell_length_a	12.594516
_cell_length_b	29.839134
_cell_length_c	12.594509
_cell_angle_alpha	89.979044
_cell_angle_beta	89.973801
_cell_angle_gamma	89.996624
loop_
_atom_site_label
_atom_site_type_symbol
_atom_site_fract_x
_atom_site_fract_y
_atom_site_fract_z
Zn1	Zn	-0.424262	0.686838	-0.601864
Zn2	Zn	-0.602272	0.686792	-0.423892
Zn3	Zn	-0.424248	0.611709	-0.423894
Zn4	Zn	-0.602138	0.611701	-0.601823
O5	O	-0.513230	0.649260	-0.512868
O6	O	-0.447937	0.749699	-0.578272
O7	O	-0.578707	0.676816	-0.274946
O8	O	-0.275304	0.621697	-0.447521
O9	O	-0.578720	0.749665	-0.447517
O10	O	-0.275314	0.676894	-0.578274
O11	O	-0.447913	0.621653	-0.274948
O12	O	-0.447783	0.548841	-0.447481
O13	O	-0.578493	0.621685	-0.750775
O14	O	-0.578479	0.548835	-0.578204
O15	O	-0.447808	0.676887	-0.750805
O16	O	-0.751200	0.676808	-0.447477
O17	O	-0.751102	0.621640	-0.578202
C18	C	-0.789771	0.649230	-0.512858
C19	C	-0.908076	0.649259	-0.512889
C20	C	-0.513116	0.532537	-0.512839
C21	C	-0.513093	0.482603	-0.512852
C22	C	-0.977315	0.619250	-0.583941
C23	C	-1.048171	0.608304	-0.486818
C24	C	-1.048019	0.660246	-0.610029
C25	C	-0.977375	0.638291	-0.415715
C26	C	-0.977216	0.690252	-0.538991
C27	C	-1.048041	0.679322	-0.441801
C28	C	-0.445273	0.126029	-0.581087
C29	C	-0.445187	0.313702	-0.581062
O30	O	-0.387389	0.337978	-0.639073
N31	N	-0.513162	0.337158	-0.512877
C32	C	-0.581169	0.313692	-0.444697
O33	O	-0.638991	0.337949	-0.386708
C34	C	-0.581259	0.126020	-0.444728
C35	C	-0.513272	0.102567	-0.512910
C36	C	-0.377292	0.102576	-0.649265
C37	C	-0.377310	0.055661	-0.649266
C38	C	-0.445309	0.032198	-0.581090
C39	C	-0.513290	0.055651	-0.512912
C40	C	-0.649270	0.102555	-0.376555
C41	C	-0.649288	0.055634	-0.376570
C42	C	-0.581301	0.032181	-0.444753
C43	C	-0.581306	-0.014726	-0.444737
N44	N	-0.513331	-0.038182	-0.512922
C45	C	-0.445333	-0.014719	-0.581099
C46	C	-0.581115	0.412223	-0.444684
C47	C	-0.581091	0.459141	-0.444675
C48	C	-0.445111	0.459148	-0.581042
C49	C	-0.445130	0.412229	-0.581045
C50	C	-0.513140	0.388767	-0.512870
C51	C	-0.445375	-0.113245	-0.581096
C52	C	-0.445396	-0.160165	-0.581088
C53	C	-0.581379	-0.160168	-0.444726
C54	C	-0.581355	-0.113252	-0.444729
C55	C	-0.513349	-0.089792	-0.512923
O56	O	-0.639083	-0.039031	-0.386764
O57	O	-0.387535	-0.038984	-0.639096
C58	C	-0.445255	0.172945	-0.581085
C59	C	-0.513236	0.196398	-0.512908
C60	C	-0.581234	0.172935	-0.444731
C61	C	-0.513212	0.243316	-0.512898
C62	C	-0.445213	0.266778	-0.581075
C63	C	-0.377238	0.243323	-0.649261
C64	C	-0.377256	0.196407	-0.649262
C65	C	-0.649209	0.196391	-0.376546
C66	C	-0.649185	0.243306	-0.376549
C67	C	-0.581186	0.266769	-0.444725
C68	C	-0.235609	0.649302	-0.512902
C69	C	-0.117304	0.649320	-0.512917
C70	C	-0.513345	0.766438	-0.512899
C71	C	-0.513394	0.816373	-0.512912
C72	C	-0.513137	0.649290	-0.790490
C73	C	-0.513097	0.649303	-0.908795
C74	C	-0.584136	0.619288	-0.978032
C75	C	-0.610175	0.660280	-1.048823
C76	C	-0.486994	0.608342	-1.048803
C77	C	-0.539187	0.690317	-0.978028
C78	C	-0.415960	0.638351	-0.978002
C79	C	-0.441962	0.679372	-1.048761
C80	C	-0.513246	0.649256	-0.236328
C81	C	-0.512986	0.649330	-0.118023
H82	H	-0.946260	0.593827	-0.643939
Br83	Br	-0.352859	0.380405	-0.673581
H84	H	-0.636738	-0.179279	-0.389214
Br85	Br	-0.284983	0.164585	-0.741801
Br86	Br	-1.099474	0.721665	-0.341565
Br87	Br	-0.279160	0.622868	-0.926111
Br88	Br	-0.925876	0.622779	-0.278770
Br89	Br	-0.352825	0.490998	-0.673565
Br90	Br	-0.576075	0.748088	-0.926436
Br91	Br	-0.673407	0.380389	-0.352136
H92	H	-0.704632	0.121642	-0.321033
H93	H	-1.079363	0.573665	-0.464763
H94	H	-0.946027	0.724884	-0.561093
H95	H	-0.704674	0.036534	-0.321056
H96	H	-0.704547	0.262398	-0.321016
H97	H	-1.079050	0.669514	-0.692168
H98	H	-0.464962	0.573691	-1.079893
Br99	Br	-0.353118	-0.191991	-0.673624
Br100	Br	-0.285046	0.023839	-0.741813
Br101	Br	-0.353080	-0.081414	-0.673645
Br102	Br	-0.673340	0.490964	-0.352115
H103	H	-0.321919	0.121674	-0.704788
Br104	Br	-0.284950	0.275174	-0.741780
Br105	Br	-0.673630	-0.081422	-0.352202
Br106	Br	-0.741491	0.164556	-0.283998
H107	H	-0.644305	0.593925	-0.946977
H108	H	-0.692274	0.669558	-1.079930
H109	H	-0.381839	0.704796	-1.079621
