data_functionalizedCrystal
_audit_creation_method	'MofGen! by Chris Wilmer'
_symmetry_space_group_name_H-M	'P1'
_symmetry_Int_Tables_number	1
_symmetry_cell_setting	triclinic
loop_
_symmetry_equiv_pos_as_xyz
  x,y,z
_cell_length_a	17.077404
_cell_length_b	12.827892
_cell_length_c	17.077396
_cell_angle_alpha	89.974933
_cell_angle_beta	89.980499
_cell_angle_gamma	90.015617
loop_
_atom_site_label
_atom_site_type_symbol
_atom_site_fract_x
_atom_site_fract_y
_atom_site_fract_z
Zn1	Zn	1.200096	-0.416027	-0.443861
Zn2	Zn	1.700096	0.083973	0.056139
Zn3	Zn	1.200020	-0.590789	-0.312603
Zn4	Zn	1.700020	-0.090789	0.187397
Zn5	Zn	1.068827	-0.416063	-0.312609
Zn6	Zn	1.568827	0.083937	0.187391
Zn7	Zn	1.068812	-0.590727	-0.443827
Zn8	Zn	1.568812	-0.090727	0.056173
O9	O	1.134439	-0.503402	-0.378225
O10	O	1.634439	-0.003402	0.121775
O11	O	1.309932	-0.439220	-0.426462
O12	O	1.809932	0.060780	0.073538
O13	O	1.182591	-0.567653	-0.202757
O14	O	1.682591	-0.067653	0.297243
O15	O	1.086278	-0.269823	-0.330037
O16	O	1.586278	0.230177	0.169963
O17	O	1.309877	-0.567617	-0.330027
O18	O	1.809877	-0.067617	0.169973
O19	O	1.182720	-0.269796	-0.426468
O20	O	1.682720	0.230204	0.073532
O21	O	1.086205	-0.439282	-0.202762
O22	O	1.586205	0.060718	0.297238
O23	O	0.958978	-0.439222	-0.330004
O24	O	1.458978	0.060778	0.169996
O25	O	1.086253	-0.567511	-0.553678
O26	O	1.586253	-0.067511	-0.053678
O27	O	0.958968	-0.567547	-0.426409
O28	O	1.458968	-0.067547	0.073591
O29	O	1.182706	-0.439160	-0.553704
O30	O	1.682706	0.060840	-0.053704
O31	O	1.182577	-0.737017	-0.329993
O32	O	1.682577	-0.237017	0.170007
O33	O	1.086179	-0.736971	-0.426403
O34	O	1.586179	-0.236971	0.073597
C35	C	0.930491	-0.503383	-0.378203
C36	C	1.430491	-0.003383	0.121797
C37	C	0.843241	-0.503400	-0.378213
C38	C	1.343241	-0.003400	0.121787
C39	C	1.134390	-0.774912	-0.378211
C40	C	1.634390	-0.274912	0.121789
C41	C	1.134440	-0.891065	-0.378231
C42	C	1.634440	-0.391065	0.121769
C43	C	0.802266	-0.570319	-0.428330
C44	C	1.302266	-0.070319	0.071670
C45	C	0.720285	-0.570321	-0.428343
C46	C	1.220285	-0.070321	0.071657
C47	C	0.679282	-0.503409	-0.378233
C48	C	1.179282	-0.003409	0.121767
C49	C	0.720263	-0.436482	-0.328114
C50	C	1.220263	0.063518	0.171886
C51	C	0.802242	-0.436475	-0.328106
C52	C	1.302242	0.063525	0.171894
C53	C	0.549393	-0.436502	-0.328133
C54	C	1.049393	0.063498	0.171867
C55	C	0.467408	-0.436510	-0.328139
C56	C	0.967408	0.063490	0.171861
C57	C	0.467436	-0.570349	-0.428370
C58	C	0.967436	-0.070349	0.071630
C59	C	0.549415	-0.570342	-0.428362
C60	C	1.049415	-0.070342	0.071638
C61	C	0.590391	-0.503416	-0.378241
C62	C	1.090391	-0.003416	0.121759
C63	C	1.182142	-0.942753	-0.425990
C64	C	1.682142	-0.442753	0.074010
C65	C	1.182195	-1.062803	-0.426012
C66	C	1.682195	-0.562803	0.073988
C67	C	1.339183	-0.503421	-0.378247
C68	C	1.839183	-0.003421	0.121753
C69	C	1.426433	-0.503430	-0.378257
C70	C	1.926433	-0.003430	0.121743
C71	C	1.134486	-0.503325	-0.582970
C72	C	1.634486	-0.003325	-0.082970
C73	C	1.134506	-0.503292	-0.670219
C74	C	1.634506	-0.003292	-0.170219
C75	C	1.134509	-0.230831	-0.378257
C76	C	1.634509	0.269169	0.121743
C77	C	1.134540	-0.114678	-0.378270
C78	C	1.634540	0.385322	0.121730
C79	C	1.184731	-0.436454	-0.711224
C80	C	1.684731	0.063546	-0.211224
C81	C	1.184741	-0.436419	-0.793205
C82	C	1.684741	0.063581	-0.293205
C83	C	1.134529	-0.503228	-0.834179
C84	C	1.634529	-0.003228	-0.334179
C85	C	1.084298	-0.570069	-0.793168
C86	C	1.584298	-0.070069	-0.293168
C87	C	1.084285	-0.570098	-0.711189
C88	C	1.584285	-0.070098	-0.211189
C89	C	1.084330	-0.570007	-0.964039
C90	C	1.584330	-0.070007	-0.464039
C91	C	1.084344	-0.569980	-1.046023
C92	C	1.584344	-0.069980	-0.546023
C93	C	1.184785	-0.436327	-1.046054
C94	C	1.684785	0.063673	-0.546054
C95	C	1.184772	-0.436356	-0.964075
C96	C	1.684772	0.063644	-0.464075
C97	C	1.134543	-0.503199	-0.923070
C98	C	1.634543	-0.003199	-0.423070
C99	C	1.134437	-0.503403	-0.174277
C100	C	1.634437	-0.003403	0.325723
C101	C	1.134568	-0.503141	-0.087028
C102	C	1.634568	-0.003141	0.412972
H103	H	0.835645	-0.624811	-0.469133
H104	H	1.335645	-0.124811	0.030867
F105	F	1.030868	-0.641147	-0.920400
F106	F	1.530868	-0.141147	-0.420400
H107	H	0.686927	-0.624815	-0.469153
H108	H	1.186927	-0.124815	0.030847
H109	H	1.223037	-1.107254	-0.466898
H110	H	1.723037	-0.607254	0.033102
H111	H	1.222939	-0.898130	-0.466867
H112	H	1.722939	-0.398130	0.033133
F113	F	1.081160	-1.056588	-0.324818
F114	F	1.581160	-0.556588	0.175182
F115	F	1.081107	-0.949387	-0.324809
F116	F	1.581107	-0.449387	0.175191
F117	F	1.238179	-0.365350	-0.667623
F118	F	1.738179	0.134650	-0.167623
F119	F	0.593000	-0.365271	-0.274789
F120	F	1.093000	0.134729	0.225211
F121	F	0.845850	-0.365248	-0.274765
F122	F	1.345850	0.134752	0.225235
F123	F	0.676621	-0.365261	-0.274788
F124	F	1.176621	0.134739	0.225212
F125	F	1.238218	-0.365256	-0.920468
F126	F	1.738218	0.134744	-0.420468
F127	F	1.238224	-0.365316	-0.836841
F128	F	1.738224	0.134684	-0.336841
H129	H	1.043455	-0.624379	-1.079382
H130	H	1.543455	-0.124379	-0.579382
F131	F	0.593053	-0.641565	-0.481689
F132	F	1.093053	-0.141565	0.018311
H133	H	1.225683	-0.381900	-1.079444
H134	H	1.725683	0.118100	-0.579444
F135	F	1.030855	-0.641169	-0.836779
F136	F	1.530855	-0.141169	-0.336779
F137	F	0.423827	-0.641565	-0.481721
F138	F	0.923827	-0.141565	0.018279
F139	F	0.423770	-0.365299	-0.274804
F140	F	0.923770	0.134701	0.225196
H141	H	1.043379	-0.624514	-0.677804
H142	H	1.543379	-0.124514	-0.177804
