data_functionalizedCrystal
_audit_creation_method	'MofGen! by Chris Wilmer'
_symmetry_space_group_name_H-M	'P1'
_symmetry_Int_Tables_number	1
_symmetry_cell_setting	triclinic
loop_
_symmetry_equiv_pos_as_xyz
  x,y,z
_cell_length_a	12.759401
_cell_length_b	25.639239
_cell_length_c	25.639234
_cell_angle_alpha	90.021106
_cell_angle_beta	90.009192
_cell_angle_gamma	90.040211
loop_
_atom_site_label
_atom_site_type_symbol
_atom_site_fract_x
_atom_site_fract_y
_atom_site_fract_z
Zn1	Zn	1.605969	-0.208181	0.295595
Zn2	Zn	1.605823	-0.295603	0.208159
Zn3	Zn	1.430304	-0.208186	0.208175
Zn4	Zn	1.430186	-0.295590	0.295565
O5	O	1.518071	-0.251890	0.251874
O6	O	1.752971	-0.219781	0.284002
O7	O	1.582528	-0.284015	0.134996
O8	O	1.453717	-0.135020	0.219790
O9	O	1.752863	-0.284010	0.219763
O10	O	1.582778	-0.135016	0.284017
O11	O	1.453575	-0.219790	0.135008
O12	O	1.283268	-0.219777	0.219762
O13	O	1.453517	-0.283987	0.368734
O14	O	1.283181	-0.283992	0.283967
O15	O	1.582663	-0.219768	0.368756
O16	O	1.582414	-0.368767	0.219735
O17	O	1.453375	-0.368757	0.283952
C18	C	1.245103	-0.251884	0.251863
C19	C	1.128327	-0.251893	0.251871
C20	C	1.073447	-0.285381	0.285250
C21	C	0.963723	-0.285383	0.285260
C22	C	0.963768	-0.218408	0.218508
C23	C	1.073490	-0.218404	0.218501
C24	C	1.517894	-0.387733	0.251850
C25	C	1.517915	-0.445847	0.251857
C26	C	1.585437	-0.806202	0.218493
C27	C	1.585478	-0.860807	0.218500
O28	O	1.642704	-0.889037	0.190106
N29	N	1.518255	-0.888129	0.251908
C30	C	1.450996	-0.860844	0.285315
O31	O	1.393822	-0.889098	0.313733
C32	C	1.450961	-0.806241	0.285311
C33	C	1.518180	-0.778921	0.251896
C34	C	1.652651	-0.778883	0.185082
C35	C	1.652609	-0.724282	0.185074
C36	C	1.585352	-0.697001	0.218478
C37	C	1.518138	-0.724321	0.251889
C38	C	1.383707	-0.778957	0.318720
C39	C	1.383679	-0.724350	0.318713
C40	C	1.450898	-0.697031	0.285299
C41	C	1.450839	-0.642439	0.285285
N42	N	1.518061	-0.615117	0.251877
C43	C	1.585317	-0.642398	0.218473
C44	C	1.451075	-0.975515	0.285324
C45	C	1.451103	-1.030117	0.285326
C46	C	1.585587	-1.030076	0.218511
C47	C	1.585552	-0.975473	0.218506
C48	C	1.518297	-0.948193	0.251915
C49	C	1.585223	-0.527733	0.218459
C50	C	1.585171	-0.473128	0.218453
C51	C	1.450692	-0.473174	0.285270
C52	C	1.450739	-0.527774	0.285274
C53	C	1.518013	-0.555053	0.251867
O54	O	1.393644	-0.614174	0.313666
O55	O	1.642491	-0.614138	0.190065
C56	C	1.792104	-0.251897	0.251884
C57	C	1.908881	-0.251900	0.251889
C58	C	1.518093	-0.251875	0.388247
C59	C	1.518103	-0.251869	0.446361
C60	C	1.518277	-0.115517	0.251909
C61	C	1.518365	-0.057403	0.251924
C62	C	1.518109	-0.251867	0.116031
C63	C	1.518303	-0.251726	0.057917
C64	C	1.450926	-0.285242	0.697537
C65	C	1.450908	-0.285254	0.642933
O66	O	1.393691	-0.313681	0.614682
N67	N	1.518143	-0.251827	0.615635
C68	C	1.585393	-0.218382	0.642944
O69	O	1.642580	-0.189951	0.614710
C70	C	1.585406	-0.218368	0.697547
C71	C	1.518174	-0.251801	0.724842
C72	C	1.383699	-0.318672	0.724833
C73	C	1.383719	-0.318660	0.779433
C74	C	1.450966	-0.285219	0.806738
C75	C	1.518194	-0.251790	0.779443
C76	C	1.652650	-0.184921	0.724855
C77	C	1.652656	-0.184910	0.779462
C78	C	1.585424	-0.218343	0.806757
C79	C	1.585461	-0.218338	0.861349
N80	N	1.518226	-0.251764	0.888647
C81	C	1.450978	-0.285205	0.861342
C82	C	1.585361	-0.218413	0.528273
C83	C	1.585355	-0.218430	0.473671
C84	C	1.450867	-0.285301	0.473664
C85	C	1.450880	-0.285287	0.528267
C86	C	1.518126	-0.251840	0.555571
C87	C	1.451026	-0.285180	0.976007
C88	C	1.451056	-0.285167	1.030612
C89	C	1.585538	-0.218294	1.030614
C90	C	1.585514	-0.218309	0.976014
C91	C	1.518249	-0.251753	0.948711
O92	O	1.642646	-0.189923	0.889634
O93	O	1.393792	-0.313627	0.889581
H94	H	1.639909	-0.450886	0.191241
Br95	Br	0.889340	-0.172961	0.173222
Br96	Br	1.743855	-0.687214	0.139731
H97	H	1.396007	-0.550019	0.312485
Br98	Br	1.743943	-0.815897	0.139743
H99	H	1.118174	-0.191131	0.191320
H100	H	1.395929	-0.450953	0.312465
Br101	Br	1.359858	-1.067187	0.330668
Br102	Br	1.359784	-0.938497	0.330665
Br103	Br	1.359812	-0.330546	1.067653
H104	H	1.396244	-0.312409	0.953784
H105	H	1.328969	-0.345883	0.801652
Br106	Br	1.292419	-0.364061	0.687786
Br107	Br	1.676773	-0.172943	0.938969
Br108	Br	1.743899	-0.139544	0.687825
H109	H	1.396132	-0.312510	0.550487
H110	H	1.396109	-0.312529	0.451422
H111	H	1.640006	-0.549936	0.191257
H112	H	1.640288	-0.953232	0.191298
H113	H	1.328965	-0.801191	0.345927
H114	H	1.640355	-1.052298	0.191314
Br115	Br	1.292403	-0.687330	0.364059
H116	H	0.919045	-0.312651	0.312442
Br117	Br	1.676620	-0.173064	0.436634
H118	H	1.640129	-0.191178	0.550501
H119	H	1.707412	-0.157671	0.801690
H120	H	1.118092	-0.312649	0.312424
Br121	Br	1.676802	-0.172914	1.067682
