data_functionalizedCrystal
_audit_creation_method	'MofGen! by Chris Wilmer'
_symmetry_space_group_name_H-M	'P1'
_symmetry_Int_Tables_number	1
_symmetry_cell_setting	triclinic
loop_
_symmetry_equiv_pos_as_xyz
  x,y,z
_cell_length_a	17.038278
_cell_length_b	17.038272
_cell_length_c	13.930277
_cell_angle_alpha	89.995405
_cell_angle_beta	89.992706
_cell_angle_gamma	91.111028
loop_
_atom_site_label
_atom_site_type_symbol
_atom_site_fract_x
_atom_site_fract_y
_atom_site_fract_z
O1	O	1.048757	0.170527	-0.079840
O2	O	0.820946	0.167821	-0.079840
O3	O	0.933497	0.055268	-0.079833
O4	O	0.936205	0.283080	-0.079848
O5	O	0.933481	0.055264	0.079829
O6	O	0.820929	0.167817	0.079821
O7	O	1.048740	0.170523	0.079822
Zn8	Zn	0.934832	0.169170	0.105171
Zn9	Zn	0.934854	0.169174	-0.105190
O10	O	0.936188	0.283076	0.079814
C11	C	0.791645	0.165356	-0.000010
C12	C	0.704361	0.158009	-0.000009
C13	C	0.210935	0.112872	-0.000010
C14	C	0.292947	0.119781	-0.000005
C15	C	0.329347	0.194155	-0.000014
C16	C	0.283730	0.261623	-0.000019
C17	C	0.201720	0.254713	-0.000017
C18	C	0.576734	0.218567	-0.000013
C19	C	0.658751	0.225473	-0.000017
C20	C	0.667962	0.083630	-0.000001
C21	C	0.585949	0.076726	-0.000005
C22	C	0.540340	0.144194	-0.000005
C23	C	0.413176	0.201219	-0.000012
C24	C	0.456513	0.137129	-0.000001
C25	C	0.931026	0.025974	-0.000002
C26	C	0.923678	-0.061310	-0.000002
C27	C	0.991142	-0.106920	-0.000001
C28	C	0.984233	-0.188932	-0.000010
C29	C	0.909859	-0.225332	-0.000014
C30	C	0.842391	-0.179716	-0.000018
C31	C	0.849300	-0.097706	-0.000015
C32	C	0.885449	-0.472720	-0.000027
C33	C	0.878544	-0.554736	-0.000026
C34	C	1.020387	-0.563946	-0.000021
C35	C	1.027290	-0.481934	-0.000013
C36	C	0.959821	-0.436325	-0.000022
C37	C	0.902796	-0.309161	-0.000020
C38	C	0.966886	-0.352497	-0.000022
C39	C	1.078041	0.172988	-0.000011
C40	C	1.165325	0.180335	-0.000018
C41	C	0.938660	0.312370	-0.000019
C42	C	0.946008	0.399654	-0.000025
N43	N	0.934822	0.169166	0.248737
N44	N	0.934869	0.169172	-0.248756
C45	C	0.885013	0.218992	0.701003
C46	C	0.984717	0.119352	0.700979
C47	C	0.984707	0.119349	0.600484
C48	C	0.934851	0.169169	0.550243
C49	C	0.885003	0.218992	0.600498
C50	C	1.034559	0.069533	0.550221
C51	C	1.034552	0.069529	0.449719
C52	C	0.984691	0.119345	0.399477
C53	C	0.934841	0.169169	0.449738
C54	C	0.884985	0.218989	0.399497
C55	C	0.835130	0.268810	0.449757
C56	C	0.835142	0.268808	0.550256
C57	C	0.984679	0.119346	0.298978
C58	C	0.884975	0.218989	0.298992
H59	H	1.051704	-0.077289	0.000007
H60	H	0.842240	-0.338808	-0.000020
H61	H	0.794540	0.309377	0.408839
N62	N	0.698013	0.305693	-0.000027
H63	H	0.656676	0.347386	-0.000024
H64	H	0.731836	0.311644	0.059159
N65	N	1.056997	-0.238126	-0.000004
H66	H	1.105160	-0.202622	0.000008
H67	H	1.057206	-0.272358	0.059185
H68	H	0.181305	0.052309	-0.000009
N69	N	0.546694	-0.003492	0.000012
H70	H	0.487820	0.002367	0.000009
H71	H	0.563048	-0.033254	-0.059174
N72	N	0.527512	0.291309	-0.000002
H73	H	0.493285	0.291572	0.059194
H74	H	0.563036	0.339454	-0.000042
N75	N	0.452442	0.281432	-0.000033
H76	H	0.436165	0.311232	-0.059227
H77	H	0.436140	0.311179	0.059186
N78	N	1.093156	-0.613133	-0.000026
H79	H	1.125357	-0.600879	0.059161
H80	H	1.077436	-0.670593	-0.000066
N81	N	1.088314	0.015794	0.395509
H82	H	1.144654	0.028576	0.412977
H83	H	1.075499	-0.040529	0.413033
N84	N	0.781374	0.322539	0.604462
H85	H	0.788949	0.314981	0.675751
H86	H	0.794146	0.378860	0.586885
N87	N	0.322986	0.341842	-0.000023
H88	H	0.381860	0.335984	-0.000026
H89	H	0.306642	0.371601	-0.059215
H90	H	0.844373	0.259556	0.258093
N91	N	0.717153	0.010864	0.000004
H92	H	0.774630	0.026524	0.000003
H93	H	0.704822	-0.021309	0.059198
H94	H	0.330080	0.064845	0.000006
H95	H	1.075155	0.028975	0.591130
N96	N	0.152522	0.327476	-0.000004
H97	H	0.188024	0.375640	-0.000005
H98	H	0.118292	0.327708	-0.059185
N99	N	1.038449	0.065625	0.244768
H100	H	1.070037	0.034068	0.291846
H101	H	1.006076	0.028885	0.203085
H102	H	0.426872	0.076575	-0.000004
N103	N	1.107507	-0.442675	-0.000003
H104	H	1.149198	-0.484014	-0.000004
H105	H	1.113472	-0.408842	-0.059189
N106	N	0.798324	-0.593999	-0.000031
H107	H	0.756630	-0.552663	-0.000039
H108	H	0.792382	-0.627823	-0.059219
N109	N	0.812682	-0.423534	-0.000033
H110	H	0.764521	-0.459040	-0.000030
H111	H	0.812452	-0.389310	0.059156
N112	N	1.047099	-0.313239	-0.000008
H113	H	1.088794	-0.354574	-0.000003
H114	H	1.053065	-0.279407	-0.059194
H115	H	0.781834	-0.209360	-0.000026
H116	H	0.794364	-0.060571	-0.000016
N117	N	0.831238	0.272721	0.755202
H118	H	0.838804	0.265162	0.826493
H119	H	0.844010	0.329042	0.737629
H120	H	1.025313	0.078795	0.741889
