data_functionalizedCrystal
_audit_creation_method	'MofGen! by Chris Wilmer'
_symmetry_space_group_name_H-M	'P1'
_symmetry_Int_Tables_number	1
_symmetry_cell_setting	triclinic
loop_
_symmetry_equiv_pos_as_xyz
  x,y,z
_cell_length_a	23.532407
_cell_length_b	13.930277
_cell_length_c	14.853559
_cell_angle_alpha	90.002361
_cell_angle_beta	96.759939
_cell_angle_gamma	89.999203
loop_
_atom_site_label
_atom_site_type_symbol
_atom_site_fract_x
_atom_site_fract_y
_atom_site_fract_z
O1	O	-0.755737	0.079683	0.109438
O2	O	-0.255737	0.579683	0.609438
O3	O	-0.589943	0.079716	0.125273
O4	O	-0.089943	0.579716	0.625273
O5	O	-0.677271	0.079697	-0.013923
O6	O	-0.177271	0.579697	0.486077
O7	O	-0.668409	0.079701	0.248634
O8	O	-0.168409	0.579701	0.748634
O9	O	-0.677259	-0.079965	-0.013926
O10	O	-0.177259	0.420035	0.486074
O11	O	-0.589931	-0.079946	0.125270
O12	O	-0.089931	0.420054	0.625270
O13	O	-0.755725	-0.079979	0.109435
O14	O	-0.255725	0.420021	0.609435
Zn15	Zn	-0.672826	-0.105312	0.117352
Zn16	Zn	-0.172826	0.394688	0.617352
Zn17	Zn	-0.672842	0.105049	0.117356
Zn18	Zn	-0.172842	0.605049	0.617356
O19	O	-0.668397	-0.079961	0.248631
O20	O	-0.168397	0.420039	0.748631
C21	C	-0.568719	-0.000111	0.124868
C22	C	-0.068719	0.499889	0.624868
C23	C	-0.505497	-0.000098	0.123656
C24	C	-0.005497	0.499902	0.623656
C25	C	-0.106718	-0.000128	0.198425
C26	C	0.393282	0.499872	0.698425
C27	C	-0.047313	-0.000132	0.197299
C28	C	0.452687	0.499868	0.697299
O29	O	-0.010870	-0.000165	0.266611
O30	O	0.489130	0.499835	0.766611
N31	N	-0.024328	-0.000131	0.114547
N32	N	0.475672	0.499869	0.614547
C33	C	-0.060750	-0.000136	0.032916
C34	C	0.439250	0.499864	0.532916
O35	O	-0.035744	-0.000136	-0.037575
O36	O	0.464256	0.499864	0.462425
C37	C	-0.120154	-0.000138	0.034043
C38	C	0.379846	0.499862	0.534043
C39	C	-0.143137	-0.000130	0.116800
C40	C	0.356863	0.499870	0.616800
C41	C	-0.129701	-0.000121	0.281176
C42	C	0.370299	0.499879	0.781176
C43	C	-0.189102	-0.000115	0.282302
C44	C	0.310898	0.499885	0.782302
C45	C	-0.225521	-0.000117	0.200677
C46	C	0.274479	0.499883	0.700677
C47	C	-0.202538	-0.000124	0.117926
C48	C	0.297462	0.499876	0.617926
C49	C	-0.156576	-0.000150	-0.047587
C50	C	0.343424	0.499850	0.452413
C51	C	-0.215984	-0.000153	-0.046453
C52	C	0.284016	0.499847	0.453547
C53	C	-0.238966	-0.000145	0.036304
C54	C	0.261034	0.499855	0.536304
C55	C	-0.298357	-0.000120	0.037427
C56	C	0.201643	0.499880	0.537427
N57	N	-0.321343	-0.000121	0.120179
N58	N	0.178657	0.499879	0.620179
C59	C	-0.284925	-0.000120	0.201804
C60	C	0.215075	0.499880	0.701804
C61	C	0.064002	-0.000131	0.030555
C62	C	0.564002	0.499869	0.530555
C63	C	0.123405	-0.000121	0.029427
C64	C	0.623405	0.499879	0.529427
C65	C	0.136838	-0.000120	0.193810
C66	C	0.636838	0.499880	0.693810
C67	C	0.077434	-0.000123	0.194938
C68	C	0.577434	0.499877	0.694938
C69	C	0.041017	-0.000132	0.113307
C70	C	0.541017	0.499868	0.613307
C71	C	-0.409672	-0.000107	0.204162
C72	C	0.090328	0.499893	0.704162
C73	C	-0.469078	-0.000097	0.205281
C74	C	0.030922	0.499903	0.705281
C75	C	-0.482506	-0.000103	0.040897
C76	C	0.017494	0.499897	0.540897
C77	C	-0.423105	-0.000108	0.039778
C78	C	0.076895	0.499892	0.539778
C79	C	-0.386688	-0.000113	0.121418
C80	C	0.113312	0.499887	0.621418
O81	O	-0.334835	-0.000091	-0.031849
O82	O	0.165165	0.499909	0.468151
O83	O	-0.309939	-0.000132	0.272283
O84	O	0.190061	0.499868	0.772283
N85	N	-0.672819	-0.248878	0.117349
N86	N	-0.172819	0.251122	0.617349
C87	C	-0.676864	-0.000132	-0.047509
C88	C	-0.176864	0.499868	0.452491
C89	C	-0.675664	-0.000126	-0.147580
C90	C	-0.175664	0.499874	0.352420
C91	C	0.223051	-0.000142	0.109840
C92	C	0.723051	0.499858	0.609840
C93	C	0.159829	-0.000125	0.111052
C94	C	0.659829	0.499875	0.611052
C95	C	-0.634171	-0.701140	0.178968
C96	C	-0.134171	-0.201140	0.678968
C97	C	-0.711528	-0.701125	0.055737
C98	C	-0.211528	-0.201125	0.555737
C99	C	-0.711521	-0.600630	0.055734
C100	C	-0.211521	-0.100630	0.555734
C101	C	-0.672840	-0.550384	0.117350
C102	C	-0.172840	-0.050384	0.617350
C103	C	-0.634165	-0.600635	0.178969
C104	C	-0.134165	-0.100635	0.678969
C105	C	-0.750200	-0.550372	-0.005878
C106	C	-0.250200	-0.050372	0.494122
C107	C	-0.750195	-0.449870	-0.005882
C108	C	-0.250195	0.050130	0.494118
C109	C	-0.711510	-0.399623	0.055730
C110	C	-0.211510	0.100377	0.555730
C111	C	-0.672833	-0.449879	0.117351
C112	C	-0.172833	0.050121	0.617351
C113	C	-0.634151	-0.399634	0.178967
C114	C	-0.134151	0.100366	0.678967
C115	C	-0.595471	-0.449889	0.240584
C116	C	-0.095471	0.050111	0.740584
C117	C	-0.595480	-0.550388	0.240581
C118	C	-0.095480	-0.050388	0.740581
C119	C	-0.711501	-0.299124	0.055733
C120	C	-0.211501	0.200876	0.555733
C121	C	-0.634144	-0.299129	0.178968
C122	C	-0.134144	0.200871	0.678968
N123	N	-0.672853	0.248615	0.117352
N124	N	-0.172853	0.748615	0.617352
C125	C	-0.670577	0.086907	-0.570698
C126	C	-0.170577	0.586907	-0.070698
C127	C	-0.670563	-0.087163	-0.570696
C128	C	-0.170563	0.412837	-0.070696
C129	C	-0.671696	-0.087164	-0.476675
C130	C	-0.171696	0.412836	0.023325
C131	C	-0.672268	-0.000128	-0.429661
C132	C	-0.172268	0.499872	0.070339
C133	C	-0.671708	0.086908	-0.476668
C134	C	-0.171708	0.586908	0.023332
C135	C	-0.672251	-0.174199	-0.429660
C136	C	-0.172251	0.325801	0.070340
C137	C	-0.673383	-0.174203	-0.335633
C138	C	-0.173383	0.325797	0.164367
C139	C	-0.673960	-0.087167	-0.288618
C140	C	-0.173960	0.412833	0.211382
C141	C	-0.673400	-0.000127	-0.335631
C142	C	-0.173400	0.499873	0.164369
C143	C	-0.673972	0.086909	-0.288617
C144	C	-0.173972	0.586909	0.211383
C145	C	-0.673416	0.173950	-0.335629
C146	C	-0.173416	0.673950	0.164371
C147	C	-0.672284	0.173945	-0.429653
C148	C	-0.172284	0.673945	0.070347
C149	C	-0.675092	-0.087162	-0.194594
C150	C	-0.175092	0.412838	0.305406
C151	C	-0.675103	0.086910	-0.194587
C152	C	-0.175103	0.586910	0.305413
C153	C	-0.668804	-0.000130	0.282217
C154	C	-0.168804	0.499870	0.782217
C155	C	-0.670004	-0.000129	0.382288
C156	C	-0.170004	0.499871	0.882288
H157	H	0.166501	-0.000123	0.260274
H158	H	0.666501	0.499877	0.760274
H159	H	-0.602643	-0.258225	0.229140
H160	H	-0.102643	0.241775	0.729140
H161	H	0.058727	-0.000121	0.262326
H162	H	0.558727	0.499879	0.762326
H163	H	-0.673838	-0.245078	-0.297364
H164	H	-0.173838	0.254922	0.202636
H165	H	-0.673878	0.244814	-0.297338
H166	H	-0.173878	0.744814	0.202662
H167	H	-0.670094	-0.158023	-0.608979
H168	H	-0.170094	0.341977	-0.108979
H169	H	-0.671831	0.244809	-0.467939
H170	H	-0.171831	0.744809	0.032061
H171	H	-0.670126	0.157773	-0.608980
H172	H	-0.170126	0.657773	-0.108980
Cl173	Cl	-0.217985	-0.000111	0.386345
Cl174	Cl	0.282015	0.499889	0.886345
Cl175	Cl	-0.671518	-0.283607	-0.488763
Cl176	Cl	-0.171518	0.216393	0.011237
Cl177	Cl	0.152289	-0.000108	-0.074616
Cl178	Cl	0.652289	0.499892	0.425384
Cl179	Cl	-0.760159	-0.764288	-0.021715
Cl180	Cl	-0.260159	-0.264288	0.478285
Cl181	Cl	-0.394212	-0.000123	-0.064261
Cl182	Cl	0.105788	0.499877	0.435739
H183	H	-0.675572	0.157786	-0.156316
H184	H	-0.175572	0.657786	0.343684
Cl185	Cl	-0.675789	-0.196575	-0.135497
Cl186	Cl	-0.175789	0.303425	0.364503
Cl187	Cl	0.018225	-0.000132	-0.072078
Cl188	Cl	0.518225	0.499868	0.427922
H189	H	-0.487787	-0.000089	0.272674
H190	H	0.012213	0.499911	0.772674
Cl191	Cl	-0.528300	-0.000110	-0.061711
Cl192	Cl	-0.028300	0.499890	0.438289
H193	H	-0.602677	-0.742060	0.229133
H194	H	-0.102677	-0.242060	0.729133
H195	H	-0.137875	-0.000158	-0.114977
H196	H	0.362125	0.499842	0.385023
H197	H	-0.742996	-0.258211	0.005569
H198	H	-0.242996	0.241789	0.505569
Cl199	Cl	-0.546848	-0.386713	0.318047
Cl200	Cl	-0.046848	0.113287	0.818047
H201	H	-0.100055	-0.000123	0.347649
H202	H	0.399945	0.499877	0.847649
Cl203	Cl	-0.363900	-0.000111	0.306796
Cl204	Cl	0.136100	0.499889	0.806796
Cl205	Cl	-0.798830	-0.613534	-0.083329
Cl206	Cl	-0.298830	-0.113534	0.416671
Cl207	Cl	-0.261763	-0.000167	-0.149081
Cl208	Cl	0.238237	0.499833	0.350919
H209	H	-0.563988	-0.591311	0.290748
H210	H	-0.063988	-0.091311	0.790748
H211	H	-0.781690	-0.408958	-0.056055
H212	H	-0.281690	0.091042	0.443945
