data_functionalizedCrystal
_audit_creation_method	'MofGen! by Chris Wilmer'
_symmetry_space_group_name_H-M	'P1'
_symmetry_Int_Tables_number	1
_symmetry_cell_setting	triclinic
loop_
_symmetry_equiv_pos_as_xyz
  x,y,z
_cell_length_a	16.120484
_cell_length_b	17.639504
_cell_length_c	17.640968
_cell_angle_alpha	70.332680
_cell_angle_beta	97.807442
_cell_angle_gamma	75.383133
loop_
_atom_site_label
_atom_site_type_symbol
_atom_site_fract_x
_atom_site_fract_y
_atom_site_fract_z
Zn1	Zn	0.110215	-1.358806	0.716865
Zn2	Zn	0.610215	-0.858806	1.216865
Zn3	Zn	-0.064563	-1.323833	0.585991
Zn4	Zn	0.435437	-0.823833	1.085991
Zn5	Zn	0.039567	-1.190264	0.553951
Zn6	Zn	0.539567	-0.690264	1.053951
Zn7	Zn	-0.064476	-1.213926	0.695869
Zn8	Zn	0.435524	-0.713926	1.195869
O9	O	0.005186	-1.271707	0.638169
O10	O	0.505186	-0.771707	1.138169
O11	O	0.116561	-1.470698	0.721700
O12	O	0.616561	-0.970698	1.221700
O13	O	-0.080352	-1.281576	0.467577
O14	O	0.419648	-0.781576	0.967577
O15	O	0.165626	-1.217354	0.570940
O16	O	0.665626	-0.717354	1.070940
O17	O	-0.011847	-1.445004	0.625548
O18	O	0.488153	-0.945004	1.125548
O19	O	0.217532	-1.341181	0.690632
O20	O	0.717532	-0.841181	1.190632
O21	O	-0.003849	-1.183443	0.444037
O22	O	0.496151	-0.683443	0.944037
O23	O	-0.003765	-1.076870	0.550581
O24	O	0.496235	-0.576870	1.050581
O25	O	-0.011700	-1.257683	0.812818
O26	O	0.488300	-0.757683	1.312818
O27	O	-0.080205	-1.094255	0.654848
O28	O	0.419795	-0.594255	1.154848
O29	O	0.116645	-1.364126	0.828244
O30	O	0.616645	-0.864126	1.328244
O31	O	-0.181239	-1.304520	0.605189
O32	O	0.318761	-0.804520	1.105189
O33	O	-0.181175	-1.223772	0.685916
O34	O	0.318825	-0.723772	1.185916
C35	C	-0.049642	-1.055347	0.596960
C36	C	0.450358	-0.555347	1.096960
C37	C	-0.073113	-0.962791	0.579350
C38	C	0.426887	-0.462791	1.079350
C39	C	0.183619	-0.725305	0.772130
C40	C	0.683619	-0.225305	1.272130
C41	C	0.161539	-0.638330	0.755567
C42	C	0.661539	-0.138330	1.255567
C43	C	0.027965	-0.611572	0.655287
C44	C	0.527965	-0.111572	1.155287
C45	C	0.050031	-0.698547	0.671843
C46	C	0.550031	-0.198547	1.171843
C47	C	0.127860	-0.755407	0.730265
C48	C	0.627860	-0.255407	1.230265
C49	C	-0.005728	-0.728648	0.629979
C50	C	0.494272	-0.228648	1.129979
C51	C	0.016340	-0.815616	0.646531
C52	C	0.516340	-0.315616	1.146531
C53	C	0.094166	-0.872481	0.704949
C54	C	0.594166	-0.372481	1.204949
C55	C	0.149927	-0.842374	0.746818
C56	C	0.649927	-0.342374	1.246818
C57	C	-0.083552	-0.671786	0.571553
C58	C	0.416448	-0.171786	1.071553
C59	C	-0.139311	-0.701888	0.529689
C60	C	0.360689	-0.201888	1.029689
C61	C	-0.117248	-0.788857	0.546245
C62	C	0.382752	-0.288857	1.046245
C63	C	-0.039422	-0.845722	0.604662
C64	C	0.460578	-0.345722	1.104662
C65	C	-0.173009	-0.818964	0.504376
C66	C	0.326991	-0.318964	1.004376
C67	C	-0.150942	-0.905931	0.520929
C68	C	0.349058	-0.405931	1.020929
C69	C	-0.017354	-0.932689	0.621215
C70	C	0.482646	-0.432689	1.121215
C71	C	-0.211453	-1.262945	0.646773
C72	C	0.288547	-0.762945	1.146773
C73	C	-0.304105	-1.259279	0.650495
C74	C	0.195895	-0.759279	1.150495
C75	C	-0.473737	-1.252594	0.657309
C76	C	0.026263	-0.752594	1.157309
C77	C	-0.515010	-1.290972	0.619071
C78	C	-0.015010	-0.790972	1.119071
C79	C	-0.609398	-1.287253	0.622862
C80	C	-0.109398	-0.787253	1.122862
C81	C	-0.379339	-1.256313	0.653519
C82	C	0.120661	-0.756313	1.153519
C83	C	0.222681	-1.280529	0.629554
C84	C	0.722681	-0.780529	1.129554
C85	C	0.315364	-1.284289	0.625883
C86	C	0.815364	-0.784289	1.125883
C87	C	0.060363	-1.317445	0.850960
C88	C	0.560363	-0.817445	1.350960
C89	C	0.083876	-1.336936	0.941640
C90	C	0.583876	-0.836936	1.441640
C91	C	0.060239	-0.488912	0.679536
C92	C	0.560239	0.011088	1.179536
C93	C	0.083729	-0.581471	0.697156
C94	C	0.583729	-0.081471	1.197156
C95	C	-0.049704	-1.226197	0.426212
C96	C	0.450296	-0.726197	0.926212
C97	C	-0.072941	-1.206877	0.335555
C98	C	0.427059	-0.706877	0.835555
C99	C	-0.172905	-1.123975	1.199721
C100	C	0.327095	-0.623975	1.699721
C101	C	-0.150796	-1.142308	1.284931
C102	C	0.349204	-0.642308	1.784931
C103	C	-0.017161	-1.253137	1.300982
C104	C	0.482839	-0.753137	1.800982
C105	C	-0.039257	-1.234811	1.215771
C106	C	0.460743	-0.734811	1.715771
C107	C	-0.117130	-1.170230	1.165147
C108	C	0.382870	-0.670230	1.665147
C109	C	0.016517	-1.281066	1.181197
C110	C	0.516517	-0.781066	1.681197
C111	C	-0.005579	-1.262744	1.095995
C112	C	0.494421	-0.762744	1.595995
C113	C	-0.083450	-1.198167	1.045366
C114	C	0.416550	-0.698167	1.545366
C115	C	-0.139227	-1.151908	1.079945
C116	C	0.360773	-0.651908	1.579945
C117	C	0.094387	-1.345651	1.231823
C118	C	0.594387	-0.845651	1.731823
C119	C	0.150162	-1.391905	1.197250
C120	C	0.650162	-0.891905	1.697250
C121	C	0.128069	-1.373580	1.112045
C122	C	0.628069	-0.873580	1.612045
C123	C	0.050198	-1.309003	1.061416
C124	C	0.550198	-0.809003	1.561416
C125	C	0.183846	-1.419839	1.077466
C126	C	0.683846	-0.919839	1.577466
C127	C	0.161749	-1.401517	0.992263
C128	C	0.661749	-0.901517	1.492263
C129	C	0.028101	-1.290681	0.976213
C130	C	0.528101	-0.790681	1.476213
H131	H	0.112133	-0.943294	0.718422
H132	H	0.612133	-0.443294	1.218422
F133	F	0.221109	-1.450748	0.955465
F134	F	0.721109	-0.950748	1.455465
H135	H	-0.202677	-0.655580	0.482119
H136	H	0.297323	-0.155580	0.982119
H137	H	0.213300	-0.888674	0.794394
H138	H	0.713300	-0.388674	1.294394
F139	F	0.266448	-0.785827	0.834316
F140	F	0.766448	-0.285827	1.334316
H141	H	0.112374	-1.360568	1.301201
H142	H	0.612374	-0.860568	1.801201
H143	H	-0.202624	-1.099301	1.038719
H144	H	0.297376	-0.599301	1.538719
H145	H	-0.509288	-1.216946	0.692889
H146	H	-0.009288	-0.716946	1.192889
H147	H	0.046019	-0.978989	0.668791
H148	H	0.546019	-0.478989	1.168791
H149	H	-0.196346	-0.930439	0.486838
H150	H	0.303654	-0.430439	0.986838
H151	H	0.206954	-0.613826	0.789659
H152	H	0.706954	-0.113826	1.289659
H153	H	-0.236302	-1.071368	1.158496
H154	H	0.263698	-0.571368	1.658496
F155	F	-0.054861	-0.551048	0.593109
F156	F	0.445139	-0.051048	1.093109
H157	H	-0.196220	-1.104637	1.313077
H158	H	0.303780	-0.604637	1.813077
H159	H	-0.479456	-1.326622	0.583486
H160	H	0.020544	-0.826622	1.083486
F161	F	-0.054776	-1.221940	0.922329
F162	F	0.445224	-0.721940	1.422329
H163	H	-0.101442	-1.183254	0.975990
H164	H	0.398558	-0.683254	1.475990
H165	H	0.213565	-1.444489	1.238479
H166	H	0.713565	-0.944489	1.738479
F167	F	0.065713	-1.321869	1.354868
F168	F	0.565713	-0.821869	1.854868
H169	H	0.247245	-1.472426	1.118697
H170	H	0.747245	-0.972426	1.618697
H171	H	-0.236372	-0.772654	0.456803
H172	H	0.263628	-0.272654	0.956803
F173	F	-0.107033	-0.579226	0.553933
F174	F	0.392967	-0.079226	1.053933
