data_functionalizedCrystal
_audit_creation_method	'MofGen! by Chris Wilmer'
_symmetry_space_group_name_H-M	'P1'
_symmetry_Int_Tables_number	1
_symmetry_cell_setting	triclinic
loop_
_symmetry_equiv_pos_as_xyz
  x,y,z
_cell_length_a	10.967926
_cell_length_b	10.654550
_cell_length_c	9.730223
_cell_angle_alpha	90.005436
_cell_angle_beta	77.868375
_cell_angle_gamma	84.600215
loop_
_atom_site_label
_atom_site_type_symbol
_atom_site_fract_x
_atom_site_fract_y
_atom_site_fract_z
O1	O	1.657211	0.176123	-0.278215
O2	O	1.294059	0.192991	-0.192202
O3	O	1.483985	0.001816	-0.237191
O4	O	1.467285	0.367297	-0.233226
O5	O	1.483994	0.001801	-0.465774
O6	O	1.294068	0.192975	-0.420784
O7	O	1.657220	0.176108	-0.506797
Zn8	Zn	1.475646	0.184539	-0.500083
Zn9	Zn	1.475634	0.184559	-0.198916
O10	O	1.467295	0.367282	-0.461808
C11	C	1.247564	0.191757	-0.295480
C12	C	1.109008	0.188088	-0.262663
C13	C	1.047240	0.186445	-0.366444
C14	C	0.904036	0.182653	-0.332529
C15	C	1.482763	-0.044989	-0.351190
C16	C	1.479095	-0.184432	-0.350317
C17	C	1.590920	-0.263937	-0.376807
C18	C	1.587465	-0.394957	-0.375979
C19	C	1.360351	-0.366955	-0.322175
C20	C	1.363807	-0.235937	-0.322993
C21	C	1.706208	-0.212431	-0.404131
C22	C	1.818042	-0.291937	-0.430624
C23	C	1.814588	-0.422958	-0.429797
C24	C	1.699299	-0.474472	-0.402475
C25	C	1.703716	0.177341	-0.403517
C26	C	1.842271	0.181010	-0.436325
C27	C	1.468516	0.414087	-0.347806
C28	C	1.472184	0.553530	-0.348671
N29	N	1.475626	0.184564	0.006622
N30	N	1.475663	0.184524	-0.705624
C31	C	1.551819	0.261576	0.060517
C32	C	1.551834	0.261561	0.204396
C33	C	1.399462	0.107509	0.240473
C34	C	1.399440	0.107532	0.096598
C35	C	1.628004	0.338608	-0.029459
C36	C	1.704204	0.415626	0.024435
C37	C	1.704220	0.415610	0.168314
C38	C	1.628035	0.338576	0.258300
H39	H	1.100378	0.187838	-0.480404
H40	H	1.628003	0.338627	-0.146615
H41	H	1.696495	-0.581159	-0.401789
H42	H	1.766256	0.478331	0.212192
H43	H	0.850904	0.181250	-0.218562
H44	H	0.895402	0.182405	-0.550293
H45	H	1.911906	-0.249985	-0.452834
H46	H	1.628042	0.338581	0.375457
H47	H	1.337437	0.044791	0.313750
H48	H	1.766221	0.478353	-0.048838
H49	H	1.055872	0.186685	-0.148703
H50	H	1.337395	0.044825	0.052717
H51	H	1.905648	-0.487688	-0.451355
H52	H	1.266488	-0.408909	-0.299933
H53	H	1.709033	-0.105750	-0.404812
H54	H	1.272749	-0.171202	-0.301424
