data_functionalizedCrystal
_audit_creation_method	'MofGen! by Chris Wilmer'
_symmetry_space_group_name_H-M	'P1'
_symmetry_Int_Tables_number	1
_symmetry_cell_setting	triclinic
loop_
_symmetry_equiv_pos_as_xyz
  x,y,z
_cell_length_a	10.723024
_cell_length_b	10.723023
_cell_length_c	9.198806
_cell_angle_alpha	90.005570
_cell_angle_beta	89.999748
_cell_angle_gamma	95.532291
loop_
_atom_site_label
_atom_site_type_symbol
_atom_site_fract_x
_atom_site_fract_y
_atom_site_fract_z
O1	O	1.657180	-0.175031	-0.120880
O2	O	1.294028	-0.191785	-0.120884
O3	O	1.483981	-0.001832	-0.120876
O4	O	1.467227	-0.364984	-0.120888
O5	O	1.483980	-0.001818	0.120909
O6	O	1.294027	-0.191771	0.120901
O7	O	1.657179	-0.175017	0.120905
Cu8	Cu	1.475603	-0.183393	0.142980
Cu9	Cu	1.475604	-0.183409	-0.142959
O10	O	1.467226	-0.364970	0.120897
C11	C	1.247528	-0.190558	0.000008
C12	C	1.108973	-0.186911	0.000006
C13	C	1.033991	-0.293198	0.000001
C14	C	0.890787	-0.289431	-0.000000
C15	C	1.482762	0.044675	0.000015
C16	C	1.479114	0.183229	0.000010
C17	C	1.703679	-0.176243	0.000010
C18	C	1.842234	-0.179891	0.000003
C19	C	1.468445	-0.411477	0.000003
C20	C	1.472093	-0.550031	-0.000002
C21	C	1.477489	0.244988	-0.125243
C22	C	1.473720	0.388191	-0.125251
N23	N	1.475606	-0.183412	-0.344073
C24	C	1.555696	-0.103620	-0.583670
C25	C	1.555695	-0.103637	-0.416258
N26	N	1.475610	-0.183380	0.344094
H27	H	1.075812	-0.386984	0.000007
H28	H	0.826354	-0.380421	-0.000010
C29	C	1.382977	-0.275652	-0.572034
C30	C	1.385991	-0.417826	-0.592854
C31	C	1.293354	-0.510101	-0.508987
C32	C	1.197702	-0.460202	-0.404299
C33	C	1.194685	-0.318020	-0.383474
C34	C	1.287322	-0.225745	-0.467341
H35	H	1.456801	-0.454771	-0.670355
H36	H	1.295588	-0.615354	-0.524404
H37	H	1.129127	-0.528509	-0.342215
H38	H	1.123874	-0.281075	-0.305973
H39	H	1.285087	-0.120493	-0.451925
C40	C	0.929260	-0.056955	0.000008
C41	C	0.922951	0.037213	-0.125542
C42	C	1.009989	0.160148	-0.125537
C43	C	1.103335	0.188917	0.000018
C44	C	1.109647	0.094747	0.125577
C45	C	1.022610	-0.028189	0.125572
H46	H	0.853848	0.015918	-0.218493
H47	H	1.005315	0.229859	-0.218484
H48	H	1.167765	0.279921	0.000022
H49	H	1.178751	0.116041	0.218528
H50	H	1.027284	-0.097899	0.218519
H51	H	1.624264	-0.035356	-0.354138
H52	H	1.478883	0.191843	-0.232472
C53	C	1.473980	0.378239	0.144881
C54	C	1.368164	0.275463	0.181000
C55	C	1.370052	0.203723	0.325883
C56	C	1.477756	0.234759	0.434646
C57	C	1.583580	0.337540	0.398529
C58	C	1.581692	0.409280	0.253646
H59	H	1.288428	0.252484	0.100485
H60	H	1.291713	0.127637	0.352618
H61	H	1.479153	0.181653	0.541896
H62	H	1.663316	0.360520	0.479044
H63	H	1.660031	0.485366	0.226911
C64	C	1.648331	-0.011347	-0.667539
C65	C	1.648326	-0.011582	-0.834944
C66	C	1.740965	0.080694	-0.918807
C67	C	1.833609	0.173206	-0.835265
C68	C	1.833618	0.173444	-0.667850
C69	C	1.740979	0.081168	-0.583987
H70	H	1.579742	-0.080068	-0.896796
H71	H	1.740958	0.080517	-1.042739
H72	H	1.902186	0.241515	-0.897345
H73	H	1.902201	0.241930	-0.605998
H74	H	1.740986	0.081345	-0.460055
H75	H	1.472328	0.441302	-0.232486
H76	H	1.477707	0.236372	0.107239
H77	H	1.067152	-0.093125	-0.000028
H78	H	1.407043	-0.251706	-0.406183
