data_functionalizedCrystal
_audit_creation_method	'MofGen! by Chris Wilmer'
_symmetry_space_group_name_H-M	'P1'
_symmetry_Int_Tables_number	1
_symmetry_cell_setting	triclinic
loop_
_symmetry_equiv_pos_as_xyz
  x,y,z
_cell_length_a	17.699083
_cell_length_b	17.699083
_cell_length_c	16.176319
_cell_angle_alpha	89.992304
_cell_angle_beta	89.998611
_cell_angle_gamma	83.283015
loop_
_atom_site_label
_atom_site_type_symbol
_atom_site_fract_x
_atom_site_fract_y
_atom_site_fract_z
O1	O	1.004079	0.095713	-0.068632
O2	O	0.783700	0.108166	-0.068660
O3	O	0.900116	-0.008250	-0.068638
O4	O	0.887663	0.212129	-0.068654
O5	O	0.900100	-0.008257	0.068855
O6	O	0.783684	0.108158	0.068834
O7	O	1.004063	0.095706	0.068861
Cu8	Cu	0.893872	0.101931	0.081401
Cu9	Cu	0.893891	0.101940	-0.081200
O10	O	0.887647	0.212121	0.068839
C11	C	0.755495	0.107716	0.000084
C12	C	0.671477	0.106377	0.000073
C13	C	0.899662	-0.036451	0.000109
C14	C	0.898323	-0.120469	0.000109
C15	C	0.622856	0.174710	0.000069
C16	C	0.543913	0.173448	0.000079
C17	C	0.513592	0.103852	0.000089
C18	C	0.562219	0.035513	0.000096
C19	C	0.641161	0.036776	0.000091
C20	C	0.243856	0.030418	0.000117
C21	C	0.164908	0.029160	0.000120
C22	C	0.146608	0.167090	0.000105
C23	C	0.225550	0.168353	0.000100
C24	C	0.274170	0.100015	0.000112
C25	C	0.359769	0.101384	0.000102
C26	C	0.427995	0.102481	0.000093
C27	C	0.966656	-0.169090	0.000119
C28	C	0.965394	-0.248033	0.000111
C29	C	0.895798	-0.278354	0.000100
C30	C	0.827459	-0.229727	0.000088
C31	C	0.828722	-0.150785	0.000089
C32	C	0.822364	-0.548090	0.000080
C33	C	0.821106	-0.627038	0.000081
C34	C	0.959036	-0.645338	0.000102
C35	C	0.960299	-0.566396	0.000104
C36	C	0.891961	-0.517776	0.000087
C37	C	0.893330	-0.432177	0.000094
C38	C	0.894427	-0.363951	0.000099
C39	C	1.032268	0.096156	0.000116
C40	C	1.116286	0.097494	0.000121
C41	C	0.888102	0.240322	0.000091
C42	C	0.889440	0.324340	0.000085
N43	N	0.893864	0.101925	0.195767
N44	N	0.893905	0.101941	-0.195565
C45	C	0.945429	0.050397	0.239040
C46	C	0.945432	0.050396	0.325588
C47	C	0.893875	0.101927	0.368859
C48	C	0.842305	0.153457	0.325579
C49	C	0.842299	0.153454	0.239034
C50	C	0.842331	0.153472	0.674608
C51	C	0.842344	0.153473	0.761159
C52	C	0.945465	0.050414	0.761161
C53	C	0.945458	0.050410	0.674616
C54	C	0.893886	0.101937	0.631344
C55	C	0.893882	0.101937	0.537499
C56	C	0.893883	0.101932	0.462702
H57	H	0.504328	0.229092	0.000075
H58	H	0.764429	-0.651721	0.000074
H59	H	0.800323	0.195413	0.360816
H60	H	0.766718	-0.508512	0.000067
C61	C	1.034210	-0.698819	0.000111
H62	H	1.075838	-0.669453	0.000127
H63	H	1.036595	-0.729989	-0.047836
H64	H	1.036577	-0.730000	0.048063
C65	C	0.258903	0.244907	0.000087
H66	H	0.312881	0.235871	0.000077
H67	H	0.242208	0.273037	0.048031
H68	H	0.242203	0.273037	-0.047869
H69	H	0.647537	0.231384	0.000060
H70	H	0.800341	0.195428	0.639382
C71	C	1.002147	-0.006281	0.191445
H72	H	0.994765	0.001101	0.133703
H73	H	0.994030	-0.056786	0.205637
H74	H	1.052642	0.001887	0.205625
H75	H	0.107012	0.222734	0.000100
C76	C	1.036854	-0.533047	0.000112
H77	H	1.077372	-0.573311	0.000109
H78	H	1.040211	-0.502636	0.048058
H79	H	1.040215	-0.502629	-0.047842
C80	C	0.785581	0.210137	0.191433
H81	H	0.754881	0.240833	0.229597
H82	H	0.754126	0.182949	0.157680
H83	H	0.812749	0.241611	0.157663
C84	C	0.131557	-0.047400	0.000138
H85	H	0.171819	-0.087919	0.000153
H86	H	0.101141	-0.050761	-0.047806
H87	H	0.101143	-0.050752	0.048094
C88	C	0.750904	-0.263077	0.000078
H89	H	0.759938	-0.317056	0.000088
H90	H	0.722778	-0.246375	-0.047872
H91	H	0.722772	-0.246383	0.048028
C92	C	0.753556	-0.097302	0.000081
H93	H	0.711925	-0.126664	0.000081
H94	H	0.751188	-0.066120	-0.047866
H95	H	0.751175	-0.066132	0.048034
C96	C	0.297328	-0.044751	0.000124
H97	H	0.267962	-0.086379	0.000122
H98	H	0.328505	-0.047130	0.048070
H99	H	0.328503	-0.047125	-0.047830
C100	C	0.785626	0.210155	0.808761
H101	H	0.793024	0.202780	0.866501
H102	H	0.735130	0.201994	0.794591
H103	H	0.793748	0.260662	0.794566
H104	H	1.021038	-0.287618	0.000121
H105	H	0.680748	-0.018868	0.000095
C106	C	0.528869	-0.041041	0.000105
H107	H	0.474890	-0.032008	0.000099
H108	H	0.545567	-0.069176	0.048053
H109	H	0.545567	-0.069166	-0.047847
C110	C	1.002160	-0.006277	0.373185
H111	H	1.032872	-0.036959	0.335019
H112	H	0.975006	-0.037754	0.406959
H113	H	1.033614	0.020923	0.406934
H114	H	1.023330	-0.144409	0.000133
C115	C	1.002169	-0.006276	0.627021
H116	H	1.032875	-0.036970	0.665190
H117	H	1.033619	0.020907	0.593247
H118	H	0.974992	-0.037751	0.593273
H119	H	0.987456	0.008455	0.796403
