data_functionalizedCrystal
_audit_creation_method	'MofGen! by Chris Wilmer'
_symmetry_space_group_name_H-M	'P1'
_symmetry_Int_Tables_number	1
_symmetry_cell_setting	triclinic
loop_
_symmetry_equiv_pos_as_xyz
  x,y,z
_cell_length_a	17.019383
_cell_length_b	17.019294
_cell_length_c	15.072220
_cell_angle_alpha	86.119892
_cell_angle_beta	86.111534
_cell_angle_gamma	83.133350
loop_
_atom_site_label
_atom_site_type_symbol
_atom_site_fract_x
_atom_site_fract_y
_atom_site_fract_z
O1	O	1.046574	0.100545	-0.161347
O2	O	1.546574	0.600545	0.338653
O3	O	0.816896	0.113349	-0.144796
O4	O	1.316896	0.613349	0.355204
O5	O	0.938141	-0.007892	-0.144782
O6	O	1.438141	0.492108	0.355218
O7	O	0.925329	0.221786	-0.161361
O8	O	1.425329	0.721786	0.338639
O9	O	0.938111	-0.007885	0.002784
O10	O	1.438111	0.492115	0.502784
O11	O	0.816866	0.113356	0.002771
O12	O	1.316866	0.613356	0.502771
O13	O	1.046545	0.100552	-0.013781
O14	O	1.546545	0.600552	0.486219
Zn15	Zn	0.931700	0.106955	0.017925
Zn16	Zn	1.431700	0.606955	0.517925
Zn17	Zn	0.931740	0.106946	-0.176501
Zn18	Zn	1.431740	0.606946	0.323499
O19	O	0.925299	0.221793	-0.013794
O20	O	1.425299	0.721793	0.486206
C21	C	0.787492	0.112865	-0.068732
C22	C	1.287492	0.612865	0.431268
C23	C	0.699924	0.111403	-0.061937
C24	C	1.199924	0.611403	0.438063
C25	C	0.658793	0.110715	-0.139177
C26	C	1.158793	0.610715	0.360823
C27	C	0.576512	0.109354	-0.132780
C28	C	1.076512	0.609354	0.367220
C29	C	0.535363	0.108676	-0.049142
C30	C	1.035363	0.608676	0.450858
C31	C	0.576499	0.109367	0.028103
C32	C	1.076499	0.609367	0.528103
C33	C	0.658779	0.110733	0.021705
C34	C	1.158779	0.610733	0.521705
C35	C	0.286932	0.104555	-0.025800
C36	C	0.786932	0.604555	0.474200
C37	C	0.204647	0.103186	-0.019407
C38	C	0.704647	0.603186	0.480593
C39	C	0.204665	0.103175	-0.180292
C40	C	0.704665	0.603175	0.319708
C41	C	0.286946	0.104537	-0.186682
C42	C	0.786946	0.604537	0.313318
C43	C	0.328075	0.105232	-0.109437
C44	C	0.828075	0.605232	0.390563
C45	C	0.451259	0.107282	-0.042601
C46	C	0.951259	0.607282	0.457399
C47	C	0.412177	0.106631	-0.115979
C48	C	0.912177	0.606631	0.384021
C49	C	0.937640	-0.037277	-0.068717
C50	C	1.437640	0.462723	0.431283
C51	C	0.936181	-0.124845	-0.061918
C52	C	1.436181	0.375155	0.438082
C53	C	0.935514	-0.165984	-0.139162
C54	C	1.435514	0.334016	0.360838
C55	C	0.934139	-0.248264	-0.132770
C56	C	1.434139	0.251736	0.367230
C57	C	0.933436	-0.289403	-0.049134
C58	C	1.433436	0.210597	0.450866
C59	C	0.934101	-0.248258	0.028116
C60	C	1.434101	0.251742	0.528116
C61	C	0.935471	-0.165979	0.021724
C62	C	1.435471	0.334021	0.521724
C63	C	0.929294	-0.537830	-0.025809
C64	C	1.429294	-0.037830	0.474191
C65	C	0.927926	-0.620114	-0.019422
C66	C	1.427926	-0.120114	0.480578
C67	C	0.927963	-0.620114	-0.180309
C68	C	1.427963	-0.120114	0.319691
C69	C	0.929337	-0.537835	-0.186694
C70	C	1.429337	-0.037835	0.313306
C71	C	0.929998	-0.496696	-0.109444
C72	C	1.429998	0.003304	0.390556
C73	C	0.932032	-0.373506	-0.042599
C74	C	1.432032	0.126494	0.457401
C75	C	0.931396	-0.412594	-0.115980
C76	C	1.431396	0.087406	0.384020
C77	C	1.075948	0.101036	-0.089846
C78	C	1.575948	0.601036	0.410154
C79	C	1.163516	0.102498	-0.096647
C80	C	1.663516	0.602498	0.403353
C81	C	0.925800	0.251178	-0.089861
C82	C	1.425800	0.751178	0.410139
C83	C	0.927259	0.338747	-0.096666
C84	C	1.427259	0.838747	0.403334
N85	N	0.931679	0.106961	0.150615
N86	N	1.431679	0.606961	0.650615
N87	N	0.931767	0.106934	-0.309191
N88	N	1.431767	0.606934	0.190809
C89	C	0.931738	0.106943	0.509813
C90	C	1.431738	0.606943	1.009813
C91	C	0.866645	0.171600	0.472232
C92	C	1.366645	0.671600	0.972232
C93	C	0.866794	0.171835	0.369377
C94	C	1.366794	0.671835	0.869377
C95	C	0.931708	0.106952	0.331610
C96	C	1.431708	0.606952	0.831610
C97	C	1.013996	0.124840	0.361254
C98	C	1.513996	0.624840	0.861254
C99	C	1.013631	0.125300	0.464104
C100	C	1.513631	0.625300	0.964104
C101	C	0.915278	0.024206	0.479494
C102	C	1.415278	0.524206	0.979494
C103	C	0.913389	0.024760	0.376732
C104	C	1.413389	0.524760	0.876732
C105	C	0.931697	0.106955	0.230898
C106	C	1.431697	0.606955	0.730898
C107	C	0.931755	0.106941	0.610525
C108	C	1.431755	0.606941	1.110525
H109	H	0.445683	0.107188	-0.184077
H110	H	0.945683	0.607188	0.315923
C111	C	0.784153	0.157469	0.342721
C112	C	1.284153	0.657469	0.842721
N113	N	0.721902	0.146653	0.322649
N114	N	1.221902	0.646653	0.822649
C115	C	0.835964	0.000955	0.522404
C116	C	1.335964	0.500955	1.022404
N117	N	0.776221	-0.016549	0.554722
N118	N	1.276221	0.483451	1.054722
H119	H	0.692266	0.111298	0.084602
H120	H	1.192266	0.611298	0.584602
C121	C	0.927227	-0.665372	-0.265278
C122	C	1.427227	-0.165372	0.234722
N123	N	0.926669	-0.699460	-0.329279
N124	N	1.426669	-0.199460	0.170721
H125	H	0.933599	-0.281756	-0.195671
H126	H	1.433599	0.218244	0.304329
C127	C	0.332164	0.105311	0.059174
C128	C	0.832164	0.605311	0.559174
N129	N	0.366236	0.105877	0.123180
N130	N	0.866236	0.605877	0.623180
H131	H	0.417747	0.106728	0.025497
H132	H	0.917747	0.606728	0.525497
C133	C	0.931259	-0.418767	0.049399
C134	C	1.431259	0.081233	0.549399
N135	N	0.930674	-0.452861	0.118692
N136	N	1.430674	0.047139	0.618692
H137	H	0.929911	-0.504345	-0.254800
H138	H	1.429911	-0.004345	0.245200
H139	H	0.927350	-0.653607	0.048688
H140	H	1.427350	-0.153607	0.548688
C141	C	0.936287	-0.120739	-0.231169
C142	C	1.436287	0.379261	0.268831
N143	N	0.936866	-0.086661	-0.300471
N144	N	1.436866	0.413339	0.199529
H145	H	0.171144	0.102657	0.048703
H146	H	0.671144	0.602657	0.548703
H147	H	0.929847	-0.504347	0.037093
H148	H	1.429847	-0.004347	0.537093
H149	H	0.320444	0.105083	-0.254789
H150	H	0.820444	0.605083	0.245211
H151	H	0.931962	-0.379094	-0.184076
H152	H	1.431962	0.120906	0.315924
H153	H	0.542989	0.108820	0.096203
H154	H	1.042989	0.608820	0.596203
C155	C	0.704049	0.111459	-0.231186
C156	C	1.204049	0.611459	0.268814
N157	N	0.738133	0.112023	-0.300490
N158	N	1.238133	0.612023	0.199510
H159	H	0.933524	-0.281759	0.096215
H160	H	1.433524	0.218241	0.596215
C161	C	0.936207	-0.120727	0.106698
C162	C	1.436207	0.379273	0.606698
N163	N	0.936759	-0.086644	0.170704
N164	N	1.436759	0.413356	0.670704
H165	H	0.852857	0.011182	0.358018
H166	H	1.352857	0.511182	0.858018
H167	H	0.805278	0.161131	0.502477
H168	H	1.305278	0.661131	1.002477
H169	H	0.877001	0.232654	0.492613
H170	H	1.377001	0.732654	0.992613
C171	C	0.880985	0.254783	0.328697
C172	C	1.380985	0.754783	0.828697
N173	N	0.891679	0.317262	0.298057
N174	N	1.391679	0.817262	0.798057
H175	H	0.957727	-0.025602	0.351489
H176	H	1.457727	0.474398	0.851489
H177	H	1.028150	0.185637	0.482366
H178	H	1.528150	0.685637	0.982366
C179	C	1.081044	0.064114	0.497244
C180	C	1.581044	0.564114	0.997244
N181	N	1.131827	0.018039	0.522199
N182	N	1.631827	0.518039	1.022199
C183	C	1.080995	0.062910	0.327817
C184	C	1.580995	0.562910	0.827817
N185	N	1.131457	0.016264	0.302630
N186	N	1.631457	0.516264	0.802630
H187	H	1.028864	0.184489	0.329790
H188	H	1.528864	0.684489	0.829790
C189	C	0.979404	-0.040796	0.512427
C190	C	1.479404	0.459204	1.012427
N191	N	1.027705	-0.089749	0.537238
N192	N	1.527705	0.410251	1.037238
H193	H	0.543026	0.108793	-0.195677
H194	H	1.043026	0.608793	0.304323
H195	H	0.171169	0.102611	-0.243180
H196	H	0.671169	0.602611	0.256820
