data_functionalizedCrystal
_audit_creation_method	'MofGen! by Chris Wilmer'
_symmetry_space_group_name_H-M	'P1'
_symmetry_Int_Tables_number	1
_symmetry_cell_setting	triclinic
loop_
_symmetry_equiv_pos_as_xyz
  x,y,z
_cell_length_a	18.215407
_cell_length_b	16.625545
_cell_length_c	18.215399
_cell_angle_alpha	90.026887
_cell_angle_beta	90.019833
_cell_angle_gamma	90.026006
loop_
_atom_site_label
_atom_site_type_symbol
_atom_site_fract_x
_atom_site_fract_y
_atom_site_fract_z
Zn1	Zn	1.125069	-0.321000	0.416121
Zn2	Zn	1.124975	-0.455841	0.293057
Zn3	Zn	1.002001	-0.321027	0.293069
Zn4	Zn	1.001966	-0.455796	0.416082
O5	O	1.063503	-0.388416	0.354582
O6	O	1.228040	-0.338895	0.399808
O7	O	1.108639	-0.437987	0.190074
O8	O	1.018380	-0.208191	0.309413
O9	O	1.227972	-0.437961	0.309394
O10	O	1.108797	-0.208171	0.399819
O11	O	1.018290	-0.338940	0.190083
O12	O	0.899012	-0.338896	0.309375
O13	O	1.018319	-0.437885	0.519072
O14	O	0.898986	-0.437910	0.399753
O15	O	1.108763	-0.338851	0.519100
O16	O	1.108604	-0.568667	0.309356
O17	O	1.018229	-0.568634	0.399742
C18	C	0.872296	-0.388402	0.354561
C19	C	0.790497	-0.388415	0.354570
C20	C	0.602309	-0.440053	0.401570
C21	C	0.525450	-0.440056	0.401579
C22	C	0.525448	-0.336793	0.307611
C23	C	0.602305	-0.336787	0.307606
C24	C	0.640734	-0.388422	0.354584
C25	C	0.487018	-0.388430	0.354598
C26	C	0.403684	-0.388433	0.354608
C27	C	0.724073	-0.388418	0.354576
C28	C	1.063423	-0.597907	0.354559
C29	C	1.063456	-0.687528	0.354574
C30	C	1.063484	-0.760310	0.354589
C31	C	1.063527	-0.851619	0.354605
C32	C	1.063565	-0.924395	0.354614
C33	C	1.063608	-1.015709	0.354629
C34	C	1.255456	-0.388430	0.354604
C35	C	1.337254	-0.388436	0.354613
C36	C	1.063547	-0.388360	0.546535
C37	C	1.063567	-0.388336	0.628334
C38	C	1.063603	-0.178107	0.354622
C39	C	1.063646	-0.088486	0.354639
C40	C	1.063500	-0.388413	0.163376
C41	C	1.063624	-0.388210	0.081578
C42	C	1.110677	-0.336721	0.816544
C43	C	1.110686	-0.336698	0.893403
C44	C	1.016508	-0.439827	0.893362
C45	C	1.016496	-0.439846	0.816505
C46	C	1.063585	-0.388294	0.778098
C47	C	1.063606	-0.388252	0.931814
C48	C	1.063615	-0.388227	1.015148
C49	C	1.063575	-0.388318	0.694759
H50	H	0.494168	-0.482098	0.439841
H51	H	0.633592	-0.294737	0.269344
H52	H	1.149018	-0.294743	0.785276
H53	H	0.633595	-0.482096	0.439825
H54	H	0.494150	-0.294755	0.269361
C55	C	0.964691	-0.496580	0.774207
C56	C	0.912902	-0.553292	0.816450
C57	C	0.861098	-0.610021	0.774152
C58	C	0.861083	-0.610038	0.689612
C59	C	0.912875	-0.553324	0.647365
C60	C	0.964679	-0.496595	0.689663
H61	H	0.912911	-0.553282	0.879036
H62	H	0.822758	-0.652005	0.805427
H63	H	0.822735	-0.652032	0.658301
H64	H	0.912866	-0.553335	0.584779
H65	H	1.003018	-0.454612	0.658388
C66	C	1.162491	-0.279969	0.935694
C67	C	1.220260	-0.314896	0.988538
C68	C	1.272067	-0.258163	1.030827
C69	C	1.266106	-0.166504	1.020273
C70	C	1.208335	-0.131572	0.967427
C71	C	1.156528	-0.188305	0.925137
H72	H	1.224675	-0.382752	0.996353
H73	H	1.314833	-0.284022	1.069948
H74	H	1.304456	-0.124507	1.051579
H75	H	1.203920	-0.063716	0.959612
H76	H	1.113762	-0.162446	0.886017
C77	C	0.964723	-0.496538	0.935618
C78	C	0.996604	-0.559826	0.988444
C79	C	0.944823	-0.616541	1.030700
C80	C	0.861160	-0.609968	1.020130
C81	C	0.829275	-0.546677	0.967302
C82	C	0.881056	-0.489962	0.925046
H83	H	1.058540	-0.564694	0.996270
H84	H	0.968427	-0.663392	1.069807
H85	H	0.822828	-0.651951	1.051411
H86	H	0.767339	-0.541809	0.959476
H87	H	0.857452	-0.443111	0.885939
