data_functionalizedCrystal
_audit_creation_method	'MofGen! by Chris Wilmer'
_symmetry_space_group_name_H-M	'P1'
_symmetry_Int_Tables_number	1
_symmetry_cell_setting	triclinic
loop_
_symmetry_equiv_pos_as_xyz
  x,y,z
_cell_length_a	23.532407
_cell_length_b	14.044220
_cell_length_c	12.503552
_cell_angle_alpha	86.160109
_cell_angle_beta	86.507167
_cell_angle_gamma	91.981222
loop_
_atom_site_label
_atom_site_type_symbol
_atom_site_fract_x
_atom_site_fract_y
_atom_site_fract_z
O1	O	0.134225	-1.261909	0.089227
O2	O	0.634225	-0.761909	0.589227
O3	O	0.129272	-0.985988	0.089253
O4	O	0.629272	-0.485988	0.589253
O5	O	0.049268	-1.132268	0.089220
O6	O	0.549268	-0.632268	0.589220
O7	O	0.214228	-1.115630	0.089261
O8	O	0.714228	-0.615630	0.589261
O9	O	0.055290	-1.121254	-0.089420
O10	O	0.555290	-0.621254	0.410580
O11	O	0.135293	-0.974975	-0.089387
O12	O	0.635293	-0.474975	0.410613
O13	O	0.140246	-1.250896	-0.089413
O14	O	0.640246	-0.750896	0.410587
Cu15	Cu	0.138320	-1.111930	-0.105711
Cu16	Cu	0.638320	-0.611930	0.394289
Cu17	Cu	0.131198	-1.124955	0.105551
Cu18	Cu	0.631198	-0.624955	0.605551
O19	O	0.220250	-1.104616	-0.089379
O20	O	0.720250	-0.604616	0.410621
C21	C	0.130115	-0.945188	-0.000063
C22	C	0.630115	-0.445188	0.499937
C23	C	0.123648	-0.840023	-0.000054
C24	C	0.623648	-0.340023	0.499946
C25	C	0.031040	-1.126337	-0.000103
C26	C	0.531040	-0.626337	0.499897
C27	C	-0.032246	-1.125063	-0.000111
C28	C	0.467754	-0.625063	0.499889
N29	N	0.143329	-1.102775	-0.254302
N30	N	0.643329	-0.602775	0.245698
C31	C	-0.427092	-1.203641	-0.000060
C32	C	0.072908	-0.703641	0.499940
C33	C	-0.486556	-1.202458	-0.000051
C34	C	0.013444	-0.702458	0.499949
O35	O	-0.519354	-1.275300	-0.000019
O36	O	-0.019354	-0.775300	0.499981
N37	N	-0.513896	-1.115494	-0.000044
N38	N	-0.013896	-0.615494	0.499956
C39	C	-0.481769	-1.029708	-0.000034
C40	C	0.018231	-0.529708	0.499966
O41	O	-0.510484	-0.955630	-0.000026
O42	O	-0.010484	-0.455630	0.499974
C43	C	-0.422305	-1.030893	-0.000034
C44	C	0.077695	-0.530893	0.499966
C45	C	-0.394968	-1.117862	-0.000053
C46	C	0.105032	-0.617862	0.499947
C47	C	-0.399754	-1.290603	-0.000077
C48	C	0.100246	-0.790603	0.499923
C49	C	-0.340294	-1.291786	-0.000087
C50	C	0.159706	-0.791786	0.499913
C51	C	-0.308170	-1.206006	-0.000080
C52	C	0.191830	-0.706006	0.499920
C53	C	-0.335508	-1.119044	-0.000063
C54	C	0.164492	-0.619044	0.499937
C55	C	-0.390179	-0.945109	-0.000016
C56	C	0.109821	-0.445109	0.499984
C57	C	-0.330712	-0.946301	-0.000016
C58	C	0.169288	-0.446301	0.499984
C59	C	-0.303375	-1.033270	-0.000035
C60	C	0.196625	-0.533270	0.499965
C61	C	-0.243924	-1.034447	-0.000066
C62	C	0.256076	-0.534447	0.499934
N63	N	-0.216584	-1.121411	-0.000074
N64	N	0.283416	-0.621411	0.499926
C65	C	-0.248707	-1.207191	-0.000081
C66	C	0.251293	-0.707191	0.499919
C67	C	-0.606646	-1.027228	-0.000031
C68	C	-0.106646	-0.527228	0.499969
C69	C	-0.666108	-1.026042	-0.000038
C70	C	-0.166108	-0.526042	0.499962
C71	C	-0.670891	-1.198792	-0.000053
C72	C	-0.170891	-0.698792	0.499947
C73	C	-0.611428	-1.199976	-0.000054
C74	C	-0.111428	-0.699976	0.499946
C75	C	-0.579306	-1.114192	-0.000038
C76	C	-0.079306	-0.614192	0.499962
C77	C	-0.123835	-1.209668	-0.000103
C78	C	0.376165	-0.709668	0.499897
C79	C	-0.064369	-1.210842	-0.000118
C80	C	0.435631	-0.710842	0.499882
C81	C	-0.059591	-1.038093	-0.000097
C82	C	0.440409	-0.538093	0.499903
C83	C	-0.119052	-1.036917	-0.000088
C84	C	0.380948	-0.536917	0.499912
C85	C	-0.151173	-1.122713	-0.000087
C86	C	0.348827	-0.622713	0.499913
O87	O	-0.211090	-0.961644	-0.000095
O88	O	0.288910	-0.461644	0.499905
O89	O	-0.219985	-1.281258	-0.000075
O90	O	0.280015	-0.781258	0.499925
C91	C	0.238478	-1.110547	-0.000054
C92	C	0.738478	-0.610547	0.499946
C93	C	0.301763	-1.111822	-0.000039
C94	C	0.801763	-0.611822	0.499961
C95	C	0.139403	-1.291696	-0.000094
C96	C	0.639403	-0.791696	0.499906
C97	C	0.145869	-1.396861	-0.000096
C98	C	0.645869	-0.896861	0.499904
C99	C	0.111828	-0.647472	-0.000078
C100	C	0.611828	-0.147472	0.499922
C101	C	0.157687	-0.589407	-0.000072
C102	C	0.657687	-0.089407	0.499928
C103	C	0.151110	-0.482265	-0.000085
C104	C	0.651110	0.017735	0.499915
C105	C	0.118404	-0.754624	-0.000065
C106	C	0.618404	-0.254624	0.499935
C107	C	0.118815	-1.147578	-0.526745
C108	C	0.618815	-0.647578	-0.026745
C109	C	0.150697	-1.089317	-0.473408
C110	C	0.650697	-0.589317	0.026592
C111	C	0.146596	-1.096807	-0.351486
C112	C	0.646596	-0.596807	0.148514
C113	C	0.122915	-1.140089	-0.648678
C114	C	0.622915	-0.640089	-0.148678
N115	N	0.126185	-1.134116	0.254142
N116	N	0.626185	-0.634116	0.754142
H117	H	-0.042114	-1.281666	-0.000136
H118	H	0.457886	-0.781666	0.499864
Cl119	Cl	0.043590	-0.599990	-0.000097
Cl120	Cl	0.543590	-0.099990	0.499903
H121	H	0.181073	-1.033814	-0.519311
H122	H	0.681073	-0.533814	-0.019311
H123	H	0.088442	-1.203078	-0.480848
H124	H	0.588442	-0.703078	0.019152
H125	H	-0.318041	-1.362605	-0.000098
H126	H	0.181959	-0.862605	0.499902
Cl127	Cl	-0.164207	-1.317526	-0.000105
Cl128	Cl	0.335793	-0.817526	0.499895
H129	H	-0.589174	-1.270794	-0.000068
H130	H	-0.089174	-0.770794	0.499932
H131	H	-0.425903	-1.360460	-0.000079
H132	H	0.074097	-0.860460	0.499921
Cl133	Cl	-0.566269	-0.919371	-0.000023
Cl134	Cl	-0.066269	-0.419371	0.499977
Cl135	Cl	-0.019196	-0.930262	-0.000086
Cl136	Cl	0.480804	-0.430262	0.499914
Cl137	Cl	-0.711286	-1.306630	-0.000055
Cl138	Cl	-0.211286	-0.806630	0.499945
H139	H	-0.412427	-0.874290	0.000005
H140	H	0.087573	-0.374290	0.500005
Cl141	Cl	-0.700466	-0.916703	-0.000035
Cl142	Cl	-0.200466	-0.416703	0.499965
Cl143	Cl	-0.290334	-0.838449	0.000005
Cl144	Cl	0.209666	-0.338449	0.500005
H145	H	-0.141310	-0.966098	-0.000102
H146	H	0.358690	-0.466098	0.499898
H147	H	0.201888	-0.620163	-0.000055
H148	H	0.701888	-0.120163	0.499945
