data_functionalizedCrystal
_audit_creation_method	'MofGen! by Chris Wilmer'
_symmetry_space_group_name_H-M	'P1'
_symmetry_Int_Tables_number	1
_symmetry_cell_setting	triclinic
loop_
_symmetry_equiv_pos_as_xyz
  x,y,z
_cell_length_a	10.654550
_cell_length_b	10.654559
_cell_length_c	9.130313
_cell_angle_alpha	89.995735
_cell_angle_beta	89.998999
_cell_angle_gamma	84.486794
loop_
_atom_site_label
_atom_site_type_symbol
_atom_site_fract_x
_atom_site_fract_y
_atom_site_fract_z
O1	O	1.667834	0.176403	-0.121911
O2	O	1.302356	0.193209	-0.121886
O3	O	1.493492	0.002068	-0.121899
O4	O	1.476698	0.367545	-0.121898
O5	O	1.493502	0.002051	0.121700
O6	O	1.302366	0.193193	0.121713
O7	O	1.667844	0.176387	0.121688
Cu8	Cu	1.485106	0.184788	0.143943
Cu9	Cu	1.485094	0.184808	-0.144141
O10	O	1.476708	0.367528	0.121701
C11	C	1.255563	0.191967	-0.000084
C12	C	1.116119	0.188275	-0.000075
C13	C	1.036637	0.300816	-0.000096
C14	C	0.905616	0.297340	-0.000121
C15	C	0.933572	0.068771	-0.000111
C16	C	1.064591	0.072249	-0.000075
C17	C	1.088166	0.416842	-0.000096
C18	C	1.008683	0.529393	-0.000119
C19	C	0.877662	0.525916	-0.000144
C20	C	0.826124	0.409889	-0.000147
C21	C	1.492261	-0.044738	-0.000103
C22	C	1.488565	-0.184181	-0.000112
C23	C	1.372552	-0.235721	-0.000108
C24	C	1.369087	-0.366743	-0.000096
C25	C	1.597656	-0.394675	-0.000099
C26	C	1.601120	-0.263655	-0.000100
C27	C	1.240590	-0.219595	-0.000112
C28	C	1.237124	-0.350618	-0.000101
C29	C	1.714637	0.177629	-0.000117
C30	C	1.854080	0.181321	-0.000136
C31	C	1.477938	0.414334	-0.000099
C32	C	1.481635	0.553777	-0.000099
N33	N	1.485086	0.184812	-0.346764
C34	C	1.561770	0.261838	-0.423435
C35	C	1.561785	0.261822	-0.576772
C36	C	1.408431	0.107745	-0.576752
C37	C	1.408410	0.107768	-0.423418
C38	C	1.650311	0.350789	-0.423447
C39	C	1.650327	0.350774	-0.576784
N40	N	1.485123	0.184774	0.346565
H41	H	0.891599	-0.025693	-0.000137
H42	H	1.185509	-0.379979	-0.102037
O43	O	1.333768	0.033047	-0.651151
C44	C	1.122119	-0.018423	-0.698003
C45	C	1.206527	0.066281	-0.613689
H46	H	1.019230	0.008398	-0.667723
H47	H	1.135189	-0.005199	-0.820784
H48	H	1.149470	-0.121250	-0.667844
H49	H	1.179229	0.169139	-0.643725
H50	H	1.193445	0.052948	-0.490928
H51	H	1.050654	0.623858	-0.000104
H52	H	1.194848	0.419686	-0.000082
O53	O	1.713847	-0.213652	-0.000347
C54	C	1.910311	-0.197500	-0.126476
C55	C	1.782674	-0.254185	-0.126401
H56	H	1.966004	-0.230270	-0.228364
H57	H	1.893536	-0.090199	-0.126569
H58	H	1.965921	-0.230137	-0.024478
H59	H	1.726997	-0.221645	-0.228382
H60	H	1.799538	-0.361479	-0.126232
H61	H	1.129308	-0.019392	-0.000061
O62	O	1.334056	0.032770	-0.349000
C63	C	1.283442	-0.179166	-0.302153
C64	C	1.367758	-0.094380	-0.386499
H65	H	1.310641	-0.281981	-0.332463
H66	H	1.296652	-0.166067	-0.179377
H67	H	1.180537	-0.152196	-0.332253
H68	H	1.470693	-0.121296	-0.356522
H69	H	1.354439	-0.107490	-0.509255
O70	O	1.186904	-0.392926	0.125438
C71	C	1.096260	-0.338234	0.361421
C72	C	1.153074	-0.290144	0.219311
H73	H	1.068917	-0.255163	0.437369
H74	H	1.008981	-0.387768	0.334130
H75	H	1.168915	-0.407402	0.418012
H76	H	1.080513	-0.220931	0.162650
H77	H	1.240378	-0.240685	0.246697
O78	O	1.613117	0.468956	-0.374076
C79	C	1.545529	0.684276	-0.438174
C80	C	1.587606	0.550513	-0.494286
H81	H	1.524917	0.750258	-0.535334
H82	H	1.456757	0.682083	-0.368876
H83	H	1.623859	0.719532	-0.368754
H84	H	1.509362	0.515176	-0.563766
H85	H	1.676413	0.552783	-0.563504
H86	H	1.744940	0.311490	-0.375863
H87	H	0.812949	0.617560	-0.000148
H88	H	1.689294	-0.459399	-0.000089
O89	O	1.603176	0.463512	-0.633735
C90	C	1.642447	0.640975	-0.784894
C91	C	1.695992	0.513306	-0.720524
H92	H	1.717472	0.681284	-0.855052
H93	H	1.556503	0.627031	-0.855277
H94	H	1.613745	0.709171	-0.691908
H95	H	1.724769	0.445045	-0.813417
H96	H	1.781886	0.527349	-0.650103
O97	O	1.768603	0.314071	-0.626172
C98	C	1.984125	0.247374	-0.562102
C99	C	1.850239	0.288894	-0.505973
H100	H	2.050170	0.227033	-0.464951
H101	H	1.982310	0.158559	-0.631395
H102	H	2.019028	0.325889	-0.631533
H103	H	1.815254	0.210464	-0.436482
H104	H	1.852132	0.377743	-0.436760
H105	H	0.719437	0.407068	-0.000145
H106	H	1.200718	-0.173947	-0.105292
H107	H	1.190864	-0.177854	0.101830
