data_functionalizedCrystal
_audit_creation_method	'MofGen! by Chris Wilmer'
_symmetry_space_group_name_H-M	'P1'
_symmetry_Int_Tables_number	1
_symmetry_cell_setting	triclinic
loop_
_symmetry_equiv_pos_as_xyz
  x,y,z
_cell_length_a	6.817900
_cell_length_b	14.858329
_cell_length_c	10.943881
_cell_angle_alpha	93.398329
_cell_angle_beta	108.843448
_cell_angle_gamma	104.519616
loop_
_atom_site_label
_atom_site_type_symbol
_atom_site_fract_x
_atom_site_fract_y
_atom_site_fract_z
V1	V	-4.093477	-0.128644	-0.402920
O2	O	-4.074322	0.006209	-0.394872
O3	O	-4.049730	-0.255105	-0.400529
O4	O	-4.071805	-0.126653	-0.578482
O5	O	-4.052094	-0.123132	-0.215687
V6	V	-4.573039	-0.112515	-0.380481
O7	O	-4.363425	-0.164023	-0.452142
O8	O	-4.753289	-0.077136	-0.331260
O9	O	-4.393580	0.013946	-0.382873
O10	O	-4.709591	-0.247368	-0.388530
O11	O	-4.731818	-0.118027	-0.567715
O12	O	-4.371505	-0.114506	-0.204920
C13	C	-3.894998	-0.285934	-0.394267
C14	C	-3.940694	-0.389318	-0.393481
C15	C	-3.977797	-0.473276	-0.392832
C16	C	-4.024364	-0.578606	-0.392023
C17	C	-4.061495	-0.662558	-0.391380
C18	C	-4.108065	-0.767894	-0.390569
C19	C	-3.923155	-0.122080	-0.621261
C20	C	-3.986750	-0.121289	-0.764786
C21	C	-4.215441	-0.125668	-0.855682
C22	C	-4.115702	-0.045728	-0.921190
C23	C	-4.199752	-0.199763	-0.955000
C24	C	-3.886137	-0.041295	-0.828390
C25	C	-3.970249	-0.195401	-0.862209
C26	C	-3.870342	-0.115438	-0.927669
C27	C	-4.211653	0.044770	-0.389132
C28	C	-4.145197	0.148153	-0.389925
C29	C	-4.183496	-0.119083	-0.162134
C30	C	-4.099139	-0.119869	-0.018608
H31	H	-4.360624	-0.129903	-0.823825
O32	O	-3.696949	-0.110413	-0.965465
C33	C	-3.741662	-0.190439	-1.056884
H34	H	-3.872848	-0.250040	-1.044345
H35	H	-3.588594	-0.213290	-1.040182
H36	H	-3.799698	-0.172698	-1.160047
O37	O	-4.189460	0.029876	-0.952451
C38	C	-4.025713	0.113225	-0.885463
H39	H	-3.906965	0.096993	-0.795163
H40	H	-4.101323	0.166768	-0.854541
H41	H	-3.936442	0.143310	-0.952515
O42	O	-3.727099	0.038617	-0.763094
C43	C	-3.545537	0.044161	-0.800558
H44	H	-3.549593	-0.029322	-0.839884
H45	H	-3.391458	0.075483	-0.712269
H46	H	-3.548744	0.090805	-0.879812
O47	O	-3.896464	-0.270941	-0.830589
C48	C	-4.025838	-0.327568	-0.770438
H49	H	-4.108260	-0.283199	-0.726850
H50	H	-3.920024	-0.357678	-0.689610
H51	H	-4.153841	-0.387616	-0.846210
H52	H	-4.332980	-0.266723	-1.009938
