data_functionalizedCrystal
_audit_creation_method	'MofGen! by Chris Wilmer'
_symmetry_space_group_name_H-M	'P1'
_symmetry_Int_Tables_number	1
_symmetry_cell_setting	triclinic
loop_
_symmetry_equiv_pos_as_xyz
  x,y,z
_cell_length_a	13.032831
_cell_length_b	18.215405
_cell_length_c	18.215399
_cell_angle_alpha	90.030970
_cell_angle_beta	97.190377
_cell_angle_gamma	82.829003
loop_
_atom_site_label
_atom_site_type_symbol
_atom_site_fract_x
_atom_site_fract_y
_atom_site_fract_z
Zn1	Zn	1.597604	-0.436090	0.558718
Zn2	Zn	2.097604	0.063910	1.058718
Zn3	Zn	1.597476	-0.559150	0.435635
Zn4	Zn	2.097476	-0.059150	0.935635
Zn5	Zn	1.422849	-0.420461	0.420066
Zn6	Zn	1.922849	0.079539	0.920066
Zn7	Zn	1.422799	-0.543461	0.543067
Zn8	Zn	1.922799	-0.043461	1.043067
O9	O	1.510182	-0.489791	0.489371
O10	O	2.010182	0.010209	0.989371
O11	O	1.743826	-0.465521	0.555457
O12	O	2.243826	0.034479	1.055457
O13	O	1.574278	-0.540778	0.330582
O14	O	2.074278	-0.040778	0.830582
O15	O	1.446106	-0.319556	0.438492
O16	O	1.946106	0.180444	0.938492
O17	O	1.743731	-0.555933	0.465028
O18	O	2.243731	-0.055933	0.965028
O19	O	1.574497	-0.331039	0.540360
O20	O	2.074497	0.168961	1.040360
O21	O	1.445981	-0.438883	0.319144
O22	O	1.945981	0.061117	0.819144
O23	O	1.276604	-0.423670	0.423316
O24	O	1.776604	0.076330	0.923316
O25	O	1.446021	-0.529193	0.648130
O26	O	1.946021	-0.029193	1.148130
O27	O	1.276568	-0.514038	0.513684
O28	O	1.776568	-0.014038	1.013684
O29	O	1.574449	-0.450308	0.659629
O30	O	2.074449	0.049692	1.159629
O31	O	1.574230	-0.660047	0.449852
O32	O	2.074230	-0.160047	0.949852
O33	O	1.445896	-0.648520	0.528781
O34	O	1.945896	-0.148520	1.028781
C35	C	1.510072	-0.680987	0.489326
C36	C	2.010072	-0.180987	0.989326
C37	C	1.510120	-0.762790	0.489340
C38	C	2.010120	-0.262790	0.989340
C39	C	1.238668	-0.465456	0.465113
C40	C	1.738668	0.034544	0.965113
C41	C	1.122513	-0.455064	0.454752
C42	C	1.622513	0.044936	0.954752
C43	C	1.577101	-0.956976	0.448342
C44	C	2.077101	-0.456976	0.948342
C45	C	1.577147	-1.033838	0.448364
C46	C	2.077147	-0.533838	0.948364
C47	C	1.443397	-1.021865	0.530466
C48	C	1.943397	-0.521865	1.030466
C49	C	1.443357	-0.945004	0.530447
C50	C	1.943357	-0.445004	1.030447
C51	C	1.510207	-0.912561	0.489381
C52	C	2.010207	-0.412561	0.989381
C53	C	1.510294	-1.066285	0.489421
C54	C	2.010294	-0.566285	0.989421
C55	C	1.510344	-1.149623	0.489446
C56	C	2.010344	-0.649623	0.989446
C57	C	1.510158	-0.829218	0.489358
C58	C	2.010158	-0.329218	0.989358
C59	C	1.070737	-0.495215	0.494779
C60	C	1.570737	0.004785	0.994779
C61	C	0.950685	-0.484474	0.484071
C62	C	1.450685	0.015526	0.984071
C63	C	1.782756	-0.514220	0.513725
C64	C	2.282756	-0.014220	1.013725
C65	C	1.898911	-0.524631	0.524103
C66	C	2.398911	-0.024631	1.024103
C67	C	1.510244	-0.489744	0.681330
C68	C	2.010244	0.010256	1.181330
C69	C	1.510270	-0.489724	0.763131
C70	C	2.010270	0.010276	1.263131
C71	C	1.510321	-0.297850	0.489435
C72	C	2.010321	0.202150	0.989435
C73	C	1.510381	-0.216056	0.489463
C74	C	2.010381	0.283944	0.989463
C75	C	1.510181	-0.489789	0.298165
C76	C	2.010181	0.010211	0.798165
C77	C	1.510358	-0.489620	0.216382
C78	C	2.010358	0.010380	0.716382
C79	C	1.577181	-0.448588	1.034181
C80	C	2.077181	0.051412	1.534181
C81	C	1.577169	-0.448607	0.957321
C82	C	2.077169	0.051393	1.457321
C83	C	1.443443	-0.530761	0.945337
C84	C	1.943443	-0.030761	1.445337
C85	C	1.443462	-0.530746	1.022197
C86	C	1.943462	-0.030746	1.522197
C87	C	1.510329	-0.489655	1.066616
C88	C	2.010329	0.010345	1.566616
C89	C	1.510298	-0.489689	0.912897
C90	C	2.010298	0.010311	1.412897
C91	C	1.510284	-0.489710	0.829562
C92	C	2.010284	0.010290	1.329562
C93	C	1.510345	-0.489635	1.149957
C94	C	2.010345	0.010365	1.649957
H95	H	1.631536	-0.930563	0.414904
H96	H	2.131536	-0.430563	0.914904
H97	H	1.389001	-0.564214	0.909162
H98	H	1.889001	-0.064214	1.409162
N99	N	1.649275	-0.404312	0.922342
N100	N	2.149275	0.095688	1.422342
H101	H	1.606824	-0.366413	0.886666
H102	H	2.106824	0.133587	1.386666
H103	H	1.697667	-0.438615	0.894816
H104	H	2.197667	0.061385	1.394816
N105	N	1.063512	-0.399002	0.398852
N106	N	1.563512	0.100998	0.898852
H107	H	1.082475	-0.348117	0.412053
H108	H	1.582475	0.151883	0.912053
H109	H	0.986133	-0.399345	0.399152
H110	H	1.486133	0.100655	0.899152
N111	N	1.649296	-0.404270	1.082092
N112	N	2.149296	0.095730	1.582092
H113	H	1.691644	-0.378257	1.049879
H114	H	2.191644	0.121743	1.549879
H115	H	1.697647	-0.438548	1.118295
H116	H	2.197647	0.061452	1.618295
H117	H	1.389022	-0.564191	1.048605
H118	H	1.889022	-0.064191	1.548605
H119	H	1.388969	-1.048290	0.563899
H120	H	1.888969	-0.548290	1.063899
H121	H	1.388884	-0.908840	0.563870
H122	H	1.888884	-0.408840	1.063870
N123	N	1.649299	-1.081743	0.404102
N124	N	2.149299	-0.581743	0.904102
H125	H	1.691639	-1.049525	0.378086
H126	H	2.191639	-0.549525	0.878086
H127	H	1.606808	-1.109877	0.366230
H128	H	2.106808	-0.609877	0.866230
H129	H	0.943457	-0.566956	0.566306
H130	H	1.443457	-0.066956	1.066306
N131	N	1.129736	-0.551283	0.550672
N132	N	1.629736	-0.051283	1.050672
H133	H	1.207134	-0.551009	0.550397
H134	H	1.707134	-0.051009	1.050397
H135	H	1.110681	-0.602134	0.537430
H136	H	1.610681	-0.102134	1.037430
H137	H	0.906138	-0.442143	0.441877
H138	H	1.406138	0.057857	0.941877
