data_functionalizedCrystal
_audit_creation_method	'MofGen! by Chris Wilmer'
_symmetry_space_group_name_H-M	'P1'
_symmetry_Int_Tables_number	1
_symmetry_cell_setting	triclinic
loop_
_symmetry_equiv_pos_as_xyz
  x,y,z
_cell_length_a	10.723024
_cell_length_b	11.792254
_cell_length_c	9.198806
_cell_angle_alpha	89.996642
_cell_angle_beta	89.996352
_cell_angle_gamma	84.333234
loop_
_atom_site_label
_atom_site_type_symbol
_atom_site_fract_x
_atom_site_fract_y
_atom_site_fract_z
O1	O	1.656774	0.159191	-0.120884
O2	O	1.293583	0.174429	-0.120889
O3	O	1.483984	0.001660	-0.120876
O4	O	1.466373	0.331960	-0.120897
O5	O	1.483969	0.001659	0.120909
O6	O	1.293567	0.174429	0.120896
O7	O	1.656759	0.159191	0.120901
Cu8	Cu	1.475162	0.166810	0.142976
Cu9	Cu	1.475180	0.166810	-0.142963
O10	O	1.466358	0.331960	0.120888
C11	C	1.247078	0.173320	0.000003
C12	C	1.108533	0.170002	0.000001
C13	C	1.482867	-0.040634	0.000016
C14	C	1.479546	-0.166654	0.000015
C15	C	1.033299	0.266675	-0.000006
C16	C	0.890105	0.263248	-0.000007
C17	C	1.476849	-0.268996	0.000010
C18	C	1.473475	-0.397390	-0.000004
C19	C	1.703264	0.160300	0.000006
C20	C	1.841809	0.163618	-0.000002
C21	C	1.467475	0.374253	-0.000007
C22	C	1.470795	0.500274	-0.000015
N23	N	1.475158	0.166809	0.344090
N24	N	1.475193	0.166802	-0.344077
C25	C	1.555103	0.093948	0.416292
C26	C	1.555123	0.093944	0.583704
H27	H	0.825457	0.346007	-0.000019
H28	H	1.406724	0.229181	0.406213
H29	H	1.623572	0.031569	0.645795
H30	H	1.406750	0.229189	0.593841
O31	O	1.088384	0.379677	-0.000011
H32	H	1.192210	0.364635	-0.000018
O33	O	0.927425	0.053981	0.000021
H34	H	0.987424	0.050527	-0.098517
O35	O	1.053443	0.057002	0.000023
H36	H	1.085168	0.008035	-0.098513
O37	O	1.645718	0.011284	0.334022
H38	H	1.631469	0.024247	0.215440
