data_functionalizedCrystal
_audit_creation_method	'MofGen! by Chris Wilmer'
_symmetry_space_group_name_H-M	'P1'
_symmetry_Int_Tables_number	1
_symmetry_cell_setting	triclinic
loop_
_symmetry_equiv_pos_as_xyz
  x,y,z
_cell_length_a	10.654550
_cell_length_b	15.944551
_cell_length_c	9.130313
_cell_angle_alpha	89.997799
_cell_angle_beta	89.996220
_cell_angle_gamma	83.991820
loop_
_atom_site_label
_atom_site_type_symbol
_atom_site_fract_x
_atom_site_fract_y
_atom_site_fract_z
O1	O	1.666308	0.117973	-0.121923
O2	O	1.300684	0.129213	-0.121900
O3	O	1.493480	0.001376	-0.121899
O4	O	1.473511	0.245810	-0.121924
O5	O	1.493478	0.001379	0.121700
O6	O	1.300681	0.129216	0.121699
O7	O	1.666305	0.117976	0.121676
Cu8	Cu	1.483493	0.123596	0.143930
Cu9	Cu	1.483496	0.123592	-0.144154
O10	O	1.473509	0.245813	0.121675
C11	C	1.253895	0.128389	-0.000098
C12	C	1.114484	0.125920	-0.000088
C13	C	1.034024	0.201188	-0.000117
C14	C	0.903034	0.198863	-0.000142
C15	C	0.932975	0.045995	-0.000116
C16	C	1.063963	0.048321	-0.000080
C17	C	1.016737	0.289446	-0.000139
C18	C	0.885746	0.287121	-0.000164
C19	C	1.492650	-0.029921	-0.000099
C20	C	1.490165	-0.123182	-0.000098
C21	C	1.364720	-0.338765	-0.000111
C22	C	1.422971	-0.399443	0.119995
C23	C	1.485668	-0.293934	-0.000109
C24	C	1.423002	-0.399430	-0.120175
C25	C	1.481317	-0.458872	-0.000126
C26	C	1.543953	-0.353384	0.120095
C27	C	1.543967	-0.353364	-0.120182
C28	C	1.602306	-0.414024	-0.000048
C29	C	1.488172	-0.198917	-0.000098
C30	C	1.478822	-0.553887	-0.000127
C31	C	1.713094	0.118800	-0.000130
C32	C	1.852505	0.121269	-0.000149
C33	C	1.474339	0.277110	-0.000128
C34	C	1.476824	0.370371	-0.000139
N35	N	1.483500	0.123599	0.346552
N36	N	1.483499	0.123583	-0.346777
C37	C	1.568892	0.067012	0.423205
C38	C	1.568889	0.067002	0.576542
C39	C	1.398098	0.180173	0.576560
C40	C	1.398096	0.180178	0.423226
C41	C	1.667501	0.001676	0.423195
C42	C	1.667498	0.001666	0.576532
H43	H	1.045620	0.323965	0.101809
C44	C	1.797613	0.021113	0.632772
C45	C	1.916774	-0.037348	0.592030
C46	C	2.046880	-0.017899	0.648277
C47	C	2.057824	0.060012	0.745265
C48	C	1.938659	0.118478	0.786013
C49	C	1.808553	0.099029	0.729766
H50	H	1.908676	-0.095027	0.520229
H51	H	2.135094	-0.061180	0.618112
H52	H	2.154136	0.074410	0.786902
H53	H	1.946757	0.176157	0.857814
H54	H	1.720339	0.142310	0.759931
H55	H	1.595065	-0.333096	0.221746
C56	C	1.353879	-0.426968	-0.257350
C57	C	1.339867	-0.520974	-0.283173
C58	C	1.270735	-0.548508	-0.420341
C59	C	1.215615	-0.482037	-0.531686
C60	C	1.229626	-0.388025	-0.505866
C61	C	1.298757	-0.360491	-0.368698
H62	H	1.380671	-0.570186	-0.200746
H63	H	1.260364	-0.618102	-0.439454
H64	H	1.164440	-0.502419	-0.633225
H65	H	1.188821	-0.338814	-0.588293
H66	H	1.309129	-0.290897	-0.349585
H67	H	1.646893	-0.062886	0.381583
C68	C	1.304157	0.242417	0.338902
C69	C	1.210281	0.304695	0.423236
C70	C	1.116337	0.366936	0.338910
C71	C	1.116269	0.366898	0.170248
C72	C	1.210149	0.304618	0.085904
C73	C	1.304092	0.242378	0.170231
H74	H	1.210328	0.304725	0.548098
H75	H	1.046842	0.413040	0.401348
H76	H	1.046727	0.412972	0.107825
H77	H	1.210101	0.304588	-0.038957
H78	H	1.373588	0.196274	0.107793
H79	H	0.839729	0.313795	0.105001
H80	H	0.843584	0.320373	-0.102121
H81	H	1.052030	0.317547	-0.105314
H82	H	1.264327	-0.306038	0.000016
C83	C	1.738042	-0.458044	0.000024
C84	C	1.828786	-0.442039	-0.125811
C85	C	1.964519	-0.486061	-0.125734
C86	C	2.009508	-0.546088	0.000179
C87	C	1.918762	-0.562096	0.126024
C88	C	1.783029	-0.518074	0.125946
H89	H	1.795484	-0.397601	-0.219028
H90	H	2.031695	-0.474211	-0.218893
H91	H	2.109986	-0.578676	0.000236
H92	H	1.952064	-0.606534	0.219240
H93	H	1.715854	-0.529924	0.219105
H94	H	1.371814	-0.419846	0.221540
C95	C	1.613018	-0.325761	-0.257366
C96	C	1.562248	-0.343634	-0.410903
C97	C	1.631288	-0.316028	-0.548101
C98	C	1.751098	-0.270549	-0.531761
C99	C	1.801875	-0.252675	-0.378217
C100	C	1.732835	-0.280281	-0.241020
H101	H	1.473552	-0.377301	-0.423005
H102	H	1.593698	-0.329260	-0.661764
H103	H	1.802205	-0.250114	-0.633323
H104	H	1.890571	-0.219007	-0.366116
H105	H	1.770424	-0.267049	-0.127356
H106	H	1.129470	-0.012970	-0.000035
C107	C	1.790325	0.029309	0.358926
C108	C	1.874037	-0.031100	0.259262
C109	C	1.996860	-0.003463	0.194993
C110	C	2.035973	0.084582	0.230389
C111	C	1.952260	0.144996	0.330059
C112	C	1.829436	0.117360	0.394327
H113	H	1.845085	-0.096281	0.233055
H114	H	2.058830	-0.048186	0.121211
H115	H	2.126894	0.105040	0.182814
H116	H	1.981212	0.210177	0.356266
H117	H	1.767467	0.162083	0.468109
H118	H	0.891824	-0.017184	-0.000131
H119	H	1.328563	0.226238	0.639004
H120	H	1.637774	-0.059344	0.624087
