data_functionalizedCrystal
_audit_creation_method	'MofGen! by Chris Wilmer'
_symmetry_space_group_name_H-M	'P1'
_symmetry_Int_Tables_number	1
_symmetry_cell_setting	triclinic
loop_
_symmetry_equiv_pos_as_xyz
  x,y,z
_cell_length_a	16.120484
_cell_length_b	19.805407
_cell_length_c	19.805399
_cell_angle_alpha	89.983114
_cell_angle_beta	92.869501
_cell_angle_gamma	92.925608
loop_
_atom_site_label
_atom_site_type_symbol
_atom_site_fract_x
_atom_site_fract_y
_atom_site_fract_z
Zn1	Zn	-0.331915	1.021057	-0.396377
Zn2	Zn	0.001418	1.354390	-0.063043
Zn3	Zn	0.334751	1.687724	0.270290
Zn4	Zn	-0.471337	1.015239	-0.288925
Zn5	Zn	-0.138004	1.348572	0.044408
Zn6	Zn	0.195330	1.681906	0.377742
Zn7	Zn	-0.331942	0.907876	-0.283202
Zn8	Zn	0.001391	1.241209	0.050131
Zn9	Zn	0.334725	1.574543	0.383464
Zn10	Zn	-0.471289	0.902099	-0.402070
Zn11	Zn	-0.137956	1.235432	-0.068736
Zn12	Zn	0.195377	1.568766	0.264597
O13	O	-0.401621	0.961568	-0.342643
O14	O	-0.068288	1.294901	-0.009310
O15	O	0.265046	1.628235	0.324023
O16	O	-0.350419	1.115002	-0.382135
O17	O	-0.017086	1.448335	-0.048802
O18	O	0.316248	1.781668	0.284531
O19	O	-0.452877	1.000980	-0.193450
O20	O	-0.119544	1.334313	0.139883
O21	O	0.213790	1.667647	0.473216
O22	O	-0.215272	0.927742	-0.293437
O23	O	0.118061	1.261076	0.039896
O24	O	0.451394	1.594409	0.373229
O25	O	-0.452851	1.110727	-0.303191
O26	O	-0.119518	1.444060	0.030142
O27	O	0.213815	1.777394	0.363476
O28	O	-0.215253	1.010896	-0.376586
O29	O	0.118080	1.344229	-0.043253
O30	O	0.451414	1.677563	0.290081
O31	O	-0.350464	0.922101	-0.189246
O32	O	-0.017131	1.255434	0.144087
O33	O	0.316203	1.588767	0.477421
O34	O	-0.350418	0.812394	-0.298958
O35	O	-0.017084	1.145727	0.034375
O36	O	0.316249	1.479060	0.367709
O37	O	-0.452770	0.917896	-0.496030
O38	O	-0.119437	1.251230	-0.162696
O39	O	0.213897	1.584563	0.170637
O40	O	-0.452796	0.808149	-0.386289
O41	O	-0.119462	1.141483	-0.052956
O42	O	0.213871	1.474816	0.280377
O43	O	-0.350373	1.005294	-0.491847
O44	O	-0.017039	1.338628	-0.158514
O45	O	0.316294	1.671961	0.174820
O46	O	-0.587997	0.995378	-0.308711
O47	O	-0.254663	1.328712	0.024622
O48	O	0.078670	1.662045	0.357955
O49	O	-0.587962	0.912255	-0.391838
O50	O	-0.254628	1.245588	-0.058505
O51	O	0.078705	1.578922	0.274828
C52	C	-0.401605	0.785713	-0.342621
C53	C	-0.068272	1.119046	-0.009287
C54	C	0.265062	1.452379	0.324046
C55	C	-0.401618	0.710480	-0.342628
C56	C	-0.068285	1.043813	-0.009295
C57	C	0.265048	1.377147	0.324039
C58	C	-0.618229	0.952577	-0.351528
C59	C	-0.284896	1.285910	-0.018195
C60	C	0.048437	1.619243	0.315138
C61	C	-0.710895	0.948792	-0.355352
C62	C	-0.377562	1.282126	-0.022019
C63	C	-0.044229	1.615459	0.311315
C64	C	-0.455007	0.672940	-0.388035
C65	C	-0.121673	1.006274	-0.054701
C66	C	0.211660	1.339607	0.278632
C67	C	-0.455008	0.602252	-0.388044
C68	C	-0.121675	0.935585	-0.054711
C69	C	0.211658	1.268918	0.278622
C70	C	-0.401625	0.569104	-0.342643
C71	C	-0.068291	0.902437	-0.009310
C72	C	0.265042	1.235771	0.324023
C73	C	-0.348230	0.606649	-0.297235
C74	C	-0.014897	0.939982	0.036099
C75	C	0.318436	1.273316	0.369432
C76	C	-0.348225	0.677336	-0.297229
C77	C	-0.014892	1.010670	0.036105
C78	C	0.318441	1.344003	0.369438
C79	C	-0.348249	0.321575	-0.297258
C80	C	-0.014915	0.654908	0.036076
C81	C	0.318418	0.988242	0.369409
C82	C	-0.348260	0.250882	-0.297266
C83	C	-0.014926	0.584216	0.036068
C84	C	0.318407	0.917549	0.369401
C85	C	-0.455032	0.246490	-0.388073
C86	C	-0.121698	0.579824	-0.054740
C87	C	0.211635	0.913157	0.278593
C88	C	-0.455027	0.317178	-0.388067
C89	C	-0.121693	0.650511	-0.054734
C90	C	0.211640	0.983844	0.278599
C91	C	-0.401630	0.354717	-0.342661
C92	C	-0.068296	0.688050	-0.009328
C93	C	0.265037	1.021383	0.324005
C94	C	-0.401628	0.431365	-0.342652
C95	C	-0.068294	0.764698	-0.009319
C96	C	0.265039	1.098032	0.324014
C97	C	-0.401630	0.492457	-0.342649
C98	C	-0.068297	0.825790	-0.009315
C99	C	0.265036	1.159123	0.324018
C100	C	-0.880557	0.941887	-0.362347
C101	C	-0.547224	1.275220	-0.029014
C102	C	-0.213890	1.608553	0.304320
C103	C	-0.921844	0.981370	-0.322951
C104	C	-0.588511	1.314704	0.010383
C105	C	-0.255178	1.648037	0.343716
C106	C	-1.016250	0.977528	-0.326843
C107	C	-0.682917	1.310861	0.006491
C108	C	-0.349583	1.644195	0.339824
C109	C	-0.786143	0.945728	-0.358456
C110	C	-0.452810	1.279062	-0.025123
C111	C	-0.119476	1.612395	0.308211
C112	C	-0.184167	0.970612	-0.333738
C113	C	0.149167	1.303946	-0.000405
C114	C	0.482500	1.637279	0.332928
C115	C	-0.091501	0.974467	-0.329944
C116	C	0.241833	1.307800	0.003390
C117	C	0.575166	1.641133	0.336723
C118	C	-0.401563	0.961600	-0.519184
C119	C	-0.068230	1.294933	-0.185850
C120	C	0.265104	1.628267	0.147483
C121	C	-0.401538	0.961614	-0.594415
C122	C	-0.068205	1.294947	-0.261081
C123	C	0.265128	1.628280	0.072252
C124	C	-0.401638	1.138110	-0.342666
C125	C	-0.068304	1.471443	-0.009333
C126	C	0.265029	1.804777	0.324000
C127	C	-0.401645	1.213342	-0.342676
C128	C	-0.068311	1.546675	-0.009343
C129	C	0.265022	1.880008	0.323990
C130	C	-0.348207	0.920554	-0.627569
C131	C	-0.014874	1.253887	-0.294236
C132	C	0.318460	1.587220	0.039098
C133	C	-0.348191	0.920564	-0.698257
C134	C	-0.014857	1.253897	-0.364923
C135	C	0.318476	1.587230	-0.031590
C136	C	-0.401502	0.961638	-0.735789
C137	C	-0.068169	1.294971	-0.402456
C138	C	0.265164	1.628304	-0.069122
C139	C	-0.454840	1.002699	-0.702630
C140	C	-0.121507	1.336033	-0.369297
C141	C	0.211827	1.669366	-0.035963
C142	C	-0.454860	1.002685	-0.631944
C143	C	-0.121526	1.336018	-0.298610
C144	C	0.211807	1.669352	0.034723
C145	C	-0.454762	1.002756	-0.987700
C146	C	-0.121429	1.336089	-0.654367
C147	C	0.211905	1.669423	-0.321034
C148	C	-0.454736	1.002768	-1.058391
C149	C	-0.121403	1.336102	-0.725058
C150	C	0.211930	1.669435	-0.391725
C151	C	-0.348093	0.920635	-1.054013
C152	C	-0.014760	1.253968	-0.720680
C153	C	0.318574	1.587301	-0.387347
C154	C	-0.348113	0.920621	-0.983327
C155	C	-0.014779	1.253954	-0.649994
C156	C	0.318554	1.587287	-0.316660
C157	C	-0.401453	0.961679	-0.950174
C158	C	-0.068120	1.295013	-0.616841
C159	C	0.265214	1.628346	-0.283508
C160	C	-0.401471	0.961667	-0.873527
C161	C	-0.068138	1.295000	-0.540193
C162	C	0.265196	1.628334	-0.206860
C163	C	-0.401481	0.961654	-0.812435
C164	C	-0.068147	1.294987	-0.479102
C165	C	0.265186	1.628321	-0.145769
C166	C	-0.401618	0.961577	-0.166787
C167	C	-0.068285	1.294911	0.166546
C168	C	0.265048	1.628244	0.499879
C169	C	-0.401408	0.961705	-0.091547
C170	C	-0.068075	1.295038	0.241786
C171	C	0.265258	1.628371	0.575120
H172	H	-0.498483	0.571690	-0.425018
H173	H	-0.165150	0.905023	-0.091685
H174	H	0.168183	1.238356	0.241648
H175	H	-0.498481	0.699924	-0.425003
H176	H	-0.165147	1.033257	-0.091670
H177	H	0.168186	1.366590	0.241663
H178	H	-0.498251	1.036139	-0.733195
H179	H	-0.164918	1.369472	-0.399861
H180	H	0.168415	1.702805	-0.066528
H181	H	-0.304783	0.223896	-0.260295
H182	H	0.028550	0.557229	0.073039
H183	H	0.361883	0.890563	0.406372
O184	O	-0.512254	1.047059	-1.098878
O185	O	-0.178920	1.380392	-0.765544
O186	O	0.154413	1.713725	-0.432211
H187	H	-0.549358	1.075599	-1.063950
H188	H	-0.216025	1.408933	-0.730617
H189	H	0.117309	1.742266	-0.397284
O190	O	-0.927653	0.893285	-0.410884
O191	O	-0.594319	1.226619	-0.077551
O192	O	-0.260986	1.559952	0.255782
H193	H	-0.910954	0.905520	-0.463347
H194	H	-0.577621	1.238854	-0.130013
H195	H	-0.244287	1.572187	0.203320
O196	O	-0.874755	1.029970	-0.274401
O197	O	-0.541422	1.363303	0.058933
O198	O	-0.208088	1.696636	0.392266
H199	H	-0.891475	1.017729	-0.221945
H200	H	-0.558141	1.351063	0.111389
H201	H	-0.224808	1.684396	0.444722
O202	O	-0.290699	0.876253	-0.587094
O203	O	0.042634	1.209587	-0.253760
O204	O	0.375967	1.542920	0.079573
H205	H	-0.299664	0.883146	-0.532370
H206	H	0.033669	1.216479	-0.199037
H207	H	0.367003	1.549812	0.134297
O208	O	-0.290608	0.876320	-0.942849
O209	O	0.042725	1.209653	-0.609516
O210	O	0.376059	1.542986	-0.276183
H211	H	-0.299576	0.883213	-0.888126
H212	H	0.033757	1.216547	-0.554793
H213	H	0.367090	1.549880	-0.221460
H214	H	-0.498204	1.036181	-0.960716
H215	H	-0.164870	1.369514	-0.627383
H216	H	0.168463	1.702847	-0.294050
O217	O	-0.290662	0.876284	-0.734018
O218	O	0.042671	1.209618	-0.400685
O219	O	0.376005	1.542951	-0.067352
H220	H	-0.253585	0.847729	-0.696044
H221	H	0.079748	1.181063	-0.362711
H222	H	0.413082	1.514396	-0.029377
H223	H	-0.304776	0.352131	-0.260280
H224	H	0.028557	0.685464	0.073053
H225	H	0.361891	1.018797	0.406386
O226	O	-0.512373	1.046978	-0.596179
O227	O	-0.179039	1.380311	-0.262845
O228	O	0.154294	1.713644	0.070488
H229	H	-0.549434	1.075548	-0.634151
H230	H	-0.216100	1.408881	-0.300817
H231	H	0.117233	1.742215	0.032516
O232	O	-0.290555	0.876355	-1.089775
O233	O	0.042779	1.209688	-0.756441
O234	O	0.376112	1.543021	-0.423108
H235	H	-0.327844	0.840364	-1.123502
H236	H	0.005489	1.173698	-0.790169
H237	H	0.338822	1.507031	-0.456835
H238	H	-0.498507	0.215918	-0.425048
H239	H	-0.165174	0.549251	-0.091714
H240	H	0.168160	0.882584	0.241619
O241	O	-0.512599	0.352932	-0.437039
O242	O	-0.179265	0.686265	-0.103705
O243	O	0.154068	1.019599	0.229628
H244	H	-0.549718	0.314952	-0.468621
H245	H	-0.216384	0.648285	-0.135287
H246	H	0.116949	0.981619	0.198046
H247	H	-0.304761	0.579655	-0.260271
H248	H	0.028572	0.912988	0.073062
H249	H	0.361906	1.246321	0.406395
O250	O	-0.290652	0.717831	-0.248248
O251	O	0.042681	1.051164	0.085086
O252	O	0.376014	1.384497	0.418419
H253	H	-0.253540	0.682907	-0.216672
H254	H	0.079793	1.016240	0.116662
H255	H	0.413127	1.349573	0.449995
