data_functionalizedCrystal
_audit_creation_method	'MofGen! by Chris Wilmer'
_symmetry_space_group_name_H-M	'P1'
_symmetry_Int_Tables_number	1
_symmetry_cell_setting	triclinic
loop_
_symmetry_equiv_pos_as_xyz
  x,y,z
_cell_length_a	12.759401
_cell_length_b	16.120484
_cell_length_c	12.759393
_cell_angle_alpha	92.862882
_cell_angle_beta	89.981504
_cell_angle_gamma	92.925560
loop_
_atom_site_label
_atom_site_type_symbol
_atom_site_fract_x
_atom_site_fract_y
_atom_site_fract_z
Zn1	Zn	1.584972	-0.331853	-0.615146
Zn2	Zn	2.084972	0.168147	-0.115146
Zn3	Zn	1.575923	-0.471291	-0.448359
Zn4	Zn	2.075923	0.028709	0.051641
Zn5	Zn	1.409271	-0.331897	-0.439488
Zn6	Zn	1.909271	0.168103	0.060512
Zn7	Zn	1.400324	-0.471227	-0.623996
Zn8	Zn	1.900324	0.028773	-0.123996
O9	O	1.492622	-0.401567	-0.531747
O10	O	1.992622	0.098433	-0.031747
O11	O	1.730792	-0.350358	-0.593030
O12	O	2.230792	0.149642	-0.093030
O13	O	1.553774	-0.452845	-0.300164
O14	O	2.053774	0.047155	0.199836
O15	O	1.440109	-0.215226	-0.455373
O16	O	1.940109	0.284774	0.044627
O17	O	1.724144	-0.452803	-0.470492
O18	O	2.224144	0.047197	0.029508
O19	O	1.569196	-0.215194	-0.584428
O20	O	2.069196	0.284806	-0.084428
O21	O	1.431335	-0.350433	-0.293646
O22	O	1.931335	0.149567	0.206354
O23	O	1.261064	-0.350370	-0.463955
O24	O	1.761064	0.149630	0.036045
O25	O	1.424860	-0.452693	-0.769840
O26	O	1.924860	0.047307	-0.269840
O27	O	1.254490	-0.452736	-0.599512
O28	O	1.754490	0.047264	-0.099512
O29	O	1.560520	-0.350296	-0.763338
O30	O	2.060520	0.149704	-0.263338
O31	O	1.545098	-0.587947	-0.479074
O32	O	2.045098	-0.087947	0.020926
O33	O	1.416086	-0.587900	-0.608114
O34	O	1.916086	-0.087900	-0.108114
C35	C	1.219656	-0.401551	-0.531732
C36	C	1.719656	0.098449	-0.031732
C37	C	1.102879	-0.401565	-0.531752
C38	C	1.602879	0.098435	-0.031752
C39	C	1.044616	-0.454952	-0.602231
C40	C	1.544616	0.045048	-0.102231
C41	C	0.934891	-0.454962	-0.602243
C42	C	1.434891	0.045038	-0.102243
C43	C	0.941702	-0.348197	-0.461287
C44	C	1.441702	0.151803	0.038713
C45	C	1.051425	-0.348183	-0.461281
C46	C	1.551425	0.151817	0.038719
C47	C	1.096069	-0.508334	-0.672701
C48	C	1.596069	-0.008334	-0.172701
C49	C	1.037806	-0.561726	-0.743185
C50	C	1.537806	-0.061726	-0.243185
C51	C	0.928081	-0.561736	-0.743197
C52	C	1.428081	-0.061736	-0.243197
C53	C	0.876620	-0.508355	-0.672725
C54	C	1.376620	-0.008355	-0.172725
C55	C	1.478668	-0.618174	-0.545540
C56	C	1.978668	-0.118174	-0.045540
C57	C	1.472794	-0.710839	-0.551475
C58	C	1.972794	-0.210839	-0.051475
C59	C	1.462076	-0.880500	-0.562334
C60	C	1.962076	-0.380500	-0.062334
C61	C	1.523357	-0.921793	-0.501178
C62	C	2.023357	-0.421793	-0.001178
C63	C	1.517393	-1.016198	-0.507219
C64	C	2.017393	-0.516198	-0.007219
C65	C	1.468038	-0.786086	-0.556293
C66	C	1.968038	-0.286086	-0.056293
C67	C	1.766655	-0.401583	-0.531763
C68	C	2.266655	0.098417	-0.031763
C69	C	1.883431	-0.401590	-0.531770
C70	C	2.383431	0.098410	-0.031770
C71	C	1.492701	-0.401483	-0.805775
C72	C	1.992701	0.098517	-0.305775
C73	C	1.492735	-0.401447	-0.922550
C74	C	1.992735	0.098553	-0.422550
C75	C	1.506660	-0.184114	-0.517924
C76	C	2.006660	0.315886	-0.017924
C77	C	1.512642	-0.091448	-0.512033
C78	C	2.012642	0.408552	-0.012033
C79	C	1.563383	-0.348123	-0.974027
C80	C	2.063383	0.151877	-0.474027
C81	C	1.563410	-0.348093	-1.083750
C82	C	2.063410	0.151907	-0.583750
C83	C	1.422138	-0.454717	-1.090507
C84	C	1.922138	0.045283	-0.590507
C85	C	1.422106	-0.454742	-0.980787
C86	C	1.922106	0.045258	-0.480787
C87	C	1.634011	-0.294828	-0.915790
C88	C	2.134011	0.205172	-0.415790
C89	C	1.704666	-0.241501	-0.967268
C90	C	2.204666	0.258499	-0.467268
C91	C	1.704693	-0.241471	-1.076990
C92	C	2.204693	0.258529	-0.576990
C93	C	1.634065	-0.294768	-1.135235
C94	C	2.134065	0.205232	-0.635235
C95	C	1.492608	-0.401590	-0.258781
C96	C	1.992608	0.098410	0.241219
C97	C	1.492793	-0.401391	-0.141992
C98	C	1.992793	0.098609	0.358008
H99	H	1.079714	-0.605181	-0.800566
H100	H	1.579714	-0.105181	-0.300566
H101	H	1.580299	-0.886244	-0.444283
H102	H	2.080299	-0.386244	0.055717
O103	O	1.386636	-0.927585	-0.637674
O104	O	1.886636	-0.427585	-0.137674
H105	H	1.431166	-0.967201	-0.693648
H106	H	1.931166	-0.467201	-0.193648
H107	H	1.634081	-0.294729	-1.224577
H108	H	2.134081	0.205271	-0.724577
O109	O	1.345967	-0.512202	-1.153321
O110	O	1.845967	-0.012202	-0.653321
H111	H	1.357863	-0.503230	-1.238265
H112	H	1.857863	-0.003230	-0.738265
H113	H	1.634000	-0.294848	-0.826449
H114	H	2.134000	0.205152	-0.326449
H115	H	1.364563	-0.498150	-0.938872
H116	H	1.864563	0.001850	-0.438872
O117	O	1.780844	-0.184020	-0.904457
O118	O	2.280844	0.315980	-0.404457
H119	H	1.768967	-0.193005	-0.819513
H120	H	2.268967	0.306995	-0.319513
O121	O	0.865229	-0.619406	-0.819107
O122	O	1.365229	-0.119406	-0.319107
H123	H	0.919443	-0.656558	-0.868061
H124	H	1.419443	-0.156558	-0.368061
O125	O	0.886195	-0.290630	-0.385281
O126	O	1.386195	0.209370	0.114719
H127	H	0.945144	-0.253498	-0.336276
H128	H	1.445144	0.246502	0.163724
O129	O	1.114275	-0.290602	-0.385266
O130	O	1.614275	0.209398	0.114734
H131	H	1.161859	-0.327862	-0.334115
H132	H	1.661859	0.172138	0.165885
H133	H	0.787275	-0.508361	-0.672749
H134	H	1.287275	-0.008361	-0.172749
H135	H	1.762216	-0.198044	-1.118900
H136	H	2.262216	0.301956	-0.618900
H137	H	1.185412	-0.508333	-0.672697
H138	H	1.685412	-0.008333	-0.172697
