data_functionalizedCrystal
_audit_creation_method	'MofGen! by Chris Wilmer'
_symmetry_space_group_name_H-M	'P1'
_symmetry_Int_Tables_number	1
_symmetry_cell_setting	triclinic
loop_
_symmetry_equiv_pos_as_xyz
  x,y,z
_cell_length_a	12.759400
_cell_length_b	12.759401
_cell_length_c	12.759393
_cell_angle_alpha	90.020566
_cell_angle_beta	89.969510
_cell_angle_gamma	89.987107
loop_
_atom_site_label
_atom_site_type_symbol
_atom_site_fract_x
_atom_site_fract_y
_atom_site_fract_z
Zn1	Zn	-0.418266	-1.606266	-0.594010
Zn2	Zn	-0.593981	-1.606158	-0.418330
Zn3	Zn	-0.418311	-1.430565	-0.418346
Zn4	Zn	-0.593898	-1.430557	-0.593968
O5	O	-0.506114	-1.518387	-0.506163
O6	O	-0.441591	-1.753273	-0.570716
O7	O	-0.570732	-1.582823	-0.271311
O8	O	-0.271284	-1.453921	-0.441672
O9	O	-0.570688	-1.753193	-0.441645
O10	O	-0.271251	-1.583008	-0.570732
O11	O	-0.441669	-1.453816	-0.271323
O12	O	-0.441587	-1.283543	-0.441632
O13	O	-0.570546	-1.453908	-0.740995
O14	O	-0.570590	-1.283537	-0.570661
O15	O	-0.441510	-1.583000	-0.741025
O16	O	-0.740991	-1.582815	-0.441604
O17	O	-0.740930	-1.453802	-0.570645
C18	C	-0.506085	-1.245419	-0.506144
C19	C	-0.506098	-1.128643	-0.506161
C20	C	-0.438997	-1.073823	-0.573471
C21	C	-0.439003	-0.964099	-0.573477
C22	C	-0.573222	-0.964024	-0.438858
C23	C	-0.573210	-1.073746	-0.438849
C24	C	-0.779081	-1.518324	-0.506142
C25	C	-0.895858	-1.518394	-0.506167
C26	C	-0.950717	-1.585645	-0.439050
C27	C	-1.060441	-1.585710	-0.439082
C28	C	-1.060437	-1.451262	-0.573352
C29	C	-0.950715	-1.451204	-0.573324
C30	C	-0.895860	-1.652835	-0.371893
C31	C	-0.950719	-1.720091	-0.304769
C32	C	-1.060443	-1.720156	-0.304802
C33	C	-1.115308	-1.652964	-0.371958
C34	C	-0.232081	-1.518478	-0.506208
C35	C	-0.115304	-1.518517	-0.506228
C36	C	-0.506013	-1.518465	-0.780197
C37	C	-0.505970	-1.518499	-0.896974
C38	C	-0.506134	-0.792420	-0.506179
C39	C	-0.506117	-0.909196	-0.506176
C40	C	-0.438770	-1.585722	-0.951853
C41	C	-0.438725	-1.585740	-1.061577
C42	C	-0.573088	-1.451308	-1.061533
C43	C	-0.573128	-1.451285	-0.951811
C44	C	-0.506139	-1.518369	-0.233196
C45	C	-0.505886	-1.518539	-0.116420
H46	H	-0.627853	-1.118381	-0.384031
O47	O	-1.113882	-1.785374	-0.239612
C48	C	-1.177479	-1.725678	-0.171703
H49	H	-1.193920	-1.646020	-0.208643
H50	H	-1.135320	-1.714211	-0.093784
C51	C	-1.261495	-1.881400	-0.107507
C52	C	-1.281696	-1.783566	-0.152881
H53	H	-1.325779	-1.917109	-0.095892
H54	H	-1.218646	-1.921620	-0.153255
H55	H	-1.226360	-1.871831	-0.042579
H56	H	-1.316818	-1.793137	-0.217813
H57	H	-1.324553	-1.743349	-0.107143
H58	H	-1.204653	-1.653030	-0.371987
H59	H	-0.384347	-1.118517	-0.628278
H60	H	-0.384361	-0.919470	-0.628286
H61	H	-0.384083	-1.640449	-0.907208
H62	H	-0.627768	-1.396587	-1.106194
O63	O	-1.113892	-1.386025	-0.638478
C64	C	-1.222499	-1.400515	-0.624127
H65	H	-1.237520	-1.434975	-0.543081
H66	H	-1.253547	-1.456448	-0.686502
C67	C	-1.260458	-1.251914	-0.733215
C68	C	-1.278907	-1.294230	-0.633669
H69	H	-1.295255	-1.186355	-0.739105
H70	H	-1.187288	-1.242154	-0.742887
H71	H	-1.286331	-1.298535	-0.785183
H72	H	-1.253022	-1.247617	-0.581704
H73	H	-1.352075	-1.303981	-0.623988
O74	O	-0.638511	-1.385949	-0.898656
C75	C	-0.697766	-1.326618	-0.970582
H76	H	-0.701386	-1.369662	-1.048803
H77	H	-0.659278	-1.246841	-0.982244
C78	C	-0.805148	-1.258560	-0.831659
C79	C	-0.809602	-1.311432	-0.927729
H80	H	-0.874133	-1.249187	-0.805224
H81	H	-0.765225	-1.298528	-0.783200
H82	H	-0.773071	-1.192084	-0.841390
H83	H	-0.841667	-1.377910	-0.917994
H84	H	-0.849533	-1.271474	-0.976186
O85	O	-0.897266	-1.785261	-0.239574
C86	C	-0.788658	-1.770804	-0.253953
H87	H	-0.773708	-1.689698	-0.288288
H88	H	-0.757425	-1.833076	-0.309946
C89	C	-0.750768	-1.880068	-0.105472
C90	C	-0.732406	-1.780449	-0.147634
H91	H	-0.716067	-1.886022	-0.039891
H92	H	-0.823939	-1.889812	-0.095786
H93	H	-0.724740	-1.931950	-0.152143
H94	H	-0.758446	-1.728570	-0.100970
H95	H	-0.659238	-1.770697	-0.157309
H96	H	-0.627863	-0.919314	-0.384056
H97	H	-0.906049	-1.396442	-0.627978
H98	H	-0.806517	-1.652787	-0.371856
H99	H	-0.384003	-1.640479	-1.106255
