data_functionalizedCrystal
_audit_creation_method	'MofGen! by Chris Wilmer'
_symmetry_space_group_name_H-M	'P1'
_symmetry_Int_Tables_number	1
_symmetry_cell_setting	triclinic
loop_
_symmetry_equiv_pos_as_xyz
  x,y,z
_cell_length_a	18.215407
_cell_length_b	29.839131
_cell_length_c	18.215399
_cell_angle_alpha	89.969127
_cell_angle_beta	89.980167
_cell_angle_gamma	90.041868
loop_
_atom_site_label
_atom_site_type_symbol
_atom_site_fract_x
_atom_site_fract_y
_atom_site_fract_z
Zn1	Zn	1.124987	-0.178853	-0.416101
Zn2	Zn	1.124860	-0.253982	-0.293028
Zn3	Zn	1.001920	-0.178867	-0.293048
Zn4	Zn	1.001850	-0.253957	-0.416053
O5	O	1.063404	-0.216415	-0.354558
O6	O	1.227955	-0.188823	-0.399787
O7	O	1.108528	-0.244034	-0.190047
O8	O	1.018327	-0.115998	-0.309400
O9	O	1.227861	-0.244020	-0.309366
O10	O	1.108745	-0.115987	-0.399806
O11	O	1.018204	-0.188848	-0.190061
O12	O	0.898926	-0.188824	-0.309354
O13	O	1.018209	-0.243978	-0.519044
O14	O	0.898875	-0.243992	-0.399725
O15	O	1.108677	-0.188799	-0.519079
O16	O	1.108460	-0.316846	-0.309320
O17	O	1.018086	-0.316827	-0.399705
C18	C	0.872198	-0.216407	-0.354537
C19	C	0.790399	-0.216414	-0.354545
C20	C	0.602198	-0.245186	-0.401542
C21	C	0.525339	-0.245187	-0.401551
C22	C	0.525363	-0.187652	-0.307589
C23	C	0.602220	-0.187648	-0.307584
C24	C	0.640636	-0.216418	-0.354560
C25	C	0.486920	-0.216423	-0.354574
C26	C	0.403586	-0.216424	-0.354583
C27	C	0.723975	-0.216416	-0.354551
C28	C	1.063272	-0.333137	-0.354521
C29	C	1.063282	-0.383072	-0.354530
C30	C	1.110548	-0.692712	-0.307563
C31	C	1.110639	-0.880385	-0.307591
O32	O	1.150721	-0.904647	-0.267629
N33	N	1.063557	-0.903857	-0.354613
C34	C	1.016452	-0.880407	-0.401635
O35	O	0.976414	-0.904678	-0.441636
C36	C	1.016366	-0.692735	-0.401609
C37	C	1.063446	-0.669266	-0.354579
C38	C	1.157625	-0.669243	-0.260536
C39	C	1.157599	-0.622327	-0.260527
C40	C	1.110496	-0.598881	-0.307544
C41	C	1.063420	-0.622350	-0.354570
C42	C	0.969265	-0.669287	-0.448634
C43	C	0.969249	-0.622365	-0.448625
C44	C	1.016329	-0.598896	-0.401595
C45	C	1.016291	-0.551989	-0.401577
N46	N	1.063373	-0.528517	-0.354554
C47	C	1.110476	-0.551963	-0.307538
C48	C	1.016500	-0.978938	-0.401644
C49	C	1.016521	-1.025856	-0.401649
C50	C	1.110709	-1.025830	-0.307606
C51	C	1.110684	-0.978911	-0.307598
C52	C	1.063582	-0.955466	-0.354622
C53	C	1.110417	-0.453437	-0.307521
C54	C	1.110385	-0.406518	-0.307514
C55	C	1.016200	-0.406547	-0.401559
C56	C	1.016229	-0.453463	-0.401564
C57	C	1.063344	-0.476907	-0.354543
O58	O	0.976236	-0.527698	-0.441523
O59	O	1.150520	-0.527685	-0.267554
C60	C	1.110574	-0.739627	-0.307572
C61	C	1.063498	-0.763097	-0.354598
C62	C	1.016395	-0.739651	-0.401615
C63	C	1.063518	-0.810015	-0.354604
C64	C	1.110621	-0.833461	-0.307587
C65	C	1.157703	-0.809989	-0.260565
C66	C	1.157677	-0.763074	-0.260555
C67	C	0.969313	-0.763122	-0.448637
C68	C	0.969342	-0.810038	-0.448642
C69	C	1.016445	-0.833484	-0.401625
C70	C	1.255357	-0.216423	-0.354579
C71	C	1.337156	-0.216426	-0.354589
C72	C	1.063449	-0.216384	-0.546511
C73	C	1.063468	-0.216370	-0.628310
C74	C	1.063558	-0.099236	-0.354610
C75	C	1.063623	-0.049302	-0.354633
C76	C	1.110592	-0.187612	-0.816523
C77	C	1.110601	-0.187599	-0.893382
C78	C	1.016397	-0.245059	-0.893334
C79	C	1.016385	-0.245070	-0.816477
C80	C	1.063487	-0.216347	-0.778073
C81	C	1.063507	-0.216323	-0.931789
C82	C	1.063517	-0.216309	-1.015123
C83	C	1.063477	-0.216360	-0.694734
C84	C	1.063402	-0.216413	-0.163351
C85	C	1.063526	-0.216300	-0.081553
H86	H	0.633517	-0.164220	-0.269325
H87	H	1.148723	-0.387411	-0.269213
N88	N	1.208512	-0.835283	-0.209860
H89	H	1.238338	-0.813300	-0.180065
H90	H	1.178585	-0.854784	-0.175781
N91	N	0.483924	-0.156636	-0.256909
H92	H	0.452060	-0.135840	-0.286868
H93	H	0.452053	-0.174911	-0.222771
H94	H	1.148958	-0.164199	-0.924684
N95	N	0.918499	-0.737841	-0.499346
H96	H	0.884401	-0.718410	-0.469401
H97	H	0.948419	-0.718366	-0.533472
H98	H	0.494047	-0.268612	-0.439810
H99	H	0.978143	-0.959852	-0.439938
N100	N	0.965594	-0.276031	-0.934767
H101	H	0.995476	-0.296847	-0.966654
H102	H	0.935752	-0.294206	-0.898706
H103	H	0.978177	-1.044960	-0.439939
H104	H	1.148784	-0.472520	-0.269233
N105	N	1.161466	-0.953598	-0.256880
H106	H	1.150071	-0.961790	-0.204288
H107	H	1.214023	-0.961740	-0.268424
N108	N	0.918552	-0.835344	-0.499368
H109	H	0.929952	-0.827147	-0.551957
H110	H	0.925731	-0.868618	-0.492186
H111	H	0.978021	-0.268469	-0.785170
N112	N	1.208389	-0.597017	-0.209812
H113	H	1.238232	-0.618995	-0.180037
H114	H	1.242419	-0.577522	-0.239805
H115	H	0.633474	-0.268610	-0.439794
N116	N	0.965444	-0.478780	-0.452280
H117	H	0.935599	-0.456805	-0.482061
H118	H	0.995393	-0.498210	-0.486371
H119	H	0.930924	-0.688387	-0.486928
N120	N	1.208433	-0.694526	-0.209822
H121	H	1.238248	-0.672533	-0.180036
H122	H	1.178506	-0.714022	-0.175736
H123	H	0.930894	-0.603279	-0.486920
N124	N	1.161511	-1.051123	-0.256892
H125	H	1.154376	-1.084405	-0.264037
H126	H	1.214060	-1.042887	-0.268398
N127	N	0.965393	-0.381255	-0.452263
H128	H	0.972527	-0.347972	-0.445118
H129	H	0.976822	-0.389425	-0.504836
N130	N	1.208460	-0.737764	-0.209834
H131	H	1.238301	-0.759742	-0.180057
H132	H	1.242493	-0.718266	-0.239820
H133	H	1.148944	-0.164223	-0.785257
