data_functionalizedCrystal
_audit_creation_method	'MofGen! by Chris Wilmer'
_symmetry_space_group_name_H-M	'P1'
_symmetry_Int_Tables_number	1
_symmetry_cell_setting	triclinic
loop_
_symmetry_equiv_pos_as_xyz
  x,y,z
_cell_length_a	10.489741
_cell_length_b	19.288857
_cell_length_c	17.766277
_cell_angle_alpha	90.008526
_cell_angle_beta	90.006652
_cell_angle_gamma	83.836141
loop_
_atom_site_label
_atom_site_type_symbol
_atom_site_fract_x
_atom_site_fract_y
_atom_site_fract_z
O1	O	-1.691841	-0.097994	-0.062552
O2	O	-1.320437	-0.107193	-0.062564
O3	O	-1.516876	-0.001535	-0.062548
O4	O	-1.495402	-0.203652	-0.062567
O5	O	-1.516842	-0.001529	0.062640
O6	O	-1.320403	-0.107187	0.062625
O7	O	-1.691807	-0.097989	0.062637
Cu8	Cu	-1.506102	-0.102587	0.074061
Cu9	Cu	-1.506142	-0.102594	-0.073988
O10	O	-1.495368	-0.203646	0.062621
C11	C	-1.272904	-0.106495	0.000029
C12	C	-1.131322	-0.104417	0.000025
C13	C	-1.516170	0.024349	0.000047
C14	C	-1.514101	0.101467	0.000049
C15	C	-1.739340	-0.098686	0.000042
C16	C	-1.880923	-0.100765	0.000042
C17	C	-1.064705	-0.037190	0.000038
C18	C	-0.971876	-0.068950	-0.061688
C19	C	-0.971875	-0.068960	0.061738
C20	C	-1.040357	-0.136204	-0.061752
C21	C	-1.040366	-0.136205	0.061729
C22	C	-0.947563	-0.168014	-0.000011
N23	N	-1.506082	-0.102582	0.178192
C24	C	-1.496075	-0.229530	0.000025
C25	C	-1.498144	-0.306648	0.000018
C26	C	-1.513154	0.137681	-0.068192
C27	C	-1.511191	0.210140	-0.068197
C28	C	-1.510201	0.246384	0.000041
C29	C	-1.511141	0.210161	0.068291
C30	C	-1.513091	0.137702	0.068294
C31	C	-1.581804	0.366138	0.052318
C32	C	-1.579863	0.438596	0.052312
C33	C	-1.504183	0.469870	0.000033
C34	C	-1.430461	0.428680	-0.052253
C35	C	-1.432410	0.356221	-0.052249
C36	C	-1.508087	0.324953	0.000045
C37	C	-1.501106	0.584653	-0.068219
C38	C	-1.499136	0.657113	-0.068222
C39	C	-1.499099	0.657133	0.068268
C40	C	-1.501056	0.584674	0.068269
C41	C	-1.502066	0.548438	0.000024
N42	N	-1.506172	-0.102594	-0.178119
C43	C	-1.593094	-0.055820	0.217586
C44	C	-1.593101	-0.055817	0.296387
C45	C	-1.506109	-0.102588	0.335792
C46	C	-1.419082	-0.149353	0.296389
C47	C	-1.419068	-0.149350	0.217589
C48	C	-1.489031	-0.165761	0.460624
C49	C	-1.489053	-0.165765	0.539423
C50	C	-1.506143	-0.102596	0.578839
C51	C	-1.523238	-0.039421	0.539446
C52	C	-1.523225	-0.039419	0.460646
C53	C	-1.506114	-0.102596	0.421238
C54	C	-1.593167	-0.055827	0.703678
C55	C	-1.593166	-0.055823	0.782482
C56	C	-1.419153	-0.149365	0.782482
C57	C	-1.419148	-0.149363	0.703680
C58	C	-1.506162	-0.102595	0.664283
H59	H	-1.115648	0.018075	-0.000034
H60	H	-1.663958	-0.017736	0.328468
N61	N	-0.933784	-0.033259	0.127198
N62	N	-0.877218	0.020218	0.120345
H63	H	-0.850317	0.045437	0.166573
H64	H	-1.070555	-0.164630	-0.113996
N65	N	-0.933814	-0.033266	-0.127150
N66	N	-0.976352	0.028948	-0.138146
H67	H	-0.949481	0.054154	-0.184378
H68	H	-1.643431	0.340680	0.094896
H69	H	-1.513857	0.108217	0.123866
N70	N	-0.883997	-0.237418	-0.000064
N71	N	-0.901554	-0.277896	-0.053113
H72	H	-0.856660	-0.326913	-0.053154
H73	H	-1.537140	0.012021	0.428575
N74	N	-1.078481	-0.171854	0.127197
N75	N	-1.056924	-0.148944	0.191244
H76	H	-1.083844	-0.174116	0.237487
N77	N	-1.655143	0.480663	0.105729
N78	N	-1.601844	0.517643	0.151307
H79	H	-1.655011	0.547351	0.189037
H80	H	-1.513972	0.108182	-0.123763
H81	H	-1.510412	0.239631	-0.123769
H82	H	-1.501921	0.555148	-0.123788
N83	N	-1.330293	-0.197152	0.822712
N84	N	-1.252617	-0.238907	0.787524
H85	H	-1.189855	-0.272657	0.815938
N86	N	-1.682015	-0.008034	0.822724
N87	N	-1.641784	0.035300	0.866692
H88	H	-1.704527	0.069059	0.895112
H89	H	-1.372381	0.322686	-0.094820
N90	N	-1.510118	0.247190	0.137988
N91	N	-1.508378	0.311884	0.137976
H92	H	-1.507649	0.338036	0.187202
N93	N	-1.353138	0.460625	-0.105646
N94	N	-1.351383	0.525319	-0.105634
H95	H	-1.296770	0.547884	-0.143338
H96	H	-1.498358	0.686597	-0.123793
H97	H	-1.498283	0.686642	0.123830
H98	H	-1.663943	-0.017737	0.185511
N99	N	-1.681938	-0.008040	0.663378
N100	N	-1.641585	0.035248	0.619421
H101	H	-1.704249	0.069000	0.590940
N102	N	-1.502027	0.547689	0.137983
N103	N	-1.501137	0.580054	0.198907
H104	H	-1.501819	0.553934	0.248146
H105	H	-1.537154	0.012017	0.571536
H106	H	-1.348301	-0.187444	0.671604
N107	N	-1.471609	-0.230300	0.579646
N108	N	-1.456338	-0.286695	0.544448
H109	H	-1.444019	-0.332276	0.572853
N110	N	-1.471586	-0.230298	0.420378
N111	N	-1.456354	-0.286697	0.455555
H112	H	-1.444041	-0.332275	0.427133
H113	H	-1.348250	-0.187434	0.328477
H114	H	-1.348212	-0.187430	0.185514
