data_functionalizedCrystal
_audit_creation_method	'MofGen! by Chris Wilmer'
_symmetry_space_group_name_H-M	'P1'
_symmetry_Int_Tables_number	1
_symmetry_cell_setting	triclinic
loop_
_symmetry_equiv_pos_as_xyz
  x,y,z
_cell_length_a	16.109301
_cell_length_b	16.109301
_cell_length_c	14.586319
_cell_angle_alpha	90.005214
_cell_angle_beta	89.999213
_cell_angle_gamma	96.538519
loop_
_atom_site_label
_atom_site_type_symbol
_atom_site_fract_x
_atom_site_fract_y
_atom_site_fract_z
O1	O	1.103131	-0.106866	-0.076185
O2	O	1.436464	0.226467	0.257148
O3	O	1.769797	0.559801	0.590481
O4	O	0.861069	-0.120165	-0.076200
O5	O	1.194402	0.213168	0.257133
O6	O	1.527735	0.546501	0.590466
O7	O	0.988749	0.007515	-0.076183
O8	O	1.322083	0.340849	0.257150
O9	O	1.655416	0.674182	0.590484
O10	O	0.975450	-0.234547	-0.076203
O11	O	1.308783	0.098787	0.257131
O12	O	1.642117	0.432120	0.590464
O13	O	0.988741	0.007517	0.076298
O14	O	1.322074	0.340850	0.409631
O15	O	1.655407	0.674184	0.742964
O16	O	0.861060	-0.120164	0.076281
O17	O	1.194393	0.213170	0.409614
O18	O	1.527727	0.546503	0.742947
O19	O	1.103122	-0.106864	0.076295
O20	O	1.436455	0.226469	0.409629
O21	O	1.769789	0.559802	0.742962
Cu22	Cu	0.982090	-0.113514	0.090211
Cu23	Cu	1.315423	0.219820	0.423544
Cu24	Cu	1.648757	0.553153	0.756877
Cu25	Cu	0.982101	-0.113516	-0.090115
Cu26	Cu	1.315434	0.219817	0.243218
Cu27	Cu	1.648767	0.553151	0.576551
O28	O	0.975441	-0.234545	0.076278
O29	O	1.308775	0.098788	0.409612
O30	O	1.642108	0.432122	0.742945
C31	C	0.830090	-0.119626	0.000038
C32	C	1.163423	0.213708	0.333372
C33	C	1.496756	0.547041	0.666705
C34	C	0.737794	-0.118011	0.000033
C35	C	1.071128	0.215323	0.333366
C36	C	1.404461	0.548656	0.666700
C37	C	0.988206	0.038491	0.000058
C38	C	1.321540	0.371824	0.333391
C39	C	1.654873	0.705158	0.666724
C40	C	0.986591	0.130786	0.000059
C41	C	1.319925	0.464120	0.333392
C42	C	1.653258	0.797453	0.666726
C43	C	0.975984	-0.265521	0.000035
C44	C	1.309318	0.067813	0.333369
C45	C	1.642651	0.401146	0.666702
C46	C	0.977600	-0.357816	0.000028
C47	C	1.310933	-0.024483	0.333362
C48	C	1.644266	0.308851	0.666695
C49	C	0.515522	-0.190018	0.000038
C50	C	0.848855	0.143315	0.333371
C51	C	1.182188	0.476648	0.666704
C52	C	0.428801	-0.188494	0.000044
C53	C	0.762135	0.144839	0.333377
C54	C	1.095468	0.478172	0.666710
C55	C	0.448676	-0.037006	0.000052
C56	C	0.782009	0.296328	0.333386
C57	C	1.115342	0.629661	0.666719
C58	C	0.535394	-0.038530	0.000053
C59	C	0.868728	0.294803	0.333386
C60	C	1.202061	0.628136	0.666719
C61	C	0.568815	-0.115039	0.000041
C62	C	0.902148	0.218294	0.333374
C63	C	1.235482	0.551627	0.666708
C64	C	0.395376	-0.111990	0.000046
C65	C	0.728709	0.221343	0.333380
C66	C	1.062042	0.554676	0.666713
C67	C	0.301350	-0.110337	0.000053
C68	C	0.634683	0.222996	0.333386
C69	C	0.968016	0.556329	0.666720
C70	C	0.662847	-0.116693	0.000036
C71	C	0.996180	0.216641	0.333369
C72	C	1.329514	0.549974	0.666703
C73	C	1.134101	-0.107404	0.000055
C74	C	1.467435	0.225929	0.333388
C75	C	1.800768	0.559263	0.666722
C76	C	1.226397	-0.109019	0.000054
C77	C	1.559730	0.224314	0.333388
C78	C	1.893063	0.557648	0.666721
N79	N	0.982089	-0.113512	0.217042
N80	N	1.315422	0.219822	0.550376
N81	N	1.648755	0.553155	0.883709
C82	C	1.058599	0.353059	0.000049
C83	C	1.391932	0.686392	0.333382
C84	C	1.725266	1.019725	0.666716
C85	C	1.057075	0.439779	0.000041
C86	C	1.390408	0.773112	0.333375
C87	C	1.723742	1.106446	0.666708
C88	C	0.905586	0.419905	0.000036
C89	C	1.238919	0.753238	0.333369
C90	C	1.572253	1.086571	0.666702
C91	C	0.907111	0.333186	0.000037
C92	C	1.240444	0.666519	0.333370
C93	C	1.573778	0.999853	0.666703
C94	C	0.983620	0.299766	0.000048
C95	C	1.316953	0.633099	0.333381
C96	C	1.650287	0.966432	0.666715
C97	C	0.980571	0.473205	0.000039
C98	C	1.313904	0.806538	0.333373
C99	C	1.647238	1.139871	0.666706
C100	C	0.978918	0.567231	0.000031
C101	C	1.312251	0.900564	0.333364
C102	C	1.645585	1.233897	0.666698
C103	C	0.985273	0.205734	0.000055
C104	C	1.318607	0.539067	0.333388
C105	C	1.651940	0.872400	0.666721
N106	N	0.982109	-0.113511	-0.216947
N107	N	1.315442	0.219822	0.116386
N108	N	1.648775	0.553155	0.449719
C109	C	1.038644	-0.056994	0.452057
C110	C	1.371978	0.276340	0.785390
C111	C	1.705311	0.609673	1.118723
C112	C	1.038647	-0.056992	0.548038
C113	C	1.371980	0.276342	0.881371
C114	C	1.705314	0.609675	1.214704
C115	C	0.925547	-0.170032	0.548032
C116	C	1.258880	0.163301	0.881365
C117	C	1.592213	0.496634	1.214699
C118	C	0.925541	-0.170030	0.452052
C119	C	1.258874	0.163304	0.785386
C120	C	1.592208	0.496637	1.118719
C121	C	0.982095	-0.113511	0.404067
C122	C	1.315428	0.219822	0.737401
C123	C	1.648761	0.553155	1.070734
C124	C	0.982103	-0.113512	0.596028
C125	C	1.315436	0.219822	0.929361
C126	C	1.648769	0.553155	1.262695
C127	C	0.982105	-0.113510	0.700095
C128	C	1.315438	0.219823	1.033428
C129	C	1.648772	0.553157	1.366762
C130	C	0.982092	-0.113512	0.299993
C131	C	1.315425	0.219822	0.633327
C132	C	1.648758	0.553155	0.966660
H133	H	0.542730	-0.252317	0.000035
H134	H	0.876063	0.081017	0.333368
H135	H	1.209396	0.414350	0.666702
C136	C	0.824624	0.274560	0.000031
C137	C	1.157957	0.607893	0.333365
C138	C	1.491291	0.941226	0.666698
N139	N	0.762497	0.230402	0.000024
N140	N	1.095830	0.563736	0.333357
N141	N	1.429164	0.897069	0.666690
H142	H	1.084693	-0.010972	0.412989
H143	H	1.418026	0.322362	0.746323
H144	H	1.751359	0.655695	1.079656
H145	H	0.879503	-0.216049	0.587111
H146	H	1.212837	0.117284	0.920444
H147	H	1.546170	0.450617	1.253778
C148	C	0.370182	-0.270977	0.000045
C149	C	0.703515	0.062356	0.333378
C150	C	1.036849	0.395689	0.666711
N151	N	0.326030	-0.333108	0.000048
N152	N	0.659363	0.000226	0.333381
N153	N	0.992697	0.333559	0.666715
C154	C	0.821431	0.456676	0.000041
C155	C	1.154764	0.790009	0.333374
C156	C	1.488097	1.123343	0.666708
N157	N	0.758043	0.484371	0.000052
N158	N	1.091376	0.817704	0.333385
N159	N	1.424710	1.151038	0.666719
H160	H	1.084694	-0.010969	0.587108
H161	H	1.418027	0.322365	0.920441
H162	H	1.751361	0.655698	1.253775
H163	H	0.421454	0.025285	0.000067
H164	H	0.754787	0.358619	0.333401
H165	H	1.088121	0.691952	0.666734
C166	C	0.594021	0.043957	0.000056
C167	C	0.927354	0.377290	0.333390
C168	C	1.260688	0.710623	0.666723
N169	N	0.638178	0.106083	0.000061
N170	N	0.971512	0.439417	0.333395
N171	N	1.304845	0.772750	0.666728
C172	C	1.142761	0.316300	0.000051
C173	C	1.476094	0.649633	0.333385
C174	C	1.809427	0.982966	0.666718
N175	N	1.206154	0.288615	0.000049
N176	N	1.539487	0.621949	0.333382
N177	N	1.872821	0.955282	0.666716
H178	H	1.118130	0.483168	0.000040
H179	H	1.451464	0.816501	0.333373
H180	H	1.784797	1.149834	0.666707
C181	C	0.863366	-0.232244	0.399261
C182	C	1.196700	0.101089	0.732595
C183	C	1.530033	0.434422	1.065928
N184	N	0.816551	-0.279115	0.359499
N185	N	1.149884	0.054218	0.692832
N186	N	1.483217	0.387552	1.026165
