data_functionalizedCrystal
_audit_creation_method	'MofGen! by Chris Wilmer'
_symmetry_space_group_name_H-M	'P1'
_symmetry_Int_Tables_number	1
_symmetry_cell_setting	triclinic
loop_
_symmetry_equiv_pos_as_xyz
  x,y,z
_cell_length_a	15.944551
_cell_length_b	13.339070
_cell_length_c	15.021413
_cell_angle_alpha	89.995194
_cell_angle_beta	90.000443
_cell_angle_gamma	80.435984
loop_
_atom_site_label
_atom_site_type_symbol
_atom_site_fract_x
_atom_site_fract_y
_atom_site_fract_z
O1	O	0.421095	-1.342295	-0.074072
O2	O	0.921095	-0.842295	0.425928
O3	O	0.365822	-1.047765	-0.074066
O4	O	0.865822	-0.547765	0.425934
O5	O	0.273058	-1.203073	-0.074061
O6	O	0.773058	-0.703073	0.425939
O7	O	0.513859	-1.186987	-0.074077
O8	O	1.013859	-0.686987	0.425923
O9	O	0.273070	-1.203091	0.074003
O10	O	0.773070	-0.703091	0.574003
O11	O	0.365834	-1.047783	0.073999
O12	O	0.865834	-0.547783	0.573999
O13	O	0.421107	-1.342313	0.073992
O14	O	0.921107	-0.842313	0.573992
Zn15	Zn	0.393473	-1.195051	0.097504
Zn16	Zn	0.893473	-0.695051	0.597504
Zn17	Zn	0.393456	-1.195027	-0.097577
Zn18	Zn	0.893456	-0.695027	0.402423
O19	O	0.513871	-1.187005	0.073988
O20	O	1.013871	-0.687005	0.573988
C21	C	0.356492	-1.010084	-0.000033
C22	C	0.856492	-0.510084	0.499967
C23	C	0.328661	-0.897780	-0.000030
C24	C	0.828661	-0.397780	0.499970
C25	C	0.241614	-1.202414	-0.000029
C26	C	0.741614	-0.702414	0.499971
C27	C	0.147902	-1.200412	-0.000028
C28	C	0.647902	-0.700412	0.499972
C29	C	0.430437	-1.379994	-0.000043
C30	C	0.930437	-0.879994	0.499957
C31	C	0.458268	-1.492298	-0.000051
C32	C	0.958268	-0.992298	0.499949
C33	C	-0.090501	-1.099359	-0.000038
C34	C	0.409499	-0.599359	0.499962
C35	C	-0.140578	-1.146294	0.072965
C36	C	0.359422	-0.646294	0.572965
C37	C	-0.023668	-1.196790	-0.000035
C38	C	0.476332	-0.696790	0.499965
C39	C	-0.140569	-1.146299	-0.073014
C40	C	0.359431	-0.646299	0.426986
C41	C	-0.189398	-1.193285	-0.000045
C42	C	0.310602	-0.693285	0.499955
C43	C	-0.072511	-1.243752	0.073029
C44	C	0.427489	-0.743752	0.573029
C45	C	-0.072498	-1.243743	-0.073016
C46	C	0.427502	-0.743743	0.426984
C47	C	-0.122541	-1.290748	0.000005
C48	C	0.377459	-0.790748	0.500005
C49	C	0.071804	-1.198807	-0.000028
C50	C	0.571804	-0.698807	0.499972
C51	C	-0.284867	-1.191275	-0.000046
C52	C	0.215133	-0.691275	0.499954
C53	C	0.545315	-1.187664	-0.000047
C54	C	1.045315	-0.687664	0.499953
C55	C	0.639027	-1.189666	-0.000053
C56	C	1.139027	-0.689666	0.499947
N57	N	0.393485	-1.195075	0.230641
N58	N	0.893485	-0.695075	0.730641
C59	C	0.545054	-0.533002	-0.000058
C60	C	1.045054	-0.033002	0.499942
C61	C	0.571205	-0.638516	-0.000063
C62	C	1.071205	-0.138516	0.499937
C63	C	0.510571	-0.703337	-0.000055
C64	C	1.010571	-0.203337	0.499945
C65	C	0.423783	-0.662634	-0.000041
C66	C	0.923783	-0.162634	0.499959
C67	C	0.397630	-0.557109	-0.000043
C68	C	0.897630	-0.057109	0.499957
C69	C	0.363146	-0.727444	-0.000040
C70	C	0.863146	-0.227444	0.499960
C71	C	0.276358	-0.686741	-0.000026
C72	C	0.776358	-0.186741	0.499974
C73	C	0.250209	-0.581226	-0.000027
C74	C	0.750209	-0.081226	0.499973
C75	C	0.310843	-0.516405	-0.000036
C76	C	0.810843	-0.016405	0.499964
C77	C	0.389299	-0.832969	-0.000038
C78	C	0.889299	-0.332969	0.499962
C79	C	0.241875	-0.857076	-0.000023
C80	C	0.741875	-0.357076	0.499977
C81	C	0.215724	-0.751562	-0.000018
C82	C	0.715724	-0.251562	0.499982
N83	N	0.393439	-1.195011	-0.230715
N84	N	0.893439	-0.695011	0.269285
C85	C	0.350580	-1.266903	0.470303
C86	C	0.850580	-0.766903	0.970303
C87	C	0.312963	-1.175491	0.529635
C88	C	0.812963	-0.675491	1.029635
C89	C	0.393469	-1.195051	0.412248
C90	C	0.893469	-0.695051	0.912248
C91	C	0.431031	-1.286441	0.529658
C92	C	0.931031	-0.786441	1.029658
C93	C	0.393453	-1.195037	0.587672
C94	C	0.893453	-0.695037	1.087672
C95	C	0.355803	-1.103593	0.470274
C96	C	0.855803	-0.603593	0.970274
C97	C	0.473919	-1.214603	0.470292
C98	C	0.973919	-0.714603	0.970292
C99	C	0.436318	-1.123124	0.529597
C100	C	0.936318	-0.623124	1.029597
C101	C	0.393476	-1.195061	0.311191
C102	C	0.893476	-0.695061	0.811191
C103	C	0.393444	-1.195016	0.688728
C104	C	0.893444	-0.695016	1.188728
H105	H	-0.076038	-1.018487	0.000036
H106	H	0.423962	-0.518487	0.500036
Cl107	Cl	0.492289	-1.029204	0.569543
Cl108	Cl	0.992289	-0.529204	1.069543
H109	H	0.462807	-1.363734	0.555743
H110	H	0.962807	-0.863734	1.055743
H111	H	0.531868	-0.789251	-0.000061
H112	H	1.031868	-0.289251	0.499939
Cl113	Cl	0.141104	-0.530058	-0.000041
Cl114	Cl	0.641104	-0.030058	0.499959
H115	H	0.145059	-0.718406	-0.000014
H116	H	0.645059	-0.218406	0.499986
H117	H	0.314268	-1.327603	0.444268
H118	H	0.814268	-0.827603	0.944268
H119	H	-0.042921	-1.284934	0.134816
H120	H	0.457079	-0.784934	0.634816
H121	H	0.541949	-1.231182	0.444205
H122	H	1.041949	-0.731182	0.944205
H123	H	0.192502	-0.909854	-0.000020
H124	H	0.692502	-0.409854	0.499980
H125	H	0.244920	-1.158941	0.555703
H126	H	0.744920	-0.658941	1.055703
Cl127	Cl	-0.026609	-1.307302	-0.168313
Cl128	Cl	0.473391	-0.807302	0.331687
Cl129	Cl	0.306622	-0.984231	0.430176
Cl130	Cl	0.806622	-0.484231	0.930176
Cl131	Cl	0.277971	-0.383752	-0.000028
Cl132	Cl	0.777971	0.116248	0.499972
Cl133	Cl	-0.186426	-1.082637	-0.168296
Cl134	Cl	0.313574	-0.582637	0.331704
H135	H	-0.170284	-1.105092	0.134686
H136	H	0.329716	-0.605092	0.634686
H137	H	0.641868	-0.671649	-0.000081
H138	H	1.141868	-0.171649	0.499919
Cl139	Cl	-0.144621	-1.415716	0.000062
Cl140	Cl	0.355379	-0.915716	0.500062
H141	H	0.459963	-0.866099	-0.000045
H142	H	0.959963	-0.366099	0.499955
H143	H	0.594413	-0.480216	-0.000073
H144	H	1.094413	0.019784	0.499927
