data_functionalizedCrystal
_audit_creation_method	'MofGen! by Chris Wilmer'
_symmetry_space_group_name_H-M	'P1'
_symmetry_Int_Tables_number	1
_symmetry_cell_setting	triclinic
loop_
_symmetry_equiv_pos_as_xyz
  x,y,z
_cell_length_a	14.519709
_cell_length_b	12.996460
_cell_length_c	14.519731
_cell_angle_alpha	90.007128
_cell_angle_beta	83.684499
_cell_angle_gamma	89.999966
loop_
_atom_site_label
_atom_site_type_symbol
_atom_site_fract_x
_atom_site_fract_y
_atom_site_fract_z
O1	O	1.223878	0.085435	0.120892
O2	O	1.557211	0.418769	0.454225
O3	O	1.890545	0.752102	0.787558
O4	O	0.955402	0.085467	0.135128
O5	O	1.288736	0.418800	0.468461
O6	O	1.622069	0.752134	0.801795
O7	O	1.096748	0.085441	-0.006227
O8	O	1.430081	0.418774	0.327106
O9	O	1.763415	0.752108	0.660439
O10	O	1.082532	0.085461	0.262247
O11	O	1.415865	0.418795	0.595580
O12	O	1.749199	0.752128	0.928914
O13	O	1.096733	-0.085693	-0.006235
O14	O	1.430067	0.247640	0.327098
O15	O	1.763400	0.580974	0.660432
O16	O	0.955387	-0.085667	0.135120
O17	O	1.288721	0.247666	0.468454
O18	O	1.622054	0.581000	0.801787
O19	O	1.223863	-0.085699	0.120884
O20	O	1.557197	0.247635	0.454217
O21	O	1.890530	0.580968	0.787551
Cu22	Cu	1.089624	-0.101309	0.128001
Cu23	Cu	1.422957	0.232025	0.461335
Cu24	Cu	1.756291	0.565358	0.794668
Cu25	Cu	1.089641	0.101077	0.128011
Cu26	Cu	1.422975	0.434410	0.461344
Cu27	Cu	1.756308	0.767744	0.794677
O28	O	1.082517	-0.085673	0.262239
O29	O	1.415851	0.247661	0.595573
O30	O	1.749184	0.580994	0.928906
C31	C	0.921035	-0.000096	0.134461
C32	C	1.254368	0.333237	0.467794
C33	C	1.587702	0.666571	0.801127
C34	C	0.818654	-0.000084	0.132473
C35	C	1.151987	0.333249	0.465806
C36	C	1.485320	0.666582	0.799139
N37	N	1.089618	-0.243656	0.127994
N38	N	1.422952	0.089678	0.461328
N39	N	1.756285	0.423011	0.794661
C40	C	0.443757	-0.000132	0.125153
C41	C	0.777091	0.333202	0.458486
C42	C	1.110424	0.666535	0.791820
C43	C	0.548065	-0.000118	0.127186
C44	C	0.881399	0.333215	0.460519
C45	C	1.214732	0.666549	0.793852
C46	C	0.631202	-0.000107	0.128813
C47	C	0.964535	0.333226	0.462146
C48	C	1.297869	0.666560	0.795479
C49	C	0.735517	-0.000095	0.130846
C50	C	1.068850	0.333238	0.464179
C51	C	1.402183	0.666571	0.797512
C52	C	1.089640	-0.663470	0.128012
C53	C	1.422973	-0.330137	0.461345
C54	C	1.756307	0.003197	0.794678
C55	C	1.089631	-0.546665	0.128010
C56	C	1.422965	-0.213332	0.461343
C57	C	1.756298	0.120002	0.794677
C58	C	1.089630	-0.453567	0.128004
C59	C	1.422963	-0.120233	0.461337
C60	C	1.756296	0.213100	0.794670
C61	C	1.089620	-0.336754	0.128001
C62	C	1.422953	-0.003421	0.461334
C63	C	1.756287	0.329913	0.794667
C64	C	1.258230	-0.000133	0.121551
C65	C	1.591564	0.333200	0.454885
C66	C	1.924897	0.666533	0.788218
C67	C	1.360612	-0.000138	0.123539
C68	C	1.693945	0.333195	0.456873
C69	C	2.027279	0.666528	0.790206
C70	C	1.096075	-0.000126	-0.040591
C71	C	1.429408	0.333207	0.292743
C72	C	1.762741	0.666540	0.626076
C73	C	1.094079	-0.000127	-0.142971
C74	C	1.427412	0.333207	0.190363
C75	C	1.760745	0.666540	0.523696
N76	N	1.089654	0.243424	0.128010
N77	N	1.422988	0.576757	0.461344
N78	N	1.756321	0.910091	0.794677
C79	C	1.092457	-0.000124	-0.226115
C80	C	1.425790	0.333209	0.107218
C81	C	1.759123	0.666543	0.440552
C82	C	1.090430	-0.000116	-0.330424
C83	C	1.423763	0.333217	0.002910
C84	C	1.757097	0.666551	0.336243
C85	C	1.088822	-0.000109	-0.413563
C86	C	1.422155	0.333224	-0.080229
C87	C	1.755488	0.666558	0.253104
C88	C	1.086795	-0.000103	-0.517878
C89	C	1.420129	0.333230	-0.184545
C90	C	1.753462	0.666564	0.148789
C91	C	1.083191	-0.000103	0.296603
C92	C	1.416524	0.333230	0.629936
C93	C	1.749858	0.666563	0.963269
C94	C	1.085187	-0.000096	0.398983
C95	C	1.418520	0.333237	0.732316
C96	C	1.751854	0.666571	1.065649
