data_functionalizedCrystal
_audit_creation_method	'MofGen! by Chris Wilmer'
_symmetry_space_group_name_H-M	'P1'
_symmetry_Int_Tables_number	1
_symmetry_cell_setting	triclinic
loop_
_symmetry_equiv_pos_as_xyz
  x,y,z
_cell_length_a	12.759401
_cell_length_b	12.594516
_cell_length_c	12.759393
_cell_angle_alpha	89.971950
_cell_angle_beta	89.979062
_cell_angle_gamma	90.017577
loop_
_atom_site_label
_atom_site_type_symbol
_atom_site_fract_x
_atom_site_fract_y
_atom_site_fract_z
Zn1	Zn	1.606257	-0.423647	-0.594038
Zn2	Zn	1.939590	-0.090314	-0.260705
Zn3	Zn	2.272923	0.243019	0.072629
Zn4	Zn	1.606143	-0.601663	-0.418366
Zn5	Zn	1.939477	-0.268330	-0.085032
Zn6	Zn	2.272810	0.065003	0.248301
Zn7	Zn	1.430555	-0.423704	-0.418373
Zn8	Zn	1.763889	-0.090371	-0.085040
Zn9	Zn	2.097222	0.242963	0.248294
Zn10	Zn	1.430543	-0.601589	-0.594003
Zn11	Zn	1.763876	-0.268256	-0.260669
Zn12	Zn	2.097210	0.065078	0.072664
O13	O	1.518375	-0.512651	-0.506195
O14	O	1.851708	-0.179318	-0.172862
O15	O	2.185041	0.154016	0.160472
O16	O	1.753263	-0.447269	-0.570746
O17	O	2.086596	-0.113936	-0.237413
O18	O	2.419929	0.219398	0.095920
O19	O	1.582809	-0.578111	-0.271345
O20	O	1.916142	-0.244778	0.061988
O21	O	2.249476	0.088555	0.395321
O22	O	1.453915	-0.274751	-0.441693
O23	O	1.787248	0.058583	-0.108360
O24	O	2.120581	0.391916	0.224973
O25	O	1.753179	-0.578056	-0.441680
O26	O	2.086513	-0.244723	-0.108347
O27	O	2.419846	0.088610	0.224986
O28	O	1.583002	-0.274709	-0.570754
O29	O	1.916335	0.058624	-0.237420
O30	O	2.249668	0.391958	0.095913
O31	O	1.453805	-0.447365	-0.271351
O32	O	1.787139	-0.114032	0.061982
O33	O	2.120472	0.219301	0.395316
O34	O	1.283533	-0.447293	-0.441659
O35	O	1.616866	-0.113960	-0.108326
O36	O	1.950199	0.219373	0.225007
O37	O	1.453894	-0.577930	-0.741029
O38	O	1.787227	-0.244596	-0.407695
O39	O	2.120561	0.088737	-0.074362
O40	O	1.283524	-0.577985	-0.570694
O41	O	1.616857	-0.244651	-0.237360
O42	O	1.950190	0.088682	0.095973
O43	O	1.582990	-0.447197	-0.741054
O44	O	1.916323	-0.113863	-0.407721
O45	O	2.249657	0.219470	-0.074388
O46	O	1.582797	-0.750599	-0.441646
O47	O	1.916131	-0.417266	-0.108313
O48	O	2.249464	-0.083933	0.225020
O49	O	1.453784	-0.750545	-0.570686
O50	O	1.787118	-0.417211	-0.237353
O51	O	2.120451	-0.083878	0.095980
C52	C	1.245407	-0.512638	-0.506174
C53	C	1.578741	-0.179305	-0.172841
C54	C	1.912074	0.154029	0.160493
C55	C	1.128631	-0.512658	-0.506190
C56	C	1.461964	-0.179325	-0.172857
C57	C	1.795297	0.154009	0.160477
C58	C	1.518306	-0.789192	-0.506185
C59	C	1.851639	-0.455859	-0.172851
C60	C	2.184972	-0.122525	0.160482
C61	C	1.518372	-0.907497	-0.506215
C62	C	1.851706	-0.574164	-0.172882
C63	C	2.185039	-0.240831	0.160451
C64	C	1.073791	-0.580812	-0.573272
C65	C	1.407125	-0.247479	-0.239939
C66	C	1.740458	0.085854	0.093394
C67	C	0.964067	-0.580817	-0.573293
C68	C	1.297401	-0.247483	-0.239960
C69	C	1.630734	0.085850	0.093373
C70	C	0.964031	-0.444509	-0.439140
C71	C	1.297365	-0.111175	-0.105807
C72	C	1.630698	0.222158	0.227526
C73	C	1.073753	-0.444500	-0.439125
C74	C	1.407087	-0.111167	-0.105792
C75	C	1.740420	0.222167	0.227541
C76	C	1.448195	-0.976759	-0.576351
C77	C	1.781529	-0.643426	-0.243017
C78	C	2.114862	-0.310093	0.090316
C79	C	1.422594	-1.047629	-0.480484
C80	C	1.755928	-0.714295	-0.147150
C81	C	2.089261	-0.380962	0.186183
C82	C	1.544069	-1.047427	-0.602099
C83	C	1.877403	-0.714094	-0.268766
C84	C	2.210736	-0.380760	0.064568
C85	C	1.492721	-0.976808	-0.410297
C86	C	1.826054	-0.643475	-0.076964
C87	C	2.159387	-0.310142	0.256369
C88	C	1.614240	-0.976600	-0.531977
C89	C	1.947573	-0.643267	-0.198644
C90	C	2.280907	-0.309934	0.134689
C91	C	1.588675	-1.047438	-0.436044
C92	C	1.922009	-0.714104	-0.102711
C93	C	2.255342	-0.380771	0.230623
C94	C	1.792408	-0.512665	-0.506216
C95	C	2.125741	-0.179331	-0.172883
C96	C	2.459074	0.154002	0.160450
C97	C	1.909184	-0.512671	-0.506226
C98	C	2.242518	-0.179337	-0.172892
C99	C	2.575851	0.153996	0.160441
C100	C	1.518453	-0.512549	-0.780228
C101	C	1.851786	-0.179215	-0.446895
C102	C	2.185120	0.154118	-0.113562
C103	C	1.518487	-0.512505	-0.897005
C104	C	1.851820	-0.179172	-0.563672
C105	C	2.185153	0.154162	-0.230338
C106	C	1.518472	-0.235030	-0.506228
C107	C	1.851806	0.098303	-0.172895
C108	C	2.185139	0.431637	0.160438
C109	C	1.518514	-0.116725	-0.506242
C110	C	1.851847	0.216609	-0.172909
C111	C	2.185181	0.549942	0.160424
C112	C	1.585712	-0.444422	-0.951882
C113	C	1.919045	-0.111088	-0.618549
C114	C	2.252379	0.222245	-0.285216
C115	C	1.585730	-0.444376	-1.061606
C116	C	1.919063	-0.111042	-0.728273
C117	C	2.252396	0.222291	-0.394940
C118	C	1.451294	-0.580506	-1.061567
C119	C	1.784627	-0.247173	-0.728233
C120	C	2.117961	0.086161	-0.394900
C121	C	1.451272	-0.580546	-0.951844
C122	C	1.784605	-0.247212	-0.618511
C123	C	2.117938	0.086121	-0.285178
C124	C	1.518357	-0.512676	-0.233228
C125	C	1.851690	-0.179343	0.100106
C126	C	2.185023	0.153991	0.433439
C127	C	1.518527	-0.512420	-0.116451
C128	C	1.851860	-0.179086	0.216882
C129	C	2.185193	0.154247	0.550215
H130	H	1.118469	-0.636308	-0.627883
H131	H	1.451803	-0.302975	-0.294550
H132	H	1.785136	0.030358	0.038783
H133	H	1.640440	-0.389016	-0.907235
H134	H	1.973773	-0.055682	-0.573902
H135	H	2.307106	0.277651	-0.240569
H136	H	1.388743	-0.945724	-0.635576
H137	H	1.722076	-0.612391	-0.302242
H138	H	2.055410	-0.279058	0.031091
H139	H	0.919422	-0.636313	-0.627920
H140	H	1.252756	-0.302980	-0.294587
H141	H	1.586089	0.030353	0.038747
H142	H	1.640470	-0.388934	-1.106282
H143	H	1.973803	-0.055600	-0.772949
H144	H	2.307136	0.277733	-0.439616
H145	H	1.341587	-1.078851	-0.458716
H146	H	1.674920	-0.745517	-0.125383
H147	H	2.008253	-0.412184	0.207951
H148	H	1.470950	-0.945916	-0.329198
H149	H	1.804283	-0.612583	0.004135
H150	H	2.137616	-0.279249	0.337468
F151	F	1.132121	-0.371951	-0.367729
F152	F	1.465454	-0.038618	-0.034395
F153	F	1.798787	0.294716	0.298938
H154	H	1.396572	-0.635905	-1.106230
H155	H	1.729906	-0.302571	-0.772897
H156	H	2.063239	0.030762	-0.439563
F157	F	0.905618	-0.371975	-0.367768
F158	F	1.238951	-0.038642	-0.034435
F159	F	1.572284	0.294691	0.298899
H160	H	1.648082	-1.078276	-0.376676
H161	H	1.981416	-0.744943	-0.043343
H162	H	2.314749	-0.411609	0.289991
F163	F	1.720100	-0.935792	-0.560488
F164	F	2.053433	-0.602458	-0.227155
F165	F	2.386766	-0.269125	0.106178
H166	H	1.565747	-1.078448	-0.683176
H167	H	1.899080	-0.745114	-0.349842
H168	H	2.232413	-0.411781	-0.016509
F169	F	1.379713	-0.653009	-0.893437
F170	F	1.713046	-0.319675	-0.560103
F171	F	2.046379	0.013658	-0.226770
