data_functionalizedCrystal
_audit_creation_method	'MofGen! by Chris Wilmer'
_symmetry_space_group_name_H-M	'P1'
_symmetry_Int_Tables_number	1
_symmetry_cell_setting	triclinic
loop_
_symmetry_equiv_pos_as_xyz
  x,y,z
_cell_length_a	17.077404
_cell_length_b	17.077402
_cell_length_c	17.077396
_cell_angle_alpha	89.970216
_cell_angle_beta	89.978543
_cell_angle_gamma	90.021987
loop_
_atom_site_label
_atom_site_type_symbol
_atom_site_fract_x
_atom_site_fract_y
_atom_site_fract_z
Zn1	Zn	-1.200055	0.312527	0.443877
Zn2	Zn	-0.700055	0.812527	0.943877
Zn3	Zn	-1.199962	0.443802	0.312608
Zn4	Zn	-0.699962	0.943802	0.812608
Zn5	Zn	-1.068786	0.312552	0.312620
Zn6	Zn	-0.568786	0.812552	0.812620
Zn7	Zn	-1.068754	0.443753	0.443827
Zn8	Zn	-0.568754	0.943753	0.943827
O9	O	-1.134389	0.378158	0.378233
O10	O	-0.634389	0.878158	0.878233
O11	O	-1.309889	0.329951	0.426479
O12	O	-0.809889	0.829951	0.926479
O13	O	-1.182536	0.426422	0.202762
O14	O	-0.682536	0.926422	0.702762
O15	O	-1.086252	0.202702	0.330058
O16	O	-0.586252	0.702702	0.830058
O17	O	-1.309821	0.426398	0.330036
O18	O	-0.809821	0.926398	0.830036
O19	O	-1.182694	0.202683	0.426491
O20	O	-0.682694	0.702683	0.926491
O21	O	-1.086162	0.329993	0.202771
O22	O	-0.586162	0.829993	0.702771
O23	O	-0.958935	0.329946	0.330009
O24	O	-0.458935	0.829946	0.830009
O25	O	-1.086197	0.426314	0.553680
O26	O	-0.586197	0.926314	1.053680
O27	O	-0.958912	0.426338	0.426406
O28	O	-0.458912	0.926338	0.926406
O29	O	-1.182663	0.329903	0.553717
O30	O	-0.682663	0.829903	1.053717
O31	O	-1.182505	0.553642	0.329988
O32	O	-0.682505	1.053642	0.829988
O33	O	-1.086107	0.553606	0.426394
O34	O	-0.586107	1.053606	0.926394
C35	C	-0.930441	0.378140	0.378204
C36	C	-0.430441	0.878140	0.878204
C37	C	-0.843192	0.378151	0.378210
C38	C	-0.343192	0.878151	0.878210
C39	C	-0.802210	0.428418	0.428322
C40	C	-0.302210	0.928418	0.928322
C41	C	-0.720229	0.428418	0.428332
C42	C	-0.220229	0.928418	0.928332
C43	C	-0.679232	0.378155	0.378225
C44	C	-0.179232	0.878155	0.878225
C45	C	-0.720220	0.327883	0.328111
C46	C	-0.220220	0.827883	0.828111
C47	C	-0.802199	0.327879	0.328106
C48	C	-0.302199	0.827879	0.828106
C49	C	-0.549350	0.327895	0.328124
C50	C	-0.049350	0.827895	0.828124
C51	C	-0.467365	0.327899	0.328128
C52	C	0.032635	0.827899	0.828128
C53	C	-0.467380	0.428433	0.428350
C54	C	0.032620	0.928433	0.928350
C55	C	-0.549359	0.428430	0.428345
C56	C	-0.049359	0.928430	0.928345
C57	C	-0.590341	0.378159	0.378230
C58	C	-0.090341	0.878159	0.878230
C59	C	-0.339134	0.378172	0.378253
C60	C	0.160866	0.878172	0.878253
C61	C	-0.426383	0.378166	0.378240
C62	C	0.073617	0.878166	0.878240
C63	C	-1.134314	0.582106	0.378201
C64	C	-0.634314	1.082106	0.878201
C65	C	-1.134353	0.669356	0.378214
C66	C	-0.634353	1.169356	0.878214
C67	C	-1.134437	0.378100	0.582977
C68	C	-0.634437	0.878100	1.082977
C69	C	-1.134457	0.378076	0.670227
C70	C	-0.634457	0.878076	1.170227
C71	C	-1.134487	0.173414	0.378281
C72	C	-0.634487	0.673414	0.878281
C73	C	-1.134528	0.086164	0.378302
C74	C	-0.634528	0.586164	0.878302
C75	C	-1.184598	0.710339	0.328069
C76	C	-0.684598	1.210339	0.828069
C77	C	-1.184637	0.792319	0.328089
C78	C	-0.684637	1.292319	0.828089
C79	C	-1.134425	0.833315	0.378251
C80	C	-0.634425	1.333315	0.878251
C81	C	-1.084178	0.792327	0.428401
C82	C	-0.584178	1.292327	0.928401
C83	C	-1.084144	0.710348	0.428385
C84	C	-0.584144	1.210348	0.928385
C85	C	-1.084250	0.963197	0.428431
C86	C	-0.584250	1.463197	0.928431
C87	C	-1.084283	1.045181	0.428447
C88	C	-0.584283	1.545181	0.928447
C89	C	-1.184743	1.045168	0.328136
C90	C	-0.684743	1.545168	0.828136
C91	C	-1.184709	0.963189	0.328119
C92	C	-0.684709	1.463189	0.828119
C93	C	-1.134461	0.922206	0.378269
C94	C	-0.634461	1.422206	0.878269
C95	C	-1.134387	0.378159	0.174285
C96	C	-0.634387	0.878159	0.674285
C97	C	-1.134519	0.377963	0.087036
C98	C	-0.634519	0.877963	0.587036
C99	C	-1.184689	0.327870	0.711237
C100	C	-0.684689	0.827870	1.211237
C101	C	-1.184698	0.327844	0.793218
C102	C	-0.684698	0.827844	1.293218
C103	C	-1.134479	0.378028	0.834186
C104	C	-0.634479	0.878028	1.334186
C105	C	-1.084242	0.428236	0.793170
C106	C	-0.584242	0.928236	1.293170
C107	C	-1.084229	0.428257	0.711191
C108	C	-0.584229	0.928257	1.211191
C109	C	-1.084274	0.428188	0.964040
C110	C	-0.584274	0.928188	1.464040
C111	C	-1.084288	0.428168	1.046025
C112	C	-0.584288	0.928168	1.546025
C113	C	-1.184742	0.327776	1.046067
C114	C	-0.684742	0.827776	1.546067
C115	C	-1.184730	0.327797	0.964088
C116	C	-0.684730	0.827797	1.464088
C117	C	-1.134493	0.378006	0.923077
C118	C	-0.634493	0.878006	1.423077
H119	H	-0.434009	0.469364	0.469159
H120	H	0.065991	0.969364	0.969159
H121	H	-1.225483	0.676965	0.287219
H122	H	-0.725483	1.176965	0.787219
O123	O	-1.233649	0.279082	1.085869
O124	O	-0.733649	0.779082	1.585869
C125	C	-1.311874	0.296238	1.065843
C126	C	-0.811874	0.796238	1.565843
H127	H	-1.315805	0.358955	1.043292
H128	H	-0.815805	0.858955	1.543292
H129	H	-1.350661	0.289466	1.119769
H130	H	-0.850661	0.789466	1.619769
H131	H	-1.332410	0.254168	1.018275
H132	H	-0.832410	0.754168	1.518275
H133	H	-1.043393	0.469030	1.079379
H134	H	-0.543393	0.969030	1.579379
H135	H	-1.225627	0.286937	0.930734
H136	H	-0.725627	0.786937	1.430734
O137	O	-1.233458	0.278964	0.832963
O138	O	-0.733458	0.778964	1.332963
C139	C	-1.216325	0.200734	0.812951
C140	C	-0.716325	0.700734	1.312951
H141	H	-1.186137	0.199127	0.753425
H142	H	-0.686137	0.699127	1.253425
H143	H	-1.272995	0.165544	0.810159
H144	H	-0.772995	0.665544	1.310159
H145	H	-1.175992	0.174270	0.859087
H146	H	-0.675992	0.674270	1.359087
H147	H	-0.433988	0.286961	0.287336
H148	H	0.066012	0.786961	0.787336
H149	H	-1.225551	0.825684	0.287256
H150	H	-0.725551	1.325684	0.787256
H151	H	-0.582737	0.469363	0.469142
H152	H	-0.082737	0.969363	0.969142
H153	H	-0.686866	0.469351	0.469138
H154	H	-0.186866	0.969351	0.969138
O155	O	-0.589039	0.279042	0.279363
O156	O	-0.089039	0.779042	0.779363
C157	C	-0.535277	0.234669	0.235147
C158	C	-0.035277	0.734669	0.735147
H159	H	-0.476826	0.266817	0.232383
H160	H	0.023174	0.766817	0.732383
H161	H	-0.558937	0.226227	0.173311
H162	H	-0.058937	0.726227	0.673311
H163	H	-0.526597	0.175084	0.263991
H164	H	-0.026597	0.675084	0.763991
H165	H	-1.043298	0.825712	0.469247
H166	H	-0.543298	1.325712	0.969247
H167	H	-1.043335	0.929831	0.469271
H168	H	-0.543335	1.429831	0.969271
O169	O	-1.035463	0.477048	0.924323
O170	O	-0.535463	0.977048	1.424323
C171	C	-0.991136	0.521333	0.978060
C172	C	-0.491136	1.021333	1.478060
H173	H	-1.023288	0.524020	1.036508
H174	H	-0.523288	1.024020	1.536508
H175	H	-0.982753	0.583191	0.954362
H176	H	-0.482753	1.083191	1.454362
H177	H	-0.931522	0.492598	0.986761
H178	H	-0.431522	0.992598	1.486761
O179	O	-1.233722	1.084966	0.279579
O180	O	-0.733722	1.584966	0.779579
C181	C	-1.284403	1.132262	0.324396
C182	C	-0.784403	1.632262	0.824396
H183	H	-1.289084	1.107507	0.386228
H184	H	-0.789084	1.607507	0.886228
H185	H	-1.344871	1.133080	0.296149
H186	H	-0.844871	1.633080	0.796149
H187	H	-1.260237	1.194443	0.327049
H188	H	-0.760237	1.694443	0.827049
H189	H	-0.835565	0.286943	0.287304
H190	H	-0.335565	0.786943	0.787304
O191	O	-1.035498	0.477093	0.832879
O192	O	-0.535498	0.977093	1.332879
C193	C	-1.052625	0.555337	0.812844
C194	C	-0.552625	1.055337	1.312844
H195	H	-1.082788	0.556982	0.753327
H196	H	-0.582788	1.056982	1.253327
H197	H	-0.995955	0.590530	0.810019
H198	H	-0.495955	1.090530	1.310019
H199	H	-1.092978	0.581768	0.858983
H200	H	-0.592978	1.081768	1.358983
O201	O	-1.035536	1.085128	0.477101
O202	O	-0.535536	1.585128	0.977101
C203	C	-1.046354	1.166272	0.466369
C204	C	-0.546354	1.666272	0.966369
H205	H	-1.072098	1.177485	0.405814
H206	H	-0.572098	1.677485	0.905814
H207	H	-0.987567	1.197473	0.471646
H208	H	-0.487567	1.697473	0.971646
H209	H	-1.088143	1.189472	0.512969
H210	H	-0.588143	1.689472	1.012969
O211	O	-0.841910	0.477269	0.477072
O212	O	-0.341910	0.977269	0.977072
C213	C	-0.788154	0.521647	0.521291
C214	C	-0.288154	1.021647	1.021291
H215	H	-0.729729	0.489500	0.524067
H216	H	-0.229729	0.989500	1.024067
H217	H	-0.811863	0.530097	0.583122
H218	H	-0.311863	1.030097	1.083122
H219	H	-0.779402	0.581229	0.492441
H220	H	-0.279402	1.081229	0.992441
O221	O	-0.680482	0.279095	0.279330
O222	O	-0.180482	0.779095	0.779330
C223	C	-0.700459	0.296160	0.201060
C224	C	-0.200459	0.796160	0.701060
H225	H	-0.759971	0.326328	0.199374
H226	H	-0.259971	0.826328	0.699374
H227	H	-0.703264	0.239462	0.165965
H228	H	-0.203264	0.739462	0.665965
H229	H	-0.654296	0.336487	0.174552
H230	H	-0.154296	0.836487	0.674552
O231	O	-1.035549	0.477067	0.671260
O232	O	-0.535549	0.977067	1.171260
C233	C	-1.080214	0.527792	0.623851
C234	C	-0.580214	1.027792	1.123851
H235	H	-1.139714	0.500114	0.611597
H236	H	-0.639714	1.000114	1.111597
H237	H	-1.048231	0.538320	0.566190
H238	H	-0.548231	1.038320	1.066190
H239	H	-1.088815	0.585959	0.655429
H240	H	-0.588815	1.085959	1.155429
H241	H	-1.043230	0.676980	0.469218
H242	H	-0.543230	1.176980	0.969218
O243	O	-1.233361	0.279080	0.671359
O244	O	-0.733361	0.779080	1.171359
C245	C	-1.188684	0.228376	0.623959
C246	C	-0.688684	0.728376	1.123959
H247	H	-1.129183	0.256062	0.611655
H248	H	-0.629183	0.756062	1.111655
H249	H	-1.220654	0.217868	0.566323
H250	H	-0.720654	0.717868	1.066323
H251	H	-1.180087	0.170197	0.655570
H252	H	-0.680087	0.670197	1.155570
H253	H	-1.225591	0.929810	0.287270
H254	H	-0.725591	1.429810	0.787270
