data_functionalizedCrystal
_audit_creation_method	'MofGen! by Chris Wilmer'
_symmetry_space_group_name_H-M	'P1'
_symmetry_Int_Tables_number	1
_symmetry_cell_setting	triclinic
loop_
_symmetry_equiv_pos_as_xyz
  x,y,z
_cell_length_a	10.654550
_cell_length_b	27.732048
_cell_length_c	9.130313
_cell_angle_alpha	89.993840
_cell_angle_beta	89.996220
_cell_angle_gamma	83.563778
loop_
_atom_site_label
_atom_site_type_symbol
_atom_site_fract_x
_atom_site_fract_y
_atom_site_fract_z
O1	O	1.664980	0.067884	-0.121937
O2	O	1.299230	0.074351	-0.121916
O3	O	1.493465	0.000792	-0.121899
O4	O	1.470746	0.141444	-0.121954
O5	O	1.493462	0.000794	0.121700
O6	O	1.299228	0.074353	0.121683
O7	O	1.664978	0.067886	0.121661
Cu8	Cu	1.482103	0.071120	0.143915
Cu9	Cu	1.482105	0.071117	-0.144169
O10	O	1.470743	0.141446	0.121645
C11	C	1.252451	0.073878	-0.000113
C12	C	1.113067	0.072457	-0.000103
C13	C	1.492987	-0.017217	-0.000096
C14	C	1.491551	-0.070881	-0.000084
C15	C	1.031761	0.115768	-0.000142
C16	C	0.900796	0.114430	-0.000166
C17	C	0.932457	0.026466	-0.000121
C18	C	1.063419	0.027805	-0.000086
C19	C	1.013480	0.166553	-0.000174
C20	C	0.882516	0.165215	-0.000199
C21	C	1.597290	-0.409038	-0.000165
C22	C	1.591962	-0.610731	-0.000185
O23	O	1.688653	-0.641384	-0.000255
N24	N	1.476789	-0.630572	-0.000177
C25	C	1.362940	-0.599986	-0.000173
O26	O	1.264856	-0.621490	-0.000182
C27	C	1.368269	-0.398294	-0.000164
C28	C	1.483449	-0.378456	-0.000157
C29	C	1.712461	-0.389199	-0.000160
C30	C	1.713792	-0.338779	-0.000147
C31	C	1.599951	-0.308197	-0.000139
C32	C	1.484780	-0.328036	-0.000144
C33	C	1.254421	-0.367709	-0.000171
C34	C	1.255764	-0.317284	-0.000172
C35	C	1.370944	-0.297446	-0.000165
C36	C	1.372271	-0.247034	-0.000123
N37	N	1.487444	-0.227193	-0.000131
C38	C	1.601284	-0.257775	-0.000139
C39	C	1.360150	-0.705877	-0.000175
C40	C	1.358817	-0.756300	-0.000175
C41	C	1.587840	-0.767041	-0.000190
C42	C	1.589171	-0.716618	-0.000180
C43	C	1.475323	-0.686036	-0.000184
C44	C	1.604070	-0.151888	-0.000111
C45	C	1.605391	-0.101463	-0.000092
C46	C	1.376369	-0.090726	-0.000085
C47	C	1.375047	-0.141147	-0.000096
C48	C	1.488908	-0.171727	-0.000114
O49	O	1.275631	-0.216352	-0.000070
O50	O	1.699354	-0.236261	-0.000163
C51	C	1.595959	-0.459458	-0.000178
C52	C	1.480788	-0.479296	-0.000183
C53	C	1.366948	-0.448715	-0.000175
C54	C	1.479455	-0.529719	-0.000183
C55	C	1.593296	-0.560301	-0.000191
C56	C	1.708469	-0.540460	-0.000199
C57	C	1.709800	-0.490040	-0.000186
C58	C	1.251774	-0.468556	-0.000167
C59	C	1.250453	-0.518976	-0.000178
C60	C	1.364293	-0.549558	-0.000186
C61	C	1.711757	0.068360	-0.000144
C62	C	1.851141	0.069780	-0.000164
C63	C	1.471221	0.159454	-0.000162
C64	C	1.472657	0.213118	-0.000183
N65	N	1.482110	0.071121	0.346538
N66	N	1.482108	0.071112	-0.346792
C67	C	1.568138	0.038560	0.423197
C68	C	1.568135	0.038554	0.576534
C69	C	1.396071	0.103675	0.576538
C70	C	1.396069	0.103678	0.423204
C71	C	1.667482	0.000964	0.423195
C72	C	1.667479	0.000959	0.576532
H73	H	1.129616	-0.007463	-0.000034
H74	H	1.326018	0.130181	0.638977
H75	H	1.682961	-0.700469	-0.000176
C76	C	1.624341	-0.079601	0.486310
C77	C	1.640632	-0.049183	0.367016
H78	H	1.607757	-0.110558	0.451623
H79	H	1.698937	-0.083015	0.544092
H80	H	1.555264	-0.065863	0.544104
H81	H	1.709716	-0.062920	0.309228
H82	H	1.566028	-0.045771	0.309209
H83	H	0.836198	0.180563	0.104963
H84	H	1.758171	0.012736	0.375626
C85	C	1.876024	0.018924	0.513423
C86	C	1.797291	0.012135	0.632715
H87	H	1.956158	0.025826	0.548111
H88	H	1.886143	-0.009725	0.455630
H89	H	1.839172	0.045281	0.455639
H90	H	1.834139	-0.014225	0.690493
H91	H	1.787175	0.040788	0.690532
H92	H	1.805169	-0.414094	-0.000172
H93	H	1.048457	0.182723	-0.105352
H94	H	1.699189	-0.085314	-0.000083
H95	H	1.807584	-0.322632	-0.000148
H96	H	1.803591	-0.473893	-0.000181
H97	H	0.892018	-0.009888	-0.000129
H98	H	1.638442	-0.034148	0.624095
H99	H	1.159070	-0.443660	-0.000164
C100	C	1.028186	-0.352006	-0.000200
C101	C	1.127809	-0.389506	-0.000191
H102	H	0.950017	-0.365463	-0.000224
H103	H	1.033467	-0.332570	0.084749
H104	H	1.033501	-0.332558	-0.085148
H105	H	1.122499	-0.408952	0.084763
H106	H	1.122525	-0.408950	-0.085149
C107	C	0.944312	0.208283	0.220885
C108	C	1.051962	0.193363	0.137445
H109	H	0.968074	0.224831	0.305847
H110	H	0.887176	0.229434	0.164227
H111	H	0.904693	0.180701	0.249189
H112	H	1.091577	0.220946	0.109131
H113	H	1.109120	0.172211	0.194114
C114	C	1.124387	-0.254344	-0.125396
C115	C	1.130614	-0.283669	-0.000175
H116	H	1.047122	-0.233595	-0.125397
H117	H	1.193157	-0.235311	-0.125379
H118	H	1.128638	-0.274239	-0.210338
H119	H	1.126372	-0.263775	0.084767
H120	H	1.061825	-0.302704	-0.000179
H121	H	1.680533	-0.791950	-0.000196
C122	C	0.921239	0.208044	-0.221296
C123	C	0.825082	0.191044	-0.137836
H124	H	0.885779	0.223987	-0.306265
H125	H	0.962795	0.230202	-0.164657
H126	H	0.980345	0.181469	-0.249588
H127	H	0.765980	0.217619	-0.109535
H128	H	0.783505	0.168884	-0.194486
C129	C	1.830585	-0.157427	-0.000103
C130	C	1.729227	-0.185497	-0.000118
H131	H	1.907848	-0.178176	-0.000092
H132	H	1.826339	-0.137534	-0.085044
H133	H	1.826314	-0.137539	0.084853
H134	H	1.733492	-0.205382	-0.085080
H135	H	1.733474	-0.205398	0.084832
H136	H	1.265026	-0.772447	-0.000155
H137	H	1.267435	-0.680982	-0.000178
C138	C	1.148803	-0.125462	-0.000096
C139	C	1.248441	-0.162956	-0.000105
H140	H	1.070642	-0.138925	-0.000124
H141	H	1.154077	-0.106029	0.084861
H142	H	1.154106	-0.106010	-0.085036
H143	H	1.243143	-0.182406	0.084841
H144	H	1.243164	-0.182397	-0.085071
H145	H	1.801162	-0.565369	-0.000199
C146	C	1.024203	-0.503282	-0.000190
C147	C	1.123834	-0.540778	-0.000190
H148	H	0.946038	-0.516741	-0.000217
H149	H	1.029480	-0.483847	0.084763
H150	H	1.029513	-0.483831	-0.085134
H151	H	1.118529	-0.560227	0.084760
H152	H	1.118554	-0.560221	-0.085152
C153	C	1.225985	0.168042	0.438618
C154	C	1.301496	0.139467	0.338939
H155	H	1.167603	0.190139	0.386593
H156	H	1.181222	0.147757	0.498427
H157	H	1.277921	0.185616	0.498419
H158	H	1.249561	0.121891	0.279145
H159	H	1.346262	0.159755	0.279105
C160	C	1.245038	-0.027782	-0.125314
C161	C	1.251239	-0.057104	-0.000086
H162	H	1.167784	-0.007026	-0.125324
H163	H	1.313822	-0.008756	-0.125295
H164	H	1.249282	-0.047678	-0.210251
H165	H	1.247004	-0.037208	0.084852
H166	H	1.182436	-0.076132	-0.000092
