data_functionalizedCrystal
_audit_creation_method	'MofGen! by Chris Wilmer'
_symmetry_space_group_name_H-M	'P1'
_symmetry_Int_Tables_number	1
_symmetry_cell_setting	triclinic
loop_
_symmetry_equiv_pos_as_xyz
  x,y,z
_cell_length_a	21.295419
_cell_length_b	29.839133
_cell_length_c	21.295412
_cell_angle_alpha	89.980908
_cell_angle_beta	89.976510
_cell_angle_gamma	90.044403
loop_
_atom_site_label
_atom_site_type_symbol
_atom_site_fract_x
_atom_site_fract_y
_atom_site_fract_z
Zn1	Zn	0.962353	-0.178687	-0.355962
Zn2	Zn	0.962259	-0.253814	-0.250708
Zn3	Zn	0.857078	-0.178719	-0.250707
Zn4	Zn	0.857047	-0.253810	-0.355940
O5	O	0.909684	-0.216258	-0.303329
O6	O	1.050430	-0.188641	-0.342009
O7	O	0.948280	-0.243868	-0.162619
O8	O	0.871095	-0.115847	-0.264677
O9	O	1.050361	-0.243837	-0.264680
O10	O	0.948440	-0.115824	-0.342008
O11	O	0.871004	-0.188695	-0.162618
O12	O	0.768985	-0.188691	-0.264657
O13	O	0.871043	-0.243830	-0.444032
O14	O	0.768962	-0.243861	-0.341971
O15	O	0.948410	-0.188637	-0.444048
O16	O	0.948250	-0.316681	-0.264659
O17	O	0.870952	-0.316678	-0.341973
C18	C	0.746133	-0.216279	-0.303312
C19	C	0.676165	-0.216299	-0.303319
C20	C	0.643356	-0.187606	-0.343647
C21	C	0.577614	-0.187594	-0.343649
C22	C	0.544682	-0.216283	-0.303330
C23	C	0.577498	-0.244978	-0.262995
C24	C	0.643240	-0.244987	-0.262989
N25	N	0.441408	-0.255591	-0.298422
N26	N	0.378956	-0.255582	-0.298431
C27	C	0.346607	-0.216260	-0.303344
N28	N	0.379069	-0.176946	-0.308261
N29	N	0.441527	-0.176956	-0.308255
C30	C	0.473397	-0.216277	-0.303332
C31	C	0.242514	-0.187551	-0.343677
C32	C	0.176770	-0.187538	-0.343675
C33	C	0.176656	-0.244927	-0.263024
C34	C	0.242398	-0.244936	-0.263023
C35	C	0.275323	-0.216248	-0.303352
C36	C	0.909604	-0.332980	-0.303327
C37	C	0.909628	-0.382915	-0.303348
C38	C	0.949981	-0.739455	-0.343641
C39	C	0.949921	-0.551782	-0.343641
O40	O	0.984150	-0.527477	-0.377890
N41	N	0.909678	-0.528360	-0.303346
C42	C	0.869449	-0.551859	-0.263046
O43	O	0.835222	-0.527631	-0.228769
C44	C	0.869512	-0.739531	-0.263044
C45	C	0.909754	-0.762951	-0.303346
C46	C	0.990220	-0.762874	-0.383939
C47	C	0.990232	-0.809790	-0.383941
C48	C	0.950005	-0.833286	-0.343646
C49	C	0.909766	-0.809866	-0.303348
C50	C	0.829287	-0.763029	-0.222742
C51	C	0.829307	-0.809950	-0.222744
C52	C	0.869549	-0.833370	-0.263045
C53	C	0.869551	-0.880277	-0.263055
N54	N	0.909795	-0.903699	-0.303349
C55	C	0.950022	-0.880203	-0.343645
C56	C	0.869417	-0.453328	-0.263051
C57	C	0.869401	-0.406410	-0.263052
C58	C	0.949874	-0.406336	-0.343646
C59	C	0.949888	-0.453255	-0.343647
C60	C	0.909661	-0.476750	-0.303345
C61	C	0.950044	-0.978729	-0.343647
C62	C	0.950050	-1.025649	-0.343647
C63	C	0.869579	-1.025719	-0.263051
C64	C	0.869570	-0.978803	-0.263053
C65	C	0.909807	-0.955310	-0.303353
O66	O	0.835346	-0.904611	-0.228818
O67	O	0.984253	-0.904439	-0.377907
C68	C	0.949969	-0.692539	-0.343639
C69	C	0.909730	-0.669120	-0.303341
C70	C	0.869503	-0.692616	-0.263046
C71	C	0.909713	-0.622202	-0.303343
C72	C	0.949940	-0.598706	-0.343638
C73	C	0.990184	-0.622128	-0.383932
C74	C	0.990196	-0.669043	-0.383935
C75	C	0.829259	-0.669194	-0.222752
C76	C	0.829249	-0.622278	-0.222753
C77	C	0.869477	-0.598782	-0.263049
C78	C	1.073875	-0.216236	-0.303347
C79	C	1.143843	-0.216227	-0.303355
C80	C	0.909734	-0.216230	-0.467520
C81	C	0.909755	-0.216218	-0.537488
C82	C	0.909782	-0.099079	-0.303345
C83	C	0.909823	-0.049145	-0.303352
C84	C	0.869528	-0.187486	-0.570344
C85	C	0.869526	-0.187478	-0.636086
C86	C	0.909761	-0.216196	-0.668970
C87	C	0.949991	-0.244933	-0.636106
C88	C	0.949988	-0.244944	-0.570365
N89	N	0.964866	-0.219617	-0.772209
N90	N	0.964867	-0.219604	-0.834661
C91	C	0.909773	-0.216166	-0.867045
N92	N	0.854676	-0.212733	-0.834619
N93	N	0.854675	-0.212743	-0.772161
C94	C	0.909769	-0.216188	-0.740256
C95	C	0.869540	-0.187424	-0.971187
C96	C	0.869537	-0.187419	-1.036931
C97	C	0.950008	-0.244872	-1.036949
C98	C	0.950006	-0.244880	-0.971207
C99	C	0.909773	-0.216153	-0.938329
C100	C	0.909672	-0.216253	-0.139778
C101	C	0.909773	-0.216138	-0.069810
H102	H	0.269111	-0.268303	-0.230186
Br103	Br	0.533078	-0.148648	-0.398381
Br104	Br	1.004504	-0.485034	-0.398343
H105	H	0.836775	-0.164024	-1.063681
Br106	Br	0.814924	-0.148502	-0.525727
H107	H	0.982751	-0.268316	-0.662884
H108	H	0.836826	-1.044858	-0.230245
Br109	Br	1.004470	-0.374440	-0.398331
H110	H	0.982765	-0.268275	-0.944455
Br111	Br	0.532807	-0.283911	-0.208272
H112	H	1.022936	-0.602990	-0.416745
H113	H	1.022965	-0.688107	-0.416753
Br114	Br	1.004664	-1.057430	-0.398350
Br115	Br	1.004585	-0.283940	-0.525771
H116	H	0.669952	-0.268353	-0.230149
Br117	Br	0.774663	-0.731258	-0.168049
Br118	Br	0.287202	-0.148616	-0.398404
Br119	Br	1.004652	-0.946852	-0.398339
H120	H	0.149843	-0.268286	-0.230196
H121	H	0.836780	-0.164034	-0.944417
Br122	Br	0.132243	-0.148590	-0.398406
Br123	Br	1.004609	-0.283853	-1.081570
H124	H	0.670160	-0.164246	-0.376486
Br125	Br	1.044847	-0.841566	-0.438642
Br126	Br	1.044822	-0.730996	-0.438633
H127	H	0.836795	-0.959735	-0.230242
H128	H	0.796474	-0.603213	-0.189936
Br129	Br	0.814772	-0.374633	-0.208368
H130	H	0.836658	-0.472454	-0.230231
H131	H	0.796550	-0.829078	-0.189923
H132	H	0.796501	-0.688319	-0.189936
Br133	Br	0.814942	-0.148472	-0.680687
