data_functionalizedCrystal
_audit_creation_method	'MofGen! by Chris Wilmer'
_symmetry_space_group_name_H-M	'P1'
_symmetry_Int_Tables_number	1
_symmetry_cell_setting	triclinic
loop_
_symmetry_equiv_pos_as_xyz
  x,y,z
_cell_length_a	15.944499
_cell_length_b	15.995350
_cell_length_c	14.472311
_cell_angle_alpha	90.000483
_cell_angle_beta	90.006413
_cell_angle_gamma	83.484992
loop_
_atom_site_label
_atom_site_type_symbol
_atom_site_fract_x
_atom_site_fract_y
_atom_site_fract_z
O1	O	0.108278	1.110970	0.076756
O2	O	0.608278	1.610970	0.576756
O3	O	0.121649	0.867193	0.076774
O4	O	0.621649	1.367193	0.576774
O5	O	-0.007315	0.995761	0.076766
O6	O	0.492685	1.495761	0.576766
O7	O	0.237242	0.982402	0.076764
O8	O	0.737242	1.482402	0.576764
O9	O	-0.007331	0.995753	-0.076916
O10	O	0.492669	1.495753	0.423084
O11	O	0.121633	0.867185	-0.076908
O12	O	0.621633	1.367185	0.423092
O13	O	0.108262	1.110962	-0.076926
O14	O	0.608262	1.610962	0.423074
Cu15	Cu	0.114946	0.989072	-0.090949
Cu16	Cu	0.614946	1.489072	0.409051
Cu17	Cu	0.114965	0.989083	0.090797
Cu18	Cu	0.614965	1.489083	0.590797
O19	O	0.237226	0.982394	-0.076918
O20	O	0.737226	1.482394	0.423082
C21	C	0.121088	0.835994	-0.000064
C22	C	0.621088	1.335994	0.499936
C23	C	0.119431	0.743044	-0.000057
C24	C	0.619431	1.243044	0.499943
C25	C	0.113480	0.405297	-0.000076
C26	C	0.613480	0.905297	0.499924
C27	C	0.021634	0.452743	-0.000418
C28	C	0.521634	0.952743	0.499582
C29	C	0.023292	0.549433	-0.000066
C30	C	0.523292	1.049433	0.499934
C31	C	0.116431	0.572858	-0.000067
C32	C	0.616431	1.072858	0.499933
C33	C	0.161742	0.531770	0.087688
C34	C	0.661742	1.031770	0.587688
C35	C	0.159435	0.435134	0.087756
C36	C	0.659435	0.935134	0.587756
C37	C	0.161314	0.434785	-0.087010
C38	C	0.661314	0.934785	0.412990
C39	C	0.161292	0.531730	-0.088163
C40	C	0.661292	1.031730	0.411837
C41	C	0.118105	0.667555	-0.000059
C42	C	0.618105	1.167555	0.499941
C43	C	0.111809	0.310600	-0.000078
C44	C	0.611809	0.810600	0.499922
C45	C	-0.038617	0.995210	-0.000073
C46	C	0.461383	1.495210	0.499927
C47	C	-0.131866	0.993570	-0.000065
C48	C	0.368134	1.493570	0.499935
C49	C	-0.423406	1.068265	-0.000076
C50	C	0.076594	1.568265	0.499924
C51	C	-0.362386	1.029432	-0.075850
C52	C	0.137614	1.529432	0.424150
C53	C	-0.467502	0.987613	-0.000076
C54	C	0.032498	1.487613	0.499924
C55	C	-0.362377	1.029420	0.075669
C56	C	0.137623	1.529420	0.575669
C57	C	-0.302593	0.990544	-0.000069
C58	C	0.197407	1.490544	0.499931
C59	C	-0.407710	0.948758	-0.075912
C60	C	0.092290	1.448758	0.424088
C61	C	-0.407707	0.948757	0.075675
C62	C	0.092293	1.448757	0.575675
C63	C	-0.346705	0.909865	-0.000118
C64	C	0.153295	1.409865	0.499882
C65	C	-0.562502	0.985927	-0.000080
C66	C	-0.062502	1.485927	0.499920
C67	C	-0.207594	0.992225	-0.000071
C68	C	0.292406	1.492225	0.499929
C69	C	0.268528	0.982945	-0.000077
C70	C	0.768528	1.482945	0.499923
C71	C	0.361777	0.984585	-0.000078
C72	C	0.861777	1.484585	0.499922
C73	C	0.108823	1.142161	-0.000085
C74	C	0.608823	1.642161	0.499915
C75	C	0.110480	1.235111	-0.000087
C76	C	0.610480	1.735111	0.499913
N77	N	0.114932	0.989071	-0.218780
N78	N	0.614932	1.489071	0.281220
C79	C	0.114959	0.989084	-0.592872
C80	C	0.614959	1.489084	-0.092872
C81	C	0.046184	1.058101	-0.553681
C82	C	0.546184	1.558101	-0.053681
C83	C	0.045930	1.057921	-0.446593
C84	C	0.545930	1.557921	0.053407
C85	C	0.114945	0.989078	-0.407280
C86	C	0.614945	1.489078	0.092720
C87	C	0.095804	0.901723	-0.446164
C88	C	0.595804	1.401723	0.053836
C89	C	0.095317	0.902132	-0.553286
C90	C	0.595317	1.402132	-0.053286
C91	C	0.203079	1.006634	-0.553379
C92	C	0.703079	1.506634	-0.053379
C93	C	0.202489	1.008617	-0.446250
C94	C	0.702489	1.508617	0.053750
C95	C	0.114940	0.989069	-0.302392
C96	C	0.614940	1.489069	0.197608
C97	C	0.114963	0.989086	-0.697760
C98	C	0.614963	1.489086	-0.197760
N99	N	0.114972	0.989091	0.218628
N100	N	0.614972	1.489091	0.718628
H101	H	-0.012551	0.577299	0.062952
H102	H	0.487449	1.077299	0.562952
H103	H	-0.014903	0.433158	0.062168
H104	H	0.485097	0.933158	0.562168
H105	H	-0.427697	0.914669	-0.140040
H106	H	0.072303	1.414669	0.359960
H107	H	-0.015085	0.434222	-0.063352
H108	H	0.484915	0.934222	0.436648
H109	H	-0.456739	1.135198	-0.000154
H110	H	0.043261	1.635198	0.499846
H111	H	0.254260	0.956305	-0.578727
H112	H	0.754260	1.456305	-0.078727
H113	H	0.230170	0.545886	0.090950
H114	H	0.730170	1.045886	0.590950
H115	H	0.130285	0.560152	0.152999
H116	H	0.630285	1.060152	0.652999
H117	H	0.126406	0.416834	0.153356
H118	H	0.626406	0.916834	0.653356
H119	H	-0.313519	0.842874	-0.000157
H120	H	0.186481	1.342874	0.499843
H121	H	-0.342304	1.063543	-0.139914
H122	H	0.157696	1.563543	0.360086
H123	H	0.226866	0.402877	0.091737
H124	H	0.726866	0.902877	0.591737
H125	H	-0.012324	0.577863	-0.062973
H126	H	0.487676	1.077863	0.437027
H127	H	0.131281	0.414250	-0.153527
H128	H	0.631281	0.914250	0.346473
H129	H	0.057329	1.122856	-0.420303
H130	H	0.557329	1.622856	0.079697
H131	H	-0.427811	0.914675	0.139742
H132	H	0.072189	1.414675	0.639742
H133	H	0.057398	1.123254	-0.579441
H134	H	0.557398	1.623254	-0.079441
H135	H	0.128215	0.559047	-0.153085
H136	H	0.628215	1.059047	0.346915
H137	H	0.217014	1.072878	-0.420837
H138	H	0.717014	1.572878	0.079163
H139	H	0.229212	0.547086	-0.093465
H140	H	0.729212	1.047086	0.406535
H141	H	-0.018840	1.047053	-0.580610
H142	H	0.481160	1.547053	-0.080610
H143	H	0.143505	0.849232	-0.579211
H144	H	0.643505	1.349232	-0.079211
H145	H	-0.019464	1.046709	-0.420974
H146	H	0.480536	1.546709	0.079026
H147	H	-0.342291	1.063550	0.139723
H148	H	0.157709	1.563550	0.639723
H149	H	0.229031	0.403015	-0.087604
H150	H	0.729031	0.903015	0.412396
H151	H	0.031052	0.886662	-0.578279
H152	H	0.531052	1.386662	-0.078279
H153	H	0.144562	0.849128	-0.420701
H154	H	0.644562	1.349128	0.079299
H155	H	0.032270	0.885874	-0.419343
H156	H	0.532270	1.385874	0.080657
H157	H	0.221477	1.068970	-0.580393
H158	H	0.721477	1.568970	-0.080393
H159	H	0.256065	0.961605	-0.419488
H160	H	0.756065	1.461605	0.080512
