data_functionalizedCrystal
_audit_creation_method	'MofGen! by Chris Wilmer'
_symmetry_space_group_name_H-M	'P1'
_symmetry_Int_Tables_number	1
_symmetry_cell_setting	triclinic
loop_
_symmetry_equiv_pos_as_xyz
  x,y,z
_cell_length_a	6.817900
_cell_length_b	11.168121
_cell_length_c	14.125465
_cell_angle_alpha	94.659390
_cell_angle_beta	100.398878
_cell_angle_gamma	108.508496
loop_
_atom_site_label
_atom_site_type_symbol
_atom_site_fract_x
_atom_site_fract_y
_atom_site_fract_z
V1	V	-4.016762	-0.173620	-0.299984
O2	O	-3.978122	0.009459	-0.294266
O3	O	-3.993684	-0.345333	-0.297941
O4	O	-3.952441	-0.170460	-0.430814
O5	O	-4.019650	-0.166624	-0.160472
V6	V	-4.499172	-0.151779	-0.283297
O7	O	-4.280462	-0.221529	-0.336590
O8	O	-4.685669	-0.103870	-0.246691
O9	O	-4.299043	0.019933	-0.285340
O10	O	-4.655209	-0.334859	-0.289015
O11	O	-4.613680	-0.158775	-0.422809
O12	O	-4.340286	-0.154940	-0.152467
C13	C	-3.845360	-0.387208	-0.293210
C14	C	-3.907672	-0.527582	-0.292411
C15	C	-4.108875	-0.596259	-0.296618
C16	C	-4.173281	-0.741343	-0.295793
C17	C	-3.792749	-0.164138	-0.462703
C18	C	-3.821611	-0.162690	-0.569657
C19	C	-3.874512	-0.160035	-0.765480
C20	C	-4.060790	-0.165361	-0.817801
C21	C	-4.090227	-0.163884	-0.926764
C22	C	-3.845067	-0.161513	-0.656507
C23	C	-4.110711	0.061802	-0.290068
C24	C	-4.027637	0.202175	-0.290873
C25	C	-4.163321	-0.161265	-0.120573
C26	C	-4.113697	-0.162707	-0.013618
H27	H	-3.855267	-0.738795	-0.287268
H28	H	-4.198166	-0.171043	-0.780763
O29	O	-3.710717	-0.153116	-0.809750
C30	C	-3.662891	-0.042125	-0.854520
H31	H	-3.807793	-0.010756	-0.869347
H32	H	-3.525334	0.037352	-0.804297
C33	C	-3.422756	-0.109148	-0.933027
C34	C	-3.600733	-0.070627	-0.951246
H35	H	-3.384404	-0.126726	-0.992690
H36	H	-3.454970	-0.183923	-0.902863
H37	H	-3.308146	-0.042911	-0.891172
H38	H	-3.715346	-0.136869	-0.993090
H39	H	-3.568537	0.004136	-0.981420
O40	O	-4.257361	-0.538179	-0.301470
C41	C	-4.203397	-0.445403	-0.218486
H42	H	-4.096067	-0.469839	-0.157027
H43	H	-4.116766	-0.347560	-0.236687
C44	C	-4.538284	-0.413206	-0.261758
C45	C	-4.406474	-0.443225	-0.186271
H46	H	-4.663549	-0.411857	-0.241888
H47	H	-4.574639	-0.475707	-0.317668
H48	H	-4.466067	-0.331672	-0.276918
H49	H	-4.478682	-0.524764	-0.171120
H50	H	-4.370136	-0.380737	-0.130357
O51	O	-4.378801	-0.811869	-0.299950
C52	C	-4.392625	-0.871687	-0.216072
H53	H	-4.232582	-0.880143	-0.183883
H54	H	-4.438663	-0.812304	-0.160114
C55	C	-4.758291	-0.995437	-0.283054
C56	C	-4.561728	-1.005833	-0.243524
H57	H	-4.862608	-1.078182	-0.299985
H58	H	-4.748982	-0.955133	-0.339563
H59	H	-4.796627	-0.945946	-0.236416
H60	H	-4.523383	-1.055309	-0.290165
H61	H	-4.571035	-1.046148	-0.187022
H62	H	-3.783099	-0.576196	-0.288204
