data_functionalizedCrystal
_audit_creation_method	'MofGen! by Chris Wilmer'
_symmetry_space_group_name_H-M	'P1'
_symmetry_Int_Tables_number	1
_symmetry_cell_setting	triclinic
loop_
_symmetry_equiv_pos_as_xyz
  x,y,z
_cell_length_a	21.883469
_cell_length_b	21.882911
_cell_length_c	21.879399
_cell_angle_alpha	60.006540
_cell_angle_beta	60.013207
_cell_angle_gamma	59.992231
loop_
_atom_site_label
_atom_site_type_symbol
_atom_site_fract_x
_atom_site_fract_y
_atom_site_fract_z
O1	O	0.084645	-0.892842	0.746620
O2	O	0.031867	-0.695139	0.601571
O3	O	0.157054	-0.820237	0.601476
O4	O	-0.040542	-0.767744	0.746716
O5	O	0.198586	-0.778715	0.642912
O6	O	0.073399	-0.653617	0.643007
O7	O	0.126177	-0.851320	0.788056
Cu8	Cu	0.103580	-0.748677	0.719315
Cu9	Cu	0.054464	-0.797782	0.670313
O10	O	0.000990	-0.726222	0.788151
N11	N	0.138128	-0.714145	0.753785
N12	N	0.019923	-0.832320	0.635843
C13	C	0.190018	-0.547369	0.805644
C14	C	0.190029	-0.662289	0.805630
C15	C	0.218780	-0.633565	0.834353
C16	C	0.344122	-0.611968	0.768360
C17	C	0.422474	-0.638085	0.742222
C18	C	0.422504	-0.764859	0.790561
C19	C	0.344154	-0.738739	0.816702
C20	C	0.208899	-0.508180	0.728617
C21	C	0.182748	-0.429822	0.702522
C22	C	0.118843	-0.429847	0.830485
C23	C	0.144993	-0.508205	0.856580
C24	C	0.112994	-0.643364	0.824587
C25	C	0.086865	-0.669476	0.798467
C26	C	0.214799	-0.733437	0.734451
C27	C	0.240932	-0.707325	0.760562
C28	C	0.113084	-0.643389	0.959747
C29	C	0.087018	-0.669524	1.038102
C30	C	0.214996	-0.733501	1.038048
C31	C	0.241061	-0.707367	0.959690
C32	C	0.190103	-0.662308	0.920542
C33	C	0.304966	-0.662293	0.805598
C34	C	-0.117460	-0.854702	0.612901
C35	C	-0.002405	-0.854864	0.498145
C36	C	-0.002621	-0.969735	0.613108
C37	C	-0.002603	-0.854858	0.613180
C38	C	-0.031272	-0.883541	0.584334
N39	N	0.460550	-0.714150	0.753681
O40	O	0.699805	-0.721060	0.574973
O41	O	0.700047	-0.866553	0.772482
O42	O	0.699952	-0.866219	0.647213
O43	O	0.699900	-0.721394	0.700242
O44	O	0.575478	-0.824800	0.688791
O45	O	0.575573	-0.825134	0.814060
O46	O	0.575331	-0.679641	0.616551
Cu47	Cu	0.564087	-0.748606	0.719102
Cu48	Cu	0.711292	-0.797588	0.669931
O49	O	0.575426	-0.679975	0.741820
N50	N	0.814828	-0.832044	0.635345
N51	N	0.138106	-0.391772	0.753815
O52	O	-0.040520	-0.152377	0.746758
O53	O	0.156993	-0.152371	0.601281
O54	O	0.031698	-0.152390	0.601639
O55	O	0.084775	-0.152358	0.746401
O56	O	0.073234	-0.276876	0.643130
O57	O	0.198529	-0.276856	0.642772
O58	O	0.001015	-0.276863	0.788249
Cu59	Cu	0.103564	-0.288226	0.719299
Cu60	Cu	0.054444	-0.141007	0.670231
O61	O	0.126310	-0.276844	0.787892
N62	N	0.019892	-0.037461	0.635717
N63	N	0.138332	-0.714192	1.076133
O64	O	0.131293	-0.892804	1.315506
O65	O	-0.014162	-0.695219	1.315533
O66	O	-0.013826	-0.820490	1.315480
O67	O	0.130957	-0.767533	1.315559
O68	O	0.027651	-0.778981	1.191001
O69	O	0.027314	-0.653710	1.191054
O70	O	0.172770	-0.851295	1.191026
Cu71	Cu	0.103829	-0.748713	1.179674
Cu72	Cu	0.054778	-0.797802	1.326885
O73	O	0.172434	-0.726024	1.191079
N74	N	0.020275	-0.832331	1.430426
C75	C	0.047687	-0.649466	0.602306
C76	C	0.202716	-0.804385	0.602188
C77	C	0.110357	-0.896993	0.787321
C78	C	-0.044672	-0.742074	0.787439
C79	C	0.637839	-0.865879	0.818154
C80	C	0.637724	-0.865466	0.663023
C81	C	0.637536	-0.680313	0.570880
C82	C	0.637655	-0.680728	0.726010
C83	C	0.202592	-0.214459	0.601942
C84	C	0.047481	-0.214636	0.602435
C85	C	-0.044635	-0.214620	0.787537
C86	C	0.110528	-0.214598	0.787096
C87	C	-0.013455	-0.649572	1.253296
C88	C	-0.013030	-0.804697	1.253206
C89	C	0.172063	-0.896942	1.253263
C90	C	0.171648	-0.741808	1.253325
H91	H	0.071582	-0.606692	0.927876
H92	H	-0.059121	-0.592825	1.253304
H93	H	-0.101428	-0.730886	0.833046
C94	C	-0.047436	-0.893001	1.253056
C95	C	-0.074410	-0.819956	1.253100
H96	H	-0.085329	-0.902418	1.252986
H97	H	-0.033840	-0.927541	1.296480
H98	H	-0.004851	-0.898578	1.209663
H99	H	-0.116991	-0.814381	1.296497
H100	H	-0.088016	-0.785407	1.209671
H101	H	0.259199	-0.214112	0.556156
H102	H	0.217732	-0.953686	1.253245
H103	H	0.637900	-0.911553	0.874882
H104	H	0.637745	-0.910963	0.651673
H105	H	0.121892	-0.214588	0.832572
C106	C	0.206092	-0.653465	1.253357
C107	C	0.233057	-0.726519	1.253342
H108	H	0.244007	-0.644026	1.253363
H109	H	0.163542	-0.647885	1.296765
H110	H	0.192453	-0.618937	1.209947
H111	H	0.246691	-0.761047	1.296756
H112	H	0.275621	-0.732105	1.209930
H113	H	-0.101359	-0.214623	0.833209
C114	C	-0.036865	-0.603639	1.030275
C115	C	0.002351	-0.648710	1.081189
H116	H	-0.089133	-0.590786	1.056878
H117	H	-0.024041	-0.630217	0.999714
H118	H	-0.024025	-0.559339	0.999714
H119	H	-0.010485	-0.693013	1.111747
H120	H	-0.010478	-0.622131	1.111763
H121	H	0.637644	-0.635235	0.737357
C122	C	0.344118	-0.794097	1.030111
C123	C	0.271012	-0.783016	1.081074
H124	H	0.378700	-0.824670	1.056675
H125	H	0.351613	-0.747131	0.999557
H126	H	0.351623	-0.818018	0.999546
H127	H	0.263505	-0.759090	1.111635
H128	H	0.263515	-0.829991	1.111640
H129	H	0.303780	-0.722782	0.927774
H130	H	0.071542	-0.606694	0.861281
H131	H	0.036114	-0.214639	0.556956
C132	C	-0.036977	-0.603651	0.864389
C133	C	0.002186	-0.648687	0.819308
H134	H	-0.089253	-0.590823	0.877260
H135	H	-0.024161	-0.559343	0.837811
H136	H	-0.024084	-0.630250	0.908675
H137	H	-0.010702	-0.622085	0.775019
H138	H	-0.010635	-0.693002	0.845886
C139	C	0.315770	-0.743715	0.619613
C140	C	0.270765	-0.782935	0.684910
H141	H	0.350322	-0.774270	0.589024
H142	H	0.342339	-0.730872	0.632470
H143	H	0.285167	-0.699410	0.593056
H144	H	0.301367	-0.827238	0.711470
H145	H	0.244194	-0.795788	0.672054
C146	C	0.352057	-0.866674	0.861846
C147	C	0.301111	-0.794061	0.857630
H148	H	0.325483	-0.900825	0.887110
H149	H	0.382638	-0.879784	0.888533
H150	H	0.382594	-0.868659	0.812750
H151	H	0.270578	-0.792074	0.906726
H152	H	0.270518	-0.780947	0.830944
C153	C	0.414574	-0.510151	0.697055
C154	C	0.465518	-0.582767	0.701285
H155	H	0.441151	-0.476000	0.671777
H156	H	0.384040	-0.508153	0.746140
H157	H	0.383991	-0.497048	0.670367
H158	H	0.496097	-0.595872	0.727978
H159	H	0.496065	-0.584767	0.652191
C160	C	0.344484	-0.662784	0.700564
C161	C	0.325608	-0.728112	0.739734
H162	H	0.396759	-0.675617	0.687705
H163	H	0.317899	-0.632234	0.731145
H164	H	0.331607	-0.636203	0.656269
H165	H	0.338479	-0.754690	0.784031
H166	H	0.352202	-0.758674	0.709152
C167	C	0.637413	-0.645297	0.447959
C168	C	0.637433	-0.618644	0.494309
H169	H	0.637353	-0.607225	0.400687
H170	H	0.594034	-0.658925	0.470374
H171	H	0.680848	-0.687813	0.441374
H172	H	0.593995	-0.576131	0.500900
H173	H	0.680816	-0.605006	0.471890
H174	H	0.312222	-0.549720	0.759316
C175	C	0.269420	-0.500283	0.599508
C176	C	0.258382	-0.551231	0.672631
H177	H	0.299965	-0.526862	0.564944
H178	H	0.293343	-0.469723	0.591974
H179	H	0.222437	-0.469720	0.592013
H180	H	0.305366	-0.581791	0.680128
H181	H	0.234461	-0.581804	0.680168
H182	H	0.198119	-0.397913	0.639797
C183	C	0.058319	-0.437738	0.959596
C184	C	0.069358	-0.386792	0.886472
H185	H	0.027765	-0.411157	0.994158
H186	H	0.105295	-0.468293	0.967094
H187	H	0.034400	-0.468306	0.967128
H188	H	0.093283	-0.356227	0.878938
H189	H	0.022374	-0.356224	0.878970
C190	C	0.312383	-0.768492	0.520519
C191	C	0.279327	-0.819482	0.540610
H192	H	0.359677	-0.777811	0.482500
H193	H	0.318922	-0.774128	0.563046
H194	H	0.280972	-0.718956	0.502373
H195	H	0.310735	-0.869019	0.558761
H196	H	0.272791	-0.813853	0.498075
C197	C	0.189578	-0.596348	0.960153
C198	C	0.124242	-0.551291	0.941255
H199	H	0.176764	-0.622949	1.012425
H200	H	0.216143	-0.565778	0.947310
H201	H	0.220132	-0.630882	0.933547
H202	H	0.093691	-0.516752	0.967857
H203	H	0.097666	-0.581863	0.954105
H204	H	0.036413	-0.592673	0.556752
C205	C	0.143034	-1.029723	0.823416
C206	C	0.125565	-0.973659	0.848824
H207	H	0.152418	-1.077052	0.861388
H208	H	0.186314	-1.029517	0.779899
H209	H	0.102209	-1.020626	0.811741
H210	H	0.166392	-0.982753	0.860493
H211	H	0.082281	-0.973866	0.892354
H212	H	0.454413	-0.827107	0.799589
