data_functionalizedCrystal
_audit_creation_method	'MofGen! by Chris Wilmer'
_symmetry_space_group_name_H-M	'P1'
_symmetry_Int_Tables_number	1
_symmetry_cell_setting	triclinic
loop_
_symmetry_equiv_pos_as_xyz
  x,y,z
_cell_length_a	16.109318
_cell_length_b	14.519709
_cell_length_c	14.586319
_cell_angle_alpha	90.014387
_cell_angle_beta	90.003038
_cell_angle_gamma	96.425645
loop_
_atom_site_label
_atom_site_type_symbol
_atom_site_fract_x
_atom_site_fract_y
_atom_site_fract_z
O1	O	1.103323	-0.118619	-0.076181
O2	O	1.436657	0.214714	0.257152
O3	O	1.769990	0.548047	0.590485
O4	O	0.861289	-0.133355	-0.076202
O5	O	1.194622	0.199979	0.257131
O6	O	1.527955	0.533312	0.590465
O7	O	0.988723	0.008265	-0.076166
O8	O	1.322057	0.341598	0.257168
O9	O	1.655390	0.674931	0.590501
O10	O	0.975889	-0.260239	-0.076218
O11	O	1.309222	0.073095	0.257115
O12	O	1.642555	0.406428	0.590449
O13	O	0.988722	0.008273	0.076315
O14	O	1.322055	0.341607	0.409649
O15	O	1.655389	0.674940	0.742982
O16	O	0.861288	-0.133346	0.076279
O17	O	1.194621	0.199987	0.409612
O18	O	1.527954	0.533321	0.742945
O19	O	1.103322	-0.118611	0.076299
O20	O	1.436656	0.214723	0.409633
O21	O	1.769989	0.548056	0.742966
Cu22	Cu	0.982305	-0.125977	0.090212
Cu23	Cu	1.315638	0.207356	0.423545
Cu24	Cu	1.648972	0.540689	0.756878
Cu25	Cu	0.982306	-0.125988	-0.090114
Cu26	Cu	1.315639	0.207345	0.243219
Cu27	Cu	1.648973	0.540679	0.576552
O28	O	0.975888	-0.260230	0.076263
O29	O	1.309221	0.073103	0.409596
O30	O	1.642554	0.406437	0.742930
C31	C	0.830313	-0.132751	0.000036
C32	C	1.163646	0.200583	0.333369
C33	C	1.496979	0.533916	0.666703
C34	C	0.738015	-0.130953	0.000029
C35	C	1.071348	0.202381	0.333363
C36	C	1.404682	0.535714	0.666696
C37	C	0.988124	0.042628	0.000079
C38	C	1.321458	0.375961	0.333413
C39	C	1.654791	0.709294	0.666746
C40	C	0.986332	0.145005	0.000093
C41	C	1.319665	0.478338	0.333426
C42	C	1.652999	0.811672	0.666760
C43	C	0.438932	-0.125151	-0.083071
C44	C	0.772265	0.208183	0.250263
C45	C	1.105598	0.541516	0.583596
C46	C	0.525656	-0.126834	-0.083077
C47	C	0.858989	0.206499	0.250257
C48	C	1.192323	0.539833	0.583590
C49	C	0.525673	-0.126812	0.083166
C50	C	0.859007	0.206522	0.416500
C51	C	1.192340	0.539855	0.749833
C52	C	0.438952	-0.125122	0.083171
C53	C	0.772285	0.208211	0.416505
C54	C	1.105618	0.541545	0.749838
C55	C	0.395582	-0.124296	0.000050
C56	C	0.728916	0.209037	0.333383
C57	C	1.062249	0.542370	0.666717
C58	C	0.569028	-0.127669	0.000039
C59	C	0.902362	0.205664	0.333372
C60	C	1.235695	0.538998	0.666706
C61	C	0.663059	-0.129494	0.000033
C62	C	0.996392	0.203839	0.333367
C63	C	1.329725	0.537173	0.666700
C64	C	0.301546	-0.122469	0.000056
C65	C	0.634880	0.210864	0.333389
C66	C	0.968213	0.544197	0.666722
C67	C	0.979734	0.519887	0.000117
C68	C	1.313067	0.853221	0.333451
C69	C	1.646400	1.186554	0.666784
C70	C	0.981566	0.415583	0.000111
C71	C	1.314899	0.748917	0.333444
C72	C	1.648233	1.082250	0.666778
C73	C	0.983033	0.332450	0.000106
C74	C	1.316366	0.665783	0.333439
C75	C	1.649699	0.999116	0.666773
C76	C	0.984865	0.228139	0.000098
C77	C	1.318199	0.561472	0.333431
C78	C	1.651532	0.894805	0.666765
C79	C	1.134298	-0.119215	0.000059
C80	C	1.467632	0.214119	0.333393
C81	C	1.800965	0.547452	0.666726
C82	C	1.226596	-0.121013	0.000060
C83	C	1.559929	0.212321	0.333393
C84	C	1.893263	0.545654	0.666727
C85	C	0.976486	0.705407	0.000048
C86	C	1.309820	1.038740	0.333382
C87	C	1.643153	1.372074	0.666715
C88	C	0.978279	0.603030	0.000126
C89	C	1.311612	0.936363	0.333459
C90	C	1.644945	1.269696	0.666793
N91	N	0.982307	-0.125989	-0.216946
N92	N	1.315641	0.207345	0.116387
N93	N	1.648974	0.540678	0.449720
C94	C	1.038845	-0.063401	-0.451937
C95	C	1.372178	0.269932	-0.118603
C96	C	1.705511	0.603265	0.214730
C97	C	1.038847	-0.063399	-0.547918
C98	C	1.372181	0.269934	-0.214584
C99	C	1.705514	0.603268	0.118749
C100	C	0.925770	-0.188564	-0.547960
C101	C	1.259103	0.144770	-0.214626
C102	C	1.592437	0.478103	0.118707
C103	C	0.925772	-0.188569	-0.451980
C104	C	1.259106	0.144764	-0.118647
C105	C	1.592439	0.478097	0.214687
C106	C	0.982309	-0.125983	-0.403971
C107	C	1.315642	0.207350	-0.070638
C108	C	1.648975	0.540684	0.262696
C109	C	0.982309	-0.125975	-0.595932
C110	C	1.315642	0.207358	-0.262598
C111	C	1.648976	0.540692	0.070735
C112	C	0.982311	-0.125973	-0.699999
C113	C	1.315644	0.207360	-0.366666
C114	C	1.648978	0.540694	-0.033332
C115	C	0.982308	-0.125986	-0.299897
C116	C	1.315641	0.207347	0.033436
C117	C	1.648974	0.540681	0.366769
N118	N	0.982310	-0.125969	0.217043
N119	N	1.315643	0.207364	0.550377
N120	N	1.648977	0.540697	0.883710
H121	H	0.403623	-0.124477	-0.150753
H122	H	0.736956	0.208856	0.182580
H123	H	1.070290	0.542189	0.515913
H124	H	0.560947	-0.127529	-0.150762
H125	H	0.894280	0.205805	0.182571
H126	H	1.227614	0.539138	0.515905
H127	H	0.560995	-0.127486	0.150841
H128	H	0.894328	0.205847	0.484174
H129	H	1.227662	0.539181	0.817507
H130	H	0.403656	-0.124425	0.150862
H131	H	0.736989	0.208908	0.484196
H132	H	1.070323	0.542242	0.817529
N133	N	1.096598	0.000534	-0.402910
N134	N	1.429931	0.333867	-0.069577
N135	N	1.763264	0.667200	0.263757
N136	N	1.147072	0.056405	-0.445753
N137	N	1.480405	0.389738	-0.112419
N138	N	1.813738	0.723072	0.220914
H139	H	1.187863	0.101561	-0.411131
H140	H	1.521196	0.434894	-0.077797
H141	H	1.854530	0.768228	0.255536
H142	H	1.084885	-0.012440	-0.586969
H143	H	1.418218	0.320893	-0.253635
H144	H	1.751552	0.654226	0.079698
H145	H	0.879738	-0.239519	-0.587058
H146	H	1.213071	0.093815	-0.253725
H147	H	1.546405	0.427148	0.079609
H148	H	0.879733	-0.239536	-0.412924
H149	H	1.213067	0.093798	-0.079591
H150	H	1.546400	0.427131	0.253743
