data_functionalizedCrystal
_audit_creation_method	'MofGen! by Chris Wilmer'
_symmetry_space_group_name_H-M	'P1'
_symmetry_Int_Tables_number	1
_symmetry_cell_setting	triclinic
loop_
_symmetry_equiv_pos_as_xyz
  x,y,z
_cell_length_a	12.759401
_cell_length_b	19.121111
_cell_length_c	12.759393
_cell_angle_alpha	87.593924
_cell_angle_beta	89.980404
_cell_angle_gamma	87.529528
loop_
_atom_site_label
_atom_site_type_symbol
_atom_site_fract_x
_atom_site_fract_y
_atom_site_fract_z
Zn1	Zn	1.588322	0.279574	-0.611788
Zn2	Zn	2.088322	0.779574	-0.111788
Zn3	Zn	1.580674	0.397040	-0.443589
Zn4	Zn	2.080674	0.897040	0.056411
Zn5	Zn	1.412619	0.279609	-0.436129
Zn6	Zn	1.912619	0.779609	0.063871
Zn7	Zn	1.405077	0.396989	-0.619227
Zn8	Zn	1.905077	0.896989	-0.119227
O9	O	1.496673	0.338303	-0.527683
O10	O	1.996673	0.838303	-0.027683
O11	O	1.734328	0.295163	-0.589484
O12	O	2.234328	0.795163	-0.089484
O13	O	1.558337	0.381499	-0.295581
O14	O	2.058337	0.881499	0.204419
O15	O	1.442284	0.181320	-0.453195
O16	O	1.942284	0.681320	0.046805
O17	O	1.728709	0.381465	-0.465910
O18	O	2.228709	0.881465	0.034090
O19	O	1.571372	0.181294	-0.582251
O20	O	2.071372	0.681294	-0.082251
O21	O	1.434867	0.295222	-0.290100
O22	O	1.934867	0.795222	0.209900
O23	O	1.264598	0.295172	-0.460409
O24	O	1.764598	0.795172	0.039591
O25	O	1.429429	0.381377	-0.765259
O26	O	1.929429	0.881377	-0.265259
O27	O	1.259057	0.381411	-0.594930
O28	O	1.759057	0.881411	-0.094930
O29	O	1.564059	0.295113	-0.759794
O30	O	2.064059	0.795113	-0.259794
O31	O	1.551024	0.495318	-0.473123
O32	O	2.051024	0.995318	0.026877
O33	O	1.422013	0.495280	-0.602164
O34	O	1.922013	0.995280	-0.102164
C35	C	1.223707	0.338290	-0.527668
C36	C	1.723707	0.838290	-0.027668
C37	C	1.106929	0.338302	-0.527688
C38	C	1.606929	0.838302	-0.027688
C39	C	0.939473	0.383285	-0.597639
C40	C	1.439473	0.883285	-0.097639
C41	C	1.049198	0.383278	-0.597628
C42	C	1.549198	0.883278	-0.097628
C43	C	1.054930	0.293336	-0.457747
C44	C	1.554930	0.793336	0.042253
C45	C	0.945207	0.293348	-0.457754
C46	C	1.445207	0.793348	0.042246
C47	C	1.484899	0.520783	-0.539283
C48	C	1.984899	1.020783	-0.039283
C49	C	1.479957	0.598849	-0.544281
C50	C	1.979957	1.098849	-0.044281
C51	C	1.544857	0.635520	-0.479500
C52	C	2.044857	1.135520	0.020500
C53	C	1.540216	0.708871	-0.484206
C54	C	2.040216	1.208871	0.015794
C55	C	1.470670	0.745549	-0.553689
C56	C	1.970670	1.245549	-0.053689
C57	C	1.405767	0.708872	-0.618477
C58	C	1.905767	1.208872	-0.118477
C59	C	1.410414	0.635523	-0.613775
C60	C	1.910414	1.135523	-0.113775
C61	C	1.453281	0.967018	-0.571248
C62	C	1.953281	1.467018	-0.071248
C63	C	1.448637	1.040373	-0.575943
C64	C	1.948637	1.540373	-0.075943
C65	C	1.583088	1.040367	-0.441673
C66	C	2.083088	1.540367	0.058327
C67	C	1.587724	0.967016	-0.436973
C68	C	2.087724	1.467016	0.063027
C69	C	1.522826	0.930345	-0.501765
C70	C	2.022826	1.430345	-0.001765
C71	C	1.465922	0.820526	-0.558499
C72	C	1.965922	1.320526	-0.058499
C73	C	1.527579	0.855370	-0.496960
C74	C	2.027579	1.355370	0.003040
C75	C	1.770705	0.338316	-0.527699
C76	C	2.270705	0.838316	-0.027699
C77	C	1.887482	0.338322	-0.527706
C78	C	2.387482	0.838322	-0.027706
C79	C	1.508513	1.155110	-0.516075
C80	C	2.008513	1.655110	-0.016075
C81	C	1.513537	1.077045	-0.511162
C82	C	2.013537	1.577045	-0.011162
C83	C	1.496756	0.338235	-0.801713
C84	C	1.996756	0.838235	-0.301713
C85	C	1.496791	0.338207	-0.918487
C86	C	1.996791	0.838207	-0.418487
C87	C	1.566898	0.293282	-0.970505
C88	C	2.066898	0.793282	-0.470505
C89	C	1.566918	0.293251	-1.080227
C90	C	2.066918	0.793251	-0.580227
C91	C	1.426720	0.383077	-1.085905
C92	C	1.926720	0.883077	-0.585905
C93	C	1.426696	0.383103	-0.976185
C94	C	1.926696	0.883103	-0.476185
C95	C	1.496654	0.338319	-0.254717
C96	C	1.996654	0.838319	0.245283
C97	C	1.496835	0.338150	-0.137930
C98	C	1.996835	0.838150	0.362070
H99	H	0.902875	0.256732	-0.400801
H100	H	1.402875	0.756732	0.099199
F101	F	1.641497	0.245497	-0.909102
F102	F	2.141497	0.745497	-0.409102
F103	F	1.391907	0.859567	-0.632445
F104	F	1.891907	1.359567	-0.132445
F105	F	1.352128	0.430859	-1.147320
F106	F	1.852128	0.930859	-0.647320
H107	H	0.892476	0.419906	-0.654598
H108	H	1.392476	0.919906	-0.154598
H109	H	1.091524	0.419892	-0.654573
H110	H	1.591524	0.919892	-0.154573
F111	F	1.609295	0.747897	-0.415260
F112	F	2.109295	1.247897	0.084740
F113	F	1.641543	0.245441	-1.135583
F114	F	2.141543	0.745441	-0.635583
F115	F	1.652157	1.079400	-0.372727
F116	F	2.152157	1.579400	0.127273
F117	F	1.374601	1.079407	-0.649889
F118	F	1.874601	1.579407	-0.149889
H119	H	1.644354	0.937154	-0.380395
H120	H	2.144354	1.437154	0.119605
F121	F	1.352070	0.430918	-0.920821
F122	F	1.852070	0.930918	-0.420821
F123	F	1.116375	0.245472	-0.383307
F124	F	1.616375	0.745472	0.116693
H125	H	1.601485	0.605662	-0.422915
H126	H	2.101485	1.105662	0.077085
H127	H	1.400436	0.937166	-0.624003
H128	H	1.900436	1.437166	-0.124003
H129	H	1.349146	0.738741	-0.675056
H130	H	1.849146	1.238741	-0.175056
F131	F	1.341342	0.596494	-0.682727
F132	F	1.841342	1.096494	-0.182727
F133	F	1.601598	0.816334	-0.423018
F134	F	2.101598	1.316334	0.076982
