data_functionalizedCrystal
_audit_creation_method	'MofGen! by Chris Wilmer'
_symmetry_space_group_name_H-M	'P1'
_symmetry_Int_Tables_number	1
_symmetry_cell_setting	triclinic
loop_
_symmetry_equiv_pos_as_xyz
  x,y,z
_cell_length_a	14.971482
_cell_length_b	10.654551
_cell_length_c	14.048226
_cell_angle_alpha	89.995355
_cell_angle_beta	89.994098
_cell_angle_gamma	84.049018
loop_
_atom_site_label
_atom_site_type_symbol
_atom_site_fract_x
_atom_site_fract_y
_atom_site_fract_z
O1	O	1.187840	0.163637	-0.079145
O2	O	0.927546	0.183240	-0.079149
O3	O	1.063677	-0.009365	-0.079144
O4	O	1.051709	0.356242	-0.079149
O5	O	1.063661	-0.009377	0.079177
O6	O	0.927530	0.183229	0.079173
O7	O	1.187823	0.163625	0.079177
Zn8	Zn	1.057674	0.173425	0.104312
Zn9	Zn	1.057696	0.173440	-0.104284
O10	O	1.051692	0.356230	0.079173
C11	C	0.894208	0.182358	0.000011
C12	C	0.794897	0.179734	0.000010
C13	C	0.748236	0.178491	0.086312
C14	C	0.654924	0.176005	0.086313
C15	C	0.608274	0.174770	0.000011
C16	C	0.654941	0.176009	-0.086298
C17	C	0.748252	0.178486	-0.086298
C18	C	0.460451	0.170849	-0.086292
C19	C	0.367133	0.168374	-0.086292
C20	C	0.367123	0.168368	0.086319
C21	C	0.460434	0.170845	0.086319
C22	C	0.507095	0.172086	0.000010
C23	C	1.062790	-0.056159	0.000015
C24	C	1.060160	-0.195574	0.000010
C25	C	1.058935	-0.261059	-0.086292
C26	C	1.056456	-0.392052	-0.086293
C27	C	1.056432	-0.392067	0.086318
C28	C	1.058904	-0.261074	0.086318
C29	C	1.000779	-0.561519	-0.189979
C30	C	0.999569	-0.627010	-0.276285
C31	C	1.052703	-0.594035	-0.352481
C32	C	1.107067	-0.495575	-0.342374
C33	C	1.108285	-0.430091	-0.256066
C34	C	1.055131	-0.463061	-0.179874
C35	C	1.114589	-0.091607	0.189998
C36	C	1.115813	-0.026122	0.276307
C37	C	1.062685	-0.059096	0.352511
C38	C	1.008334	-0.157563	0.342413
C39	C	1.007110	-0.223047	0.256104
C40	C	1.060236	-0.190065	0.179900
C41	C	1.221161	0.164507	0.000015
C42	C	1.320473	0.167131	0.000010
C43	C	1.052580	0.403025	0.000011
C44	C	1.055210	0.542439	0.000010
N45	N	1.057666	0.173414	0.246672
N46	N	1.057711	0.173441	-0.246644
C47	C	1.117964	0.088164	0.296492
C48	C	1.117970	0.088163	0.396150
C49	C	1.057681	0.173420	0.445986
C50	C	0.997377	0.258674	0.396159
C51	C	0.997367	0.258668	0.296503
C52	C	0.997403	0.258683	0.603873
C53	C	0.997413	0.258691	0.703536
C54	C	1.118005	0.088179	0.703520
C55	C	1.117996	0.088172	0.603864
C56	C	1.057692	0.173429	0.554044
H57	H	0.498414	0.171858	0.156594
H58	H	0.957501	-0.588366	-0.127944
Cl59	Cl	0.596267	0.174466	0.194812
Cl60	Cl	1.193773	-0.019012	0.458782
H61	H	0.329128	0.167357	0.156595
Cl62	Cl	0.921616	0.365874	0.766179
Cl63	Cl	0.921588	0.365863	0.541246
H64	H	1.051716	-0.647368	-0.422754
Cl65	Cl	0.308488	0.166818	-0.194787
H66	H	0.786242	0.179500	-0.156574
Cl67	Cl	1.060508	-0.178720	-0.194792
Cl68	Cl	1.193764	-0.019017	0.233852
H69	H	0.965053	-0.184387	0.404456
H70	H	1.167091	0.018756	0.563288
Cl71	Cl	1.193815	-0.018997	0.766154
H72	H	0.962848	-0.303222	0.247886
H73	H	1.157845	-0.064739	0.127946
H74	H	0.948284	0.328087	0.436741
H75	H	0.616951	0.174995	-0.156566
Cl76	Cl	1.176622	-0.306321	-0.243355
Cl77	Cl	0.921557	0.365840	0.233873
Cl78	Cl	1.064236	0.023219	0.461020
H79	H	0.786212	0.179507	0.156589
H80	H	1.055412	-0.445413	0.156587
Cl81	Cl	1.173878	-0.454141	-0.438166
Cl82	Cl	0.519109	0.172406	-0.194796
Cl83	Cl	0.931224	-0.750781	-0.288991
Cl84	Cl	1.184152	0.097655	0.289006
