data_functionalizedCrystal
_audit_creation_method	'MofGen! by Chris Wilmer'
_symmetry_space_group_name_H-M	'P1'
_symmetry_Int_Tables_number	1
_symmetry_cell_setting	triclinic
loop_
_symmetry_equiv_pos_as_xyz
  x,y,z
_cell_length_a	16.625546
_cell_length_b	16.959455
_cell_length_c	16.959447
_cell_angle_alpha	89.976354
_cell_angle_beta	90.032216
_cell_angle_gamma	89.982540
loop_
_atom_site_label
_atom_site_type_symbol
_atom_site_fract_x
_atom_site_fract_y
_atom_site_fract_z
Zn1	Zn	-0.321093	-1.208371	0.447095
Zn2	Zn	-0.455941	-1.208288	0.314912
Zn3	Zn	-0.321114	-1.076199	0.314911
Zn4	Zn	-0.455876	-1.076158	0.447029
O5	O	-0.388506	-1.142254	0.380987
O6	O	-0.339000	-1.318971	0.429589
O7	O	-0.438091	-1.190748	0.204301
O8	O	-0.208279	-1.093784	0.332472
O9	O	-0.438071	-1.318910	0.332474
O10	O	-0.208264	-1.190890	0.429588
O11	O	-0.339035	-1.093703	0.204300
O12	O	-0.338972	-0.965583	0.332409
O13	O	-0.437961	-1.093714	0.557649
O14	O	-0.437981	-0.965553	0.429475
O15	O	-0.338937	-1.190850	0.557697
O16	O	-0.568765	-1.190709	0.332410
O17	O	-0.568717	-1.093634	0.429476
C18	C	-0.388472	-0.936888	0.380935
C19	C	-0.388477	-0.849031	0.380932
C20	C	-0.440018	-0.477513	0.330356
C21	C	-0.337013	-0.477598	0.431638
C22	C	-0.337003	-0.560144	0.431624
C23	C	-0.388502	-0.601378	0.380975
C24	C	-0.440011	-0.560067	0.330341
C25	C	-0.285501	-0.601461	0.482262
C26	C	-0.285489	-0.684012	0.482250
C27	C	-0.336984	-0.725248	0.431597
C28	C	-0.388495	-0.683932	0.380961
C29	C	-0.439993	-0.725166	0.330312
C30	C	-0.491500	-0.683851	0.279671
C31	C	-0.491506	-0.601302	0.279688
C32	C	-0.336979	-0.807797	0.431580
C33	C	-0.439986	-0.807720	0.330298
C34	C	-0.597997	-1.142179	0.380954
C35	C	-0.687618	-1.142219	0.380966
C36	C	-1.015794	-1.142357	0.381048
C37	C	-0.924485	-1.142316	0.381027
C38	C	-0.851709	-1.142288	0.381007
C39	C	-0.760394	-1.142248	0.380987
C40	C	-0.178197	-1.142351	0.381037
C41	C	-0.088576	-1.142392	0.381059
C42	C	-0.388439	-1.142287	0.587155
C43	C	-0.388411	-1.142301	0.675012
C44	C	-0.388531	-0.348422	0.381025
C45	C	-0.388519	-0.436279	0.381004
C46	C	-0.388514	-1.142267	0.175620
C47	C	-0.388316	-1.142406	0.087764
C48	C	-0.439883	-1.091821	1.046465
C49	C	-0.336769	-1.192970	1.046510
C50	C	-0.336786	-1.192949	0.963964
C51	C	-0.388353	-1.142364	0.922665
C52	C	-0.439903	-1.091800	0.963911
C53	C	-0.285242	-1.243517	0.922712
C54	C	-0.285258	-1.243499	0.840161
C55	C	-0.336822	-1.192909	0.798860
C56	C	-0.388373	-1.142343	0.840111
C57	C	-0.439941	-1.091758	0.798812
C58	C	-0.491489	-1.041187	0.840062
C59	C	-0.491467	-1.041211	0.922610
C60	C	-0.336843	-1.192886	0.716311
C61	C	-0.439961	-1.091737	0.716258
H62	H	-0.243579	-0.567882	0.523502
O63	O	-0.235127	-1.292725	0.962706
C64	C	-0.189621	-1.337341	0.908600
H65	H	-0.222662	-1.340054	0.849746
H66	H	-0.181024	-1.399626	0.932470
H67	H	-0.128381	-1.308422	0.899832
H68	H	-0.294876	-1.234062	0.682729
H69	H	-0.481947	-1.050537	0.682638
H70	H	-0.481920	-0.841287	0.289050
O71	O	-0.287104	-0.437458	0.480874
C72	C	-0.333082	-0.389746	0.531868
H73	H	-0.394154	-0.377355	0.503886
H74	H	-0.300262	-0.331707	0.542526
H75	H	-0.342007	-0.421592	0.590424
O76	O	-0.235128	-1.292498	0.800015
C77	C	-0.183040	-1.247491	0.752305
H78	H	-0.211485	-1.187581	0.739913
H79	H	-0.172228	-1.279673	0.694267
H80	H	-0.123290	-1.238826	0.784154
O81	O	-0.541568	-0.561292	0.230432
C82	C	-0.587037	-0.615384	0.185738
H83	H	-0.554001	-0.674232	0.183039
H84	H	-0.595569	-0.591488	0.123453
H85	H	-0.648307	-0.624172	0.214579
O86	O	-0.490136	-0.437349	0.281279
C87	C	-0.542261	-0.389596	0.326193
H88	H	-0.547318	-0.414504	0.388436
H89	H	-0.604276	-0.388630	0.297496
H90	H	-0.517339	-0.327041	0.328967
O91	O	-0.541621	-0.992165	0.799848
C92	C	-0.593727	-1.037144	0.752111
H93	H	-0.565300	-1.097058	0.739780
H94	H	-0.604537	-1.004943	0.694045
H95	H	-0.653476	-1.045803	0.783905
H96	H	-0.533438	-1.000041	0.956203
H97	H	-0.533435	-0.717435	0.238437
O98	O	-0.235492	-0.724054	0.531545
C99	C	-0.253225	-0.703944	0.610300
H100	H	-0.284234	-0.644005	0.611898
H101	H	-0.195076	-0.701149	0.645843
H102	H	-0.294703	-0.750415	0.636843
O103	O	-0.286995	-0.847845	0.480878
C104	C	-0.304740	-0.827733	0.559630
H105	H	-0.335743	-0.767791	0.561223
H106	H	-0.246598	-0.824944	0.595183
H107	H	-0.346228	-0.874200	0.586165
H108	H	-0.481850	-1.050645	1.080054
H109	H	-0.294789	-1.234158	1.080141
