data_functionalizedCrystal
_audit_creation_method	'MofGen! by Chris Wilmer'
_symmetry_space_group_name_H-M	'P1'
_symmetry_Int_Tables_number	1
_symmetry_cell_setting	triclinic
loop_
_symmetry_equiv_pos_as_xyz
  x,y,z
_cell_length_a	14.519731
_cell_length_b	14.519709
_cell_length_c	12.996460
_cell_angle_alpha	90.007090
_cell_angle_beta	90.005673
_cell_angle_gamma	83.684499
loop_
_atom_site_label
_atom_site_type_symbol
_atom_site_fract_x
_atom_site_fract_y
_atom_site_fract_z
O1	O	1.223857	0.120986	0.085571
O2	O	1.473857	0.370986	0.335571
O3	O	1.723857	0.620986	0.585571
O4	O	1.973857	0.870986	0.835571
O5	O	0.955382	0.135203	0.085573
O6	O	1.205382	0.385203	0.335573
O7	O	1.455382	0.635203	0.585573
O8	O	1.705382	0.885203	0.835573
O9	O	1.096738	-0.006143	0.085563
O10	O	1.346738	0.243857	0.335563
O11	O	1.596738	0.493857	0.585563
O12	O	1.846738	0.743857	0.835563
O13	O	1.082501	0.262332	0.085582
O14	O	1.332501	0.512332	0.335582
O15	O	1.582501	0.762332	0.585582
O16	O	1.832501	1.012332	0.835582
O17	O	1.096723	-0.006151	-0.085571
O18	O	1.346723	0.243849	0.164429
O19	O	1.596723	0.493849	0.414429
O20	O	1.846723	0.743849	0.664429
O21	O	0.955368	0.135195	-0.085561
O22	O	1.205368	0.385195	0.164439
O23	O	1.455368	0.635195	0.414439
O24	O	1.705368	0.885195	0.664439
O25	O	1.223842	0.120979	-0.085563
O26	O	1.473842	0.370979	0.164437
O27	O	1.723842	0.620979	0.414437
O28	O	1.973842	0.870979	0.664437
Cu29	Cu	1.089603	0.128086	-0.101187
Cu30	Cu	1.339603	0.378086	0.148813
Cu31	Cu	1.589603	0.628086	0.398813
Cu32	Cu	1.839603	0.878086	0.648813
Cu33	Cu	1.089621	0.128095	0.101198
Cu34	Cu	1.339621	0.378095	0.351198
Cu35	Cu	1.589621	0.628095	0.601198
Cu36	Cu	1.839621	0.878095	0.851198
O37	O	1.082487	0.262325	-0.085552
O38	O	1.332487	0.512325	0.164448
O39	O	1.582487	0.762325	0.414448
O40	O	1.832487	1.012325	0.664448
C41	C	0.921016	0.134532	0.000006
C42	C	1.171016	0.384532	0.250006
C43	C	1.421016	0.634532	0.500006
C44	C	1.671016	0.884532	0.750006
C45	C	0.818635	0.132536	0.000007
C46	C	1.068635	0.382536	0.250007
C47	C	1.318635	0.632536	0.500007
C48	C	1.568635	0.882536	0.750007
C49	C	0.735491	0.130915	0.000011
C50	C	0.985491	0.380915	0.250011
C51	C	1.235491	0.630915	0.500011
C52	C	1.485491	0.880915	0.750011
C53	C	0.631182	0.128888	0.000011
C54	C	0.881182	0.378888	0.250011
C55	C	1.131182	0.628888	0.500011
C56	C	1.381182	0.878888	0.750011
C57	C	0.548043	0.127280	0.000011
C58	C	0.798043	0.377280	0.250011
C59	C	1.048043	0.627280	0.500011
C60	C	1.298043	0.877280	0.750011
C61	C	0.443728	0.125253	0.000013
C62	C	0.693728	0.375253	0.250013
C63	C	0.943728	0.625253	0.500013
C64	C	1.193728	0.875253	0.750013
C65	C	1.096067	-0.040507	-0.000004
C66	C	1.346067	0.209493	0.249996
C67	C	1.596067	0.459493	0.499996
C68	C	1.846067	0.709493	0.749996
C69	C	1.094079	-0.142889	-0.000005
C70	C	1.344079	0.107111	0.249995
C71	C	1.594079	0.357111	0.499995
C72	C	1.844079	0.607111	0.749995
C73	C	1.086759	-0.517785	0.000022
C74	C	1.336759	-0.267785	0.250022
C75	C	1.586759	-0.017785	0.500022
C76	C	1.836759	0.232215	0.750022
C77	C	1.088792	-0.413477	0.000014
C78	C	1.338792	-0.163477	0.250014
C79	C	1.588792	0.086523	0.500014
C80	C	1.838792	0.336523	0.750014
C81	C	1.090419	-0.330340	0.000008
C82	C	1.340419	-0.080340	0.250008
C83	C	1.590419	0.169660	0.500008
C84	C	1.840419	0.419660	0.750008
C85	C	1.092452	-0.226025	0.000002
C86	C	1.342452	0.023975	0.250002
C87	C	1.592452	0.273975	0.500002
C88	C	1.842452	0.523975	0.750002
C89	C	1.258209	0.121649	0.000007
C90	C	1.508209	0.371649	0.250007
C91	C	1.758209	0.621649	0.500007
C92	C	2.008209	0.871649	0.750007
C93	C	1.360589	0.123645	0.000013
C94	C	1.610589	0.373645	0.250013
C95	C	1.860589	0.623645	0.500013
C96	C	2.110589	0.873645	0.750013
C97	C	1.083157	0.296688	0.000017
C98	C	1.333157	0.546688	0.250017
C99	C	1.583157	0.796688	0.500017
C100	C	1.833157	1.046688	0.750017
C101	C	1.085146	0.399070	0.000024
C102	C	1.335146	0.649070	0.250024
C103	C	1.585146	0.899070	0.500024
C104	C	1.835146	1.149070	0.750024
N105	N	1.089598	0.128079	-0.243535
N106	N	1.339598	0.378079	0.006465
N107	N	1.589598	0.628079	0.256465
N108	N	1.839598	0.878079	0.506465
C109	C	1.089620	0.128096	-0.663349
C110	C	1.339620	0.378096	-0.413349
C111	C	1.589620	0.628096	-0.163349
C112	C	1.839620	0.878096	0.086651
C113	C	1.089611	0.128094	-0.546544
C114	C	1.339611	0.378094	-0.296544
C115	C	1.589611	0.628094	-0.046544
C116	C	1.839611	0.878094	0.203456
C117	C	1.089609	0.128088	-0.453445
C118	C	1.339609	0.378088	-0.203445
C119	C	1.589609	0.628088	0.046555
C120	C	1.839609	0.878088	0.296555
C121	C	1.089600	0.128085	-0.336633
C122	C	1.339600	0.378085	-0.086633
C123	C	1.589600	0.628085	0.163367
C124	C	1.839600	0.878085	0.413367
N125	N	1.089634	0.128095	0.243545
N126	N	1.339634	0.378095	0.493545
N127	N	1.589634	0.628095	0.743545
N128	N	1.839634	0.878095	0.993545
