data_functionalizedCrystal
_audit_creation_method	'MofGen! by Chris Wilmer'
_symmetry_space_group_name_H-M	'P1'
_symmetry_Int_Tables_number	1
_symmetry_cell_setting	triclinic
loop_
_symmetry_equiv_pos_as_xyz
  x,y,z
_cell_length_a	6.817900
_cell_length_b	17.110486
_cell_length_c	11.102183
_cell_angle_alpha	95.183856
_cell_angle_beta	108.603876
_cell_angle_gamma	99.060439
loop_
_atom_site_label
_atom_site_type_symbol
_atom_site_fract_x
_atom_site_fract_y
_atom_site_fract_z
V1	V	-4.002954	-0.246719	-0.175460
O2	O	-3.964064	-0.242024	0.008821
O3	O	-3.980463	-0.245030	-0.348282
O4	O	-3.932385	-0.354322	-0.172590
O5	O	-4.012474	-0.131975	-0.168087
V6	V	-4.486097	-0.232995	-0.153438
O7	O	-4.265045	-0.276824	-0.223767
O8	O	-4.674202	-0.202890	-0.105131
O9	O	-4.285381	-0.234683	0.019384
O10	O	-4.642384	-0.237690	-0.337719
O11	O	-4.593973	-0.347738	-0.160811
O12	O	-4.333459	-0.125391	-0.156308
C13	C	-3.832484	-0.241138	-0.390418
C14	C	-3.895234	-0.240474	-0.531702
C15	C	-3.838655	-0.095540	-0.495646
C16	C	-3.839842	-0.022763	-0.543993
C17	C	-3.898808	-0.022144	-0.676742
C18	C	-3.956597	-0.094309	-0.761149
C19	C	-3.955411	-0.167085	-0.712803
C20	C	-3.896435	-0.167697	-0.580048
C21	C	-4.012004	-0.312018	-0.748858
C22	C	-3.953024	-0.312639	-0.616109
C23	C	-4.069793	-0.384183	-0.833265
C24	C	-4.068593	-0.456961	-0.784918
C25	C	-4.009620	-0.457577	-0.652160
C26	C	-3.951838	-0.385415	-0.567762
C27	C	-3.771155	-0.380549	-0.166304
C28	C	-3.794913	-0.468515	-0.165101
C29	C	-3.988312	-0.513873	-0.170879
C30	C	-4.010622	-0.596527	-0.169748
C31	C	-3.839536	-0.633821	-0.162848
C32	C	-3.646119	-0.588457	-0.157066
C33	C	-3.623807	-0.505804	-0.158188
C34	C	-3.897783	-0.883176	-0.159135
C35	C	-3.920113	-0.965835	-0.158017
C36	C	-4.284615	-0.973899	-0.170697
C37	C	-4.262288	-0.891245	-0.171826
C38	C	-4.068872	-0.845887	-0.166037
C39	C	-3.862338	-0.718307	-0.161696
C40	C	-4.046068	-0.761403	-0.167180
C41	C	-4.096703	-0.238574	0.061513
C42	C	-4.013190	-0.239242	0.202795
C43	C	-4.158032	-0.099160	-0.162599
C44	C	-4.113512	-0.011193	-0.163795
H45	H	-3.792790	0.035992	-0.475255
N46	N	-4.133415	-0.383521	-0.976445
H47	H	-4.125396	-0.326469	-0.994268
H48	H	-4.034744	-0.409184	-1.011016
H49	H	-4.401609	-0.860886	-0.177443
H50	H	-3.790580	-0.096035	-0.387551
N51	N	-3.689179	-0.834260	-0.152887
H52	H	-3.584191	-0.870431	-0.148350
H53	H	-3.709499	-0.807470	-0.232212
N54	N	-3.461578	-0.628676	-0.149613
H55	H	-3.505058	-0.687920	-0.149782
H56	H	-3.415623	-0.620148	-0.226180
N57	N	-4.130970	-0.534789	-0.875953
H58	H	-4.168531	-0.523354	-0.967385
H59	H	-4.009080	-0.563872	-0.856251
N60	N	-3.900111	0.056347	-0.728899
H61	H	-3.854563	0.101969	-0.655290
H62	H	-3.799387	0.062438	-0.778799
H63	H	-4.008686	-0.516841	-0.612807
H64	H	-4.004633	-0.093799	-0.869240
H65	H	-3.903786	-0.385909	-0.459667
H66	H	-3.466308	-0.468872	-0.153451
N67	N	-4.493216	-1.022819	-0.176936
H68	H	-4.481399	-1.080838	-0.175177
H69	H	-4.531361	-1.002448	-0.100758
N70	N	-4.230578	-0.721175	-0.174611
H71	H	-4.266957	-0.694742	-0.254494
H72	H	-4.356375	-0.762487	-0.178050
N73	N	-4.172848	-0.473652	-0.178330
H74	H	-4.298749	-0.514931	-0.181816
H75	H	-4.133999	-0.431852	-0.099933
N76	N	-3.735571	-1.006064	-0.150555
H77	H	-3.699218	-1.032497	-0.070671
H78	H	-3.774365	-1.047821	-0.229001
N79	N	-3.677817	-0.758535	-0.154255
H80	H	-3.631782	-0.750075	-0.230816
H81	H	-3.556860	-0.734685	-0.072495
H82	H	-4.168102	-0.633453	-0.174445
