data_functionalizedCrystal
_audit_creation_method	'MofGen! by Chris Wilmer'
_symmetry_space_group_name_H-M	'P1'
_symmetry_Int_Tables_number	1
_symmetry_cell_setting	triclinic
loop_
_symmetry_equiv_pos_as_xyz
  x,y,z
_cell_length_a	16.959455
_cell_length_b	16.959453
_cell_length_c	11.169409
_cell_angle_alpha	90.037272
_cell_angle_beta	90.028099
_cell_angle_gamma	90.017008
loop_
_atom_site_label
_atom_site_type_symbol
_atom_site_fract_x
_atom_site_fract_y
_atom_site_fract_z
Zn1	Zn	1.208445	-0.314680	0.678766
Zn2	Zn	1.208349	-0.446887	0.478066
Zn3	Zn	1.076255	-0.314720	0.478072
Zn4	Zn	1.076238	-0.446814	0.678682
O5	O	1.142322	-0.380775	0.578397
O6	O	1.319043	-0.332232	0.652176
O7	O	1.190794	-0.429402	0.310117
O8	O	1.093837	-0.204103	0.504732
O9	O	1.318973	-0.429364	0.504722
O10	O	1.190956	-0.204075	0.652182
O11	O	1.093745	-0.332299	0.310121
O12	O	0.965642	-0.332228	0.504650
O13	O	1.093808	-0.429239	0.846643
O14	O	0.965629	-0.429277	0.652038
O15	O	1.190940	-0.332161	0.846705
O16	O	1.190778	-0.557488	0.504640
O17	O	1.093716	-0.557434	0.652032
C18	C	0.936956	-0.380749	0.578336
C19	C	0.849099	-0.380757	0.578339
C20	C	0.477576	-0.431302	0.501578
C21	C	0.477670	-0.330314	0.655361
C22	C	0.560216	-0.330301	0.655332
C23	C	0.601446	-0.380790	0.578426
C24	C	0.560130	-0.431292	0.501549
C25	C	0.601539	-0.279806	0.732216
C26	C	0.684090	-0.279792	0.732190
C27	C	0.725321	-0.330277	0.655278
C28	C	0.684000	-0.380780	0.578397
C29	C	0.725229	-0.431269	0.501491
C30	C	0.683909	-0.481769	0.424603
C31	C	0.601361	-0.481777	0.424636
C32	C	0.807869	-0.330269	0.655245
C33	C	0.807783	-0.431259	0.501462
C34	C	1.142256	-0.586141	0.578353
C35	C	1.142300	-0.673998	0.578374
C36	C	1.192956	-1.045400	0.655318
C37	C	1.091908	-1.045547	0.501653
C38	C	1.091879	-0.963001	0.501625
C39	C	1.142388	-0.921651	0.578447
C40	C	1.192927	-0.962847	0.655296
C41	C	1.041335	-0.921800	0.424787
C42	C	1.041303	-0.839249	0.424757
C43	C	1.091817	-0.797897	0.501573
C44	C	1.142359	-0.839097	0.578424
C45	C	1.192868	-0.797747	0.655246
C46	C	1.243414	-0.838946	0.732092
C47	C	1.243441	-0.921495	0.732112
C48	C	1.091791	-0.715348	0.501553
C49	C	1.192839	-0.715194	0.655223
C50	C	1.348490	-0.380802	0.578458
C51	C	1.436347	-0.380813	0.578484
C52	C	1.142382	-0.380687	0.891439
C53	C	1.142408	-0.380650	1.024839
C54	C	1.142409	-0.174607	0.578467
C55	C	1.142447	-0.086750	0.578497
C56	C	1.142307	-0.380806	0.266572
C57	C	1.142434	-0.380620	0.133172
H58	H	0.717489	-0.522881	0.361993
O59	O	0.724311	-0.230696	0.806701
C60	C	0.772018	-0.179573	0.738485
H61	H	0.784335	-0.207383	0.647452
H62	H	0.830093	-0.169006	0.787375
H63	H	0.740205	-0.120993	0.725468
H64	H	0.841508	-0.289154	0.717848
O65	O	0.437712	-0.281165	0.730009
C66	C	0.457865	-0.202361	0.703966
H67	H	0.517778	-0.200678	0.657807
H68	H	0.460739	-0.166983	0.790679
H69	H	0.411377	-0.175700	0.642354
O70	O	1.292366	-0.798687	0.806774
C71	C	1.247312	-0.750945	0.884226
H72	H	1.187418	-0.738653	0.841802
H73	H	1.279471	-0.692860	0.900339
H74	H	1.238614	-0.782714	0.973166
O75	O	1.241794	-0.674941	0.729909
C76	C	1.196747	-0.627198	0.807368
H77	H	1.136854	-0.614895	0.764947
H78	H	1.228914	-0.569118	0.823489
H79	H	1.188046	-0.658972	0.896303
H80	H	0.567963	-0.238706	0.794836
O81	O	1.242162	-1.085375	0.729850
C82	C	1.320944	-1.065147	0.703771
H83	H	1.324968	-1.042513	0.607887
H84	H	1.360014	-1.119399	0.714205
H85	H	1.341555	-1.017175	0.768130
O86	O	1.292413	-0.961557	0.806889
C87	C	1.247386	-1.009302	0.884317
H88	H	1.185125	-0.984448	0.891620
H89	H	1.275935	-1.010180	0.976730
H90	H	1.244687	-1.071884	0.847215
O91	O	0.561309	-0.530944	0.350023
C92	C	0.581466	-0.609740	0.376057
H93	H	0.641427	-0.611404	0.422157
H94	H	0.584235	-0.645123	0.289346
H95	H	0.535035	-0.636411	0.437718
O96	O	1.042808	-1.085800	0.427200
C97	C	0.991735	-1.133529	0.495466
H98	H	1.019582	-1.145823	0.586470
H99	H	0.981183	-1.191614	0.446585
H100	H	0.933141	-1.101747	0.508545
H101	H	1.000211	-0.955473	0.362246
O102	O	0.992186	-0.799354	0.349991
C103	C	0.947598	-0.853553	0.282216
H104	H	0.979993	-0.912380	0.278136
H105	H	0.939195	-0.829764	0.187632
H106	H	0.887552	-0.862342	0.326073
H107	H	1.050633	-0.681808	0.438991
H108	H	0.841346	-0.472371	0.438831
H109	H	0.443930	-0.472415	0.438975
