data_functionalizedCrystal
_audit_creation_method	'MofGen! by Chris Wilmer'
_symmetry_space_group_name_H-M	'P1'
_symmetry_Int_Tables_number	1
_symmetry_cell_setting	triclinic
loop_
_symmetry_equiv_pos_as_xyz
  x,y,z
_cell_length_a	25.639242
_cell_length_b	29.839131
_cell_length_c	25.639234
_cell_angle_alpha	89.978055
_cell_angle_beta	89.980236
_cell_angle_gamma	90.036947
loop_
_atom_site_label
_atom_site_type_symbol
_atom_site_fract_x
_atom_site_fract_y
_atom_site_fract_z
Zn1	Zn	0.799203	-0.178951	-0.295739
Zn2	Zn	1.299203	0.321049	0.204261
Zn3	Zn	0.799126	-0.254069	-0.208302
Zn4	Zn	1.299126	0.245931	0.291698
Zn5	Zn	0.711783	-0.178948	-0.208303
Zn6	Zn	1.211783	0.321052	0.291697
Zn7	Zn	0.711720	-0.254049	-0.295692
Zn8	Zn	1.211720	0.245951	0.204308
O9	O	0.755458	-0.216504	-0.252009
O10	O	1.255458	0.283496	0.247991
O11	O	0.872358	-0.188925	-0.284160
O12	O	1.372358	0.311075	0.215840
O13	O	0.787533	-0.244111	-0.135137
O14	O	1.287533	0.255889	0.364863
O15	O	0.723438	-0.116081	-0.219922
O16	O	1.223438	0.383919	0.280078
O17	O	0.872301	-0.244114	-0.219920
O18	O	1.372301	0.255886	0.280080
O19	O	0.787665	-0.116084	-0.284161
O20	O	1.287665	0.383916	0.215839
O21	O	0.723363	-0.188919	-0.135138
O22	O	1.223363	0.311081	0.364862
O23	O	0.638609	-0.188900	-0.219876
O24	O	1.138609	0.311100	0.280124
O25	O	0.723331	-0.244080	-0.368864
O26	O	1.223331	0.255920	0.131136
O27	O	0.638563	-0.244077	-0.284081
O28	O	1.138563	0.255923	0.215919
O29	O	0.787604	-0.188906	-0.368898
O30	O	1.287604	0.311094	0.131102
O31	O	0.787473	-0.316933	-0.219875
O32	O	1.287473	0.183067	0.280125
O33	O	0.723256	-0.316919	-0.284080
O34	O	1.223256	0.183081	0.215920
C35	C	0.619615	-0.216486	-0.251974
C36	C	1.119615	0.283514	0.248026
C37	C	0.561501	-0.216490	-0.251971
C38	C	1.061501	0.283510	0.248029
C39	C	0.201123	-0.245283	-0.285409
C40	C	0.701123	0.254717	0.214591
C41	C	0.146519	-0.245285	-0.285417
C42	C	0.646519	0.254715	0.214583
O43	O	0.118269	-0.269744	-0.313817
O44	O	0.618269	0.230256	0.186183
N45	N	0.119219	-0.216517	-0.252043
N46	N	0.619219	0.283483	0.247957
C47	C	0.146526	-0.187740	-0.218663
C48	C	0.646526	0.312260	0.281337
O49	O	0.118291	-0.163270	-0.190277
O50	O	0.618291	0.336730	0.309723
C51	C	0.201129	-0.187735	-0.218658
C52	C	0.701129	0.312265	0.281342
C53	C	0.228426	-0.216509	-0.252030
C54	C	0.728426	0.283491	0.247970
C55	C	0.228420	-0.274054	-0.318778
C56	C	0.728420	0.225946	0.181222
C57	C	0.283021	-0.274052	-0.318769
C58	C	0.783021	0.225948	0.181231
C59	C	0.310324	-0.245278	-0.285390
C60	C	0.810324	0.254722	0.214610
C61	C	0.283027	-0.216507	-0.252021
C62	C	0.783027	0.283493	0.247979
C63	C	0.228435	-0.158957	-0.185281
C64	C	0.728435	0.341043	0.314719
C65	C	0.283042	-0.158954	-0.185279
C66	C	0.783042	0.341046	0.314721
C67	C	0.310340	-0.187728	-0.218651
C68	C	0.810340	0.312272	0.281349
C69	C	0.364931	-0.187731	-0.218633
C70	C	0.864931	0.312269	0.281367
N71	N	0.392231	-0.216500	-0.252006
N72	N	0.892231	0.283500	0.247994
C73	C	0.364927	-0.245273	-0.285385
C74	C	0.864927	0.254727	0.214615
C75	C	0.031855	-0.187751	-0.218677
C76	C	0.531855	0.312249	0.281323
C77	C	-0.022747	-0.187758	-0.218679
C78	C	0.477253	0.312242	0.281321
C79	C	-0.022751	-0.245303	-0.285434
C80	C	0.477249	0.254697	0.214566
C81	C	0.031853	-0.245298	-0.285429
C82	C	0.531853	0.254702	0.214571
C83	C	0.059155	-0.216520	-0.252051
C84	C	0.559155	0.283480	0.247949
C85	C	0.479592	-0.245267	-0.285363
C86	C	0.979592	0.254733	0.214637
C87	C	0.534198	-0.245263	-0.285350
C88	C	1.034198	0.254737	0.214650
C89	C	0.534196	-0.187717	-0.218597
C90	C	1.034196	0.312283	0.281403
C91	C	0.479596	-0.187722	-0.218609
C92	C	0.979596	0.312278	0.281391
C93	C	0.452295	-0.216498	-0.251996
C94	C	0.952295	0.283502	0.248004
O95	O	0.393215	-0.163283	-0.190249
O96	O	0.893215	0.336717	0.309751
O97	O	0.393169	-0.269735	-0.313771
O98	O	0.893169	0.230265	0.186229
C99	C	0.755363	-0.333227	-0.251983
C100	C	1.255363	0.166773	0.248017
C101	C	0.755371	-0.383161	-0.251990
C102	C	1.255371	0.116839	0.248010
C103	C	0.788956	-0.692799	-0.218627
C104	C	1.288956	-0.192799	0.281373
C105	C	0.789021	-0.880472	-0.218647
C106	C	1.289021	-0.380472	0.281353
O107	O	0.817501	-0.904733	-0.190260
O108	O	1.317501	-0.404733	0.309740
N109	N	0.755566	-0.903946	-0.252049
N110	N	1.255566	-0.403946	0.247951
C111	C	0.722096	-0.880499	-0.285450
C112	C	1.222096	-0.380499	0.214550
O113	O	0.693646	-0.904771	-0.313865
O114	O	1.193646	-0.404771	0.186135
C115	C	0.722034	-0.692827	-0.285432
C116	C	1.222034	-0.192827	0.214568
C117	C	0.755487	-0.669355	-0.252024
C118	C	1.255487	-0.169355	0.247976
C119	C	0.822407	-0.669328	-0.185222
C120	C	1.322407	-0.169328	0.314778
C121	C	0.822388	-0.622413	-0.185215
C122	C	1.322388	-0.122413	0.314785
C123	C	0.788919	-0.598969	-0.218613
C124	C	1.288919	-0.098969	0.281387
C125	C	0.755469	-0.622440	-0.252018
C126	C	1.255469	-0.122440	0.247982
C127	C	0.688567	-0.669380	-0.318836
C128	C	1.188567	-0.169380	0.181164
C129	C	0.688555	-0.622459	-0.318829
C130	C	1.188555	-0.122459	0.181171
C131	C	0.722008	-0.598988	-0.285422
C132	C	1.222008	-0.098988	0.214578
C133	C	0.721981	-0.552080	-0.285409
C134	C	1.221981	-0.052080	0.214591
N135	N	0.755435	-0.528607	-0.252007
N136	N	1.255435	-0.028607	0.247993
C137	C	0.788905	-0.552051	-0.218609
C138	C	1.288905	-0.052051	0.281391
C139	C	0.722130	-0.979029	-0.285457
C140	C	1.222130	-0.479029	0.214543
C141	C	0.722144	-1.025947	-0.285461
C142	C	1.222144	-0.525947	0.214539
C143	C	0.789070	-1.025918	-0.218658
C144	C	1.289070	-0.525918	0.281342
C145	C	0.789052	-0.978999	-0.218652
C146	C	1.289052	-0.478999	0.281348
C147	C	0.755584	-0.955556	-0.252055
C148	C	1.255584	-0.455556	0.247945
C149	C	0.788863	-0.453525	-0.218597
C150	C	1.288863	0.046475	0.281403
C151	C	0.788840	-0.406605	-0.218592
C152	C	1.288840	0.093395	0.281408
C153	C	0.721916	-0.406639	-0.285396
C154	C	1.221916	0.093361	0.214604
C155	C	0.721937	-0.453554	-0.285400
C156	C	1.221937	0.046446	0.214600
C157	C	0.755415	-0.476996	-0.251999
C158	C	1.255415	0.023004	0.248001
O159	O	0.693519	-0.527791	-0.313784
O160	O	1.193519	-0.027791	0.186216
O161	O	0.817358	-0.527770	-0.190207
O162	O	1.317358	-0.027770	0.309793
C163	C	0.788975	-0.739715	-0.218633
C164	C	1.288975	-0.239715	0.281367
C165	C	0.755524	-0.763186	-0.252038
C166	C	1.255524	-0.263186	0.247962
C167	C	0.722055	-0.739742	-0.285436
C168	C	1.222055	-0.239742	0.214564
C169	C	0.755539	-0.810104	-0.252042
C170	C	1.255539	-0.310104	0.247958
C171	C	0.789008	-0.833548	-0.218644
C172	C	1.289008	-0.333548	0.281356
C173	C	0.822462	-0.810074	-0.185242
C174	C	1.322462	-0.310074	0.314758
C175	C	0.822444	-0.763159	-0.185235
C176	C	1.322444	-0.263159	0.314765
C177	C	0.688600	-0.763216	-0.318838
C178	C	1.188600	-0.263216	0.181162
C179	C	0.688621	-0.810131	-0.318841
C180	C	1.188621	-0.310131	0.181159
C181	C	0.722090	-0.833575	-0.285443
C182	C	1.222090	-0.333575	0.214557
C183	C	0.891831	-0.216522	-0.252045
C184	C	1.391831	0.283478	0.247955
C185	C	0.949945	-0.216530	-0.252060
C186	C	1.449945	0.283470	0.247940
C187	C	0.755469	-0.216491	-0.388382
C188	C	1.255469	0.283509	0.111618
C189	C	0.755474	-0.216486	-0.446496
C190	C	1.255474	0.283514	0.053504
C191	C	0.755567	-0.099326	-0.252047
C192	C	1.255567	0.400674	0.247953
C193	C	0.755613	-0.049391	-0.252063
C194	C	1.255613	0.450609	0.247937
C195	C	0.722042	-0.245159	-0.697666
C196	C	1.222042	0.254841	-0.197666
C197	C	0.722032	-0.245169	-0.643062
C198	C	1.222032	0.254831	-0.143062
O199	O	0.693557	-0.269592	-0.614805
O200	O	1.193557	0.230408	-0.114805
N201	N	0.755494	-0.216450	-0.615770
N202	N	1.255494	0.283550	-0.115770
C203	C	0.788962	-0.187715	-0.643086
C204	C	1.288962	0.312285	-0.143086
O205	O	0.817423	-0.163288	-0.614858
O206	O	1.317423	0.336712	-0.114858
C207	C	0.788969	-0.187703	-0.697689
C208	C	1.288969	0.312297	-0.197689
C209	C	0.755509	-0.216428	-0.724978
C210	C	1.255509	0.283572	-0.224978
C211	C	0.688584	-0.273880	-0.724955
C212	C	1.188584	0.226120	-0.224955
C213	C	0.688594	-0.273870	-0.779555
C214	C	1.188594	0.226130	-0.279555
C215	C	0.722061	-0.245139	-0.806867
C216	C	1.222061	0.254861	-0.306867
C217	C	0.755519	-0.216418	-0.779579
C218	C	1.255519	0.283582	-0.279579
C219	C	0.822434	-0.158967	-0.725004
C220	C	1.322434	0.341033	-0.225004
C221	C	0.822437	-0.158957	-0.779611
C222	C	1.322437	0.341043	-0.279611
C223	C	0.788978	-0.187682	-0.806900
C224	C	1.288978	0.312318	-0.306900
C225	C	0.788996	-0.187677	-0.861491
C226	C	1.288996	0.312323	-0.361491
N227	N	0.755535	-0.216396	-0.888782
N228	N	1.255535	0.283604	-0.388782
C229	C	0.722068	-0.245127	-0.861471
C230	C	1.222068	0.254873	-0.361471
C231	C	0.788946	-0.187742	-0.528415
C232	C	1.288946	0.312258	-0.028415
C233	C	0.788943	-0.187756	-0.473813
C234	C	1.288943	0.312244	0.026187
C235	C	0.722012	-0.245209	-0.473793
C236	C	1.222012	0.254791	0.026207
C237	C	0.722018	-0.245197	-0.528396
C238	C	1.222018	0.254803	-0.028396
C239	C	0.755485	-0.216461	-0.555707
C240	C	1.255485	0.283539	-0.055707
C241	C	0.722091	-0.245105	-0.976136
C242	C	1.222091	0.254895	-0.476136
C243	C	0.722106	-0.245094	-1.030741
C244	C	1.222106	0.254906	-0.530741
C245	C	0.789035	-0.187640	-1.030757
C246	C	1.289035	0.312360	-0.530757
C247	C	0.789022	-0.187652	-0.976156
C248	C	1.289022	0.312348	-0.476156
C249	C	0.755547	-0.216386	-0.948847
C250	C	1.255547	0.283614	-0.448847
O251	O	0.817456	-0.163265	-0.889782
O252	O	1.317456	0.336735	-0.389782
O253	O	0.693607	-0.269546	-0.889705
O254	O	1.193607	0.230454	-0.389705
C255	C	0.755477	-0.216484	-0.116167
C256	C	1.255477	0.283516	0.383833
C257	C	0.755573	-0.216363	-0.058053
C258	C	1.255573	0.283637	0.441947
H259	H	-0.044991	-0.268731	-0.312615
H260	H	0.455009	0.231269	0.187385
H261	H	0.816285	-0.164249	-1.053004
H262	H	1.316285	0.335751	-0.553004
O263	O	0.202008	-0.130960	-0.152849
O264	O	0.702008	0.369040	0.347151
C265	C	0.207799	-0.073893	-0.086627
C266	C	0.707799	0.426107	0.413373
C267	C	0.237790	-0.105572	-0.123339
C268	C	0.737790	0.394428	0.376661
H269	H	0.236715	-0.053365	-0.062750
H270	H	0.736715	0.446635	0.437250
H271	H	0.182278	-0.050403	-0.110661
H272	H	0.682278	0.449597	0.389339
H273	H	0.182192	-0.094486	-0.059263
H274	H	0.682192	0.405514	0.440737
H275	H	0.263425	-0.085015	-0.150709
H276	H	0.763425	0.414985	0.349291
H277	H	0.263277	-0.129064	-0.099272
H278	H	0.763277	0.370936	0.400728
O279	O	0.058390	-0.273294	-0.317775
O280	O	0.558390	0.226706	0.182225
C281	C	0.120023	-0.333936	-0.324685
C282	C	0.620023	0.166064	0.175315
C283	C	0.089997	-0.302266	-0.287990
C284	C	0.589997	0.197734	0.212010
H285	H	0.145593	-0.357361	-0.300619
H286	H	0.645593	0.142639	0.199381
H287	H	0.091147	-0.354533	-0.348530
H288	H	0.591147	0.145467	0.151470
H289	H	0.145587	-0.313332	-0.352077
H290	H	0.645587	0.186668	0.147923
H291	H	0.064433	-0.322834	-0.260566
H292	H	0.564433	0.177166	0.239434
H293	H	0.118901	-0.281667	-0.264181
H294	H	0.618901	0.218333	0.235819
O295	O	0.560644	-0.159755	-0.186123
O296	O	1.060644	0.340245	0.313877
C297	C	0.554900	-0.102658	-0.119935
C298	C	1.054900	0.397342	0.380065
C299	C	0.524882	-0.134310	-0.156675
C300	C	1.024882	0.365690	0.343325
H301	H	0.526000	-0.082071	-0.096125
H302	H	1.026000	0.417929	0.403875
H303	H	0.580421	-0.123229	-0.092516
H304	H	1.080421	0.376771	0.407484
H305	H	0.580507	-0.079218	-0.143997
H306	H	1.080507	0.420782	0.356003
H307	H	0.499247	-0.157757	-0.132656
H308	H	0.999247	0.342243	0.367344
H309	H	0.499393	-0.113711	-0.184096
H310	H	0.999393	0.386289	0.315904
H311	H	0.816203	-0.164343	-0.550648
H312	H	1.316203	0.335657	-0.050648
O313	O	0.854865	-0.599666	-0.152695
O314	O	1.354865	-0.099666	0.347305
C315	C	0.880299	-0.585319	-0.063784
C316	C	1.380299	-0.085319	0.436216
C317	C	0.843490	-0.611110	-0.100554
C318	C	1.343490	-0.111110	0.399446
H319	H	0.871108	-0.594554	-0.021620
H320	H	1.371108	-0.094554	0.478380
H321	H	0.922459	-0.594521	-0.072975
H322	H	1.422459	-0.094521	0.427025
H323	H	0.874555	-0.547759	-0.069538
H324	H	1.374555	-0.047759	0.430462
H325	H	0.849187	-0.648675	-0.094821
H326	H	1.349187	-0.148675	0.405179
H327	H	0.801342	-0.601870	-0.091354
H328	H	1.301342	-0.101870	0.408646
H329	H	0.305269	-0.135516	-0.158101
H330	H	0.805269	0.364484	0.341899
O331	O	0.855007	-0.692103	-0.152867
O332	O	1.355007	-0.192103	0.347133
C333	C	0.925658	-0.744986	-0.145951
C334	C	1.425658	-0.244986	0.354049
C335	C	0.888760	-0.719229	-0.182648
C336	C	1.388760	-0.219229	0.317352
H337	H	0.952949	-0.766931	-0.170013
H338	H	1.452949	-0.266931	0.329987
H339	H	0.949596	-0.720147	-0.122110
H340	H	1.449596	-0.220147	0.377890
H341	H	0.901713	-0.766974	-0.118553
H342	H	1.401713	-0.266974	0.381447
H343	H	0.912665	-0.697240	-0.210077
H344	H	1.412665	-0.197240	0.289923
H345	H	0.864820	-0.744092	-0.206451
H346	H	1.364820	-0.244092	0.293549
O347	O	0.560633	-0.273229	-0.317820
O348	O	1.060633	0.226771	0.182180
C349	C	0.554857	-0.330324	-0.384010
C350	C	1.054857	0.169676	0.115990
C351	C	0.524857	-0.298671	-0.347274
C352	C	1.024857	0.201329	0.152726
H353	H	0.525945	-0.350909	-0.407825
H354	H	1.025945	0.149091	0.092175
H355	H	0.580434	-0.309754	-0.411424
H356	H	1.080434	0.190246	0.088576
H357	H	0.580406	-0.353766	-0.359945
H358	H	1.080406	0.146234	0.140055
H359	H	0.499279	-0.275223	-0.371297
H360	H	0.999279	0.224777	0.128703
H361	H	0.499312	-0.319270	-0.319858
H362	H	0.999312	0.180730	0.180142
O363	O	0.821599	-0.956270	-0.186185
O364	O	1.321599	-0.456270	0.313815
C365	C	0.887956	-0.961206	-0.119901
C366	C	1.387956	-0.461206	0.380099
C367	C	0.851130	-0.986998	-0.156652
C368	C	1.351130	-0.486998	0.343348
H369	H	0.911833	-0.986038	-0.096006
H370	H	1.411833	-0.486038	0.403994
H371	H	0.915308	-0.939223	-0.143905
H372	H	1.415308	-0.439223	0.356095
H373	H	0.863957	-0.939257	-0.092556
H374	H	1.363957	-0.439257	0.407444
H375	H	0.875086	-1.008972	-0.184004
H376	H	1.375086	-0.508972	0.315996
H377	H	0.823775	-1.008953	-0.132616
H378	H	1.323775	-0.508953	0.367384
H379	H	0.694828	-0.268499	-0.953907
H380	H	1.194828	0.231501	-0.453907
H381	H	0.694899	-1.045054	-0.312660
H382	H	1.194899	-0.545054	0.187340
H383	H	0.661346	-0.297259	-0.801769
H384	H	1.161346	0.202741	-0.301769
H385	H	0.661328	-0.297276	-0.702723
H386	H	1.161328	0.202724	-0.202723
H387	H	0.694772	-0.268587	-0.550611
H388	H	1.194772	0.231413	-0.050611
O389	O	0.854920	-0.832838	-0.152731
O390	O	1.354920	-0.332838	0.347269
C391	C	0.880405	-0.847221	-0.063835
C392	C	1.380405	-0.347221	0.436165
C393	C	0.843605	-0.821415	-0.100585
C394	C	1.343605	-0.321415	0.399415
H395	H	0.871277	-0.837988	-0.021669
H396	H	1.371277	-0.337988	0.478331
H397	H	0.874659	-0.884789	-0.069546
H398	H	1.374659	-0.384789	0.430454
H399	H	0.922551	-0.837968	-0.073092
H400	H	1.422551	-0.337968	0.426908
H401	H	0.801445	-0.830631	-0.091351
H402	H	1.301445	-0.330631	0.408649
H403	H	0.849396	-0.783853	-0.094868
H404	H	1.349396	-0.283853	0.405132
H405	H	0.661302	-0.603374	-0.346032
H406	H	1.161302	-0.103374	0.153968
H407	H	0.849681	-0.135577	-0.702795
H408	H	1.349681	0.364423	-0.202795
O409	O	0.058294	-0.159785	-0.186196
O410	O	0.558294	0.340215	0.313804
C411	C	0.052523	-0.102695	-0.120003
C412	C	0.552523	0.397305	0.379997
C413	C	0.022521	-0.134350	-0.156752
C414	C	0.522521	0.365650	0.343248
H415	H	0.023613	-0.082115	-0.096196
H416	H	0.523613	0.417885	0.403804
H417	H	0.078045	-0.123263	-0.092581
H418	H	0.578045	0.376737	0.407419
H419	H	0.078128	-0.079247	-0.144057
H420	H	0.578128	0.420753	0.355943
H421	H	-0.003113	-0.157804	-0.132740
H422	H	0.496887	0.342196	0.367260
H423	H	-0.002969	-0.113753	-0.184175
H424	H	0.497031	0.386247	0.315825
H425	H	0.457369	-0.164292	-0.191433
H426	H	0.957369	0.335708	0.308567
H427	H	0.816272	-0.164266	-0.953936
H428	H	1.316272	0.335734	-0.453936
H429	H	0.694874	-0.959945	-0.312658
H430	H	1.194874	-0.459945	0.187342
H431	H	0.816125	-0.472606	-0.191400
H432	H	1.316125	0.027394	0.308600
O433	O	0.821597	-1.048765	-0.186295
O434	O	1.321597	-0.548765	0.313705
C435	C	0.851326	-1.121038	-0.156758
C436	C	1.351326	-0.621038	0.343242
C437	C	0.814450	-1.095217	-0.193417
C438	C	1.314450	-0.595217	0.306583
H439	H	0.845552	-1.158599	-0.162495
H440	H	1.345552	-0.658599	0.337505
H441	H	0.893471	-1.111792	-0.166031
H442	H	1.393471	-0.611792	0.333969
H443	H	0.842226	-1.111834	-0.114576
H444	H	1.342226	-0.611834	0.385424
H445	H	0.823503	-1.104408	-0.235611
H446	H	1.323503	-0.604408	0.264389
H447	H	0.772316	-1.104465	-0.184099
H448	H	1.272316	-0.604465	0.315901
O449	O	0.821388	-0.383875	-0.186122
O450	O	1.321388	0.116125	0.313878
C451	C	0.887748	-0.388806	-0.119841
C452	C	1.387748	0.111194	0.380159
C453	C	0.850924	-0.414601	-0.156592
C454	C	1.350924	0.085399	0.343408
H455	H	0.911629	-0.413637	-0.095949
H456	H	1.411629	0.086363	0.404051
H457	H	0.915097	-0.366819	-0.143845
H458	H	1.415097	0.133181	0.356155
H459	H	0.863747	-0.366861	-0.092494
H460	H	1.363747	0.133139	0.407506
H461	H	0.874882	-0.436571	-0.183946
H462	H	1.374882	0.063429	0.316054
H463	H	0.823574	-0.436560	-0.132556
H464	H	1.323574	0.063440	0.367444
H465	H	0.661323	-0.688482	-0.346038
H466	H	1.161323	-0.188482	0.153962
H467	H	0.206196	-0.297485	-0.345962
H468	H	0.706196	0.202515	0.154038
O469	O	0.689423	-0.476288	-0.317899
O470	O	1.189423	0.023712	0.182101
C471	C	0.623023	-0.471359	-0.384140
C472	C	1.123023	0.028641	0.115860
C473	C	0.659822	-0.445563	-0.347364
C474	C	1.159822	0.054437	0.152636
H475	H	0.599073	-0.446530	-0.407965
H476	H	1.099073	0.053470	0.092035
H477	H	0.646995	-0.493277	-0.411544
H478	H	1.146995	0.006723	0.088456
H479	H	0.595733	-0.493375	-0.360106
H480	H	1.095733	0.006625	0.139894
H481	H	0.687119	-0.423523	-0.371357
H482	H	1.187119	0.076477	0.128643
H483	H	0.635818	-0.423674	-0.319959
H484	H	1.135818	0.076326	0.180041
O485	O	0.689515	-0.273075	-0.447176
O486	O	1.189515	0.226925	0.052824
C487	C	0.659867	-0.298564	-0.363040
C488	C	1.159867	0.201436	0.136960
C489	C	0.696685	-0.266978	-0.393120
C490	C	1.196685	0.233022	0.106880
H491	H	0.665659	-0.293653	-0.319331
H492	H	1.165659	0.206347	0.180669
H493	H	0.617705	-0.290665	-0.373728
H494	H	1.117705	0.209335	0.126272
H495	H	0.669007	-0.334785	-0.373799
H496	H	1.169007	0.165215	0.126201
H497	H	0.687592	-0.230747	-0.382377
H498	H	1.187592	0.269253	0.117623
H499	H	0.738836	-0.274916	-0.382430
H500	H	1.238836	0.225084	0.117570
O501	O	0.854868	-0.740343	-0.152729
O502	O	1.354868	-0.240343	0.347271
C503	C	0.861946	-0.687382	-0.082154
C504	C	1.361946	-0.187382	0.417846
C505	C	0.825164	-0.713197	-0.118928
C506	C	1.325164	-0.213197	0.381072
H507	H	0.837946	-0.665422	-0.054824
H508	H	1.337946	-0.165422	0.445176
H509	H	0.885858	-0.712184	-0.058251
H510	H	1.385858	-0.212184	0.441749
H511	H	0.889273	-0.665405	-0.106194
H512	H	1.389273	-0.165405	0.393806
H513	H	0.797805	-0.735175	-0.094928
H514	H	1.297805	-0.235175	0.405072
H515	H	0.801288	-0.688371	-0.142833
H516	H	1.301288	-0.188371	0.357167
O517	O	0.854874	-0.130995	-0.806163
O518	O	1.354874	0.369005	-0.306163
C519	C	0.861977	-0.070345	-0.867844
C520	C	1.361977	0.429655	-0.367844
C521	C	0.825182	-0.101975	-0.837799
C522	C	1.325182	0.398025	-0.337799
H523	H	0.837986	-0.046881	-0.893438
H524	H	1.337986	0.453119	-0.393438
H525	H	0.885878	-0.049787	-0.838980
H526	H	1.385878	0.450213	-0.338980
H527	H	0.889313	-0.090977	-0.893386
H528	H	1.389313	0.409023	-0.393386
H529	H	0.797814	-0.081378	-0.812257
H530	H	1.297814	0.418622	-0.312257
H531	H	0.801318	-0.122535	-0.866691
H532	H	1.301318	0.377465	-0.366691
H533	H	0.661346	-0.744131	-0.346035
H534	H	1.161346	-0.244131	0.153965
H535	H	-0.044968	-0.164332	-0.191499
H536	H	0.455032	0.335668	0.308501
H537	H	0.457371	-0.268698	-0.312552
H538	H	0.957371	0.231302	0.187448
H539	H	0.816195	-0.164371	-0.451599
H540	H	1.316195	0.335629	0.048401
O541	O	0.656105	-0.832859	-0.351345
O542	O	1.156105	-0.332859	0.148655
C543	C	0.589708	-0.827923	-0.417588
C544	C	1.089708	-0.327923	0.082412
C545	C	0.626508	-0.802131	-0.380811
C546	C	1.126508	-0.302131	0.119189
H547	H	0.565762	-0.803091	-0.441413
H548	H	1.065762	-0.303091	0.058587
H549	H	0.613678	-0.849842	-0.444992
H550	H	1.113678	-0.349842	0.055008
H551	H	0.562414	-0.849937	-0.393556
H552	H	1.062414	-0.349937	0.106444
H553	H	0.653809	-0.780093	-0.404801
H554	H	1.153809	-0.280093	0.095199
H555	H	0.602506	-0.780240	-0.353406
H556	H	1.102506	-0.280240	0.146594
O557	O	0.689626	-0.273061	-1.057190
O558	O	1.189626	0.226939	-0.557190
C559	C	0.664197	-0.349476	-1.073890
C560	C	1.164197	0.150524	-0.573890
C561	C	0.701004	-0.317856	-1.043900
C562	C	1.201004	0.182144	-0.543900
H563	H	0.673390	-0.385699	-1.063164
H564	H	1.173390	0.114301	-0.563164
H565	H	0.622036	-0.341619	-1.063136
H566	H	1.122036	0.158381	-0.563136
H567	H	0.669940	-0.344515	-1.117607
H568	H	1.169940	0.155485	-0.617607
H569	H	0.695307	-0.322799	-1.000176
H570	H	1.195307	0.177201	-0.500176
H571	H	0.743152	-0.325721	-1.054697
H572	H	1.243152	0.174279	-0.554697
O573	O	0.309453	-0.302014	-0.351240
O574	O	0.809453	0.197986	0.148760
C575	C	0.303666	-0.359106	-0.417433
C576	C	0.803666	0.140894	0.082567
C577	C	0.273672	-0.327454	-0.380691
C578	C	0.773672	0.172546	0.119309
H579	H	0.274750	-0.379690	-0.441246
H580	H	0.774750	0.120310	0.058754
H581	H	0.329240	-0.338535	-0.444850
H582	H	0.829240	0.161465	0.055150
H583	H	0.329218	-0.382550	-0.393373
H584	H	0.829218	0.117450	0.106627
H585	H	0.248091	-0.304004	-0.404709
H586	H	0.748091	0.195996	0.095291
H587	H	0.248131	-0.348054	-0.353273
H588	H	0.748131	0.151946	0.146727
H589	H	0.694664	-0.387543	-0.312587
H590	H	1.194664	0.112457	0.187413
