data_functionalizedCrystal
_audit_creation_method	'MofGen! by Chris Wilmer'
_symmetry_space_group_name_H-M	'P1'
_symmetry_Int_Tables_number	1
_symmetry_cell_setting	triclinic
loop_
_symmetry_equiv_pos_as_xyz
  x,y,z
_cell_length_a	19.188930
_cell_length_b	14.853567
_cell_length_c	13.330367
_cell_angle_alpha	90.004582
_cell_angle_beta	89.990231
_cell_angle_gamma	96.610144
loop_
_atom_site_label
_atom_site_type_symbol
_atom_site_fract_x
_atom_site_fract_y
_atom_site_fract_z
O1	O	0.091155	-1.195862	-0.083366
O2	O	0.102014	-0.933342	-0.083385
O3	O	-0.005046	-1.072178	-0.083355
O4	O	0.198215	-1.057026	-0.083395
O5	O	-0.005048	-1.072158	0.083492
O6	O	0.102011	-0.933322	0.083462
O7	O	0.091153	-1.195842	0.083481
Cu8	Cu	0.096582	-1.064580	0.098706
Cu9	Cu	0.096585	-1.064604	-0.098610
O10	O	0.198212	-1.057006	0.083452
C11	C	0.101521	-0.899746	0.000037
C12	C	0.100046	-0.799671	0.000031
C13	C	-0.031060	-1.071677	0.000071
C14	C	-0.108569	-1.070204	0.000080
N15	N	0.096579	-1.064570	0.237488
C16	C	-0.153221	-1.151668	0.000090
C17	C	-0.226050	-1.150285	0.000074
C18	C	-0.254223	-1.067432	0.000068
C19	C	-0.209561	-0.985957	0.000051
C20	C	-0.136734	-0.987343	0.000057
N21	N	-0.362440	-1.004094	0.056844
N22	N	-0.431623	-1.002783	0.056841
C23	C	-0.473645	-1.063251	0.000047
N24	N	-0.443873	-1.125093	-0.056730
N25	N	-0.374684	-1.126407	-0.056722
C26	C	-0.333190	-1.065920	0.000060
C27	C	-0.597267	-1.143220	0.000039
C28	C	-0.670096	-1.141833	0.000016
C29	C	-0.653606	-0.977503	0.000003
C30	C	-0.580778	-0.978893	0.000016
C31	C	-0.552613	-1.061754	0.000038
C32	C	0.224226	-1.057507	0.000023
C33	C	0.301736	-1.058980	0.000008
C34	C	0.091646	-1.229438	0.000057
C35	C	0.093120	-1.329513	0.000057
C36	C	0.030218	-0.387525	0.000067
C37	C	0.157407	-0.365537	0.000041
C38	C	0.158794	-0.459563	0.000037
C39	C	0.095891	-0.517574	0.000047
C40	C	0.031602	-0.481560	0.000060
C41	C	0.223081	-0.495585	0.000014
C42	C	0.224470	-0.589616	0.000009
C43	C	0.161567	-0.647629	0.000026
C44	C	0.097276	-0.611610	0.000041
C45	C	0.034373	-0.669621	0.000050
C46	C	-0.029919	-0.633603	0.000072
C47	C	-0.031301	-0.539574	0.000077
C48	C	0.162949	-0.741659	0.000021
C49	C	0.035757	-0.763656	0.000044
N50	N	0.096582	-1.064621	-0.237391
C51	C	0.143972	-1.003125	0.710098
C52	C	0.049192	-1.126107	0.710092
C53	C	0.049190	-1.126097	0.605073
C54	C	0.096580	-1.064601	0.552562
C55	C	0.143973	-1.003115	0.605070
C56	C	0.001803	-1.187588	0.552558
C57	C	0.001799	-1.187581	0.447533
C58	C	0.049187	-1.126080	0.395020
C59	C	0.096581	-1.064590	0.447534
C60	C	0.143971	-1.003094	0.395023
C61	C	0.191363	-0.941600	0.447535
C62	C	0.191361	-0.941613	0.552557
C63	C	0.049189	-1.126066	0.289999
C64	C	0.143972	-1.003084	0.289995
H65	H	-0.130295	-1.219140	0.000105
C66	C	-0.684584	-0.886364	-0.000008
H67	H	-0.647556	-0.838044	-0.000017
H68	H	-0.712662	-0.882398	0.058170
H69	H	-0.712639	-0.882418	-0.058204
H70	H	0.274293	-0.448345	-0.000005
C71	C	0.243491	-0.873986	0.610320
H72	H	0.236708	-0.882809	0.680388
H73	H	0.235827	-0.813847	0.593131
H74	H	0.290104	-0.883597	0.593092
C75	C	0.196100	-0.935489	0.767854
H76	H	0.189318	-0.944302	0.837923
H77	H	0.188434	-0.875354	0.750653
H78	H	0.242715	-0.945099	0.750629
C79	C	-0.033435	-0.827466	0.000056
H80	H	-0.023405	-0.888626	0.000053
H81	H	-0.059794	-0.816572	-0.058118
H82	H	-0.059789	-0.816574	0.058256
H83	H	-0.544421	-0.912556	0.000013
C84	C	-0.099108	-0.697421	0.000083
H85	H	-0.089070	-0.758578	0.000079
H86	H	-0.125468	-0.686532	-0.058090
H87	H	-0.125463	-0.686536	0.058284
H88	H	-0.262413	-1.216625	0.000079
H89	H	-0.083644	-0.510239	0.000119
H90	H	0.276821	-0.618933	-0.000009
C91	C	-0.002933	-1.193747	0.767851
H92	H	0.003852	-1.184944	0.837919
H93	H	0.004732	-1.253881	0.750623
H94	H	-0.049547	-1.184133	0.750656
H95	H	-0.022127	-0.358195	0.000088
H96	H	-0.232504	-0.918498	0.000044
H97	H	-0.100377	-0.921003	0.000049
C98	C	0.226594	-0.301728	0.000032
H99	H	0.216562	-0.240569	0.000043
H100	H	0.252956	-0.312621	-0.058154
H101	H	0.252946	-0.312618	0.058220
C102	C	-0.566282	-1.234362	0.000052
H103	H	-0.603309	-1.282682	0.000041
H104	H	-0.538226	-1.238312	0.058239
H105	H	-0.538205	-1.238323	-0.058134
C106	C	-0.002932	-1.193700	0.232235
H107	H	0.003857	-1.184890	0.162167
H108	H	-0.049545	-1.184106	0.249463
H109	H	0.004746	-1.253838	0.249430
H110	H	-0.036778	-1.237661	0.595316
H111	H	0.215294	-0.770981	0.000005
C112	C	0.196104	-0.935438	0.232241
H113	H	0.224329	-0.898825	0.278558
H114	H	0.170937	-0.898011	0.191280
H115	H	0.225220	-0.967754	0.191264
C116	C	-0.050334	-1.255213	0.389779
H117	H	-0.078561	-1.291833	0.436096
H118	H	-0.025169	-1.292634	0.348789
H119	H	-0.079447	-1.222886	0.348832
H120	H	-0.706452	-1.208174	0.000019
C121	C	0.243493	-0.873959	0.389771
H122	H	0.271721	-0.837340	0.436080
H123	H	0.218323	-0.836536	0.348808
H124	H	0.272605	-0.906280	0.348795
