data_functionalizedCrystal
_audit_creation_method	'MofGen! by Chris Wilmer'
_symmetry_space_group_name_H-M	'P1'
_symmetry_Int_Tables_number	1
_symmetry_cell_setting	triclinic
loop_
_symmetry_equiv_pos_as_xyz
  x,y,z
_cell_length_a	16.974829
_cell_length_b	10.489716
_cell_length_c	15.455301
_cell_angle_alpha	92.971577
_cell_angle_beta	96.654373
_cell_angle_gamma	83.962747
loop_
_atom_site_label
_atom_site_type_symbol
_atom_site_fract_x
_atom_site_fract_y
_atom_site_fract_z
O1	O	1.056385	0.172708	0.146276
O2	O	1.556385	0.672708	0.646276
O3	O	0.825595	0.192286	0.130077
O4	O	1.325595	0.692286	0.630077
O5	O	0.946252	-0.003164	0.138549
O6	O	1.446252	0.496836	0.638549
O7	O	0.935728	0.368158	0.137804
O8	O	1.435728	0.868158	0.637804
O9	O	0.939987	-0.013155	-0.006153
O10	O	1.439987	0.486845	0.493847
O11	O	0.819330	0.182295	-0.014626
O12	O	1.319330	0.682295	0.485374
O13	O	1.050120	0.162717	0.001574
O14	O	1.550120	0.662717	0.501574
Cu15	Cu	0.934153	0.171593	-0.019738
Cu16	Cu	1.434153	0.671593	0.480262
Cu17	Cu	0.941562	0.183409	0.151389
Cu18	Cu	1.441562	0.683409	0.651389
O19	O	0.929464	0.358167	-0.006898
O20	O	1.429464	0.858167	0.493102
C21	C	0.792910	0.186358	0.055651
C22	C	1.292910	0.686358	0.555651
C23	C	0.704853	0.183566	0.049471
C24	C	1.204853	0.683566	0.549471
C25	C	0.208815	0.167304	0.006214
C26	C	0.708815	0.667304	0.506214
C27	C	0.291554	0.169928	0.012023
C28	C	0.791554	0.669928	0.512023
C29	C	0.336340	0.176677	0.093806
C30	C	0.836340	0.676677	0.593806
C31	C	0.298381	0.180815	0.169785
C32	C	0.798381	0.680815	0.669785
C33	C	0.215643	0.178200	0.163975
C34	C	0.715643	0.678200	0.663975
C35	C	0.584157	0.185089	0.119640
C36	C	1.084157	0.685089	0.619640
C37	C	0.666901	0.187700	0.125444
C38	C	1.166901	0.687700	0.625444
C39	C	0.660068	0.176815	-0.032319
C40	C	1.160068	0.676815	0.467681
C41	C	0.577329	0.174193	-0.038121
C42	C	1.077329	0.674193	0.461879
C43	C	0.539377	0.178338	0.037858
C44	C	1.039377	0.678338	0.537858
N45	N	0.420913	0.179355	0.099746
N46	N	0.920913	0.679355	0.599746
N47	N	0.454805	0.175669	0.031917
N48	N	0.954805	0.675669	0.531917
C49	C	0.942329	-0.055682	0.066145
C50	C	1.442329	0.444318	0.566145
C51	C	0.939964	-0.197285	0.065987
C52	C	1.439964	0.302715	0.565987
C53	C	1.013954	-0.295820	0.071172
C54	C	1.513954	0.204180	0.571172
C55	C	0.977944	-0.367800	0.139771
C56	C	1.477944	0.132200	0.639771
C57	C	0.971751	-0.377615	-0.002895
C58	C	1.471751	0.122385	0.497105
C59	C	0.903988	-0.267396	0.134647
C60	C	1.403988	0.232604	0.634647
C61	C	0.897802	-0.277209	-0.008083
C62	C	1.397802	0.222791	0.491917
C63	C	0.861739	-0.349138	0.060530
C64	C	1.361739	0.150862	0.560530
C65	C	1.082805	0.168645	0.076001
C66	C	1.582805	0.668645	0.576001
C67	C	1.170862	0.171438	0.082187
C68	C	1.670862	0.671438	0.582187
C69	C	0.933387	0.410685	0.065508
C70	C	1.433387	0.910685	0.565508
C71	C	0.935752	0.552289	0.065671
C72	C	1.435752	1.052289	0.565671
N73	N	0.928948	0.163282	-0.140100
N74	N	1.428948	0.663282	0.359900
C75	C	0.975516	0.237699	-0.182223
C76	C	1.475516	0.737699	0.317777
C77	C	0.971590	0.231406	-0.273306
C78	C	1.471590	0.731406	0.226694
C79	C	0.921091	0.150701	-0.322265
C80	C	1.421091	0.650701	0.177735
C81	C	0.874522	0.076275	-0.280136
C82	C	1.374522	0.576275	0.219864
C83	C	0.878453	0.082562	-0.189054
C84	C	1.378453	0.582562	0.310946
C85	C	0.904135	0.123573	-0.595038
C86	C	1.404135	0.623573	-0.095038
C87	C	0.900206	0.117293	-0.686127
C88	C	1.400206	0.617293	-0.186127
C89	C	0.997275	0.272423	-0.679290
C90	C	1.497275	0.772423	-0.179290
C91	C	1.001198	0.278710	-0.588207
C92	C	1.501198	0.778710	-0.088207
C93	C	0.954632	0.204279	-0.546085
C94	C	1.454632	0.704279	-0.046085
N95	N	0.917075	0.144269	-0.415368
N96	N	1.417075	0.644269	0.084632
N97	N	0.958653	0.210705	-0.452984
N98	N	1.458653	0.710705	0.047016
N99	N	0.946774	0.191711	0.271750
N100	N	1.446774	0.691711	0.771750
H101	H	0.553267	0.188459	0.181507
H102	H	1.053267	0.688459	0.681507
Br103	Br	0.727682	0.196856	0.236443
Br104	Br	1.227682	0.696856	0.736443
H105	H	0.540872	0.168670	-0.104718
H106	H	1.040872	0.668670	0.395282
Br107	Br	0.841452	-0.210976	-0.112270
Br108	Br	1.341452	0.289024	0.387730
Br109	Br	0.840905	0.022611	-0.537886
Br110	Br	1.340905	0.522611	-0.037886
Br111	Br	0.754393	-0.388610	0.053053
Br112	Br	1.254393	0.111390	0.553053
Br113	Br	0.711578	0.171198	-0.135427
Br114	Br	1.211578	0.671198	0.364573
Br115	Br	1.044050	0.347238	-0.115787
Br116	Br	1.544050	0.847238	0.384213
Br117	Br	1.121226	-0.255927	0.078816
Br118	Br	1.621226	0.244073	0.578816
Br119	Br	1.019481	-0.457620	-0.099767
Br120	Br	1.519481	0.042380	0.400233
H121	H	0.833409	0.010557	-0.320006
H122	H	1.333409	0.510557	0.179994
Br123	Br	0.343058	0.164330	-0.091089
Br124	Br	0.843058	0.664330	0.408911
H125	H	0.334851	0.186317	0.236374
H126	H	0.834851	0.686317	0.736374
H127	H	0.859080	0.051574	-0.725987
H128	H	1.359080	0.551574	-0.225987
H129	H	0.172356	0.161814	-0.060383
H130	H	0.672356	0.661814	0.439617
Br131	Br	0.815263	-0.018455	-0.131885
Br132	Br	1.315263	0.481545	0.368115
Br133	Br	0.164133	0.183823	0.267086
Br134	Br	0.664133	0.683823	0.767086
H135	H	1.011790	-0.407494	0.202281
H136	H	1.511790	0.092506	0.702281
Br137	Br	0.856315	-0.187676	0.231639
Br138	Br	1.356315	0.312324	0.731639
H139	H	1.009512	0.292002	-0.307599
H140	H	1.509512	0.792002	0.192401
Br141	Br	1.060469	0.373431	-0.736460
Br142	Br	1.560469	0.873431	-0.236460
H143	H	1.042321	0.344424	-0.548350
H144	H	1.542321	0.844424	-0.048350
