data_functionalizedCrystal
_audit_creation_method	'MofGen! by Chris Wilmer'
_symmetry_space_group_name_H-M	'P1'
_symmetry_Int_Tables_number	1
_symmetry_cell_setting	triclinic
loop_
_symmetry_equiv_pos_as_xyz
  x,y,z
_cell_length_a	21.295419
_cell_length_b	21.295417
_cell_length_c	14.908662
_cell_angle_alpha	93.264691
_cell_angle_beta	86.682242
_cell_angle_gamma	90.045308
loop_
_atom_site_label
_atom_site_type_symbol
_atom_site_fract_x
_atom_site_fract_y
_atom_site_fract_z
Zn1	Zn	0.982853	-0.270886	-0.510063
Zn2	Zn	1.482853	0.229114	-0.010063
Zn3	Zn	0.976692	-0.370088	-0.359192
Zn4	Zn	1.476692	0.129912	0.140808
Zn5	Zn	0.871514	-0.264865	-0.359220
Zn6	Zn	1.371514	0.235135	0.140780
Zn7	Zn	0.877543	-0.376146	-0.510002
Zn8	Zn	1.377543	0.123854	-0.010002
O9	O	0.927151	-0.320496	-0.434619
O10	O	1.427151	0.179504	0.065381
O11	O	1.070126	-0.284030	-0.490064
O12	O	1.570126	0.215970	0.009936
O13	O	0.957639	-0.351075	-0.232953
O14	O	1.457639	0.148925	0.267047
O15	O	0.886339	-0.177576	-0.379267
O16	O	1.386339	0.322424	0.120733
O17	O	1.065600	-0.356913	-0.379219
O18	O	1.565600	0.143087	0.120781
O19	O	0.968139	-0.182000	-0.490091
O20	O	1.468139	0.318000	0.009909
O21	O	0.880365	-0.273768	-0.232974
O22	O	1.380365	0.226232	0.267026
O23	O	0.784224	-0.279642	-0.379208
O24	O	1.284224	0.220358	0.120792
O25	O	0.896614	-0.367239	-0.636253
O26	O	1.396614	0.132761	-0.136253
O27	O	0.788653	-0.361400	-0.489986
O28	O	1.288653	0.138600	0.010014
O29	O	0.973985	-0.289905	-0.636298
O30	O	1.473985	0.210095	-0.136298
O31	O	0.963485	-0.458980	-0.379160
O32	O	1.463485	0.041020	0.120840
O33	O	0.890640	-0.463431	-0.489959
O34	O	1.390640	0.036569	0.010041
C35	C	0.763598	-0.320526	-0.434594
C36	C	1.263598	0.179474	0.065406
C37	C	0.693630	-0.320554	-0.434605
C38	C	1.193630	0.179446	0.065395
C39	C	0.663146	-0.282673	-0.492410
C40	C	1.163146	0.217327	0.007590
C41	C	0.597404	-0.282657	-0.492414
C42	C	1.097404	0.217343	0.007586
C43	C	0.562148	-0.320532	-0.434621
C44	C	1.062148	0.179468	0.065379
C45	C	0.592640	-0.358415	-0.376804
C46	C	1.092640	0.141585	0.123196
C47	C	0.658381	-0.358426	-0.376796
C48	C	1.158381	0.141574	0.123204
N49	N	0.458590	-0.375327	-0.427570
N50	N	0.958590	0.124673	0.072430
N51	N	0.396139	-0.375315	-0.427584
N52	N	0.896139	0.124685	0.072416
C53	C	0.364075	-0.320500	-0.434641
C54	C	0.864075	0.179500	0.065359
N55	N	0.396821	-0.265698	-0.441702
N56	N	0.896821	0.234302	0.058298
N57	N	0.459278	-0.265711	-0.441694
N58	N	0.959278	0.234289	0.058306
C59	C	0.490863	-0.320524	-0.434623
C60	C	0.990863	0.179476	0.065377
C61	C	0.262305	-0.282598	-0.492454
C62	C	0.762305	0.217402	0.007546
C63	C	0.196562	-0.282580	-0.492451
C64	C	0.696562	0.217420	0.007549
C65	C	0.191799	-0.358345	-0.376846
C66	C	0.691799	0.141655	0.123154
C67	C	0.257541	-0.358357	-0.376844
C68	C	0.757541	0.141643	0.123156
C69	C	0.292791	-0.320485	-0.434653
C70	C	0.792791	0.179515	0.065347
C71	C	0.927066	-0.484046	-0.434569
C72	C	1.427066	0.015954	0.065431
C73	C	0.927089	-0.554015	-0.434578
C74	C	1.427089	-0.054015	0.065422
C75	C	0.965057	-0.584545	-0.376944
C76	C	1.465057	-0.084545	0.123056
C77	C	0.965087	-0.650288	-0.376964
C78	C	1.465087	-0.150288	0.123036
C79	C	0.927138	-0.685498	-0.434609
C80	C	1.427138	-0.185498	0.065391
C81	C	0.889167	-0.654960	-0.492255
C82	C	1.389167	-0.154960	0.007745
C83	C	0.889143	-0.589218	-0.492239
C84	C	1.389143	-0.089218	0.007761
N85	N	0.872347	-0.789055	-0.441478
N86	N	1.372347	-0.289055	0.058522
N87	N	0.872372	-0.851506	-0.441488
N88	N	1.372372	-0.351506	0.058512
C89	C	0.927210	-0.883575	-0.434661
C90	C	1.427210	-0.383575	0.065339
N91	N	0.982024	-0.850832	-0.427807
N92	N	1.482024	-0.350832	0.072193
N93	N	0.981998	-0.788374	-0.427793
N94	N	1.481998	-0.288374	0.072207
C95	C	0.927160	-0.756785	-0.434633
C96	C	1.427160	-0.256785	0.065367
C97	C	0.965215	-0.985392	-0.377046
C98	C	1.465215	-0.485392	0.122954
C99	C	0.965247	-1.051137	-0.377073
C100	C	1.465247	-0.551137	0.122927
C101	C	0.889320	-1.055807	-0.492358
C102	C	1.389320	-0.555807	0.007642
C103	C	0.889295	-0.990064	-0.492336
C104	C	1.389295	-0.490064	0.007664
C105	C	0.927241	-0.954860	-0.434675
C106	C	1.427241	-0.454860	0.065325
C107	C	1.091342	-0.320468	-0.434645
C108	C	1.591342	0.179532	0.065355
C109	C	1.161311	-0.320455	-0.434656
C110	C	1.661311	0.179545	0.065344
C111	C	0.936659	-0.329919	-0.669924
C112	C	1.436659	0.170081	-0.169924
C113	C	0.940711	-0.333934	-0.770196
C114	C	1.440711	0.166066	-0.270196
C115	C	0.927253	-0.156309	-0.434689
C116	C	1.427253	0.343691	0.065311
C117	C	0.927297	-0.086342	-0.434719
C118	C	1.427297	0.413658	0.065281
C119	C	0.986646	-0.379839	-0.911519
C120	C	1.486646	0.120161	-0.411519
C121	C	0.982844	-0.376069	-0.817303
C122	C	1.482844	0.123931	-0.317303
C123	C	0.902376	-0.295568	-0.817311
C124	C	1.402376	0.204432	-0.317311
C125	C	0.906178	-0.299337	-0.911526
C126	C	1.406178	0.200663	-0.411526
C127	C	0.948316	-0.341473	-0.958627
C128	C	1.448316	0.158527	-0.458627
C129	C	0.952121	-0.345239	-1.052844
C130	C	1.452121	0.154761	-0.552844
C131	C	0.871650	-0.264741	-1.052850
C132	C	1.371650	0.235259	-0.552850
C133	C	0.867848	-0.260972	-0.958634
C134	C	1.367848	0.239028	-0.458634
C135	C	0.917716	-0.311065	-0.200230
C136	C	1.417716	0.188935	0.299770
C137	C	0.913786	-0.306872	-0.099958
C138	C	1.413786	0.193128	0.400042
H139	H	0.171743	-0.251729	-0.539522
H140	H	0.671743	0.248271	-0.039522
O141	O	1.027494	-0.420800	-0.957375
O142	O	1.527494	0.079200	-0.457375
C143	C	1.040206	-0.510065	-1.063678
C144	C	1.540206	-0.010065	-0.563678
C145	C	0.993877	-0.463709	-1.011820
C146	C	1.493877	0.036291	-0.511820
H147	H	1.013043	-0.544776	-1.107695
H148	H	1.513043	-0.044776	-0.607695
H149	H	1.074909	-0.482958	-1.107867
H150	H	1.574909	0.017042	-0.607867
H151	H	1.066965	-0.536807	-1.013806
H152	H	1.566965	-0.036807	-0.513806
H153	H	0.967074	-0.436955	-1.061627
H154	H	1.467074	0.063045	-0.561627
H155	H	0.959214	-0.490851	-0.967618
H156	H	1.459214	0.009149	-0.467618
O157	O	1.020143	-0.413363	-0.771682
O158	O	1.520143	0.086637	-0.271682
C159	C	1.100328	-0.493638	-0.781620
C160	C	1.600328	0.006362	-0.281620
C161	C	1.058133	-0.451426	-0.833398
C162	C	1.558133	0.048574	-0.333398
H163	H	1.131044	-0.524431	-0.831496
H164	H	1.631044	-0.024431	-0.331496
H165	H	1.131525	-0.463000	-0.737554
H166	H	1.631525	0.037000	-0.237554
H167	H	1.069613	-0.524764	-0.737468
H168	H	1.569613	-0.024764	-0.237468
H169	H	1.088799	-0.420293	-0.877599
H170	H	1.588799	0.079707	-0.377599
H171	H	1.026931	-0.482100	-0.877408
H172	H	1.526931	0.017900	-0.377408
H173	H	0.572579	-0.251806	-0.539485
H174	H	1.072579	0.248194	-0.039485
O175	O	0.287182	-0.395068	-0.320604
O176	O	0.787182	0.104932	0.179396
C177	C	0.356493	-0.398546	-0.198815
C178	C	0.856493	0.101454	0.301185
C179	C	0.322950	-0.356896	-0.262440
C180	C	0.822950	0.143104	0.237560
H181	H	0.385429	-0.367703	-0.151786
H182	H	0.885429	0.132297	0.348214
H183	H	0.320031	-0.425602	-0.157442
H184	H	0.820031	0.074398	0.342558
H185	H	0.388887	-0.433178	-0.240166
H186	H	0.888887	0.066822	0.259834
H187	H	0.290558	-0.322229	-0.221160
H188	H	0.790558	0.177771	0.278840
H189	H	0.359446	-0.329884	-0.303816
H190	H	0.859446	0.170116	0.196184
H191	H	0.868064	-0.261268	-0.778946
H192	H	1.368064	0.238732	-0.278946
O193	O	0.296489	-0.245844	-0.548725
O194	O	0.796489	0.254156	-0.048725
C195	C	0.322887	-0.221635	-0.702263
C196	C	0.822887	0.278365	-0.202263
C197	C	0.284130	-0.263290	-0.638637
C198	C	0.784130	0.236710	-0.138637
H199	H	0.312920	-0.235733	-0.774970
H200	H	0.812920	0.264267	-0.274970
H201	H	0.309369	-0.170219	-0.686632
H202	H	0.809369	0.329781	-0.186632
H203	H	0.375105	-0.228142	-0.692285
H204	H	0.875105	0.271858	-0.192285
H205	H	0.231902	-0.256837	-0.648579
H206	H	0.731902	0.243163	-0.148579
H207	H	0.297701	-0.314690	-0.654283
H208	H	0.797701	0.185310	-0.154283
O209	O	0.558373	-0.395282	-0.320795
O210	O	1.058373	0.104718	0.179205
C211	C	0.483539	-0.479727	-0.308443
C212	C	0.983539	0.020273	0.191557
C213	C	0.522322	-0.438030	-0.371982
C214	C	1.022322	0.061970	0.128018
H215	H	0.454373	-0.514290	-0.349801
H216	H	0.954373	-0.014290	0.150199
H217	H	0.516595	-0.506852	-0.267140
H218	H	1.016595	-0.006852	0.232860
H219	H	0.450905	-0.448870	-0.261337
H220	H	0.950905	0.051130	0.238663
H221	H	0.554960	-0.468840	-0.419143
H222	H	1.054960	0.031160	0.080857
H223	H	0.489230	-0.410901	-0.413221
H224	H	0.989230	0.089099	0.086779
O225	O	0.852285	-0.689066	-0.548335
O226	O	1.352285	-0.189066	-0.048335
C227	C	0.776952	-0.686760	-0.662645
C228	C	1.276952	-0.186760	-0.162645
C229	C	0.818699	-0.648061	-0.599188
C230	C	1.318699	-0.148061	-0.099188
H231	H	0.749776	-0.653624	-0.703763
H232	H	1.249776	-0.153624	-0.203763
H233	H	0.807717	-0.719367	-0.709920
H234	H	1.307717	-0.219367	-0.209920
H235	H	0.742421	-0.715946	-0.621177
H236	H	1.242421	-0.215946	-0.121177
H237	H	0.853235	-0.618839	-0.640584
H238	H	1.353235	-0.118839	-0.140584
H239	H	0.787894	-0.615494	-0.551911
H240	H	1.287894	-0.115494	-0.051911
H241	H	0.833539	-0.226667	-0.920272
H242	H	1.333539	0.273333	-0.420272
O243	O	0.687897	-0.395287	-0.320616
O244	O	1.187897	0.104713	0.179384
C245	C	0.676234	-0.470404	-0.205915
C246	C	1.176234	0.029596	0.294085
C247	C	0.642726	-0.428699	-0.269505
C248	C	1.142726	0.071301	0.230495
H249	H	0.639728	-0.497418	-0.164562
H250	H	1.139728	0.002582	0.335438
H251	H	0.708635	-0.505065	-0.247202
H252	H	1.208635	-0.005065	0.252798
H253	H	0.705153	-0.439563	-0.158858
H254	H	1.205153	0.060437	0.341142
H255	H	0.613774	-0.459489	-0.316574
H256	H	1.113774	0.040511	0.183426
H257	H	0.610363	-0.394033	-0.228162
H258	H	1.110363	0.105967	0.271838
H259	H	0.858374	-0.965204	-0.539263
H260	H	1.358374	-0.465204	-0.039263
O261	O	0.157466	-0.395122	-0.320791
O262	O	0.657466	0.104878	0.179209
C263	C	0.054076	-0.428656	-0.269531
C264	C	0.554076	0.071344	0.230469
C265	C	0.092886	-0.386987	-0.333076
C266	C	0.592886	0.113013	0.166924
H267	H	0.001855	-0.422083	-0.279428
H268	H	0.501855	0.077917	0.220572
H269	H	0.067543	-0.480077	-0.285241
H270	H	0.567543	0.019923	0.214759
H271	H	0.064103	-0.414622	-0.196825
H272	H	0.564103	0.085378	0.303175
H273	H	0.082879	-0.400965	-0.405804
H274	H	0.582879	0.099035	0.094196
H275	H	0.079413	-0.335576	-0.317288
H276	H	0.579413	0.164424	0.182712
H277	H	0.995957	-0.555884	-0.329996
H278	H	1.495957	-0.055884	0.170004
O279	O	0.697452	-0.245845	-0.548432
O280	O	1.197452	0.254155	-0.048432
C281	C	0.772228	-0.161351	-0.560780
C282	C	1.272228	0.338649	-0.060780
C283	C	0.733421	-0.203025	-0.497239
C284	C	1.233421	0.296975	0.002761
H285	H	0.801309	-0.126711	-0.519416
H286	H	1.301309	0.373289	-0.019416
H287	H	0.804931	-0.192158	-0.607855
H288	H	1.304931	0.307842	-0.107855
H289	H	0.739134	-0.134301	-0.602118
H290	H	1.239134	0.365699	-0.102118
H291	H	0.766468	-0.230081	-0.455843
H292	H	1.266468	0.269919	0.044157
H293	H	0.700711	-0.172183	-0.450223
H294	H	1.200711	0.327817	0.049777
H295	H	0.996008	-0.675151	-0.330032
H296	H	1.496008	-0.175151	0.169968
O297	O	1.002134	-0.951287	-0.321012
O298	O	1.502134	-0.451287	0.178988
C299	C	1.077412	-0.953590	-0.206625
C300	C	1.577412	-0.453590	0.293375
C301	C	1.035644	-0.992288	-0.270054
C302	C	1.535644	-0.492288	0.229946
H303	H	1.104505	-0.986722	-0.165395
H304	H	1.604505	-0.486722	0.334605
H305	H	1.112007	-0.924431	-0.248031
H306	H	1.612007	-0.424431	0.251969
H307	H	1.046606	-0.920958	-0.159446
H308	H	1.546606	-0.420958	0.340554
H309	H	1.066399	-1.024954	-0.317246
H310	H	1.566399	-0.524954	0.182754
H311	H	1.001045	-1.021405	-0.228592
H312	H	1.501045	-0.521405	0.271408
O313	O	0.852349	-0.559533	-0.548320
O314	O	1.352349	-0.059533	-0.048320
C315	C	0.848702	-0.490120	-0.670047
C316	C	1.348702	0.009880	-0.170047
C317	C	0.890445	-0.523715	-0.606608
C318	C	1.390445	-0.023715	-0.106608
H319	H	0.879484	-0.461142	-0.717176
H320	H	1.379484	0.038858	-0.217176
H321	H	0.821597	-0.526550	-0.711322
H322	H	1.321597	-0.026550	-0.211322
H323	H	0.814109	-0.457762	-0.628556
H324	H	1.314109	0.042238	-0.128556
H325	H	0.925073	-0.556071	-0.648029
H326	H	1.425073	-0.056071	-0.148029
H327	H	0.917506	-0.487251	-0.565330
H328	H	1.417506	0.012749	-0.065330
H329	H	0.996169	-1.075993	-0.330142
H330	H	1.496169	-0.575993	0.169858
H331	H	0.858424	-1.084475	-0.539297
H332	H	1.358424	-0.584475	-0.039297
H333	H	0.986433	-0.379547	-1.091191
H334	H	1.486433	0.120453	-0.591191
O335	O	0.834431	-0.227541	-1.098750
O336	O	1.334431	0.272459	-0.598750
C337	C	0.804643	-0.197652	-1.243896
C338	C	1.304643	0.302348	-0.743896
C339	C	0.846819	-0.239824	-1.192027
C340	C	1.346819	0.260176	-0.692027
H341	H	0.814652	-0.207558	-1.319319
H342	H	1.314652	0.292442	-0.819319
H343	H	0.753120	-0.207986	-1.225419
H344	H	1.253120	0.292014	-0.725419
H345	H	0.814965	-0.146154	-1.225341
H346	H	1.314965	0.353846	-0.725341
H347	H	0.836553	-0.291336	-1.210554
H348	H	1.336553	0.208664	-0.710554
H349	H	0.898328	-0.229437	-1.210509
H350	H	1.398328	0.270563	-0.710509
