data_functionalizedCrystal
_audit_creation_method	'MofGen! by Chris Wilmer'
_symmetry_space_group_name_H-M	'P1'
_symmetry_Int_Tables_number	1
_symmetry_cell_setting	triclinic
loop_
_symmetry_equiv_pos_as_xyz
  x,y,z
_cell_length_a	8.497374
_cell_length_b	8.497374
_cell_length_c	17.640112
_cell_angle_alpha	101.218797
_cell_angle_beta	78.811569
_cell_angle_gamma	90.000262
loop_
_atom_site_label
_atom_site_type_symbol
_atom_site_fract_x
_atom_site_fract_y
_atom_site_fract_z
Zn1	Zn	0.405258	-0.140117	1.208308
Zn2	Zn	0.141495	-0.403860	1.208315
Zn3	Zn	0.194716	-0.193477	1.076177
Zn4	Zn	0.458463	-0.457238	1.076171
O5	O	0.299983	-0.298673	1.142243
O6	O	0.325729	-0.130432	1.318909
O7	O	-0.072209	-0.375944	1.190792
O8	O	0.222652	0.034363	1.093704
O9	O	0.131944	-0.324203	1.318914
O10	O	0.377335	0.073567	1.190780
O11	O	-0.033108	-0.221377	1.093711
O12	O	0.274243	-0.273136	0.965576
O13	O	0.672170	-0.415179	1.093694
O14	O	0.468017	-0.466920	0.965572
O15	O	0.633080	-0.182191	1.190775
O16	O	0.183535	-0.631703	1.190786
O17	O	0.416410	-0.670919	1.093701
C18	C	0.382679	-0.381612	0.936897
C19	C	0.418095	-0.417132	0.849049
C20	C	0.711466	-0.298678	1.142237
C21	C	0.890109	-0.298694	1.142239
C22	C	0.299993	0.112805	1.142236
C23	C	0.299998	0.291449	1.142237
C24	C	0.030951	-0.028806	0.560029
C25	C	0.064250	-0.062214	0.477483
C26	C	0.265679	-0.264279	0.477532
C27	C	0.232402	-0.230882	0.560081
C28	C	0.115035	-0.113145	0.601323
C29	C	0.316486	-0.315221	0.601374
C30	C	0.283205	-0.281833	0.683915
C31	C	0.165840	-0.164105	0.725163
C32	C	0.081754	-0.079756	0.683864
C33	C	0.433844	-0.432966	0.560131
C34	C	0.517928	-0.517305	0.601424
C35	C	0.484656	-0.483909	0.683967
C36	C	0.367291	-0.366181	0.725214
C37	C	0.568742	-0.568257	0.725266
C38	C	0.535461	-0.534869	0.807807
C39	C	0.334011	-0.332792	0.807755
C40	C	0.216965	-0.215411	1.348391
C41	C	0.181588	-0.179930	1.436239
H42	H	0.238462	-0.236896	0.841337
H43	H	0.460937	-0.460147	0.492921
O44	O	0.632120	-0.631451	0.561320
C45	C	0.753371	-0.561100	0.513556
H46	H	0.753276	-0.426811	0.538415
H47	H	0.729820	-0.580895	0.450995
C48	C	0.917878	-0.803850	0.481778
C49	C	0.917770	-0.638916	0.512314
H50	H	1.019287	-0.851853	0.481008
H51	H	0.836187	-0.851250	0.513955
H52	H	0.898245	-0.820324	0.429647
H53	H	0.937382	-0.622444	0.564447
H54	H	0.999468	-0.591514	0.480145
H55	H	0.603933	-0.603545	0.841429
H56	H	0.664291	-0.664129	0.691674
H57	H	-0.064598	0.067091	0.593611
O58	O	-0.032470	0.034428	0.723901
C59	C	-0.181614	-0.007945	0.703709
H60	H	-0.180630	-0.143129	0.681026
H61	H	-0.203407	0.057331	0.655789
C62	C	-0.317633	0.206242	0.804883
C63	C	-0.316428	0.040203	0.777031
H64	H	-0.400794	0.235947	0.850110
H65	H	-0.217152	0.234794	0.818486
H66	H	-0.335788	0.260617	0.764943
H67	H	-0.298253	-0.014169	0.816967
H68	H	-0.416910	0.011643	0.763436
H69	H	-0.004219	0.006486	0.443864
O70	O	0.133489	-0.131956	0.805343
C71	C	0.081566	-0.271914	0.832939
H72	H	0.127561	-0.382061	0.785393
H73	H	-0.055237	-0.269136	0.847564
C74	C	0.091027	-0.144472	0.965953
C75	C	0.147529	-0.279758	0.907559
H76	H	0.131708	-0.149309	1.011984
H77	H	0.126002	-0.050177	0.947363
H78	H	-0.022974	-0.142173	0.978131
H79	H	0.261526	-0.282044	0.895375
H80	H	0.112574	-0.374054	0.926149
H81	H	0.361234	-0.360144	0.443942
