data_functionalizedCrystal
_audit_creation_method	'MofGen! by Chris Wilmer'
_symmetry_space_group_name_H-M	'P1'
_symmetry_Int_Tables_number	1
_symmetry_cell_setting	triclinic
loop_
_symmetry_equiv_pos_as_xyz
  x,y,z
_cell_length_a	10.967961
_cell_length_b	11.026623
_cell_length_c	9.130313
_cell_angle_alpha	89.996551
_cell_angle_beta	102.129530
_cell_angle_gamma	83.618694
loop_
_atom_site_label
_atom_site_type_symbol
_atom_site_fract_x
_atom_site_fract_y
_atom_site_fract_z
O1	O	0.523510	-1.614529	0.253921
O2	O	0.463897	-1.260726	0.238878
O3	O	0.313890	-1.445785	0.201013
O4	O	0.673517	-1.429470	0.291786
O5	O	0.313887	-1.445771	-0.042586
O6	O	0.463894	-1.260712	-0.004722
O7	O	0.523507	-1.614515	0.010322
Cu8	Cu	0.493700	-1.437612	-0.019443
Cu9	Cu	0.493704	-1.437629	0.268642
O10	O	0.673514	-1.429456	0.048186
C11	C	0.452898	-1.215416	0.114303
C12	C	0.420114	-1.080429	0.106029
C13	C	0.510633	-1.007378	0.128878
C14	C	0.476751	-0.867861	0.120328
C15	C	0.267132	-1.444589	0.067415
C16	C	0.127812	-1.441033	0.032259
C17	C	-0.078294	-1.435784	0.106441
C18	C	0.065701	-1.439456	0.142787
C19	C	0.720271	-1.430651	0.181787
C20	C	0.859592	-1.434208	0.216953
N21	N	0.493699	-1.437609	-0.222066
C22	C	0.534504	-0.659825	0.134899
C23	C	0.567284	-0.794813	0.143179
C24	C	0.586130	-1.511976	-0.275383
C25	C	0.586128	-1.511995	-0.428720
C26	C	0.401256	-1.363271	-0.475412
C27	C	0.401255	-1.363259	-0.322078
N28	N	0.493697	-1.437641	0.471263
H29	H	-0.131720	-1.434410	-0.015080
C30	C	0.338164	-0.812839	0.085347
H31	H	0.285766	-0.876763	0.072111
H32	H	0.321611	-0.763913	0.166114
H33	H	0.321613	-0.763910	-0.003792
C34	C	0.705872	-0.849832	0.178155
H35	H	0.758267	-0.785907	0.191370
H36	H	0.722431	-0.898769	0.267278
H37	H	0.722421	-0.898750	0.097368
H38	H	0.613213	-1.048126	0.154761
C39	C	0.281533	-1.025401	0.071050
H40	H	0.229135	-1.089324	0.057814
H41	H	0.264980	-0.976475	0.151818
H42	H	0.264982	-0.976472	-0.018089
H43	H	0.119120	-1.440815	0.264316
H44	H	0.074392	-1.439655	-0.089271
C45	C	-0.068247	-1.436062	0.381120
H46	H	0.019069	-1.438297	0.384012
H47	H	-0.096024	-1.364749	0.428711
H48	H	-0.083254	-1.506306	0.431916
C49	C	0.687801	-1.593773	-0.165378
H50	H	0.742840	-1.638076	-0.219101
H51	H	0.734119	-1.544435	-0.093875
H52	H	0.649159	-1.649298	-0.115312
C53	C	0.299600	-1.281426	-0.263412
H54	H	0.312840	-1.292071	-0.157768
H55	H	0.304112	-1.198445	-0.287428
H56	H	0.219135	-1.303296	-0.308830
C57	C	0.687808	-1.593793	-0.487361
H58	H	0.742865	-1.638061	-0.405832
H59	H	0.649188	-1.649329	-0.556914
H60	H	0.734121	-1.544443	-0.535495
C61	C	0.299586	-1.281481	-0.585425
H62	H	0.312831	-1.292128	-0.684380
H63	H	0.219134	-1.303355	-0.580603
H64	H	0.304088	-1.198486	-0.559170
