data_functionalizedCrystal
_audit_creation_method	'MofGen! by Chris Wilmer'
_symmetry_space_group_name_H-M	'P1'
_symmetry_Int_Tables_number	1
_symmetry_cell_setting	triclinic
loop_
_symmetry_equiv_pos_as_xyz
  x,y,z
_cell_length_a	13.897449
_cell_length_b	19.121449
_cell_length_c	13.897441
_cell_angle_alpha	92.472241
_cell_angle_beta	90.023394
_cell_angle_gamma	87.585897
loop_
_atom_site_label
_atom_site_type_symbol
_atom_site_fract_x
_atom_site_fract_y
_atom_site_fract_z
Zn1	Zn	1.491023	-0.279572	0.529069
Zn2	Zn	1.497773	-0.397034	0.360888
Zn3	Zn	1.329714	-0.279605	0.367778
Zn4	Zn	1.336548	-0.396987	0.522136
O5	O	1.413764	-0.338299	0.444968
O6	O	1.626900	-0.295160	0.506777
O7	O	1.475445	-0.381490	0.226818
O8	O	1.345426	-0.181317	0.394958
O9	O	1.631860	-0.381459	0.383215
O10	O	1.463939	-0.181293	0.513458
O11	O	1.351972	-0.295215	0.231880
O12	O	1.195638	-0.295170	0.388236
O13	O	1.357074	-0.381378	0.658039
O14	O	1.200659	-0.381410	0.501642
O15	O	1.470566	-0.295114	0.663133
O16	O	1.482072	-0.495311	0.376493
O17	O	1.363620	-0.495276	0.494961
C18	C	1.163149	-0.338289	0.444935
C19	C	1.055936	-0.338301	0.444942
C20	C	0.968867	-0.338303	0.444958
C21	C	0.859634	-0.338308	0.444987
C22	C	1.424346	-0.520777	0.434248
C23	C	1.428961	-0.598842	0.429694
C24	C	1.369416	-0.635525	0.489184
C25	C	1.373756	-0.708875	0.484901
C26	C	1.437648	-0.745541	0.421133
C27	C	1.497196	-0.708854	0.361637
C28	C	1.492850	-0.635505	0.365915
C29	C	1.453854	-0.967007	0.405128
C30	C	1.458197	-1.040361	0.400856
C31	C	1.334756	-1.040378	0.524119
C32	C	1.330420	-0.967027	0.528396
C33	C	1.389964	-0.930346	0.468896
C34	C	1.442088	-0.820517	0.416756
C35	C	1.385518	-0.855372	0.473269
C36	C	1.665358	-0.338311	0.445001
C37	C	1.772572	-0.338316	0.445016
C38	C	1.413829	-0.338237	0.696564
C39	C	1.413857	-0.338211	0.803780
C40	C	1.403168	-0.155109	0.455750
C41	C	1.398652	-0.077044	0.460345
C42	C	1.413752	-0.338311	0.194353
C43	C	1.413900	-0.338139	0.087149
C44	C	1.413880	-0.338163	1.000078
C45	C	1.413864	-0.338192	0.890844
H46	H	1.317393	-0.605676	0.541115
N47	N	1.270523	-1.079943	0.588274
H48	H	1.229388	-1.045584	0.629318
H49	H	1.311558	-1.110326	0.631182
N50	N	1.566105	-0.748406	0.292862
H51	H	1.634257	-0.735586	0.308653
H52	H	1.550324	-0.735677	0.224696
H53	H	1.510231	-1.070213	0.348929
H54	H	1.541337	-0.605638	0.317471
H55	H	1.502339	-0.937147	0.356682
N56	N	1.316605	-0.815823	0.542038
H57	H	1.353981	-0.785339	0.588547
H58	H	1.279553	-0.850231	0.579016
N59	N	1.309544	-0.748447	0.549069
H60	H	1.266668	-0.778930	0.508050
H61	H	1.268474	-0.714050	0.590113
N62	N	1.261503	-0.927481	0.597169
H63	H	1.224435	-0.961851	0.634204
H64	H	1.215088	-0.897103	0.559627
N65	N	1.510991	-0.860074	0.347979
H66	H	1.557463	-0.890458	0.385451
H67	H	1.547996	-0.825670	0.310949
