data_functionalizedCrystal
_audit_creation_method	'MofGen! by Chris Wilmer'
_symmetry_space_group_name_H-M	'P1'
_symmetry_Int_Tables_number	1
_symmetry_cell_setting	triclinic
loop_
_symmetry_equiv_pos_as_xyz
  x,y,z
_cell_length_a	15.995350
_cell_length_b	15.995350
_cell_length_c	14.472310
_cell_angle_alpha	90.001162
_cell_angle_beta	90.009379
_cell_angle_gamma	96.507625
loop_
_atom_site_label
_atom_site_type_symbol
_atom_site_fract_x
_atom_site_fract_y
_atom_site_fract_z
O1	O	1.110997	-0.107921	0.076758
O2	O	0.867221	-0.121248	0.076776
O3	O	0.995773	0.007303	0.076766
O4	O	0.982445	-0.236472	0.076769
O5	O	0.995740	0.007296	-0.076916
O6	O	0.867188	-0.121256	-0.076906
O7	O	1.110963	-0.107928	-0.076924
Cu8	Cu	0.989073	-0.114593	-0.090947
Cu9	Cu	0.989112	-0.114584	0.090800
O10	O	0.982412	-0.236480	-0.076913
C11	C	0.836010	-0.120701	-0.000062
C12	C	0.743060	-0.119049	-0.000055
C13	C	0.995205	0.038494	-0.000073
C14	C	0.993553	0.131444	-0.000068
C15	C	0.405312	-0.113117	-0.000074
C16	C	0.452746	-0.021565	-0.000418
C17	C	0.549436	-0.023217	-0.000065
C18	C	0.572873	-0.116060	-0.000065
C19	C	0.531804	-0.161212	0.087692
C20	C	0.435169	-0.158912	0.087759
C21	C	0.434792	-0.160812	-0.087007
C22	C	0.531737	-0.160790	-0.088160
C23	C	0.667570	-0.117727	-0.000057
C24	C	0.310614	-0.111452	-0.000076
C25	C	1.142175	-0.108476	-0.000083
C26	C	1.235125	-0.110127	-0.000084
C27	C	0.982980	-0.267671	-0.000072
C28	C	0.984631	-0.360621	-0.000071
N29	N	0.989051	-0.114598	-0.218778
C30	C	0.987621	0.469192	-0.000071
C31	C	0.896069	0.421758	0.000281
C32	C	0.897721	0.325068	-0.000066
C33	C	0.990564	0.301631	-0.000069
C34	C	1.035701	0.342705	-0.087831
C35	C	1.033401	0.439340	-0.087904
C36	C	1.035330	0.439707	0.086861
C37	C	1.035309	0.342762	0.088021
C38	C	0.992231	0.206934	-0.000071
C39	C	0.985956	0.563890	-0.000075
C40	C	0.989111	-0.114581	-0.592869
C41	C	0.920095	-0.183135	-0.553698
C42	C	0.920254	-0.183385	-0.446610
C43	C	0.989081	-0.114590	-0.407278
C44	C	1.076445	-0.133671	-0.446122
C45	C	1.076057	-0.134159	-0.553243
C46	C	0.971542	-0.026741	-0.553398
C47	C	0.969538	-0.027327	-0.446270
C48	C	0.989069	-0.114593	-0.302390
C49	C	0.989128	-0.114579	-0.697757
N50	N	0.989140	-0.114572	0.218631
H51	H	0.577852	0.012275	-0.062973
H52	H	0.909219	-0.008392	-0.580461
C53	C	0.935040	-0.270702	-0.590050
N54	N	0.946300	-0.336657	-0.617432
H55	H	1.021872	0.024275	-0.578728
C56	C	0.550891	-0.253358	0.092107
N57	N	0.565270	-0.322762	0.095431
H58	H	1.000459	0.457639	-0.153505
H59	H	1.091540	-0.198219	-0.578220
C60	C	0.846645	0.446806	0.085298
N61	N	0.809417	0.465681	0.149334
H62	H	1.129018	-0.086196	-0.579154
C63	C	0.391602	-0.249715	0.093159
N64	N	0.358791	-0.318106	0.097236
H65	H	0.859626	0.441349	-0.062299
H66	H	1.103014	0.327400	0.093317
C67	C	0.570148	-0.118833	0.175925
N68	N	0.599027	-0.086907	0.242380
H69	H	1.092297	-0.197002	-0.419285
H70	H	0.855314	-0.172016	-0.420349
C71	C	0.882714	-0.007764	-0.411980
N72	N	0.817316	0.006967	-0.386148
C73	C	1.126519	0.482619	0.087659
N74	N	1.195199	0.514946	0.088254
H75	H	0.434210	0.015027	-0.063352
H76	H	1.129029	-0.085068	-0.420643
C77	C	0.407039	-0.120375	-0.176870
N78	N	0.386137	-0.089909	-0.244550
C79	C	1.033050	0.044822	-0.410125
N80	N	1.080900	0.099161	-0.382909
H81	H	0.433166	0.014865	0.062168
H82	H	0.403031	-0.228313	-0.087600
H83	H	1.100617	0.471588	-0.091888
C84	C	0.587093	0.025060	0.085071
N85	N	0.615455	0.061423	0.149200
C86	C	0.849430	0.287416	-0.085196
N87	N	0.813056	0.259058	-0.149322
H88	H	0.559040	-0.127830	-0.153082
H89	H	0.931473	-0.248569	-0.420976
H90	H	0.416874	-0.125979	0.153359
H91	H	0.547101	-0.228494	-0.093461
C92	C	0.849779	0.286672	0.084921
N93	N	0.813663	0.257756	0.148933
C94	C	1.127842	0.323605	-0.092258
N95	N	1.197241	0.309212	-0.095595
H96	H	1.005412	0.460250	0.153379
C97	C	0.990768	0.305906	0.175734
N98	N	0.957211	0.278149	0.241798
C99	C	0.993308	0.304366	-0.176059
N100	N	0.961371	0.275490	-0.242511
C101	C	0.832080	-0.168045	-0.588550
N102	N	0.765786	-0.156682	-0.614814
