data_functionalizedCrystal
_audit_creation_method	'MofGen! by Chris Wilmer'
_symmetry_space_group_name_H-M	'P1'
_symmetry_Int_Tables_number	1
_symmetry_cell_setting	triclinic
loop_
_symmetry_equiv_pos_as_xyz
  x,y,z
_cell_length_a	14.044220
_cell_length_b	23.532407
_cell_length_c	12.503572
_cell_angle_alpha	93.496478
_cell_angle_beta	86.164750
_cell_angle_gamma	88.018778
loop_
_atom_site_label
_atom_site_type_symbol
_atom_site_fract_x
_atom_site_fract_y
_atom_site_fract_z
O1	O	1.261903	0.134222	-0.089227
O2	O	1.511903	0.384222	0.160773
O3	O	1.761903	0.634222	0.410773
O4	O	2.011903	0.884222	0.660773
O5	O	0.985982	0.129269	-0.089253
O6	O	1.235982	0.379269	0.160747
O7	O	1.485982	0.629269	0.410747
O8	O	1.735982	0.879269	0.660747
O9	O	1.132262	0.049265	-0.089219
O10	O	1.382262	0.299265	0.160781
O11	O	1.632262	0.549265	0.410781
O12	O	1.882262	0.799265	0.660781
O13	O	1.115623	0.214225	-0.089260
O14	O	1.365623	0.464225	0.160740
O15	O	1.615623	0.714225	0.410740
O16	O	1.865623	0.964225	0.660740
O17	O	1.121261	0.055293	0.089420
O18	O	1.371261	0.305293	0.339420
O19	O	1.621261	0.555293	0.589420
O20	O	1.871261	0.805293	0.839420
O21	O	0.974981	0.135296	0.089386
O22	O	1.224981	0.385296	0.339386
O23	O	1.474981	0.635296	0.589386
O24	O	1.724981	0.885296	0.839386
O25	O	1.250902	0.140249	0.089413
O26	O	1.500902	0.390249	0.339413
O27	O	1.750902	0.640249	0.589413
O28	O	2.000902	0.890249	0.839413
Cu29	Cu	1.111937	0.138323	0.105711
Cu30	Cu	1.361937	0.388323	0.355711
Cu31	Cu	1.611937	0.638323	0.605711
Cu32	Cu	1.861937	0.888323	0.855711
Cu33	Cu	1.124947	0.131195	-0.105551
Cu34	Cu	1.374947	0.381195	0.144449
Cu35	Cu	1.624947	0.631195	0.394449
Cu36	Cu	1.874947	0.881195	0.644449
O37	O	1.104622	0.220253	0.089379
O38	O	1.354622	0.470253	0.339379
O39	O	1.604622	0.720253	0.589379
O40	O	1.854622	0.970253	0.839379
C41	C	0.945188	0.130115	0.000063
C42	C	1.195188	0.380115	0.250063
C43	C	1.445188	0.630115	0.500063
C44	C	1.695188	0.880115	0.750063
C45	C	0.840023	0.123648	0.000054
C46	C	1.090023	0.373648	0.250054
C47	C	1.340023	0.623648	0.500054
C48	C	1.590023	0.873648	0.750054
C49	C	0.647472	0.111828	0.000078
C50	C	0.897472	0.361828	0.250078
C51	C	1.147472	0.611828	0.500078
C52	C	1.397472	0.861828	0.750078
C53	C	0.589407	0.157687	0.000072
C54	C	0.839407	0.407687	0.250072
C55	C	1.089407	0.657687	0.500072
C56	C	1.339407	0.907687	0.750072
C57	C	0.482265	0.151110	0.000085
C58	C	0.732265	0.401110	0.250085
C59	C	0.982265	0.651110	0.500085
C60	C	1.232265	0.901110	0.750085
C61	C	0.754624	0.118404	0.000065
C62	C	1.004624	0.368404	0.250065
C63	C	1.254624	0.618404	0.500065
C64	C	1.504624	0.868404	0.750065
C65	C	1.126337	0.031040	0.000103
C66	C	1.376337	0.281040	0.250103
C67	C	1.626337	0.531040	0.500103
C68	C	1.876337	0.781040	0.750103
C69	C	1.125063	-0.032246	0.000111
C70	C	1.375063	0.217754	0.250111
C71	C	1.625063	0.467754	0.500111
C72	C	1.875063	0.717754	0.750111
C73	C	1.203641	-0.427092	0.000060
C74	C	1.453641	-0.177092	0.250060
C75	C	1.703641	0.072908	0.500060
C76	C	1.953641	0.322908	0.750060
C77	C	1.202458	-0.486556	0.000051
C78	C	1.452458	-0.236556	0.250051
C79	C	1.702458	0.013444	0.500051
C80	C	1.952458	0.263444	0.750051
O81	O	1.275300	-0.519354	0.000019
O82	O	1.525300	-0.269354	0.250019
O83	O	1.775300	-0.019354	0.500019
O84	O	2.025300	0.230646	0.750019
N85	N	1.115494	-0.513896	0.000044
N86	N	1.365494	-0.263896	0.250044
N87	N	1.615494	-0.013896	0.500044
N88	N	1.865494	0.236104	0.750044
C89	C	1.029708	-0.481769	0.000034
C90	C	1.279708	-0.231769	0.250034
C91	C	1.529708	0.018231	0.500034
C92	C	1.779708	0.268231	0.750034
O93	O	0.955630	-0.510484	0.000026
O94	O	1.205630	-0.260484	0.250026
O95	O	1.455630	-0.010484	0.500026
O96	O	1.705630	0.239516	0.750026
C97	C	1.030893	-0.422305	0.000034
C98	C	1.280893	-0.172305	0.250034
C99	C	1.530893	0.077695	0.500034
C100	C	1.780893	0.327695	0.750034
C101	C	1.117862	-0.394968	0.000053
C102	C	1.367862	-0.144968	0.250053
C103	C	1.617862	0.105032	0.500053
C104	C	1.867862	0.355032	0.750053
C105	C	1.290603	-0.399754	0.000077
C106	C	1.540603	-0.149754	0.250077
C107	C	1.790603	0.100246	0.500077
C108	C	2.040603	0.350246	0.750077
C109	C	1.291786	-0.340294	0.000087
C110	C	1.541786	-0.090294	0.250087
C111	C	1.791786	0.159706	0.500087
C112	C	2.041786	0.409706	0.750087
C113	C	1.206006	-0.308170	0.000080
C114	C	1.456006	-0.058170	0.250080
C115	C	1.706006	0.191830	0.500080
C116	C	1.956006	0.441830	0.750080
C117	C	1.119044	-0.335508	0.000063
C118	C	1.369044	-0.085508	0.250063
C119	C	1.619044	0.164492	0.500063
C120	C	1.869044	0.414492	0.750063
C121	C	0.945109	-0.390179	0.000016
C122	C	1.195109	-0.140179	0.250016
C123	C	1.445109	0.109821	0.500016
C124	C	1.695109	0.359821	0.750016
C125	C	0.946301	-0.330712	0.000016
C126	C	1.196301	-0.080712	0.250016
C127	C	1.446301	0.169288	0.500016
C128	C	1.696301	0.419288	0.750016
C129	C	1.033270	-0.303375	0.000035
C130	C	1.283270	-0.053375	0.250035
C131	C	1.533270	0.196625	0.500035
C132	C	1.783270	0.446625	0.750035
C133	C	1.034447	-0.243924	0.000066
C134	C	1.284447	0.006076	0.250066
C135	C	1.534447	0.256076	0.500066
C136	C	1.784447	0.506076	0.750066
N137	N	1.121411	-0.216584	0.000074
N138	N	1.371411	0.033416	0.250074
N139	N	1.621411	0.283416	0.500074
N140	N	1.871411	0.533416	0.750074
C141	C	1.207191	-0.248707	0.000081
C142	C	1.457191	0.001293	0.250081
C143	C	1.707191	0.251293	0.500081
C144	C	1.957191	0.501293	0.750081
C145	C	1.027228	-0.606646	0.000031
C146	C	1.277228	-0.356646	0.250031
C147	C	1.527228	-0.106646	0.500031
C148	C	1.777228	0.143354	0.750031
C149	C	1.026042	-0.666108	0.000038
C150	C	1.276042	-0.416108	0.250038
C151	C	1.526042	-0.166108	0.500038
C152	C	1.776042	0.083892	0.750038
C153	C	1.198792	-0.670891	0.000053
C154	C	1.448792	-0.420891	0.250053
C155	C	1.698792	-0.170891	0.500053
C156	C	1.948792	0.079109	0.750053
C157	C	1.199976	-0.611428	0.000054
C158	C	1.449976	-0.361428	0.250054
C159	C	1.699976	-0.111428	0.500054
C160	C	1.949976	0.138572	0.750054
C161	C	1.114192	-0.579306	0.000038
C162	C	1.364192	-0.329306	0.250038
C163	C	1.614192	-0.079306	0.500038
C164	C	1.864192	0.170694	0.750038
C165	C	1.209668	-0.123835	0.000103
C166	C	1.459668	0.126165	0.250103
C167	C	1.709668	0.376165	0.500103
C168	C	1.959668	0.626165	0.750103
C169	C	1.210842	-0.064369	0.000118
C170	C	1.460842	0.185631	0.250118
C171	C	1.710842	0.435631	0.500118
C172	C	1.960842	0.685631	0.750118
C173	C	1.038093	-0.059591	0.000097
C174	C	1.288093	0.190409	0.250097
C175	C	1.538093	0.440409	0.500097
C176	C	1.788093	0.690409	0.750097
C177	C	1.036917	-0.119052	0.000088
C178	C	1.286917	0.130948	0.250088
C179	C	1.536917	0.380948	0.500088
C180	C	1.786917	0.630948	0.750088
C181	C	1.122713	-0.151173	0.000087
C182	C	1.372713	0.098827	0.250087
C183	C	1.622713	0.348827	0.500087
C184	C	1.872713	0.598827	0.750087
O185	O	0.961644	-0.211090	0.000095
O186	O	1.211644	0.038910	0.250095
O187	O	1.461644	0.288910	0.500095
O188	O	1.711644	0.538910	0.750095
O189	O	1.281258	-0.219985	0.000075
O190	O	1.531258	0.030015	0.250075
O191	O	1.781258	0.280015	0.500075
O192	O	2.031258	0.530015	0.750075
C193	C	1.291696	0.139403	0.000094
C194	C	1.541696	0.389403	0.250094
C195	C	1.791696	0.639403	0.500094
C196	C	2.041696	0.889403	0.750094
C197	C	1.396861	0.145869	0.000096
C198	C	1.646861	0.395869	0.250096
C199	C	1.896861	0.645869	0.500096
C200	C	2.146861	0.895869	0.750096
C201	C	1.110547	0.238478	0.000054
C202	C	1.360547	0.488478	0.250054
C203	C	1.610547	0.738478	0.500054
C204	C	1.860547	0.988478	0.750054
C205	C	1.111822	0.301763	0.000039
C206	C	1.361822	0.551763	0.250039
C207	C	1.611822	0.801763	0.500039
C208	C	1.861822	1.051763	0.750039
N209	N	1.102793	0.143337	0.254301
N210	N	1.352793	0.393337	0.504301
N211	N	1.602793	0.643337	0.754301
N212	N	1.852793	0.893337	1.004301
N213	N	1.134098	0.126177	-0.254141
N214	N	1.384098	0.376177	-0.004141
N215	N	1.634098	0.626177	0.245859
N216	N	1.884098	0.876177	0.495859
C217	C	1.089342	0.150717	0.473413
C218	C	1.339342	0.400717	0.723413
C219	C	1.589342	0.650717	0.973413
C220	C	1.839342	0.900717	1.223413
C221	C	1.147546	0.118799	0.526753
C222	C	1.397546	0.368799	0.776753
C223	C	1.647546	0.618799	1.026753
C224	C	1.897546	0.868799	1.276753
C225	C	1.140062	0.122905	0.648675
C226	C	1.390062	0.372905	0.898675
C227	C	1.640062	0.622905	1.148675
C228	C	1.890062	0.872905	1.398675
C229	C	1.096825	0.146611	0.351480
C230	C	1.346825	0.396611	0.601480
C231	C	1.596825	0.646611	0.851480
C232	C	1.846825	0.896611	1.101480
H233	H	0.616718	0.067631	0.000095
H234	H	0.866718	0.317631	0.250095
H235	H	1.116718	0.567631	0.500095
H236	H	1.366718	0.817631	0.750095
H237	H	1.033896	0.181126	0.519308
H238	H	1.283896	0.431126	0.769308
H239	H	1.533896	0.681126	1.019308
H240	H	1.783896	0.931126	1.269308
H241	H	1.281666	-0.042114	0.000136
H242	H	1.531666	0.207886	0.250136
H243	H	1.781666	0.457886	0.500136
H244	H	2.031666	0.707886	0.750136
Br245	Br	1.326105	-0.167419	0.000102
Br246	Br	1.576105	0.082581	0.250102
Br247	Br	1.826105	0.332581	0.500102
Br248	Br	2.076105	0.582581	0.750102
Br249	Br	0.640663	0.231359	0.000050
Br250	Br	0.890663	0.481359	0.250050
Br251	Br	1.140663	0.731359	0.500050
Br252	Br	1.390663	0.981359	0.750050
Br253	Br	1.409823	-0.303204	0.000082
Br254	Br	1.659823	-0.053204	0.250082
Br255	Br	1.909823	0.196796	0.500082
Br256	Br	2.159823	0.446796	0.750082
Br257	Br	0.918886	-0.156153	0.000087
Br258	Br	1.168886	0.093847	0.250087
Br259	Br	1.418886	0.343847	0.500087
Br260	Br	1.668886	0.593847	0.750087
H261	H	1.360460	-0.425903	0.000079
H262	H	1.610460	-0.175903	0.250079
H263	H	1.860460	0.074097	0.500079
H264	H	2.110460	0.324097	0.750079
H265	H	1.270794	-0.589174	0.000068
H266	H	1.520794	-0.339174	0.250068
H267	H	1.770794	-0.089174	0.500068
H268	H	2.020794	0.160826	0.750068
Br269	Br	0.910793	-0.563057	0.000018
Br270	Br	1.160793	-0.313057	0.250018
Br271	Br	1.410793	-0.063057	0.500018
Br272	Br	1.660793	0.186943	0.750018
Br273	Br	1.315208	-0.714499	0.000058
Br274	Br	1.565208	-0.464499	0.250058
Br275	Br	1.815208	-0.214499	0.500058
Br276	Br	2.065208	0.035501	0.750058
Br277	Br	0.921683	-0.015984	0.000088
Br278	Br	1.171683	0.234016	0.250088
Br279	Br	1.421683	0.484016	0.500088
Br280	Br	1.671683	0.734016	0.750088
H281	H	0.955222	-0.688360	0.000041
H282	H	1.205222	-0.438360	0.250041
H283	H	1.455222	-0.188360	0.500041
H284	H	1.705222	0.061640	0.750041
H285	H	0.874290	-0.412427	-0.000005
H286	H	1.124290	-0.162427	0.249995
H287	H	1.374290	0.087573	0.499995
H288	H	1.624290	0.337573	0.749995
H289	H	0.876442	-0.304561	0.000002
H290	H	1.126442	-0.054561	0.250002
H291	H	1.376442	0.195439	0.500002
H292	H	1.626442	0.445439	0.750002
H293	H	1.202998	0.088389	0.480853
H294	H	1.452998	0.338389	0.730853
H295	H	1.702998	0.588389	0.980853
H296	H	1.952998	0.838389	1.230853
