data_functionalizedCrystal
_audit_creation_method	'MofGen! by Chris Wilmer'
_symmetry_space_group_name_H-M	'P1'
_symmetry_Int_Tables_number	1
_symmetry_cell_setting	triclinic
loop_
_symmetry_equiv_pos_as_xyz
  x,y,z
_cell_length_a	19.805407
_cell_length_b	19.121063
_cell_length_c	19.805399
_cell_angle_alpha	92.411105
_cell_angle_beta	89.980427
_cell_angle_gamma	92.469032
loop_
_atom_site_label
_atom_site_type_symbol
_atom_site_fract_x
_atom_site_fract_y
_atom_site_fract_z
Zn1	Zn	1.023234	-0.279631	-0.394203
Zn2	Zn	1.018317	-0.397083	-0.285838
Zn3	Zn	0.910048	-0.279650	-0.281028
Zn4	Zn	0.905182	-0.397046	-0.398983
O5	O	0.964195	-0.338352	-0.340013
O6	O	1.117298	-0.295218	-0.379840
O7	O	1.003934	-0.381529	-0.190484
O8	O	0.929156	-0.181363	-0.292028
O9	O	1.113686	-0.381510	-0.300225
O10	O	1.012313	-0.181348	-0.375177
O11	O	0.924388	-0.295251	-0.186951
O12	O	0.814686	-0.295215	-0.296663
O13	O	0.920863	-0.381447	-0.493065
O14	O	0.811111	-0.381465	-0.383324
O15	O	1.007595	-0.295182	-0.489553
O16	O	0.999216	-0.495363	-0.304860
O17	O	0.916096	-0.495335	-0.387987
C18	C	0.788340	-0.338339	-0.339991
C19	C	0.713107	-0.338350	-0.339998
C20	C	0.956613	-0.520833	-0.347479
C21	C	0.953431	-0.598899	-0.350696
C22	C	0.675917	-0.383328	-0.385055
C23	C	0.605228	-0.383329	-0.385064
C24	C	0.571732	-0.338356	-0.340013
C25	C	0.608927	-0.293373	-0.294954
C26	C	0.679614	-0.293368	-0.294948
C27	C	0.323853	-0.293388	-0.294977
C28	C	0.253161	-0.293397	-0.294985
C29	C	0.249467	-0.383349	-0.385093
C30	C	0.320154	-0.383345	-0.385087
C31	C	0.357344	-0.338360	-0.340031
C32	C	0.433992	-0.338358	-0.340022
C33	C	0.495084	-0.338360	-0.340018
C34	C	0.995246	-0.635566	-0.308963
C35	C	0.992258	-0.708917	-0.311992
C36	C	0.947451	-0.745601	-0.356752
C37	C	0.905634	-0.708929	-0.398489
C38	C	0.908626	-0.635579	-0.395463
C39	C	0.936252	-0.967071	-0.368056
C40	C	0.933262	-1.040426	-0.371078
C41	C	1.019887	-1.040409	-0.284581
C42	C	1.022872	-0.967058	-0.281556
C43	C	0.981058	-0.930393	-0.323296
C44	C	0.944394	-0.820578	-0.359848
C45	C	0.984119	-0.855417	-0.320203
C46	C	1.140737	-0.338366	-0.340036
C47	C	1.215969	-0.338372	-0.340046
C48	C	0.964235	-0.338308	-0.516554
C49	C	0.964252	-0.338289	-0.591785
C50	C	0.971825	-0.155159	-0.332532
C51	C	0.975077	-0.077093	-0.329345
C52	C	1.009414	-0.293369	-0.625302
C53	C	1.009422	-0.293349	-0.695989
C54	C	0.964270	-0.338253	-0.733159
C55	C	0.919103	-0.383175	-0.699638
C56	C	0.919093	-0.383191	-0.628952
C57	C	0.919144	-0.383109	-0.984709
C58	C	0.919159	-0.383091	-1.055400
C59	C	1.009474	-0.293267	-1.051747
C60	C	1.009463	-0.293283	-0.981060
C61	C	0.964294	-0.338202	-0.947545
C62	C	0.964285	-0.338223	-0.870897
C63	C	0.964282	-0.338236	-0.809806
C64	C	0.964197	-0.338346	-0.164157
C65	C	0.964319	-0.338167	-0.088918
H66	H	0.574951	-0.419956	-0.421754
C67	C	0.720527	-0.243894	-0.245387
H68	H	0.767423	-0.250327	-0.251840
H69	H	0.708501	-0.254108	-0.200311
H70	H	0.710904	-0.196716	-0.253445
C71	C	1.044536	-0.595220	-0.259728
H72	H	1.069015	-0.627566	-0.235313
H73	H	1.019830	-0.566648	-0.229033
H74	H	1.075183	-0.566565	-0.284471
H75	H	0.354124	-0.256764	-0.258284
H76	H	0.882374	-0.419695	-0.957430
C77	C	0.869438	-0.432569	-0.740523
H78	H	0.875916	-0.426131	-0.787422
H79	H	0.824387	-0.422290	-0.728512
H80	H	0.877381	-0.479764	-0.730865
H81	H	1.046232	-0.256720	-0.950800
H82	H	0.347424	-0.419970	-0.421771
C83	C	1.038251	-0.749248	-0.266083
H84	H	1.065359	-0.716895	-0.238986
H85	H	1.066565	-0.777818	-0.293177
H86	H	1.011202	-0.777904	-0.237749
C87	C	0.208557	-0.432826	-0.434662
H88	H	0.161661	-0.426384	-0.428221
H89	H	0.218178	-0.480002	-0.426610
H90	H	0.220589	-0.422604	-0.479738
H91	H	0.581649	-0.256751	-0.258275
H92	H	0.874577	-0.605726	-0.429447
C93	C	0.216316	-0.243918	-0.245431
H94	H	0.248588	-0.217120	-0.218601
H95	H	0.187614	-0.270744	-0.216996
H96	H	0.190021	-0.213356	-0.270133
C97	C	1.072165	-0.926711	-0.232325
H98	H	1.096645	-0.959055	-0.207908
H99	H	1.047458	-0.898138	-0.201631
H100	H	1.102811	-0.898056	-0.257069
H101	H	1.053931	-1.070270	-0.250600
H102	H	0.882310	-0.419762	-0.601663
C103	C	0.883978	-1.080777	-0.420320
H104	H	0.859508	-1.048436	-0.444751
H105	H	0.853331	-1.109435	-0.395587
H106	H	0.908697	-1.109347	-0.451012
H107	H	0.869154	-0.738803	-0.434936
H108	H	0.902204	-0.937224	-0.402041
C109	C	1.059155	-0.243851	-1.088615
H110	H	1.052693	-0.250265	-1.136037
H111	H	1.104201	-0.254139	-1.077459
H112	H	1.051212	-0.196660	-1.075100
H113	H	1.020604	-0.825547	-0.283763
C114	C	0.895105	-0.860929	-0.409079
H115	H	0.870629	-0.828589	-0.433505
H116	H	0.864465	-0.889590	-0.384342
H117	H	0.919822	-0.889496	-0.439775
C118	C	0.869491	-0.432485	-1.096289
H119	H	0.875974	-0.426046	-1.143188
H120	H	0.824439	-0.422205	-1.084282
H121	H	0.877431	-0.479682	-1.086632
C122	C	0.712760	-0.432803	-0.434606
H123	H	0.760186	-0.426366	-0.428146
H124	H	0.701621	-0.422592	-0.479684
H125	H	0.699209	-0.479982	-0.426549
C126	C	1.059081	-0.243976	-0.584418
H127	H	1.052613	-0.250422	-0.537519
H128	H	1.051144	-0.196783	-0.594074
H129	H	1.104134	-0.254261	-0.596432
C130	C	1.059104	-0.243940	-0.732855
H131	H	1.085999	-0.217207	-0.700594
H132	H	1.034495	-0.213326	-0.759175
H133	H	1.087480	-0.270810	-0.761532
