data_functionalizedCrystal
_audit_creation_method	'MofGen! by Chris Wilmer'
_symmetry_space_group_name_H-M	'P1'
_symmetry_Int_Tables_number	1
_symmetry_cell_setting	triclinic
loop_
_symmetry_equiv_pos_as_xyz
  x,y,z
_cell_length_a	19.188933
_cell_length_b	18.266242
_cell_length_c	15.995292
_cell_angle_alpha	90.003154
_cell_angle_beta	83.307093
_cell_angle_gamma	90.007623
loop_
_atom_site_label
_atom_site_type_symbol
_atom_site_fract_x
_atom_site_fract_y
_atom_site_fract_z
O1	O	0.926396	0.060851	0.104545
O2	O	1.426396	0.560851	0.604545
O3	O	0.723119	0.060858	0.118616
O4	O	1.223119	0.560858	0.618616
O5	O	0.830335	0.060855	-0.010330
O6	O	1.330335	0.560855	0.489670
O7	O	0.819180	0.060854	0.233492
O8	O	1.319180	0.560854	0.733492
O9	O	0.830317	-0.060906	-0.010337
O10	O	1.330317	0.439094	0.489663
O11	O	0.723101	-0.060904	0.118610
O12	O	1.223101	0.439096	0.618610
O13	O	0.926378	-0.060911	0.104539
O14	O	1.426378	0.439089	0.604539
Zn15	Zn	0.824736	-0.080240	0.111573
Zn16	Zn	1.324736	0.419760	0.611573
Zn17	Zn	0.824760	0.080187	0.111582
Zn18	Zn	1.324760	0.580187	0.611582
O19	O	0.819161	-0.060908	0.233486
O20	O	1.319161	0.439092	0.733486
C21	C	0.697098	-0.000023	0.118157
C22	C	1.197098	0.499977	0.618157
C23	C	0.619590	-0.000020	0.116788
C24	C	1.119590	0.499980	0.616788
N25	N	0.824725	-0.189727	0.111567
N26	N	1.324725	0.310273	0.611567
C27	C	0.066321	0.066345	0.107024
C28	C	0.566321	0.566345	0.607024
C29	C	0.139149	0.066348	0.108305
C30	C	0.639149	0.566348	0.608305
C31	C	0.175557	-0.000025	0.108946
C32	C	0.675557	0.499975	0.608946
C33	C	0.139135	-0.066405	0.108284
C34	C	0.639135	0.433595	0.608284
C35	C	0.066310	-0.066406	0.106994
C36	C	0.566310	0.433594	0.606994
N37	N	0.284688	-0.049429	0.158614
N38	N	0.784688	0.450571	0.658614
N39	N	0.353868	-0.049424	0.159841
N40	N	0.853868	0.450576	0.659841
C41	C	0.394975	-0.000026	0.112829
C42	C	0.894975	0.499974	0.612829
N43	N	0.364287	0.049377	0.064554
N44	N	0.864287	0.549377	0.564554
N45	N	0.295099	0.049374	0.063331
N46	N	0.795099	0.549374	0.563331
C47	C	0.254524	-0.000031	0.110343
C48	C	0.754524	0.499969	0.610343
C49	C	0.510357	0.066353	0.114873
C50	C	1.010357	0.566353	0.614873
C51	C	0.583186	0.066353	0.116149
C52	C	1.083186	0.566353	0.616149
C53	C	0.583170	-0.066401	0.116136
C54	C	1.083170	0.433599	0.616136
C55	C	0.510343	-0.066399	0.114852
C56	C	1.010343	0.433601	0.614852
C57	C	0.473940	-0.000020	0.114225
C58	C	0.973940	0.499980	0.614225
C59	C	0.872216	-0.228037	0.054497
C60	C	1.372216	0.271963	0.554497
C61	C	0.872221	-0.304681	0.054493
C62	C	1.372221	0.195319	0.554493
C63	C	0.824741	-0.343014	0.111573
C64	C	1.324741	0.156986	0.611573
C65	C	0.777241	-0.304695	0.168647
C66	C	1.277241	0.195305	0.668647
C67	C	0.777233	-0.228051	0.168644
C68	C	1.277233	0.271949	0.668644
N69	N	0.815841	-0.463346	0.185697
N70	N	1.315841	0.036654	0.685697
N71	N	0.815853	-0.536154	0.185697
N72	N	1.315853	-0.036154	0.685697
C73	C	0.824760	-0.573936	0.111586
C74	C	1.324760	-0.073936	0.611586
N75	N	0.833670	-0.536159	0.037471
N76	N	1.333670	-0.036159	0.537471
N77	N	0.833662	-0.463344	0.037471
N78	N	1.333662	0.036656	0.537471
C79	C	0.824744	-0.426121	0.111583
C80	C	1.324744	0.073879	0.611583
C81	C	0.872259	-0.695353	0.054507
C82	C	1.372259	-0.195353	0.554507
C83	C	0.872259	-0.771999	0.054502
C84	C	1.372259	-0.271999	0.554502
C85	C	0.777282	-0.772011	0.168663
C86	C	1.277282	-0.272011	0.668663
C87	C	0.777279	-0.695366	0.168661
C88	C	1.277279	-0.195366	0.668661
C89	C	0.824771	-0.657042	0.111584
C90	C	1.324771	-0.157042	0.611584
C91	C	0.952399	-0.000029	0.104998
C92	C	1.452399	0.499971	0.604998
C93	C	1.029907	-0.000027	0.106367
C94	C	1.529907	0.499973	0.606367
C95	C	0.829872	-0.000024	-0.041528
C96	C	1.329872	0.499976	0.458472
C97	C	0.828511	-0.000018	-0.134476
C98	C	1.328511	0.499982	0.365524
N99	N	0.824777	0.189674	0.111582
N100	N	1.324777	0.689674	0.611582
C101	C	0.823507	-0.000025	-0.472196
C102	C	1.323507	0.499975	0.027804
C103	C	0.900893	-0.000299	-0.449166
C104	C	1.400893	0.499701	0.050834
C105	C	0.902364	-0.000022	-0.352496
C106	C	1.402364	0.499978	0.147504
C107	C	0.825990	-0.000022	-0.304649
C108	C	1.325990	0.499978	0.195351
C109	C	0.787311	0.069509	-0.333605
C110	C	1.287311	0.569509	0.166395
C111	C	0.786379	0.069565	-0.430392
C112	C	1.286379	0.569565	0.069608
C113	C	0.784778	-0.068901	-0.430251
C114	C	1.284778	0.431099	0.069749
C115	C	0.787646	-0.069818	-0.333769
C116	C	1.287646	0.430182	0.166231
C117	C	0.827389	-0.000018	-0.209958
C118	C	1.327389	0.499982	0.290042
C119	C	0.822105	-0.000024	-0.566886
C120	C	1.322105	0.499976	-0.066886
C121	C	0.819625	-0.000028	0.264683
C122	C	1.319625	0.499972	0.764683
C123	C	0.820986	-0.000028	0.357631
C124	C	1.320986	0.499972	0.857631
H125	H	0.036687	0.120396	0.106509
H126	H	0.536687	0.620396	0.606509
N127	N	0.473179	0.134160	0.114227
N128	N	0.973179	0.634160	0.614227
N129	N	0.505705	0.193418	0.114803
N130	N	1.005705	0.693418	0.614803
H131	H	0.479451	0.241308	0.114345
H132	H	0.979451	0.741308	0.614345
N133	N	0.176345	0.134154	0.108971
N134	N	0.676345	0.634154	0.608971
N135	N	0.143835	0.193413	0.108406
N136	N	0.643835	0.693413	0.608406
H137	H	0.170102	0.241302	0.108877
H138	H	0.670102	0.741302	0.608877
H139	H	0.813182	0.121540	-0.457303
H140	H	1.313182	0.621540	0.042697
H141	H	0.168783	-0.120445	0.108804
H142	H	0.668783	0.379555	0.608804
N143	N	0.029121	-0.134212	0.106320
N144	N	0.529121	0.365788	0.606320
N145	N	0.061633	-0.193470	0.106884
N146	N	0.561633	0.306530	0.606884
H147	H	0.035368	-0.241360	0.106409
H148	H	0.535368	0.258640	0.606409
N149	N	0.620375	0.134160	0.116810
N150	N	1.120375	0.634160	0.616810
N151	N	0.587861	0.193417	0.116247
N152	N	1.087861	0.693417	0.616247
H153	H	0.614126	0.241308	0.116712
H154	H	1.114126	0.741308	0.616712
N155	N	0.620363	-0.134193	0.116780
N156	N	1.120363	0.365807	0.616780
N157	N	0.685385	-0.134185	0.117926
N158	N	1.185385	0.365815	0.617926
H159	H	0.711658	-0.182065	0.118377
H160	H	1.211658	0.317935	0.618377
H161	H	0.480694	-0.120446	0.114320
H162	H	0.980694	0.379554	0.614320
N163	N	0.728713	-0.188926	0.226946
N164	N	1.228713	0.311074	0.726946
N165	N	0.686318	-0.223155	0.277903
N166	N	1.186318	0.276845	0.777903
H167	H	0.652050	-0.195523	0.319080
H168	H	1.152050	0.304477	0.819080
H169	H	0.910886	-0.196835	0.008019
H170	H	1.410886	0.303165	0.508019
H171	H	0.910928	-0.664148	0.008028
H172	H	1.410928	-0.164148	0.508028
H173	H	0.910895	-0.335879	0.008018
H174	H	1.410895	0.164121	0.508018
H175	H	0.738581	-0.335908	0.215122
H176	H	1.238581	0.164092	0.715122
N177	N	0.920771	-0.811123	-0.003810
N178	N	1.420771	-0.311123	0.496190
N179	N	0.963167	-0.776892	-0.054765
N180	N	1.463167	-0.276892	0.445235
H181	H	0.997430	-0.804523	-0.095949
H182	H	1.497430	-0.304523	0.404051
H183	H	0.738620	-0.803220	0.215136
H184	H	1.238620	-0.303220	0.715136
H185	H	0.738610	-0.664172	0.215136
H186	H	1.238610	-0.164172	0.715136
H187	H	0.932657	-0.049863	-0.333584
H188	H	1.432657	0.450137	0.166416
N189	N	0.938300	-0.062852	-0.484436
N190	N	1.438300	0.437148	0.015564
N191	N	0.908366	-0.107961	-0.526962
N192	N	1.408366	0.392039	-0.026962
H193	H	0.934785	-0.152141	-0.551879
H194	H	1.434785	0.347859	-0.051879
N195	N	0.938109	0.061903	-0.485704
N196	N	1.438109	0.561903	0.014296
N197	N	0.907886	0.106434	-0.528630
N198	N	1.407886	0.606434	-0.028630
H199	H	0.934167	0.150366	-0.554436
H200	H	1.434167	0.650366	-0.054436
N201	N	0.940610	0.062614	-0.329550
N202	N	1.440610	0.562614	0.170450
N203	N	0.966294	0.106263	-0.384966
N204	N	1.466294	0.606263	0.115034
H205	H	0.993306	0.150504	-0.368763
H206	H	1.493306	0.650504	0.131237
H207	H	0.731900	-0.074017	-0.300596
H208	H	1.231900	0.425983	0.199404
H209	H	0.729640	0.072715	-0.444735
H210	H	1.229640	0.572715	0.055265
H211	H	0.809141	-0.121606	-0.458431
H212	H	1.309141	0.378394	0.041569
H213	H	0.731110	0.072094	-0.301532
H214	H	1.231110	0.572094	0.198468
N215	N	0.821029	0.134418	-0.308557
N216	N	1.321029	0.634418	0.191443
N217	N	0.873537	0.129650	-0.269390
N218	N	1.373537	0.629650	0.230610
H219	H	0.897355	0.175490	-0.251701
H220	H	1.397355	0.675490	0.248299
H221	H	0.815810	-0.121256	-0.315309
H222	H	1.315810	0.378744	0.184691
N223	N	0.713321	-0.069481	-0.447542
N224	N	1.213321	0.430519	0.052458
N225	N	0.690933	-0.019442	-0.490555
N226	N	1.190933	0.480558	0.009445
H227	H	0.640468	-0.019844	-0.502771
H228	H	1.140468	0.480156	-0.002771
