data_functionalizedCrystal
_audit_creation_method	'MofGen! by Chris Wilmer'
_symmetry_space_group_name_H-M	'P1'
_symmetry_Int_Tables_number	1
_symmetry_cell_setting	triclinic
loop_
_symmetry_equiv_pos_as_xyz
  x,y,z
_cell_length_a	27.732048
_cell_length_b	27.732048
_cell_length_c	26.809956
_cell_angle_alpha	90.000636
_cell_angle_beta	89.996742
_cell_angle_gamma	97.357345
loop_
_atom_site_label
_atom_site_type_symbol
_atom_site_fract_x
_atom_site_fract_y
_atom_site_fract_z
O1	O	0.640931	-0.057510	-0.041421
O2	O	0.500138	-0.066256	-0.041436
O3	O	0.574907	0.008514	-0.041419
O4	O	0.566162	-0.132280	-0.041439
O5	O	0.574893	0.008502	0.041541
O6	O	0.500123	-0.066267	0.041523
O7	O	0.640917	-0.057522	0.041539
Zn8	Zn	0.570518	-0.061896	0.054702
Zn9	Zn	0.570536	-0.061881	-0.054600
O10	O	0.566147	-0.132291	0.041521
C11	C	0.482124	-0.066078	0.000041
C12	C	0.428469	-0.065525	0.000036
C13	C	0.089654	-0.106229	0.000051
C14	C	-0.112006	-0.104178	0.000056
O15	O	-0.143262	-0.141398	0.000073
N16	N	-0.131130	-0.059843	0.000062
C17	C	-0.099835	-0.016017	0.000069
O18	O	-0.120728	0.021740	0.000079
C19	C	0.101824	-0.018068	0.000068
C20	C	0.120944	-0.062407	0.000057
C21	C	0.108775	-0.150563	0.000042
C22	C	0.159187	-0.151076	0.000038
C23	C	0.190477	-0.107253	0.000044
C24	C	0.171356	-0.062919	0.000054
C25	C	0.133117	0.025757	0.000079
C26	C	0.183535	0.025240	0.000080
C27	C	0.202655	-0.019098	0.000069
C28	C	0.253059	-0.019609	0.000056
N29	N	0.272183	-0.063944	0.000050
C30	C	0.240892	-0.107766	0.000044
C31	C	-0.205709	-0.014943	0.000069
C32	C	-0.256124	-0.014430	0.000068
C33	C	-0.268291	-0.102591	0.000056
C34	C	-0.217876	-0.103104	0.000053
C35	C	-0.186585	-0.059278	0.000063
C36	C	0.346761	-0.108839	0.000036
C37	C	0.397178	-0.109347	0.000030
C38	C	0.409341	-0.021186	0.000044
C39	C	0.358929	-0.020678	0.000048
C40	C	0.327639	-0.064508	0.000045
O41	O	0.284343	0.017592	0.000045
O42	O	0.261794	-0.145518	0.000045
C43	C	0.039242	-0.105716	0.000055
C44	C	0.020120	-0.061382	0.000065
C45	C	0.051411	-0.017560	0.000071
C46	C	-0.030294	-0.060869	0.000065
C47	C	-0.061585	-0.104691	0.000059
C48	C	-0.042461	-0.149026	0.000053
C49	C	0.007951	-0.149539	0.000049
C50	C	0.032287	0.026775	0.000077
C51	C	-0.018125	0.027284	0.000080
C52	C	-0.049416	-0.016538	0.000074
C53	C	0.574716	0.026515	0.000062
C54	C	0.574164	0.080170	0.000066
C55	C	0.658931	-0.057699	0.000060
C56	C	0.712586	-0.058252	0.000062
C57	C	0.566338	-0.150292	0.000039
C58	C	0.566891	-0.203947	0.000031
N59	N	0.570509	-0.061906	0.129298
C60	C	0.614867	0.418985	0.000045
C61	C	0.612816	0.620645	0.000038
O62	O	0.650037	0.651900	0.000021
N63	N	0.568481	0.639768	0.000034
C64	C	0.524656	0.608474	0.000028
O65	O	0.486899	0.629367	0.000019
C66	C	0.526707	0.406815	0.000031
C67	C	0.571045	0.387694	0.000041
C68	C	0.659202	0.399864	0.000054
C69	C	0.659714	0.349452	0.000059
C70	C	0.615892	0.318161	0.000054
C71	C	0.571557	0.337282	0.000045
C72	C	0.482882	0.375521	0.000022
C73	C	0.483399	0.325104	0.000021
C74	C	0.527737	0.305983	0.000031
C75	C	0.528247	0.255580	0.000045
N76	N	0.572583	0.236456	0.000050
C77	C	0.616405	0.267747	0.000054
C78	C	0.523582	0.714348	0.000027
C79	C	0.523069	0.764762	0.000027
C80	C	0.611230	0.776930	0.000036
C81	C	0.611742	0.726514	0.000040
C82	C	0.567917	0.695224	0.000031
C83	C	0.617477	0.161878	0.000064
C84	C	0.617986	0.111461	0.000071
C85	C	0.529825	0.099298	0.000059
C86	C	0.529316	0.149710	0.000055
C87	C	0.573147	0.180999	0.000056
O88	O	0.491047	0.224296	0.000057
O89	O	0.654156	0.246844	0.000053
C90	C	0.614355	0.469397	0.000041
C91	C	0.570021	0.488518	0.000032
C92	C	0.526198	0.457228	0.000027
C93	C	0.569508	0.538933	0.000032
C94	C	0.613330	0.570223	0.000036
C95	C	0.657665	0.551100	0.000041
C96	C	0.658177	0.500688	0.000045
C97	C	0.481863	0.476351	0.000023
C98	C	0.481355	0.526764	0.000019
C99	C	0.525177	0.558054	0.000023
N100	N	0.570549	-0.061867	-0.129196
C101	C	0.603640	-0.028781	0.473932
C102	C	0.603652	-0.028774	0.682810
O103	O	0.631801	-0.000613	0.709820
N104	N	0.570539	-0.061870	0.708925
C105	C	0.537419	-0.094969	0.682818
O106	O	0.509252	-0.123116	0.709824
C107	C	0.537406	-0.094974	0.473941
C108	C	0.570524	-0.061878	0.447829
C109	C	0.636755	0.004312	0.447819
C110	C	0.636754	0.004308	0.395603
C111	C	0.603637	-0.028789	0.369500
C112	C	0.570522	-0.061882	0.395612
C113	C	0.504284	-0.128070	0.447835
C114	C	0.504283	-0.128067	0.395613
C115	C	0.537401	-0.094972	0.369500
C116	C	0.537405	-0.094983	0.317293
N117	N	0.570517	-0.061887	0.291177
C118	C	0.603633	-0.028790	0.317281
C119	C	0.537429	-0.094965	0.792481
C120	C	0.537433	-0.094964	0.844700
C121	C	0.603665	-0.028768	0.844689
C122	C	0.603663	-0.028772	0.792469
C123	C	0.570542	-0.061868	0.766366
C124	C	0.603628	-0.028801	0.207623
C125	C	0.603625	-0.028809	0.155402
C126	C	0.537392	-0.095003	0.155418
C127	C	0.537396	-0.094997	0.207635
C128	C	0.570516	-0.061892	0.233735
O129	O	0.509266	-0.123126	0.290250
O130	O	0.631789	-0.000640	0.290266
C131	C	0.603642	-0.028777	0.526149
C132	C	0.570527	-0.061870	0.552261
C133	C	0.537410	-0.094968	0.526158
C134	C	0.570531	-0.061870	0.604480
C135	C	0.603647	-0.028773	0.630584
C136	C	0.636759	0.004324	0.604468
C137	C	0.636758	0.004320	0.552252
C138	C	0.504298	-0.128064	0.552273
C139	C	0.504303	-0.128058	0.604489
C140	C	0.537419	-0.094961	0.630593
H141	H	0.209009	0.060929	0.000089
N142	N	0.670572	0.038119	0.368926
N143	N	0.670569	0.038122	0.322302
H144	H	0.694453	0.062005	0.303464
N145	N	0.670578	0.038136	0.631144
N146	N	0.655459	0.068033	0.660282
H147	H	0.679339	0.091914	0.679124
N148	N	0.076818	-0.195332	0.000045
N149	N	0.078379	-0.224907	0.035010
H150	H	0.055812	-0.256529	0.035011
N151	N	0.314812	-0.153614	0.000036
N152	N	0.331899	-0.193192	0.000027
H153	H	0.309336	-0.224815	0.000025
H154	H	0.663722	0.031266	0.469068
N155	N	0.027487	-0.194825	0.000038
N156	N	0.054262	-0.204946	-0.034932
H157	H	0.068058	-0.236931	-0.034939
H158	H	0.412743	-0.145454	0.000021
N159	N	-0.275651	0.030861	0.000085
N160	N	-0.302423	0.040979	0.035059
H161	H	-0.316212	0.072967	0.035075
H162	H	0.653168	0.187348	0.000063
H163	H	0.654093	0.095896	0.000080
H164	H	-0.067947	-0.184708	0.000046
H165	H	0.057760	0.062462	0.000083
N166	N	0.477778	0.784290	0.000013
N167	N	0.467660	0.811061	-0.034961
H168	H	0.435672	0.824851	-0.034974
N169	N	0.470477	-0.161866	0.631168
N170	N	0.485582	-0.191767	0.660309
H171	H	0.461691	-0.215641	0.679151
H172	H	0.510457	-0.121917	0.771232
H173	H	0.510430	-0.121952	0.134157
H174	H	0.477330	-0.155015	0.531024
H175	H	-0.293777	-0.138273	0.000051
H176	H	0.695819	0.333889	0.000065
H177	H	0.694889	0.425336	0.000056
H178	H	0.494146	0.073812	0.000057
H179	H	0.693347	0.576585	0.000047
H180	H	0.487892	0.688875	0.000020
H181	H	0.663725	0.031269	0.530995
H182	H	0.630630	-0.001820	0.865951
N183	N	-0.037645	0.072582	0.000085
N184	N	-0.009695	0.111703	0.000090
H185	H	-0.023479	0.143695	0.000097
N186	N	-0.173757	0.029831	0.000079
N187	N	-0.190845	0.069409	0.000083
H188	H	-0.168281	0.101032	0.000089
N189	N	0.657027	0.706977	0.000051
N190	N	0.667144	0.680202	0.035021
H191	H	0.699128	0.666404	0.035028
H192	H	0.630630	-0.001822	0.771211
N193	N	-0.198338	-0.148389	0.000042
N194	N	-0.171561	-0.158508	-0.034927
H195	H	-0.157764	-0.190493	-0.034934
H196	H	0.510471	-0.121919	0.865958
H197	H	0.477310	-0.155018	0.374362
H198	H	0.646911	0.802415	0.000040
N199	N	0.470454	-0.161883	0.474492
N200	N	0.440891	-0.191428	0.451169
H201	H	0.416997	-0.215311	0.469994
H202	H	0.510433	-0.121951	0.228896
N203	N	0.438636	0.293135	0.000009
N204	N	0.429095	0.263644	-0.034960
H205	H	0.397482	0.241065	-0.034969
N206	N	0.113602	0.071052	0.000087
N207	N	0.141555	0.110171	0.000096
H208	H	0.127775	0.142164	0.000102
N209	N	0.436056	0.546283	0.000015
N210	N	0.396935	0.518334	0.000011
H211	H	0.364944	0.532118	0.000005
N212	N	0.437587	0.395036	0.000011
N213	N	0.398468	0.367083	0.000001
H214	H	0.366474	0.380864	-0.000008
H215	H	0.493213	0.165279	0.000061
N216	N	0.703472	0.481168	0.000057
N217	N	0.742592	0.509120	0.000062
H218	H	0.774585	0.495338	0.000070
N219	N	0.178706	-0.196370	0.000026
N220	N	0.150755	-0.235490	0.000021
H221	H	0.164536	-0.267483	0.000014
N222	N	0.339402	0.024615	0.000050
N223	N	0.367348	0.063739	0.000053
H224	H	0.353561	0.095729	0.000058
H225	H	0.630597	-0.001843	0.228868
N226	N	0.441310	0.023574	0.000064
N227	N	0.439755	0.053134	0.035045
H228	H	0.462335	0.084747	0.035064
H229	H	0.446177	0.450879	0.000018
H230	H	0.630595	-0.001859	0.134142
