data_functionalizedCrystal
_audit_creation_method	'MofGen! by Chris Wilmer'
_symmetry_space_group_name_H-M	'P1'
_symmetry_Int_Tables_number	1
_symmetry_cell_setting	triclinic
loop_
_symmetry_equiv_pos_as_xyz
  x,y,z
_cell_length_a	21.395362
_cell_length_b	19.805405
_cell_length_c	21.395355
_cell_angle_alpha	90.017223
_cell_angle_beta	90.043940
_cell_angle_gamma	90.042604
loop_
_atom_site_label
_atom_site_type_symbol
_atom_site_fract_x
_atom_site_fract_y
_atom_site_fract_z
Zn1	Zn	0.957877	-0.269255	0.354591
Zn2	Zn	1.457877	0.230745	0.854591
Zn3	Zn	0.957787	-0.382425	0.249816
Zn4	Zn	1.457787	0.117575	0.749816
Zn5	Zn	0.853092	-0.269286	0.249793
Zn6	Zn	1.353092	0.230714	0.749793
Zn7	Zn	0.853068	-0.382438	0.354521
Zn8	Zn	1.353068	0.117562	0.854521
O9	O	0.905456	-0.325851	0.302180
O10	O	1.405456	0.174149	0.802180
O11	O	1.045543	-0.284248	0.340732
O12	O	1.545543	0.215752	0.840732
O13	O	0.943871	-0.367424	0.162135
O14	O	1.443871	0.132576	0.662135
O15	O	0.867039	-0.174565	0.263714
O16	O	1.367039	0.325435	0.763714
O17	O	1.045476	-0.367393	0.263754
O18	O	1.545476	0.132607	0.763754
O19	O	0.944024	-0.174542	0.340709
O20	O	1.444024	0.325458	0.840709
O21	O	0.866952	-0.284302	0.162118
O22	O	1.366952	0.215698	0.662118
O23	O	0.765411	-0.284315	0.263646
O24	O	1.265411	0.215685	0.763646
O25	O	0.866999	-0.367417	0.442208
O26	O	1.366999	0.132583	0.942208
O27	O	0.765393	-0.367448	0.340589
O28	O	1.265393	0.132552	0.840589
O29	O	0.944002	-0.284261	0.442260
O30	O	1.444002	0.215739	0.942260
O31	O	0.943848	-0.477143	0.263686
O32	O	1.443848	0.022857	0.763686
O33	O	0.866912	-0.477153	0.340612
O34	O	1.366912	0.022847	0.840612
C35	C	0.742668	-0.325887	0.302107
C36	C	1.242668	0.174113	0.802107
C37	C	0.673027	-0.325918	0.302091
C38	C	1.173027	0.174082	0.802091
C39	C	0.640321	-0.369263	0.342096
C40	C	1.140321	0.130737	0.842096
C41	C	0.574886	-0.369246	0.342124
C42	C	1.074886	0.130754	0.842124
C43	C	0.542159	-0.325892	0.302136
C44	C	1.042159	0.174108	0.802136
C45	C	0.574872	-0.282539	0.262129
C46	C	1.074872	0.217461	0.762129
C47	C	0.640306	-0.282553	0.262106
C48	C	1.140306	0.217447	0.762106
C49	C	0.438434	-0.320440	0.245731
C50	C	0.938434	0.179560	0.745731
C51	C	0.373001	-0.320431	0.245752
C52	C	0.873001	0.179569	0.745752
C53	C	0.340338	-0.325848	0.302205
C54	C	0.840338	0.174152	0.802205
C55	C	0.373116	-0.331287	0.358639
C56	C	0.873116	0.168713	0.858639
C57	C	0.438550	-0.331301	0.358616
C58	C	0.938550	0.168699	0.858616
C59	C	0.471206	-0.325873	0.302156
C60	C	0.971206	0.174127	0.802156
C61	C	0.236680	-0.369177	0.342243
C62	C	0.736680	0.130823	0.842243
C63	C	0.171243	-0.369156	0.342272
C64	C	0.671243	0.130844	0.842272
C65	C	0.171231	-0.282452	0.262272
C66	C	0.671231	0.217548	0.762272
C67	C	0.236666	-0.282470	0.262248
C68	C	0.736666	0.217530	0.762248
C69	C	0.269387	-0.325836	0.302233
C70	C	0.769387	0.174164	0.802233
C71	C	0.905384	-0.501707	0.302157
C72	C	1.405384	-0.001707	0.802157
C73	C	0.905411	-0.576939	0.302169
C74	C	1.405411	-0.076939	0.802169
C75	C	0.945474	-0.612213	0.342292
C76	C	1.445474	-0.112213	0.842292
C77	C	0.945496	-0.682901	0.342303
C78	C	1.445496	-0.182901	0.842303
C79	C	0.905459	-0.718315	0.302188
C80	C	1.405459	-0.218315	0.802188
C81	C	0.865392	-0.683036	0.262064
C82	C	1.365392	-0.183036	0.762064
C83	C	0.865367	-0.612349	0.262056
C84	C	1.365367	-0.112349	0.762056
C85	C	0.865493	-0.968109	0.262096
C86	C	1.365493	-0.468109	0.762096
C87	C	0.865523	-1.038801	0.262106
C88	C	1.365523	-0.538801	0.762106
C89	C	0.945622	-1.038662	0.342343
C90	C	1.445622	-0.538662	0.842343
C91	C	0.945597	-0.967975	0.342335
C92	C	1.445597	-0.467975	0.842335
C93	C	0.905528	-0.932702	0.302213
C94	C	1.405528	-0.432702	0.802213
C95	C	0.905503	-0.856053	0.302202
C96	C	1.405503	-0.356053	0.802202
C97	C	0.905487	-0.794962	0.302196
C98	C	1.405487	-0.294962	0.802196
C99	C	1.068879	-0.325816	0.302253
C100	C	1.568879	0.174184	0.802253
C101	C	1.138520	-0.325800	0.302285
C102	C	1.638520	0.174200	0.802285
C103	C	0.905508	-0.325837	0.465604
C104	C	1.405508	0.174163	0.965604
C105	C	0.905530	-0.325831	0.535245
C106	C	1.405530	0.174169	1.035245
C107	C	0.905545	-0.149308	0.302217
C108	C	1.405545	0.350692	0.802217
C109	C	0.905582	-0.074076	0.302232
C110	C	1.405582	0.425924	0.802232
C111	C	0.905440	-0.325816	0.139393
C112	C	1.405440	0.174184	0.639393
C113	C	0.905539	-0.325631	0.069752
C114	C	1.405539	0.174369	0.569752
C115	C	0.945623	-0.282530	0.567986
C116	C	1.445623	0.217470	1.067986
C117	C	0.945623	-0.282501	0.633421
C118	C	1.445623	0.217499	1.133421
C119	C	0.905535	-0.325785	0.666113
C120	C	1.405535	0.174215	1.166113
C121	C	0.865434	-0.369089	0.633364
C122	C	1.365434	0.130911	1.133364
C123	C	0.865431	-0.369112	0.567930
C124	C	1.365431	0.130888	1.067930
C125	C	0.900563	-0.386731	0.769778
C126	C	1.400563	0.113269	1.269778
C127	C	0.900570	-0.386709	0.835211
C128	C	1.400570	0.113291	1.335211
C129	C	0.905539	-0.325714	0.867934
C130	C	1.405539	0.174286	1.367934
C131	C	0.910514	-0.264738	0.835216
C132	C	1.410514	0.235262	1.335216
C133	C	0.910512	-0.264762	0.769782
C134	C	1.410512	0.235238	1.269782
C135	C	0.905533	-0.325765	0.737066
C136	C	1.405533	0.174235	1.237066
C137	C	0.945633	-0.282378	0.971628
C138	C	1.445633	0.217622	1.471628
C139	C	0.945628	-0.282347	1.037064
C140	C	1.445628	0.217653	1.537064
C141	C	0.865443	-0.368941	1.037006
C142	C	1.365443	0.131059	1.537006
C143	C	0.865445	-0.368966	0.971571
C144	C	1.365445	0.131034	1.471571
C145	C	0.905543	-0.325685	0.938885
C146	C	1.405543	0.174315	1.438885
H147	H	0.263295	-0.247178	0.229669
H148	H	0.763295	0.252822	0.729669
O149	O	0.543111	-0.240332	0.223350
O150	O	1.043111	0.259668	0.723350
C151	C	0.559180	-0.172896	0.237137
C152	C	1.059180	0.327104	0.737137
H153	H	0.577226	-0.169560	0.287191
H154	H	1.077226	0.330440	0.787191
H155	H	0.516169	-0.139444	0.231809
H156	H	1.016169	0.360556	0.731809
H157	H	0.597139	-0.155156	0.203562
H158	H	1.097139	0.344844	0.703562
O159	O	0.139467	-0.240248	0.223494
O160	O	0.639467	0.259752	0.723494
C161	C	0.155532	-0.172810	0.237272
C162	C	0.655532	0.327190	0.737272
H163	H	0.173584	-0.169466	0.287323
H164	H	0.673584	0.330534	0.787323
H165	H	0.112516	-0.139363	0.231948
H166	H	0.612516	0.360637	0.731948
H167	H	0.193484	-0.155068	0.203690
H168	H	0.693484	0.344932	0.703690
H169	H	0.978274	-0.247287	0.541378
H170	H	1.478274	0.252713	1.041378
H171	H	0.914561	-0.215070	0.861857
H172	H	1.414561	0.284930	1.361857
O173	O	0.984450	-1.072960	0.381391
O174	O	1.484450	-0.572960	0.881391
C175	C	0.948772	-1.113883	0.421810
C176	C	1.448772	-0.613883	0.921810
H177	H	0.899417	-1.092636	0.425615
H178	H	1.399417	-0.592636	0.925615
H179	H	0.971410	-1.114635	0.470056
H180	H	1.471410	-0.614635	0.970056
H181	H	0.946640	-1.167467	0.402442
H182	H	1.446640	-0.667467	0.902442
H183	H	0.346524	-0.335697	0.404609
H184	H	0.846524	0.164303	0.904609
H185	H	0.832917	-1.067633	0.229439
H186	H	1.332917	-0.567633	0.729439
H187	H	0.346318	-0.316007	0.199800
H188	H	0.846318	0.183993	0.699800
O189	O	0.984632	-0.240418	0.665138
O190	O	1.484632	0.259582	1.165138
C191	C	1.020010	-0.202209	0.622258
C192	C	1.520010	0.297791	1.122258
H193	H	1.022162	-0.229945	0.575614
H194	H	1.522162	0.270055	1.075614
H195	H	1.069381	-0.194979	0.641201
H196	H	1.569381	0.305021	1.141201
H197	H	0.997098	-0.150807	0.615284
H198	H	1.497098	0.349193	1.115284
O199	O	0.895807	-0.445965	0.737949
O200	O	1.395807	0.054035	1.237949
C201	C	0.949135	-0.454737	0.700143
C202	C	1.449135	0.045263	1.200143
H203	H	0.971342	-0.403492	0.690319
H204	H	1.471342	0.096508	1.190319
H205	H	0.934950	-0.479454	0.654138
H206	H	1.434950	0.020546	1.154138
H207	H	0.984235	-0.488359	0.725399
H208	H	1.484235	0.011641	1.225399
H209	H	0.465022	-0.316026	0.199756
H210	H	0.965022	0.183974	0.699756
H211	H	0.832869	-0.939395	0.229426
H212	H	1.332869	-0.439395	0.729426
O213	O	0.672052	-0.240522	0.223151
O214	O	1.172052	0.259478	0.723151
C215	C	0.655966	-0.255199	0.160687
C216	C	1.155966	0.244801	0.660687
H217	H	0.637924	-0.309261	0.157442
H218	H	1.137924	0.190739	0.657442
H219	H	0.698968	-0.249332	0.129727
H220	H	1.198968	0.250668	0.629727
H221	H	0.618000	-0.218874	0.144383
H222	H	1.118000	0.281126	0.644383
H223	H	0.978201	-0.939143	0.374998
H224	H	1.478201	-0.439143	0.874998
H225	H	0.832791	-0.711875	0.229404
H226	H	1.332791	-0.211875	0.729404
H227	H	0.978281	-0.247132	0.945014
H228	H	1.478281	0.252868	1.445014
O229	O	0.984385	-0.577920	0.381320
O230	O	1.484385	-0.077920	0.881320
C231	C	1.019759	-0.624216	0.416727
C232	C	1.519759	-0.124216	0.916727
H233	H	0.994112	-0.674634	0.418866
H234	H	1.494112	-0.174634	0.918866
H235	H	1.026407	-0.603763	0.466099
H236	H	1.526407	-0.103763	0.966099
H237	H	1.067360	-0.631685	0.393846
H238	H	1.567360	-0.131685	0.893846
H239	H	0.978276	-0.247083	1.063721
H240	H	1.478276	0.252917	1.563721
O241	O	0.984329	-0.717191	0.381343
O242	O	1.484329	-0.217191	0.881343
C243	C	0.948663	-0.758117	0.421769
C244	C	1.448663	-0.258117	0.921769
H245	H	0.899305	-0.736879	0.425580
H246	H	1.399305	-0.236879	0.925580
H247	H	0.971307	-0.758860	0.470013
H248	H	1.471307	-0.258860	0.970013
H249	H	0.946537	-0.811703	0.402407
H250	H	1.446537	-0.311703	0.902407
H251	H	0.832743	-0.583629	0.229385
H252	H	1.332743	-0.083629	0.729385
O253	O	0.915315	-0.205472	0.738096
O254	O	1.415315	0.294528	1.238096
C255	C	0.919719	-0.151628	0.781002
C256	C	1.419719	0.348372	1.281002
H257	H	0.898661	-0.167638	0.827633
H258	H	1.398661	0.332362	1.327633
H259	H	0.893127	-0.106150	0.762073
H260	H	1.393127	0.393850	1.262073
H261	H	0.970927	-0.137557	0.787995
H262	H	1.470927	0.362443	1.287995
O263	O	0.826565	-0.410972	1.068852
O264	O	1.326565	0.089028	1.568852
C265	C	0.835153	-0.401656	1.133627
C266	C	1.335153	0.098344	1.633627
H267	H	0.883514	-0.379467	1.142599
H268	H	1.383514	0.120533	1.642599
H269	H	0.830886	-0.452349	1.158492
H270	H	1.330886	0.047651	1.658492
H271	H	0.798003	-0.365620	1.152171
H272	H	1.298003	0.134380	1.652171
H273	H	0.832800	-0.404230	0.944913
H274	H	1.332800	0.095770	1.444913
O275	O	0.895705	-0.445995	0.866894
O276	O	1.395705	0.054005	1.366894
C277	C	0.891324	-0.499836	0.823983
C278	C	1.391324	0.000164	1.323983
H279	H	0.873175	-0.480123	0.777326
H280	H	1.373175	0.019877	1.277326
H281	H	0.857780	-0.539642	0.842866
H282	H	1.357780	-0.039642	1.342866
H283	H	0.939473	-0.523282	0.817058
H284	H	1.439473	-0.023282	1.317058
O285	O	0.826524	-0.411231	0.665049
O286	O	1.326524	0.088769	1.165049
C287	C	0.840192	-0.478694	0.649080
C288	C	1.340192	0.021306	1.149080
H289	H	0.864274	-0.480107	0.601588
H290	H	1.364274	0.019893	1.101588
H291	H	0.794958	-0.509054	0.646809
H292	H	1.294958	-0.009054	1.146809
H293	H	0.872395	-0.501473	0.685930
H294	H	1.372395	-0.001473	1.185930
O295	O	0.826419	-0.411084	0.536095
O296	O	1.326419	0.088916	1.036095
C297	C	0.785981	-0.372575	0.498199
C298	C	1.285981	0.127425	0.998199
H299	H	0.782137	-0.319259	0.517911
H300	H	1.282137	0.180741	1.017911
H301	H	0.737751	-0.397067	0.497420
H302	H	1.237751	0.102933	0.997420
H303	H	0.805356	-0.370259	0.448623
H304	H	1.305356	0.129741	0.948623
O305	O	0.672172	-0.411287	0.380974
O306	O	1.172172	0.088713	0.880974
C307	C	0.710083	-0.372820	0.421505
C308	C	1.210083	0.127180	0.921505
H309	H	0.719909	-0.321495	0.399487
H310	H	1.219909	0.178505	0.899487
H311	H	0.756081	-0.400413	0.429847
H312	H	1.256081	0.099587	0.929847
H313	H	0.684918	-0.365450	0.467954
H314	H	1.184918	0.134550	0.967954
O315	O	0.543203	-0.411414	0.381009
O316	O	1.043203	0.088586	0.881009
C317	C	0.586115	-0.449675	0.416310
C318	C	1.086115	0.050325	0.916310
H319	H	0.632728	-0.451992	0.390628
H320	H	1.132728	0.048008	0.890628
H321	H	0.567166	-0.503008	0.422914
H322	H	1.067166	-0.003008	0.922914
H323	H	0.593149	-0.424964	0.463933
H324	H	1.093149	0.075036	0.963933
O325	O	0.139444	-0.411166	0.381203
O326	O	0.639444	0.088834	0.881203
C327	C	0.101663	-0.372693	0.421742
C328	C	0.601663	0.127307	0.921742
H329	H	0.121434	-0.319395	0.425698
H330	H	0.621434	0.180605	0.925698
H331	H	0.100956	-0.397255	0.469918
H332	H	0.600956	0.102745	0.969918
H333	H	0.052052	-0.370317	0.402394
H334	H	0.552052	0.129683	0.902394
H335	H	0.263322	-0.404485	0.374805
H336	H	0.763322	0.095515	0.874805
O337	O	0.470295	-0.336553	0.413490
O338	O	0.970295	0.163447	0.913490
C339	C	0.427441	-0.341349	0.463324
C340	C	0.927441	0.158651	0.963324
H341	H	0.380798	-0.318575	0.448547
H342	H	0.880798	0.181425	0.948547
H343	H	0.446421	-0.312670	0.505475
H344	H	0.946421	0.187330	1.005475
H345	H	0.420452	-0.396680	0.476249
H346	H	0.920452	0.103320	0.976249
