data_functionalizedCrystal
_audit_creation_method	'MofGen! by Chris Wilmer'
_symmetry_space_group_name_H-M	'P1'
_symmetry_Int_Tables_number	1
_symmetry_cell_setting	triclinic
loop_
_symmetry_equiv_pos_as_xyz
  x,y,z
_cell_length_a	27.732064
_cell_length_b	27.732048
_cell_length_c	10.268362
_cell_angle_alpha	89.989776
_cell_angle_beta	90.003047
_cell_angle_gamma	82.646040
loop_
_atom_site_label
_atom_site_type_symbol
_atom_site_fract_x
_atom_site_fract_y
_atom_site_fract_z
O1	O	0.640922	0.057556	-0.108082
O2	O	0.890922	0.307556	0.141918
O3	O	1.140922	0.557556	0.391918
O4	O	1.390922	0.807556	0.641918
O5	O	0.500130	0.066293	-0.108137
O6	O	0.750130	0.316293	0.141863
O7	O	1.000130	0.566293	0.391863
O8	O	1.250130	0.816293	0.641863
O9	O	0.574898	-0.008472	-0.108083
O10	O	0.824898	0.241528	0.141917
O11	O	1.074898	0.491528	0.391917
O12	O	1.324898	0.741528	0.641917
O13	O	0.566153	0.132321	-0.108136
O14	O	0.816153	0.382321	0.141864
O15	O	1.066153	0.632321	0.391864
O16	O	1.316153	0.882321	0.641864
O17	O	0.574892	-0.008475	0.108518
O18	O	0.824892	0.241525	0.358518
O19	O	1.074892	0.491525	0.608518
O20	O	1.324892	0.741525	0.858518
O21	O	0.500123	0.066290	0.108463
O22	O	0.750123	0.316290	0.358463
O23	O	1.000123	0.566290	0.608463
O24	O	1.250123	0.816290	0.858463
O25	O	0.640915	0.057553	0.108519
O26	O	0.890915	0.307553	0.358519
O27	O	1.140915	0.557553	0.608519
O28	O	1.390915	0.807553	0.858519
Cu29	Cu	0.570519	0.061921	0.128268
Cu30	Cu	0.820519	0.311921	0.378268
Cu31	Cu	1.070519	0.561921	0.628268
Cu32	Cu	1.320519	0.811921	0.878268
Cu33	Cu	0.570526	0.061924	-0.127887
Cu34	Cu	0.820526	0.311924	0.122113
Cu35	Cu	1.070526	0.561924	0.372113
Cu36	Cu	1.320526	0.811924	0.622113
O37	O	0.566147	0.132318	0.108465
O38	O	0.816147	0.382318	0.358465
O39	O	1.066147	0.632318	0.608465
O40	O	1.316147	0.882318	0.858465
C41	C	0.482120	0.066106	0.000156
C42	C	0.732120	0.316106	0.250156
C43	C	0.982120	0.566106	0.500156
C44	C	1.232120	0.816106	0.750156
C45	C	0.428465	0.065551	0.000136
C46	C	0.678465	0.315551	0.250136
C47	C	0.928465	0.565551	0.500136
C48	C	1.178465	0.815551	0.750136
C49	C	0.051392	0.017583	0.000228
C50	C	0.301392	0.267583	0.250228
C51	C	0.551392	0.517583	0.500228
C52	C	0.801392	0.767583	0.750228
C53	C	0.253053	0.019630	0.000194
C54	C	0.503053	0.269630	0.250194
C55	C	0.753053	0.519630	0.500194
C56	C	1.003053	0.769630	0.750194
O57	O	0.284305	-0.017591	0.000256
O58	O	0.534305	0.232409	0.250256
O59	O	0.784305	0.482409	0.500256
O60	O	1.034305	0.732409	0.750256
N61	N	0.272180	0.063964	0.000171
N62	N	0.522180	0.313964	0.250171
N63	N	0.772180	0.563964	0.500171
N64	N	1.022180	0.813964	0.750171
C65	C	0.240889	0.107790	0.000166
C66	C	0.490889	0.357790	0.250166
C67	C	0.740889	0.607790	0.500166
C68	C	0.990889	0.857790	0.750166
O69	O	0.261785	0.145546	0.000159
O70	O	0.511785	0.395546	0.250159
O71	O	0.761785	0.645546	0.500159
O72	O	1.011785	0.895546	0.750159
C73	C	0.039230	0.105743	0.000210
C74	C	0.289230	0.355743	0.250210
C75	C	0.539230	0.605743	0.500210
C76	C	0.789230	0.855743	0.750210
C77	C	0.020105	0.061406	0.000219
C78	C	0.270105	0.311406	0.250219
C79	C	0.520105	0.561406	0.500219
C80	C	0.770105	0.811406	0.750219
C81	C	0.032267	-0.026750	0.000239
C82	C	0.282267	0.223250	0.250239
C83	C	0.532267	0.473250	0.500239
C84	C	0.782267	0.723250	0.750239
C85	C	-0.018145	-0.027261	0.000241
C86	C	0.231855	0.222739	0.250241
C87	C	0.481855	0.472739	0.500241
C88	C	0.731855	0.722739	0.750241
C89	C	-0.049432	0.016561	0.000232
C90	C	0.200568	0.266561	0.250232
C91	C	0.450568	0.516561	0.500232
C92	C	0.700568	0.766561	0.750232
C93	C	-0.030307	0.060895	0.000221
C94	C	0.219693	0.310895	0.250221
C95	C	0.469693	0.560895	0.500221
C96	C	0.719693	0.810895	0.750221
C97	C	0.007940	0.149568	0.000214
C98	C	0.257940	0.399568	0.250214
C99	C	0.507940	0.649568	0.500214
C100	C	0.757940	0.899568	0.750214
C101	C	-0.042478	0.149053	0.000228
C102	C	0.207522	0.399053	0.250228
C103	C	0.457522	0.649053	0.500228
C104	C	0.707522	0.899053	0.750228
C105	C	-0.061602	0.104716	0.000238
C106	C	0.188398	0.354716	0.250238
C107	C	0.438398	0.604716	0.500238
C108	C	0.688398	0.854716	0.750238
C109	C	-0.112006	0.104206	0.000213
C110	C	0.137994	0.354206	0.250213
C111	C	0.387994	0.604206	0.500213
C112	C	0.637994	0.854206	0.750213
N113	N	-0.131134	0.059872	0.000236
N114	N	0.118866	0.309872	0.250236
N115	N	0.368866	0.559872	0.500236
N116	N	0.618866	0.809872	0.750236
C117	C	-0.099846	0.016049	0.000245
C118	C	0.150154	0.266049	0.250245
C119	C	0.400154	0.516049	0.500245
C120	C	0.650154	0.766049	0.750245
C121	C	0.346763	0.108861	0.000140
C122	C	0.596763	0.358861	0.250140
C123	C	0.846763	0.608861	0.500140
C124	C	1.096763	0.858861	0.750140
C125	C	0.397178	0.109373	0.000127
C126	C	0.647178	0.359373	0.250127
C127	C	0.897178	0.609373	0.500127
C128	C	1.147178	0.859373	0.750127
C129	C	0.409338	0.021213	0.000157
C130	C	0.659338	0.271213	0.250157
C131	C	0.909338	0.521213	0.500157
C132	C	1.159338	0.771213	0.750157
C133	C	0.358923	0.020701	0.000161
C134	C	0.608923	0.270701	0.250161
C135	C	0.858923	0.520701	0.500161
C136	C	1.108923	0.770701	0.750161
C137	C	0.327636	0.064527	0.000163
C138	C	0.577636	0.314527	0.250163
C139	C	0.827636	0.564527	0.500163
C140	C	1.077636	0.814527	0.750163
C141	C	-0.205716	0.014979	0.000247
C142	C	0.044284	0.264979	0.250247
C143	C	0.294284	0.514979	0.500247
C144	C	0.544284	0.764979	0.750247
C145	C	-0.256133	0.014472	0.000243
C146	C	-0.006133	0.264472	0.250243
C147	C	0.243867	0.514472	0.500243
C148	C	0.493867	0.764472	0.750243
C149	C	-0.268289	0.102632	0.000220
C150	C	-0.018289	0.352632	0.250220
C151	C	0.231711	0.602632	0.500220
C152	C	0.481711	0.852632	0.750220
C153	C	-0.217876	0.103140	0.000217
C154	C	0.032124	0.353140	0.250217
C155	C	0.282124	0.603140	0.500217
C156	C	0.532124	0.853140	0.750217
C157	C	-0.186590	0.059309	0.000235
C158	C	0.063410	0.309309	0.250235
C159	C	0.313410	0.559309	0.500235
C160	C	0.563410	0.809309	0.750235
O161	O	-0.143287	0.141407	0.000165
O162	O	0.106713	0.391407	0.250165
O163	O	0.356713	0.641407	0.500165
O164	O	0.606713	0.891407	0.750165
O165	O	-0.120752	-0.021701	0.000280
O166	O	0.129248	0.228299	0.250280
O167	O	0.379248	0.478299	0.500280
O168	O	0.629248	0.728299	0.750280
C169	C	0.101805	0.018094	0.000227
C170	C	0.351805	0.268094	0.250227
C171	C	0.601805	0.518094	0.500227
C172	C	0.851805	0.768094	0.750227
C173	C	0.120930	0.062428	0.000216
C174	C	0.370930	0.312428	0.250216
C175	C	0.620930	0.562428	0.500216
C176	C	0.870930	0.812428	0.750216
C177	C	0.089642	0.106250	0.000207
C178	C	0.339642	0.356250	0.250207
C179	C	0.589642	0.606250	0.500207
C180	C	0.839642	0.856250	0.750207
C181	C	0.171344	0.062940	0.000203
C182	C	0.421344	0.312940	0.250203
C183	C	0.671344	0.562940	0.500203
C184	C	0.921344	0.812940	0.750203
C185	C	0.202631	0.019117	0.000212
C186	C	0.452631	0.269117	0.250212
C187	C	0.702631	0.519117	0.500212
C188	C	0.952631	0.769117	0.750212
C189	C	0.183504	-0.025217	0.000234
C190	C	0.433504	0.224783	0.250234
C191	C	0.683504	0.474783	0.500234
C192	C	0.933504	0.724783	0.750234
C193	C	0.133092	-0.025728	0.000236
C194	C	0.383092	0.224272	0.250236
C195	C	0.633092	0.474272	0.500236
C196	C	0.883092	0.724272	0.750236
C197	C	0.108770	0.150585	0.000184
C198	C	0.358770	0.400585	0.250184
C199	C	0.608770	0.650585	0.500184
C200	C	0.858770	0.900585	0.750184
C201	C	0.159183	0.151092	0.000181
C202	C	0.409183	0.401092	0.250181
C203	C	0.659183	0.651092	0.500181
C204	C	0.909183	0.901092	0.750181
C205	C	0.190470	0.107270	0.000191
C206	C	0.440470	0.357270	0.250191
C207	C	0.690470	0.607270	0.500191
C208	C	0.940470	0.857270	0.750191
C209	C	0.574712	-0.026481	0.000221
C210	C	0.824712	0.223519	0.250221
C211	C	1.074712	0.473519	0.500221
C212	C	1.324712	0.723519	0.750221
C213	C	0.574159	-0.080136	0.000231
C214	C	0.824159	0.169864	0.250231
C215	C	1.074159	0.419864	0.500231
C216	C	1.324159	0.669864	0.750231
C217	C	0.614862	-0.418948	0.000181
C218	C	0.864862	-0.168948	0.250181
C219	C	1.114862	0.081052	0.500181
C220	C	1.364862	0.331052	0.750181
C221	C	0.612811	-0.620608	0.000162
C222	C	0.862811	-0.370608	0.250162
C223	C	1.112811	-0.120608	0.500162
C224	C	1.362811	0.129392	0.750162
O225	O	0.650032	-0.651862	0.000119
O226	O	0.900032	-0.401862	0.250119
O227	O	1.150032	-0.151862	0.500119
O228	O	1.400032	0.098138	0.750119
N229	N	0.568476	-0.639735	0.000145
N230	N	0.818476	-0.389735	0.250145
N231	N	1.068476	-0.139735	0.500145
N232	N	1.318476	0.110265	0.750145
C233	C	0.524651	-0.608442	0.000125
C234	C	0.774651	-0.358442	0.250125
C235	C	1.024651	-0.108442	0.500125
C236	C	1.274651	0.141558	0.750125
O237	O	0.486895	-0.629338	0.000098
O238	O	0.736895	-0.379338	0.250098
O239	O	0.986895	-0.129338	0.500098
O240	O	1.236895	0.120662	0.750098
C241	C	0.526703	-0.406784	0.000135
C242	C	0.776703	-0.156784	0.250135
C243	C	1.026703	0.093216	0.500135
C244	C	1.276703	0.343216	0.750135
C245	C	0.571040	-0.387660	0.000164
C246	C	0.821040	-0.137660	0.250164
C247	C	1.071040	0.112340	0.500164
C248	C	1.321040	0.362340	0.750164
C249	C	0.659196	-0.399824	0.000209
C250	C	0.909196	-0.149824	0.250209
C251	C	1.159196	0.100176	0.500209
C252	C	1.409196	0.350176	0.750209
C253	C	0.659709	-0.349412	0.000220
C254	C	0.909709	-0.099412	0.250220
C255	C	1.159709	0.150588	0.500220
C256	C	1.409709	0.400588	0.750220
C257	C	0.615887	-0.318124	0.000204
C258	C	0.865887	-0.068124	0.250204
C259	C	1.115887	0.181876	0.500204
C260	C	1.365887	0.431876	0.750204
C261	C	0.571553	-0.337248	0.000176
C262	C	0.821553	-0.087248	0.250176
C263	C	1.071553	0.162752	0.500176
C264	C	1.321553	0.412752	0.750176
C265	C	0.482878	-0.375493	0.000105
C266	C	0.732878	-0.125493	0.250105
C267	C	0.982878	0.124507	0.500105
C268	C	1.232878	0.374507	0.750105
C269	C	0.483395	-0.325075	0.000105
C270	C	0.733395	-0.075075	0.250105
C271	C	0.983395	0.174925	0.500105
C272	C	1.233395	0.424925	0.750105
C273	C	0.527733	-0.305952	0.000134
C274	C	0.777733	-0.055952	0.250134
C275	C	1.027733	0.194048	0.500134
C276	C	1.277733	0.444048	0.750134
C277	C	0.528243	-0.255548	0.000172
C278	C	0.778243	-0.005548	0.250172
C279	C	1.028243	0.244452	0.500172
C280	C	1.278243	0.494452	0.750172
N281	N	0.572578	-0.236422	0.000188
N282	N	0.822578	0.013578	0.250188
N283	N	1.072578	0.263578	0.500188
N284	N	1.322578	0.513578	0.750188
C285	C	0.616400	-0.267710	0.000204
C286	C	0.866400	-0.017710	0.250204
C287	C	1.116400	0.232290	0.500204
C288	C	1.366400	0.482290	0.750204
C289	C	0.523577	-0.714317	0.000123
C290	C	0.773577	-0.464317	0.250123
C291	C	1.023577	-0.214317	0.500123
C292	C	1.273577	0.035683	0.750123
C293	C	0.523064	-0.764731	0.000123
C294	C	0.773064	-0.514731	0.250123
C295	C	1.023064	-0.264731	0.500123
C296	C	1.273064	-0.014731	0.750123
C297	C	0.611225	-0.776893	0.000157
C298	C	0.861225	-0.526893	0.250157
C299	C	1.111225	-0.276893	0.500157
C300	C	1.361225	-0.026893	0.750157
C301	C	0.611737	-0.726478	0.000166
C302	C	0.861737	-0.476478	0.250166
C303	C	1.111737	-0.226478	0.500166
C304	C	1.361737	0.023522	0.750166
C305	C	0.567912	-0.695190	0.000139
C306	C	0.817912	-0.445190	0.250139
C307	C	1.067912	-0.195190	0.500139
C308	C	1.317912	0.054810	0.750139
C309	C	0.617472	-0.161841	0.000230
C310	C	0.867472	0.088159	0.250230
C311	C	1.117472	0.338159	0.500230
C312	C	1.367472	0.588159	0.750230
C313	C	0.617981	-0.111424	0.000247
C314	C	0.867981	0.138576	0.250247
C315	C	1.117981	0.388576	0.500247
C316	C	1.367981	0.638576	0.750247
C317	C	0.529821	-0.099266	0.000207
C318	C	0.779821	0.150734	0.250207
C319	C	1.029821	0.400734	0.500207
C320	C	1.279821	0.650734	0.750207
C321	C	0.529312	-0.149679	0.000196
C322	C	0.779312	0.100321	0.250196
C323	C	1.029312	0.350321	0.500196
C324	C	1.279312	0.600321	0.750196
C325	C	0.573142	-0.180965	0.000204
C326	C	0.823142	0.069035	0.250204
C327	C	1.073142	0.319035	0.500204
C328	C	1.323142	0.569035	0.750204
O329	O	0.491043	-0.224267	0.000199
O330	O	0.741043	0.025733	0.250199
O331	O	0.991043	0.275733	0.500199
O332	O	1.241043	0.525733	0.750199
O333	O	0.654151	-0.246805	0.000203
O334	O	0.904151	0.003195	0.250203
O335	O	1.154151	0.253195	0.500203
O336	O	1.404151	0.503195	0.750203
C337	C	0.614350	-0.469360	0.000169
C338	C	0.864350	-0.219360	0.250169
C339	C	1.114350	0.030640	0.500169
C340	C	1.364350	0.280640	0.750169
C341	C	0.570016	-0.488484	0.000141
C342	C	0.820016	-0.238484	0.250141
C343	C	1.070016	0.011516	0.500141
C344	C	1.320016	0.261516	0.750141
C345	C	0.526194	-0.457196	0.000124
C346	C	0.776194	-0.207196	0.250124
C347	C	1.026194	0.042804	0.500124
C348	C	1.276194	0.292804	0.750124
C349	C	0.569503	-0.538899	0.000141
C350	C	0.819503	-0.288899	0.250141
C351	C	1.069503	-0.038899	0.500141
C352	C	1.319503	0.211101	0.750141
C353	C	0.613325	-0.570187	0.000157
C354	C	0.863325	-0.320187	0.250157
C355	C	1.113325	-0.070187	0.500157
C356	C	1.363325	0.179813	0.750157
C357	C	0.657660	-0.551060	0.000173
C358	C	0.907660	-0.301060	0.250173
C359	C	1.157660	-0.051060	0.500173
C360	C	1.407660	0.198940	0.750173
C361	C	0.658172	-0.500648	0.000185
C362	C	0.908172	-0.250648	0.250185
C363	C	1.158172	-0.000648	0.500185
C364	C	1.408172	0.249352	0.750185
C365	C	0.481859	-0.476323	0.000108
C366	C	0.731859	-0.226323	0.250108
C367	C	0.981859	0.023677	0.500108
C368	C	1.231859	0.273677	0.750108
C369	C	0.481351	-0.526735	0.000098
C370	C	0.731351	-0.276735	0.250098
C371	C	0.981351	-0.026735	0.500098
C372	C	1.231351	0.223265	0.750098
C373	C	0.525172	-0.558023	0.000114
C374	C	0.775172	-0.308023	0.250114
C375	C	1.025172	-0.058023	0.500114
C376	C	1.275172	0.191977	0.750114
C377	C	0.658925	0.057739	0.000222
C378	C	0.908925	0.307739	0.250222
C379	C	1.158925	0.557739	0.500222
C380	C	1.408925	0.807739	0.750222
C381	C	0.712580	0.058295	0.000234
C382	C	0.962580	0.308295	0.250234
C383	C	1.212580	0.558295	0.500234
C384	C	1.462580	0.808295	0.750234
C385	C	0.566333	0.150326	0.000158
C386	C	0.816333	0.400326	0.250158
C387	C	1.066333	0.650326	0.500158
C388	C	1.316333	0.900326	0.750158
C389	C	0.566886	0.203981	0.000139
C390	C	0.816886	0.453981	0.250139
C391	C	1.066886	0.703981	0.500139
C392	C	1.316886	0.953981	0.750139
N393	N	0.570517	0.061918	0.308434
N394	N	0.820517	0.311918	0.558434
N395	N	1.070517	0.561918	0.808434
N396	N	1.320517	0.811918	1.058434
N397	N	0.570532	0.061923	-0.308053
N398	N	0.820532	0.311923	-0.058053
N399	N	1.070532	0.561923	0.191947
N400	N	1.320532	0.811923	0.441947
C401	C	0.570524	0.061923	0.574105
C402	C	0.820524	0.311923	0.824105
C403	C	1.070524	0.561923	1.074105
C404	C	1.320524	0.811923	1.324105
C405	C	0.570518	0.061922	0.426267
C406	C	0.820518	0.311922	0.676267
C407	C	1.070518	0.561922	0.926267
C408	C	1.320518	0.811922	1.176267
H409	H	0.117526	-0.061832	0.000244
H410	H	0.367526	0.188168	0.250244
H411	H	0.617526	0.438168	0.500244
H412	H	0.867526	0.688168	0.750244
H413	H	0.646906	-0.802377	0.000170
H414	H	0.896906	-0.552377	0.250170
H415	H	1.146906	-0.302377	0.500170
H416	H	1.396906	-0.052377	0.750170
H417	H	-0.202304	0.139243	0.000208
H418	H	0.047696	0.389243	0.250208
H419	H	0.297696	0.639243	0.500208
H420	H	0.547696	0.889243	0.750208
Cl421	Cl	0.421214	0.165113	0.000088
Cl422	Cl	0.671214	0.415113	0.250088
Cl423	Cl	0.921214	0.665113	0.500088
Cl424	Cl	1.171214	0.915113	0.750088
Cl425	Cl	0.467323	-0.788765	0.000111
Cl426	Cl	0.717323	-0.538765	0.250111
Cl427	Cl	0.967323	-0.288765	0.500111
Cl428	Cl	1.217323	-0.038765	0.750111
Cl429	Cl	0.468477	-0.674990	0.000090
Cl430	Cl	0.718477	-0.424990	0.250090
Cl431	Cl	0.968477	-0.174990	0.500090
Cl432	Cl	1.218477	0.075010	0.750090
Cl433	Cl	0.427136	-0.399521	0.000060
Cl434	Cl	0.677136	-0.149521	0.250060
Cl435	Cl	0.927136	0.100479	0.500060
Cl436	Cl	1.177136	0.350479	0.750060
Cl437	Cl	0.222846	-0.080307	0.000242
Cl438	Cl	0.472846	0.169693	0.250242
Cl439	Cl	0.722846	0.419693	0.500242
Cl440	Cl	0.972846	0.669693	0.750242
H441	H	0.447706	-0.299603	0.000081
H442	H	0.697706	-0.049603	0.250081
H443	H	0.947706	0.200397	0.500081
H444	H	1.197706	0.450397	0.750081
Cl445	Cl	0.307438	0.163962	0.000131
Cl446	Cl	0.557438	0.413962	0.250131
Cl447	Cl	0.807438	0.663962	0.500131
Cl448	Cl	1.057438	0.913962	0.750131
H449	H	0.023502	0.185672	0.000200
H450	H	0.273502	0.435672	0.250200
H451	H	0.523502	0.685672	0.500200
H452	H	0.773502	0.935672	0.750200
H453	H	0.434821	-0.014469	0.000160
H454	H	0.684821	0.235531	0.250160
H455	H	0.934821	0.485531	0.500160
H456	H	1.184821	0.735531	0.750160
H457	H	-0.271701	-0.021634	0.000247
H458	H	-0.021701	0.228366	0.250247
H459	H	0.228299	0.478366	0.500247
H460	H	0.478299	0.728366	0.750247
Cl461	Cl	0.071592	-0.081849	0.000252
Cl462	Cl	0.321592	0.168151	0.250252
Cl463	Cl	0.571592	0.418151	0.500252
Cl464	Cl	0.821592	0.668151	0.750252
Cl465	Cl	0.473573	-0.173720	0.000184
Cl466	Cl	0.723573	0.076280	0.250184
Cl467	Cl	0.973573	0.326280	0.500184
Cl468	Cl	1.223573	0.576280	0.750184
H469	H	0.694276	-0.485083	0.000208
H470	H	0.944276	-0.235083	0.250208
H471	H	1.194276	0.014917	0.500208
H472	H	1.444276	0.264917	0.750208
H473	H	-0.293772	0.138311	0.000206
H474	H	-0.043772	0.388311	0.250206
H475	H	0.206228	0.638311	0.500206
H476	H	0.456228	0.888311	0.750206
Cl477	Cl	0.069444	0.205682	0.000166
Cl478	Cl	0.319444	0.455682	0.250166
Cl479	Cl	0.569444	0.705682	0.500166
Cl480	Cl	0.819444	0.955682	0.750166
Cl481	Cl	0.474733	-0.059923	0.000184
Cl482	Cl	0.724733	0.190077	0.250184
Cl483	Cl	0.974733	0.440077	0.500184
Cl484	Cl	1.224733	0.690077	0.750184
Cl485	Cl	0.712749	-0.590404	0.000199
Cl486	Cl	0.962749	-0.340404	0.250199
Cl487	Cl	1.212749	-0.090404	0.500199
Cl488	Cl	1.462749	0.159596	0.750199
Cl489	Cl	0.183218	0.206836	0.000161
Cl490	Cl	0.433218	0.456836	0.250161
Cl491	Cl	0.683218	0.706836	0.500161
Cl492	Cl	0.933218	0.956836	0.750161
Cl493	Cl	0.425606	-0.550769	0.000067
Cl494	Cl	0.675606	-0.300769	0.250067
Cl495	Cl	0.925606	-0.050769	0.500067
Cl496	Cl	1.175606	0.199231	0.750067
Cl497	Cl	0.673724	-0.087387	0.000282
Cl498	Cl	0.923724	0.162613	0.250282
Cl499	Cl	1.173724	0.412613	0.500282
Cl500	Cl	1.423724	0.662613	0.750282
H501	H	-0.180248	-0.020712	0.000261
H502	H	0.069752	0.229288	0.250261
H503	H	0.319752	0.479288	0.500261
H504	H	0.569752	0.729288	0.750261
Cl505	Cl	0.334886	-0.035039	0.000180
Cl506	Cl	0.584886	0.214961	0.250180
Cl507	Cl	0.834886	0.464961	0.500180
Cl508	Cl	1.084886	0.714961	0.750180
H509	H	-0.067950	0.184742	0.000236
H510	H	0.182050	0.434742	0.250236
H511	H	0.432050	0.684742	0.500236
H512	H	0.682050	0.934742	0.750236
H513	H	0.446173	-0.450852	0.000092
H514	H	0.696173	-0.200852	0.250092
H515	H	0.946173	0.049148	0.500092
H516	H	1.196173	0.299148	0.750092
H517	H	-0.033711	-0.063365	0.000254
H518	H	0.216289	0.186635	0.250254
H519	H	0.466289	0.436635	0.500254
H520	H	0.716289	0.686635	0.750254
Cl521	Cl	0.672573	-0.201165	0.000242
Cl522	Cl	0.922573	0.048835	0.250242
Cl523	Cl	1.172573	0.298835	0.500242
Cl524	Cl	1.422573	0.548835	0.750242
H525	H	0.694884	-0.425295	0.000217
H526	H	0.944884	-0.175295	0.250217
H527	H	1.194884	0.074705	0.500217
H528	H	1.444884	0.324705	0.750217
Cl529	Cl	0.667478	-0.702443	0.000201
Cl530	Cl	0.917478	-0.452443	0.250201
Cl531	Cl	1.167478	-0.202443	0.500201
Cl532	Cl	1.417478	0.047557	0.750201
Cl533	Cl	0.715451	-0.325380	0.000220
Cl534	Cl	0.965451	-0.075380	0.250220
Cl535	Cl	1.215451	0.174620	0.500220
Cl536	Cl	1.465451	0.424620	0.750220
