data_functionalizedCrystal
_audit_creation_method	'MofGen! by Chris Wilmer'
_symmetry_space_group_name_H-M	'P1'
_symmetry_Int_Tables_number	1
_symmetry_cell_setting	triclinic
loop_
_symmetry_equiv_pos_as_xyz
  x,y,z
_cell_length_a	12.759400
_cell_length_b	12.594517
_cell_length_c	12.759393
_cell_angle_alpha	89.985697
_cell_angle_beta	90.030447
_cell_angle_gamma	89.986078
loop_
_atom_site_label
_atom_site_type_symbol
_atom_site_fract_x
_atom_site_fract_y
_atom_site_fract_z
Zn1	Zn	-0.418183	-1.627295	0.593872
Zn2	Zn	-0.593902	-1.627193	0.418196
Zn3	Zn	-0.418240	-1.449297	0.418224
Zn4	Zn	-0.593823	-1.449290	0.593850
O5	O	-0.506037	-1.538269	0.506035
O6	O	-0.441502	-1.776228	0.570565
O7	O	-0.570657	-1.603555	0.271178
O8	O	-0.271211	-1.472955	0.441546
O9	O	-0.570602	-1.776152	0.441497
O10	O	-0.271170	-1.603729	0.570593
O11	O	-0.441599	-1.472855	0.271199
O12	O	-0.441522	-1.300350	0.441524
O13	O	-0.570467	-1.472943	0.740874
O14	O	-0.570522	-1.300345	0.570555
O15	O	-0.441425	-1.603723	0.740890
O16	O	-0.740913	-1.603548	0.441475
O17	O	-0.740855	-1.472844	0.570528
C18	C	-0.506021	-1.261728	0.506041
C19	C	-0.506039	-1.143423	0.506068
C20	C	-0.576331	-1.003434	0.576120
C21	C	-0.601908	-1.074205	0.480233
C22	C	-0.480509	-1.074223	0.601945
C23	C	-0.531702	-1.003408	0.410102
C24	C	-0.410259	-1.003420	0.531878
C25	C	-0.435799	-1.074159	0.435925
C26	C	-0.779004	-1.538213	0.506019
C27	C	-0.895781	-1.538287	0.506047
C28	C	-0.950542	-1.606347	0.573297
C29	C	-1.060266	-1.606396	0.573323
C30	C	-1.060459	-1.470322	0.438839
C31	C	-0.950737	-1.470268	0.438819
C32	C	-0.895586	-1.674365	0.640524
C33	C	-0.950346	-1.742432	0.707779
C34	C	-1.060071	-1.742481	0.707805
C35	C	-1.115034	-1.674464	0.640576
C36	C	-0.232004	-1.538354	0.506075
C37	C	-0.115227	-1.538390	0.506092
C38	C	-0.505931	-1.538343	0.780069
C39	C	-0.505886	-1.538375	0.896846
C40	C	-0.506058	-0.815890	0.506033
C41	C	-0.506076	-0.934195	0.506040
C42	C	-0.506067	-1.538256	0.233068
C43	C	-0.505816	-1.538430	0.116292
C44	C	-0.438687	-1.606481	0.951718
C45	C	-0.438649	-1.606507	1.061442
C46	C	-0.573017	-1.470317	1.061412
C47	C	-0.573049	-1.470287	0.951690
C48	C	-0.371524	-1.674570	0.896874
C49	C	-0.304321	-1.742683	0.951746
C50	C	-0.304283	-1.742708	1.061470
C51	C	-0.371448	-1.674621	1.116322
H52	H	-0.376370	-1.105017	0.376604
H53	H	-0.806243	-1.674335	0.640509
O54	O	-1.233380	-1.674503	0.640595
H55	H	-1.262344	-1.696060	0.561367
O56	O	-0.891066	-1.815789	0.780284
H57	H	-0.912092	-1.899342	0.762331
H58	H	-1.104654	-1.797896	0.762575
H59	H	-0.249555	-1.798161	1.106144
H60	H	-1.105219	-1.414947	0.384104
H61	H	-0.627700	-1.414883	1.106081
H62	H	-0.371399	-1.674634	1.205667
O63	O	-0.645524	-1.396830	0.892494
H64	H	-0.692231	-1.349499	0.949062
O65	O	-0.891665	-1.396871	0.366276
H66	H	-0.912775	-1.313334	0.384225
O67	O	-0.655102	-0.962273	0.654503
H68	H	-0.734564	-0.990619	0.632807
O69	O	-0.709216	-1.115398	0.451287
H70	H	-0.730917	-1.085801	0.372254
O71	O	-0.371563	-1.674536	0.778529
H72	H	-0.313567	-1.733316	0.749608
H73	H	-0.329267	-0.972304	0.553755
O74	O	-0.560449	-0.962391	0.302649
H75	H	-0.632514	-0.913345	0.308252
O76	O	-0.451864	-1.115419	0.709359
H77	H	-0.510310	-1.087077	0.767369
O78	O	-0.231883	-1.816121	0.892594
H79	H	-0.243206	-1.804673	0.807078
