data_functionalizedCrystal
_audit_creation_method	'MofGen! by Chris Wilmer'
_symmetry_space_group_name_H-M	'P1'
_symmetry_Int_Tables_number	1
_symmetry_cell_setting	triclinic
loop_
_symmetry_equiv_pos_as_xyz
  x,y,z
_cell_length_a	10.489741
_cell_length_b	10.489741
_cell_length_c	10.868271
_cell_angle_alpha	89.995151
_cell_angle_beta	89.998385
_cell_angle_gamma	84.539174
loop_
_atom_site_label
_atom_site_type_symbol
_atom_site_fract_x
_atom_site_fract_y
_atom_site_fract_z
O1	O	1.694053	0.179969	-0.102245
O2	O	1.322858	0.196862	-0.102265
O3	O	1.516902	0.002817	-0.102247
O4	O	1.500009	0.374013	-0.102263
O5	O	1.516886	0.002810	0.102397
O6	O	1.322841	0.196854	0.102380
O7	O	1.694037	0.179961	0.102399
Zn8	Zn	1.508437	0.188406	0.134881
Zn9	Zn	1.508458	0.188416	-0.134747
O10	O	1.499993	0.374005	0.102382
C11	C	1.275318	0.195582	0.000055
C12	C	1.133688	0.191765	0.000048
C13	C	1.065548	0.068300	0.000065
C14	C	0.973429	0.126627	-0.100835
C15	C	0.973448	0.126649	0.100928
C16	C	1.043435	0.250143	-0.100935
C17	C	1.043463	0.250147	0.100919
C18	C	0.951371	0.308564	-0.000006
C19	C	1.515618	-0.044718	0.000074
C20	C	1.511801	-0.186348	0.000072
C21	C	1.388336	-0.254488	0.000057
C22	C	1.446652	-0.346614	0.100960
C23	C	1.446697	-0.346581	-0.100804
C24	C	1.570167	-0.276609	0.101059
C25	C	1.570195	-0.276566	-0.100796
C26	C	1.628600	-0.368665	0.000132
C27	C	1.741577	0.181241	0.000077
C28	C	1.883206	0.185058	0.000076
C29	C	1.501277	0.421541	0.000058
C30	C	1.505094	0.563170	0.000052
N31	N	1.508432	0.188398	0.318896
N32	N	1.508473	0.188414	-0.318761
C33	C	1.508451	0.188414	0.569902
C34	C	1.508436	0.188409	0.430224
H35	H	1.074502	0.302342	0.186224
H36	H	1.622398	-0.245518	-0.186101
H37	H	0.942463	0.074383	0.186232
H38	H	1.394404	-0.377629	0.186261
O39	O	1.080073	0.312289	-0.202952
C40	C	1.085304	0.317968	-0.424532
C41	C	1.043711	0.247487	-0.309104
H42	H	1.055946	0.265589	-0.510384
H43	H	1.037129	0.420080	-0.424985
H44	H	1.193725	0.320368	-0.423671
H45	H	0.935305	0.244990	-0.309889
H46	H	1.091979	0.145413	-0.308695
O47	O	1.632344	-0.239617	0.202908
C48	C	1.705766	-0.063805	0.317142
C49	C	1.635307	-0.105522	0.201762
H50	H	1.708209	0.044611	0.316240
H51	H	1.653480	-0.093154	0.403065
H52	H	1.807863	-0.112014	0.317497
H53	H	1.533208	-0.057333	0.201288
H54	H	1.687692	-0.076195	0.115891
O55	O	1.267215	-0.195303	0.000382
C56	C	1.065314	-0.163727	0.107090
C57	C	1.202453	-0.230813	0.106882
H58	H	1.012905	-0.192433	0.193173
H59	H	1.069280	-0.055498	0.106291
H60	H	1.012201	-0.193657	0.021896
H61	H	1.255645	-0.200987	0.192062
H62	H	1.198395	-0.339029	0.107617
H63	H	1.115238	-0.033196	-0.000057
O64	O	0.936510	0.064110	-0.202506
C65	C	0.953338	-0.133170	-0.317502
C66	C	0.995221	-0.062522	-0.202302
H67	H	1.000808	-0.235555	-0.317388
H68	H	0.844821	-0.134762	-0.316981
H69	H	0.983446	-0.081452	-0.403475
H70	H	0.965201	-0.114184	-0.116268
H71	H	1.103736	-0.060919	-0.202932
O72	O	1.749829	-0.427582	0.000418
C73	C	1.951816	-0.458663	0.107024
C74	C	1.814553	-0.391879	0.106861
H75	H	2.004193	-0.429800	0.193061
H76	H	1.948100	-0.566925	0.106285
H77	H	2.004802	-0.428634	0.021783
H78	H	1.761488	-0.421803	0.192088
H79	H	1.818361	-0.283629	0.107536
H80	H	1.394447	-0.377542	-0.186118
O81	O	0.892455	0.429794	-0.000288
C82	C	0.861385	0.631793	-0.106891
C83	C	0.928167	0.494530	-0.106732
H84	H	0.890254	0.684181	-0.192928
H85	H	0.753123	0.628079	-0.106149
H86	H	0.891409	0.684769	-0.021650
H87	H	0.898247	0.441476	-0.191958
H88	H	1.036417	0.498337	-0.107410
