data_functionalizedCrystal
_audit_creation_method	'MofGen! by Chris Wilmer'
_symmetry_space_group_name_H-M	'P1'
_symmetry_Int_Tables_number	1
_symmetry_cell_setting	triclinic
loop_
_symmetry_equiv_pos_as_xyz
  x,y,z
_cell_length_a	16.974800
_cell_length_b	16.992695
_cell_length_c	16.053802
_cell_angle_alpha	92.741074
_cell_angle_beta	91.074188
_cell_angle_gamma	87.021674
loop_
_atom_site_label
_atom_site_type_symbol
_atom_site_fract_x
_atom_site_fract_y
_atom_site_fract_z
O1	O	1.055374	0.099964	0.001906
O2	O	0.826668	0.111969	-0.013555
O3	O	0.940104	-0.008178	-0.005880
O4	O	0.941938	0.220111	-0.005769
O5	O	0.933858	-0.001592	0.132557
O6	O	0.820423	0.118554	0.124882
O7	O	1.049128	0.106550	0.140342
Zn8	Zn	0.933784	0.113598	0.154592
Zn9	Zn	0.942012	0.104921	-0.027804
O10	O	0.935692	0.226696	0.132667
C11	C	0.794146	0.114684	0.053676
C12	C	0.706544	0.112955	0.047754
C13	C	0.661989	0.115731	0.120436
C14	C	0.579679	0.114094	0.114874
C15	C	0.541925	0.109686	0.036630
C16	C	0.586486	0.106908	-0.036057
C17	C	0.668796	0.108540	-0.030494
C18	C	0.296123	0.104416	0.011902
C19	C	0.213807	0.102787	0.006344
C20	C	0.207005	0.109971	0.157276
C21	C	0.289316	0.111608	0.162832
C22	C	0.333871	0.108825	0.090145
N23	N	0.457791	0.108015	0.030943
N24	N	0.418004	0.110490	0.095833
C25	C	0.934622	-0.034103	0.063179
C26	C	0.927584	-0.121161	0.062703
C27	C	0.995492	-0.171260	0.067294
C28	C	0.988875	-0.253061	0.066839
C29	C	0.914348	-0.284761	0.061798
C30	C	0.846434	-0.234656	0.057204
C31	C	0.853053	-0.152857	0.057653
C32	C	0.886917	-0.528416	0.059932
C33	C	0.880304	-0.610222	0.059486
C34	C	1.022745	-0.628622	0.069120
C35	C	1.029357	-0.546820	0.069574
C36	C	0.961444	-0.496722	0.064975
N37	N	0.907582	-0.368374	0.061335
N38	N	0.968211	-0.413111	0.065432
C39	C	1.081650	0.103834	0.073110
C40	C	1.169252	0.105563	0.079026
C41	C	0.941174	0.252621	0.063607
C42	C	0.948213	0.339679	0.064077
N43	N	0.928173	0.119519	0.279072
N44	N	0.947628	0.098993	-0.152285
C45	C	0.976460	0.068415	0.326033
C46	C	0.972544	0.072565	0.413175
C47	C	0.920344	0.127823	0.453355
C48	C	0.872052	0.178929	0.406387
C49	C	0.875965	0.174775	0.319247
C50	C	0.903249	0.145946	0.713608
C51	C	0.899341	0.150097	0.800754
C52	C	0.999833	0.043731	0.807536
C53	C	1.003745	0.039585	0.720394
C54	C	0.955450	0.090689	0.673434
N55	N	0.916341	0.132067	0.542427
N56	N	0.959449	0.086440	0.584363
H57	H	0.332389	0.102148	-0.047285
H58	H	0.797754	-0.112066	0.053914
O59	O	1.027188	0.014667	0.287138
C60	C	1.068979	-0.029536	0.347278
H61	H	1.033816	-0.027545	0.407214
H62	H	1.128721	-0.003476	0.360594
C63	C	1.124617	-0.118158	0.240408
C64	C	1.081425	-0.115718	0.314019
H65	H	1.132298	-0.171319	0.219892
H66	H	1.096464	-0.088376	0.199889
H67	H	1.174397	-0.096437	0.251514
H68	H	1.031643	-0.137430	0.302910
H69	H	1.109570	-0.145506	0.354536
H70	H	1.011862	0.030951	0.451411
H71	H	0.829545	0.223919	0.439106
O72	O	1.054469	-0.014165	0.681497
C73	C	1.096264	-0.058370	0.741634
H74	H	1.061103	-0.056382	0.801571
H75	H	1.156005	-0.032309	0.754949
C76	C	1.151899	-0.146987	0.634758
C77	C	1.108711	-0.144551	0.708371
H78	H	1.159581	-0.200146	0.614240
H79	H	1.123744	-0.117204	0.594242
H80	H	1.201679	-0.125265	0.645864
H81	H	1.058928	-0.166263	0.697263
H82	H	1.136858	-0.174340	0.748885
H83	H	0.555741	0.103314	-0.099765
H84	H	1.078036	-0.669420	0.072862
O85	O	0.848514	0.203690	0.839745
C86	C	0.770641	0.189721	0.813136
H87	H	0.767388	0.125793	0.788893
H88	H	0.752482	0.230718	0.761179
C89	C	0.718494	0.283954	0.916779
C90	C	0.714498	0.205434	0.887010
H91	H	0.683861	0.293650	0.962347
H92	H	0.770958	0.293368	0.934705
H93	H	0.703363	0.318109	0.873475
H94	H	0.729638	0.171281	0.930311
H95	H	0.662034	0.196015	0.869094
H96	H	0.819611	-0.636027	0.055394
H97	H	1.039152	0.002124	0.845779
H98	H	0.705072	0.106281	-0.089680
O99	O	0.856425	0.195704	0.668046
C100	C	0.873161	0.274380	0.690541
H101	H	0.935221	0.276066	0.718740
H102	H	0.828656	0.299705	0.738282
C103	C	0.791503	0.321763	0.577896
C104	C	0.867730	0.323835	0.612524
H105	H	0.788150	0.352270	0.529772
H106	H	0.780225	0.268758	0.562742
H107	H	0.754425	0.342865	0.617688
H108	H	0.904806	0.302723	0.572736
H109	H	0.879014	0.376838	0.627669
O110	O	0.820867	-0.479868	0.055508
C111	C	0.753672	-0.525392	0.050948
H112	H	0.768657	-0.585154	0.078246
H113	H	0.734062	-0.534417	-0.016993
C114	C	0.668115	-0.408800	0.067343
C115	C	0.686518	-0.482198	0.100877
H116	H	0.626689	-0.382155	0.098138
H117	H	0.713384	-0.378129	0.070411
H118	H	0.651777	-0.416331	0.010725
H119	H	0.702864	-0.474665	0.157490
H120	H	0.641249	-0.512867	0.097819
H121	H	0.836643	0.216389	0.281011
H122	H	0.183071	0.099200	-0.057375
H123	H	0.692721	0.119326	0.184151
O124	O	0.536514	0.116835	0.185559
C125	C	0.587487	0.121062	0.255812
H126	H	0.645454	0.145976	0.237533
H127	H	0.599510	0.059486	0.279908
C128	C	0.477426	0.144603	0.347143
C129	C	0.548620	0.175209	0.324694
H130	H	0.453450	0.178000	0.389634
H131	H	0.443083	0.141752	0.299813
H132	H	0.487455	0.093290	0.367218
H133	H	0.538589	0.226517	0.304609
H134	H	0.582960	0.178070	0.372022
H135	H	1.090045	-0.521017	0.073679
H136	H	0.320050	0.115193	0.226546
O137	O	0.774028	-0.265417	0.052156
C138	C	0.735548	-0.243222	-0.022352
H139	H	0.781300	-0.228501	-0.069523
H140	H	0.694249	-0.189234	-0.008886
C141	C	0.631303	-0.329875	-0.000276
C142	C	0.687498	-0.311800	-0.058214
H143	H	0.601661	-0.372175	-0.022396
H144	H	0.657226	-0.344826	0.049924
H145	H	0.596896	-0.284879	0.010941
H146	H	0.721910	-0.356792	-0.069422
H147	H	0.661579	-0.296858	-0.108417
O148	O	0.163817	0.112566	0.227939
C149	C	0.186506	0.047281	0.275512
H150	H	0.248788	0.024824	0.258196
H151	H	0.143914	-0.001651	0.262143
C152	C	0.108196	0.099983	0.390197
C153	C	0.184694	0.072405	0.368934
H154	H	0.107075	0.115479	0.447825
H155	H	0.092907	0.143965	0.358146
H156	H	0.072711	0.059202	0.379050
H157	H	0.220175	0.113189	0.380072
H158	H	0.199989	0.028430	0.400990
O159	O	1.067951	-0.140603	0.072156
C160	C	1.126468	-0.202366	0.076129
H161	H	1.102051	-0.259222	0.048191
H162	H	1.144669	-0.210740	0.143976
C163	C	1.228775	-0.111886	0.060873
C164	C	1.198787	-0.181716	0.026552
H165	H	1.273386	-0.099148	0.030295
H166	H	1.189351	-0.070275	0.058200
H167	H	1.243936	-0.118874	0.117411
H168	H	1.183617	-0.174725	-0.029981
H169	H	1.238210	-0.223327	0.029215
O170	O	1.054827	-0.301763	0.071150
C171	C	1.058492	-0.353044	-0.000512
H172	H	1.022331	-0.325552	-0.053221
H173	H	1.033617	-0.411800	0.014058
C174	C	1.189360	-0.400595	0.037461
C175	C	1.144951	-0.366825	-0.027278
H176	H	1.242691	-0.409100	0.020952
H177	H	1.186890	-0.366049	0.085744
H178	H	1.168621	-0.449554	0.049597
H179	H	1.165683	-0.317863	-0.039406
H180	H	1.147426	-0.401364	-0.075563
