data_functionalizedCrystal
_audit_creation_method	'MofGen! by Chris Wilmer'
_symmetry_space_group_name_H-M	'P1'
_symmetry_Int_Tables_number	1
_symmetry_cell_setting	triclinic
loop_
_symmetry_equiv_pos_as_xyz
  x,y,z
_cell_length_a	21.395362
_cell_length_b	13.031981
_cell_length_c	21.395355
_cell_angle_alpha	97.199817
_cell_angle_beta	90.043940
_cell_angle_gamma	97.204883
loop_
_atom_site_label
_atom_site_type_symbol
_atom_site_fract_x
_atom_site_fract_y
_atom_site_fract_z
Zn1	Zn	0.926274	-0.415794	0.322901
Zn2	Zn	1.426274	0.084206	0.822901
Zn3	Zn	0.912901	-0.590555	0.204806
Zn4	Zn	1.412901	-0.090555	0.704806
Zn5	Zn	0.821486	-0.415842	0.218098
Zn6	Zn	1.321486	0.084158	0.718098
Zn7	Zn	0.808181	-0.590577	0.309509
Zn8	Zn	1.308181	-0.090577	0.809509
O9	O	0.867211	-0.503192	0.263828
O10	O	1.367211	-0.003192	0.763828
O11	O	1.012181	-0.438947	0.307277
O12	O	1.512181	0.061053	0.807277
O13	O	0.900746	-0.567390	0.118890
O14	O	1.400746	-0.067390	0.618890
O15	O	0.846551	-0.269571	0.243168
O16	O	1.346551	0.230429	0.743168
O17	O	1.002356	-0.567343	0.220513
O18	O	1.502356	-0.067343	0.720513
O19	O	0.923538	-0.269535	0.320166
O20	O	1.423538	0.230465	0.820166
O21	O	0.833583	-0.439030	0.128656
O22	O	1.333583	0.060970	0.628656
O23	O	0.732041	-0.439051	0.230182
O24	O	1.232041	0.060949	0.730182
O25	O	0.823875	-0.567380	0.398964
O26	O	1.323875	-0.067380	0.898964
O27	O	0.722266	-0.567427	0.297341
O28	O	1.222266	-0.067427	0.797341
O29	O	0.910638	-0.438968	0.408803
O30	O	1.410638	0.061032	0.908803
O31	O	0.887846	-0.736823	0.207527
O32	O	1.387846	-0.236823	0.707527
O33	O	0.810908	-0.736839	0.284452
O34	O	1.310908	-0.236839	0.784452
C35	C	0.704419	-0.503247	0.263751
C36	C	1.204419	-0.003247	0.763751
C37	C	0.634774	-0.503296	0.263732
C38	C	1.134774	-0.003296	0.763732
C39	C	0.846499	-0.774756	0.243108
C40	C	1.346499	-0.274756	0.743108
C41	C	0.837696	-0.890932	0.234265
C42	C	1.337696	-0.390932	0.734265
C43	C	0.596981	-0.570230	0.298634
C44	C	1.096981	-0.070230	0.798634
C45	C	0.531547	-0.570205	0.298664
C46	C	1.031547	-0.070205	0.798664
C47	C	0.503909	-0.503256	0.263779
C48	C	1.003909	-0.003256	0.763779
C49	C	0.541711	-0.436309	0.228874
C50	C	1.041711	0.063691	0.728874
C51	C	0.607143	-0.436329	0.228851
C52	C	1.107143	0.063671	0.728851
C53	C	0.400824	-0.494836	0.208016
C54	C	0.900824	0.005164	0.708016
C55	C	0.335392	-0.494823	0.208038
C56	C	0.835392	0.005177	0.708038
C57	C	0.302093	-0.503188	0.263854
C58	C	0.802093	-0.003188	0.763854
C59	C	0.334233	-0.511587	0.319647
C60	C	0.834233	-0.011587	0.819647
C61	C	0.399666	-0.511607	0.319623
C62	C	0.899666	-0.011607	0.819623
C63	C	0.432959	-0.503226	0.263802
C64	C	0.932959	-0.003226	0.763802
C65	C	0.193349	-0.570098	0.298792
C66	C	0.693349	-0.070098	0.798792
C67	C	0.127915	-0.570065	0.298823
C68	C	0.627915	-0.070065	0.798823
C69	C	0.138079	-0.436174	0.229028
C70	C	0.638079	0.063826	0.729028
C71	C	0.203513	-0.436202	0.229002
C72	C	0.703513	0.063798	0.729002
C73	C	0.231143	-0.503169	0.263883
C74	C	0.731143	-0.003169	0.763883
C75	C	0.871838	-0.942626	0.268456
C76	C	1.371838	-0.442626	0.768456
C77	C	0.862741	-1.062700	0.259317
C78	C	1.362741	-0.562700	0.759317
C79	C	1.030638	-0.503137	0.263906
C80	C	1.530638	-0.003137	0.763906
C81	C	1.100281	-0.503114	0.263939
C82	C	1.600281	-0.003114	0.763939
C83	C	0.867264	-0.503171	0.427253
C84	C	1.367264	-0.003171	0.927253
C85	C	0.867287	-0.503162	0.496895
C86	C	1.367287	-0.003162	0.996895
C87	C	0.888020	-0.230568	0.284643
C88	C	1.388020	0.269432	0.784643
C89	C	0.896888	-0.114391	0.293514
C90	C	1.396888	0.385609	0.793514
C91	C	0.867199	-0.503138	0.101045
C92	C	1.367199	-0.003138	0.601045
C93	C	0.867320	-0.502852	0.031426
C94	C	1.367320	-0.002852	0.531426
C95	C	0.912463	-0.436295	0.534733
C96	C	1.412463	0.063705	1.034733
C97	C	0.912465	-0.436250	0.600172
C98	C	1.412465	0.063750	1.100172
C99	C	0.867297	-0.503091	0.627769
C100	C	1.367297	-0.003091	1.127769
C101	C	0.822114	-0.569962	0.589923
C102	C	1.322114	-0.069962	1.089923
C103	C	0.822109	-0.569998	0.524486
C104	C	1.322109	-0.069998	1.024486
C105	C	0.855172	-0.597205	0.724261
C106	C	1.355172	-0.097205	1.224261
C107	C	0.855182	-0.597172	0.789697
C108	C	1.355182	-0.097172	1.289697
C109	C	0.867310	-0.502980	0.829598
C110	C	1.367310	-0.002980	1.329598
C111	C	0.879442	-0.408820	0.804057
C112	C	1.379442	0.091180	1.304057
C113	C	0.879437	-0.408855	0.738620
C114	C	1.379437	0.091145	1.238620
C115	C	0.867298	-0.503059	0.698724
C116	C	1.367298	-0.003059	1.198724
C117	C	0.912491	-0.436059	0.938393
C118	C	1.412491	0.063941	1.438393
C119	C	0.912489	-0.436012	1.003833
C120	C	1.412489	0.063988	1.503833
C121	C	0.822140	-0.569734	0.993583
C122	C	1.322140	-0.069734	1.493583
C123	C	0.822139	-0.569771	0.928144
C124	C	1.322139	-0.069771	1.428144
C125	C	0.867318	-0.502935	0.900553
C126	C	1.367318	-0.002935	1.400553
H127	H	0.619473	-0.624759	0.327038
H128	H	1.119473	-0.124759	0.827038
H129	H	0.845307	-0.673843	0.810487
H130	H	1.345307	-0.173843	1.310487
F131	F	0.892345	-0.308646	0.711439
F132	F	1.392345	0.191354	1.211439
H133	H	0.309228	-0.487990	0.162607
H134	H	0.809228	0.012010	0.662607
F135	F	0.436256	-0.485935	0.148604
F136	F	0.936256	0.014065	0.648604
F137	F	0.960571	-0.364923	0.909026
F138	F	1.460571	0.135077	1.409026
F139	F	0.774058	-0.640945	0.887873
F140	F	1.274058	-0.140945	1.387873
F141	F	0.774064	-0.640864	1.022950
F142	F	1.274064	-0.140864	1.522950
H143	H	0.845130	-0.673888	0.691779
H144	H	1.345130	-0.173888	1.191779
H145	H	0.932854	-1.069759	0.329558
H146	H	1.432854	-0.569759	0.829558
H147	H	0.785336	-0.624381	0.612398
H148	H	1.285336	-0.124381	1.112398
H149	H	0.801727	-0.935569	0.198229
H150	H	1.301727	-0.435569	0.698229
F151	F	0.960544	-0.365157	0.505372
F152	F	1.460544	0.134843	1.005372
F153	F	0.960540	-0.365061	0.640450
F154	F	1.460540	0.134939	1.140450
H155	H	0.500770	-0.624710	0.327089
H156	H	1.000770	-0.124710	0.827089
F157	F	0.512295	-0.365053	0.191750
F158	F	1.012295	0.134947	0.691750
H159	H	0.785318	-0.624448	0.493679
H160	H	1.285318	-0.124448	0.993679
H161	H	0.889319	-0.332120	0.836544
H162	H	1.389319	0.167880	1.336544
F163	F	0.298800	-0.520486	0.379056
F164	F	0.798800	-0.020486	0.879056
F165	F	0.647367	-0.365085	0.191701
F166	F	1.147367	0.134915	0.691701
F167	F	0.433869	-0.520542	0.379001
F168	F	0.933869	-0.020542	0.879001
H169	H	0.907802	-0.897991	0.304498
H170	H	1.407802	-0.397991	0.804498
F171	F	0.960580	-0.364851	1.044102
F172	F	1.460580	0.135149	1.544102
H173	H	0.215848	-0.624621	0.327198
H174	H	0.715848	-0.124621	0.827198
F175	F	0.087693	-0.641304	0.335978
F176	F	0.587693	-0.141304	0.835978
H177	H	0.234284	-0.381702	0.200577
H178	H	0.734284	0.118298	0.700577
H179	H	0.115577	-0.381658	0.200627
H180	H	0.615577	0.118342	0.700627
H181	H	0.826769	-1.107333	0.223279
H182	H	1.326769	-0.607333	0.723279
