data_functionalizedCrystal
_audit_creation_method	'MofGen! by Chris Wilmer'
_symmetry_space_group_name_H-M	'P1'
_symmetry_Int_Tables_number	1
_symmetry_cell_setting	triclinic
loop_
_symmetry_equiv_pos_as_xyz
  x,y,z
_cell_length_a	12.645331
_cell_length_b	21.295417
_cell_length_c	12.645323
_cell_angle_alpha	89.966008
_cell_angle_beta	89.977324
_cell_angle_gamma	90.029485
loop_
_atom_site_label
_atom_site_type_symbol
_atom_site_fract_x
_atom_site_fract_y
_atom_site_fract_z
Zn1	Zn	1.620637	-0.250621	-0.599379
Zn2	Zn	1.620479	-0.355896	-0.422091
Zn3	Zn	1.443351	-0.250643	-0.422123
Zn4	Zn	1.443294	-0.355855	-0.599306
O5	O	1.531940	-0.303254	-0.510725
O6	O	1.768963	-0.264595	-0.575878
O7	O	1.596941	-0.341960	-0.273748
O8	O	1.466959	-0.162550	-0.445681
O9	O	1.768847	-0.341939	-0.445625
O10	O	1.597210	-0.162535	-0.575910
O11	O	1.466806	-0.264631	-0.273772
O12	O	1.294996	-0.264591	-0.445610
O13	O	1.466860	-0.341869	-0.747663
O14	O	1.294954	-0.341890	-0.575786
O15	O	1.597154	-0.264555	-0.747717
O16	O	1.596884	-0.443980	-0.445555
O17	O	1.466707	-0.443950	-0.575754
C18	C	1.256510	-0.303239	-0.510694
C19	C	1.138680	-0.303247	-0.510706
C20	C	0.971108	-0.254395	-0.429265
C21	C	1.093667	-0.254521	-0.428906
C22	C	1.094135	-0.369560	-0.480174
C23	C	0.971537	-0.369293	-0.479618
C24	C	0.971537	-0.286418	-0.622995
C25	C	1.094144	-0.284937	-0.622372
C26	C	1.531801	-0.466805	-0.510666
C27	C	1.531839	-0.536773	-0.510677
C28	C	1.599682	-0.569635	-0.442951
C29	C	1.599732	-0.635377	-0.442975
C30	C	1.531919	-0.668256	-0.510713
C31	C	1.464071	-0.635386	-0.578452
C32	C	1.464031	-0.569645	-0.578433
N33	N	1.439183	-0.771521	-0.518784
N34	N	1.439224	-0.833972	-0.518796
C35	C	1.532038	-0.866331	-0.510774
N36	N	1.624811	-0.833879	-0.502720
N37	N	1.624768	-0.771421	-0.502703
C38	C	1.531956	-0.739541	-0.510741
C39	C	1.599941	-0.970478	-0.443071
C40	C	1.599993	-1.036221	-0.443102
C41	C	1.464322	-1.036229	-0.578573
C42	C	1.464280	-0.970487	-0.578547
C43	C	1.532088	-0.937615	-0.510791
C44	C	1.808445	-0.303269	-0.510756
C45	C	1.926275	-0.303276	-0.510770
C46	C	1.532018	-0.303205	-0.787230
C47	C	1.532052	-0.303184	-0.905061
C48	C	1.532109	-0.139063	-0.510807
C49	C	1.532180	-0.069095	-0.510842
C50	C	1.449831	-0.351594	-1.072591
C51	C	1.450046	-0.351833	-0.950031
C52	C	1.643744	-0.321189	-0.949576
C53	C	1.643293	-0.321492	-1.072174
C54	C	1.503635	-0.236500	-1.072276
C55	C	1.501143	-0.236899	-0.949670
C56	C	1.531923	-0.303257	-0.235295
C57	C	1.532096	-0.303100	-0.117466
H58	H	0.941878	-0.406946	-0.536393
H59	H	1.124789	-0.317942	-0.686348
H60	H	1.667420	-0.370178	-1.100771
H61	H	0.940659	-0.238907	-0.650759
H62	H	1.409031	-0.943729	-0.633691
Cl63	Cl	1.139125	-0.209601	-0.657933
Cl64	Cl	1.685298	-1.077534	-0.357961
Cl65	Cl	1.741075	-0.269294	-1.118014
H66	H	1.418947	-0.223321	-0.920574
H67	H	1.655158	-0.943712	-0.387902
Cl68	Cl	1.378733	-0.528331	-0.663580
H69	H	0.942886	-0.383589	-0.397575
Cl70	Cl	1.379078	-1.077556	-0.663738
H71	H	1.654898	-0.542873	-0.387782
H72	H	0.942545	-0.322021	-0.683723
Cl73	Cl	1.380077	-0.211163	-1.119990
H74	H	1.654982	-0.662138	-0.387825
Cl75	Cl	1.322172	-0.334436	-0.903556
H76	H	1.468832	-0.401207	-0.920704
Cl77	Cl	1.740917	-0.268383	-0.904612
Cl78	Cl	1.378825	-0.676718	-0.663613
Cl79	Cl	1.586907	-0.178166	-0.902427
Cl80	Cl	1.321570	-0.334364	-1.118090
Cl81	Cl	1.139133	-0.427294	-0.568955
Cl82	Cl	1.141449	-0.392012	-0.354864
Cl83	Cl	1.478488	-0.427339	-1.120229
Cl84	Cl	1.596142	-0.180718	-1.117084
Cl85	Cl	1.140174	-0.178601	-0.458452
Cl86	Cl	0.923455	-0.271393	-0.301625
Cl87	Cl	0.925647	-0.178244	-0.458493
Cl88	Cl	1.138872	-0.271721	-0.300507
H89	H	1.668285	-0.369365	-0.918874
