data_functionalizedCrystal
_audit_creation_method	'MofGen! by Chris Wilmer'
_symmetry_space_group_name_H-M	'P1'
_symmetry_Int_Tables_number	1
_symmetry_cell_setting	triclinic
loop_
_symmetry_equiv_pos_as_xyz
  x,y,z
_cell_length_a	10.540510
_cell_length_b	10.540539
_cell_length_c	9.798715
_cell_angle_alpha	89.998989
_cell_angle_beta	89.996061
_cell_angle_gamma	84.519401
loop_
_atom_site_label
_atom_site_type_symbol
_atom_site_fract_x
_atom_site_fract_y
_atom_site_fract_z
O1	O	1.685908	0.178718	-0.113493
O2	O	1.316490	0.195613	-0.113493
O3	O	1.509627	0.002458	-0.113491
O4	O	1.492771	0.371873	-0.113494
O5	O	1.509613	0.002457	0.113491
O6	O	1.316476	0.195612	0.113489
O7	O	1.685894	0.178717	0.113490
Zn8	Zn	1.501182	0.187165	0.149528
Zn9	Zn	1.501201	0.187165	-0.149531
O10	O	1.492757	0.371872	0.113488
C11	C	1.269179	0.194354	-0.000002
C12	C	1.128229	0.190587	-0.000002
C13	C	0.910774	0.324771	-0.000525
C14	C	1.057370	0.328789	-0.000005
C15	C	1.083461	0.119840	0.129613
C16	C	0.936700	0.116801	0.129714
C17	C	0.936911	0.113924	-0.128407
C18	C	1.083252	0.120479	-0.130112
C19	C	1.508356	-0.044845	-0.000002
C20	C	1.504574	-0.185793	-0.000010
C21	C	1.359655	-0.369204	-0.000519
C22	C	1.363489	-0.222587	-0.000008
C23	C	1.572462	-0.247458	0.129608
C24	C	1.567647	-0.394002	0.129718
C25	C	1.570533	-0.394520	-0.128404
C26	C	1.571833	-0.247538	-0.130117
C27	C	1.733204	0.179976	-0.000004
C28	C	1.874154	0.183743	-0.000013
C29	C	1.494028	0.419175	-0.000004
C30	C	1.497810	0.560123	-0.000005
N31	N	1.501179	0.187163	0.353628
N32	N	1.501215	0.187157	-0.353631
C33	C	1.582271	0.105705	0.421405
C34	C	1.582292	0.105701	0.578568
H35	H	1.132320	0.019581	-0.137939
H36	H	1.431762	0.256895	0.411951
C37	C	1.095742	0.403994	0.125741
N38	N	1.124643	0.460636	0.220462
H39	H	1.672438	-0.441757	-0.129275
C40	C	0.906978	-0.026252	-0.129593
N41	N	0.884424	-0.131828	-0.130478
H42	H	1.431789	0.256904	0.588092
H43	H	1.676071	-0.225115	0.134428
H44	H	1.651679	0.035964	0.363083
H45	H	0.913705	0.013435	0.135603
H46	H	1.114310	0.168972	0.226073
C47	C	1.284360	-0.407846	-0.126083
N48	N	1.227645	-0.436964	-0.220658
C49	C	0.879596	0.172947	-0.261133
N50	N	0.836429	0.217421	-0.361095
H51	H	0.896478	0.165149	0.226602
H52	H	1.086721	0.384135	-0.092922
H53	H	1.130851	0.018099	0.134435
C54	C	1.121933	0.190009	-0.259657
N55	N	1.151080	0.242379	-0.357228
H56	H	1.310070	-0.179977	-0.092924
C57	C	1.676087	0.011482	0.657307
N58	N	1.746735	-0.059488	0.716617
C59	C	1.284675	-0.409965	0.124379
N60	N	1.228209	-0.440655	0.218464
H61	H	1.669113	-0.441981	0.135598
H62	H	0.868826	0.378613	-0.093480
H63	H	1.309684	-0.180825	0.093062
H64	H	1.674695	-0.223328	-0.137944
H65	H	1.517462	-0.422196	0.226610
H66	H	1.525291	-0.204854	0.226066
H67	H	1.524877	-0.426068	-0.226646
H68	H	1.522159	-0.206674	-0.226005
H69	H	0.867261	0.378303	0.091902
