data_functionalizedCrystal
_audit_creation_method	'MofGen! by Chris Wilmer'
_symmetry_space_group_name_H-M	'P1'
_symmetry_Int_Tables_number	1
_symmetry_cell_setting	triclinic
loop_
_symmetry_equiv_pos_as_xyz
  x,y,z
_cell_length_a	19.077399
_cell_length_b	19.077692
_cell_length_c	12.759393
_cell_angle_alpha	87.735898
_cell_angle_beta	87.727729
_cell_angle_gamma	89.938190
loop_
_atom_site_label
_atom_site_type_symbol
_atom_site_fract_x
_atom_site_fract_y
_atom_site_fract_z
Zn1	Zn	1.085477	-0.236551	0.543281
Zn2	Zn	1.090097	-0.354071	0.374362
Zn3	Zn	0.967966	-0.241305	0.374927
Zn4	Zn	0.972650	-0.358735	0.557301
O5	O	1.029047	-0.297666	0.462468
O6	O	1.184421	-0.248199	0.514769
O7	O	1.073869	-0.339150	0.227420
O8	O	0.979660	-0.142347	0.391628
O9	O	1.187816	-0.334540	0.390665
O10	O	1.065995	-0.138855	0.515317
O11	O	0.984140	-0.256301	0.227835
O12	O	0.870256	-0.260824	0.405224
O13	O	0.987643	-0.342490	0.702459
O14	O	0.873697	-0.347100	0.539213
O15	O	1.070537	-0.252722	0.692158
O16	O	1.078411	-0.453017	0.404261
O17	O	0.992123	-0.456444	0.538666
C18	C	0.846480	-0.304984	0.473802
C19	C	0.768378	-0.308132	0.478676
C20	C	1.036296	-0.480225	0.472945
C21	C	1.039461	-0.558322	0.477458
C22	C	0.729870	-0.264625	0.411312
C23	C	0.656484	-0.267588	0.415892
C24	C	0.621608	-0.314057	0.487843
C25	C	0.660121	-0.357570	0.555210
C26	C	0.733505	-0.354609	0.550624
C27	C	0.402328	-0.327740	0.509023
C28	C	0.328939	-0.330696	0.513607
C29	C	0.325307	-0.240715	0.374286
C30	C	0.398692	-0.237755	0.369711
C31	C	0.437199	-0.281270	0.437075
N32	N	0.546597	-0.317086	0.492528
N33	N	0.512210	-0.278244	0.432383
C34	C	0.996039	-0.596892	0.415134
C35	C	0.999020	-0.670272	0.419379
C36	C	1.045420	-0.705081	0.485954
C37	C	1.088847	-0.666506	0.548281
C38	C	1.085869	-0.593127	0.544030
C39	C	1.059146	-0.924339	0.505574
C40	C	1.062120	-0.997723	0.509823
C41	C	0.972292	-1.001484	0.380919
C42	C	0.969315	-0.928103	0.376679
C43	C	1.012745	-0.889535	0.439001
N44	N	1.048467	-0.780087	0.490297
N45	N	1.009701	-0.814530	0.434652
C46	C	1.212328	-0.290319	0.451090
C47	C	1.290431	-0.287188	0.446242
C48	C	1.029097	-0.297596	0.736494
C49	C	1.029119	-0.297566	0.853268
C50	C	1.021790	-0.114393	0.451972
C51	C	1.018697	-0.036293	0.447499
C52	C	1.029036	-0.297683	0.189502
C53	C	1.029143	-0.297509	0.072709
C54	C	1.072285	-0.250817	0.902767
C55	C	1.072295	-0.250786	1.012489
C56	C	0.985972	-0.344261	1.023203
C57	C	0.985958	-0.344287	0.913483
H58	H	0.758260	-0.226779	0.352729
C59	C	0.924528	-1.043909	0.312357
C60	C	0.844236	-1.037096	0.325207
C61	C	0.796472	-1.079520	0.256636
C62	C	0.829000	-1.128757	0.175217
C63	C	0.909296	-1.135573	0.162364
C64	C	0.957060	-1.093149	0.230934
H65	H	0.820154	-1.000645	0.385481
H66	H	0.737032	-1.074474	0.266151
H67	H	0.793642	-1.160162	0.124457
H68	H	0.933378	-1.172023	0.102089
H69	H	1.016500	-1.098194	0.221419
H70	H	0.764858	-0.390038	0.605480
H71	H	1.126631	-0.694853	0.602483
H72	H	0.625135	-0.232164	0.361030
C73	C	1.119781	-0.199363	1.066938
C74	C	1.119797	-0.199326	1.187625
C75	C	1.167285	-0.147900	1.242073
C76	C	1.214757	-0.096511	1.175835
C77	C	1.214743	-0.096546	1.055141
C78	C	1.167255	-0.147972	1.000693
H79	H	1.084654	-0.237369	1.236665
H80	H	1.167295	-0.147874	1.331419
H81	H	1.249910	-0.058442	1.216141
H82	H	1.249886	-0.058503	1.006101
H83	H	1.167245	-0.147998	0.911347
H84	H	0.950834	-0.382301	1.072243
C85	C	0.437055	-0.186659	0.290534
C86	C	0.394698	-0.138814	0.216410
C87	C	0.433061	-0.087723	0.137224
C88	C	0.513781	-0.084477	0.132162
C89	C	0.556143	-0.132323	0.206288
C90	C	0.517780	-0.183414	0.285475
H91	H	0.334940	-0.141216	0.220156
H92	H	0.401702	-0.052304	0.082351
H93	H	0.542180	-0.046656	0.073544
H94	H	0.615901	-0.129921	0.202543
H95	H	0.549139	-0.218833	0.340348
H96	H	0.950802	-0.382356	0.873180
C97	C	1.113164	-1.036019	0.583055
C98	C	1.192638	-1.022668	0.569025
C99	C	1.243676	-1.060967	0.642255
C100	C	1.215240	-1.112616	0.729514
C101	C	1.135762	-1.125969	0.743548
C102	C	1.084723	-1.087670	0.670319
H103	H	1.213692	-0.984433	0.504427
H104	H	1.302512	-1.051082	0.631865
H105	H	1.253022	-1.140967	0.783723
H106	H	1.114708	-1.164205	0.808146
H107	H	1.025888	-1.097556	0.680708
H108	H	1.094507	-0.892942	0.556321
H109	H	0.293947	-0.205288	0.319441
H110	H	0.631719	-0.395409	0.613790
C111	C	0.290573	-0.381819	0.592751
C112	C	0.332927	-0.429688	0.666846
C113	C	0.294561	-0.480808	0.745985
C114	C	0.213841	-0.484059	0.751030
C115	C	0.171483	-0.436189	0.676933
C116	C	0.209849	-0.385069	0.597793
H117	H	0.392685	-0.427282	0.663113
H118	H	0.325918	-0.516244	0.800837
H119	H	0.185440	-0.521902	0.809614
H120	H	0.111725	-0.438595	0.680665
H121	H	0.178492	-0.349633	0.542942
C122	C	0.444676	-0.375600	0.583134
C123	C	0.437757	-0.455878	0.579587
C124	C	0.480106	-0.503740	0.653705
C125	C	0.529375	-0.471325	0.731369
C126	C	0.536296	-0.391043	0.734919
C127	C	0.493946	-0.343181	0.660801
H128	H	0.401283	-0.479878	0.522092
H129	H	0.474983	-0.563170	0.651076
H130	H	0.560725	-0.506755	0.786235
H131	H	0.572769	-0.367043	0.792414
H132	H	0.499070	-0.283751	0.663430
H133	H	0.958251	-0.568555	0.360927
C134	C	0.951244	-0.712695	0.350831
C135	C	0.956597	-0.702431	0.230462
C136	C	0.908817	-0.744852	0.161912
C137	C	0.855683	-0.797536	0.213730
C138	C	0.850328	-0.807802	0.334105
C139	C	0.898109	-0.765381	0.402656
H140	H	0.995932	-0.663429	0.192097
H141	H	0.912782	-0.737252	0.072802
H142	H	0.820313	-0.828938	0.162985
H143	H	0.810993	-0.846804	0.372470
H144	H	0.894144	-0.772981	0.491765
H145	H	0.931532	-0.899763	0.322468
H146	H	1.107426	-0.212772	0.853743
H147	H	1.121229	-0.561724	0.594779
