data_functionalizedCrystal
_audit_creation_method	'MofGen! by Chris Wilmer'
_symmetry_space_group_name_H-M	'P1'
_symmetry_Int_Tables_number	1
_symmetry_cell_setting	triclinic
loop_
_symmetry_equiv_pos_as_xyz
  x,y,z
_cell_length_a	23.196402
_cell_length_b	23.196402
_cell_length_c	23.196401
_cell_angle_alpha	60.008822
_cell_angle_beta	90.011712
_cell_angle_gamma	60.000268
loop_
_atom_site_label
_atom_site_type_symbol
_atom_site_fract_x
_atom_site_fract_y
_atom_site_fract_z
Zr1	Zr	0.555361	0.631008	-0.075647
O2	O	0.463292	0.751273	-0.167690
O3	O	0.583583	0.510742	-0.047434
O4	O	0.583557	0.631009	-0.167699
O5	O	0.463340	0.631004	0.047447
O6	O	0.678427	0.631011	-0.167703
O7	O	0.463318	0.631006	-0.047425
O8	O	0.678473	0.415875	0.047430
O9	O	0.463295	0.846140	-0.167686
O10	O	0.666422	0.560210	-0.035400
O11	O	0.595639	0.560208	0.035404
O12	O	0.595609	0.701807	-0.106193
O13	O	0.524825	0.701805	-0.035389
Zr14	Zr	0.706704	0.631008	0.075657
Zr15	Zr	0.706668	0.631010	-0.075652
Zr16	Zr	0.555397	0.631005	0.075662
Zr17	Zr	0.555365	0.782310	-0.075640
Zr18	Zr	0.706700	0.479705	0.075650
O19	O	0.678482	0.751273	0.047444
O20	O	0.678431	0.751276	-0.167697
O21	O	0.463344	0.751269	0.047452
O22	O	0.798773	0.510742	0.167700
O23	O	0.798721	0.510746	-0.047442
O24	O	0.583634	0.510739	0.167708
O25	O	0.798725	0.631011	-0.047436
O26	O	0.678508	0.631006	0.167710
O27	O	0.583638	0.631004	0.167713
O28	O	0.798747	0.631009	0.047435
O29	O	0.583563	0.846142	-0.167690
O30	O	0.678502	0.415873	0.167700
O31	O	0.798770	0.415875	0.167696
O32	O	0.798741	0.415877	0.047426
O33	O	0.463323	0.846138	-0.047416
O34	O	0.583592	0.846140	-0.047420
O35	O	0.666456	0.560208	0.106203
O36	O	0.737239	0.560210	0.035399
O37	O	0.666426	0.701807	-0.035394
O38	O	0.595643	0.701805	0.035410
C39	C	0.631027	0.441751	-0.000003
C40	C	0.631025	0.377519	-0.000006
C41	C	0.667969	0.347350	-0.036967
C42	C	0.667976	0.286989	-0.036962
C43	C	0.631025	0.256811	-0.000004
C44	C	0.594080	0.286985	0.036966
C45	C	0.594080	0.347339	0.036965
C46	C	0.569120	0.194781	-0.005276
C47	C	0.569118	0.134432	-0.005280
C48	C	0.631026	0.070656	0.000003
C49	C	0.692936	0.067246	0.005277
C50	C	0.692936	0.127600	0.005276
C51	C	0.631022	0.191367	0.000002
C52	C	0.667980	-0.024964	-0.036954
C53	C	0.667989	-0.085330	-0.036943
C54	C	0.594087	-0.085327	0.036980
C55	C	0.594085	-0.024969	0.036974
C56	C	0.631030	0.005212	0.000003
C57	C	0.441771	0.631005	0.000012
C58	C	0.377537	0.631004	0.000014
C59	C	0.384326	0.557094	0.036960
C60	C	0.323972	0.557093	0.036963
C61	C	0.256829	0.631006	0.000006
C62	C	0.250043	0.704925	-0.036942
C63	C	0.310397	0.704924	-0.036938
C64	C	0.132887	0.687634	-0.061903
C65	C	0.072535	0.687632	-0.061908
C66	C	0.070675	0.631012	-0.000005
C67	C	0.129181	0.574380	0.061904
C68	C	0.189535	0.574379	0.061908
C69	C	0.191381	0.631015	-0.000002
C70	C	0.012023	0.557096	0.036948
C71	C	-0.048334	0.557098	0.036953
C72	C	-0.122262	0.704932	-0.036959
C73	C	-0.061906	0.704928	-0.036957
C74	C	0.005235	0.631008	-0.000005
C75	C	0.820294	0.631010	-0.000001
C76	C	0.884527	0.631011	-0.000004
C77	C	0.630987	0.631010	-0.189259
C78	C	0.630972	0.631011	-0.253494
C79	C	0.631038	0.820264	0.000013
C80	C	0.631039	0.884496	0.000016
C81	C	0.594011	0.704921	-0.320620
C82	C	0.594029	0.704922	-0.380975
C83	C	0.630998	0.631009	-0.374200
C84	C	0.667967	0.557090	-0.307062
C85	C	0.667953	0.557091	-0.246709
C86	C	0.625747	0.574381	-0.441520
C87	C	0.625755	0.574383	-0.501873
C88	C	0.631043	0.631003	-0.560348
C89	C	0.636308	0.687635	-0.558468
C90	C	0.636295	0.687636	-0.498115
C91	C	0.631017	0.631000	-0.439639
C92	C	0.594100	0.704919	-0.692921
C93	C	0.594123	0.704917	-0.753276
C94	C	0.668056	0.557083	-0.679360
C95	C	0.668037	0.557087	-0.619007
C96	C	0.631056	0.631007	-0.625792
C97	C	0.631078	0.631005	0.189270
C98	C	0.631093	0.631004	0.253504
C99	C	0.820289	0.441754	-0.000010
C100	C	0.884521	0.377523	-0.000015
C101	C	0.631073	0.441748	0.189261
C102	C	0.631086	0.377516	0.253493
C103	C	0.820334	0.441751	0.189255
C104	C	0.884581	0.377519	0.253484
C105	C	0.441731	0.820264	-0.189245
C106	C	0.377484	0.884496	-0.253474
C107	C	0.441776	0.820261	0.000020
C108	C	0.377544	0.884492	0.000025
C109	C	0.630992	0.820267	-0.189251
C110	C	0.630979	0.884500	-0.253483
C111	C	0.877719	0.347360	-0.036980
C112	C	0.938065	0.287017	-0.036998
C113	C	1.005214	0.256834	-0.000048
C114	C	1.012014	0.287003	0.036918
C115	C	0.951668	0.347349	0.036933
C116	C	0.668058	0.347351	0.320620
C117	C	0.668068	0.287006	0.380978
C118	C	0.631110	0.256822	0.374209
C119	C	0.594133	0.286993	0.307075
C120	C	0.594119	0.347341	0.246718
C121	C	0.951707	0.347357	0.246688
C122	C	1.012080	0.287012	0.307033
C123	C	1.005325	0.256828	0.374173
C124	C	0.938193	0.286997	0.380968
C125	C	0.877821	0.347344	0.320624
C126	C	0.310358	0.914666	-0.246678
C127	C	0.249985	0.975029	-0.307023
C128	C	0.256740	1.005216	-0.374163
C129	C	0.323872	0.975044	-0.380958
C130	C	0.384244	0.914686	-0.320614
C131	C	0.384346	0.914662	0.036984
C132	C	0.323999	0.975022	0.036986
C133	C	0.256851	1.005207	0.000033
C134	C	0.250051	0.975034	-0.036930
C135	C	0.310397	0.914679	-0.036936
C136	C	0.667944	0.914664	-0.246691
C137	C	0.667945	0.975010	-0.307037
C138	C	0.630976	1.005194	-0.374176
C139	C	0.594009	0.975023	-0.380967
C140	C	0.594013	0.914675	-0.320621
H141	H	0.743350	0.015313	0.009588
Cl142	Cl	0.960217	0.385296	0.162291
H143	H	0.329364	0.999630	-0.435630
Cl144	Cl	0.332502	0.464170	0.083410
Cl145	Cl	0.301848	0.876728	-0.162281
Cl146	Cl	0.547658	0.797842	-0.837668
Cl147	Cl	0.468754	0.876731	0.083441
H148	H	1.054346	0.207695	-0.000064
Cl149	Cl	1.081229	0.180960	0.450029
Cl150	Cl	0.960231	0.385256	0.083414
H151	H	0.563996	0.262409	0.067058
Cl152	Cl	1.096466	0.249095	0.298475
Cl153	Cl	0.714528	0.385282	0.329149
H154	H	0.329550	0.999578	0.067088
H155	H	0.518707	0.137218	-0.009578
Cl156	Cl	0.714427	0.876730	-0.162295
Cl157	Cl	0.180994	1.081080	0.000049
Cl158	Cl	0.547634	-0.123259	0.083441
Cl159	Cl	0.165630	1.012986	-0.083379
Cl160	Cl	0.770762	0.123309	0.011909
Cl161	Cl	0.714560	0.249087	0.465366
Cl162	Cl	0.631136	0.180954	0.450094
H163	H	0.564043	0.262408	0.301573
H164	H	0.563908	0.890121	-0.326161
Cl165	Cl	0.714430	0.012974	-0.083424
H166	H	0.932514	0.262460	-0.067101
H167	H	-0.176930	0.765114	-0.067051
Cl168	Cl	0.714417	0.464168	-0.162316
Cl169	Cl	0.301833	0.876754	-0.083398
Cl170	Cl	-0.001011	0.758830	-0.139733
Cl171	Cl	0.642916	0.758824	-0.495752
H172	H	0.134387	0.733753	-0.112312
Cl173	Cl	0.547637	0.012963	0.083440
H174	H	0.066693	0.496905	0.067051
Cl175	Cl	0.714417	1.012931	-0.298484
H176	H	1.066694	0.262419	0.067002
H177	H	0.564014	0.371893	0.192063
H178	H	0.630979	1.054334	-0.423308
Cl179	Cl	0.547529	1.012985	-0.465375
H180	H	0.698131	0.496901	-0.564349
H181	H	0.932703	0.262412	0.435641
Cl182	Cl	0.642957	0.758819	-0.631975
H183	H	0.698054	0.371920	-0.067069
H184	H	0.195329	0.999585	-0.301477
Cl185	Cl	0.793437	0.385251	0.329180
Cl186	Cl	0.714444	0.464171	-0.298543
H187	H	0.518700	0.246717	-0.009593
H188	H	0.698061	0.262421	-0.067061
H189	H	0.698077	-0.109897	-0.067039
H190	H	0.207576	1.054363	-0.423293
Cl191	Cl	0.547627	0.797846	-0.701447
H192	H	0.563995	0.371903	0.067063
H193	H	0.438899	0.890122	-0.326155
H194	H	0.237167	0.528272	0.112317
Cl195	Cl	0.468728	0.464165	0.083419
Cl196	Cl	0.126855	0.503190	0.139729
H197	H	-0.042800	0.496909	0.067044
H198	H	0.195371	0.765106	-0.067032
Cl199	Cl	-0.070441	0.797849	-0.083411
H200	H	0.304864	0.765112	-0.067023
H201	H	0.563901	0.765113	-0.326151
H202	H	0.563930	0.765111	-0.435640
H203	H	0.621463	0.528274	-0.503399
Cl204	Cl	0.714540	0.464162	-0.670836
Cl205	Cl	0.619157	0.503152	-0.367990
H206	H	0.823049	0.371934	-0.067078
