data_functionalizedCrystal
_audit_creation_method	'MofGen! by Chris Wilmer'
_symmetry_space_group_name_H-M	'P1'
_symmetry_Int_Tables_number	1
_symmetry_cell_setting	triclinic
loop_
_symmetry_equiv_pos_as_xyz
  x,y,z
_cell_length_a	21.395362
_cell_length_b	17.077386
_cell_length_c	17.077402
_cell_angle_alpha	89.893661
_cell_angle_beta	90.038761
_cell_angle_gamma	89.913394
loop_
_atom_site_label
_atom_site_type_symbol
_atom_site_fract_x
_atom_site_fract_y
_atom_site_fract_z
Zn1	Zn	0.958158	-0.444245	-0.311582
Zn2	Zn	0.957997	-0.312976	-0.443032
Zn3	Zn	0.853295	-0.312948	-0.311820
Zn4	Zn	0.853356	-0.444155	-0.442846
O5	O	0.905701	-0.378581	-0.377320
O6	O	1.045814	-0.426881	-0.328997
O7	O	0.944014	-0.203125	-0.425804
O8	O	0.867247	-0.330391	-0.201942
O9	O	1.045696	-0.330438	-0.425573
O10	O	0.944289	-0.426855	-0.201766
O11	O	0.867090	-0.203105	-0.329404
O12	O	0.765625	-0.330304	-0.329223
O13	O	0.867352	-0.554014	-0.425255
O14	O	0.765670	-0.426701	-0.425487
O15	O	0.944349	-0.554081	-0.328816
O16	O	0.944074	-0.330351	-0.552854
O17	O	0.867195	-0.426728	-0.552717
C18	C	0.742914	-0.378490	-0.377362
C19	C	0.673272	-0.378470	-0.377398
C20	C	0.905564	-0.174633	-0.377594
C21	C	0.905612	-0.087383	-0.377514
C22	C	0.905641	-0.378550	-0.581268
C23	C	0.905672	-0.378563	-0.668518
C24	C	0.640599	-0.428589	-0.427589
C25	C	0.575164	-0.428624	-0.427570
C26	C	0.542404	-0.378526	-0.377368
C27	C	0.575085	-0.328403	-0.327167
C28	C	0.640519	-0.328375	-0.327182
C29	C	0.438637	-0.307858	-0.371153
C30	C	0.373204	-0.307885	-0.371144
C31	C	0.340584	-0.378612	-0.377317
C32	C	0.373404	-0.449315	-0.383516
C33	C	0.438838	-0.449287	-0.383531
C34	C	0.471452	-0.378551	-0.377346
C35	C	0.236958	-0.428773	-0.427490
C36	C	0.171521	-0.428810	-0.427465
C37	C	0.171444	-0.328582	-0.327066
C38	C	0.236879	-0.328553	-0.327086
C39	C	0.269632	-0.378647	-0.377303
C40	C	1.069125	-0.378673	-0.377279
C41	C	1.138766	-0.378712	-0.377261
C42	C	0.865436	0.288404	-0.327350
C43	C	0.865397	0.206424	-0.327427
C44	C	0.905720	0.165465	-0.377286
C45	C	0.946081	0.206491	-0.427078
C46	C	0.946117	0.288470	-0.427004
C47	C	0.946005	0.035621	-0.427226
C48	C	0.945971	-0.046363	-0.427299
C49	C	0.865285	-0.046424	-0.327650
C50	C	0.865321	0.035554	-0.327576
C51	C	0.905683	0.076575	-0.377366
C52	C	0.905837	0.416674	-0.377061
C53	C	0.905795	0.329424	-0.377136
C54	C	0.945744	-0.328433	-0.709553
C55	C	0.945775	-0.328453	-0.791533
C56	C	0.905730	-0.378599	-0.832477
C57	C	0.865657	-0.428734	-0.791436
C58	C	0.865630	-0.428718	-0.709457
C59	C	0.865715	-0.428764	-0.962306
C60	C	0.865741	-0.428780	-1.044291
C61	C	0.945860	-0.328500	-1.044382
C62	C	0.945833	-0.328483	-0.962403
C63	C	0.905758	-0.378617	-0.921368
C64	C	0.905779	-0.378630	-0.172576
C65	C	0.905812	-0.378651	-0.085326
H66	H	0.548556	-0.469439	-0.468441
C67	C	0.676625	-0.483700	-0.482819
C68	C	0.667555	-0.477141	-0.572054
C69	C	0.703581	-0.532255	-0.627282
C70	C	0.748677	-0.593929	-0.593275
C71	C	0.757749	-0.600491	-0.504035
C72	C	0.721723	-0.545377	-0.448807
H73	H	0.634170	-0.431484	-0.597232
H74	H	0.696865	-0.527397	-0.693343
H75	H	0.775345	-0.634727	-0.634158
H76	H	0.791133	-0.646148	-0.478857
H77	H	0.728439	-0.550235	-0.382746
H78	H	0.978877	0.069017	-0.467764
C79	C	0.990434	0.161433	-0.481925
C80	C	0.963591	0.105310	-0.543850
C81	C	1.007944	0.060250	-0.598696
C82	C	1.079141	0.071314	-0.591618
C83	C	1.105987	0.127439	-0.529690
C84	C	1.061634	0.172499	-0.474843
H85	H	0.910883	0.097118	-0.549092
H86	H	0.988070	0.018703	-0.644539
H87	H	1.111974	0.037958	-0.632218
H88	H	1.158695	0.135631	-0.524447
H89	H	1.081508	0.214046	-0.429000
C90	C	0.821607	-0.483896	-0.836473
C91	C	0.750375	-0.477378	-0.825311
C92	C	0.706323	-0.532539	-0.870348
C93	C	0.733503	-0.594218	-0.926546
C94	C	0.804739	-0.600738	-0.937711
C95	C	0.848791	-0.545578	-0.892675
H96	H	0.730251	-0.431717	-0.783707
H97	H	0.653589	-0.527712	-0.862082
H98	H	0.700894	-0.635051	-0.959885
H99	H	0.824863	-0.646399	-0.979315
H100	H	0.901525	-0.550405	-0.900940
H101	H	0.978350	-0.287595	-0.676222
C102	C	0.990514	0.333595	-0.481767
C103	C	1.034871	0.288546	-0.536611
C104	C	1.079266	0.333670	-0.591379
C105	C	1.079305	0.423844	-0.591304
C106	C	1.034947	0.468898	-0.536458
C107	C	0.990551	0.423774	-0.481690
H108	H	1.034843	0.221790	-0.536669
H109	H	1.112104	0.300318	-0.631980
H110	H	1.112170	0.457247	-0.631847
H111	H	1.034974	0.535654	-0.536400
H112	H	0.957714	0.457126	-0.441089
C113	C	0.821699	-0.483945	-1.089336
C114	C	0.750465	-0.477441	-1.078185
C115	C	0.706424	-0.532606	-1.123233
C116	C	0.733618	-0.594275	-1.179434
C117	C	0.804856	-0.600780	-1.190588
C118	C	0.848896	-0.545615	-1.145539
H119	H	0.730331	-0.431788	-1.036580
H120	H	0.653689	-0.527790	-1.114976
H121	H	0.701016	-0.635111	-1.212781
H122	H	0.824989	-0.646433	-1.232193
H123	H	0.901631	-0.550432	-1.153796
C124	C	0.272991	-0.483884	-0.482715
C125	C	0.344966	-0.483853	-0.482738
C126	C	0.380998	-0.538965	-0.537962
C127	C	0.345054	-0.594109	-0.593163
C128	C	0.273075	-0.594142	-0.593142
C129	C	0.237044	-0.539030	-0.537918
H130	H	0.371577	-0.443031	-0.441873
H131	H	0.434282	-0.538941	-0.537977
H132	H	0.371727	-0.634907	-0.634043
H133	H	0.246464	-0.634965	-0.634007
H134	H	0.183760	-0.539055	-0.537903
H135	H	0.832422	-0.079827	-0.287107
C136	C	0.337532	-0.527124	-0.390302
C137	C	0.373631	-0.604890	-0.397116
C138	C	0.337755	-0.682695	-0.403904
C139	C	0.265780	-0.682734	-0.403877
C140	C	0.229677	-0.604964	-0.397062
C141	C	0.265553	-0.527159	-0.390275
H142	H	0.426915	-0.604865	-0.397136
H143	H	0.364481	-0.740265	-0.408948
H144	H	0.239223	-0.740330	-0.408901
H145	H	0.176393	-0.604990	-0.397042
H146	H	0.238826	-0.469589	-0.385230
H147	H	0.346486	-0.250314	-0.366101
H148	H	0.978437	-0.287646	-0.929067
C149	C	0.676465	-0.273237	-0.271974
C150	C	0.721333	-0.211529	-0.306008
C151	C	0.757281	-0.156388	-0.250801
C152	C	0.748360	-0.162956	-0.161561
C153	C	0.703490	-0.224666	-0.127522
C154	C	0.667543	-0.279807	-0.182729
H155	H	0.727938	-0.206665	-0.372073
H156	H	0.790496	-0.110706	-0.275999
H157	H	0.774971	-0.122137	-0.120694
H158	H	0.696885	-0.229530	-0.061457
H159	H	0.634327	-0.325489	-0.157531
H160	H	0.978805	-0.079710	-0.467899
C161	C	0.989947	-0.273359	-1.089520
C162	C	1.061172	-0.279873	-1.078132
C163	C	1.105256	-0.224734	-1.123276
C164	C	1.078115	-0.163080	-1.179806
C165	C	1.006887	-0.156562	-1.191197
C166	C	0.962803	-0.211702	-1.146053
H167	H	1.081266	-0.325516	-1.036283
H168	H	1.157984	-0.229559	-1.114844
H169	H	1.110749	-0.122262	-1.213224
H170	H	0.986793	-0.110920	-1.233046
H171	H	0.910075	-0.206877	-1.154485
H172	H	0.833000	-0.469539	-0.676047
C173	C	0.272824	-0.273406	-0.271889
C174	C	0.236794	-0.218293	-0.216671
C175	C	0.272739	-0.163142	-0.161471
C176	C	0.344714	-0.163104	-0.161491
C177	C	0.380748	-0.218219	-0.216711
C178	C	0.344803	-0.273370	-0.271910
H179	H	0.183510	-0.218319	-0.216655
H180	H	0.246064	-0.122342	-0.120594
H181	H	0.371322	-0.122278	-0.120629
H182	H	0.434032	-0.218193	-0.216727
H183	H	0.371478	-0.314170	-0.312788
C184	C	0.474515	-0.230052	-0.364357
C185	C	0.438418	-0.152284	-0.357546
C186	C	0.474296	-0.074481	-0.350746
C187	C	0.546271	-0.074447	-0.350756
C188	C	0.582372	-0.152219	-0.357568
C189	C	0.546494	-0.230021	-0.364368
H190	H	0.385134	-0.152306	-0.357538
H191	H	0.447571	-0.016910	-0.345704
H192	H	0.572830	-0.016854	-0.345722
H193	H	0.635656	-0.152196	-0.357576
H194	H	0.573219	-0.287593	-0.369410
C195	C	0.821005	0.161306	-0.272654
C196	C	0.749819	0.172787	-0.279706
C197	C	0.705425	0.127671	-0.224928
C198	C	0.732217	0.071074	-0.163098
C199	C	0.803407	0.059590	-0.156044
C200	C	0.847801	0.104706	-0.210822
H201	H	0.729982	0.214686	-0.325478
H202	H	0.652726	0.136172	-0.230150
H203	H	0.699355	0.037676	-0.122549
H204	H	0.823244	0.017691	-0.110272
H205	H	0.900500	0.096205	-0.205599
H206	H	0.833084	-0.469592	-0.928898
C207	C	0.989858	-0.273310	-0.836667
C208	C	0.984724	-0.184063	-0.825587
C209	C	1.028812	-0.128919	-0.870718
C210	C	1.078036	-0.163023	-0.926929
C211	C	1.083172	-0.252276	-0.938012
C212	C	1.039083	-0.307419	-0.892880
H213	H	0.948284	-0.158812	-0.783974
H214	H	1.025010	-0.062849	-0.862514
H215	H	1.110673	-0.122203	-0.960338
H216	H	1.119612	-0.277526	-0.979624
H217	H	1.042886	-0.373489	-0.901085
H218	H	0.465558	-0.506856	-0.388576
H219	H	0.144772	-0.287795	-0.286186
H220	H	0.144920	-0.469627	-0.468335
H221	H	0.832603	0.321747	-0.286744
H222	H	0.548408	-0.287615	-0.286291
H223	H	0.832489	0.068901	-0.286972
