data_functionalizedCrystal
_audit_creation_method	'MofGen! by Chris Wilmer'
_symmetry_space_group_name_H-M	'P1'
_symmetry_Int_Tables_number	1
_symmetry_cell_setting	triclinic
loop_
_symmetry_equiv_pos_as_xyz
  x,y,z
_cell_length_a	14.519709
_cell_length_b	11.792241
_cell_length_c	10.268362
_cell_angle_alpha	89.994572
_cell_angle_beta	90.001032
_cell_angle_gamma	83.936780
loop_
_atom_site_label
_atom_site_type_symbol
_atom_site_fract_x
_atom_site_fract_y
_atom_site_fract_z
O1	O	1.224412	0.148781	-0.108131
O2	O	1.724412	0.648781	0.391869
O3	O	0.955999	0.166302	-0.108171
O4	O	1.455999	0.666302	0.391829
O5	O	1.096719	-0.007665	-0.108141
O6	O	1.596719	0.492335	0.391859
O7	O	1.083692	0.322748	-0.108161
O8	O	1.583692	0.822748	0.391839
O9	O	1.096707	-0.007672	0.108460
O10	O	1.596707	0.492328	0.608460
O11	O	0.955987	0.166295	0.108430
O12	O	1.455987	0.666295	0.608430
O13	O	1.224400	0.148774	0.108470
O14	O	1.724400	0.648774	0.608470
Cu15	Cu	1.090192	0.157534	0.128227
Cu16	Cu	1.590192	0.657534	0.628227
Cu17	Cu	1.090207	0.157542	-0.127928
Cu18	Cu	1.590207	0.657542	0.372072
O19	O	1.083680	0.322741	0.108440
O20	O	1.583680	0.822741	0.608440
C21	C	1.095895	-0.049955	0.000159
C22	C	1.595895	0.450045	0.500159
C23	C	1.093446	-0.175955	0.000157
C24	C	1.593446	0.324045	0.500157
C25	C	0.921630	0.165482	0.000124
C26	C	1.421630	0.665482	0.500124
C27	C	0.819240	0.163035	0.000109
C28	C	1.319240	0.663035	0.500109
C29	C	1.088942	-0.406642	0.000135
C30	C	1.588942	0.093358	0.500135
C31	C	1.091444	-0.278271	0.000147
C32	C	1.591444	0.221729	0.500147
C33	C	0.444311	0.154027	0.000169
C34	C	0.944311	0.654027	0.500169
C35	C	0.548628	0.156528	0.000152
C36	C	1.048628	0.656528	0.500152
C37	C	0.631772	0.158531	0.000138
C38	C	1.131772	0.658531	0.500138
C39	C	0.736096	0.161033	0.000123
C40	C	1.236096	0.661033	0.500123
C41	C	1.258769	0.149594	0.000171
C42	C	1.758769	0.649594	0.500171
C43	C	1.361159	0.152041	0.000178
C44	C	1.861159	0.652041	0.500178
C45	C	1.084504	0.365031	0.000137
C46	C	1.584504	0.865031	0.500137
C47	C	1.086954	0.491031	0.000130
C48	C	1.586954	0.991031	0.500130
N49	N	1.090189	0.157527	0.308393
N50	N	1.590189	0.657527	0.808393
N51	N	1.090218	0.157540	-0.308094
N52	N	1.590218	0.657540	0.191906
C53	C	1.090202	0.157540	0.574063
C54	C	1.590202	0.657540	1.074063
C55	C	1.090192	0.157536	0.426226
C56	C	1.590192	0.657536	0.926226
