data_functionalizedCrystal
_audit_creation_method	'MofGen! by Chris Wilmer'
_symmetry_space_group_name_H-M	'P1'
_symmetry_Int_Tables_number	1
_symmetry_cell_setting	triclinic
loop_
_symmetry_equiv_pos_as_xyz
  x,y,z
_cell_length_a	10.540539
_cell_length_b	17.699083
_cell_length_c	16.176319
_cell_angle_alpha	90.007696
_cell_angle_beta	90.005336
_cell_angle_gamma	83.904253
loop_
_atom_site_label
_atom_site_type_symbol
_atom_site_fract_x
_atom_site_fract_y
_atom_site_fract_z
O1	O	-1.683942	-0.106662	-0.068709
O2	O	-1.314345	-0.116711	-0.068720
O3	O	-1.509585	-0.001565	-0.068707
O4	O	-1.488701	-0.221808	-0.068722
O5	O	-1.509558	-0.001558	0.068786
O6	O	-1.314318	-0.116704	0.068773
O7	O	-1.683915	-0.106654	0.068784
Cu8	Cu	-1.499114	-0.111678	0.081333
Cu9	Cu	-1.499146	-0.111687	-0.081269
O10	O	-1.488674	-0.221800	0.068771
C11	C	-1.267042	-0.115954	0.000026
C12	C	-1.126135	-0.113699	0.000022
C13	C	-1.508823	0.026641	0.000040
C14	C	-1.506578	0.110673	0.000040
C15	C	-1.731217	-0.107412	0.000037
C16	C	-1.872124	-0.109666	0.000035
C17	C	-0.944289	-0.027300	0.000349
C18	C	-1.090865	-0.029586	0.000030
C19	C	-1.063738	-0.154182	-0.078493
C20	C	-0.917246	-0.151311	-0.078550
C21	C	-0.916695	-0.153014	0.077805
C22	C	-1.063663	-0.153789	0.078834
C23	C	-1.489436	-0.250006	0.000022
C24	C	-1.491681	-0.334038	0.000017
N25	N	-1.499101	-0.111671	0.195698
C26	C	-1.621180	0.158549	0.000044
C27	C	-1.619064	0.237506	0.000037
C28	C	-1.502343	0.268586	0.000031
C29	C	-1.387732	0.220704	0.000024
C30	C	-1.389851	0.141748	0.000026
C31	C	-1.379187	0.539122	0.000017
C32	C	-1.377078	0.618084	0.000018
C33	C	-1.608400	0.634880	0.000029
C34	C	-1.610518	0.555925	0.000030
C35	C	-1.495908	0.508050	0.000019
C36	C	-1.498205	0.422436	0.000025
C37	C	-1.500045	0.354198	0.000031
N38	N	-1.499169	-0.111688	-0.195634
C39	C	-1.585579	-0.060706	0.238968
C40	C	-1.585586	-0.060705	0.325515
C41	C	-1.499119	-0.111674	0.368791
C42	C	-1.412631	-0.162642	0.325515
C43	C	-1.412620	-0.162639	0.238969
C44	C	-1.412675	-0.162656	0.674543
C45	C	-1.412695	-0.162658	0.761095
C46	C	-1.585641	-0.060723	0.761089
C47	C	-1.585629	-0.060720	0.674543
C48	C	-1.499138	-0.111684	0.631275
C49	C	-1.499130	-0.111684	0.537431
C50	C	-1.499131	-0.111679	0.462633
H51	H	-1.134050	0.002268	0.056314
C52	C	-1.094854	-0.236635	0.085236
H53	H	-1.055924	-0.259430	0.133381
H54	H	-1.063217	-0.264066	0.037756
H55	H	-1.184670	-0.237520	0.088530
H56	H	-0.868357	-0.213768	0.078331
C57	C	-0.904313	0.017402	-0.075282
H58	H	-0.843838	-0.013914	-0.107050
H59	H	-0.867237	0.061170	-0.057221
H60	H	-0.977206	0.032516	-0.108244
C61	C	-1.317574	-0.218733	0.626955
H62	H	-1.329942	-0.211434	0.569213
H63	H	-1.331225	-0.269320	0.641136
H64	H	-1.232878	-0.210036	0.641145
H65	H	-1.342222	-0.204139	0.360755
H66	H	-1.712384	0.276484	0.000042
C67	C	-0.879884	-0.110895	-0.157825
H68	H	-0.954203	-0.096378	-0.189689
H69	H	-0.822218	-0.144398	-0.189216
H70	H	-0.840205	-0.066960	-0.143472
H71	H	-1.296530	0.102768	0.000022
C72	C	-1.749575	0.124368	0.000051
H73	H	-1.817523	0.164193	0.000044
H74	H	-1.755204	0.093923	0.047998
H75	H	-1.755217	0.093912	-0.047902
H76	H	-1.705564	0.530624	0.000039
C77	C	-1.734471	0.687545	0.000027
H78	H	-1.716499	0.739020	0.000015
H79	H	-1.782333	0.678064	0.047976
H80	H	-1.782347	0.678046	-0.047924
C81	C	-1.680692	-0.004638	0.191372
H82	H	-1.732188	0.025720	0.229541
H83	H	-1.733440	-0.032164	0.157597
H84	H	-1.635119	0.027135	0.157625
H85	H	-1.342199	-0.204139	0.203740
C86	C	-1.148080	0.013727	-0.076134
H87	H	-1.237962	0.012481	-0.076587
H88	H	-1.112405	-0.009558	-0.124970
H89	H	-1.129185	0.064986	-0.073828
H90	H	-0.916300	0.005933	0.056657
C91	C	-0.850943	-0.233027	-0.083392
H92	H	-0.913575	-0.267829	-0.085321
H93	H	-0.798576	-0.243191	-0.036051
H94	H	-0.799793	-0.238476	-0.131812
H95	H	-1.084961	-0.215953	-0.081419
C96	C	-1.248680	0.652270	0.000001
H97	H	-1.180724	0.612450	-0.000015
H98	H	-1.243026	0.682728	0.047946
H99	H	-1.243073	0.682716	-0.047954
C100	C	-1.680724	-0.004650	0.373108
H101	H	-1.732231	0.025697	0.334940
H102	H	-1.635184	0.027123	0.406884
H103	H	-1.733475	-0.032193	0.406855
H104	H	-1.285864	0.500152	0.000008
H105	H	-1.292697	0.246015	0.000014
H106	H	-1.105155	-0.124214	0.136919
C107	C	-1.121968	-0.116206	-0.157430
H108	H	-1.083594	-0.141109	-0.204614
H109	H	-1.107016	-0.064220	-0.158132
H110	H	-1.211227	-0.119872	-0.158246
C111	C	-0.874740	-0.116239	0.158204
H112	H	-0.829646	-0.074098	0.145090
H113	H	-0.820847	-0.152468	0.188855
H114	H	-0.947852	-0.099444	0.190258
C115	C	-1.680772	-0.004653	0.808682
H116	H	-1.732274	0.025696	0.770512
H117	H	-1.635221	0.027117	0.842454
H118	H	-1.733530	-0.032189	0.842432
H119	H	-1.656042	-0.019219	0.639311
H120	H	-1.342279	-0.204164	0.796328
