data_functionalizedCrystal
_audit_creation_method	'MofGen! by Chris Wilmer'
_symmetry_space_group_name_H-M	'P1'
_symmetry_Int_Tables_number	1
_symmetry_cell_setting	triclinic
loop_
_symmetry_equiv_pos_as_xyz
  x,y,z
_cell_length_a	19.077105
_cell_length_b	13.897448
_cell_length_c	19.077569
_cell_angle_alpha	87.677269
_cell_angle_beta	85.299277
_cell_angle_gamma	87.714101
loop_
_atom_site_label
_atom_site_type_symbol
_atom_site_fract_x
_atom_site_fract_y
_atom_site_fract_z
Zn1	Zn	1.093753	-0.420033	-0.441858
Zn2	Zn	1.593753	0.079967	0.058142
Zn3	Zn	1.088950	-0.587564	-0.323971
Zn4	Zn	1.588950	-0.087564	0.176029
Zn5	Zn	0.971135	-0.420047	-0.319253
Zn6	Zn	1.471135	0.079953	0.180747
Zn7	Zn	0.975846	-0.575047	-0.437091
Zn8	Zn	1.475846	-0.075047	0.062909
O9	O	1.032421	-0.500673	-0.380543
O10	O	1.532421	-0.000673	0.119457
O11	O	1.191767	-0.447489	-0.430189
O12	O	1.691767	0.052511	0.069811
O13	O	1.069341	-0.570587	-0.224694
O14	O	1.569341	-0.070587	0.275306
O15	O	0.987440	-0.285064	-0.335538
O16	O	1.487440	0.214936	0.164462
O17	O	1.188238	-0.570573	-0.343578
O18	O	1.688238	-0.070573	0.156422
O19	O	1.077526	-0.285054	-0.425615
O20	O	1.577526	0.214946	0.074385
O21	O	0.982782	-0.447512	-0.221228
O22	O	1.482782	0.052488	0.278772
O23	O	0.873110	-0.435375	-0.330915
O24	O	1.373110	0.064625	0.169085
O25	O	0.995468	-0.549240	-0.536374
O26	O	1.495468	-0.049240	-0.036374
O27	O	0.876570	-0.549254	-0.417490
O28	O	1.376570	-0.049254	0.082510
O29	O	1.082094	-0.435352	-0.539877
O30	O	1.582094	0.064648	-0.039877
O31	O	1.073908	-0.720884	-0.338956
O32	O	1.573908	-0.220884	0.161044
O33	O	0.990810	-0.711688	-0.422064
O34	O	1.490810	-0.211688	0.077936
C35	C	0.849261	-0.490959	-0.373174
C36	C	1.349261	0.009041	0.126826
C37	C	0.770905	-0.486825	-0.370038
C38	C	1.270905	0.013175	0.129962
C39	C	1.032369	-0.751285	-0.380521
C40	C	1.532369	-0.251285	0.119479
C41	C	1.032412	-0.858501	-0.380537
C42	C	1.532412	-0.358501	0.119463
C43	C	0.735910	-0.544270	-0.413568
C44	C	1.235910	-0.044270	0.086432
C45	C	0.662286	-0.540374	-0.410625
C46	C	1.162286	-0.040374	0.089375
C47	C	0.623658	-0.479036	-0.364147
C48	C	1.123658	0.020964	0.135853
C49	C	0.658658	-0.421585	-0.320615
C50	C	1.158658	0.078415	0.179385
C51	C	0.732281	-0.425477	-0.323562
C52	C	1.232281	0.074523	0.176438
C53	C	0.403276	-0.461022	-0.350510
C54	C	0.903276	0.038978	0.149490
C55	C	0.329648	-0.457136	-0.347564
C56	C	0.829648	0.042864	0.152436
C57	C	0.333281	-0.575925	-0.437576
C58	C	0.833281	-0.075925	0.062424
C59	C	0.406905	-0.579816	-0.440516
C60	C	0.906905	-0.079816	0.059484
C61	C	0.441898	-0.522360	-0.396986
C62	C	0.941898	-0.022360	0.103014
N63	N	0.548403	-0.475054	-0.361136
N64	N	1.048403	0.024946	0.138864
N65	N	0.517153	-0.526338	-0.400002
N66	N	1.017153	-0.026338	0.099998
C67	C	1.032488	-1.054797	-0.380584
C68	C	1.532488	-0.554797	0.119416
C69	C	1.032444	-0.945564	-0.380560
C70	C	1.532444	-0.445564	0.119440
C71	C	1.216297	-0.510426	-0.387942
C72	C	1.716297	-0.010426	0.112058
C73	C	1.294653	-0.514582	-0.391095
C74	C	1.794653	-0.014582	0.108905
C75	C	1.039842	-0.490898	-0.564420
C76	C	1.539842	0.009102	-0.064420
C77	C	1.043004	-0.486733	-0.642777
C78	C	1.543004	0.013267	-0.142777
C79	C	1.032493	-0.249082	-0.380582
C80	C	1.532493	0.250918	0.119418
C81	C	1.032524	-0.141868	-0.380598
C82	C	1.532524	0.358132	0.119402
C83	C	0.999389	-0.544067	-0.677767
C84	C	1.499389	-0.044067	-0.177767
C85	C	1.002366	-0.540154	-0.751392
C86	C	1.502366	-0.040154	-0.251392
C87	C	1.048955	-0.478900	-0.790026
C88	C	1.548955	0.021100	-0.290026
C89	C	1.092575	-0.421564	-0.755031
C90	C	1.592575	0.078436	-0.255031
C91	C	1.089601	-0.425483	-0.681407
C92	C	1.589601	0.074517	-0.181407
C93	C	1.062690	-0.460825	-1.010413
C94	C	1.562690	0.039175	-0.510413
C95	C	1.065659	-0.456908	-1.084042
C96	C	1.565659	0.043092	-0.584042
C97	C	0.975451	-0.575500	-1.080398
C98	C	1.475451	-0.075500	-0.580398
C99	C	0.972478	-0.579409	-1.006773
C100	C	1.472478	-0.079409	-0.506773
C101	C	1.016100	-0.522077	-0.971785
C102	C	1.516100	-0.022077	-0.471785
N103	N	1.051998	-0.474896	-0.865283
N104	N	1.551998	0.025104	-0.365283
N105	N	1.013061	-0.526086	-0.896529
N106	N	1.513061	-0.026086	-0.396529
C107	C	1.025070	-0.510342	-0.197383
C108	C	1.525070	-0.010342	0.302617
C109	C	1.022044	-0.514243	-0.119032
C110	C	1.522044	-0.014243	0.380968
H111	H	0.633797	-0.587153	-0.446071
H112	H	1.133797	-0.087153	0.053929
O113	O	0.287980	-0.390970	-0.297438
O114	O	0.787980	0.109030	0.202562
H115	H	0.324682	-0.351663	-0.267669
H116	H	0.824682	0.148337	0.232331
O117	O	0.949128	-0.610128	-0.636108
O118	O	1.449128	-0.110128	-0.136108
H119	H	0.979302	-0.662664	-0.603820
H120	H	1.479302	-0.162664	-0.103820
H121	H	0.966851	-0.586842	-0.779878
H122	H	1.466851	-0.086842	-0.279878
H123	H	0.760772	-0.378694	-0.288119
H124	H	1.260772	0.121306	0.211881
H125	H	0.934551	-0.629304	-0.975323
H126	H	1.434551	-0.129304	-0.475323
O127	O	0.448569	-0.645963	-0.490652
O128	O	0.948569	-0.145963	0.009348
H129	H	0.411866	-0.685247	-0.520433
H130	H	0.911866	-0.185247	-0.020433
H131	H	0.939936	-0.622177	-1.108894
H132	H	1.439936	-0.122177	-0.608894
H133	H	0.304782	-0.622700	-0.473016
H134	H	0.804782	-0.122700	0.026984
O135	O	0.616985	-0.355439	-0.270484
O136	O	1.116985	0.144561	0.229516
H137	H	0.631609	-0.279854	-0.283236
H138	H	1.131609	0.220146	0.216764
H139	H	1.130512	-0.371695	-0.786493
H140	H	1.630512	0.128305	-0.286493
O141	O	1.136641	-0.363643	-0.643662
O142	O	1.636641	0.136357	-0.143662
H143	H	1.169532	-0.320384	-0.682894
H144	H	1.669532	0.179616	-0.182894
O145	O	0.441014	-0.399087	-0.303541
O146	O	0.941014	0.100913	0.196459
H147	H	0.401782	-0.355802	-0.270716
H148	H	0.901782	0.144198	0.229284
O149	O	0.777574	-0.610410	-0.463710
O150	O	1.277574	-0.110410	0.036290
H151	H	0.809827	-0.662881	-0.433447
H152	H	1.309827	-0.162881	0.066553
H153	H	1.103595	-0.407020	-1.115496
H154	H	1.603595	0.092980	-0.615496
H155	H	1.098210	-0.414141	-0.981935
H156	H	1.598210	0.085859	-0.481935
