data_functionalizedCrystal
_audit_creation_method	'MofGen! by Chris Wilmer'
_symmetry_space_group_name_H-M	'P1'
_symmetry_Int_Tables_number	1
_symmetry_cell_setting	triclinic
loop_
_symmetry_equiv_pos_as_xyz
  x,y,z
_cell_length_a	14.472311
_cell_length_b	16.992694
_cell_length_c	16.974813
_cell_angle_alpha	92.975366
_cell_angle_beta	86.337154
_cell_angle_gamma	89.999197
loop_
_atom_site_label
_atom_site_type_symbol
_atom_site_fract_x
_atom_site_fract_y
_atom_site_fract_z
O1	O	-0.089260	-1.040211	0.167654
O2	O	0.244074	-0.706878	0.500987
O3	O	0.577407	-0.373544	0.834321
O4	O	-0.089149	-0.811928	0.165815
O5	O	0.244184	-0.478594	0.499148
O6	O	0.577517	-0.145261	0.832481
O7	O	-0.080622	-0.932433	0.052033
O8	O	0.252711	-0.599100	0.385366
O9	O	0.586044	-0.265767	0.718699
O10	O	-0.097787	-0.919706	0.281436
O11	O	0.235547	-0.586372	0.614770
O12	O	0.568880	-0.253039	0.948103
O13	O	0.073061	-0.932422	0.052020
O14	O	0.406394	-0.599089	0.385353
O15	O	0.739727	-0.265756	0.718687
O16	O	0.064534	-0.811917	0.165802
O17	O	0.397867	-0.478584	0.499136
O18	O	0.731200	-0.145250	0.832469
O19	O	0.064423	-1.040200	0.167642
O20	O	0.397757	-0.706867	0.500975
O21	O	0.731090	-0.373534	0.834308
Cu22	Cu	0.078511	-0.926058	0.166721
Cu23	Cu	0.411844	-0.592724	0.500054
Cu24	Cu	0.745178	-0.259391	0.833387
Cu25	Cu	-0.103237	-0.926070	0.166736
Cu26	Cu	0.230096	-0.592737	0.500069
Cu27	Cu	0.563430	-0.259404	0.833402
O28	O	0.055896	-0.919695	0.281424
O29	O	0.389229	-0.586361	0.614757
O30	O	0.722563	-0.253028	0.948090
C31	C	-0.012134	-0.782712	0.163442
C32	C	0.321199	-0.449379	0.496776
C33	C	0.654532	-0.116046	0.830109
C34	C	-0.011617	-0.695676	0.156383
C35	C	0.321716	-0.362342	0.489716
C36	C	0.655050	-0.029009	0.823049
N37	N	0.206343	-0.926054	0.166710
N38	N	0.539676	-0.592721	0.500044
N39	N	0.873009	-0.259388	0.833377
N40	N	-0.231068	-0.926080	0.166740
N41	N	0.102265	-0.592747	0.500074
N42	N	0.435598	-0.259413	0.833407
C43	C	0.394842	-0.926063	0.166721
C44	C	0.728175	-0.592729	0.500054
C45	C	1.061509	-0.259396	0.833387
C46	C	0.438605	-0.990558	0.105861
C47	C	0.771938	-0.657225	0.439195
C48	C	1.105271	-0.323891	0.772528
C49	C	0.545679	-0.990791	0.106049
C50	C	0.879012	-0.657458	0.439382
C51	C	1.212345	-0.324125	0.772715
C52	C	0.580432	-0.926071	0.166730
C53	C	0.913766	-0.592738	0.500063
C54	C	1.247099	-0.259405	0.833396
C55	C	0.535278	-0.943512	0.250436
C56	C	0.868612	-0.610178	0.583769
C57	C	1.201945	-0.276845	0.917103
C58	C	0.428184	-0.943970	0.250079
C59	C	0.761517	-0.610636	0.583413
C60	C	1.094850	-0.277303	0.916746
C61	C	0.435978	-0.843933	0.144605
C62	C	0.769311	-0.510600	0.477938
C63	C	1.102644	-0.177267	0.811272
C64	C	0.543243	-0.844491	0.142771
C65	C	0.876577	-0.511158	0.476104
C66	C	1.209910	-0.177824	0.809438
C67	C	0.685320	-0.926075	0.166740
C68	C	1.018653	-0.592741	0.500073
C69	C	1.351986	-0.259408	0.833407
C70	C	0.289954	-0.926061	0.166716
C71	C	0.623287	-0.592728	0.500049
C72	C	0.956621	-0.259395	0.833383
C73	C	-0.001577	-0.931944	0.022537
C74	C	0.331757	-0.598610	0.355871
C75	C	0.665090	-0.265277	0.689204
C76	C	0.004991	-0.930491	-0.065332
C77	C	0.338325	-0.597158	0.268002
C78	C	0.671658	-0.263825	0.601335
C79	C	-0.012594	-1.069416	0.170014
C80	C	0.320740	-0.736082	0.503347
C81	C	0.654073	-0.402749	0.836681
C82	C	-0.013117	-1.156452	0.177074
C83	C	0.320216	-0.823119	0.510407
C84	C	0.653549	-0.489786	0.843740
C85	C	-0.016713	-0.645362	0.224499
C86	C	0.316621	-0.312029	0.557832
C87	C	0.649954	0.021305	0.891165
C88	C	-0.016203	-0.563582	0.217861
C89	C	0.317130	-0.230249	0.551194
C90	C	0.650463	0.103084	0.884527
C91	C	-0.010605	-0.532118	0.143106
C92	C	0.322729	-0.198785	0.476439
C93	C	0.656062	0.134548	0.809773
C94	C	-0.005506	-0.582439	0.074985
C95	C	0.327828	-0.249105	0.408318
C96	C	0.661161	0.084228	0.741652
C97	C	-0.006008	-0.664217	0.081624
C98	C	0.327325	-0.330883	0.414957
C99	C	0.660658	0.002450	0.748290
C100	C	-0.008521	-0.288550	0.115591
C101	C	0.324812	0.044783	0.448925
C102	C	0.658145	0.378116	0.782258
C103	C	-0.008021	-0.206766	0.108958
C104	C	0.325312	0.126567	0.442291
C105	C	0.658645	0.459901	0.775624
C106	C	-0.018718	-0.187915	0.251834
C107	C	0.314616	0.145418	0.585167
C108	C	0.647949	0.478751	0.918501
C109	C	-0.019226	-0.269696	0.258466
C110	C	0.314108	0.063638	0.591800
C111	C	0.647441	0.396971	0.925133
C112	C	-0.014122	-0.320009	0.190345
C113	C	0.319212	0.013325	0.523678
C114	C	0.652545	0.346658	0.857012
N115	N	-0.010087	-0.448527	0.136319
N116	N	0.323247	-0.115194	0.469653
N117	N	0.656580	0.218140	0.802986
N118	N	-0.014633	-0.403599	0.197133
N119	N	0.318700	-0.070265	0.530466
N120	N	0.652034	0.263068	0.863799
C121	C	-0.075695	-0.929817	-0.106601
C122	C	0.257638	-0.596483	0.226732
C123	C	0.590972	-0.263150	0.560065
C124	C	-0.069521	-0.928447	-0.189163
C125	C	0.263812	-0.595114	0.144170
C126	C	0.597146	-0.261781	0.477503
C127	C	0.017340	-0.927758	-0.230454
C128	C	0.350674	-0.594425	0.102879
C129	C	0.684007	-0.261091	0.436212
C130	C	0.098033	-0.928430	-0.189179
C131	C	0.431366	-0.595097	0.144154
C132	C	0.764700	-0.261763	0.477488
C133	C	0.091858	-0.929794	-0.106618
C134	C	0.425191	-0.596461	0.226715
C135	C	0.758524	-0.263127	0.560049
C136	C	0.044792	-0.923673	-0.477376
C137	C	0.378125	-0.590339	-0.144042
C138	C	0.711458	-0.257006	0.189291
C139	C	0.050961	-0.922311	-0.559942
C140	C	0.384294	-0.588978	-0.226609
C141	C	0.717627	-0.255644	0.106724
C142	C	-0.116594	-0.922327	-0.559921
C143	C	0.216740	-0.588993	-0.226588
C144	C	0.550073	-0.255660	0.106746
C145	C	-0.122761	-0.923696	-0.477359
C146	C	0.210572	-0.590362	-0.144025
C147	C	0.543906	-0.257029	0.189308
C148	C	-0.042069	-0.924363	-0.436090
C149	C	0.291264	-0.591030	-0.102757
C150	C	0.624598	-0.257697	0.230576
N151	N	0.023654	-0.926360	-0.314846
N152	N	0.356987	-0.593027	0.018487
N153	N	0.690320	-0.259694	0.351820
N154	N	-0.048383	-0.925755	-0.351700
N155	N	0.284951	-0.592422	-0.018366
N156	N	0.618284	-0.259089	0.314967
C157	C	-0.023152	-0.920184	0.310919
C158	C	0.310182	-0.586851	0.644252
C159	C	0.643515	-0.253518	0.977586
C160	C	-0.029726	-0.921637	0.398788
C161	C	0.303608	-0.588303	0.732121
C162	C	0.636941	-0.254970	1.065455
H163	H	0.576617	-0.980469	0.044003
H164	H	0.909950	-0.647136	0.377337
H165	H	1.243284	-0.313802	0.710670
H166	H	0.168757	-0.927864	-0.222804
H167	H	0.502091	-0.594531	0.110529
H168	H	0.835424	-0.261197	0.443862
H169	H	0.157561	-0.930332	-0.073017
H170	H	0.490895	-0.596999	0.260317
H171	H	0.824228	-0.263666	0.593650
Cl172	Cl	-0.170960	-0.927601	-0.241042
Cl173	Cl	0.162373	-0.594267	0.092291
Cl174	Cl	0.495706	-0.260934	0.425625
Cl175	Cl	-0.231963	-0.924564	-0.425456
Cl176	Cl	0.101370	-0.591231	-0.092123
Cl177	Cl	0.434704	-0.257897	0.241211
H178	H	-0.146427	-0.930382	-0.072988
H179	H	0.186906	-0.597049	0.260345
H180	H	0.520240	-0.263716	0.593678
Cl181	Cl	0.589627	-0.824028	0.047667
Cl182	Cl	0.922961	-0.490695	0.381000
Cl183	Cl	1.256294	-0.157361	0.714334
Cl184	Cl	0.391707	-0.769840	0.213027
Cl185	Cl	0.725041	-0.436506	0.546360
Cl186	Cl	1.058374	-0.103173	0.879694
Cl187	Cl	0.579784	-0.766967	0.206132
Cl188	Cl	0.913118	-0.433634	0.539465
Cl189	Cl	1.246451	-0.100300	0.872798
Cl190	Cl	0.000402	-0.727469	-0.004012
Cl191	Cl	0.333735	-0.394136	0.329322
Cl192	Cl	0.667069	-0.060802	0.662655
H193	H	-0.023795	-0.295307	0.319339
H194	H	0.309538	0.038026	0.652673
H195	H	0.642871	0.371360	0.986006
H196	H	-0.022871	-0.146942	0.307294
H197	H	0.310462	0.186391	0.640627
H198	H	0.643796	0.519725	0.973961
H199	H	-0.182289	-0.921781	-0.593531
H200	H	0.151045	-0.588448	-0.260197
H201	H	0.484378	-0.255115	0.073136
H202	H	0.121697	-0.921746	-0.593559
H203	H	0.455031	-0.588412	-0.260226
H204	H	0.788364	-0.255079	0.073108
Cl205	Cl	-0.000962	-0.167213	0.014973
Cl206	Cl	0.332372	0.166120	0.348307
Cl207	Cl	0.665705	0.499454	0.681640
H208	H	0.417489	-0.980420	0.043624
H209	H	0.750822	-0.647087	0.376958
H210	H	1.084156	-0.313753	0.710291
Cl211	Cl	0.146235	-0.924500	-0.425505
Cl212	Cl	0.479568	-0.591167	-0.092172
Cl213	Cl	0.812901	-0.257834	0.241162
Cl214	Cl	-0.002106	-0.351790	0.029952
Cl215	Cl	0.331228	-0.018457	0.363285
Cl216	Cl	0.664561	0.314876	0.696619
H217	H	0.410588	-1.051169	0.120377
H218	H	0.743921	-0.717836	0.453710
H219	H	1.077255	-0.384502	0.787044
H220	H	0.401803	-1.003853	0.268730
H221	H	0.735137	-0.670520	0.602063
H222	H	1.068470	-0.337187	0.935397
Cl223	Cl	0.583554	-1.084902	0.128754
Cl224	Cl	0.916887	-0.751568	0.462088
Cl225	Cl	1.250220	-0.418235	0.795421
H226	H	-0.020354	-0.522620	0.273328
H227	H	0.312979	-0.189286	0.606662
H228	H	0.646313	0.144047	0.939995
Cl229	Cl	0.574505	-1.034909	0.279719
Cl230	Cl	0.907838	-0.701576	0.613053
Cl231	Cl	1.241172	-0.368242	0.946386
H232	H	-0.021273	-0.670973	0.285372
H233	H	0.312061	-0.337640	0.618705
H234	H	0.645394	-0.004306	0.952039
Cl235	Cl	0.001539	-0.542884	-0.018993
Cl236	Cl	0.334872	-0.209550	0.314340
Cl237	Cl	0.668205	0.123783	0.647674
H238	H	0.398742	-0.898630	0.296886
H239	H	0.732076	-0.565297	0.630220
H240	H	1.065409	-0.231964	0.963553
H241	H	0.557241	-0.897769	0.297045
H242	H	0.890575	-0.564436	0.630379
H243	H	1.223908	-0.231102	0.963712
H244	H	0.413459	-0.827068	0.084573
H245	H	0.746792	-0.493735	0.417907
H246	H	1.080126	-0.160402	0.751240
