data_functionalizedCrystal
_audit_creation_method	'MofGen! by Chris Wilmer'
_symmetry_space_group_name_H-M	'P1'
_symmetry_Int_Tables_number	1
_symmetry_cell_setting	triclinic
loop_
_symmetry_equiv_pos_as_xyz
  x,y,z
_cell_length_a	13.032831
_cell_length_b	29.839131
_cell_length_c	13.032268
_cell_angle_alpha	97.140540
_cell_angle_beta	90.886977
_cell_angle_gamma	82.845366
loop_
_atom_site_label
_atom_site_type_symbol
_atom_site_fract_x
_atom_site_fract_y
_atom_site_fract_z
Zn1	Zn	1.498202	-0.303377	-0.780727
Zn2	Zn	1.519883	-0.370307	-0.608723
Zn3	Zn	1.348078	-0.284611	-0.586974
Zn4	Zn	1.326134	-0.367878	-0.758849
O5	O	1.423074	-0.331543	-0.683818
O6	O	1.644991	-0.321125	-0.776168
O7	O	1.515350	-0.352102	-0.461924
O8	O	1.368102	-0.224242	-0.612730
O9	O	1.660920	-0.370299	-0.649797
O10	O	1.478398	-0.238029	-0.755079
O11	O	1.389125	-0.289141	-0.445945
O12	O	1.201254	-0.286786	-0.591516
O13	O	1.330702	-0.366159	-0.905665
O14	O	1.185132	-0.347962	-0.717792
O15	O	1.457120	-0.318770	-0.921739
O16	O	1.494072	-0.432843	-0.628583
O17	O	1.351725	-0.431059	-0.738880
C18	C	1.155878	-0.315075	-0.649920
C19	C	1.041567	-0.308042	-0.635443
C20	C	0.982667	-0.335214	-0.691374
C21	C	0.864520	-0.327945	-0.676412
C22	C	1.422895	-0.448252	-0.683744
C23	C	1.422908	-0.498188	-0.683758
C24	C	1.497302	-0.808772	-0.626498
C25	C	1.497423	-0.996455	-0.626554
O26	O	1.560533	-1.021509	-0.577811
N27	N	1.423278	-1.019002	-0.683923
C28	C	1.349100	-0.994626	-0.741287
O29	O	1.286044	-1.018111	-0.790093
C30	C	1.348984	-0.806945	-0.741236
C31	C	1.423128	-0.784399	-0.683855
C32	C	1.571441	-0.786226	-0.569122
C33	C	1.571406	-0.739308	-0.569105
C34	C	1.497232	-0.714935	-0.626462
C35	C	1.423093	-0.737481	-0.683837
C36	C	1.274811	-0.782571	-0.798606
C37	C	1.274790	-0.735648	-0.798590
C38	C	1.348935	-0.713102	-0.741209
C39	C	1.348885	-0.666190	-0.741177
N40	N	1.423031	-0.643643	-0.683808
C41	C	1.497205	-0.668015	-0.626451
C42	C	1.349165	-1.093162	-0.741308
C43	C	1.349193	-1.140082	-0.741320
C44	C	1.497518	-1.141907	-0.626588
C45	C	1.497485	-1.094986	-0.626571
C46	C	1.423311	-1.070614	-0.683939
C47	C	1.497126	-0.569483	-0.626417
C48	C	1.497082	-0.522561	-0.626401
C49	C	1.348761	-0.520740	-0.741137
C50	C	1.348801	-0.567658	-0.741149
C51	C	1.422992	-0.592029	-0.683787
O52	O	1.285815	-0.641109	-0.789903
O53	O	1.560265	-0.644524	-0.577671
C54	C	1.497336	-0.855690	-0.626516
C55	C	1.423197	-0.878236	-0.683891
C56	C	1.349024	-0.853863	-0.741249
C57	C	1.423225	-0.925156	-0.683903
C58	C	1.497399	-0.949529	-0.626545
C59	C	1.571545	-0.926981	-0.569176
C60	C	1.571510	-0.880063	-0.569158
C61	C	1.274878	-0.876411	-0.798618
C62	C	1.274918	-0.923329	-0.798630
C63	C	1.349091	-0.947702	-0.741272
C64	C	1.691313	-0.348076	-0.717849
C65	C	1.805621	-0.355122	-0.732351
C66	C	1.389044	-0.344287	-0.952061
C67	C	1.374543	-0.349718	-1.066370
C68	C	1.423279	-0.214382	-0.683919
C69	C	1.423367	-0.164454	-0.683962
C70	C	1.430627	-0.328692	-1.125285
C71	C	1.415640	-0.334304	-1.243430
C72	C	1.457031	-0.318820	-0.416627
C73	C	1.471732	-0.313275	-0.302344
H74	H	1.004527	-0.279396	-0.576487
H75	H	0.827484	-0.299297	-0.617452
H76	H	0.842654	-0.383766	-0.791322
C77	C	1.031969	-0.373358	-0.770161
C78	C	0.993053	-0.366885	-0.868687
C79	C	1.038454	-0.402012	-0.941295
H80	H	1.016327	-0.401763	-0.752915
H81	H	1.104815	-0.373166	-0.769838
H82	H	0.920224	-0.367082	-0.869007
H83	H	1.008694	-0.338487	-0.885965
H84	H	1.111300	-0.401820	-0.940972
H85	H	1.022808	-0.430415	-0.924039
H86	H	1.012063	-0.397622	-1.008154
C87	C	1.194214	-0.807051	-0.860730
C88	C	1.135721	-0.827193	-0.794117
C89	C	1.061455	-0.849743	-0.851314
H90	H	1.227725	-0.829909	-0.910568
H91	H	1.149987	-0.785820	-0.894865
H92	H	1.179941	-0.848422	-0.759999
H93	H	1.102186	-0.804344	-0.744278
H94	H	1.017228	-0.828513	-0.885449
H95	H	1.094975	-0.872599	-0.901150
H96	H	1.021752	-0.863409	-0.806125
C97	C	1.577705	-0.498169	-0.564076
C98	C	1.642686	-0.529563	-0.513874
C99	C	1.716975	-0.507114	-0.456466
H100	H	1.544207	-0.475341	-0.514162
H101	H	1.617534	-0.484479	-0.609110
H102	H	1.602863	-0.543246	-0.468844
H103	H	1.676209	-0.552392	-0.563763
H104	H	1.756803	-0.493424	-0.501500
H105	H	1.683467	-0.484286	-0.406558
H106	H	1.761079	-0.528411	-0.422405
H107	H	1.557541	-0.589321	-0.579709
C108	C	1.268190	-0.592144	-0.803253
C109	C	1.209716	-0.612289	-0.736627
C110	C	1.135444	-0.634841	-0.793808
H111	H	1.301695	-0.615002	-0.853098
H112	H	1.223951	-0.570915	-0.837380
H113	H	1.253948	-0.633517	-0.702518
H114	H	1.176188	-0.589441	-0.686782
H115	H	1.091205	-0.613612	-0.827934
H116	H	1.168958	-0.657697	-0.843651
H117	H	1.095754	-0.648508	-0.748610
H118	H	1.631783	-0.720955	-0.522384
H119	H	1.557860	-1.076632	-0.579847
H120	H	1.315426	-0.371870	-1.103395
C121	C	1.652030	-0.812599	-0.506730
C122	C	1.716926	-0.782801	-0.456469
C123	C	1.791168	-0.807073	-0.398962
H124	H	1.691939	-0.835509	-0.551677
H125	H	1.618457	-0.826362	-0.456850
H126	H	1.750497	-0.769045	-0.506343
H127	H	1.677047	-0.759890	-0.411505
H128	H	1.757594	-0.820836	-0.349081
H129	H	1.831069	-0.829982	-0.443916
H130	H	1.835202	-0.786858	-0.364845
H131	H	1.557913	-1.161759	-0.579885
H132	H	1.489733	-0.306534	-1.088259
H133	H	1.288809	-1.158433	-0.788034
H134	H	1.288761	-1.073321	-0.788025
H135	H	1.214390	-0.715807	-0.845310
H136	H	1.288366	-0.500888	-0.787833
C137	C	1.336653	-0.363781	-1.292711
C138	C	1.238193	-0.346495	-1.253775
C139	C	1.165406	-0.373633	-1.299161
H140	H	1.353720	-0.394072	-1.277069
H141	H	1.336987	-0.363619	-1.365558
H142	H	1.237862	-0.346663	-1.180945
H143	H	1.221093	-0.316208	-1.269416
H144	H	1.165740	-0.373471	-1.372008
H145	H	1.182484	-0.403923	-1.283516
H146	H	1.098592	-0.361906	-1.272757
C147	C	1.550520	-0.283757	-1.252799
C148	C	1.549735	-0.284063	-1.145469
C149	C	1.622299	-0.256877	-1.099795
H150	H	1.533372	-0.253459	-1.268365
H151	H	1.617435	-0.295413	-1.279047
H152	H	1.482836	-0.272406	-1.119230
H153	H	1.566895	-0.314354	-1.129873
H154	H	1.689214	-0.268532	-1.126043
H155	H	1.605145	-0.226581	-1.115368
H156	H	1.621783	-0.257084	-1.026968
H157	H	1.631937	-0.946834	-0.522470
C158	C	1.194516	-0.947796	-0.861124
C159	C	1.203940	-0.942568	-0.965720
C160	C	1.129910	-0.965104	-1.023328
H161	H	1.127285	-0.935190	-0.837387
H162	H	1.205152	-0.979240	-0.853000
H163	H	1.193296	-0.911130	-0.973838
H164	H	1.271155	-0.955175	-0.989488
H165	H	1.140546	-0.996548	-1.015204
H166	H	1.062684	-0.952496	-0.999582
H167	H	1.136300	-0.961563	-1.094303
H168	H	1.631885	-0.861710	-0.522433
H169	H	1.214477	-0.856570	-0.845327
