data_functionalizedCrystal
_audit_creation_method	'MofGen! by Chris Wilmer'
_symmetry_space_group_name_H-M	'P1'
_symmetry_Int_Tables_number	1
_symmetry_cell_setting	triclinic
loop_
_symmetry_equiv_pos_as_xyz
  x,y,z
_cell_length_a	14.519709
_cell_length_b	10.723024
_cell_length_c	9.798715
_cell_angle_alpha	89.998925
_cell_angle_beta	89.998072
_cell_angle_gamma	95.925993
loop_
_atom_site_label
_atom_site_type_symbol
_atom_site_fract_x
_atom_site_fract_y
_atom_site_fract_z
O1	O	-1.224702	0.163572	-0.113307
O2	O	-0.956324	0.182835	-0.113348
O3	O	-1.096703	-0.008431	-0.113324
O4	O	-1.084322	0.354837	-0.113330
O5	O	-1.096693	-0.008431	0.113658
O6	O	-0.956313	0.182834	0.113634
O7	O	-1.224692	0.163571	0.113675
Zn8	Zn	-1.090501	0.173203	0.149693
Zn9	Zn	-1.090515	0.173203	-0.149366
O10	O	-1.084312	0.354837	0.113652
C11	C	-0.921954	0.181937	0.000138
C12	C	-0.819559	0.179246	0.000122
C13	C	-1.095797	-0.054922	0.000164
C14	C	-1.093101	-0.193451	0.000157
C15	C	-1.259061	0.164469	0.000187
C16	C	-1.361456	0.167159	0.000193
C17	C	-0.444613	0.169343	0.000184
C18	C	-0.548935	0.172093	0.000167
C19	C	-0.632082	0.174294	0.000152
C20	C	-0.736411	0.177045	0.000137
C21	C	-1.085218	0.401328	0.000160
C22	C	-1.087914	0.539857	0.000159
N23	N	-1.090498	0.173201	0.353793
C24	C	-1.009365	0.615574	0.000146
C25	C	-1.012149	0.758752	0.000145
N26	N	-1.090525	0.173194	-0.353465
C27	C	-1.149440	0.092543	0.421580
C28	C	-1.149454	0.092538	0.578742
H29	H	-0.944905	0.823813	0.000143
H30	H	-1.157224	0.581031	0.000120
H31	H	-0.940055	0.574400	0.000129
C32	C	-1.201790	-0.123422	0.622987
C33	C	-1.217579	-0.000693	0.657425
H34	H	-1.243853	-0.180980	0.671560
H35	H	-1.140106	-0.136889	0.646352
H36	H	-1.210720	-0.135635	0.527691
H37	H	-1.208642	0.011522	0.752719
H38	H	-1.279278	0.012779	0.634069
H39	H	-1.199888	0.023486	0.363265
C40	C	-1.187493	0.643009	-0.116518
C41	C	-1.183890	0.718738	0.000166
H42	H	-1.243546	0.588799	-0.116514
H43	H	-1.136352	0.594465	-0.116511
H44	H	-1.185041	0.694408	-0.195662
H45	H	-1.186336	0.667339	0.079311
H46	H	-1.235045	0.767286	0.000172
H47	H	-1.040063	0.242258	0.588250
C48	C	-0.965305	0.200219	0.514678
C49	C	-1.022387	0.266422	0.432509
H50	H	-0.923259	0.257774	0.563276
H51	H	-0.931649	0.148384	0.458936
H52	H	-1.002297	0.149617	0.577563
H53	H	-0.985395	0.317018	0.369616
H54	H	-1.056045	0.318280	0.488255
