data_functionalizedCrystal
_audit_creation_method	'MofGen! by Chris Wilmer'
_symmetry_space_group_name_H-M	'P1'
_symmetry_Int_Tables_number	1
_symmetry_cell_setting	triclinic
loop_
_symmetry_equiv_pos_as_xyz
  x,y,z
_cell_length_a	12.759401
_cell_length_b	12.759400
_cell_length_c	12.759393
_cell_angle_alpha	90.029373
_cell_angle_beta	90.019802
_cell_angle_gamma	90.012251
loop_
_atom_site_label
_atom_site_type_symbol
_atom_site_fract_x
_atom_site_fract_y
_atom_site_fract_z
Zn1	Zn	1.606278	-0.418241	0.593996
Zn2	Zn	2.106278	0.081759	1.093996
Zn3	Zn	1.606173	-0.593957	0.418320
Zn4	Zn	2.106173	-0.093957	0.918320
Zn5	Zn	1.430576	-0.418290	0.418335
Zn6	Zn	1.930576	0.081710	0.918335
Zn7	Zn	1.430573	-0.593876	0.593961
Zn8	Zn	1.930573	-0.093876	1.093961
O9	O	1.518400	-0.506091	0.506153
O10	O	2.018400	-0.006091	1.006153
O11	O	1.753285	-0.441564	0.570701
O12	O	2.253285	0.058436	1.070701
O13	O	1.582838	-0.570708	0.271301
O14	O	2.082838	-0.070708	0.771301
O15	O	1.453928	-0.271262	0.441658
O16	O	1.953928	0.228738	0.941658
O17	O	1.753208	-0.570661	0.441633
O18	O	2.253208	-0.070661	0.941633
O19	O	1.583015	-0.271226	0.570716
O20	O	2.083015	0.228774	1.070716
O21	O	1.453827	-0.441646	0.271312
O22	O	1.953827	0.058354	0.771312
O23	O	1.283555	-0.441568	0.441624
O24	O	1.783555	0.058432	0.941624
O25	O	1.453923	-0.570523	0.740987
O26	O	1.953923	-0.070523	1.240987
O27	O	1.283552	-0.570570	0.570655
O28	O	1.783552	-0.070570	1.070655
O29	O	1.583012	-0.441485	0.741013
O30	O	2.083012	0.058515	1.241013
O31	O	1.582835	-0.740967	0.441598
O32	O	2.082835	-0.240967	0.941598
O33	O	1.453822	-0.740908	0.570640
O34	O	1.953822	-0.240908	1.070640
C35	C	1.245433	-0.506066	0.506138
C36	C	1.745433	-0.006066	1.006138
C37	C	1.128656	-0.506081	0.506156
C38	C	1.628656	-0.006081	1.006156
C39	C	0.964097	-0.439006	0.573473
C40	C	1.464097	0.060994	1.073473
C41	C	1.073821	-0.438985	0.573466
C42	C	1.573821	0.061015	1.073466
C43	C	1.073761	-0.573210	0.438856
C44	C	1.573761	-0.073210	0.938856
C45	C	0.964039	-0.573235	0.438869
C46	C	1.464039	-0.073235	0.938869
C47	C	1.518345	-0.779058	0.506136
C48	C	2.018345	-0.279058	1.006136
C49	C	1.518417	-0.895835	0.506165
C50	C	2.018417	-0.395835	1.006165
C51	C	1.585599	-0.950599	0.573420
C52	C	2.085599	-0.450599	1.073420
C53	C	1.585648	-1.060323	0.573445
C54	C	2.085648	-0.560323	1.073445
C55	C	1.451330	-1.060509	0.438951
C56	C	1.951330	-0.560509	0.938951
C57	C	1.451277	-0.950787	0.438932
C58	C	1.951277	-0.450787	0.938932
C59	C	1.652740	-0.895646	0.640653
C60	C	2.152740	-0.395646	1.140653
C61	C	1.719928	-0.950410	0.707913
C62	C	2.219928	-0.450410	1.207913
C63	C	1.719977	-1.060134	0.707938
C64	C	2.219977	-0.560134	1.207938
C65	C	1.652838	-1.115094	0.640704
C66	C	2.152838	-0.615094	1.140704
C67	C	1.792433	-0.506116	0.506169
C68	C	2.292433	-0.006116	1.006169
C69	C	1.909210	-0.506127	0.506176
C70	C	2.409210	-0.006127	1.006176
C71	C	1.518479	-0.505990	0.780187
C72	C	2.018479	-0.005990	1.280187
C73	C	1.518512	-0.505947	0.896963
C74	C	2.018512	-0.005947	1.396963
C75	C	1.518484	-0.232057	0.506193
C76	C	2.018484	0.267943	1.006193
C77	C	1.518520	-0.115281	0.506210
C78	C	2.018520	0.384719	1.006210
C79	C	1.518382	-0.506115	0.233186
C80	C	2.018382	-0.006115	0.733186
C81	C	1.518552	-0.505862	0.116410
C82	C	2.018552	-0.005862	0.616410
C83	C	1.585734	-0.438746	0.951841
C84	C	2.085734	0.061254	1.451841
C85	C	1.585752	-0.438701	1.061565
C86	C	2.085752	0.061299	1.561565
C87	C	1.451323	-0.573066	1.061525
C88	C	1.951323	-0.073066	1.561525
C89	C	1.451301	-0.573105	0.951802
C90	C	1.951301	-0.073105	1.451802
H91	H	1.118416	-0.627844	0.384055
H92	H	1.618416	-0.127844	0.884055
N93	N	1.378785	-0.645596	0.892622
N94	N	1.878785	-0.145596	1.392622
H95	H	1.421449	-0.694308	0.847093
H96	H	1.921449	-0.194308	1.347093
H97	H	1.330113	-0.602835	0.847163
H98	H	1.830113	-0.102835	1.347163
N99	N	0.904952	-0.366643	0.646074
N100	N	1.404952	0.133357	1.146074
H101	H	0.859409	-0.317914	0.603466
H102	H	1.359409	0.182086	1.103466
H103	H	0.956439	-0.324190	0.688694
H104	H	1.456439	0.175810	1.188694
N105	N	1.378831	-0.891705	0.366387
N106	N	1.878831	-0.391705	0.866387
H107	H	1.330102	-0.846185	0.409036
H108	H	1.830102	-0.346185	0.909036
H109	H	1.336381	-0.943226	0.323803
H110	H	1.836381	-0.443226	0.823803
H111	H	1.396604	-0.627747	1.106188
H112	H	1.896604	-0.127747	1.606188
H113	H	1.774585	-0.905656	0.762659
H114	H	2.274585	-0.405656	1.262659
H115	H	1.652710	-0.806303	0.640637
H116	H	2.152710	-0.306303	1.140637
H117	H	1.640459	-0.384058	0.907194
H118	H	2.140459	0.115942	1.407194
N119	N	0.904823	-0.645630	0.366282
N120	N	1.404823	-0.145630	0.866282
H121	H	0.923925	-0.720712	0.382467
H122	H	1.423925	-0.220712	0.882467
H123	H	0.923901	-0.629130	0.291269
H124	H	1.423901	-0.129130	0.791269
H125	H	1.118506	-0.384330	0.628267
H126	H	1.618506	0.115670	1.128267
N127	N	1.792406	-1.119204	0.780511
N128	N	2.292406	-0.619204	1.280511
H129	H	1.834919	-1.067739	0.823105
H130	H	2.334919	-0.567739	1.323105
H131	H	1.841076	-1.164741	0.737820
H132	H	2.341076	-0.664741	1.237820
H133	H	1.652871	-1.204439	0.640742
H134	H	2.152871	-0.704439	1.140742
H135	H	1.396669	-1.105267	0.384212
H136	H	1.896669	-0.605267	0.884212
H137	H	1.640489	-0.383977	1.106241
H138	H	2.140489	0.116023	1.606241
