data_functionalizedCrystal
_audit_creation_method	'MofGen! by Chris Wilmer'
_symmetry_space_group_name_H-M	'P1'
_symmetry_Int_Tables_number	1
_symmetry_cell_setting	triclinic
loop_
_symmetry_equiv_pos_as_xyz
  x,y,z
_cell_length_a	29.839135
_cell_length_b	29.839131
_cell_length_c	29.839125
_cell_angle_alpha	89.974637
_cell_angle_beta	89.984512
_cell_angle_gamma	90.037758
loop_
_atom_site_label
_atom_site_type_symbol
_atom_site_fract_x
_atom_site_fract_y
_atom_site_fract_z
Zn1	Zn	0.686739	-0.178886	-0.254023
Zn2	Zn	1.186739	0.321114	0.245977
Zn3	Zn	0.686679	-0.253998	-0.178883
Zn4	Zn	1.186679	0.246002	0.321117
Zn5	Zn	0.611622	-0.178886	-0.178901
Zn6	Zn	1.111622	0.321114	0.321099
Zn7	Zn	0.611578	-0.253993	-0.253980
Zn8	Zn	1.111578	0.246007	0.246020
O9	O	0.649154	-0.216441	-0.216447
O10	O	1.149154	0.283559	0.283553
O11	O	0.749598	-0.188852	-0.244066
O12	O	1.249598	0.311148	0.255934
O13	O	0.676716	-0.244036	-0.116019
O14	O	1.176716	0.255964	0.383981
O15	O	0.621630	-0.116019	-0.188892
O16	O	1.121630	0.383981	0.311108
O17	O	0.749554	-0.244036	-0.188861
O18	O	1.249554	0.255964	0.311139
O19	O	0.676818	-0.116019	-0.244084
O20	O	1.176818	0.383981	0.255916
O21	O	0.621572	-0.188852	-0.116032
O22	O	1.121572	0.311148	0.383968
O23	O	0.548749	-0.188847	-0.188850
O24	O	1.048749	0.311153	0.311150
O25	O	0.621554	-0.244028	-0.316853
O26	O	1.121554	0.255972	0.183147
O27	O	0.548716	-0.244028	-0.244010
O28	O	1.048716	0.255972	0.255990
O29	O	0.676775	-0.188847	-0.316885
O30	O	1.176775	0.311153	0.183115
O31	O	0.676673	-0.316864	-0.188819
O32	O	1.176673	0.183136	0.311181
O33	O	0.621497	-0.316861	-0.243993
O34	O	1.121497	0.183139	0.256007
C35	C	0.532432	-0.216437	-0.216428
C36	C	1.032432	0.283563	0.283572
C37	C	0.482497	-0.216447	-0.216430
C38	C	0.982497	0.283553	0.283570
C39	C	0.172874	-0.187750	-0.245235
C40	C	0.672874	0.312250	0.254765
C41	C	-0.014799	-0.187753	-0.245247
C42	C	0.485201	0.312247	0.254753
O43	O	-0.039047	-0.163344	-0.269717
O44	O	0.460953	0.336656	0.230283
N45	N	-0.038288	-0.216441	-0.216464
N46	N	0.461712	0.283559	0.283536
C47	C	-0.014855	-0.245129	-0.187672
C48	C	0.485145	0.254871	0.312328
O49	O	-0.039140	-0.269527	-0.163187
O50	O	0.460860	0.230473	0.336813
C51	C	0.172817	-0.245123	-0.187658
C52	C	0.672817	0.254877	0.312342
C53	C	0.196303	-0.216436	-0.216447
C54	C	0.696303	0.283564	0.283553
C55	C	0.196360	-0.159065	-0.274021
C56	C	0.696360	0.340935	0.225979
C57	C	0.243275	-0.159066	-0.274019
C58	C	0.743275	0.340934	0.225981
C59	C	0.266705	-0.187752	-0.245231
C60	C	0.766705	0.312248	0.254769
C61	C	0.243219	-0.216437	-0.216445
C62	C	0.743219	0.283563	0.283555
C63	C	0.196249	-0.273808	-0.158864
C64	C	0.696249	0.226192	0.341136
C65	C	0.243170	-0.273803	-0.158862
C66	C	0.743170	0.226197	0.341138
C67	C	0.266656	-0.245116	-0.187651
C68	C	0.766656	0.254884	0.312349
C69	C	0.313563	-0.245125	-0.187655
C70	C	0.813563	0.254875	0.312345
N71	N	0.337052	-0.216437	-0.216439
N72	N	0.837052	0.283563	0.283561
C73	C	0.313623	-0.187750	-0.245227
C74	C	0.813623	0.312250	0.254773
C75	C	-0.113386	-0.245130	-0.187683
C76	C	0.386614	0.254870	0.312317
C77	C	-0.160304	-0.245133	-0.187687
C78	C	0.339696	0.254867	0.312313
C79	C	-0.160244	-0.187756	-0.245262
C80	C	0.339756	0.312244	0.254738
C81	C	-0.113326	-0.187756	-0.245259
C82	C	0.386674	0.312244	0.254741
C83	C	-0.089897	-0.216442	-0.216467
C84	C	0.410103	0.283558	0.283533
C85	C	0.412148	-0.187755	-0.245221
C86	C	0.912148	0.312245	0.254779
C87	C	0.459068	-0.187760	-0.245218
C88	C	0.959068	0.312240	0.254782
C89	C	0.459005	-0.245135	-0.187642
C90	C	0.959005	0.254865	0.312358
C91	C	0.412089	-0.245132	-0.187647
C92	C	0.912089	0.254868	0.312353
C93	C	0.388662	-0.216438	-0.216438
C94	C	0.888662	0.283562	0.283562
O95	O	0.337840	-0.269518	-0.163195
O96	O	0.837840	0.230482	0.336805
O97	O	0.337915	-0.163349	-0.269702
O98	O	0.837915	0.336651	0.230298
C99	C	0.125958	-0.187749	-0.245236
C100	C	0.625958	0.312251	0.254764
C101	C	0.102472	-0.216434	-0.216450
C102	C	0.602472	0.283566	0.283550
C103	C	0.125902	-0.245120	-0.187662
C104	C	0.625902	0.254880	0.312338
C105	C	0.055554	-0.216436	-0.216454
C106	C	0.555554	0.283564	0.283546
C107	C	0.032125	-0.187749	-0.245242
C108	C	0.532125	0.312251	0.254758
C109	C	0.055614	-0.159061	-0.274026
C110	C	0.555614	0.340939	0.225974
C111	C	0.102529	-0.159062	-0.274025
C112	C	0.602529	0.340938	0.225975
C113	C	0.102413	-0.273808	-0.158878
C114	C	0.602413	0.226192	0.341122
C115	C	0.055498	-0.273805	-0.158883
C116	C	0.555498	0.226195	0.341117
C117	C	0.032068	-0.245119	-0.187671
C118	C	0.532068	0.254881	0.312329
C119	C	0.649086	-0.333163	-0.216409
C120	C	1.149086	0.166837	0.283591
C121	C	0.649098	-0.383098	-0.216408
C122	C	1.149098	0.116902	0.283592
C123	C	0.677885	-0.692706	-0.245226
C124	C	1.177885	-0.192706	0.254774
C125	C	0.677933	-0.880379	-0.245253
C126	C	1.177933	-0.380379	0.254747
O127	O	0.702342	-0.904614	-0.269728
O128	O	1.202342	-0.404614	0.230272
N129	N	0.649231	-0.903883	-0.216497
N130	N	1.149231	-0.403883	0.283503
C131	C	0.620512	-0.880465	-0.187734
C132	C	1.120512	-0.380465	0.312266
O133	O	0.596096	-0.904763	-0.163279
O134	O	1.096096	-0.404763	0.336721
C135	C	0.620461	-0.692793	-0.187709
C136	C	1.120461	-0.192793	0.312291
C137	C	0.649169	-0.669292	-0.216464
C138	C	1.149169	-0.169292	0.283536
C139	C	0.706590	-0.669205	-0.273979
C140	C	1.206590	-0.169205	0.226021
C141	C	0.706579	-0.622290	-0.273971
C142	C	1.206579	-0.122290	0.226029
C143	C	0.677863	-0.598875	-0.245209
C144	C	1.177863	-0.098875	0.254791
C145	C	0.649158	-0.622377	-0.216456
C146	C	1.149158	-0.122377	0.283544
C147	C	0.591740	-0.669376	-0.158949
C148	C	1.091740	-0.169376	0.341051
C149	C	0.591729	-0.622455	-0.158946
C150	C	1.091729	-0.122455	0.341054
C151	C	0.620437	-0.598954	-0.187701
C152	C	1.120437	-0.098954	0.312299
C153	C	0.620431	-0.552047	-0.187685
C154	C	1.120431	-0.052047	0.312315
N155	N	0.649134	-0.528543	-0.216441
N156	N	1.149134	-0.028543	0.283559
C157	C	0.677850	-0.551957	-0.245203
C158	C	1.177850	-0.051957	0.254797
C159	C	0.620541	-0.978996	-0.187748
C160	C	1.120541	-0.478996	0.312252
C161	C	0.620554	-1.025914	-0.187753
C162	C	1.120554	-0.525914	0.312247
C163	C	0.677975	-1.025824	-0.245274
C164	C	1.177975	-0.525824	0.254726
C165	C	0.677964	-0.978906	-0.245266
C166	C	1.177964	-0.478906	0.254734
C167	C	0.649244	-0.955492	-0.216504
C168	C	1.149244	-0.455492	0.283496
C169	C	0.677826	-0.453432	-0.245183
C170	C	1.177826	0.046568	0.254817
C171	C	0.677814	-0.406512	-0.245170
C172	C	1.177814	0.093488	0.254830
C173	C	0.620391	-0.406605	-0.187651
C174	C	1.120391	0.093395	0.312349
C175	C	0.620404	-0.453521	-0.187662
C176	C	1.120404	0.046479	0.312338
C177	C	0.649123	-0.476933	-0.216431
C178	C	1.149123	0.023067	0.283569
O179	O	0.596032	-0.527783	-0.163227
O180	O	1.096032	-0.027783	0.336773
O181	O	0.702255	-0.527652	-0.269662
O182	O	1.202255	-0.027652	0.230338
C183	C	0.677895	-0.739622	-0.245235
C184	C	1.177895	-0.239622	0.254765
C185	C	0.649190	-0.763123	-0.216482
C186	C	1.149190	-0.263123	0.283518
C187	C	0.620474	-0.739709	-0.187720
C188	C	1.120474	-0.239709	0.312280
C189	C	0.649203	-0.810041	-0.216487
C190	C	1.149203	-0.310041	0.283513
C191	C	0.677919	-0.833455	-0.245249
C192	C	1.177919	-0.333455	0.254751
C193	C	0.706622	-0.809951	-0.274006
C194	C	1.206622	-0.309951	0.225994
C195	C	0.706611	-0.763036	-0.273997
C196	C	1.206611	-0.263036	0.226003
C197	C	0.591772	-0.763212	-0.158964
C198	C	1.091772	-0.263212	0.341036
C199	C	0.591785	-0.810128	-0.158974
C200	C	1.091785	-0.310128	0.341026
C201	C	0.620501	-0.833542	-0.187736
C202	C	1.120501	-0.333542	0.312264
C203	C	0.766333	-0.216445	-0.216467
C204	C	1.266333	0.283555	0.283533
C205	C	0.816267	-0.216446	-0.216475
C206	C	1.316267	0.283554	0.283525
C207	C	0.649167	-0.216437	-0.333625
C208	C	1.149167	0.283563	0.166375
C209	C	0.649172	-0.216435	-0.383560
C210	C	1.149172	0.283565	0.116440
C211	C	0.649235	-0.099262	-0.216495
C212	C	1.149235	0.400738	0.283505
C213	C	0.649270	-0.049328	-0.216515
C214	C	1.149270	0.450672	0.283485
C215	C	0.677955	-0.187627	-0.693223
C216	C	1.177955	0.312373	-0.193223
C217	C	0.677978	-0.187589	-0.880896
C218	C	1.177978	0.312411	-0.380896
O219	O	0.702417	-0.163138	-0.905177
O220	O	1.202417	0.336862	-0.405177
N221	N	0.649231	-0.216315	-0.904345
N222	N	1.149231	0.283685	-0.404345
C223	C	0.620475	-0.245050	-0.880873
C224	C	1.120475	0.254950	-0.380873
O225	O	0.596022	-0.269479	-0.905124
O226	O	1.096022	0.230521	-0.405124
C227	C	0.620451	-0.245086	-0.693201
C228	C	1.120451	0.254914	-0.193201
C229	C	0.649202	-0.216361	-0.669754
C230	C	1.149202	0.283639	-0.169754
C231	C	0.706704	-0.158905	-0.669776
C232	C	1.206704	0.341095	-0.169776
C233	C	0.706700	-0.158916	-0.622861
C234	C	1.206700	0.341084	-0.122861
C235	C	0.677947	-0.187650	-0.599392
C236	C	1.177947	0.312350	-0.099392
C237	C	0.649198	-0.216373	-0.622839
C238	C	1.149198	0.283627	-0.122839
C239	C	0.591693	-0.273819	-0.669730
C240	C	1.091693	0.226181	-0.169730
C241	C	0.591689	-0.273824	-0.622809
C242	C	1.091689	0.226176	-0.122809
C243	C	0.620440	-0.245100	-0.599362
C244	C	1.120440	0.254900	-0.099362
C245	C	0.620441	-0.245119	-0.552455
C246	C	1.120441	0.254881	-0.052455
N247	N	0.649188	-0.216393	-0.529005
N248	N	1.149188	0.283607	-0.029005
C249	C	0.677941	-0.187659	-0.552474
C250	C	1.177941	0.312341	-0.052474
C251	C	0.620491	-0.245030	-0.979404
C252	C	1.120491	0.254970	-0.479404
C253	C	0.620497	-0.245022	-1.026322
C254	C	1.120497	0.254978	-0.526322
C255	C	0.677999	-0.187560	-1.026341
C256	C	1.177999	0.312440	-0.526341
C257	C	0.677994	-0.187571	-0.979423
C258	C	1.177994	0.312429	-0.479423
C259	C	0.649237	-0.216304	-0.955955
C260	C	1.149237	0.283696	-0.455955
C261	C	0.677930	-0.187685	-0.453948
C262	C	1.177930	0.312315	0.046052
C263	C	0.677925	-0.187701	-0.407029
C264	C	1.177925	0.312299	0.092971
C265	C	0.620421	-0.245161	-0.407013
C266	C	1.120421	0.254839	0.092987
C267	C	0.620428	-0.245147	-0.453929
C268	C	1.120428	0.254853	0.046071
C269	C	0.649184	-0.216406	-0.477395
C270	C	1.149184	0.283594	0.022605
O271	O	0.596011	-0.269553	-0.528144
O272	O	1.096011	0.230447	-0.028144
O273	O	0.702383	-0.163226	-0.528215
O274	O	1.202383	0.336774	-0.028215
C275	C	0.677960	-0.187616	-0.740138
C276	C	1.177960	0.312384	-0.240138
C277	C	0.649211	-0.216338	-0.763585
C278	C	1.149211	0.283662	-0.263585
C279	C	0.620458	-0.245072	-0.740116
C280	C	1.120458	0.254928	-0.240116
C281	C	0.649217	-0.216330	-0.810503
C282	C	1.149217	0.283670	-0.310503
C283	C	0.677970	-0.187596	-0.833972
C284	C	1.177970	0.312404	-0.333972
C285	C	0.706717	-0.158870	-0.810523
C286	C	1.206717	0.341130	-0.310523
C287	C	0.706712	-0.158881	-0.763607
C288	C	1.206712	0.341119	-0.263607
C289	C	0.591711	-0.273798	-0.763566
C290	C	1.091711	0.226202	-0.263566
C291	C	0.591718	-0.273785	-0.810481
C292	C	1.091718	0.226215	-0.310481
C293	C	0.620471	-0.245050	-0.833950
C294	C	1.120471	0.254950	-0.333950
C295	C	0.649168	-0.216412	-0.099725
C296	C	1.149168	0.283588	0.400275
C297	C	0.649250	-0.216288	-0.049790
C298	C	1.149250	0.283712	0.450210
H299	H	-0.179329	-0.164398	-0.268702
H300	H	0.320671	0.335602	0.231298
H301	H	0.729954	-0.603158	-0.297387
H302	H	1.229954	-0.103158	0.202613
H303	H	0.730112	-0.135525	-0.603775
H304	H	1.230112	0.364475	-0.103775
N305	N	0.707312	-0.158335	-0.477913
N306	N	1.207312	0.341665	0.022087
N307	N	0.735935	-0.174137	-0.504091
N308	N	1.235935	0.325863	-0.004091
H309	H	0.756688	-0.153411	-0.521017
H310	H	1.256688	0.346589	-0.021017
H311	H	0.177289	-0.135702	-0.297464
H312	H	0.677289	0.364298	0.202536
N313	N	0.591137	-0.274367	-1.050276
N314	N	1.091137	0.225633	-0.550276
N315	N	0.606924	-0.302992	-1.076451
N316	N	1.106924	0.197008	-0.576451
H317	H	0.586187	-0.323716	-1.093368
H318	H	1.086187	0.176284	-0.593368
N319	N	-0.089451	-0.274431	-0.158271
N320	N	0.410549	0.225569	0.341729
N321	N	-0.063272	-0.258584	-0.129669
N322	N	0.436728	0.241416	0.370331
H323	H	-0.046370	-0.279278	-0.108897
H324	H	0.453630	0.220722	0.391103
N325	N	0.736078	-0.129546	-0.693737
N326	N	1.236078	0.370454	-0.193737
N327	N	0.761741	-0.103905	-0.672788
N328	N	1.261741	0.396095	-0.172788
H329	H	0.782490	-0.083169	-0.689707
H330	H	1.282490	0.416831	-0.189707
H331	H	0.701411	-0.164164	-1.045458
H332	H	1.201411	0.335836	-0.545458
N333	N	0.126523	-0.129762	-0.303429
N334	N	0.626523	0.370238	0.196571
N335	N	0.152703	-0.145608	-0.332027
N336	N	0.652703	0.354392	0.167973
H337	H	0.169647	-0.124913	-0.352795
H338	H	0.669647	0.375087	0.147205
H339	H	0.701406	-0.164180	-0.960335
H340	H	1.201406	0.335820	-0.460335
H341	H	0.597020	-0.268541	-0.473020
H342	H	1.097020	0.231459	0.026980
H343	H	0.701339	-0.164310	-0.387940
H344	H	1.201339	0.335690	0.112060
N345	N	0.031683	-0.129755	-0.303436
N346	N	0.531683	0.370245	0.196564
N347	N	0.052653	-0.104142	-0.329138
N348	N	0.552653	0.395858	0.170862
H349	H	0.035751	-0.083446	-0.349908
H350	H	0.535751	0.416554	0.150092
N351	N	0.562452	-0.834130	-0.129606
N352	N	1.062452	-0.334130	0.370394
N353	N	0.533816	-0.860322	-0.145392
N354	N	1.033816	-0.360322	0.354608
H355	H	0.513097	-0.877272	-0.124654
H356	H	1.013097	-0.377272	0.375346
H357	H	0.597153	-0.959936	-0.164326
H358	H	1.097153	-0.459936	0.335674
N359	N	0.562333	-0.303146	-0.739598
N360	N	1.062333	0.196854	-0.239598
N361	N	0.520882	-0.300164	-0.744836
N362	N	1.020882	0.199836	-0.244836
H363	H	0.500132	-0.320894	-0.727911
H364	H	1.000132	0.179106	-0.227911
N365	N	0.562391	-0.598533	-0.129571
N366	N	1.062391	-0.098533	0.370429
N367	N	0.533746	-0.572369	-0.145347
N368	N	1.033746	-0.072369	0.354653
H369	H	0.513027	-0.555473	-0.124601
H370	H	1.013027	-0.055473	0.375399
H371	H	-0.094206	-0.164396	-0.268701
H372	H	0.405794	0.335604	0.231299
H373	H	0.597073	-0.268431	-0.960301
H374	H	1.097073	0.231569	-0.460301
N375	N	0.735940	-0.739041	-0.303372
N376	N	1.235940	-0.239041	0.196628
N377	N	0.761575	-0.759960	-0.329047
N378	N	1.261575	-0.259960	0.170953
H379	H	0.782290	-0.743016	-0.349795
H380	H	1.282290	-0.243016	0.150205
H381	H	-0.179422	-0.268497	-0.164249
H382	H	0.320578	0.231503	0.335751
H383	H	0.597032	-0.472657	-0.164244
H384	H	1.097032	0.027343	0.335756
H385	H	0.177135	-0.297168	-0.135421
H386	H	0.677135	0.202832	0.364579
H387	H	0.568306	-0.297180	-0.829567
H388	H	1.068306	0.202820	-0.329567
H389	H	0.262243	-0.297163	-0.135415
H390	H	0.762243	0.202837	0.364585
H391	H	0.597012	-0.387534	-0.164232
H392	H	1.097012	0.112466	0.335768
N393	N	0.388103	-0.274442	-0.158242
N394	N	0.888103	0.225558	0.341758
N395	N	0.409030	-0.300054	-0.132543
N396	N	0.909030	0.199946	0.367457
H397	H	0.392093	-0.320753	-0.111772
H398	H	0.892093	0.179247	0.388228
N399	N	0.562329	-0.303172	-0.693665
N400	N	1.062329	0.196828	-0.193665
N401	N	0.536664	-0.328824	-0.672696
N402	N	1.036664	0.171176	-0.172696
H403	H	0.515925	-0.349559	-0.689600
H404	H	1.015925	0.150441	-0.189600
H405	H	0.701340	-0.959774	-0.268681
H406	H	1.201340	-0.459774	0.231319
N407	N	0.562307	-0.303176	-0.598845
N408	N	1.062307	0.196824	-0.098845
N409	N	0.536640	-0.328817	-0.619789
N410	N	1.036640	0.171183	-0.119789
H411	H	0.515889	-0.349547	-0.602865
H412	H	1.015889	0.150453	-0.102865
N413	N	0.591059	-0.274512	-0.383028
N414	N	1.091059	0.225488	0.116972
N415	N	0.591062	-0.274514	-0.341138
N416	N	1.091062	0.225486	0.158862
H417	H	0.570323	-0.295242	-0.324197
H418	H	1.070323	0.204758	0.175803
N419	N	0.482949	-0.274436	-0.158243
N420	N	0.982949	0.225564	0.341757
N421	N	0.524840	-0.274429	-0.158248
N422	N	1.024840	0.225571	0.341752
H423	H	0.541752	-0.295121	-0.137483
H424	H	1.041752	0.204879	0.362517
H425	H	0.701208	-0.472488	-0.268612
H426	H	1.201208	0.027512	0.231388
N427	N	0.736086	-0.129538	-0.739668
N428	N	1.236086	0.370462	-0.239668
N429	N	0.761754	-0.103887	-0.760635
N430	N	1.261754	0.396113	-0.260635
H431	H	0.782500	-0.083161	-0.743731
H432	H	1.282500	0.416839	-0.243731
H433	H	0.730130	-0.135475	-0.829639
H434	H	1.230130	0.364525	-0.329639
H435	H	0.036379	-0.297170	-0.135440
H436	H	0.536379	0.202830	0.364560
H437	H	0.478188	-0.164399	-0.268663
H438	H	0.978188	0.335601	0.231337
H439	H	0.393080	-0.164389	-0.268665
H440	H	0.893080	0.335611	0.231335
N441	N	0.735956	-0.833880	-0.303380
N442	N	1.235956	-0.333880	0.196620
N443	N	0.735958	-0.875771	-0.303377
N444	N	1.235958	-0.375771	0.196623
H445	H	0.756672	-0.892673	-0.324122
H446	H	1.256672	-0.392673	0.175878
H447	H	0.262394	-0.135705	-0.297462
H448	H	0.762394	0.364295	0.202538
N449	N	0.126335	-0.303114	-0.129466
N450	N	0.626335	0.196886	0.370534
N451	N	0.105352	-0.328723	-0.103770
N452	N	0.605352	0.171277	0.396230
H453	H	0.122245	-0.349424	-0.082997
H454	H	0.622245	0.150576	0.417003
H455	H	0.701192	-0.387379	-0.268586
H456	H	1.201192	0.112621	0.231414
N457	N	0.735926	-0.693110	-0.303367
N458	N	1.235926	-0.193110	0.196633
N459	N	0.761549	-0.672113	-0.329035
N460	N	1.261549	-0.172113	0.170965
H461	H	0.782272	-0.688992	-0.349791
H462	H	1.282272	-0.188992	0.150209
H463	H	0.701358	-1.044896	-0.268692
H464	H	1.201358	-0.544896	0.231308
N465	N	0.591235	-1.049910	-0.158370
N466	N	1.091235	-0.549910	0.341630
N467	N	0.565600	-1.028993	-0.132693
N468	N	1.065600	-0.528993	0.367307
H469	H	0.544891	-1.045938	-0.111940
H470	H	1.044891	-0.545938	0.388060
N471	N	0.562413	-0.693371	-0.129575
N472	N	1.062413	-0.193371	0.370425
N473	N	0.565410	-0.688149	-0.088122
N474	N	1.065410	-0.188149	0.411878
H475	H	0.544694	-0.705094	-0.067377
H476	H	1.044694	-0.205094	0.432623
N477	N	0.562433	-0.739306	-0.129581
N478	N	1.062433	-0.239306	0.370419
N479	N	0.536809	-0.760302	-0.103911
N480	N	1.036809	-0.260302	0.396089
H481	H	0.516088	-0.743420	-0.083156
H482	H	1.016088	-0.243420	0.416844
