data_functionalizedCrystal
_audit_creation_method	'MofGen! by Chris Wilmer'
_symmetry_space_group_name_H-M	'P1'
_symmetry_Int_Tables_number	1
_symmetry_cell_setting	triclinic
loop_
_symmetry_equiv_pos_as_xyz
  x,y,z
_cell_length_a	23.096457
_cell_length_b	21.606444
_cell_length_c	21.606444
_cell_angle_alpha	60.000398
_cell_angle_beta	89.997352
_cell_angle_gamma	59.998565
loop_
_atom_site_label
_atom_site_type_symbol
_atom_site_fract_x
_atom_site_fract_y
_atom_site_fract_z
Zr1	Zr	0.557758	0.677460	-0.081222
O2	O	0.465309	0.806579	-0.180040
O3	O	0.586100	0.548341	-0.050932
O4	O	0.586099	0.677462	-0.180049
O5	O	0.465309	0.677455	0.050930
O6	O	0.681380	0.677464	-0.180053
O7	O	0.465310	0.677457	-0.050923
O8	O	0.681381	0.446489	0.050914
O9	O	0.465308	0.908429	-0.180037
O10	O	0.669293	0.601450	-0.038013
O11	O	0.598186	0.601447	0.038002
O12	O	0.598185	0.753471	-0.114017
O13	O	0.527078	0.753468	-0.038002
Zr14	Zr	0.709719	0.677458	0.081216
Zr15	Zr	0.709720	0.677462	-0.081228
Zr16	Zr	0.557757	0.677456	0.081222
Zr17	Zr	0.557757	0.839900	-0.081217
Zr18	Zr	0.709720	0.515018	0.081211
O19	O	0.681377	0.806577	0.050926
O20	O	0.681379	0.806582	-0.180048
O21	O	0.465308	0.806573	0.050935
O22	O	0.802168	0.548339	0.180034
O23	O	0.802169	0.548345	-0.050940
O24	O	0.586099	0.548335	0.180043
O25	O	0.802168	0.677463	-0.050936
O26	O	0.681378	0.677456	0.180043
O27	O	0.586097	0.677454	0.180047
O28	O	0.802167	0.677461	0.050917
O29	O	0.586097	0.908432	-0.180041
O30	O	0.681380	0.446486	0.180036
O31	O	0.802169	0.446489	0.180031
O32	O	0.802170	0.446492	0.050910
O33	O	0.465307	0.908426	-0.050915
O34	O	0.586096	0.908428	-0.050920
O35	O	0.669292	0.601447	0.114011
O36	O	0.740399	0.601450	0.037996
O37	O	0.669291	0.753471	-0.038008
O38	O	0.598184	0.753468	0.038007
C39	C	0.633741	0.474271	-0.000009
C40	C	0.633741	0.405311	-0.000012
C41	C	0.670857	0.372915	-0.039692
C42	C	0.670859	0.308115	-0.039686
C43	C	0.633742	0.275716	-0.000005
C44	C	0.596625	0.308115	0.039679
C45	C	0.596627	0.372909	0.039678
C46	C	0.596617	0.046806	0.039686
C47	C	0.596616	-0.017991	0.039682
C48	C	0.670849	-0.017989	-0.039679
C49	C	0.670851	0.046806	-0.039680
C50	C	0.633738	0.079195	0.000008
C51	C	0.633736	0.149458	0.000003
C52	C	0.633738	0.205460	-0.000005
C53	C	0.443658	0.677456	0.000005
C54	C	0.379147	0.677454	0.000007
C55	C	0.385958	0.598104	0.039673
C56	C	0.325343	0.598102	0.039677
C57	C	0.257916	0.677456	-0.000001
C58	C	0.251107	0.756818	-0.039669
C59	C	0.311722	0.756817	-0.039665
N60	N	0.135120	0.736525	-0.064577
N61	N	0.077541	0.736520	-0.064579
C62	C	0.075283	0.677464	-0.000015
N63	N	0.132787	0.618399	0.064552
N64	N	0.190373	0.618401	0.064553
C65	C	0.192185	0.677466	-0.000010
C66	C	0.016372	0.598107	0.039659
C67	C	-0.044246	0.598109	0.039664
C68	C	-0.118483	0.756826	-0.039689
C69	C	-0.057865	0.756822	-0.039687
C70	C	0.009560	0.677460	-0.000015
C71	C	0.823819	0.677462	-0.000010
C72	C	0.888330	0.677464	-0.000013
C73	C	0.633740	0.677464	-0.203195
C74	C	0.633740	0.677465	-0.272157
C75	C	0.633737	0.880647	0.000004
C76	C	0.633736	0.949607	0.000006
C77	C	0.686231	0.677468	-0.304558
C78	C	0.686233	0.677462	-0.369351
C79	C	0.633741	0.677459	-0.401745
C80	C	0.581248	0.677454	-0.369339
C81	C	0.581249	0.677454	-0.304544
C82	C	0.581241	0.677453	-0.630649
C83	C	0.581243	0.677456	-0.695450
C84	C	0.686225	0.677461	-0.695456
C85	C	0.686227	0.677461	-0.630661
C86	C	0.633736	0.677451	-0.598258
C87	C	0.633735	0.677456	-0.528001
C88	C	0.633738	0.677461	-0.472004
C89	C	0.633737	0.677454	0.203190
C90	C	0.633737	0.677452	0.272152
C91	C	0.823821	0.474274	-0.000017
C92	C	0.888333	0.405315	-0.000022
C93	C	0.633739	0.474266	0.203183
C94	C	0.633740	0.405304	0.272143
C95	C	0.823820	0.474270	0.203176
C96	C	0.888332	0.405309	0.272133
C97	C	0.443657	0.880648	-0.203181
C98	C	0.379146	0.949609	-0.272138
C99	C	0.443656	0.880644	0.000011
C100	C	0.379144	0.949603	0.000016
C101	C	0.633738	0.880652	-0.203189
C102	C	0.633737	0.949614	-0.272148
C103	C	0.881512	0.372932	-0.039707
C104	C	0.942122	0.308146	-0.039726
C105	C	1.009553	0.275741	-0.000056
C106	C	1.016373	0.308131	0.039630
C107	C	0.955763	0.372920	0.039645
C108	C	0.670857	0.372919	0.344210
C109	C	0.670854	0.308131	0.409011
C110	C	0.633739	0.275725	0.401743
C111	C	0.596617	0.308117	0.329669
C112	C	0.596616	0.372908	0.264869
C113	C	0.955751	0.372926	0.264837
C114	C	1.016372	0.308139	0.329623
C115	C	1.009573	0.275732	0.401704
C116	C	0.942147	0.308121	0.408999
C117	C	0.881527	0.372911	0.344213
C118	C	0.311727	0.982000	-0.264842
C119	C	0.251105	1.046807	-0.329629
C120	C	0.257904	1.079217	-0.401710
C121	C	0.325330	1.046824	-0.409005
C122	C	0.385950	0.982022	-0.344219
C123	C	0.385965	0.981993	0.039694
C124	C	0.325355	1.046796	0.039696
C125	C	0.257924	1.079203	0.000023
C126	C	0.251104	1.046810	-0.039660
C127	C	0.311714	0.982013	-0.039665
C128	C	0.670860	0.981999	-0.264857
C129	C	0.670874	1.046787	-0.329645
C130	C	0.633760	1.079194	-0.401725
C131	C	0.596636	1.046802	-0.409015
C132	C	0.596627	0.982010	-0.344227
H133	H	0.701071	-0.044370	-0.071992
H134	H	0.566389	-0.044369	0.071998
Br135	Br	0.546241	0.416849	0.167066
H136	H	-0.173382	0.821438	-0.071996
Br137	Br	0.757464	0.677472	-0.586702
Br138	Br	0.721238	0.416879	0.354094
Br139	Br	0.721221	0.090778	-0.093541
Br140	Br	0.633779	1.167127	-0.489645
Br141	Br	0.477471	0.938029	0.093539
Br142	Br	0.334627	1.090742	0.093558
Br143	Br	0.546254	0.090750	0.093554
H144	H	0.566419	1.073197	-0.467711
Br145	Br	0.302480	0.938026	-0.167026
Br146	Br	1.091851	0.187802	0.489621
Br147	Br	0.721217	0.264168	-0.093558
H148	H	0.566407	0.281727	0.071993
Br149	Br	0.546234	0.938074	-0.354137
Br150	Br	0.790032	0.416848	0.354129
Br151	Br	0.932850	0.264201	-0.093588
Br152	Br	0.546249	0.264128	0.319818
H153	H	0.701079	0.399293	-0.072008
H154	H	0.961300	0.399302	0.206150
H155	H	0.826612	0.399315	-0.072020
Br156	Br	0.159586	1.090799	-0.093495
Br157	Br	0.546258	0.416872	0.093536
Br158	Br	0.175675	1.167144	0.000039
Br159	Br	1.091803	0.187813	-0.000084
Br160	Br	0.721238	0.264183	0.506816
H161	H	0.633745	0.222968	0.454513
Br162	Br	0.510011	0.677441	-0.413296
Br163	Br	1.107892	0.264141	0.093467
Br164	Br	0.302444	0.938058	-0.093516
Br165	Br	0.477460	0.490398	0.093517
Br166	Br	0.965033	0.416857	0.093513
H167	H	0.701083	0.955623	-0.206171
Br168	Br	0.334582	0.490404	0.093511
Br169	Br	0.159600	0.864514	-0.093511
H170	H	0.936622	0.281726	0.467696
H171	H	0.208538	1.131982	-0.454456
Br172	Br	1.107869	0.264194	0.319706
H173	H	0.728973	0.677476	-0.278189
H174	H	0.196210	1.073171	-0.323675
H175	H	0.701103	1.073153	-0.323694
H176	H	0.330858	1.073221	-0.467701
Br177	Br	0.477445	0.938067	-0.354135
Br178	Br	0.302477	0.864516	-0.093501
H179	H	0.071272	0.533485	0.071978
H180	H	-0.063415	0.821438	-0.071993
Br181	Br	0.757473	0.677461	-0.413322
Br182	Br	0.757466	0.677473	-0.739433
Br183	Br	-0.034999	0.490408	0.093514
H184	H	0.538496	0.677453	-0.721824
Br185	Br	0.510005	0.677443	-0.586679
H186	H	0.538507	0.677450	-0.278163
