data_functionalizedCrystal
_audit_creation_method	'MofGen! by Chris Wilmer'
_symmetry_space_group_name_H-M	'P1'
_symmetry_Int_Tables_number	1
_symmetry_cell_setting	triclinic
loop_
_symmetry_equiv_pos_as_xyz
  x,y,z
_cell_length_a	8.559649
_cell_length_b	17.699083
_cell_length_c	16.776229
_cell_angle_alpha	89.992455
_cell_angle_beta	89.992917
_cell_angle_gamma	76.530839
loop_
_atom_site_label
_atom_site_type_symbol
_atom_site_fract_x
_atom_site_fract_y
_atom_site_fract_z
O1	O	2.120233	-0.025681	-0.066274
O2	O	1.654878	0.013416	-0.066280
O3	O	1.900703	-0.117074	-0.066270
O4	O	1.874408	0.104810	-0.066284
O5	O	1.900670	-0.117080	0.066307
O6	O	1.654845	0.013411	0.066297
O7	O	2.120201	-0.025686	0.066302
Zn8	Zn	1.887518	-0.006138	0.087349
Zn9	Zn	1.887561	-0.006132	-0.087326
O10	O	1.874376	0.104804	0.066292
C11	C	1.899745	-0.145220	0.000019
C12	C	1.896918	-0.229076	0.000019
C13	C	1.595320	0.016376	0.000008
C14	C	1.417906	0.025195	0.000006
C15	C	2.041212	-0.285959	0.000022
C16	C	2.038547	-0.364749	0.000015
C17	C	1.891585	-0.386656	0.000010
C18	C	1.747280	-0.329767	0.000005
C19	C	1.749947	-0.250978	0.000007
C20	C	1.736521	-0.647514	-0.000001
C21	C	1.733865	-0.726310	-0.000000
C22	C	2.025120	-0.761286	0.000007
C23	C	2.027787	-0.682496	0.000008
C24	C	1.883483	-0.625614	-0.000001
C25	C	1.886375	-0.540181	0.000005
C26	C	1.888692	-0.472088	0.000010
C27	C	2.179758	-0.028646	0.000013
C28	C	2.357173	-0.037465	0.000009
C29	C	1.875334	0.132950	0.000002
C30	C	1.878161	0.216806	-0.000003
N31	N	1.887500	-0.006144	0.206560
N32	N	1.887591	-0.006132	-0.206538
C33	C	1.996385	-0.063906	0.248282
C34	C	1.996394	-0.063907	0.331734
C35	C	1.887524	-0.006143	0.373463
C36	C	1.778628	0.051622	0.331736
C37	C	1.778613	0.051619	0.248285
C38	C	1.778686	0.051634	0.668283
C39	C	1.778713	0.051633	0.751740
C40	C	1.996467	-0.063893	0.751732
C41	C	1.996451	-0.063896	0.668281
C42	C	1.887550	-0.006134	0.626561
C43	C	1.887540	-0.006134	0.536073
C44	C	1.887541	-0.006139	0.463950
H45	H	2.160885	-0.268130	0.000030
H46	H	2.085045	-0.110942	0.214311
O47	O	1.456987	-0.109533	-0.000127
C48	C	1.541267	-0.231850	-0.068779
C49	C	1.428150	-0.150249	-0.068733
H50	H	1.517968	-0.264797	-0.124232
H51	H	1.671386	-0.226411	-0.068830
H52	H	1.518111	-0.264771	-0.013269
H53	H	1.451162	-0.117282	-0.124233
H54	H	1.298069	-0.155743	-0.068640
O55	O	1.672648	0.107670	0.372236
C56	C	1.394591	0.168129	0.397757
C57	C	1.514436	0.104610	0.351858
H58	H	1.266652	0.165686	0.381286
H59	H	1.413170	0.158217	0.464578
H60	H	1.415245	0.227550	0.381346
H61	H	1.493855	0.045162	0.368202
H62	H	1.495829	0.114589	0.285049
O63	O	1.318084	0.097268	-0.000141
C64	C	1.233852	0.219590	-0.068810
C65	C	1.346963	0.137988	-0.068751
H66	H	1.257184	0.252541	-0.124267
H67	H	1.103732	0.214155	-0.068864
H68	H	1.256980	0.252506	-0.013303
H69	H	1.323979	0.105026	-0.124249
H70	H	1.477046	0.143479	-0.068656
H71	H	2.142620	-0.807609	0.000010
O72	O	2.102337	-0.120047	0.372138
C73	C	2.318302	-0.234647	0.363324
C74	C	2.198422	-0.171105	0.317468
H75	H	2.395996	-0.275953	0.319143
H76	H	2.398112	-0.206613	0.402353
H77	H	2.249458	-0.268448	0.402433
H78	H	2.267135	-0.137282	0.278315
H79	H	2.118614	-0.199186	0.278488
H80	H	2.147458	-0.664666	0.000015
H81	H	2.085108	-0.110931	0.634308
H82	H	2.085135	-0.110928	0.785709
H83	H	1.614184	-0.744141	-0.000002
H84	H	1.690052	0.098674	0.785714
H85	H	1.690018	0.098667	0.634321
H86	H	1.689946	0.098654	0.214316
H87	H	1.619019	-0.601208	-0.000009
O88	O	2.178823	-0.419931	-0.000085
C89	C	2.426942	-0.473948	-0.068781
C90	C	2.268146	-0.411405	-0.068757
H91	H	2.499189	-0.467086	-0.124304
H92	H	2.499367	-0.467084	-0.013330
H93	H	2.399768	-0.534018	-0.068747
H94	H	2.295174	-0.351308	-0.068818
H95	H	2.195768	-0.418338	-0.124202
O96	O	1.604419	-0.350947	0.000105
C97	C	1.354677	-0.345197	0.068805
C98	C	1.516397	-0.321145	0.068780
H99	H	1.283480	-0.321126	0.124331
H100	H	1.283294	-0.321046	0.013357
H101	H	1.377589	-0.411282	0.068767
H102	H	1.493631	-0.255068	0.068845
H103	H	1.587728	-0.345352	0.124223
H104	H	1.632448	-0.204663	0.000004
