data_functionalizedCrystal
_audit_creation_method	'MofGen! by Chris Wilmer'
_symmetry_space_group_name_H-M	'P1'
_symmetry_Int_Tables_number	1
_symmetry_cell_setting	triclinic
loop_
_symmetry_equiv_pos_as_xyz
  x,y,z
_cell_length_a	10.686220
_cell_length_b	10.685194
_cell_length_c	10.686551
_cell_angle_alpha	98.415440
_cell_angle_beta	89.691918
_cell_angle_gamma	99.069756
loop_
_atom_site_label
_atom_site_type_symbol
_atom_site_fract_x
_atom_site_fract_y
_atom_site_fract_z
Zn1	Zn	1.946781	-0.311311	0.540461
Zn2	Zn	1.911615	-0.542431	0.314426
Zn3	Zn	1.718223	-0.343976	0.344478
Zn4	Zn	1.718258	-0.539843	0.540385
O5	O	1.823719	-0.434390	0.434938
O6	O	2.118689	-0.329382	0.497932
O7	O	1.871230	-0.530859	0.141828
O8	O	1.763244	-0.160946	0.383085
O9	O	2.092853	-0.499185	0.331864
O10	O	1.931165	-0.136948	0.527073
O11	O	1.729146	-0.385055	0.163907
O12	O	1.541655	-0.382545	0.383011
O13	O	1.763303	-0.494775	0.716980
O14	O	1.541680	-0.526449	0.526943
O15	O	1.931198	-0.326873	0.717036
O16	O	1.871264	-0.720784	0.331791
O17	O	1.729204	-0.718883	0.497802
C18	C	1.495884	-0.457762	0.458231
C19	C	1.355634	-0.467788	0.468224
C20	C	1.796458	-0.766163	0.411552
C21	C	1.784915	-0.908084	0.401582
C22	C	2.152835	-0.410928	0.411554
C23	C	2.293085	-0.400930	0.401589
C24	C	1.851177	-0.406891	0.764075
C25	C	1.862878	-0.395173	0.904333
C26	C	1.851123	-0.101318	0.458440
C27	C	1.862801	0.040618	0.468455
C28	C	1.796448	-0.461685	0.107083
C29	C	1.785022	-0.473026	-0.033167
H30	H	1.346828	-0.336021	0.336895
H31	H	1.301883	-0.532711	0.532913
C32	C	1.965031	-0.293008	0.977000
C33	C	2.067019	-0.333793	1.056694
C34	C	2.169170	-0.231630	1.129360
C35	C	2.169333	-0.088683	1.122334
C36	C	2.067341	-0.047891	1.042637
C37	C	1.965190	-0.150054	0.969970
H38	H	2.066902	-0.439617	1.061898
H39	H	2.244671	-0.261828	1.188357
H40	H	2.244951	-0.013056	1.176126
H41	H	2.067458	0.057933	1.037432
H42	H	1.889689	-0.119856	0.910973
C43	C	1.964829	-0.872043	0.556109
C44	C	2.055054	-0.931354	0.633576
C45	C	2.157083	-0.844005	0.721232
C46	C	2.168886	-0.697346	0.731421
C47	C	2.078658	-0.638028	0.653951
C48	C	1.976629	-0.725376	0.566295
H49	H	2.046319	-1.039926	0.626036
H50	H	2.223876	-0.887918	0.778580
H51	H	2.244414	-0.632686	0.796309
H52	H	2.087393	-0.529455	0.661492
H53	H	1.909836	-0.681464	0.508948
H54	H	1.709385	-0.972749	0.336703
H55	H	1.709417	-0.548648	0.913039
