data_functionalizedCrystal
_audit_creation_method	'MofGen! by Chris Wilmer'
_symmetry_space_group_name_H-M	'P1'
_symmetry_Int_Tables_number	1
_symmetry_cell_setting	triclinic
loop_
_symmetry_equiv_pos_as_xyz
  x,y,z
_cell_length_a	14.519709
_cell_length_b	10.654550
_cell_length_c	9.130313
_cell_angle_alpha	90.000276
_cell_angle_beta	89.994534
_cell_angle_gamma	95.917462
loop_
_atom_site_label
_atom_site_type_symbol
_atom_site_fract_x
_atom_site_fract_y
_atom_site_fract_z
O1	O	0.129532	-1.666594	-0.121694
O2	O	0.629532	-1.166594	0.378306
O3	O	0.141873	-1.300997	-0.121721
O4	O	0.641873	-0.800997	0.378279
O5	O	0.001515	-1.493489	-0.121693
O6	O	0.501515	-0.993489	0.378307
O7	O	0.269891	-1.474102	-0.121721
O8	O	0.769891	-0.974102	0.378279
O9	O	0.001510	-1.493476	0.121906
O10	O	0.501510	-0.993476	0.621906
O11	O	0.141869	-1.300984	0.121878
O12	O	0.641869	-0.800984	0.621878
O13	O	0.129528	-1.666581	0.121905
O14	O	0.629528	-1.166581	0.621905
Cu15	Cu	0.135698	-1.483781	0.144134
Cu16	Cu	0.635698	-0.983781	0.644134
Cu17	Cu	0.135703	-1.483797	-0.143950
Cu18	Cu	0.635703	-0.983797	0.356050
O19	O	0.269887	-1.474089	0.121878
O20	O	0.769887	-0.974089	0.621878
C21	C	0.140965	-1.254201	0.000075
C22	C	0.640965	-0.754201	0.500075
C23	C	0.138254	-1.114784	0.000065
C24	C	0.638254	-0.614784	0.500065
C25	C	-0.032852	-1.492579	0.000106
C26	C	0.467148	-0.992579	0.500106
C27	C	-0.135247	-1.489871	0.000107
C28	C	0.364753	-0.989871	0.500107
C29	C	0.130436	-1.713377	0.000106
C30	C	0.630436	-1.213377	0.500106
C31	C	0.133147	-1.852794	0.000106
C32	C	0.633147	-1.352794	0.500106
C33	C	-0.510195	-1.479904	0.000068
C34	C	-0.010195	-0.979904	0.500068
C35	C	-0.405872	-1.482672	0.000079
C36	C	0.094128	-0.982672	0.500079
C37	C	-0.322724	-1.484887	0.000089
C38	C	0.177276	-0.984887	0.500089
C39	C	-0.218395	-1.487656	0.000097
C40	C	0.281605	-0.987656	0.500097
C41	C	0.304253	-1.474999	0.000075
C42	C	0.804253	-0.974999	0.500075
C43	C	0.406649	-1.477706	0.000065
C44	C	0.906649	-0.977706	0.500065
N45	N	0.135694	-1.483779	0.346757
N46	N	0.635694	-0.983779	0.846757
C47	C	0.220895	-1.034504	0.000061
C48	C	0.720895	-0.534504	0.500061
C49	C	0.218342	-0.903507	0.000087
C50	C	0.718342	-0.403507	0.500087
C51	C	0.050500	-0.933084	0.000115
C52	C	0.550500	-0.433084	0.500115
C53	C	0.053054	-1.064078	0.000100
C54	C	0.553054	-0.564078	0.500100
N55	N	0.135700	-1.483808	-0.346572
N56	N	0.635700	-0.983808	0.153428
C57	C	0.073570	-1.569043	0.423421
C58	C	0.573570	-1.069043	0.923421
C59	C	0.073570	-1.569055	0.576758
C60	C	0.573570	-1.069055	1.076758
C61	C	0.197827	-1.398535	0.576753
C62	C	0.697827	-0.898535	1.076753
C63	C	0.197822	-1.398518	0.423419
C64	C	0.697822	-0.898518	0.923419
H65	H	0.290270	-1.075783	0.000044
H66	H	0.790270	-0.575783	0.500044
N67	N	0.302767	-0.821521	0.000093
N68	N	0.802767	-0.321521	0.500093
N69	N	0.378827	-0.866817	0.000071
N70	N	0.878827	-0.366817	0.500071
H71	H	0.438457	-0.808915	0.000079
H72	H	0.938457	-0.308915	0.500079
H73	H	-0.018867	-0.891783	0.000152
H74	H	0.481133	-0.391783	0.500152
H75	H	-0.014247	-1.129446	0.000108
H76	H	0.485753	-0.629446	0.500108
H77	H	0.248411	-1.329080	0.360995
H78	H	0.748411	-0.829080	0.860995
H79	H	0.022981	-1.638466	0.361006
H80	H	0.522981	-1.138466	0.861006
H81	H	0.022982	-1.638483	0.639173
H82	H	0.522982	-1.138483	1.139173
N83	N	0.261279	-1.311455	0.655087
N84	N	0.761279	-0.811455	1.155087
N85	N	0.261277	-1.311481	0.791991
N86	N	0.761277	-0.811481	1.291991
H87	H	0.306092	-1.249980	0.847315
H88	H	0.806092	-0.749980	1.347315
