data_functionalizedCrystal
_audit_creation_method	'MofGen! by Chris Wilmer'
_symmetry_space_group_name_H-M	'P1'
_symmetry_Int_Tables_number	1
_symmetry_cell_setting	triclinic
loop_
_symmetry_equiv_pos_as_xyz
  x,y,z
_cell_length_a	14.853567
_cell_length_b	10.654550
_cell_length_c	9.730223
_cell_angle_alpha	90.000193
_cell_angle_beta	90.002764
_cell_angle_gamma	95.940083
loop_
_atom_site_label
_atom_site_type_symbol
_atom_site_fract_x
_atom_site_fract_y
_atom_site_fract_z
O1	O	1.197237	-0.163956	-0.114191
O2	O	0.934882	-0.183487	-0.114215
O3	O	1.072092	0.009081	-0.114197
O4	O	1.060028	-0.356523	-0.114209
O5	O	1.072090	0.009076	0.114382
O6	O	0.934881	-0.183492	0.114365
O7	O	1.197236	-0.163960	0.114388
Zn8	Zn	1.066058	-0.173727	0.150669
Zn9	Zn	1.066060	-0.173721	-0.150495
O10	O	1.060026	-0.356528	0.114371
C11	C	0.901288	-0.182605	0.000072
C12	C	0.801190	-0.179953	0.000064
C13	C	1.071205	0.055867	0.000091
C14	C	1.068555	0.195283	0.000086
N15	N	1.066063	-0.173731	0.356205
C16	C	0.387984	-0.054353	0.000098
C17	C	0.367928	-0.283127	0.000090
C18	C	0.461975	-0.285621	0.000085
C19	C	0.519031	-0.172479	0.000085
C20	C	0.482040	-0.056843	0.000090
C21	C	0.498973	-0.401255	0.000067
C22	C	0.593025	-0.403753	0.000061
C23	C	0.650083	-0.290609	0.000071
C24	C	0.613087	-0.174969	0.000077
C25	C	0.670143	-0.061826	0.000076
C26	C	0.633149	0.053816	0.000092
C27	C	0.539098	0.056301	0.000099
C28	C	0.744134	-0.293095	0.000064
C29	C	0.764199	-0.064317	0.000068
C30	C	1.230830	-0.164843	0.000098
C31	C	1.330928	-0.167495	0.000098
C32	C	1.060913	-0.403314	0.000080
C33	C	1.063563	-0.542730	0.000076
C34	C	1.149342	0.275608	0.000097
C35	C	1.146846	0.406603	0.000087
C36	C	0.982770	0.376935	0.000061
C37	C	0.985267	0.245942	0.000061
C38	C	1.244070	0.292737	0.000118
C39	C	1.241574	0.423732	0.000109
N40	N	1.066062	-0.173707	-0.356031
C41	C	1.126835	-0.088490	0.428139
C42	C	1.126833	-0.088475	0.572022
C43	C	1.005283	-0.258951	0.572025
C44	C	1.005282	-0.258960	0.428145
C45	C	1.197014	0.009929	0.428138
C46	C	1.197011	0.009945	0.572021
H47	H	0.810649	0.027819	0.000073
C48	C	0.938435	-0.352703	0.651162
H49	H	0.947142	-0.340495	0.747155
H50	H	0.878185	-0.338913	0.627575
H51	H	0.948752	-0.436550	0.627591
C52	C	1.284815	0.245012	0.133445
H53	H	1.285145	0.155990	0.128904
H54	H	1.345031	0.283438	0.144006
H55	H	1.249386	0.266147	0.209684
H56	H	0.914959	0.418198	0.000039
H57	H	1.262469	-0.019979	0.383517
H58	H	1.175108	0.100940	0.616637
H59	H	0.321468	-0.375243	0.000078
C60	C	0.896404	0.157583	0.000021
H61	H	0.909817	0.072312	0.000009
H62	H	0.862273	0.172949	0.079717
H63	H	0.862303	0.172965	-0.079715
C64	C	1.290594	-0.018158	0.624801
H65	H	1.290590	-0.018135	0.722438
H66	H	1.303431	-0.098464	0.592278
H67	H	1.335493	0.044809	0.592262
H68	H	0.508968	0.150451	0.000145
C69	C	0.695916	0.178264	0.000092
H70	H	0.757225	0.160210	0.000089
H71	H	0.684619	0.225682	-0.079610
H72	H	0.684637	0.225666	0.079822
H73	H	1.270203	0.469675	-0.098583
C74	C	1.294115	0.253588	-0.129096
H75	H	1.312995	0.326378	-0.182246
H76	H	1.345556	0.213341	-0.102522
H77	H	1.254654	0.196905	-0.182251
C78	C	0.436213	-0.525699	0.000073
H79	H	0.374902	-0.507651	0.000099
H80	H	0.447492	-0.573110	-0.079640
H81	H	0.447514	-0.573104	0.079791
C82	C	0.347295	0.072844	0.000109
H83	H	0.283110	0.058129	0.000108
H84	H	0.366839	0.119435	0.079817
H85	H	0.366824	0.119431	-0.079614
C86	C	1.289776	0.480652	0.129342
H87	H	1.311284	0.415167	0.182504
H88	H	1.339338	0.539161	0.102786
H89	H	1.248427	0.522726	0.182477
H90	H	1.181621	0.106302	0.389086
C91	C	0.633712	-0.530951	0.000062
H92	H	0.586260	-0.597976	0.000074
H93	H	0.669984	-0.536684	-0.079645
H94	H	0.669983	-0.536673	0.079787
H95	H	0.955789	-0.328358	0.369577
H96	H	0.774251	-0.387249	0.000053
