data_functionalizedCrystal
_audit_creation_method	'MofGen! by Chris Wilmer'
_symmetry_space_group_name_H-M	'P1'
_symmetry_Int_Tables_number	1
_symmetry_cell_setting	triclinic
loop_
_symmetry_equiv_pos_as_xyz
  x,y,z
_cell_length_a	19.805407
_cell_length_b	16.120444
_cell_length_c	19.805399
_cell_angle_alpha	87.128215
_cell_angle_beta	90.019573
_cell_angle_gamma	92.926644
loop_
_atom_site_label
_atom_site_type_symbol
_atom_site_fract_x
_atom_site_fract_y
_atom_site_fract_z
Zn1	Zn	1.021070	-0.331929	0.396381
Zn2	Zn	1.271070	-0.081929	0.646381
Zn3	Zn	1.521070	0.168071	0.896381
Zn4	Zn	1.771070	0.418071	1.146381
Zn5	Zn	1.015245	-0.471348	0.288930
Zn6	Zn	1.265245	-0.221348	0.538930
Zn7	Zn	1.515245	0.028652	0.788930
Zn8	Zn	1.765245	0.278652	1.038930
Zn9	Zn	0.907884	-0.331952	0.283206
Zn10	Zn	1.157884	-0.081952	0.533206
Zn11	Zn	1.407884	0.168048	0.783206
Zn12	Zn	1.657884	0.418048	1.033206
Zn13	Zn	0.902111	-0.471304	0.402075
Zn14	Zn	1.152111	-0.221304	0.652075
Zn15	Zn	1.402111	0.028696	0.902075
Zn16	Zn	1.652111	0.278696	1.152075
O17	O	0.961578	-0.401633	0.342648
O18	O	1.211578	-0.151633	0.592648
O19	O	1.461578	0.098367	0.842648
O20	O	1.711578	0.348367	1.092648
O21	O	1.115014	-0.350432	0.382139
O22	O	1.365014	-0.100432	0.632139
O23	O	1.615014	0.149568	0.882139
O24	O	1.865014	0.399568	1.132139
O25	O	1.000982	-0.452885	0.193455
O26	O	1.250982	-0.202885	0.443455
O27	O	1.500982	0.047115	0.693455
O28	O	1.750982	0.297115	0.943455
O29	O	0.927752	-0.215282	0.293440
O30	O	1.177752	0.034718	0.543440
O31	O	1.427752	0.284718	0.793440
O32	O	1.677752	0.534718	1.043440
O33	O	1.110734	-0.452863	0.303196
O34	O	1.360734	-0.202863	0.553196
O35	O	1.610734	0.047137	0.803196
O36	O	1.860734	0.297137	1.053196
O37	O	1.010910	-0.215265	0.376589
O38	O	1.260910	0.034735	0.626589
O39	O	1.510910	0.284735	0.876589
O40	O	1.760910	0.534735	1.126589
O41	O	0.922104	-0.350471	0.189250
O42	O	1.172104	-0.100471	0.439250
O43	O	1.422104	0.149529	0.689250
O44	O	1.672104	0.399529	0.939250
O45	O	0.812402	-0.350428	0.298962
O46	O	1.062402	-0.100428	0.548962
O47	O	1.312402	0.149572	0.798962
O48	O	1.562402	0.399572	1.048962
O49	O	0.917912	-0.452787	0.496035
O50	O	1.167912	-0.202787	0.746035
O51	O	1.417912	0.047213	0.996035
O52	O	1.667912	0.297213	1.246035
O53	O	0.808160	-0.452809	0.386295
O54	O	1.058160	-0.202809	0.636295
O55	O	1.308160	0.047191	0.886295
O56	O	1.558160	0.297191	1.136295
O57	O	1.005312	-0.350389	0.491851
O58	O	1.255312	-0.100389	0.741851
O59	O	1.505312	0.149611	0.991851
O60	O	1.755312	0.399611	1.241851
O61	O	0.995384	-0.588008	0.308718
O62	O	1.245384	-0.338008	0.558718
O63	O	1.495384	-0.088008	0.808718
O64	O	1.745384	0.161992	1.058718
O65	O	0.912264	-0.587976	0.391845
O66	O	1.162264	-0.337976	0.641845
O67	O	1.412264	-0.087976	0.891845
O68	O	1.662264	0.162024	1.141845
C69	C	0.785722	-0.401617	0.342625
C70	C	1.035722	-0.151617	0.592625
C71	C	1.285722	0.098383	0.842625
C72	C	1.535722	0.348383	1.092625
C73	C	0.710490	-0.401630	0.342633
C74	C	0.960490	-0.151630	0.592633
C75	C	1.210490	0.098370	0.842633
C76	C	1.460490	0.348370	1.092633
C77	C	0.672951	-0.455020	0.388040
C78	C	0.922951	-0.205020	0.638040
C79	C	1.172951	0.044980	0.888040
C80	C	1.422951	0.294980	1.138040
C81	C	0.602263	-0.455022	0.388050
C82	C	0.852263	-0.205022	0.638050
C83	C	1.102263	0.044978	0.888050
C84	C	1.352263	0.294978	1.138050
C85	C	0.569114	-0.401637	0.342648
C86	C	0.819114	-0.151637	0.592648
C87	C	1.069114	0.098363	0.842648
C88	C	1.319114	0.348363	1.092648
C89	C	0.606657	-0.348241	0.297239
C90	C	0.856657	-0.098241	0.547239
C91	C	1.106657	0.151759	0.797239
C92	C	1.356657	0.401759	1.047239
C93	C	0.677345	-0.348236	0.297233
C94	C	0.927345	-0.098236	0.547233
C95	C	1.177345	0.151764	0.797233
C96	C	1.427345	0.401764	1.047233
C97	C	0.321583	-0.348259	0.297262
C98	C	0.571583	-0.098259	0.547262
C99	C	0.821583	0.151741	0.797262
C100	C	1.071583	0.401741	1.047262
C101	C	0.250891	-0.348270	0.297270
C102	C	0.500891	-0.098270	0.547270
C103	C	0.750891	0.151730	0.797270
C104	C	1.000891	0.401730	1.047270
C105	C	0.246501	-0.455045	0.388079
C106	C	0.496501	-0.205045	0.638079
C107	C	0.746501	0.044955	0.888079
C108	C	0.996501	0.294955	1.138079
C109	C	0.317189	-0.455040	0.388073
C110	C	0.567189	-0.205040	0.638073
C111	C	0.817189	0.044960	0.888073
C112	C	1.067189	0.294960	1.138073
C113	C	0.354726	-0.401642	0.342666
C114	C	0.604726	-0.151642	0.592666
C115	C	0.854726	0.098358	0.842666
C116	C	1.104726	0.348358	1.092666
C117	C	0.431375	-0.401640	0.342657
C118	C	0.681375	-0.151640	0.592657
C119	C	0.931375	0.098360	0.842657
C120	C	1.181375	0.348360	1.092657
C121	C	0.492466	-0.401642	0.342653
C122	C	0.742466	-0.151642	0.592653
C123	C	0.992466	0.098358	0.842653
C124	C	1.242466	0.348358	1.092653
C125	C	0.952584	-0.618243	0.351535
C126	C	1.202584	-0.368243	0.601535
C127	C	1.452584	-0.118243	0.851535
C128	C	1.702584	0.131757	1.101535
C129	C	0.948798	-0.710909	0.355360
C130	C	1.198798	-0.460909	0.605360
C131	C	1.448798	-0.210909	0.855360
C132	C	1.698798	0.039091	1.105360
C133	C	0.981382	-0.921848	0.322953
C134	C	1.231382	-0.671848	0.572953
C135	C	1.481382	-0.421848	0.822953
C136	C	1.731382	-0.171848	1.072953
C137	C	0.941899	-0.880566	0.362350
C138	C	1.191899	-0.630566	0.612350
C139	C	1.441899	-0.380566	0.862350
C140	C	1.691899	-0.130566	1.112350
C141	C	0.945739	-0.786160	0.358460
C142	C	1.195739	-0.536160	0.608460
C143	C	1.445739	-0.286160	0.858460
C144	C	1.695739	-0.036160	1.108460
C145	C	0.977543	-1.016263	0.326842
C146	C	1.227543	-0.766263	0.576842
C147	C	1.477543	-0.516263	0.826842
C148	C	1.727543	-0.266263	1.076842
C149	C	1.138120	-0.401650	0.342671
C150	C	1.388120	-0.151650	0.592671
C151	C	1.638120	0.098350	0.842671
C152	C	1.888120	0.348350	1.092671
C153	C	1.213351	-0.401657	0.342681
C154	C	1.463351	-0.151657	0.592681
C155	C	1.713351	0.098343	0.842681
C156	C	1.963351	0.348343	1.092681
C157	C	0.961618	-0.401580	0.519189
C158	C	1.211618	-0.151580	0.769189
C159	C	1.461618	0.098420	1.019189
C160	C	1.711618	0.348420	1.269189
C161	C	0.961635	-0.401558	0.594420
C162	C	1.211635	-0.151558	0.844420
C163	C	1.461635	0.098442	1.094420
C164	C	1.711635	0.348442	1.344420
C165	C	0.970625	-0.184178	0.333741
C166	C	1.220625	0.065822	0.583741
C167	C	1.470625	0.315822	0.833741
C168	C	1.720625	0.565822	1.083741
C169	C	0.974480	-0.091511	0.329945
C170	C	1.224480	0.158489	0.579945
C171	C	1.474480	0.408489	0.829945
C172	C	1.724480	0.658489	1.079945
C173	C	0.961579	-0.401625	0.166792
C174	C	1.211579	-0.151625	0.416792
C175	C	1.461579	0.098375	0.666792
C176	C	1.711579	0.348375	0.916792
C177	C	0.961703	-0.401413	0.091551
C178	C	1.211703	-0.151413	0.341551
C179	C	1.461703	0.098587	0.591551
C180	C	1.711703	0.348587	0.841551
C181	C	1.007145	-0.348237	0.627586
C182	C	1.257145	-0.098237	0.877586
C183	C	1.507145	0.151763	1.127586
C184	C	1.757145	0.401763	1.377586
C185	C	1.007153	-0.348213	0.698274
C186	C	1.257153	-0.098213	0.948274
C187	C	1.507153	0.151787	1.198274
C188	C	1.757153	0.401787	1.448274
C189	C	0.961653	-0.401515	0.735794
C190	C	1.211653	-0.151515	0.985794
C191	C	1.461653	0.098485	1.235794
C192	C	1.711653	0.348485	1.485794
C193	C	0.916139	-0.454838	0.702622
C194	C	1.166139	-0.204838	0.952622
C195	C	1.416139	0.045162	1.202622
C196	C	1.666139	0.295162	1.452622
C197	C	0.916128	-0.454858	0.631936
C198	C	1.166128	-0.204858	0.881936
C199	C	1.416128	0.045142	1.131936
C200	C	1.666128	0.295142	1.381936
C201	C	0.916180	-0.454760	0.987692
C202	C	1.166180	-0.204760	1.237692
C203	C	1.416180	0.045240	1.487692
C204	C	1.666180	0.295240	1.737692
C205	C	0.916196	-0.454739	1.058384
C206	C	1.166196	-0.204739	1.308384
C207	C	1.416196	0.045261	1.558384
C208	C	1.666196	0.295261	1.808384
C209	C	1.007205	-0.348116	1.054031
C210	C	1.257205	-0.098116	1.304031
C211	C	1.507205	0.151884	1.554031
C212	C	1.757205	0.401884	1.804031
C213	C	1.007194	-0.348135	0.983344
C214	C	1.257194	-0.098135	1.233344
C215	C	1.507194	0.151865	1.483344
C216	C	1.757194	0.401865	1.733344
C217	C	0.961677	-0.401455	0.950179
C218	C	1.211677	-0.151455	1.200179
C219	C	1.461677	0.098545	1.450179
C220	C	1.711677	0.348545	1.700179
C221	C	0.961668	-0.401480	0.873531
C222	C	1.211668	-0.151480	1.123531
C223	C	1.461668	0.098520	1.373531
C224	C	1.711668	0.348520	1.623531
C225	C	0.961665	-0.401495	0.812440
C226	C	1.211665	-0.151495	1.062440
C227	C	1.461665	0.098505	1.312440
C228	C	1.711665	0.348505	1.562440
H229	H	0.579662	-0.304770	0.260275
H230	H	0.829662	-0.054770	0.510275
H231	H	1.079662	0.195230	0.760275
H232	H	1.329662	0.445230	1.010275
H233	H	0.707908	-0.304756	0.260261
H234	H	0.957908	-0.054756	0.510261
H235	H	1.207908	0.195244	0.760261
H236	H	1.457908	0.445244	1.010261
H237	H	0.905213	-0.916125	0.399001
H238	H	1.155213	-0.666125	0.649001
H239	H	1.405213	-0.416125	0.899001
H240	H	1.655213	-0.166125	1.149001
H241	H	1.044213	-0.304795	0.725275
H242	H	1.294213	-0.054795	0.975275
H243	H	1.544213	0.195205	1.225275
H244	H	1.794213	0.445205	1.475275
H245	H	0.879090	-0.498235	0.733176
H246	H	1.129090	-0.248235	0.983176
H247	H	1.379090	0.001765	1.233176
H248	H	1.629090	0.251765	1.483176
Cl249	Cl	1.038017	-0.866952	0.266368
Cl250	Cl	1.288017	-0.616952	0.516368
Cl251	Cl	1.538017	-0.366952	0.766368
Cl252	Cl	1.788017	-0.116952	1.016368
Cl253	Cl	1.064350	-0.281229	0.580426
Cl254	Cl	1.314350	-0.031229	0.830426
Cl255	Cl	1.564350	0.218771	1.080426
Cl256	Cl	1.814350	0.468771	1.330426
Cl257	Cl	0.858911	-0.521890	0.590240
Cl258	Cl	1.108911	-0.271890	0.840240
Cl259	Cl	1.358911	-0.021890	1.090240
Cl260	Cl	1.608911	0.228110	1.340240
H261	H	0.699936	-0.498496	0.425009
H262	H	0.949936	-0.248496	0.675009
H263	H	1.199936	0.001504	0.925009
H264	H	1.449936	0.251504	1.175009
Cl265	Cl	1.064397	-0.281127	0.936180
Cl266	Cl	1.314397	-0.031127	1.186180
Cl267	Cl	1.564397	0.218873	1.436180
Cl268	Cl	1.814397	0.468873	1.686180
Cl269	Cl	1.064424	-0.281080	1.095728
Cl270	Cl	1.314424	-0.031080	1.345728
Cl271	Cl	1.564424	0.218920	1.595728
Cl272	Cl	1.814424	0.468920	1.845728
H273	H	0.879142	-0.498145	1.088931
H274	H	1.129142	-0.248145	1.338931
H275	H	1.379142	0.001855	1.588931
H276	H	1.629142	0.251855	1.838931
Cl277	Cl	0.555074	-0.522144	0.445136
Cl278	Cl	0.805074	-0.272144	0.695136
Cl279	Cl	1.055074	-0.022144	0.945136
Cl280	Cl	1.305074	0.227856	1.195136
H281	H	0.215930	-0.498522	0.425053
H282	H	0.465930	-0.248522	0.675053
H283	H	0.715930	0.001478	0.925053
H284	H	0.965930	0.251478	1.175053
H285	H	0.879127	-0.498189	0.960698
H286	H	1.129127	-0.248189	1.210698
H287	H	1.379127	0.001811	1.460698
H288	H	1.629127	0.251811	1.710698
H289	H	0.344175	-0.498515	0.425041
H290	H	0.594175	-0.248515	0.675041
H291	H	0.844175	0.001485	0.925041
H292	H	1.094175	0.251485	1.175041
Cl293	Cl	0.368764	-0.281127	0.240181
Cl294	Cl	0.618764	-0.031127	0.490181
Cl295	Cl	0.868764	0.218873	0.740181
Cl296	Cl	1.118764	0.468873	0.990181
Cl297	Cl	0.209219	-0.281151	0.240190
Cl298	Cl	0.459219	-0.031151	0.490190
Cl299	Cl	0.709219	0.218849	0.740190
Cl300	Cl	0.959219	0.468849	0.990190
