data_functionalizedCrystal
_audit_creation_method	'MofGen! by Chris Wilmer'
_symmetry_space_group_name_H-M	'P1'
_symmetry_Int_Tables_number	1
_symmetry_cell_setting	triclinic
loop_
_symmetry_equiv_pos_as_xyz
  x,y,z
_cell_length_a	18.101395
_cell_length_b	19.805407
_cell_length_c	19.805407
_cell_angle_alpha	89.990779
_cell_angle_beta	90.010856
_cell_angle_gamma	89.968896
loop_
_atom_site_label
_atom_site_type_symbol
_atom_site_fract_x
_atom_site_fract_y
_atom_site_fract_z
Zn1	Zn	-0.294951	-1.034644	0.382731
Zn2	Zn	0.205049	-0.534644	0.882731
Zn3	Zn	-0.418764	-1.034570	0.269548
Zn4	Zn	0.081236	-0.534570	0.769548
Zn5	Zn	-0.294941	-0.921480	0.269556
Zn6	Zn	0.205059	-0.421480	0.769556
Zn7	Zn	-0.418755	-0.921413	0.382694
Zn8	Zn	0.081245	-0.421413	0.882694
O9	O	-0.356853	-0.978027	0.326132
O10	O	0.143147	-0.478027	0.826132
O11	O	-0.311383	-1.129351	0.367729
O12	O	0.188617	-0.629351	0.867729
O13	O	-0.402338	-1.019565	0.174832
O14	O	0.097662	-0.519565	0.674832
O15	O	-0.191309	-0.936550	0.284587
O16	O	0.308691	-0.436550	0.784587
O17	O	-0.402348	-1.129297	0.284574
O18	O	0.097652	-0.629297	0.784574
O19	O	-0.191317	-1.019691	0.367737
O20	O	0.308683	-0.519691	0.867737
O21	O	-0.311365	-0.936478	0.174838
O22	O	0.188635	-0.436478	0.674838
O23	O	-0.311357	-0.826754	0.284552
O24	O	0.188643	-0.326754	0.784552
O25	O	-0.402333	-0.936437	0.477416
O26	O	0.097667	-0.436437	0.977416
O27	O	-0.402323	-0.826706	0.367674
O28	O	0.097677	-0.326706	0.867674
O29	O	-0.311375	-1.019627	0.477443
O30	O	0.188625	-0.519627	0.977443
O31	O	-0.522396	-1.019501	0.284538
O32	O	-0.022396	-0.519501	0.784538
O33	O	-0.522389	-0.936365	0.367667
O34	O	-0.022389	-0.436365	0.867667
C35	C	-0.549263	-0.977936	0.326112
C36	C	-0.049263	-0.477936	0.826112
C37	C	-0.631577	-0.977960	0.326126
C38	C	-0.131577	-0.477960	0.826126
C39	C	-0.356839	-0.802171	0.326110
C40	C	0.143161	-0.302171	0.826110
C41	C	-0.356850	-0.726939	0.326117
C42	C	0.143150	-0.226939	0.826117
C43	C	-0.356854	-0.978033	0.502675
C44	C	0.143146	-0.478033	1.002675
C45	C	-0.356855	-0.978036	0.577907
C46	C	0.143145	-0.478036	1.077907
C47	C	-0.930668	-0.978108	0.326163
C48	C	-0.430668	-0.478108	0.826163
C49	C	-0.899370	-0.925922	0.378595
C50	C	-0.399370	-0.425922	0.878595
C51	C	-0.813752	-0.925674	0.378431
C52	C	-0.313752	-0.425674	0.878431
C53	C	-0.782286	-0.978034	0.326145
C54	C	-0.282286	-0.478034	0.826145
C55	C	-0.813415	-0.958736	0.254811
C56	C	-0.313415	-0.458736	0.754811
C57	C	-0.899060	-0.958400	0.255125
C58	C	-0.399060	-0.458400	0.755125
C59	C	-0.899018	-1.049706	0.344438
C60	C	-0.399018	-0.549706	0.844438
C61	C	-0.813367	-1.049285	0.346002
C62	C	-0.313367	-0.549285	0.846002
C63	C	-0.698426	-0.977994	0.326131
C64	C	-0.198426	-0.477994	0.826131
C65	C	-1.014528	-0.978147	0.326172
C66	C	-0.514528	-0.478147	0.826172
C67	C	-0.163691	-0.978136	0.326167
C68	C	0.336309	-0.478136	0.826167
C69	C	-0.081377	-0.978183	0.326182
C70	C	0.418623	-0.478183	0.826182
C71	C	-0.356867	-1.154570	0.326155
C72	C	0.143133	-0.654570	0.826155
C73	C	-0.356874	-1.229802	0.326164
C74	C	0.143126	-0.729802	0.826164
C75	C	-0.404288	-0.691587	0.369329
C76	C	0.095712	-0.191587	0.869329
C77	C	-0.404289	-0.620899	0.369338
C78	C	0.095711	-0.120899	0.869338
C79	C	-0.356856	-0.585563	0.326132
C80	C	0.143144	-0.085563	0.826132
C81	C	-0.309414	-0.620920	0.282918
C82	C	0.190586	-0.120920	0.782918
C83	C	-0.309409	-0.691607	0.282913
C84	C	0.190591	-0.191607	0.782913
C85	C	-0.309430	-0.335847	0.282941
C86	C	0.190570	0.164153	0.782941
C87	C	-0.309440	-0.265155	0.282948
C88	C	0.190560	0.234845	0.782948
C89	C	-0.404310	-0.265138	0.369366
C90	C	0.095690	0.234862	0.869366
C91	C	-0.404305	-0.335825	0.369361
C92	C	0.095695	0.164175	0.869361
C93	C	-0.356860	-0.371176	0.326150
C94	C	0.143140	0.128824	0.826150
C95	C	-0.356858	-0.447824	0.326141
C96	C	0.143142	0.052176	0.826141
C97	C	-0.356861	-0.508916	0.326137
C98	C	0.143139	-0.008916	0.826137
C99	C	-0.309500	-1.021347	0.613266
C100	C	0.190500	-0.521347	1.113266
C101	C	-0.309498	-1.021342	0.683955
C102	C	0.190502	-0.521342	1.183955
C103	C	-0.356855	-0.978027	0.719282
C104	C	0.143145	-0.478027	1.219282
C105	C	-0.404211	-0.934710	0.683918
C106	C	0.095789	-0.434710	1.183918
C107	C	-0.404209	-0.934713	0.613231
C108	C	0.095791	-0.434713	1.113231
C109	C	-0.404220	-0.934697	0.968992
C110	C	0.095780	-0.434697	1.468992
C111	C	-0.404220	-0.934699	1.039684
C112	C	0.095780	-0.434699	1.539684
C113	C	-0.309508	-1.021325	1.039715
C114	C	0.190492	-0.521325	1.539715
C115	C	-0.309506	-1.021328	0.969028
C116	C	0.190494	-0.521328	1.469028
C117	C	-0.356860	-0.978009	0.933670
C118	C	0.143140	-0.478009	1.433670
C119	C	-0.356861	-0.978015	0.857021
C120	C	0.143139	-0.478015	1.357021
C121	C	-0.356858	-0.978024	0.795930
C122	C	0.143142	-0.478024	1.295930
C123	C	-0.356866	-0.978014	1.150276
C124	C	0.143134	-0.478014	1.650276
C125	C	-0.356861	-0.978008	1.075044
C126	C	0.143139	-0.478008	1.575044
H127	H	-0.792705	-0.937747	0.431325
H128	H	-0.292705	-0.437747	0.931325
H129	H	-0.270946	-1.056602	0.940267
H130	H	0.229054	-0.556602	1.440267
H131	H	-0.270939	-1.056621	0.584507
H132	H	0.229061	-0.556621	1.084507
Br133	Br	-0.932463	-0.871169	0.229322
Br134	Br	-0.432463	-0.371169	0.729322
H135	H	-0.791944	-1.090221	0.310597
H136	H	-0.291944	-0.590221	0.810597
Br137	Br	-0.933646	-0.945838	0.467044
Br138	Br	-0.433646	-0.445838	0.967044
H139	H	-0.920582	-1.067303	0.395568
H140	H	-0.420582	-0.567303	0.895568
Br141	Br	-0.245262	-1.080156	0.731940
Br142	Br	0.254738	-0.580156	1.231940
H143	H	-0.919765	-0.994762	0.214726
H144	H	-0.419765	-0.494762	0.714726
H145	H	-0.442939	-0.236347	0.404553
H146	H	0.057061	0.263653	0.904553
H147	H	-0.442763	-0.899437	0.584442
H148	H	0.057237	-0.399437	1.084442
H149	H	-0.442785	-0.899424	1.068446
H150	H	0.057215	-0.399424	1.568446
H151	H	-0.442915	-0.720352	0.404510
H152	H	0.057085	-0.220352	0.904510
H153	H	-0.920953	-0.873175	0.366642
H154	H	-0.420953	-0.373175	0.866642
H155	H	-0.270948	-1.056595	1.068512
H156	H	0.229052	-0.556595	1.568512
Br157	Br	-0.779699	-0.837219	0.358260
Br158	Br	-0.279699	-0.337219	0.858260
H159	H	-0.442768	-0.899440	0.712688
H160	H	0.057232	-0.399440	1.212688
Br161	Br	-0.779447	-1.020095	0.187919
Br162	Br	-0.279447	-0.520095	0.687919
Br163	Br	-0.777769	-0.872427	0.228544
Br164	Br	-0.277769	-0.372427	0.728544
H165	H	-0.793021	-1.063838	0.398500
H166	H	-0.293021	-0.563838	0.898500
Br167	Br	-0.468485	-0.875906	0.921014
Br168	Br	0.031515	-0.375906	1.421014
H169	H	-0.919256	-1.088586	0.306249
H170	H	-0.419256	-0.588586	0.806249
H171	H	-0.270803	-0.364621	0.247751
H172	H	0.229197	0.135379	0.747751
Br173	Br	-0.468685	-0.383777	0.427996
Br174	Br	0.031315	0.116223	0.927996
Br175	Br	-0.468669	-0.572924	0.427987
Br176	Br	0.031331	-0.072924	0.927987
H177	H	-0.270810	-0.236387	0.247765
H178	H	0.229190	0.263613	0.747765
H179	H	-0.270790	-0.592144	0.247742
H180	H	0.229210	-0.092144	0.747742
Br181	Br	-0.245023	-0.739586	0.224270
Br182	Br	0.254977	-0.239586	0.724270
