data_functionalizedCrystal
_audit_creation_method	'MofGen! by Chris Wilmer'
_symmetry_space_group_name_H-M	'P1'
_symmetry_Int_Tables_number	1
_symmetry_cell_setting	triclinic
loop_
_symmetry_equiv_pos_as_xyz
  x,y,z
_cell_length_a	12.827893
_cell_length_b	12.827892
_cell_length_c	12.827885
_cell_angle_alpha	89.969834
_cell_angle_beta	89.980538
_cell_angle_gamma	90.015552
loop_
_atom_site_label
_atom_site_type_symbol
_atom_site_fract_x
_atom_site_fract_y
_atom_site_fract_z
Zn1	Zn	1.597672	-0.415976	-0.590847
Zn2	Zn	2.097672	0.084024	-0.090847
Zn3	Zn	1.597565	-0.590754	-0.416107
Zn4	Zn	2.097565	-0.090754	0.083893
Zn5	Zn	1.422912	-0.416028	-0.416121
Zn6	Zn	1.922912	0.083972	0.083879
Zn7	Zn	1.422898	-0.590676	-0.590807
Zn8	Zn	1.922898	-0.090676	-0.090807
O9	O	1.510262	-0.503359	-0.503471
O10	O	2.010262	-0.003359	-0.003471
O11	O	1.743893	-0.439171	-0.567679
O12	O	2.243893	0.060829	-0.067679
O13	O	1.574358	-0.567630	-0.269873
O14	O	2.074358	-0.067630	0.230127
O15	O	1.446145	-0.269785	-0.439321
O16	O	1.946145	0.230215	0.060679
O17	O	1.743815	-0.567580	-0.439298
O18	O	2.243815	-0.067580	0.060702
O19	O	1.574540	-0.269747	-0.567692
O20	O	2.074540	0.230253	-0.067692
O21	O	1.446042	-0.439260	-0.269883
O22	O	1.946042	0.060740	0.230117
O23	O	1.276674	-0.439185	-0.439282
O24	O	1.776674	0.060815	0.060718
O25	O	1.446121	-0.567448	-0.737048
O26	O	1.946121	-0.067448	-0.237048
O27	O	1.276664	-0.567498	-0.567623
O28	O	1.776664	-0.067498	-0.067623
O29	O	1.574526	-0.439096	-0.737078
O30	O	2.074526	0.060904	-0.237078
O31	O	1.574345	-0.736980	-0.439259
O32	O	2.074345	-0.236980	0.060741
O33	O	1.446018	-0.736923	-0.567610
O34	O	1.946018	-0.236923	-0.067610
C35	C	1.238752	-0.503339	-0.503451
C36	C	1.738752	-0.003339	-0.003451
C37	C	1.122599	-0.503356	-0.503467
C38	C	1.622599	-0.003356	-0.003467
C39	C	1.070853	-0.439928	-0.567093
C40	C	1.570853	0.060072	-0.067093
C41	C	0.950802	-0.439944	-0.567111
C42	C	1.450802	0.060056	-0.067111
C43	C	1.510196	-0.774868	-0.503451
C44	C	2.010196	-0.274868	-0.003451
C45	C	1.510264	-0.891022	-0.503478
C46	C	2.010264	-0.391022	-0.003478
C47	C	1.573770	-0.942704	-0.567057
C48	C	2.073770	-0.442704	-0.067057
C49	C	1.573841	-1.062754	-0.567086
C50	C	2.073841	-0.562754	-0.067086
C51	C	1.782832	-0.503379	-0.503491
C52	C	2.282832	-0.003379	-0.003491
C53	C	1.898985	-0.503387	-0.503500
C54	C	2.398985	-0.003387	-0.003500
C55	C	1.510334	-0.503257	-0.776041
C56	C	2.010334	-0.003257	-0.276041
C57	C	1.510365	-0.503214	-0.892194
C58	C	2.010365	-0.003214	-0.392194
C59	C	1.510356	-0.230788	-0.503513
C60	C	2.010356	0.269212	-0.003513
C61	C	1.510396	-0.114635	-0.503531
C62	C	2.010396	0.385365	-0.003531
C63	C	1.573941	-0.439646	-1.064038
C64	C	2.073941	0.060354	-0.564038
C65	C	1.573910	-0.439689	-0.943987
C66	C	2.073910	0.060311	-0.443987
C67	C	1.510250	-0.503384	-0.231961
C68	C	2.010250	-0.003384	0.268039
C69	C	1.510422	-0.503133	-0.115808
C70	C	2.010422	-0.003133	0.384192
H71	H	1.628083	-0.898077	-0.621473
H72	H	2.128083	-0.398077	-0.121473
H73	H	0.943479	-0.557699	-0.449030
H74	H	1.443479	-0.057699	0.050970
O75	O	1.638651	-1.115657	-0.632175
O76	O	2.138651	-0.615657	-0.132175
C77	C	1.689211	-1.149130	-0.809963
C78	C	2.189211	-0.649130	-0.309963
C79	C	1.615767	-1.089131	-0.736363
C80	C	2.115767	-0.589131	-0.236363
H81	H	1.670721	-1.127723	-0.894215
H82	H	2.170721	-0.627723	-0.394215
H83	H	1.773511	-1.127656	-0.791794
H84	H	2.273511	-0.627656	-0.291794
H85	H	1.677726	-1.236498	-0.798360
H86	H	2.177726	-0.736498	-0.298360
H87	H	1.627159	-1.001750	-0.747924
H88	H	2.127159	-0.501750	-0.247924
H89	H	1.531493	-1.110692	-0.754549
H90	H	2.031493	-0.610692	-0.254549
H91	H	1.456023	-0.557522	-1.071254
H92	H	1.956023	-0.057522	-0.571254
O93	O	1.445636	-1.061675	-0.438439
O94	O	1.945636	-0.561675	0.061561
C95	C	1.394966	-1.028306	-0.260662
C96	C	1.894966	-0.528306	0.239338
C97	C	1.468389	-1.088339	-0.334257
C98	C	1.968389	-0.588339	0.165743
H99	H	1.413321	-1.049858	-0.176418
H100	H	1.913321	-0.549858	0.323582
H101	H	1.406468	-0.940920	-0.272117
H102	H	1.906468	-0.440920	0.227883
H103	H	1.310694	-1.049752	-0.278983
H104	H	1.810694	-0.549752	0.221017
H105	H	1.552689	-1.066980	-0.315983
H106	H	2.052689	-0.566980	0.184017
H107	H	1.456796	-1.175711	-0.322789
H108	H	1.956796	-0.675711	0.177211
H109	H	1.628348	-0.385265	-1.108592
H110	H	2.128348	0.114735	-0.608592
H111	H	1.455943	-0.935651	-0.449072
H112	H	1.955943	-0.435651	0.050928
H113	H	1.628286	-0.385332	-0.899466
H114	H	2.128286	0.114668	-0.399466
H115	H	1.455974	-0.557563	-0.936708
H116	H	1.955974	-0.057563	-0.436708
H117	H	1.115427	-0.385610	-0.621548
H118	H	1.615427	0.114390	-0.121548
O119	O	0.897884	-0.375125	-0.632200
O120	O	1.397884	0.124875	-0.132200
C121	C	0.909247	-0.242647	-0.764967
C122	C	1.409247	0.257353	-0.264967
C123	C	0.969308	-0.316021	-0.691323
C124	C	1.469308	0.183979	-0.191323
H125	H	0.966967	-0.194827	-0.812772
H126	H	1.466967	0.305173	-0.312772
H127	H	0.858197	-0.290693	-0.819560
H128	H	1.358197	0.209307	-0.319560
H129	H	0.858099	-0.188047	-0.717028
H130	H	1.358099	0.311953	-0.217028
H131	H	1.020512	-0.370635	-0.739178
H132	H	1.520512	0.129365	-0.239178
H133	H	1.020292	-0.267910	-0.636727
H134	H	1.520292	0.232090	-0.136727
O135	O	1.069385	-0.568270	-0.438644
O136	O	1.569385	-0.068270	0.061356
C137	C	0.945952	-0.709205	-0.424476
C138	C	1.445952	-0.209205	0.075524
C139	C	1.006165	-0.635769	-0.498008
C140	C	1.506165	-0.135769	0.001992
H141	H	0.894808	-0.763781	-0.472441
H142	H	1.394808	-0.263781	0.027559
H143	H	1.003537	-0.757036	-0.376587
H144	H	1.503537	-0.257036	0.123413
H145	H	0.894878	-0.661102	-0.369948
H146	H	1.394878	-0.161102	0.130052
H147	H	1.057241	-0.683791	-0.552600
H148	H	1.557241	-0.183791	-0.052600
H149	H	0.948524	-0.587934	-0.545824
H150	H	1.448524	-0.087934	-0.045824
