data_functionalizedCrystal
_audit_creation_method	'MofGen! by Chris Wilmer'
_symmetry_space_group_name_H-M	'P1'
_symmetry_Int_Tables_number	1
_symmetry_cell_setting	triclinic
loop_
_symmetry_equiv_pos_as_xyz
  x,y,z
_cell_length_a	13.339070
_cell_length_b	23.532357
_cell_length_c	11.804365
_cell_angle_alpha	101.747256
_cell_angle_beta	74.875130
_cell_angle_gamma	99.228793
loop_
_atom_site_label
_atom_site_type_symbol
_atom_site_fract_x
_atom_site_fract_y
_atom_site_fract_z
O1	O	1.359871	0.276782	-0.099126
O2	O	1.065729	0.239369	-0.099112
O3	O	1.221691	0.176578	-0.099095
O4	O	1.203909	0.339573	-0.099143
O5	O	1.180632	0.193086	0.098957
O6	O	1.024670	0.255877	0.098940
O7	O	1.318812	0.293290	0.098925
Cu8	Cu	1.167992	0.276090	0.117016
Cu9	Cu	1.216549	0.256569	-0.117203
O10	O	1.162850	0.356081	0.098909
C11	C	1.007575	0.241303	-0.000084
C12	C	0.895467	0.222465	-0.000077
C13	C	0.529169	0.368937	-0.000139
C14	C	0.634500	0.386638	-0.000149
C15	C	0.699747	0.345596	-0.000131
C16	C	0.659652	0.286851	-0.000103
C17	C	0.554313	0.269148	-0.000102
C18	C	0.724891	0.245807	-0.000094
C19	C	0.684796	0.187062	-0.000066
C20	C	0.579467	0.169362	-0.000065
C21	C	0.514220	0.210403	-0.000083
C22	C	0.830231	0.263510	-0.000095
C23	C	0.855375	0.163721	-0.000058
C24	C	0.750043	0.146020	-0.000048
C25	C	1.200716	0.163544	-0.000065
C26	C	1.199376	0.100111	-0.000054
C27	C	1.213370	-0.302258	-0.108076
C28	C	1.212099	-0.361863	-0.108083
O29	O	1.230441	-0.400344	-0.199897
N30	N	1.189088	-0.382678	-0.000126
C31	C	1.167335	-0.343885	0.107844
O32	O	1.147644	-0.367063	0.199669
C33	C	1.168599	-0.284282	0.107849
C34	C	1.191622	-0.263470	-0.000114
C35	C	1.236390	-0.281446	-0.216031
C36	C	1.237662	-0.221844	-0.216023
C37	C	1.215914	-0.183056	-0.108062
C38	C	1.192894	-0.203869	-0.000107
C39	C	1.146839	-0.245491	0.215818
C40	C	1.148104	-0.185884	0.215815
C41	C	1.171127	-0.165072	0.107851
C42	C	1.172418	-0.105479	0.107862
N43	N	1.195430	-0.084664	-0.000094
C44	C	1.217178	-0.123453	-0.108056
C45	C	1.164682	-0.469057	0.107824
C46	C	1.163425	-0.528658	0.107820
C47	C	1.208188	-0.546633	-0.108107
C48	C	1.209451	-0.487029	-0.108102
C49	C	1.187693	-0.448242	-0.000132
C50	C	1.219849	0.001715	-0.108033
C51	C	1.221123	0.061322	-0.108016
C52	C	1.176356	0.079291	0.107910
C53	C	1.175086	0.019689	0.107894
C54	C	1.196832	-0.019099	-0.000087
O55	O	1.154083	-0.066965	0.199629
O56	O	1.236852	-0.100268	-0.199865
C57	C	1.376966	0.291356	-0.000105
C58	C	1.489076	0.310193	-0.000120
C59	C	1.183826	0.369115	-0.000124
C60	C	1.185168	0.432548	-0.000143
N61	N	1.133848	0.289822	0.281753
N62	N	1.250702	0.242834	-0.281940
C63	C	1.332696	0.209849	0.655723
C64	C	1.358525	0.199458	0.531064
C65	C	1.302358	0.222048	0.468730
C66	C	1.220357	0.255031	0.531068
C67	C	1.194530	0.265426	0.655739
C68	C	1.164192	0.277625	0.468746
C69	C	1.082192	0.310608	0.531083
C70	C	1.056369	0.321001	0.655742
C71	C	1.112536	0.298411	0.718076
C72	C	1.190019	0.267230	0.344075
C73	C	1.051853	0.322807	0.344090
C74	C	1.026024	0.333197	0.468749
H75	H	0.785512	0.360011	-0.000142
H76	H	0.476039	0.402346	-0.000164
H77	H	1.378425	0.191463	0.706484
H78	H	0.546828	0.121527	-0.000056
H79	H	0.989607	0.347862	0.706497
N80	N	0.406621	0.192332	-0.000073
N81	N	0.348382	0.228984	-0.000085
H82	H	0.272388	0.216223	-0.000081
H83	H	1.225893	-0.578226	-0.196016
N84	N	1.125865	-0.146274	0.326117
N85	N	1.105308	-0.164870	0.422495
H86	H	1.089601	-0.136896	0.500397
N87	N	1.086124	0.309021	0.845416
N88	N	1.012903	0.338464	0.901063
H89	H	0.994242	0.345952	0.990999
N90	N	0.942280	0.366899	0.532430
N91	N	0.945996	0.418511	0.518496
H92	H	0.886852	0.442313	0.563470
H93	H	1.323392	0.213587	0.367227
N94	N	0.994491	0.345886	0.280414
N95	N	1.017562	0.336603	0.169108
H96	H	0.977057	0.352903	0.124127
H97	H	0.667139	0.434467	-0.000181
N98	N	1.258608	-0.321072	-0.326307
N99	N	1.191710	-0.362340	-0.350421
H100	H	1.207412	-0.390324	-0.428309
N101	N	0.709064	0.086018	-0.000015
N102	N	0.615013	0.070224	-0.000008
H103	H	0.586069	0.027848	0.000017
H104	H	1.237551	-0.029861	-0.195961
H105	H	0.862864	0.311341	-0.000112
N106	N	0.922027	0.121800	-0.000048
N107	N	1.016072	0.137613	-0.000049
H108	H	1.063153	0.108009	-0.000045
H109	H	1.144693	-0.545596	0.195735
H110	H	1.425290	0.172605	0.480314
H111	H	1.239875	0.078263	-0.195937
H112	H	1.256406	-0.204906	-0.303939
H113	H	1.228197	-0.470089	-0.196015
N114	N	1.142457	-0.429446	0.218131
N115	N	1.121912	-0.448044	0.314505
H116	H	1.106213	-0.420073	0.392410
H117	H	1.128093	-0.262425	0.303734
N118	N	1.151558	-0.001567	0.218181
N119	N	1.065509	0.005118	0.290462
H120	H	1.048880	-0.009892	0.368355
N121	N	1.154154	0.118927	0.218175
N122	N	1.155293	0.172141	0.218152
H123	H	1.139607	0.200136	0.296027
N124	N	1.273725	0.233509	0.280396
N125	N	1.269947	0.181894	0.294349
H126	H	1.329052	0.158066	0.249365
