data_functionalizedCrystal
_audit_creation_method	'MofGen! by Chris Wilmer'
_symmetry_space_group_name_H-M	'P1'
_symmetry_Int_Tables_number	1
_symmetry_cell_setting	triclinic
loop_
_symmetry_equiv_pos_as_xyz
  x,y,z
_cell_length_a	21.295419
_cell_length_b	29.839131
_cell_length_c	21.295411
_cell_angle_alpha	89.971982
_cell_angle_beta	89.975461
_cell_angle_gamma	90.050029
loop_
_atom_site_label
_atom_site_type_symbol
_atom_site_fract_x
_atom_site_fract_y
_atom_site_fract_z
Zn1	Zn	0.962335	-0.178727	-0.355883
Zn2	Zn	1.462335	0.321273	0.144117
Zn3	Zn	0.962229	-0.253843	-0.250597
Zn4	Zn	1.462229	0.246157	0.249403
Zn5	Zn	0.857058	-0.178747	-0.250628
Zn6	Zn	1.357058	0.321253	0.249372
Zn7	Zn	0.857019	-0.253850	-0.355829
Zn8	Zn	1.357019	0.246150	0.144171
O9	O	0.909660	-0.216292	-0.303234
O10	O	1.409660	0.283708	0.196766
O11	O	1.050410	-0.188680	-0.341927
O12	O	1.550410	0.311320	0.158073
O13	O	0.948249	-0.243886	-0.162512
O14	O	1.448249	0.256114	0.337488
O15	O	0.871084	-0.115877	-0.264627
O16	O	1.371084	0.384123	0.235373
O17	O	1.050332	-0.243867	-0.264573
O18	O	1.550332	0.256133	0.235427
O19	O	0.948431	-0.115863	-0.341957
O20	O	1.448431	0.384137	0.158043
O21	O	0.870981	-0.188714	-0.162535
O22	O	1.370981	0.311286	0.337465
O23	O	0.768963	-0.188721	-0.264574
O24	O	1.268963	0.311279	0.235426
O25	O	0.871017	-0.243880	-0.443925
O26	O	1.371017	0.256120	0.056075
O27	O	0.768935	-0.243899	-0.341864
O28	O	1.268935	0.256101	0.158136
O29	O	0.948392	-0.188687	-0.443965
O30	O	1.448392	0.311313	0.056035
O31	O	0.948211	-0.316711	-0.264520
O32	O	1.448211	0.183289	0.235480
O33	O	0.870914	-0.316716	-0.341834
O34	O	1.370914	0.183284	0.158166
C35	C	0.746108	-0.216313	-0.303217
C36	C	1.246108	0.283687	0.196783
C37	C	0.676140	-0.216333	-0.303224
C38	C	1.176140	0.283667	0.196776
C39	C	0.643337	-0.187644	-0.343564
C40	C	1.143337	0.312356	0.156436
C41	C	0.577594	-0.187632	-0.343567
C42	C	1.077594	0.312368	0.156433
C43	C	0.544658	-0.216317	-0.303235
C44	C	1.044658	0.283683	0.196765
C45	C	0.577469	-0.245008	-0.262888
C46	C	1.077469	0.254992	0.237112
C47	C	0.643211	-0.245016	-0.262882
C48	C	1.143211	0.254984	0.237118
N49	N	0.441378	-0.255624	-0.298310
N50	N	0.941378	0.244376	0.201690
N51	N	0.378926	-0.255615	-0.298319
N52	N	0.878926	0.244385	0.201681
C53	C	0.346583	-0.216294	-0.303249
C54	C	0.846583	0.283706	0.196751
N55	N	0.379051	-0.176981	-0.308183
N56	N	0.879051	0.323019	0.191817
N57	N	0.441508	-0.176990	-0.308177
N58	N	0.941508	0.323010	0.191823
C59	C	0.473372	-0.216311	-0.303237
C60	C	0.973372	0.283689	0.196763
C61	C	0.242494	-0.187590	-0.343594
C62	C	0.742494	0.312410	0.156406
C63	C	0.176750	-0.187577	-0.343592
C64	C	0.676750	0.312423	0.156408
C65	C	0.176627	-0.244956	-0.262917
C66	C	0.676627	0.255044	0.237083
C67	C	0.242369	-0.244965	-0.262915
C68	C	0.742369	0.255035	0.237085
C69	C	0.275299	-0.216282	-0.303257
C70	C	0.775299	0.283718	0.196743
C71	C	0.909564	-0.333014	-0.303181
C72	C	1.409564	0.166986	0.196819
C73	C	0.909581	-0.382949	-0.303180
C74	C	1.409581	0.117051	0.196820
C75	C	0.949926	-0.692550	-0.343558
C76	C	1.449926	-0.192550	0.156442
C77	C	0.949994	-0.880223	-0.343595
C78	C	1.449994	-0.380223	0.156405
O79	O	0.984203	-0.904451	-0.377887
O80	O	1.484203	-0.404451	0.122113
N81	N	0.909767	-0.903734	-0.303304
N82	N	1.409767	-0.403734	0.196696
C83	C	0.869517	-0.880324	-0.263003
C84	C	1.369517	-0.380324	0.236997
O85	O	0.835299	-0.904628	-0.228739
O86	O	1.335299	-0.404628	0.271261
C87	C	0.869446	-0.692651	-0.262969
C88	C	1.369446	-0.192651	0.237031
C89	C	0.909680	-0.669143	-0.303259
C90	C	1.409680	-0.169143	0.196741
C91	C	0.990156	-0.669041	-0.383844
C92	C	1.490156	-0.169041	0.116156
C93	C	0.990141	-0.622126	-0.383832
C94	C	1.490141	-0.122126	0.116168
C95	C	0.949895	-0.598719	-0.343533
C96	C	1.449895	-0.098719	0.156467
C97	C	0.909665	-0.622227	-0.303246
C98	C	1.409665	-0.122227	0.196754
C99	C	0.829194	-0.669242	-0.222672
C100	C	1.329194	-0.169242	0.277328
C101	C	0.829178	-0.622321	-0.222668
C102	C	1.329178	-0.122321	0.277332
C103	C	0.869412	-0.598813	-0.262958
C104	C	1.369412	-0.098813	0.237042
C105	C	0.869405	-0.551905	-0.262935
C106	C	1.369405	-0.051905	0.237065
N107	N	0.909632	-0.528394	-0.303227
N108	N	1.409632	-0.028394	0.196773
C109	C	0.949877	-0.551801	-0.343525
C110	C	1.449877	-0.051801	0.156475
C111	C	0.869558	-0.978854	-0.263023
C112	C	1.369558	-0.478854	0.236977
C113	C	0.869577	-1.025772	-0.263031
C114	C	1.369577	-0.525772	0.236969
C115	C	0.950053	-1.025668	-0.343624
C116	C	1.450053	-0.525668	0.156376
C117	C	0.950037	-0.978749	-0.343613
C118	C	1.450037	-0.478749	0.156387
C119	C	0.909785	-0.955343	-0.303315
C120	C	1.409785	-0.455343	0.196685
C121	C	0.949843	-0.453275	-0.343496
C122	C	1.449843	0.046725	0.156504
C123	C	0.949826	-0.406356	-0.343478
C124	C	1.449826	0.093644	0.156522
C125	C	0.869348	-0.406464	-0.262888
C126	C	1.369348	0.093536	0.237112
C127	C	0.869367	-0.453379	-0.262903
C128	C	1.369367	0.046621	0.237097
C129	C	0.909616	-0.476784	-0.303212
C130	C	1.409616	0.023216	0.196788
O131	O	0.835209	-0.527648	-0.228667
O132	O	1.335209	-0.027648	0.271333
O133	O	0.984081	-0.527489	-0.377795
O134	O	1.484081	-0.027489	0.122205
C135	C	0.949941	-0.739465	-0.343570
C136	C	1.449941	-0.239465	0.156430
C137	C	0.909710	-0.762974	-0.303283
C138	C	1.409710	-0.262974	0.196717
C139	C	0.869465	-0.739567	-0.262984
C140	C	1.369465	-0.239567	0.237016
C141	C	0.909729	-0.809892	-0.303291
C142	C	1.409729	-0.309892	0.196709
C143	C	0.949974	-0.833298	-0.343590
C144	C	1.449974	-0.333298	0.156410
C145	C	0.990201	-0.809787	-0.383881
C146	C	1.490201	-0.309787	0.116119
C147	C	0.990186	-0.762872	-0.383869
C148	C	1.490186	-0.262872	0.116131
C149	C	0.829238	-0.763078	-0.222693
C150	C	1.329238	-0.263078	0.277307
C151	C	0.829257	-0.809994	-0.222708
C152	C	1.329257	-0.309994	0.277292
C153	C	0.869502	-0.833400	-0.263007
C154	C	1.369502	-0.333400	0.236993
C155	C	1.073850	-0.216270	-0.303252
C156	C	1.573850	0.283730	0.196748
C157	C	1.143818	-0.216261	-0.303260
C158	C	1.643818	0.283739	0.196740
C159	C	0.909712	-0.216282	-0.467425
C160	C	1.409712	0.283718	0.032575
C161	C	0.909735	-0.216278	-0.537393
C162	C	1.409735	0.283722	-0.037393
C163	C	0.909774	-0.099113	-0.303301
C164	C	1.409774	0.400887	0.196699
C165	C	0.909822	-0.049179	-0.303330
C166	C	1.409822	0.450821	0.196670
C167	C	0.950022	-0.187538	-0.570281
C168	C	1.450022	0.312462	-0.070281
C169	C	0.950021	-0.187519	-0.636024
C170	C	1.450021	0.312481	-0.136024
C171	C	0.909739	-0.216247	-0.668875
C172	C	1.409739	0.283753	-0.168875
C173	C	0.869444	-0.244989	-0.635979
C174	C	1.369444	0.255011	-0.135979
C175	C	0.869442	-0.245005	-0.570238
C176	C	1.369442	0.254995	-0.070238
N177	N	0.904878	-0.255549	-0.772085
N178	N	1.404878	0.244451	-0.272085
N179	N	0.904884	-0.255533	-0.834536
N180	N	1.404884	0.244467	-0.334536
C181	C	0.909743	-0.216202	-0.866950
C182	C	1.409743	0.283798	-0.366950
N183	N	0.914609	-0.176886	-0.834554
N184	N	1.414609	0.323114	-0.334554
N185	N	0.914606	-0.176903	-0.772096
N186	N	1.414606	0.323097	-0.272096
C187	C	0.909737	-0.216233	-0.740161
C188	C	1.409737	0.283767	-0.240161
C189	C	0.950032	-0.187438	-0.971124
C190	C	1.450032	0.312562	-0.471124
C191	C	0.950027	-0.187418	-1.036868
C192	C	1.450027	0.312582	-0.536868
C193	C	0.869453	-0.244893	-1.036822
C194	C	1.369453	0.255107	-0.536822
C195	C	0.869455	-0.244909	-0.971079
C196	C	1.369455	0.255091	-0.471079
C197	C	0.909748	-0.216182	-0.938235
C198	C	1.409748	0.283818	-0.438235
C199	C	0.909644	-0.216269	-0.139683
C200	C	1.409644	0.283731	0.360317
C201	C	0.909744	-0.216146	-0.069715
C202	C	1.409744	0.283854	0.430285
H203	H	0.550648	-0.268363	-0.230049
H204	H	1.050648	0.231637	0.269951
H205	H	0.669919	-0.268379	-0.230031
H206	H	1.169919	0.231621	0.269969
H207	H	0.550880	-0.164268	-0.376415
H208	H	1.050880	0.335732	0.123585
F209	F	0.141839	-0.157038	-0.386528
F210	F	0.641839	0.342962	0.113472
H211	H	0.982827	-0.164113	-0.662807
H212	H	1.482827	0.335887	-0.162807
F213	F	0.277543	-0.157061	-0.386526
F214	F	0.777543	0.342939	0.113474
H215	H	0.149810	-0.268312	-0.230078
H216	H	0.649810	0.231688	0.269922
H217	H	0.836648	-0.268279	-1.063569
H218	H	1.336648	0.231721	-0.563569
H219	H	0.982823	-1.044734	-0.376436
H220	H	1.482823	-0.544734	0.123564
F221	F	0.826762	-1.050787	-0.220142
F222	F	1.326762	-0.550787	0.279858
H223	H	0.269078	-0.268329	-0.230068
H224	H	0.769078	0.231671	0.269932
H225	H	0.982831	-0.164146	-0.543543
H226	H	1.482831	0.335854	-0.043543
H227	H	0.836644	-0.268379	-0.662731
H228	H	1.336644	0.231621	-0.162731
F229	F	0.826553	-0.478400	-0.220015
F230	F	1.326553	0.021600	0.279985
H231	H	0.836652	-0.268315	-0.944301
H232	H	1.336652	0.231685	-0.444301
H233	H	0.982613	-0.472325	-0.376324
H234	H	1.482613	0.027675	0.123676
F235	F	0.678379	-0.157117	-0.386499
F236	F	1.178379	0.342883	0.113501
H237	H	1.022928	-0.688094	-0.416664
H238	H	1.522928	-0.188094	0.083336
H239	H	0.982799	-0.959611	-0.376420
H240	H	1.482799	-0.459611	0.123580
F241	F	0.786335	-0.597414	-0.179777
F242	F	1.286335	-0.097414	0.320223
F243	F	0.826560	-0.275595	-0.535234
F244	F	1.326560	0.224405	-0.035234
H245	H	0.982592	-0.387216	-0.376287
H246	H	1.482592	0.112784	0.123713
H247	H	0.796494	-0.829130	-0.189894
H248	H	1.296494	-0.329130	0.310106
F249	F	1.032960	-0.597112	-0.426718
F250	F	1.532960	-0.097112	0.073282
F251	F	0.786398	-0.738173	-0.179802
F252	F	1.286398	-0.238173	0.320198
H253	H	0.982838	-0.164045	-0.944381
H254	H	1.482838	0.335955	-0.444381
H255	H	0.836779	-0.959800	-0.230206
H256	H	1.336779	-0.459800	0.269794
H257	H	0.796431	-0.688375	-0.189864
H258	H	1.296431	-0.188375	0.310136
F259	F	0.992916	-0.156832	-1.071870
F260	F	1.492916	0.343168	-0.571870
F261	F	1.033035	-0.834707	-0.426768
F262	F	1.533035	-0.334707	0.073232
F263	F	0.826519	-0.381544	-0.220001
F264	F	1.326519	0.118456	0.279999
F265	F	1.033008	-0.737858	-0.426751
F266	F	1.533008	-0.237858	0.073249
