data_functionalizedCrystal
_audit_creation_method	'MofGen! by Chris Wilmer'
_symmetry_space_group_name_H-M	'P1'
_symmetry_Int_Tables_number	1
_symmetry_cell_setting	triclinic
loop_
_symmetry_equiv_pos_as_xyz
  x,y,z
_cell_length_a	31.640172
_cell_length_b	31.640171
_cell_length_c	20.016444
_cell_angle_alpha	120.007014
_cell_angle_beta	89.993856
_cell_angle_gamma	59.979319
loop_
_atom_site_label
_atom_site_type_symbol
_atom_site_fract_x
_atom_site_fract_y
_atom_site_fract_z
Zr1	Zr	0.406960	0.462746	0.087792
O2	O	0.339423	0.550966	0.194524
O3	O	0.427692	0.374536	0.055047
O4	O	0.427644	0.462748	0.194467
O5	O	0.339476	0.462748	-0.054843
O6	O	0.497201	0.462740	0.194452
O7	O	0.339471	0.462753	0.055104
O8	O	0.497287	0.304944	-0.054945
O9	O	0.339391	0.620545	0.194554
O10	O	0.488409	0.410808	0.041102
O11	O	0.436503	0.410811	-0.040938
O12	O	0.436446	0.514670	0.123210
O13	O	0.384541	0.514673	0.041170
Zr14	Zr	0.517903	0.462724	-0.087583
Zr15	Zr	0.517895	0.462732	0.087769
Zr16	Zr	0.406968	0.462738	-0.087559
Zr17	Zr	0.406907	0.573716	0.087841
Zr18	Zr	0.517955	0.351754	-0.087631
O19	O	0.497171	0.550935	-0.054837
O20	O	0.497159	0.550946	0.194490
O21	O	0.339435	0.550955	-0.054804
O22	O	0.585439	0.374505	-0.194314
O23	O	0.585428	0.374516	0.055013
O24	O	0.427703	0.374525	-0.194281
O25	O	0.585386	0.462722	0.055052
O26	O	0.497219	0.462722	-0.194257
O27	O	0.427662	0.462731	-0.194242
O28	O	0.585391	0.462717	-0.054894
O29	O	0.427570	0.620533	0.194535
O30	O	0.497293	0.304937	-0.194326
O31	O	0.585472	0.304926	-0.194345
O32	O	0.585466	0.304932	-0.054963
O33	O	0.339397	0.620538	0.055173
O34	O	0.427576	0.620527	0.055154
O35	O	0.488416	0.410801	-0.123001
O36	O	0.540322	0.410798	-0.040960
O37	O	0.488360	0.514660	0.041148
O38	O	0.436454	0.514663	-0.040893
C39	C	0.462497	0.323929	0.000044
C40	C	0.462519	0.276819	0.000023
C41	C	0.500776	-0.097754	-0.060486
C42	C	0.500822	0.079199	-0.060531
O43	O	0.533447	0.069459	-0.112051
N44	N	0.462486	0.139681	0.000060
C45	C	0.424138	0.155926	0.060670
O46	O	0.391535	0.211430	0.112210
C47	C	0.424095	-0.021027	0.060718
C48	C	0.462430	-0.081510	0.000118
C49	C	0.539109	-0.158234	-0.121080
C50	C	0.539095	-0.202470	-0.121071
C51	C	0.500749	-0.186225	-0.060467
C52	C	0.462417	-0.125745	0.000127
C53	C	0.385750	-0.004782	0.121330
C54	C	0.385743	-0.049027	0.121338
C55	C	0.424078	-0.109509	0.060738
C56	C	0.424057	-0.153736	0.060740
N57	N	0.462393	-0.214218	0.000149
C58	C	0.500739	-0.230463	-0.060454
C59	C	0.424163	0.248826	0.060640
C60	C	0.424173	0.293064	0.060627
C61	C	0.500858	0.216333	-0.060573
C62	C	0.500845	0.172095	-0.060563
C63	C	0.462499	0.188343	0.000049
C64	C	0.500708	-0.323357	-0.060431
C65	C	0.500690	-0.367593	-0.060418
C66	C	0.424007	-0.290859	0.060784
C67	C	0.424023	-0.246627	0.060770
C68	C	0.462378	-0.262881	0.000158
O69	O	0.391453	-0.144041	0.112239
O70	O	0.533344	-0.285970	-0.111976
C71	C	0.500790	-0.053519	-0.060495
C72	C	0.462457	0.006961	0.000099
C73	C	0.424111	0.023205	0.060703
C74	C	0.462467	0.051199	0.000087
C75	C	0.500813	0.034954	-0.060517
C76	C	0.539149	-0.025529	-0.121108
C77	C	0.539136	-0.069764	-0.121099
C78	C	0.385775	0.083688	0.121294
C79	C	0.385792	0.127920	0.121279
C80	C	0.424138	0.111675	0.060676
C81	C	0.323668	0.462753	0.000134
C82	C	0.276573	0.462759	0.000144
C83	C	0.011691	0.408515	-0.042771
C84	C	-0.165294	0.408505	-0.042788
O85	O	-0.165112	0.362397	-0.079268
N86	N	-0.214548	0.462719	0.000073
C87	C	-0.219554	0.516940	0.042936
O88	O	-0.265508	0.563052	0.079385
C89	C	-0.042570	0.516950	0.042947
C90	C	0.006683	0.462732	0.000091
C91	C	0.060942	0.354301	-0.085625
C92	C	0.105185	0.354305	-0.085617
C93	C	0.100178	0.408521	-0.042755
C94	C	0.050927	0.462735	0.000099
C95	C	-0.047577	0.571170	0.085805
C96	C	-0.003325	0.571167	0.085803
C97	C	0.045928	0.516949	0.042946
C98	C	0.090163	0.516955	0.042969
N99	N	0.139416	0.462740	0.000108
C100	C	0.144424	0.408524	-0.042754
C101	C	-0.312472	0.516931	0.042929
C102	C	-0.356718	0.516929	0.042928
C103	C	-0.302455	0.408493	-0.042798
C104	C	-0.258208	0.408496	-0.042791
C105	C	-0.263218	0.462716	0.000068
C106	C	0.237336	0.408534	-0.042733
C107	C	0.281581	0.408542	-0.042718
C108	C	0.227314	0.516977	0.043003
C109	C	0.183073	0.516970	0.042993
C110	C	0.188087	0.462743	0.000118
O111	O	0.090020	0.563038	0.079423
O112	O	0.190382	0.362418	-0.079211
C113	C	-0.032552	0.408512	-0.042780
C114	C	-0.081803	0.462725	0.000074
C115	C	-0.086811	0.516942	0.042936
C116	C	-0.126049	0.462723	0.000073
C117	C	-0.121042	0.408506	-0.042789
C118	C	-0.071788	0.354292	-0.085650
C119	C	-0.027545	0.354295	-0.085642
C120	C	-0.136064	0.571156	0.085797
C121	C	-0.180306	0.571149	0.085786
C122	C	-0.175298	0.516932	0.042924
C123	C	0.601195	0.462718	0.000075
C124	C	0.648290	0.462712	0.000066
C125	C	0.462421	0.462745	0.219443
C126	C	0.462418	0.462749	0.293884
C127	C	0.462366	0.601542	0.000165
C128	C	0.462344	0.648652	0.000186
C129	C	0.435301	0.516959	0.508002
C130	C	0.435304	0.516957	0.577944
C131	C	0.489553	0.408522	0.492210
C132	C	0.489552	0.408524	0.422270
C133	C	0.462423	0.462744	0.430169
C134	C	0.462427	0.462741	0.570051
C135	C	0.462431	0.462739	0.645885
C136	C	0.462420	0.462747	0.354331
C137	C	0.462438	0.462729	0.780769
C138	C	0.462433	0.462737	0.706336
C139	C	0.601260	0.323911	0.000015
C140	C	0.648377	0.276796	-0.000016
C141	C	0.462507	0.323919	-0.219294
C142	C	0.462533	0.276806	-0.293756
C143	C	0.601270	0.323902	-0.219324
C144	C	0.648391	0.276783	-0.293795
C145	C	0.323593	0.601569	0.219533
C146	C	0.276472	0.648688	0.294005
C147	C	0.323603	0.601559	0.000195
C148	C	0.276485	0.648675	0.000225
C149	C	0.462356	0.601552	0.219504
C150	C	0.462330	0.648665	0.293966
C151	C	0.643406	0.254675	0.042813
C152	C	0.687673	0.210411	0.042801
C153	C	0.736912	0.188266	-0.000045
C154	C	0.741882	0.210391	-0.042876
C155	C	0.697615	0.254657	-0.042858
C156	C	0.489643	0.254676	-0.371568
C157	C	0.489665	0.210415	-0.441539
C158	C	0.462579	0.188281	-0.433698
C159	C	0.435466	0.210415	-0.355878
C160	C	0.435441	0.254679	-0.285908
C161	C	0.697618	0.254654	-0.285944
C162	C	0.741897	0.210387	-0.355911
C163	C	0.736948	0.188246	-0.433730
C164	C	0.687715	0.210380	-0.441580
C165	C	0.643437	0.254649	-0.371613
C166	C	0.227245	0.670823	0.286153
C167	C	0.182965	0.715103	0.356121
C168	C	0.187915	0.737246	0.433939
C169	C	0.237147	0.715110	0.441789
C170	C	0.281425	0.670833	0.371822
C171	C	0.281457	0.670800	-0.042597
C172	C	0.237189	0.715076	-0.042565
C173	C	0.187951	0.737224	0.000284
C174	C	0.182981	0.715096	0.043111
C175	C	0.227247	0.670824	0.043084
C176	C	0.489421	0.670784	0.286098
C177	C	0.489407	0.715046	0.356056
C178	C	0.462299	0.737190	0.433881
C179	C	0.435207	0.715067	0.441748
C180	C	0.435225	0.670803	0.371790
H181	H	0.570337	-0.171472	-0.170432
H182	H	0.701658	0.272674	-0.222586
N183	N	0.517267	0.353143	0.342758
N184	N	0.565063	0.316838	0.321859
H185	H	0.584638	0.277726	0.265704
H186	H	0.603318	0.272706	0.077714
H187	H	0.151910	0.773273	0.000300
H188	H	0.511496	0.652761	0.222735
H189	H	0.511467	0.733055	0.349635
H190	H	0.781981	0.192370	-0.349505
H191	H	0.413137	0.733103	0.505122
N192	N	0.132679	0.737730	0.086876
N193	N	0.093164	0.777257	0.086884
H194	H	0.057637	0.793242	0.117790
H195	H	0.511746	0.192398	-0.504896
N196	N	0.407547	0.648218	0.379848
N197	N	0.383346	0.668000	0.449343
H198	H	0.363798	0.652051	0.455041
H199	H	0.223192	0.652811	0.077952
H200	H	0.511699	0.272692	-0.377968
N201	N	0.242462	0.353144	-0.086508
N202	N	0.223825	0.341046	-0.049231
H203	H	0.227446	0.301926	-0.080142
N204	N	0.132675	0.737713	0.348111
N205	N	0.101904	0.792057	0.377599
H206	H	0.066386	0.808024	0.371944
N207	N	0.222190	0.648211	0.206663
N208	N	0.261722	0.608681	0.144191
H209	H	0.258150	0.592715	0.088052
H210	H	0.531907	-0.416842	-0.109769
H211	H	0.321545	0.652771	-0.077495
H212	H	0.683616	0.192402	0.077678
H213	H	0.354569	0.177168	0.170626
N214	N	0.782185	0.143027	-0.505187
N215	N	0.826134	0.123276	-0.498156
H216	H	0.858085	0.091338	-0.548619
N217	N	0.407600	0.572342	0.657442
N218	N	0.383384	0.620745	0.664478
H219	H	0.363817	0.659863	0.720625
N220	N	0.242208	0.737715	0.521275
N221	N	0.286162	0.717947	0.528286
H222	H	0.289735	0.733909	0.584425
N223	N	0.517265	0.353134	0.484129
N224	N	0.565060	0.316826	0.447604
H225	H	0.584632	0.277706	0.441892
N226	N	0.066066	0.298914	-0.129392
N227	N	0.047433	0.286816	-0.092110
H228	H	0.051057	0.247695	-0.123016
N229	N	0.539891	-0.339974	-0.122345
N230	N	0.574112	-0.393980	-0.176437
H231	H	0.601785	-0.405717	-0.220166
N232	N	0.578258	-0.264246	-0.182978
N233	N	0.612490	-0.278731	-0.237078
H234	H	0.640153	-0.322360	-0.280803
N235	N	0.682666	0.187762	-0.521073
N236	N	0.701317	0.192695	-0.569664
H237	H	0.697752	0.176717	-0.625809
N238	N	0.540006	0.110318	-0.122471
N239	N	0.574237	0.095830	-0.176577
H240	H	0.601897	0.052200	-0.220302
N241	N	0.540023	0.199754	-0.122475
N242	N	0.540022	0.239262	-0.122468
H243	H	0.567683	0.227557	-0.166180
N244	N	0.462611	0.143068	-0.505183
N245	N	0.486822	0.123317	-0.574651
H246	H	0.486848	0.091384	-0.625141
N247	N	0.462291	0.782404	0.505329
N248	N	0.486483	0.802145	0.498283
H249	H	0.486479	0.834078	0.548740
N250	N	0.782122	0.142998	-0.000130
N251	N	0.777669	0.123221	0.038061
H252	H	0.809597	0.091230	0.037972
H253	H	0.151857	0.773299	0.490904
N254	N	0.346571	-0.032438	0.183240
N255	N	0.346560	-0.071937	0.183244
H256	H	0.318894	-0.060222	0.226960
N257	N	0.792184	0.187759	-0.086637
N258	N	0.831699	0.148232	-0.086645
H259	H	0.867226	0.132244	-0.117556
N260	N	0.242283	0.737667	-0.086317
N261	N	0.286251	0.717880	-0.124576
H262	H	0.289850	0.733833	-0.155476
H263	H	0.392795	-0.197378	0.110095
N264	N	0.702698	0.277253	-0.086604
N265	N	0.725774	0.301946	-0.068440
H266	H	0.729367	0.317904	-0.099336
N267	N	0.385004	0.354840	0.122524
N268	N	0.350772	0.369329	0.176628
H269	H	0.323109	0.412958	0.220347
N270	N	0.384988	0.265439	0.122565
N271	N	0.350765	0.319446	0.176654
H272	H	0.323096	0.331182	0.220389
H273	H	-0.140150	0.615307	0.120703
H274	H	0.413414	0.192388	-0.349506
H275	H	0.354536	0.044460	0.170683
H276	H	-0.007411	0.615321	0.120694
N277	N	0.407754	0.277265	-0.206434
N278	N	0.419265	0.242663	-0.185611
H279	H	0.399710	0.258611	-0.129483
N280	N	0.384842	-0.274282	0.122679
N281	N	0.384842	-0.313790	0.122674
H282	H	0.357184	-0.302084	0.166391
N283	N	0.578297	-0.131540	-0.183008
N284	N	0.612528	-0.146025	-0.237110
H285	H	0.640189	-0.189654	-0.280837
H286	H	0.570370	-0.038749	-0.170456
N287	N	0.593158	0.277243	-0.379655
N288	N	0.588752	0.257465	-0.449144
H289	H	0.553242	0.273420	-0.454830
N290	N	0.155489	0.298916	-0.129402
N291	N	0.159943	0.250517	-0.167668
H292	H	0.195469	0.211396	-0.198597
N293	N	0.346593	0.100301	0.183202
N294	N	0.299972	0.130943	0.190651
H295	H	0.272294	0.142683	0.234375
N296	N	0.331896	0.353163	-0.086488
N297	N	0.362633	0.341068	-0.049208
H298	H	0.398167	0.301958	-0.080119
N299	N	-0.207903	0.353109	-0.086568
N300	N	-0.203447	0.304708	-0.124827
H301	H	-0.167920	0.265588	-0.155747
N302	N	-0.407022	0.572316	0.086724
N303	N	-0.411479	0.620717	0.124989
H304	H	-0.447006	0.659837	0.155920
H305	H	-0.298384	0.364348	-0.077693
N306	N	-0.097884	0.626549	0.129584
N307	N	-0.128637	0.638658	0.185992
H308	H	-0.164168	0.677773	0.216913
N309	N	0.331709	0.648211	0.379851
N310	N	0.362466	0.593866	0.350366
H311	H	0.397979	0.577891	0.356041
N312	N	-0.317606	0.572326	0.086730
N313	N	-0.340722	0.608625	0.162267
H314	H	-0.344351	0.647749	0.193206
N315	N	0.132764	0.572356	0.086789
N316	N	0.128303	0.620759	0.125062
H317	H	0.092774	0.659877	0.155991
N318	N	0.222195	0.572361	0.086781
N319	N	0.178220	0.620767	0.125041
H320	H	0.174605	0.659883	0.155956
H321	H	-0.067718	0.310147	-0.120544
N322	N	0.022763	0.298912	-0.129438
N323	N	0.053510	0.286809	-0.185845
H324	H	0.089039	0.247692	-0.216780
N325	N	-0.230612	0.626541	0.129579
N326	N	-0.235069	0.674942	0.167843
H327	H	-0.270596	0.714062	0.198767
N328	N	0.407594	0.572346	0.516083
N329	N	0.383384	0.620748	0.585585
H330	H	0.363818	0.659868	0.591297
