data_functionalizedCrystal
_audit_creation_method	'MofGen! by Chris Wilmer'
_symmetry_space_group_name_H-M	'P1'
_symmetry_Int_Tables_number	1
_symmetry_cell_setting	triclinic
loop_
_symmetry_equiv_pos_as_xyz
  x,y,z
_cell_length_a	11.026660
_cell_length_b	10.065875
_cell_length_c	11.026660
_cell_angle_alpha	100.732748
_cell_angle_beta	108.584835
_cell_angle_gamma	79.302288
loop_
_atom_site_label
_atom_site_type_symbol
_atom_site_fract_x
_atom_site_fract_y
_atom_site_fract_z
O1	O	1.741265	-0.113484	0.518943
O2	O	1.374689	-0.113486	0.458184
O3	O	1.527598	-0.113484	0.305275
O4	O	1.588357	-0.113486	0.671851
O5	O	1.498473	0.113504	0.334583
O6	O	1.345564	0.113502	0.487491
O7	O	1.712140	0.113504	0.548250
Zn8	Zn	1.524228	0.149542	0.522524
Zn9	Zn	1.562601	-0.149524	0.483910
O10	O	1.559232	0.113502	0.701159
C11	C	1.312468	0.000007	0.461628
C12	C	1.170456	0.000006	0.428213
C13	C	0.970029	0.000002	0.485954
C14	C	1.116806	0.000004	0.520493
C15	C	1.501826	0.000007	0.272270
C16	C	1.468412	-0.000001	0.130256
C17	C	1.774362	0.000008	0.544806
C18	C	1.916376	-0.000000	0.578220
N19	N	1.498049	0.353648	0.548878
N20	N	1.588789	-0.353630	0.457548
C21	C	1.553483	0.421427	0.493070
C22	C	1.533346	0.578594	0.513365
C23	C	1.526153	0.000005	-0.070170
C24	C	1.560692	0.000001	0.076607
C25	C	1.585004	0.000008	0.734164
C26	C	1.618419	0.000007	0.876176
H27	H	1.615845	0.363104	0.430260
C28	C	1.375122	-0.116678	-0.247254
C29	C	1.384994	0.000005	-0.154843
H30	H	1.287975	-0.116670	-0.299530
H31	H	1.402141	-0.195819	-0.204995
H32	H	1.428542	-0.116663	-0.299924
H33	H	1.331580	-0.000015	-0.102167
H34	H	1.357959	0.079167	-0.197105
H35	H	0.979103	0.000008	0.682783
C36	C	1.323687	0.622905	0.546192
C37	C	1.449142	0.657316	0.598150
H38	H	1.271703	0.671514	0.598530
H39	H	1.326182	0.527626	0.543689
H40	H	1.288086	0.646262	0.461125
H41	H	1.484746	0.633950	0.683214
H42	H	1.446651	0.752617	0.600667
H43	H	1.651155	0.588050	0.394735
C44	C	1.288393	0.397964	0.581701
C45	C	1.413848	0.432375	0.633659
H46	H	1.236410	0.446572	0.634040
H47	H	1.290888	0.302685	0.579198
H48	H	1.252792	0.421320	0.496634
H49	H	1.449452	0.409009	0.718723
H50	H	1.411357	0.527675	0.636176
C51	C	1.708751	0.000002	0.290287
C52	C	1.701859	0.000003	0.161272
H53	H	1.795900	0.000012	0.342554
H54	H	1.677684	-0.079151	0.297685
H55	H	1.657358	0.079161	0.318122
H56	H	1.753245	-0.079162	0.133433
H57	H	1.732943	0.079165	0.153868
H58	H	1.179530	0.000013	0.625063
H59	H	1.722988	-0.000043	-0.061101
C60	C	0.956780	-0.000013	0.280146
C61	C	1.085795	-0.000005	0.287043
H62	H	0.904519	-0.000031	0.192993
H63	H	0.928999	0.079141	0.331582
H64	H	0.949325	-0.079171	0.311167
H65	H	1.093252	0.079159	0.256031
H66	H	1.113584	-0.079167	0.235588
C67	C	1.317369	-0.116687	-0.046815
C68	C	1.327244	-0.000003	0.045594
H69	H	1.230220	-0.116681	-0.099085
H70	H	1.344393	-0.195827	-0.004555
H71	H	1.370782	-0.116671	-0.099491
H72	H	1.273837	-0.000023	0.098277
H73	H	1.300203	0.079158	0.003331
H74	H	0.907298	0.000022	0.381394
