data_functionalizedCrystal
_audit_creation_method	'MofGen! by Chris Wilmer'
_symmetry_space_group_name_H-M	'P1'
_symmetry_Int_Tables_number	1
_symmetry_cell_setting	triclinic
loop_
_symmetry_equiv_pos_as_xyz
  x,y,z
_cell_length_a	14.908571
_cell_length_b	12.759394
_cell_length_c	14.908308
_cell_angle_alpha	93.270375
_cell_angle_beta	90.175053
_cell_angle_gamma	86.711018
loop_
_atom_site_label
_atom_site_type_symbol
_atom_site_fract_x
_atom_site_fract_y
_atom_site_fract_z
Zn1	Zn	1.345342	-0.548283	-0.587608
Zn2	Zn	1.353936	-0.714463	-0.437257
Zn3	Zn	1.203655	-0.528103	-0.428605
Zn4	Zn	1.194963	-0.713215	-0.578908
O5	O	1.274474	-0.626016	-0.508095
O6	O	1.472308	-0.579295	-0.574926
O7	O	1.341235	-0.681819	-0.310284
O8	O	1.222491	-0.383763	-0.449718
O9	O	1.478622	-0.701387	-0.464463
O10	O	1.326587	-0.398589	-0.566537
O11	O	1.230824	-0.544901	-0.303928
O12	O	1.076675	-0.543691	-0.441282
O13	O	1.207677	-0.699259	-0.705887
O14	O	1.070290	-0.679692	-0.551709
O15	O	1.318159	-0.578084	-0.712279
O16	O	1.332807	-0.861314	-0.456027
O17	O	1.216011	-0.860397	-0.560098
C18	C	1.040857	-0.609367	-0.494613
C19	C	0.940913	-0.602271	-0.488866
C20	C	1.274422	-0.898979	-0.508078
C21	C	1.274480	-1.015761	-0.508105
C22	C	0.746517	-0.730753	-0.592902
C23	C	0.652611	-0.724089	-0.587506
C24	C	0.659193	-0.582275	-0.472683
C25	C	0.753099	-0.588939	-0.478079
C26	C	0.796758	-0.663181	-0.538190
C27	C	0.890666	-0.669850	-0.543581
C28	C	0.897246	-0.528031	-0.428764
C29	C	0.803340	-0.521367	-0.423368
C30	C	1.396283	-1.236108	-0.399871
C31	C	1.457113	-1.181690	-0.345725
C32	C	1.457067	-1.071964	-0.345704
C33	C	1.396184	-1.016653	-0.399834
C34	C	1.335355	-1.071070	-0.453980
C35	C	1.335409	-1.180799	-0.453996
C36	C	1.213651	-1.070178	-0.562252
C37	C	1.213699	-1.179905	-0.562278
C38	C	1.152767	-1.014867	-0.616381
C39	C	1.091941	-1.069285	-0.670533
C40	C	1.091990	-1.179017	-0.670553
C41	C	1.152870	-1.234322	-0.616424
C42	C	1.509003	-0.642731	-0.521630
C43	C	1.608945	-0.649854	-0.527398
C44	C	1.260990	-0.640784	-0.742621
C45	C	1.255244	-0.647077	-0.842562
C46	C	1.274550	-0.351990	-0.508133
C47	C	1.274582	-0.235217	-0.508149
C48	C	1.359489	-0.532698	-1.037019
C49	C	1.354093	-0.538608	-1.130923
C50	C	1.239052	-0.664799	-1.124274
C51	C	1.244448	-0.658889	-1.030370
C52	C	1.304669	-0.592838	-0.986746
C53	C	1.310070	-0.586935	-0.892841
C54	C	1.195024	-0.713120	-0.886194
C55	C	1.189628	-0.719029	-0.980098
C56	C	1.287957	-0.611234	-0.274484
C57	C	1.293877	-0.604657	-0.174554
H58	H	0.926211	-0.730303	-0.592524
H59	H	0.611707	-0.779111	-0.632060
H60	H	1.150389	-0.762093	-0.845252
H61	H	0.623630	-0.521824	-0.423751
H62	H	0.782064	-0.791210	-0.641841
C63	C	1.376309	-0.514278	-0.844852
C64	C	1.450607	-0.560761	-0.784366
C65	C	1.516847	-0.488100	-0.736380
C66	C	1.508788	-0.368957	-0.748880
C67	C	1.434487	-0.322468	-0.809369
C68	C	1.368247	-0.395129	-0.857355
H69	H	1.456576	-0.648963	-0.775110
H70	H	1.571849	-0.522514	-0.691602
H71	H	1.557822	-0.315169	-0.713358
H72	H	1.428518	-0.234266	-0.818625
H73	H	1.313245	-0.360714	-0.902133
C74	C	1.024974	-1.008441	-0.730067
C75	C	0.923195	-1.015883	-0.716755
C76	C	0.856228	-0.955034	-0.776290
C77	C	0.891040	-0.886744	-0.849137
C78	C	0.992825	-0.879299	-0.862453
C79	C	1.059792	-0.940148	-0.802918
H80	H	0.897420	-1.066439	-0.662826
H81	H	0.780880	-0.960546	-0.766432
H82	H	0.841467	-0.841700	-0.893209
H83	H	1.018599	-0.828743	-0.916382
H84	H	1.135140	-0.934636	-0.812776
C85	C	0.755308	-0.439706	-0.357250
C86	C	0.688518	-0.355172	-0.392619
C87	C	0.640486	-0.273512	-0.326499
C88	C	0.659244	-0.276386	-0.225010
C89	C	0.726036	-0.360925	-0.189636
C90	C	0.774068	-0.442585	-0.255756
H91	H	0.674630	-0.353040	-0.467752
H92	H	0.591041	-0.210931	-0.352686
H93	H	0.623687	-0.215937	-0.176064
H94	H	0.739925	-0.363056	-0.114503
H95	H	0.823513	-0.505165	-0.229569
H96	H	1.152919	-1.323668	-0.616439
H97	H	1.140596	-0.772804	-1.015629
C98	C	0.952507	-0.453695	-0.368570
C99	C	1.014838	-0.378314	-0.411343
C100	C	1.070097	-0.303984	-0.351146
C101	C	1.063025	-0.305034	-0.248175
C102	C	1.000692	-0.380417	-0.205396
C103	C	0.945433	-0.454748	-0.265594
H104	H	1.020076	-0.377535	-0.487573
H105	H	1.116240	-0.248181	-0.382814
H106	H	1.103931	-0.250010	-0.203613
H107	H	0.995454	-0.381197	-0.129166
H108	H	0.899290	-0.510551	-0.233925
C109	C	1.172825	-0.737448	-1.172291
C110	C	1.208086	-0.826744	-1.239096
C111	C	1.141865	-0.899395	-1.287123
C112	C	1.040384	-0.882751	-1.268346
C113	C	1.005118	-0.793451	-1.201539
C114	C	1.071338	-0.720800	-1.153511
H115	H	1.283213	-0.839069	-1.252998
H116	H	1.167972	-0.965501	-1.336579
H117	H	0.991363	-0.936531	-1.303899
H118	H	0.929991	-0.781126	-1.187636
H119	H	1.045232	-0.654694	-1.104056
H120	H	1.408528	-0.478922	-1.001500
H121	H	1.396335	-1.325454	-0.399891
H122	H	1.398730	-0.489632	-1.171851
H123	H	1.506596	-1.027657	-0.301610
C124	C	1.025075	-1.238873	-0.730115
C125	C	0.958112	-1.178028	-0.789650
C126	C	0.891195	-1.237879	-0.849214
C127	C	0.891242	-1.358574	-0.849243
C128	C	0.958208	-1.419425	-0.789706
C129	C	1.025124	-1.359575	-0.730142
H130	H	0.958075	-1.088676	-0.789630
H131	H	0.841623	-1.192832	-0.893287
H132	H	0.841706	-1.402879	-0.893335
H133	H	0.958244	-1.508777	-0.789726
H134	H	1.074696	-1.404621	-0.686069
H135	H	1.506681	-1.226737	-0.301651
H136	H	1.396145	-0.927307	-0.399804
H137	H	1.152731	-0.925522	-0.616357
