data_functionalizedCrystal
_audit_creation_method	'MofGen! by Chris Wilmer'
_symmetry_space_group_name_H-M	'P1'
_symmetry_Int_Tables_number	1
_symmetry_cell_setting	triclinic
loop_
_symmetry_equiv_pos_as_xyz
  x,y,z
_cell_length_a	12.759401
_cell_length_b	21.295417
_cell_length_c	21.295412
_cell_angle_alpha	89.969860
_cell_angle_beta	89.985380
_cell_angle_gamma	90.031227
loop_
_atom_site_label
_atom_site_type_symbol
_atom_site_fract_x
_atom_site_fract_y
_atom_site_fract_z
Zn1	Zn	1.606091	-0.250596	-0.355885
Zn2	Zn	1.605956	-0.355865	-0.250613
Zn3	Zn	1.430409	-0.250617	-0.250634
Zn4	Zn	1.430336	-0.355834	-0.355848
O5	O	1.518198	-0.303228	-0.303245
O6	O	1.753094	-0.264565	-0.341928
O7	O	1.582643	-0.341926	-0.162526
O8	O	1.453801	-0.162525	-0.264620
O9	O	1.752995	-0.341906	-0.264584
O10	O	1.582874	-0.162509	-0.341948
O11	O	1.453670	-0.264600	-0.162542
O12	O	1.283379	-0.264570	-0.264584
O13	O	1.453676	-0.341852	-0.443942
O14	O	1.283325	-0.341872	-0.341884
O15	O	1.582803	-0.264534	-0.443970
O16	O	1.582572	-0.443951	-0.264548
O17	O	1.453545	-0.443928	-0.341864
C18	C	1.245231	-0.303220	-0.303232
C19	C	1.128454	-0.303232	-0.303242
C20	C	1.073592	-0.343545	-0.343429
C21	C	0.963867	-0.343547	-0.343441
C22	C	0.963878	-0.262923	-0.263075
C23	C	1.073600	-0.262918	-0.263066
C24	C	0.813948	-0.366144	-0.417651
C25	C	0.759082	-0.406466	-0.457833
C26	C	0.794651	-0.467900	-0.467381
C27	C	0.885084	-0.489024	-0.436739
C28	C	0.939945	-0.448705	-0.396553
C29	C	0.904378	-0.387262	-0.387016
C30	C	1.223522	-0.240328	-0.188855
C31	C	1.278384	-0.200011	-0.148665
C32	C	1.242817	-0.138576	-0.139111
C33	C	1.152380	-0.117455	-0.169742
C34	C	1.097518	-0.157771	-0.209931
C35	C	1.133092	-0.219205	-0.219487
C36	C	1.518064	-0.466780	-0.303213
C37	C	1.518103	-0.536748	-0.303220
C38	C	1.585273	-0.569549	-0.343514
C39	C	1.585310	-0.635292	-0.343529
C40	C	1.518188	-0.668230	-0.303240
C41	C	1.451005	-0.635421	-0.262944
C42	C	1.450963	-0.569680	-0.262934
N43	N	1.510258	-0.771492	-0.248149
N44	N	1.510304	-0.833943	-0.248161
C45	C	1.518311	-0.866305	-0.303269
N46	N	1.526290	-0.833856	-0.358366
N47	N	1.526249	-0.771399	-0.358354
C48	C	1.518226	-0.739516	-0.303247
C49	C	1.585524	-0.970392	-0.343582
C50	C	1.585554	-1.036136	-0.343599
C51	C	1.451255	-1.036264	-0.263008
C52	C	1.451220	-0.970521	-0.262997
C53	C	1.518360	-0.937589	-0.303283
C54	C	1.792231	-0.303236	-0.303258
C55	C	1.909008	-0.303240	-0.303263
C56	C	1.518247	-0.303188	-0.467435
C57	C	1.518267	-0.303170	-0.537403
C58	C	1.518361	-0.139038	-0.303291
C59	C	1.518431	-0.069070	-0.303310
C60	C	1.585603	-0.262811	-1.036877
C61	C	1.585595	-0.262826	-0.971134
C62	C	1.518358	-0.303087	-0.938243
C63	C	1.451144	-0.343347	-0.971100
C64	C	1.451161	-0.343335	-1.036841
N65	N	1.426361	-0.307932	-0.835016
N66	N	1.426347	-0.307940	-0.772565
C67	C	1.518303	-0.303126	-0.740168
N68	N	1.610275	-0.298293	-0.772582
N69	N	1.610287	-0.298282	-0.835040
C70	C	1.518332	-0.303105	-0.866958
C71	C	1.585510	-0.262889	-0.636034
C72	C	1.585503	-0.262908	-0.570290
C73	C	1.451043	-0.343426	-0.570257
C74	C	1.451058	-0.343409	-0.635999
C75	C	1.518290	-0.303137	-0.668884
C76	C	1.518210	-0.303223	-0.139693
C77	C	1.518393	-0.303063	-0.069726
H78	H	0.919203	-0.230101	-0.230364
C79	C	1.113254	-0.049876	-0.159236
H80	H	1.158886	-0.028888	-0.130919
H81	H	1.044512	-0.050937	-0.142128
H82	H	1.112247	-0.028106	-0.198181
C83	C	1.303154	-0.094230	-0.094895
H84	H	1.269010	-0.054618	-0.093591
H85	H	1.372704	-0.088936	-0.109925
H86	H	1.304948	-0.111775	-0.053885
C87	C	1.377220	-0.387610	-1.072976
H88	H	1.337170	-0.411589	-1.043974
H89	H	1.417388	-0.415031	-1.098618
H90	H	1.331467	-0.363518	-1.098623
H91	H	1.396264	-0.542972	-0.230122
H92	H	1.023884	-0.140567	-0.234877
H93	H	1.639940	-0.542738	-0.376319
H94	H	1.640191	-0.943578	-0.376388
C95	C	1.659473	-0.218600	-0.672210
H96	H	1.699513	-0.194636	-0.643228
H97	H	1.619319	-0.191165	-0.697862
H98	H	1.705234	-0.242682	-0.697850
C99	C	0.659618	-0.383230	-0.491542
H100	H	0.646300	-0.340861	-0.480111
H101	H	0.601725	-0.408651	-0.479633
H102	H	0.669477	-0.385834	-0.535683
C103	C	1.659566	-0.218520	-1.073047
H104	H	1.699600	-0.194554	-1.044063
H105	H	1.619414	-0.191088	-1.098702
H106	H	1.705334	-0.242601	-1.098683
H107	H	1.640241	-0.230132	-0.543546
H108	H	1.396301	-0.376209	-0.543477
H109	H	1.639999	-0.662004	-0.376348
C110	C	1.377114	-0.387680	-0.672134
H111	H	1.337062	-0.411657	-0.643132
H112	H	1.417281	-0.415103	-0.697775
H113	H	1.331364	-0.363588	-0.697783
H114	H	1.396352	-0.662244	-0.230142
C115	C	1.659445	-1.072218	-0.387924
H116	H	1.699429	-1.043187	-0.411909
H117	H	1.619248	-1.097866	-0.415337
H118	H	1.705262	-1.097855	-0.363866
H119	H	1.252496	-0.290351	-0.196637
C120	C	1.133928	-0.387883	-0.387626
H121	H	1.085534	-0.411888	-0.411566
H122	H	1.176695	-0.415279	-0.363495
H123	H	1.176764	-0.363832	-0.415097
H124	H	0.914031	-0.539052	-0.444511
C125	C	1.039414	-0.471930	-0.362848
H126	H	1.066991	-0.439118	-0.337548
H127	H	1.090175	-0.484088	-0.393124
H128	H	1.022437	-0.506909	-0.337069
C129	C	0.734304	-0.512252	-0.511582
H130	H	0.675358	-0.490873	-0.528466
H131	H	0.711292	-0.548032	-0.488757
H132	H	0.779033	-0.525201	-0.544806
H133	H	1.640325	-0.230046	-0.944384
H134	H	0.784986	-0.316118	-0.409887
H135	H	1.352023	-0.217214	-0.123723
H136	H	1.396597	-1.063081	-0.230208
C137	C	1.377345	-0.934438	-0.218666
H138	H	1.337381	-0.963468	-0.194669
H139	H	1.331526	-0.908799	-0.242715
H140	H	1.417558	-0.908791	-0.191254
C141	C	1.377182	-0.387631	-0.934922
H142	H	1.386789	-0.381868	-0.891064
H143	H	1.392520	-0.429924	-0.945680
H144	H	1.306600	-0.378411	-0.945697
