data_functionalizedCrystal
_audit_creation_method	'MofGen! by Chris Wilmer'
_symmetry_space_group_name_H-M	'P1'
_symmetry_Int_Tables_number	1
_symmetry_cell_setting	triclinic
loop_
_symmetry_equiv_pos_as_xyz
  x,y,z
_cell_length_a	6.817900
_cell_length_b	11.452732
_cell_length_c	12.200875
_cell_angle_alpha	81.381146
_cell_angle_beta	107.143593
_cell_angle_gamma	108.697210
loop_
_atom_site_label
_atom_site_type_symbol
_atom_site_fract_x
_atom_site_fract_y
_atom_site_fract_z
V1	V	-4.076243	-0.169166	-0.323891
O2	O	-4.054672	0.007844	-0.352418
O3	O	-4.035253	-0.335153	-0.288310
O4	O	-4.045850	-0.166689	-0.480374
O5	O	-4.044001	-0.161786	-0.159025
V6	V	-4.556578	-0.147978	-0.308225
O7	O	-4.344496	-0.215641	-0.358256
O8	O	-4.738522	-0.101503	-0.273860
O9	O	-4.374361	0.018009	-0.343806
O10	O	-4.695546	-0.324988	-0.279698
O11	O	-4.706216	-0.155358	-0.473092
O12	O	-4.363764	-0.150455	-0.151742
C13	C	-3.881474	-0.375613	-0.274591
C14	C	-3.929366	-0.511310	-0.246542
C15	C	-4.001345	-0.588451	-0.330547
C16	C	-4.050845	-0.728702	-0.301560
C17	C	-3.894990	-0.160719	-0.519586
C18	C	-3.951473	-0.159792	-0.647293
C19	C	-4.054845	-0.158096	-0.881105
C20	C	-3.997313	-0.159039	-0.750995
C21	C	-4.191482	0.058462	-0.357521
C22	C	-4.122829	0.194158	-0.385577
C23	C	-4.177965	-0.156429	-0.112523
C24	C	-4.100721	-0.157350	0.015183
H25	H	-4.026310	-0.550662	-0.423928
Br26	Br	-4.009177	-0.791663	-0.145906
H27	H	-3.904376	-0.549098	-0.153161
H28	H	-4.147802	-0.768061	-0.478964
