data_functionalizedCrystal
_audit_creation_method	'MofGen! by Chris Wilmer'
_symmetry_space_group_name_H-M	'P1'
_symmetry_Int_Tables_number	1
_symmetry_cell_setting	triclinic
loop_
_symmetry_equiv_pos_as_xyz
  x,y,z
_cell_length_a	12.759401
_cell_length_b	18.215405
_cell_length_c	12.759393
_cell_angle_alpha	89.963505
_cell_angle_beta	89.979062
_cell_angle_gamma	90.026410
loop_
_atom_site_label
_atom_site_type_symbol
_atom_site_fract_x
_atom_site_fract_y
_atom_site_fract_z
Zn1	Zn	1.606192	-0.292919	-0.593976
Zn2	Zn	1.606052	-0.416003	-0.418278
Zn3	Zn	1.430491	-0.292958	-0.418311
Zn4	Zn	1.430451	-0.415951	-0.593915
O5	O	1.518296	-0.354458	-0.506120
O6	O	1.753194	-0.309251	-0.570681
O7	O	1.582721	-0.399719	-0.271261
O8	O	1.453873	-0.189968	-0.441653
O9	O	1.753091	-0.399681	-0.441596
O10	O	1.582960	-0.189940	-0.570714
O11	O	1.453737	-0.309318	-0.271286
O12	O	1.283465	-0.309268	-0.441594
O13	O	1.453806	-0.399593	-0.740944
O14	O	1.283436	-0.399631	-0.570609
O15	O	1.582922	-0.309201	-0.740989
O16	O	1.582683	-0.518980	-0.441537
O17	O	1.453670	-0.518942	-0.570577
C18	C	1.245329	-0.354449	-0.506099
C19	C	1.128552	-0.354463	-0.506115
C20	C	1.073703	-0.401586	-0.573188
C21	C	0.963979	-0.401589	-0.573209
C22	C	0.963964	-0.307343	-0.439076
C23	C	1.073686	-0.307337	-0.439061
C24	C	1.518186	-0.545664	-0.506070
C25	C	1.518234	-0.627463	-0.506083
C26	C	1.585569	-0.815652	-0.439016
C27	C	1.585616	-0.892511	-0.439041
C28	C	1.451158	-0.892511	-0.573300
C29	C	1.451118	-0.815654	-0.573279
C30	C	1.518321	-0.777226	-0.506131
C31	C	1.518409	-0.930942	-0.506178
C32	C	1.518460	-1.014276	-0.506206
C33	C	1.518272	-0.693887	-0.506104
C34	C	1.792330	-0.354467	-0.506142
C35	C	1.909106	-0.354471	-0.506151
C36	C	1.518375	-0.354387	-0.780154
C37	C	1.518409	-0.354357	-0.896930
C38	C	1.518437	-0.162505	-0.506194
C39	C	1.518496	-0.080706	-0.506225
C40	C	1.585644	-0.307283	-0.951818
C41	C	1.585662	-0.307251	-1.061542
C42	C	1.451206	-0.401374	-1.061482
C43	C	1.451183	-0.401402	-0.951760
C44	C	1.518279	-0.354475	-0.233153
C45	C	1.518449	-0.354298	-0.116377
H46	H	1.640292	-0.784366	-0.384341
O47	O	1.385756	-0.447029	-0.898389
C48	C	1.243923	-0.456950	-0.774430
C49	C	1.317935	-0.405200	-0.834825
H50	H	1.189086	-0.423153	-0.723008
H51	H	1.195809	-0.490561	-0.832417
H52	H	1.292142	-0.495459	-0.723099
H53	H	1.269797	-0.366646	-0.886158
H54	H	1.366053	-0.371641	-0.776782
H55	H	1.640381	-0.268974	-0.907179
H56	H	1.396356	-0.784366	-0.627938
H57	H	1.118372	-0.439957	-0.627791
H58	H	1.640410	-0.268917	-1.106226
H59	H	1.118345	-0.268958	-0.384442
O60	O	1.386011	-0.447051	-1.114908
C61	C	1.326411	-0.488693	-1.283914
C62	C	1.400314	-0.436937	-1.223544
H63	H	1.337934	-0.480524	-1.371756
H64	H	1.344811	-0.548057	-1.262397
H65	H	1.241712	-0.475778	-1.262270
H66	H	1.485038	-0.449787	-1.245156
H67	H	1.381824	-0.377589	-1.245066
H68	H	0.919325	-0.439960	-0.627827
H69	H	0.919278	-0.268976	-0.384480
H70	H	1.640377	-0.923793	-0.384391
O71	O	1.385907	-0.929955	-0.638418
C72	C	1.326417	-1.048358	-0.697992
C73	C	1.400355	-1.006047	-0.624177
H74	H	1.338088	-1.109885	-0.686519
H75	H	1.241681	-1.033360	-0.679455
H76	H	1.344797	-1.033144	-0.782711
H77	H	1.382069	-1.021238	-0.539434
H78	H	1.485068	-1.021049	-0.642804
