data_functionalizedCrystal
_audit_creation_method	'MofGen! by Chris Wilmer'
_symmetry_space_group_name_H-M	'P1'
_symmetry_Int_Tables_number	1
_symmetry_cell_setting	triclinic
loop_
_symmetry_equiv_pos_as_xyz
  x,y,z
_cell_length_a	10.685980
_cell_length_b	19.120786
_cell_length_c	10.686551
_cell_angle_alpha	83.348156
_cell_angle_beta	81.591741
_cell_angle_gamma	96.632738
loop_
_atom_site_label
_atom_site_type_symbol
_atom_site_fract_x
_atom_site_fract_y
_atom_site_fract_z
Zn1	Zn	1.982569	-0.158561	-0.853507
Zn2	Zn	1.955463	-0.286717	-0.630578
Zn3	Zn	1.752355	-0.178250	-0.623333
Zn4	Zn	1.759592	-0.286649	-0.826494
O5	O	1.862495	-0.227544	-0.733478
O6	O	2.157292	-0.167350	-0.838272
O7	O	1.914147	-0.280598	-0.451296
O8	O	1.791209	-0.076640	-0.662139
O9	O	2.137377	-0.261506	-0.674487
O10	O	1.960346	-0.062174	-0.831247
O11	O	1.764925	-0.200908	-0.445974
O12	O	1.574997	-0.200841	-0.635945
O13	O	1.803544	-0.261389	-1.008397
O14	O	1.580314	-0.280481	-0.785207
O15	O	1.967364	-0.167283	-1.028244
O16	O	1.921165	-0.385707	-0.648293
O17	O	1.777260	-0.385657	-0.792231
C18	C	1.531420	-0.242790	-0.706859
C19	C	1.389785	-0.249328	-0.695501
C20	C	1.847093	-0.411348	-0.718148
C21	C	1.840624	-0.489973	-0.711641
C22	C	1.925590	-0.519319	-0.796691
C23	C	1.919507	-0.593196	-0.790580
C24	C	1.828463	-0.637725	-0.699411
C25	C	1.743487	-0.608375	-0.614357
C26	C	1.749566	-0.534499	-0.620475
C27	C	1.805702	-0.861160	-0.676535
C28	C	1.799632	-0.935040	-0.670420
C29	C	1.975651	-0.919856	-0.846645
C30	C	1.981727	-0.845980	-0.852750
C31	C	1.896747	-0.816636	-0.767701
C32	C	1.822245	-0.713239	-0.693159
C33	C	1.902960	-0.741124	-0.773959
C34	C	2.194863	-0.212239	-0.760201
C35	C	2.336498	-0.205717	-0.771589
C36	C	1.889285	-0.212132	-1.065850
C37	C	1.900701	-0.205564	-1.207487
C38	C	1.877994	-0.043020	-0.748899
C39	C	1.884599	0.035614	-0.755470
C40	C	1.835887	-0.242842	-0.402409
C41	C	1.824734	-0.249199	-0.260809
H42	H	1.327045	-0.291670	-0.621658
H43	H	1.669352	-0.644636	-0.540130
C44	C	2.024487	-0.471095	-0.895814
C45	C	2.097568	-0.512611	-0.969013
C46	C	2.188669	-0.468214	-1.060354
H47	H	2.078624	-0.441940	-0.854128
H48	H	1.982565	-0.441977	-0.949827
H49	H	2.139487	-0.541717	-0.915008
H50	H	2.043466	-0.541765	-1.010727
H51	H	2.146747	-0.439096	-1.114367
H52	H	2.242797	-0.439061	-1.018657
H53	H	2.238258	-0.496376	-1.110038
C54	C	1.726522	-0.305824	-1.177272
C55	C	1.750989	-0.373063	-1.205913
C56	C	1.660556	-0.425244	-1.128962
H57	H	1.643445	-0.298519	-1.192927
H58	H	1.731677	-0.302923	-1.089981
H59	H	1.745823	-0.375962	-1.293183
H60	H	1.834050	-0.380390	-1.190252
H61	H	1.665711	-0.422343	-1.041671
H62	H	1.577484	-0.417933	-1.144623
H63	H	1.677152	-0.470872	-1.148376
C64	C	1.420067	-0.149152	-0.869895
C65	C	1.391436	-0.081882	-0.845617
C66	C	1.468414	-0.029756	-0.936141
H67	H	1.404429	-0.156505	-0.952947
H68	H	1.507353	-0.152064	-0.864699
H69	H	1.304170	-0.078972	-0.850825
H70	H	1.407080	-0.074506	-0.762581
H71	H	1.555700	-0.032668	-0.930946
H72	H	1.452770	-0.037117	-1.019188
H73	H	1.449006	0.015892	-0.919675
C74	C	1.998953	-0.149068	-1.291311
C75	C	1.991099	-0.153547	-1.419842
C76	C	2.081573	-0.101508	-1.497096
H77	H	2.082037	-0.156418	-1.275743
H78	H	1.982551	-0.103373	-1.272108
H79	H	2.007510	-0.199231	-1.439038
H80	H	1.908035	-0.146189	-1.435450
H81	H	2.065171	-0.055814	-1.477893
H82	H	2.164651	-0.108863	-1.481517
H83	H	2.076248	-0.104536	-1.584312
C84	C	2.011810	-0.625160	-0.882699
C85	C	2.084206	-0.667140	-0.813656
C86	C	2.169238	-0.696606	-0.898474
H87	H	2.067032	-0.588139	-0.937904
H88	H	1.965152	-0.653707	-0.931853
H89	H	2.130860	-0.638594	-0.764524
H90	H	2.029018	-0.704173	-0.758456
H91	H	2.122580	-0.725154	-0.947628
H92	H	2.224451	-0.659580	-0.953674
H93	H	2.218360	-0.725098	-0.851640
C94	C	2.067748	-0.951853	-0.938918
C95	C	2.042922	-1.026080	-0.914075
C96	C	2.127725	-1.055579	-0.999070
H97	H	2.152935	-0.936703	-0.928312
H98	H	2.056907	-0.936671	-1.024041
H99	H	2.053774	-1.041257	-0.828972
H100	H	1.957751	-1.041251	-0.924690
H101	H	2.116884	-1.040396	-1.084193
H102	H	2.212907	-1.040423	-0.988456
H103	H	2.110885	-1.105944	-0.982233
C104	C	1.657243	-0.502771	-0.527983
C105	C	1.576228	-0.557578	-0.446811
C106	C	1.491167	-0.528379	-0.361583
H107	H	1.607855	-0.474283	-0.574458
H108	H	1.703892	-0.474282	-0.478737
H109	H	1.529583	-0.586056	-0.496051
H110	H	1.625580	-0.586071	-0.400307
H111	H	1.537815	-0.499889	-0.312337
H112	H	1.441788	-0.499891	-0.408069
H113	H	1.436196	-0.565560	-0.306490
H114	H	2.055862	-0.809726	-0.926987
H115	H	1.725487	-0.971295	-0.596178
H116	H	1.736510	-0.837274	-0.607282
H117	H	1.748119	-0.749503	-0.618926
H118	H	1.977084	-0.704866	-0.848194
