data_functionalizedCrystal
_audit_creation_method	'MofGen! by Chris Wilmer'
_symmetry_space_group_name_H-M	'P1'
_symmetry_Int_Tables_number	1
_symmetry_cell_setting	triclinic
loop_
_symmetry_equiv_pos_as_xyz
  x,y,z
_cell_length_a	18.215407
_cell_length_b	21.295417
_cell_length_c	18.215399
_cell_angle_alpha	90.032152
_cell_angle_beta	90.019833
_cell_angle_gamma	90.030955
loop_
_atom_site_label
_atom_site_type_symbol
_atom_site_fract_x
_atom_site_fract_y
_atom_site_fract_z
Zn1	Zn	1.125043	-0.250608	0.416094
Zn2	Zn	1.124940	-0.355879	0.293019
Zn3	Zn	1.001976	-0.250629	0.293042
Zn4	Zn	1.001930	-0.355844	0.416044
O5	O	1.063472	-0.303240	0.354550
O6	O	1.228014	-0.264579	0.399780
O7	O	1.108604	-0.341941	0.190038
O8	O	1.018364	-0.162537	0.309396
O9	O	1.227938	-0.341921	0.309357
O10	O	1.108781	-0.162521	0.399802
O11	O	1.018263	-0.264614	0.190054
O12	O	0.898985	-0.264580	0.309347
O13	O	1.018285	-0.341861	0.519035
O14	O	0.898951	-0.341881	0.399716
O15	O	1.108736	-0.264545	0.519072
O16	O	1.108559	-0.443964	0.309308
O17	O	1.018184	-0.443938	0.399694
C18	C	0.872266	-0.303229	0.354529
C19	C	0.790467	-0.303240	0.354537
C20	C	0.602275	-0.343554	0.401533
C21	C	0.525416	-0.343556	0.401542
C22	C	0.525422	-0.262938	0.307582
C23	C	0.602279	-0.262933	0.307577
C24	C	0.640703	-0.303245	0.354552
C25	C	0.486987	-0.303251	0.354566
C26	C	0.403654	-0.303253	0.354575
C27	C	0.724042	-0.303242	0.354543
C28	C	1.063376	-0.466792	0.354509
C29	C	1.063402	-0.536760	0.354516
C30	C	1.110502	-0.569619	0.307500
C31	C	1.110536	-0.635361	0.307517
C32	C	1.063457	-0.668242	0.354542
C33	C	1.016354	-0.635375	0.401566
C34	C	1.016326	-0.569634	0.401554
N35	N	0.999079	-0.771508	0.360145
N36	N	0.999107	-0.833960	0.360153
C37	C	1.063540	-0.866317	0.354584
N38	N	1.127944	-0.833863	0.348993
N39	N	1.127915	-0.771406	0.348981
C40	C	1.063483	-0.739528	0.354561
C41	C	1.110681	-0.970462	0.307584
C42	C	1.110717	-1.036205	0.307605
C43	C	1.016528	-1.036218	0.401651
C44	C	1.016499	-0.970475	0.401633
C45	C	1.063575	-0.937601	0.354595
C46	C	1.255425	-0.303251	0.354571
C47	C	1.337224	-0.303256	0.354581
C48	C	1.063517	-0.303197	0.546503
C49	C	1.063536	-0.303178	0.628302
C50	C	1.063589	-0.139050	0.354607
C51	C	1.063639	-0.069082	0.354631
C52	C	1.063470	-0.303238	0.163344
C53	C	1.063593	-0.303079	0.081545
C54	C	1.110651	-0.262882	0.816516
C55	C	1.110660	-0.262863	0.893375
C56	C	1.016473	-0.343377	0.893325
C57	C	1.016461	-0.343392	0.816468
C58	C	1.063554	-0.303145	0.778065
C59	C	1.063575	-0.303112	0.931781
C60	C	1.063584	-0.303093	1.015115
C61	C	1.063544	-0.303164	0.694726
H62	H	0.494127	-0.230118	0.269336
C63	C	0.964685	-0.387661	0.935564
C64	C	0.881023	-0.382537	0.924986
C65	C	0.829239	-0.426828	0.967220
C66	C	0.861115	-0.476244	1.020031
C67	C	0.944781	-0.481371	1.030612
C68	C	0.996566	-0.437079	0.988378
H69	H	0.857423	-0.345954	0.885889
H70	H	0.767304	-0.423032	0.959387
H71	H	0.822781	-0.509031	1.051295
H72	H	0.968382	-0.517953	1.069708
H73	H	1.058501	-0.440875	0.996210
C74	C	0.644555	-0.218592	0.255891
C75	C	0.634030	-0.147037	0.262044
C76	C	0.676306	-0.102697	0.210360
C77	C	0.729106	-0.129911	0.152524
C78	C	0.739633	-0.201470	0.146369
C79	C	0.697358	-0.245810	0.198052
H80	H	0.594942	-0.126888	0.304859
H81	H	0.668512	-0.049724	0.214917
H82	H	0.760401	-0.097088	0.114265
H83	H	0.778721	-0.221619	0.103553
H84	H	0.705151	-0.298782	0.193495
C85	C	0.964646	-0.387682	0.774169
C86	C	0.906878	-0.360406	0.721338
C87	C	0.855060	-0.404691	0.679040
C88	C	0.861011	-0.476251	0.689574
C89	C	0.918782	-0.503531	0.742408
C90	C	0.970600	-0.459247	0.784705
H91	H	0.902470	-0.307429	0.713538
H92	H	0.812294	-0.384496	0.639929
H93	H	0.822653	-0.509034	0.658263
H94	H	0.923190	-0.556508	0.750208
H95	H	1.013366	-0.479442	0.823817
C96	C	1.162291	-0.533461	0.255765
C97	C	1.156337	-0.542561	0.172100
C98	C	1.208128	-0.506403	0.120366
C99	C	1.265873	-0.461145	0.152296
C100	C	1.271829	-0.452043	0.235965
C101	C	1.220038	-0.488202	0.287700
H102	H	1.113589	-0.576065	0.148460
H103	H	1.203719	-0.513141	0.058428
H104	H	1.304212	-0.434379	0.113999
H105	H	1.314578	-0.418539	0.259606
H106	H	1.224447	-0.481464	0.349637
C107	C	0.483145	-0.387899	0.453221
C108	C	0.493668	-0.459453	0.447059
C109	C	0.451398	-0.503798	0.498741
C110	C	0.398604	-0.476588	0.556586
C111	C	0.388078	-0.405030	0.562751
C112	C	0.430348	-0.360685	0.511069
H113	H	0.532752	-0.479599	0.404237
H114	H	0.459191	-0.556770	0.494177
H115	H	0.367313	-0.509414	0.594845
H116	H	0.348995	-0.384884	0.605573
H117	H	0.422556	-0.307713	0.515633
H118	H	1.148893	-0.662121	0.269231
H119	H	1.149015	-0.943694	0.269285
C120	C	1.162446	-0.218607	0.774273
C121	C	1.220202	-0.245892	0.721438
C122	C	1.271997	-0.201615	0.679198
C123	C	1.266036	-0.130051	0.689792
C124	C	1.208278	-0.102762	0.742630
C125	C	1.156483	-0.147040	0.784870
H126	H	1.224616	-0.298871	0.713593
H127	H	1.314753	-0.221816	0.640084
H128	H	1.304378	-0.097274	0.658523
H129	H	1.203864	-0.049783	0.750474
H130	H	1.113727	-0.126838	0.823984
H131	H	1.149076	-1.062958	0.269321
C132	C	0.964738	-1.072379	0.453378
C133	C	0.964765	-1.144691	0.453394
C134	C	0.912974	-1.180855	0.505123
C135	C	0.861158	-1.144707	0.556837
C136	C	0.861129	-1.072390	0.556823
C137	C	0.912920	-1.036226	0.505093
H138	H	1.003124	-1.171454	0.415111
H139	H	0.912996	-1.234389	0.505134
H140	H	0.822819	-1.171477	0.595130
H141	H	0.822770	-1.045627	0.595106
H142	H	0.912899	-0.982692	0.505083
H143	H	0.633557	-0.376377	0.439785
C144	C	1.162469	-0.218575	0.935670
C145	C	1.220235	-0.245842	0.988511
C146	C	1.272047	-0.201551	1.030806
C147	C	1.266093	-0.129991	1.020259
C148	C	1.208325	-0.102720	0.967416
C149	C	1.156513	-0.147012	0.925121
H150	H	1.224645	-0.298818	0.996321
H151	H	1.314810	-0.221739	1.069924
H152	H	1.304447	-0.097204	1.051568
H153	H	1.203915	-0.049744	0.959606
H154	H	1.113749	-0.126823	0.886003
H155	H	0.977971	-0.542879	0.439840
C156	C	0.964567	-0.671541	0.453294
C157	C	0.964592	-0.743854	0.453308
C158	C	0.912806	-0.780019	0.505041
C159	C	0.860994	-0.743871	0.556761
C160	C	0.860967	-0.671554	0.556749
C161	C	0.912753	-0.635389	0.505016
H162	H	1.002948	-0.770616	0.415020
H163	H	0.912827	-0.833552	0.505050
H164	H	0.822659	-0.770642	0.595057
H165	H	0.822611	-0.644791	0.595037
H166	H	0.912733	-0.581855	0.505007
H167	H	0.978143	-0.943720	0.439914
