data_functionalizedCrystal
_audit_creation_method	'MofGen! by Chris Wilmer'
_symmetry_space_group_name_H-M	'P1'
_symmetry_Int_Tables_number	1
_symmetry_cell_setting	triclinic
loop_
_symmetry_equiv_pos_as_xyz
  x,y,z
_cell_length_a	12.759401
_cell_length_b	14.908520
_cell_length_c	14.909241
_cell_angle_alpha	90.159742
_cell_angle_beta	86.686839
_cell_angle_gamma	93.320696
loop_
_atom_site_label
_atom_site_type_symbol
_atom_site_fract_x
_atom_site_fract_y
_atom_site_fract_z
Zn1	Zn	1.619654	-0.328607	-0.528982
Zn2	Zn	2.119654	0.171393	-0.028982
Zn3	Zn	1.599318	-0.487661	-0.387295
Zn4	Zn	2.099318	0.012339	0.112705
Zn5	Zn	1.433271	-0.337320	-0.378647
Zn6	Zn	1.933271	0.162680	0.121353
Zn7	Zn	1.434399	-0.478927	-0.537612
Zn8	Zn	1.934399	0.021073	-0.037612
O9	O	1.521661	-0.408129	-0.458134
O10	O	2.021661	0.091871	0.041866
O11	O	1.763978	-0.349715	-0.510195
O12	O	2.263978	0.150285	-0.010195
O13	O	1.568308	-0.475020	-0.260323
O14	O	2.068308	0.024980	0.239677
O15	O	1.466034	-0.210337	-0.391358
O16	O	1.966034	0.289663	0.108642
O17	O	1.749036	-0.466571	-0.406097
O18	O	2.249036	0.033429	0.093903
O19	O	1.602969	-0.203936	-0.501809
O20	O	2.102969	0.296064	-0.001809
O21	O	1.446314	-0.364565	-0.253970
O22	O	1.946314	0.135435	0.246030
O23	O	1.286400	-0.356096	-0.399727
O24	O	1.786400	0.143904	0.100273
O25	O	1.467957	-0.451685	-0.662292
O26	O	1.967957	0.048315	-0.162292
O27	O	1.287229	-0.460133	-0.516518
O28	O	1.787229	0.039867	-0.016518
O29	O	1.604063	-0.341245	-0.655952
O30	O	2.104063	0.158755	-0.155952
O31	O	1.569402	-0.612330	-0.414466
O32	O	2.069402	-0.112330	0.085534
O33	O	1.448238	-0.605913	-0.524903
O34	O	1.948238	-0.105913	-0.024903
C35	C	1.248693	-0.408113	-0.458121
C36	C	1.748693	0.091887	0.041879
C37	C	1.131917	-0.408127	-0.458138
C38	C	1.631917	0.091873	0.041862
C39	C	1.077502	-0.462397	-0.518861
C40	C	1.577502	0.037603	-0.018861
C41	C	0.967778	-0.462407	-0.518872
C42	C	1.467778	0.037593	-0.018872
C43	C	0.966894	-0.353876	-0.397427
C44	C	1.466894	0.146124	0.102573
C45	C	1.076616	-0.353861	-0.397422
C46	C	1.576616	0.146139	0.102578
C47	C	1.078011	-0.525059	-0.588974
C48	C	1.578011	-0.025059	-0.088974
C49	C	0.968287	-0.525070	-0.588984
C50	C	1.468287	-0.025070	-0.088984
C51	C	1.506765	-0.641746	-0.471579
C52	C	2.006765	-0.141746	0.028421
C53	C	1.500492	-0.741686	-0.477361
C54	C	2.000492	-0.241686	0.022639
C55	C	1.615016	-0.936101	-0.373319
C56	C	2.115016	-0.436101	0.126681
C57	C	1.609124	-1.030004	-0.378749
C58	C	2.109124	-0.530004	0.121251
C59	C	1.482823	-1.023397	-0.493654
C60	C	1.982823	-0.523397	0.006346
C61	C	1.488715	-0.929494	-0.488224
C62	C	1.988715	-0.429494	0.011776
C63	C	1.554812	-0.885849	-0.428054
C64	C	2.054812	-0.385849	0.071946
C65	C	1.560697	-0.791945	-0.422620
C66	C	2.060697	-0.291945	0.077380
C67	C	1.434403	-0.785339	-0.537529
C68	C	1.934403	-0.285339	-0.037529
C69	C	1.428511	-0.879243	-0.542959
C70	C	1.928511	-0.379243	-0.042959
C71	C	1.795694	-0.408145	-0.458148
C72	C	2.295694	0.091855	0.041852
C73	C	1.912470	-0.408152	-0.458154
C74	C	2.412470	0.091848	0.041846
C75	C	1.538405	-0.394519	-0.692659
C76	C	2.038405	0.105481	-0.192659
C77	C	1.545540	-0.388719	-0.792599
C78	C	2.045540	0.111281	-0.292599
C79	C	1.536644	-0.173599	-0.444656
C80	C	2.036644	0.326401	0.055344
C81	C	1.543029	-0.073656	-0.438913
C82	C	2.043029	0.426344	0.061087
C83	C	1.417222	-0.492841	-0.987003
C84	C	1.917222	0.007159	-0.487003
C85	C	1.423923	-0.487395	-1.080906
C86	C	1.923923	0.012605	-0.580906
C87	C	1.565646	-0.372385	-1.074311
C88	C	2.065646	0.127615	-0.574311
C89	C	1.558945	-0.377831	-0.980408
C90	C	2.058945	0.122169	-0.480408
C91	C	1.484730	-0.438061	-0.936757
C92	C	1.984730	0.061939	-0.436757
C93	C	1.478025	-0.443502	-0.842852
C94	C	1.978025	0.056498	-0.342852
C95	C	1.619752	-0.328497	-0.836258
C96	C	2.119752	0.171503	-0.336258
C97	C	1.626453	-0.323050	-0.930162
C98	C	2.126453	0.176950	-0.430162
C99	C	1.505046	-0.421621	-0.224518
C100	C	2.005046	0.078379	0.275482
C101	C	1.498131	-0.427168	-0.124564
C102	C	1.998131	0.072832	0.375436
H103	H	0.932737	-0.595774	-0.574226
H104	H	1.432737	-0.095774	-0.074226
O105	O	1.397970	-0.508457	-0.795778
O106	O	1.897970	-0.008457	-0.295778
H107	H	1.439008	-0.556687	-0.755617
H108	H	1.939008	-0.056687	-0.255617
O109	O	0.907229	-0.295365	-0.331941
O110	O	1.407229	0.204635	0.168059
H111	H	0.933873	-0.223911	-0.343417
H112	H	1.433873	0.276089	0.156583
H113	H	1.113948	-0.502472	-0.657575
H114	H	1.613948	-0.002472	-0.157575
H115	H	1.686880	-0.274016	-0.965715
H116	H	2.186880	0.225984	-0.465715
O117	O	1.115164	-0.614546	-0.560828
O118	O	1.615164	-0.114546	-0.060828
H119	H	1.046128	-0.662003	-0.545916
H120	H	1.546128	-0.162003	-0.045916
O121	O	1.674068	-1.084212	-0.319728
O122	O	2.174068	-0.584212	0.180272
H123	H	1.621145	-1.129715	-0.276426
H124	H	2.121145	-0.629715	0.223574
O125	O	1.337164	-0.557785	-0.939917
O126	O	1.837164	-0.057785	-0.439917
H127	H	1.351952	-0.627316	-0.961985
H128	H	1.851952	-0.127316	-0.461985
H129	H	1.368952	-0.532004	-1.121814
H130	H	1.868952	-0.032004	-0.621814
H131	H	1.674717	-0.283886	-0.795338
H132	H	2.174717	0.216114	-0.295338
O133	O	1.645652	-0.307411	-1.121418
O134	O	2.145652	0.192589	-0.621418
H135	H	1.699584	-0.345161	-1.166532
H136	H	2.199584	0.154839	-0.666532
O137	O	1.135311	-0.295339	-0.331919
O138	O	1.635311	0.204661	0.168081
H139	H	1.078419	-0.257623	-0.289692
H140	H	1.578419	0.242377	0.210308
H141	H	1.429017	-1.058949	-0.542647
H142	H	1.929017	-0.558949	-0.042647
H143	H	1.614514	-0.756410	-0.373624
H144	H	2.114514	-0.256410	0.126376
H145	H	1.374699	-0.914791	-0.591950
H146	H	1.874699	-0.414791	-0.091950
H147	H	0.940571	-0.496397	-0.653753
H148	H	1.440571	0.003603	-0.153753
H149	H	1.668827	-0.900565	-0.324320
H150	H	2.168827	-0.400565	0.175680
O151	O	1.369465	-0.731142	-0.596574
O152	O	1.869465	-0.231142	-0.096574
H153	H	1.384667	-0.658512	-0.582695
H154	H	1.884667	-0.158512	-0.082695
