data_functionalizedCrystal
_audit_creation_method	'MofGen! by Chris Wilmer'
_symmetry_space_group_name_H-M	'P1'
_symmetry_Int_Tables_number	1
_symmetry_cell_setting	triclinic
loop_
_symmetry_equiv_pos_as_xyz
  x,y,z
_cell_length_a	23.532407
_cell_length_b	23.532407
_cell_length_c	22.610064
_cell_angle_alpha	90.000603
_cell_angle_beta	90.002839
_cell_angle_gamma	82.848678
loop_
_atom_site_label
_atom_site_type_symbol
_atom_site_fract_x
_atom_site_fract_y
_atom_site_fract_z
O1	O	-0.755263	-0.069127	-0.049117
O2	O	-0.505263	0.180873	0.200883
O3	O	-0.255263	0.430873	0.450883
O4	O	-0.005263	0.680873	0.700883
O5	O	-0.589400	-0.079130	-0.049135
O6	O	-0.339400	0.170870	0.200865
O7	O	-0.089400	0.420870	0.450865
O8	O	0.160600	0.670870	0.700865
O9	O	-0.677333	0.008803	-0.049114
O10	O	-0.427333	0.258803	0.200886
O11	O	-0.177333	0.508803	0.450886
O12	O	0.072667	0.758803	0.700886
O13	O	-0.667330	-0.157060	-0.049137
O14	O	-0.417330	0.092940	0.200863
O15	O	-0.167330	0.342940	0.450863
O16	O	0.082670	0.592940	0.700863
O17	O	-0.677318	0.008790	0.049255
O18	O	-0.427318	0.258790	0.299255
O19	O	-0.177318	0.508790	0.549255
O20	O	0.072682	0.758790	0.799255
O21	O	-0.589385	-0.079143	0.049234
O22	O	-0.339385	0.170857	0.299234
O23	O	-0.089385	0.420857	0.549234
O24	O	0.160615	0.670857	0.799234
O25	O	-0.755248	-0.069140	0.049252
O26	O	-0.505248	0.180860	0.299252
O27	O	-0.255248	0.430860	0.549252
O28	O	-0.005248	0.680860	0.799252
Zn29	Zn	-0.672314	-0.074144	0.064862
Zn30	Zn	-0.422314	0.175856	0.314862
Zn31	Zn	-0.172314	0.425856	0.564862
Zn32	Zn	0.077686	0.675856	0.814862
Zn33	Zn	-0.672334	-0.074127	-0.064744
Zn34	Zn	-0.422334	0.175873	0.185256
Zn35	Zn	-0.172334	0.425873	0.435256
Zn36	Zn	0.077666	0.675873	0.685256
O37	O	-0.667315	-0.157073	0.049232
O38	O	-0.417315	0.092927	0.299232
O39	O	-0.167315	0.342927	0.549232
O40	O	0.082685	0.592927	0.799232
C41	C	-0.677071	0.030013	0.000072
C42	C	-0.427071	0.280013	0.250072
C43	C	-0.177071	0.530013	0.500072
C44	C	0.072929	0.780013	0.750072
C45	C	-0.676305	0.093230	0.000076
C46	C	-0.426305	0.343230	0.250076
C47	C	-0.176305	0.593230	0.500076
C48	C	0.073695	0.843230	0.750076
C49	C	-0.568176	-0.078882	0.000048
C50	C	-0.318176	0.171118	0.250048
C51	C	-0.068176	0.421118	0.500048
C52	C	0.181824	0.671118	0.750048
C53	C	-0.504959	-0.078116	0.000041
C54	C	-0.254959	0.171884	0.250041
C55	C	-0.004959	0.421884	0.500041
C56	C	0.245041	0.671884	0.750041
C57	C	-0.776472	-0.069388	0.000069
C58	C	-0.526472	0.180612	0.250069
C59	C	-0.276472	0.430612	0.500069
C60	C	-0.026472	0.680612	0.750069
C61	C	-0.839689	-0.070154	0.000071
C62	C	-0.589689	0.179846	0.250071
C63	C	-0.339689	0.429846	0.500071
C64	C	-0.089689	0.679846	0.750071
C65	C	-0.105856	-0.125350	0.000061
C66	C	0.144144	0.124650	0.250061
C67	C	0.394144	0.374650	0.500061
C68	C	0.644144	0.624650	0.750061
C69	C	-0.046456	-0.124638	0.000065
C70	C	0.203544	0.125362	0.250065
C71	C	0.453544	0.375362	0.500065
C72	C	0.703544	0.625362	0.750065
O73	O	-0.009711	-0.168424	0.000081
O74	O	0.240289	0.081576	0.250081
O75	O	0.490289	0.331576	0.500081
O76	O	0.740289	0.581576	0.750081
N77	N	-0.023830	-0.072362	0.000071
N78	N	0.226170	0.177638	0.250071
N79	N	0.476170	0.427638	0.500071
N80	N	0.726170	0.677638	0.750071
C81	C	-0.060607	-0.020794	0.000080
C82	C	0.189393	0.229206	0.250080
C83	C	0.439393	0.479206	0.500080
C84	C	0.689393	0.729206	0.750080
O85	O	-0.035908	0.023737	0.000086
O86	O	0.214092	0.273737	0.250086
O87	O	0.464092	0.523737	0.500086
O88	O	0.714092	0.773737	0.750086
C89	C	-0.120006	-0.021506	0.000080
C90	C	0.129994	0.228494	0.250080
C91	C	0.379994	0.478494	0.500080
C92	C	0.629994	0.728494	0.750080
C93	C	-0.142629	-0.073785	0.000068
C94	C	0.107371	0.176215	0.250068
C95	C	0.357371	0.426215	0.500068
C96	C	0.607371	0.676215	0.750068
C97	C	-0.128479	-0.177625	0.000050
C98	C	0.121521	0.072375	0.250050
C99	C	0.371521	0.322375	0.500050
C100	C	0.621521	0.572375	0.750050
C101	C	-0.187876	-0.178336	0.000045
C102	C	0.062124	0.071664	0.250045
C103	C	0.312124	0.321664	0.500045
C104	C	0.562124	0.571664	0.750045
C105	C	-0.224649	-0.126772	0.000052
C106	C	0.025351	0.123228	0.250052
C107	C	0.275351	0.373228	0.500052
C108	C	0.525351	0.623228	0.750052
C109	C	-0.202025	-0.074497	0.000063
C110	C	0.047975	0.175503	0.250063
C111	C	0.297975	0.425503	0.500063
C112	C	0.547975	0.675503	0.750063
C113	C	-0.156783	0.030062	0.000093
C114	C	0.093217	0.280062	0.250093
C115	C	0.343217	0.530062	0.500093
C116	C	0.593217	0.780062	0.750093
C117	C	-0.216185	0.029345	0.000094
C118	C	0.033815	0.279345	0.250094
C119	C	0.283815	0.529345	0.500094
C120	C	0.533815	0.779345	0.750094
C121	C	-0.238808	-0.022934	0.000082
C122	C	0.011192	0.227066	0.250082
C123	C	0.261192	0.477066	0.500082
C124	C	0.511192	0.727066	0.750082
C125	C	-0.298194	-0.023643	0.000065
C126	C	-0.048194	0.226357	0.250065
C127	C	0.201806	0.476357	0.500065
C128	C	0.451806	0.726357	0.750065
N129	N	-0.320820	-0.075920	0.000059
N130	N	-0.070820	0.174080	0.250059
N131	N	0.179180	0.424080	0.500059
N132	N	0.429180	0.674080	0.750059
C133	C	-0.284048	-0.127484	0.000052
C134	C	-0.034048	0.122516	0.250052
C135	C	0.215952	0.372516	0.500052
C136	C	0.465952	0.622516	0.750052
C137	C	0.064135	-0.019302	0.000080
C138	C	0.314135	0.230698	0.250080
C139	C	0.564135	0.480698	0.500080
C140	C	0.814135	0.730698	0.750080
C141	C	0.123533	-0.018589	0.000075
C142	C	0.373533	0.231411	0.250075
C143	C	0.623533	0.481411	0.500075
C144	C	0.873533	0.731411	0.750075
C145	C	0.137680	-0.122434	0.000061
C146	C	0.387680	0.127566	0.250061
C147	C	0.637680	0.377566	0.500061
C148	C	0.887680	0.627566	0.750061
C149	C	0.078281	-0.123146	0.000062
C150	C	0.328281	0.126854	0.250062
C151	C	0.578281	0.376854	0.500062
C152	C	0.828281	0.626854	0.750062
C153	C	0.041509	-0.071578	0.000074
C154	C	0.291509	0.178422	0.250074
C155	C	0.541509	0.428422	0.500074
C156	C	0.791509	0.678422	0.750074
C157	C	-0.408784	-0.128974	0.000042
C158	C	-0.158784	0.121026	0.250042
C159	C	0.091216	0.371026	0.500042
C160	C	0.341216	0.621026	0.750042
C161	C	-0.468186	-0.129680	0.000034
C162	C	-0.218186	0.120320	0.250034
C163	C	0.031814	0.370320	0.500034
C164	C	0.281814	0.620320	0.750034
C165	C	-0.482329	-0.025836	0.000051
C166	C	-0.232329	0.224164	0.250051
C167	C	0.017671	0.474164	0.500051
C168	C	0.267671	0.724164	0.750051
C169	C	-0.422932	-0.025129	0.000055
C170	C	-0.172932	0.224871	0.250055
C171	C	0.077068	0.474871	0.500055
C172	C	0.327068	0.724871	0.750055
C173	C	-0.386160	-0.076702	0.000052
C174	C	-0.136160	0.173298	0.250052
C175	C	0.113840	0.423298	0.500052
C176	C	0.363840	0.673298	0.750052
O177	O	-0.334974	0.020119	0.000052
O178	O	-0.084974	0.270119	0.250052
O179	O	0.165026	0.520119	0.500052
O180	O	0.415026	0.770119	0.750052
O181	O	-0.308755	-0.172007	0.000054
O182	O	-0.058755	0.077993	0.250054
O183	O	0.191245	0.327993	0.500054
O184	O	0.441245	0.577993	0.750054
C185	C	-0.667577	-0.178283	0.000045
C186	C	-0.417577	0.071717	0.250045
C187	C	-0.167577	0.321717	0.500045
C188	C	0.082423	0.571717	0.750045
C189	C	-0.668343	-0.241500	0.000036
C190	C	-0.418343	0.008500	0.250036
C191	C	-0.168343	0.258500	0.500036
C192	C	0.081657	0.508500	0.750036
N193	N	-0.672304	-0.074155	0.153314
N194	N	-0.422304	0.175845	0.403314
N195	N	-0.172304	0.425845	0.653314
N196	N	0.077696	0.675845	0.903314
C197	C	-0.723539	0.492333	0.000049
C198	C	-0.473539	0.742333	0.250049
C199	C	-0.223539	0.992333	0.500049
C200	C	0.026461	1.242333	0.750049
C201	C	-0.722827	0.551733	0.000044
C202	C	-0.472827	0.801733	0.250044
C203	C	-0.222827	1.051733	0.500044
C204	C	0.027173	1.301733	0.750044
O205	O	-0.766613	0.588478	0.000027
O206	O	-0.516613	0.838478	0.250027
O207	O	-0.266613	1.088478	0.500027
O208	O	-0.016613	1.338478	0.750027
N209	N	-0.670551	0.574359	0.000039
N210	N	-0.420551	0.824359	0.250039
N211	N	-0.170551	1.074359	0.500039
N212	N	0.079449	1.324359	0.750039
C213	C	-0.618983	0.537582	0.000032
C214	C	-0.368983	0.787582	0.250032
C215	C	-0.118983	1.037582	0.500032
C216	C	0.131017	1.287582	0.750032
O217	O	-0.574452	0.562281	0.000027
O218	O	-0.324452	0.812281	0.250027
O219	O	-0.074452	1.062281	0.500027
O220	O	0.175548	1.312281	0.750027
C221	C	-0.619695	0.478182	0.000033
C222	C	-0.369695	0.728182	0.250033
C223	C	-0.119695	0.978182	0.500033
C224	C	0.130305	1.228182	0.750033
C225	C	-0.671974	0.455560	0.000044
C226	C	-0.421974	0.705560	0.250044
C227	C	-0.171974	0.955560	0.500044
C228	C	0.078026	1.205560	0.750044
C229	C	-0.775814	0.469710	0.000060
C230	C	-0.525814	0.719710	0.250060
C231	C	-0.275814	0.969710	0.500060
C232	C	-0.025814	1.219710	0.750060
C233	C	-0.776525	0.410313	0.000065
C234	C	-0.526525	0.660313	0.250065
C235	C	-0.276525	0.910313	0.500065
C236	C	-0.026525	1.160313	0.750065
C237	C	-0.724961	0.373540	0.000060
C238	C	-0.474961	0.623540	0.250060
C239	C	-0.224961	0.873540	0.500060
C240	C	0.025039	1.123540	0.750060
C241	C	-0.672685	0.396164	0.000050
C242	C	-0.422685	0.646164	0.250050
C243	C	-0.172685	0.896164	0.500050
C244	C	0.077315	1.146164	0.750050
C245	C	-0.568127	0.441406	0.000022
C246	C	-0.318127	0.691406	0.250022
C247	C	-0.068127	0.941406	0.500022
C248	C	0.181873	1.191406	0.750022
C249	C	-0.568844	0.382004	0.000021
C250	C	-0.318844	0.632004	0.250021
C251	C	-0.068844	0.882004	0.500021
C252	C	0.181156	1.132004	0.750021
C253	C	-0.621123	0.359381	0.000033
C254	C	-0.371123	0.609381	0.250033
C255	C	-0.121123	0.859381	0.500033
C256	C	0.128877	1.109381	0.750033
C257	C	-0.621832	0.299995	0.000050
C258	C	-0.371832	0.549995	0.250050
C259	C	-0.121832	0.799995	0.500050
C260	C	0.128168	1.049995	0.750050
N261	N	-0.674109	0.277368	0.000056
N262	N	-0.424109	0.527368	0.250056
N263	N	-0.174109	0.777368	0.500056
N264	N	0.075891	1.027368	0.750056
C265	C	-0.725673	0.314141	0.000061
C266	C	-0.475673	0.564141	0.250061
C267	C	-0.225673	0.814141	0.500061
C268	C	0.024327	1.064141	0.750061
C269	C	-0.617491	0.662324	0.000031
C270	C	-0.367491	0.912324	0.250031
C271	C	-0.117491	1.162324	0.500031
C272	C	0.132509	1.412324	0.750031
C273	C	-0.616778	0.721722	0.000034
C274	C	-0.366778	0.971722	0.250034
C275	C	-0.116778	1.221722	0.500034
C276	C	0.133222	1.471722	0.750034
C277	C	-0.720623	0.735869	0.000045
C278	C	-0.470623	0.985869	0.250045
C279	C	-0.220623	1.235869	0.500045
C280	C	0.029377	1.485869	0.750045
C281	C	-0.721335	0.676470	0.000046
C282	C	-0.471335	0.926470	0.250046
C283	C	-0.221335	1.176470	0.500046
C284	C	0.028665	1.426470	0.750046
C285	C	-0.669767	0.639698	0.000036
C286	C	-0.419767	0.889698	0.250036
C287	C	-0.169767	1.139698	0.500036
C288	C	0.080233	1.389698	0.750036
C289	C	-0.727163	0.189405	0.000073
C290	C	-0.477163	0.439405	0.250073
C291	C	-0.227163	0.689405	0.500073
C292	C	0.022837	0.939405	0.750073
C293	C	-0.727869	0.130003	0.000081
C294	C	-0.477869	0.380003	0.250081
C295	C	-0.227869	0.630003	0.500081
C296	C	0.022131	0.880003	0.750081
C297	C	-0.624025	0.115860	0.000067
C298	C	-0.374025	0.365860	0.250067
C299	C	-0.124025	0.615860	0.500067
C300	C	0.125975	0.865860	0.750067
C301	C	-0.623318	0.175257	0.000062
C302	C	-0.373318	0.425257	0.250062
C303	C	-0.123318	0.675257	0.500062
C304	C	0.126682	0.925257	0.750062
C305	C	-0.674891	0.212029	0.000063
C306	C	-0.424891	0.462029	0.250063
C307	C	-0.174891	0.712029	0.500063
C308	C	0.075109	0.962029	0.750063
O309	O	-0.578070	0.263215	0.000065
O310	O	-0.328070	0.513215	0.250065
O311	O	-0.078070	0.763215	0.500065
O312	O	0.171930	1.013215	0.750065
O313	O	-0.770196	0.289433	0.000058
O314	O	-0.520196	0.539433	0.250058
O315	O	-0.270196	0.789433	0.500058
O316	O	-0.020196	1.039433	0.750058
N317	N	-0.672349	-0.074111	-0.153196
N318	N	-0.422349	0.175889	0.096804
N319	N	-0.172349	0.425889	0.346804
N320	N	0.077651	0.675889	0.596804
C321	C	-0.711273	-0.035196	0.561965
C322	C	-0.461273	0.214804	0.811965
C323	C	-0.211273	0.464804	1.061965
C324	C	0.038727	0.714804	1.311965
C325	C	-0.711276	-0.035192	0.623884
C326	C	-0.461276	0.214808	0.873884
C327	C	-0.211276	0.464808	1.123884
C328	C	0.038724	0.714808	1.373884
O329	O	-0.744384	-0.002076	0.655911
O330	O	-0.494384	0.247924	0.905911
O331	O	-0.244384	0.497924	1.155911
O332	O	0.005616	0.747924	1.405911
N333	N	-0.672334	-0.074115	0.654851
N334	N	-0.422334	0.175885	0.904851
N335	N	-0.172334	0.425885	1.154851
N336	N	0.077666	0.675885	1.404851
C337	C	-0.633383	-0.113041	0.623895
C338	C	-0.383383	0.136959	0.873895
C339	C	-0.133383	0.386959	1.123895
C340	C	0.116617	0.636959	1.373895
O341	O	-0.600259	-0.146147	0.655920
O342	O	-0.350259	0.103853	0.905920
O343	O	-0.100259	0.353853	1.155920
O344	O	0.149741	0.603853	1.405920
C345	C	-0.633377	-0.113042	0.561976
C346	C	-0.383377	0.136958	0.811976
C347	C	-0.133377	0.386958	1.061976
C348	C	0.116623	0.636958	1.311976
C349	C	-0.672326	-0.074120	0.531013
C350	C	-0.422326	0.175880	0.781013
C351	C	-0.172326	0.425880	1.031013
C352	C	0.077674	0.675880	1.281013
C353	C	-0.750218	0.003724	0.531001
C354	C	-0.500218	0.253724	0.781001
C355	C	-0.250218	0.503724	1.031001
C356	C	-0.000218	0.753724	1.281001
C357	C	-0.750215	0.003719	0.469085
C358	C	-0.500215	0.253719	0.719085
C359	C	-0.250215	0.503719	0.969085
C360	C	-0.000215	0.753719	1.219085
C361	C	-0.711268	-0.035206	0.438133
C362	C	-0.461268	0.214794	0.688133
C363	C	-0.211268	0.464794	0.938133
C364	C	0.038732	0.714794	1.188133
C365	C	-0.672323	-0.074125	0.469097
C366	C	-0.422323	0.175875	0.719097
C367	C	-0.172323	0.425875	0.969097
C368	C	0.077677	0.675875	1.219097
C369	C	-0.594424	-0.151965	0.531021
C370	C	-0.344424	0.098035	0.781021
C371	C	-0.094424	0.348035	1.031021
C372	C	0.155576	0.598035	1.281021
C373	C	-0.594422	-0.151962	0.469098
C374	C	-0.344422	0.098038	0.719098
C375	C	-0.094422	0.348038	0.969098
C376	C	0.155578	0.598038	1.219098
C377	C	-0.633370	-0.113040	0.438134
C378	C	-0.383370	0.136960	0.688134
C379	C	-0.133370	0.386960	0.938134
C380	C	0.116630	0.636960	1.188134
C381	C	-0.633374	-0.113054	0.376229
C382	C	-0.383374	0.136946	0.626229
C383	C	-0.133374	0.386946	0.876229
C384	C	0.116626	0.636946	1.126229
N385	N	-0.672316	-0.074131	0.345262
N386	N	-0.422316	0.175869	0.595262
N387	N	-0.172316	0.425869	0.845262
N388	N	0.077684	0.675869	1.095262
C389	C	-0.711263	-0.035207	0.376214
C390	C	-0.461263	0.214793	0.626214
C391	C	-0.211263	0.464793	0.876214
C392	C	0.038737	0.714793	1.126214
C393	C	-0.633396	-0.113035	0.753928
C394	C	-0.383396	0.136965	1.003928
C395	C	-0.133396	0.386965	1.253928
C396	C	0.116604	0.636965	1.503928
C397	C	-0.633403	-0.113037	0.815846
C398	C	-0.383403	0.136963	1.065846
C399	C	-0.133403	0.386963	1.315846
C400	C	0.116597	0.636963	1.565846
C401	C	-0.711296	-0.035187	0.815831
C402	C	-0.461296	0.214813	1.065831
C403	C	-0.211296	0.464813	1.315831
C404	C	0.038704	0.714813	1.565831
C405	C	-0.711291	-0.035188	0.753913
C406	C	-0.461291	0.214812	1.003913
C407	C	-0.211291	0.464812	1.253913
C408	C	0.038709	0.714812	1.503913
C409	C	-0.672338	-0.074112	0.722962
C410	C	-0.422338	0.175888	0.972962
C411	C	-0.172338	0.425888	1.222962
C412	C	0.077662	0.675888	1.472962
C413	C	-0.711255	-0.035220	0.246187
C414	C	-0.461255	0.214780	0.496187
C415	C	-0.211255	0.464780	0.746187
C416	C	0.038745	0.714780	0.996187
C417	C	-0.711251	-0.035230	0.184266
C418	C	-0.461251	0.214770	0.434266
C419	C	-0.211251	0.464770	0.684266
C420	C	0.038749	0.714770	0.934266
C421	C	-0.633357	-0.113078	0.184286
C422	C	-0.383357	0.136922	0.434286
C423	C	-0.133357	0.386922	0.684286
C424	C	0.116643	0.636922	0.934286
C425	C	-0.633363	-0.113071	0.246202
C426	C	-0.383363	0.136929	0.496202
C427	C	-0.133363	0.386929	0.746202
C428	C	0.116637	0.636929	0.996202
C429	C	-0.672314	-0.074137	0.277151
C430	C	-0.422314	0.175863	0.527151
C431	C	-0.172314	0.425863	0.777151
C432	C	0.077686	0.675863	1.027151
O433	O	-0.600281	-0.146152	0.344163
O434	O	-0.350281	0.103848	0.594163
O435	O	-0.100281	0.353848	0.844163
O436	O	0.149719	0.603848	1.094163
O437	O	-0.744376	-0.002101	0.344182
O438	O	-0.494376	0.247899	0.594182
O439	O	-0.244376	0.497899	0.844182
O440	O	0.005624	0.747899	1.094182
H441	H	-0.486602	-0.172255	0.000024
H442	H	-0.236602	0.077745	0.250024
H443	H	0.013398	0.327745	0.500024
H444	H	0.263398	0.577745	0.750024
H445	H	-0.525555	0.459814	0.000009
H446	H	-0.275555	0.709814	0.250009
H447	H	-0.025555	0.959814	0.500009
H448	H	0.224445	1.209814	0.750009
H449	H	-0.743008	-0.003492	0.841044
H450	H	-0.493008	0.246508	1.091044
H451	H	-0.243008	0.496508	1.341044
H452	H	0.006992	0.746508	1.591044
H453	H	-0.378851	-0.170970	0.000041
H454	H	-0.128851	0.079030	0.250041
H455	H	0.121149	0.329030	0.500041
H456	H	0.371149	0.579030	0.750041
H457	H	0.141947	0.023982	0.000076
H458	H	0.391947	0.273982	0.250076
H459	H	0.641947	0.523982	0.500076
H460	H	0.891947	0.773982	0.750076
H461	H	-0.206289	-0.220908	0.000035
H462	H	0.043711	0.029092	0.250035
H463	H	0.293711	0.279092	0.500035
H464	H	0.543711	0.529092	0.750035
H465	H	-0.769159	0.219337	0.000071
H466	H	-0.519159	0.469337	0.250071
H467	H	-0.269159	0.719337	0.500071
H468	H	-0.019159	0.969337	0.750071
H469	H	-0.562700	-0.183658	0.443901
H470	H	-0.312700	0.066342	0.693901
H471	H	-0.062700	0.316342	0.943901
H472	H	0.187300	0.566342	1.193901
H473	H	-0.526850	0.352066	0.000013
H474	H	-0.276850	0.602066	0.250013
H475	H	-0.026850	0.852066	0.500013
H476	H	0.223150	1.102066	0.750013
H477	H	-0.601677	-0.144736	0.728731
H478	H	-0.351677	0.105264	0.978731
H479	H	-0.101677	0.355264	1.228731
H480	H	0.148323	0.605264	1.478731
H481	H	-0.743005	-0.003494	0.728706
H482	H	-0.493005	0.246506	0.978706
H483	H	-0.243005	0.496506	1.228706
H484	H	0.006995	0.746506	1.478706
H485	H	0.034198	0.022693	0.000084
H486	H	0.284198	0.272693	0.250084
H487	H	0.534198	0.522693	0.500084
H488	H	0.784198	0.772693	0.750084
H489	H	-0.512280	0.016146	0.000054
H490	H	-0.262280	0.266146	0.250054
H491	H	-0.012280	0.516146	0.500054
H492	H	0.237720	0.766146	0.750054
H493	H	-0.138375	0.072634	0.000103
H494	H	0.111625	0.322634	0.250103
H495	H	0.361625	0.572634	0.500103
H496	H	0.611625	0.822634	0.750103
H497	H	-0.601648	-0.144772	0.159075
H498	H	-0.351648	0.105228	0.409075
H499	H	-0.101648	0.355228	0.659075
H500	H	0.148352	0.605228	0.909075
H501	H	-0.601653	-0.144770	0.271413
H502	H	-0.351653	0.105230	0.521413
H503	H	-0.101653	0.355230	0.771413
H504	H	0.148347	0.605230	1.021413
H505	H	-0.582043	0.085909	0.000065
H506	H	-0.332043	0.335909	0.250065
H507	H	-0.082043	0.585909	0.500065
H508	H	0.167957	0.835909	0.750065
H509	H	-0.098544	-0.219617	0.000046
H510	H	0.151456	0.030383	0.250046
H511	H	0.401456	0.280383	0.500046
H512	H	0.651456	0.530383	0.750046
H513	H	0.059867	-0.165717	0.000055
H514	H	0.309867	0.084283	0.250055
H515	H	0.559867	0.334283	0.500055
H516	H	0.809867	0.584283	0.750055
H517	H	0.167632	-0.164421	0.000059
H518	H	0.417632	0.085579	0.250059
H519	H	0.667632	0.335579	0.500059
H520	H	0.917632	0.585579	0.750059
H521	H	-0.574207	0.740136	0.000035
H522	H	-0.324207	0.990136	0.250035
H523	H	-0.074207	1.240136	0.500035
H524	H	0.175793	1.490136	0.750035
H525	H	-0.762610	0.765821	0.000047
H526	H	-0.512610	1.015821	0.250047
H527	H	-0.262610	1.265821	0.500047
H528	H	-0.012610	1.515821	0.750047
H529	H	-0.580748	0.193677	0.000069
H530	H	-0.330748	0.443677	0.250069
H531	H	-0.080748	0.693677	0.500069
H532	H	0.169252	0.943677	0.750069
H533	H	-0.246123	0.071339	0.000104
H534	H	0.003877	0.321339	0.250104
H535	H	0.253877	0.571339	0.500104
H536	H	0.503877	0.821339	0.750104
H537	H	-0.601694	-0.144737	0.841052
H538	H	-0.351694	0.105263	1.091052
H539	H	-0.101694	0.355263	1.341052
H540	H	0.148306	0.605263	1.591052
H541	H	-0.404512	0.017441	0.000056
H542	H	-0.154512	0.267441	0.250056
H543	H	0.095488	0.517441	0.500056
H544	H	0.345488	0.767441	0.750056
H545	H	-0.817806	0.499645	0.000061
H546	H	-0.567806	0.749645	0.250061
H547	H	-0.317806	0.999645	0.500061
H548	H	-0.067806	1.249645	0.750061
H549	H	-0.770443	0.111587	0.000092
H550	H	-0.520443	0.361587	0.250092
H551	H	-0.270443	0.611587	0.500092
H552	H	-0.020443	0.861587	0.750092
H553	H	-0.819097	0.391900	0.000072
H554	H	-0.569097	0.641900	0.250072
H555	H	-0.319097	0.891900	0.500072
H556	H	-0.069097	1.141900	0.750072
H557	H	-0.763906	0.658056	0.000054
H558	H	-0.513906	0.908056	0.250054
H559	H	-0.263906	1.158056	0.500054
H560	H	-0.013906	1.408056	0.750054
H561	H	-0.575496	0.632386	0.000028
H562	H	-0.325496	0.882386	0.250028
H563	H	-0.075496	1.132386	0.500028
H564	H	0.174504	1.382386	0.750028
H565	H	-0.742969	-0.003535	0.159057
H566	H	-0.492969	0.246465	0.409057
H567	H	-0.242969	0.496465	0.659057
H568	H	0.007031	0.746465	0.909057
H569	H	-0.742973	-0.003516	0.271379
H570	H	-0.492973	0.246484	0.521379
H571	H	-0.242973	0.496484	0.771379
H572	H	0.007027	0.746484	1.021379
H573	H	-0.781929	0.035414	0.443878
H574	H	-0.531929	0.285414	0.693878
H575	H	-0.281929	0.535414	0.943878
H576	H	-0.031929	0.785414	1.193878
H577	H	-0.781933	0.035423	0.556197
H578	H	-0.531933	0.285423	0.806197
H579	H	-0.281933	0.535423	1.056197
H580	H	-0.031933	0.785423	1.306197
H581	H	-0.562709	-0.183658	0.556223
H582	H	-0.312709	0.066342	0.806223
H583	H	-0.062709	0.316342	1.056223
H584	H	0.187291	0.566342	1.306223
