data_functionalizedCrystal
_audit_creation_method	'MofGen! by Chris Wilmer'
_symmetry_space_group_name_H-M	'P1'
_symmetry_Int_Tables_number	1
_symmetry_cell_setting	triclinic
loop_
_symmetry_equiv_pos_as_xyz
  x,y,z
_cell_length_a	11.169417
_cell_length_b	11.169416
_cell_length_c	11.169406
_cell_angle_alpha	89.956706
_cell_angle_beta	90.032821
_cell_angle_gamma	89.996714
loop_
_atom_site_label
_atom_site_type_symbol
_atom_site_fract_x
_atom_site_fract_y
_atom_site_fract_z
Zn1	Zn	-1.835139	-0.477586	-0.678638
Zn2	Zn	-1.835007	-0.678380	-0.477970
Zn3	Zn	-1.634385	-0.477703	-0.477965
Zn4	Zn	-1.634451	-0.678219	-0.678608
O5	O	-1.734746	-0.577972	-0.578295
O6	O	-2.003071	-0.504240	-0.652033
O7	O	-1.808312	-0.651876	-0.310019
O8	O	-1.661043	-0.309738	-0.504596
O9	O	-2.002975	-0.651762	-0.504603
O10	O	-1.808536	-0.309652	-0.652029
O11	O	-1.660916	-0.504440	-0.310016
O12	O	-1.466444	-0.504284	-0.504567
O13	O	-1.661154	-0.651489	-0.846562
O14	O	-1.466492	-0.651602	-0.651978
O15	O	-1.808599	-0.504084	-0.846584
O16	O	-1.808375	-0.846308	-0.504574
O17	O	-1.661027	-0.846190	-0.651982
C18	C	-1.422921	-0.577939	-0.578270
C19	C	-1.289521	-0.577954	-0.578287
C20	C	-1.734727	-0.889797	-0.578302
C21	C	-1.734828	-1.023197	-0.578345
C22	C	-1.734899	-0.577755	-0.891338
C23	C	-1.734964	-0.577663	-1.024738
C24	C	-1.047788	-0.577994	-0.578313
C25	C	-1.181188	-0.577974	-0.578301
C26	C	-1.734797	-0.264930	-0.578315
C27	C	-1.734819	-0.131530	-0.578323
C28	C	-1.734662	-0.578101	-0.266470
C29	C	-1.734829	-0.577856	-0.133071
