data_functionalizedCrystal
_audit_creation_method	'MofGen! by Chris Wilmer'
_symmetry_space_group_name_H-M	'P1'
_symmetry_Int_Tables_number	1
_symmetry_cell_setting	triclinic
loop_
_symmetry_equiv_pos_as_xyz
  x,y,z
_cell_length_a	17.077404
_cell_length_b	18.050590
_cell_length_c	17.077395
_cell_angle_alpha	89.971485
_cell_angle_beta	89.985498
_cell_angle_gamma	90.016523
loop_
_atom_site_label
_atom_site_type_symbol
_atom_site_fract_x
_atom_site_fract_y
_atom_site_fract_z
Zn1	Zn	1.200048	-0.295709	-0.443812
Zn2	Zn	1.700048	0.204291	0.056188
Zn3	Zn	1.199974	-0.419903	-0.312543
Zn4	Zn	1.699974	0.080097	0.187457
Zn5	Zn	1.068789	-0.295727	-0.312562
Zn6	Zn	1.568789	0.204273	0.187438
Zn7	Zn	1.068758	-0.419857	-0.443769
Zn8	Zn	1.568758	0.080143	0.056231
O9	O	1.134392	-0.357799	-0.378171
O10	O	1.634392	0.142201	0.121829
O11	O	1.309885	-0.312195	-0.426408
O12	O	1.809885	0.187805	0.073592
O13	O	1.182554	-0.403458	-0.202698
O14	O	1.682554	0.096542	0.297302
O15	O	1.086245	-0.191800	-0.329999
O16	O	1.586245	0.308200	0.170001
O17	O	1.309831	-0.403440	-0.329966
O18	O	1.809831	0.096560	0.170034
O19	O	1.182680	-0.191787	-0.426427
O20	O	1.682680	0.308213	0.073573
O21	O	1.086173	-0.312227	-0.202713
O22	O	1.586173	0.187773	0.297287
O23	O	0.958938	-0.312182	-0.329957
O24	O	1.458938	0.187818	0.170043
O25	O	1.086192	-0.403362	-0.553622
O26	O	1.586192	0.096638	-0.053622
O27	O	0.958915	-0.403379	-0.426354
O28	O	1.458915	0.096621	0.073646
O29	O	1.182650	-0.312150	-0.553653
O30	O	1.682650	0.187850	-0.053653
O31	O	1.182524	-0.523822	-0.329924
O32	O	1.682524	-0.023822	0.170076
O33	O	1.086120	-0.523788	-0.426336
O34	O	1.586120	-0.023788	0.073664
C35	C	0.930445	-0.357778	-0.378154
C36	C	1.430445	0.142222	0.121846
C37	C	0.843195	-0.357787	-0.378165
C38	C	1.343195	0.142213	0.121835
C39	C	0.802234	-0.310360	-0.428459
C40	C	1.302234	0.189640	0.071541
C41	C	0.720253	-0.310365	-0.428463
C42	C	1.220253	0.189635	0.071537
C43	C	0.679235	-0.357801	-0.378176
C44	C	1.179235	0.142199	0.121824
C45	C	0.720202	-0.405230	-0.327876
C46	C	1.220202	0.094770	0.172124
C47	C	0.802181	-0.405221	-0.327869
C48	C	1.302181	0.094779	0.172131
C49	C	0.549332	-0.405247	-0.327895
C50	C	1.049332	0.094753	0.172105
C51	C	0.467347	-0.405257	-0.327903
C52	C	0.967347	0.094743	0.172097
C53	C	0.467404	-0.310391	-0.428489
C54	C	0.967404	0.189609	0.071511
C55	C	0.549383	-0.310382	-0.428482
C56	C	1.049383	0.189618	0.071518
C57	C	0.590344	-0.357812	-0.378183
C58	C	1.090344	0.142188	0.121817
C59	C	1.134332	-0.550751	-0.378140
C60	C	1.634332	-0.050751	0.121860
C61	C	1.134378	-0.633297	-0.378153
C62	C	1.634378	-0.133297	0.121847
C63	C	1.186912	-0.832739	-0.325798
C64	C	1.686912	-0.332739	0.174202
C65	C	1.206082	-0.882072	-0.397440
C66	C	1.706082	-0.382072	0.102560
C67	C	1.134423	-0.784427	-0.378184
C68	C	1.634423	-0.284427	0.121816
C69	C	1.115333	-0.882176	-0.306574
C70	C	1.615333	-0.382176	0.193426
C71	C	1.134467	-0.930413	-0.378208
C72	C	1.634467	-0.430413	0.121792
C73	C	1.153629	-0.832673	-0.449864
C74	C	1.653629	-0.332673	0.050136
C75	C	1.062847	-0.832773	-0.358950
C76	C	1.562847	-0.332773	0.141050
C77	C	1.081990	-0.882083	-0.430642
C78	C	1.581990	-0.382083	0.069358
C79	C	1.134399	-0.700329	-0.378170
C80	C	1.634399	-0.200329	0.121830
C81	C	1.134491	-1.014509	-0.378231
C82	C	1.634491	-0.514509	0.121769
C83	C	1.339137	-0.357821	-0.378190
C84	C	1.839137	0.142179	0.121810
C85	C	1.426386	-0.357830	-0.378197
C86	C	1.926386	0.142170	0.121803
C87	C	1.134426	-0.357749	-0.582916
C88	C	1.634426	0.142251	-0.082916
C89	C	1.134440	-0.357727	-0.670166
C90	C	1.634440	0.142273	-0.170166
C91	C	1.134474	-0.164094	-0.378220
C92	C	1.634474	0.335906	0.121780
C93	C	1.134509	-0.081548	-0.378241
C94	C	1.634509	0.418452	0.121759
C95	C	1.184753	-0.310133	-1.045998
C96	C	1.684753	0.189867	-0.545998
C97	C	1.184737	-0.310159	-0.964017
C98	C	1.684737	0.189841	-0.464017
C99	C	1.134505	-0.357657	-0.923015
C100	C	1.634505	0.142343	-0.423015
C101	C	1.084291	-0.405138	-0.963997
C102	C	1.584291	0.094862	-0.463997
C103	C	1.084312	-0.405115	-1.045976
C104	C	1.584312	0.094885	-0.545976
C105	C	1.084251	-0.405181	-0.793127
C106	C	1.584251	0.094819	-0.293127
C107	C	1.084229	-0.405203	-0.711142
C108	C	1.584229	0.094797	-0.211142
C109	C	1.184676	-0.310225	-0.711168
C110	C	1.684676	0.189775	-0.211168
C111	C	1.184697	-0.310202	-0.793147
C112	C	1.684697	0.189798	-0.293147
C113	C	1.134482	-0.357682	-0.834124
C114	C	1.634482	0.142318	-0.334124
C115	C	1.134404	-0.357796	-0.174224
C116	C	1.634404	0.142204	0.325776
C117	C	1.134542	-0.357608	-0.086974
C118	C	1.634542	0.142392	0.413026
H119	H	0.433953	-0.443884	-0.286955
H120	H	0.933953	0.056116	0.213045
F121	F	1.030832	-0.455691	-0.920357
F122	F	1.530832	0.044309	-0.420357
H123	H	1.225562	-0.271563	-0.677801
H124	H	1.725562	0.228437	-0.177801
F125	F	0.593036	-0.259901	-0.482010
F126	F	1.093036	0.240099	0.017990
H127	H	1.043307	-0.443863	-0.677760
H128	H	1.543307	0.056137	-0.177760
H129	H	0.434050	-0.271770	-0.469443
H130	H	0.934050	0.228230	0.030557
H131	H	0.582680	-0.443868	-0.286934
H132	H	1.082680	0.056132	0.213066
H133	H	1.043425	-0.443775	-1.079338
H134	H	1.543425	0.056225	-0.579338
H135	H	1.231315	-0.811072	-0.281542
H136	H	1.731315	-0.311072	0.218458
H137	H	0.686799	-0.443849	-0.286927
H138	H	1.186799	0.056151	0.213073
H139	H	0.835531	-0.443840	-0.286913
H140	H	1.335531	0.056160	0.213087
H141	H	0.835625	-0.271734	-0.469411
H142	H	1.335625	0.228266	0.030589
F143	F	1.023996	-0.910227	-0.488625
F144	F	1.523996	-0.410227	0.011375
F145	F	1.030806	-0.455715	-0.836735
F146	F	1.530806	0.044285	-0.336735
F147	F	0.676663	-0.259888	-0.481995
F148	F	1.176663	0.240112	0.018005
F149	F	1.285225	-0.910366	-0.418736
F150	F	1.785225	-0.410366	0.081264
F151	F	1.094203	-0.910598	-0.227407
F152	F	1.594203	-0.410598	0.272593
F153	F	1.174859	-0.804376	-0.529055
F154	F	1.674859	-0.304376	-0.029055
H155	H	1.225653	-0.271449	-1.079376
H156	H	1.725653	0.228551	-0.579376
H157	H	1.002315	-0.811100	-0.342645
H158	H	1.502315	-0.311100	0.157355
F159	F	1.238180	-0.259630	-0.920411
F160	F	1.738180	0.240370	-0.420411
F161	F	1.238169	-0.259658	-0.836784
F162	F	1.738169	0.240342	-0.336784
