data_functionalizedCrystal
_audit_creation_method	'MofGen! by Chris Wilmer'
_symmetry_space_group_name_H-M	'P1'
_symmetry_Int_Tables_number	1
_symmetry_cell_setting	triclinic
loop_
_symmetry_equiv_pos_as_xyz
  x,y,z
_cell_length_a	11.792241
_cell_length_b	7.540329
_cell_length_c	9.065218
_cell_angle_alpha	89.998243
_cell_angle_beta	84.604650
_cell_angle_gamma	90.001242
loop_
_atom_site_label
_atom_site_type_symbol
_atom_site_fract_x
_atom_site_fract_y
_atom_site_fract_z
O1	O	1.508028	-0.147302	0.202222
O2	O	1.841361	0.186031	0.535555
O3	O	2.174695	0.519364	0.868888
O4	O	1.177802	-0.147343	0.223063
O5	O	1.511136	0.185990	0.556396
O6	O	1.844469	0.519324	0.889730
O7	O	1.349741	-0.147318	-0.002064
O8	O	1.683074	0.186015	0.331269
O9	O	2.016408	0.519348	0.664603
O10	O	1.336089	-0.147327	0.427349
O11	O	1.669423	0.186006	0.760682
O12	O	2.002756	0.519340	1.094015
O13	O	1.349730	0.147647	-0.002067
O14	O	1.683064	0.480980	0.331266
O15	O	2.016397	0.814313	0.664600
O16	O	1.177792	0.147622	0.223060
O17	O	1.511125	0.480955	0.556393
O18	O	1.844459	0.814289	0.889727
O19	O	1.508018	0.147663	0.202219
O20	O	1.841351	0.480996	0.535552
O21	O	2.174684	0.814329	0.868885
Cu22	Cu	1.342904	0.174575	0.212639
Cu23	Cu	1.676237	0.507908	0.545973
Cu24	Cu	2.009571	0.841242	0.879306
Cu25	Cu	1.342916	-0.174255	0.212643
Cu26	Cu	1.676249	0.159078	0.545976
Cu27	Cu	2.009583	0.492411	0.879309
O28	O	1.336079	0.147638	0.427346
O29	O	1.669412	0.480971	0.760679
O30	O	2.002746	0.814305	1.094012
C31	C	1.135499	0.000134	0.221752
C32	C	1.468832	0.333468	0.555086
C33	C	1.802166	0.666801	0.888419
C34	C	1.009464	0.000119	0.217834
C35	C	1.342797	0.333452	0.551167
C36	C	1.676130	0.666785	0.884501
N37	N	1.342903	0.419923	0.212636
N38	N	1.676237	0.753257	0.545969
N39	N	2.009570	1.086590	0.879303
N40	N	1.342925	-0.419604	0.212634
N41	N	1.676259	-0.086270	0.545967
N42	N	2.009592	0.247063	0.879301
C43	C	0.778711	0.000170	0.210629
C44	C	1.112045	0.333503	0.543962
C45	C	1.445378	0.666836	0.877295
C46	C	0.907119	0.000142	0.214632
C47	C	1.240452	0.333475	0.547965
C48	C	1.573785	0.666808	0.881299
C49	C	1.550321	0.000181	0.203529
C50	C	1.883654	0.333515	0.536863
C51	C	2.216988	0.666848	0.870196
C52	C	1.676356	0.000185	0.207448
C53	C	2.009690	0.333519	0.540781
C54	C	2.343023	0.666852	0.874114
C55	C	1.348424	0.000161	-0.057040
C56	C	1.681757	0.333495	0.276293
C57	C	2.015090	0.666828	0.609627
C58	C	1.344501	0.000152	-0.220846
C59	C	1.677834	0.333486	0.112487
C60	C	2.011167	0.666819	0.445821
C61	C	1.337396	0.000154	0.482322
C62	C	1.670730	0.333488	0.815655
C63	C	2.004063	0.666821	1.148988
C64	C	1.341319	0.000152	0.646128
C65	C	1.674652	0.333485	0.979461
C66	C	2.007986	0.666818	1.312794
