data_functionalizedCrystal
_audit_creation_method	'MofGen! by Chris Wilmer'
_symmetry_space_group_name_H-M	'P1'
_symmetry_Int_Tables_number	1
_symmetry_cell_setting	triclinic
loop_
_symmetry_equiv_pos_as_xyz
  x,y,z
_cell_length_a	27.732048
_cell_length_b	27.732048
_cell_length_c	26.809956
_cell_angle_alpha	90.000636
_cell_angle_beta	89.996742
_cell_angle_gamma	97.357345
loop_
_atom_site_label
_atom_site_type_symbol
_atom_site_fract_x
_atom_site_fract_y
_atom_site_fract_z
O1	O	0.640931	-0.057510	-0.041421
O2	O	0.974264	0.275823	0.291913
O3	O	1.307598	0.609157	0.625246
O4	O	0.500138	-0.066256	-0.041436
O5	O	0.833471	0.267078	0.291897
O6	O	1.166804	0.600411	0.625230
O7	O	0.574907	0.008514	-0.041419
O8	O	0.908240	0.341847	0.291915
O9	O	1.241574	0.675180	0.625248
O10	O	0.566162	-0.132280	-0.041439
O11	O	0.899495	0.201054	0.291895
O12	O	1.232828	0.534387	0.625228
O13	O	0.574893	0.008502	0.041541
O14	O	0.908226	0.341836	0.374874
O15	O	1.241560	0.675169	0.708207
O16	O	0.500123	-0.066267	0.041523
O17	O	0.833457	0.267066	0.374856
O18	O	1.166790	0.600400	0.708189
O19	O	0.640917	-0.057522	0.041539
O20	O	0.974250	0.275812	0.374872
O21	O	1.307584	0.609145	0.708205
Zn22	Zn	0.570518	-0.061896	0.054702
Zn23	Zn	0.903851	0.271437	0.388036
Zn24	Zn	1.237185	0.604771	0.721369
Zn25	Zn	0.570536	-0.061881	-0.054600
Zn26	Zn	0.903870	0.271452	0.278733
Zn27	Zn	1.237203	0.604786	0.612067
O28	O	0.566147	-0.132291	0.041521
O29	O	0.899481	0.201042	0.374854
O30	O	1.232814	0.534376	0.708187
C31	C	0.482124	-0.066078	0.000041
C32	C	0.815457	0.267256	0.333375
C33	C	1.148790	0.600589	0.666708
C34	C	0.428469	-0.065525	0.000036
C35	C	0.761802	0.267808	0.333369
C36	C	1.095135	0.601142	0.666702
C37	C	0.089654	-0.106229	0.000051
C38	C	0.422987	0.227105	0.333385
C39	C	0.756320	0.560438	0.666718
C40	C	-0.112006	-0.104178	0.000056
C41	C	0.221327	0.229156	0.333390
C42	C	0.554661	0.562489	0.666723
O43	O	-0.143262	-0.141398	0.000073
O44	O	0.190072	0.191935	0.333406
O45	O	0.523405	0.525268	0.666739
N46	N	-0.131130	-0.059843	0.000062
N47	N	0.202204	0.273491	0.333395
N48	N	0.535537	0.606824	0.666728
C49	C	-0.099835	-0.016017	0.000069
C50	C	0.233498	0.317316	0.333402
C51	C	0.566832	0.650650	0.666736
O52	O	-0.120728	0.021740	0.000079
O53	O	0.212605	0.355073	0.333412
O54	O	0.545938	0.688407	0.666746
C55	C	0.101824	-0.018068	0.000068
C56	C	0.435157	0.315265	0.333401
C57	C	0.768490	0.648598	0.666735
C58	C	0.120944	-0.062407	0.000057
C59	C	0.454278	0.270927	0.333391
C60	C	0.787611	0.604260	0.666724
C61	C	0.108775	-0.150563	0.000042
C62	C	0.442108	0.182770	0.333375
C63	C	0.775442	0.516103	0.666708
C64	C	0.159187	-0.151076	0.000038
C65	C	0.492520	0.182258	0.333371
C66	C	0.825853	0.515591	0.666704
C67	C	0.190477	-0.107253	0.000044
C68	C	0.523811	0.226080	0.333377
C69	C	0.857144	0.559413	0.666710
C70	C	0.171356	-0.062919	0.000054
C71	C	0.504690	0.270415	0.333387
C72	C	0.838023	0.603748	0.666720
C73	C	0.133117	0.025757	0.000079
C74	C	0.466451	0.359090	0.333412
C75	C	0.799784	0.692423	0.666746
C76	C	0.183535	0.025240	0.000080
C77	C	0.516868	0.358573	0.333413
C78	C	0.850201	0.691906	0.666747
C79	C	0.202655	-0.019098	0.000069
C80	C	0.535989	0.314235	0.333403
C81	C	0.869322	0.647568	0.666736
C82	C	0.253059	-0.019609	0.000056
C83	C	0.586392	0.313724	0.333389
C84	C	0.919725	0.647058	0.666722
N85	N	0.272183	-0.063944	0.000050
N86	N	0.605516	0.269389	0.333384
N87	N	0.938849	0.602723	0.666717
C88	C	0.240892	-0.107766	0.000044
C89	C	0.574225	0.225567	0.333378
C90	C	0.907559	0.558900	0.666711
C91	C	-0.205709	-0.014943	0.000069
C92	C	0.127624	0.318390	0.333402
C93	C	0.460957	0.651724	0.666735
C94	C	-0.256124	-0.014430	0.000068
C95	C	0.077210	0.318903	0.333401
C96	C	0.410543	0.652237	0.666735
C97	C	-0.268291	-0.102591	0.000056
C98	C	0.065042	0.230742	0.333390
C99	C	0.398376	0.564076	0.666723
C100	C	-0.217876	-0.103104	0.000053
C101	C	0.115458	0.230230	0.333387
C102	C	0.448791	0.563563	0.666720
C103	C	-0.186585	-0.059278	0.000063
C104	C	0.146748	0.274055	0.333397
C105	C	0.480081	0.607388	0.666730
C106	C	0.346761	-0.108839	0.000036
C107	C	0.680094	0.224495	0.333369
C108	C	1.013428	0.557828	0.666702
C109	C	0.397178	-0.109347	0.000030
C110	C	0.730511	0.223986	0.333363
C111	C	1.063845	0.557319	0.666696
C112	C	0.409341	-0.021186	0.000044
C113	C	0.742674	0.312147	0.333378
C114	C	1.076008	0.645480	0.666711
C115	C	0.358929	-0.020678	0.000048
C116	C	0.692262	0.312656	0.333381
C117	C	1.025595	0.645989	0.666714
C118	C	0.327639	-0.064508	0.000045
C119	C	0.660973	0.268825	0.333378
C120	C	0.994306	0.602159	0.666712
O121	O	0.284343	0.017592	0.000045
O122	O	0.617676	0.350925	0.333378
O123	O	0.951009	0.684259	0.666712
O124	O	0.261794	-0.145518	0.000045
O125	O	0.595128	0.187816	0.333379
O126	O	0.928461	0.521149	0.666712
C127	C	0.039242	-0.105716	0.000055
C128	C	0.372575	0.227617	0.333389
C129	C	0.705908	0.560950	0.666722
C130	C	0.020120	-0.061382	0.000065
C131	C	0.353454	0.271951	0.333399
C132	C	0.686787	0.605285	0.666732
C133	C	0.051411	-0.017560	0.000071
C134	C	0.384744	0.315774	0.333405
C135	C	0.718078	0.649107	0.666738
C136	C	-0.030294	-0.060869	0.000065
C137	C	0.303039	0.272464	0.333398
C138	C	0.636373	0.605798	0.666731
C139	C	-0.061585	-0.104691	0.000059
C140	C	0.271749	0.228642	0.333392
C141	C	0.605082	0.561975	0.666725
C142	C	-0.042461	-0.149026	0.000053
C143	C	0.290872	0.184307	0.333387
C144	C	0.624206	0.517640	0.666720
C145	C	0.007951	-0.149539	0.000049
C146	C	0.341284	0.183795	0.333383
C147	C	0.674618	0.517128	0.666716
C148	C	0.032287	0.026775	0.000077
C149	C	0.365621	0.360109	0.333410
C150	C	0.698954	0.693442	0.666743
C151	C	-0.018125	0.027284	0.000080
C152	C	0.315208	0.360617	0.333413
C153	C	0.648541	0.693951	0.666747
C154	C	-0.049416	-0.016538	0.000074
C155	C	0.283917	0.316795	0.333407
C156	C	0.617251	0.650129	0.666741
C157	C	0.574716	0.026515	0.000062
C158	C	0.908050	0.359848	0.333396
C159	C	1.241383	0.693182	0.666729
C160	C	0.574164	0.080170	0.000066
C161	C	0.907497	0.413503	0.333400
C162	C	1.240830	0.746837	0.666733
C163	C	0.658931	-0.057699	0.000060
C164	C	0.992264	0.275634	0.333393
C165	C	1.325598	0.608967	0.666726
C166	C	0.712586	-0.058252	0.000062
C167	C	1.045919	0.275081	0.333395
C168	C	1.379252	0.608414	0.666729
C169	C	0.566338	-0.150292	0.000039
C170	C	0.899671	0.183041	0.333372
C171	C	1.233005	0.516374	0.666705
C172	C	0.566891	-0.203947	0.000031
C173	C	0.900224	0.129386	0.333365
C174	C	1.233557	0.462720	0.666698
N175	N	0.570509	-0.061906	0.129298
N176	N	0.903842	0.271427	0.462632
N177	N	1.237175	0.604761	0.795965
C178	C	0.614867	0.418985	0.000045
C179	C	0.948201	0.752318	0.333379
C180	C	1.281534	1.085652	0.666712
C181	C	0.612816	0.620645	0.000038
C182	C	0.946150	0.953978	0.333372
C183	C	1.279483	1.287311	0.666705
O184	O	0.650037	0.651900	0.000021
O185	O	0.983370	0.985234	0.333354
O186	O	1.316704	1.318567	0.666687
N187	N	0.568481	0.639768	0.000034
N188	N	0.901814	0.973102	0.333367
N189	N	1.235148	1.306435	0.666700
C190	C	0.524656	0.608474	0.000028
C191	C	0.857989	0.941807	0.333361
C192	C	1.191322	1.275140	0.666694
O193	O	0.486899	0.629367	0.000019
O194	O	0.820232	0.962700	0.333352
O195	O	1.153565	1.296033	0.666685
C196	C	0.526707	0.406815	0.000031
C197	C	0.860040	0.740148	0.333365
C198	C	1.193374	1.073482	0.666698
C199	C	0.571045	0.387694	0.000041
C200	C	0.904378	0.721028	0.333374
C201	C	1.237712	1.054361	0.666708
C202	C	0.659202	0.399864	0.000054
C203	C	0.992535	0.733197	0.333388
C204	C	1.325868	1.066530	0.666721
C205	C	0.659714	0.349452	0.000059
C206	C	0.993047	0.682785	0.333392
C207	C	1.326381	1.016118	0.666726
C208	C	0.615892	0.318161	0.000054
C209	C	0.949225	0.651494	0.333388
C210	C	1.282559	0.984828	0.666721
C211	C	0.571557	0.337282	0.000045
C212	C	0.904891	0.670616	0.333379
C213	C	1.238224	1.003949	0.666712
C214	C	0.482882	0.375521	0.000022
C215	C	0.816215	0.708855	0.333355
C216	C	1.149549	1.042188	0.666688
C217	C	0.483399	0.325104	0.000021
C218	C	0.816732	0.658437	0.333355
C219	C	1.150066	0.991771	0.666688
C220	C	0.527737	0.305983	0.000031
C221	C	0.861070	0.639317	0.333364
C222	C	1.194404	0.972650	0.666698
C223	C	0.528247	0.255580	0.000045
C224	C	0.861581	0.588913	0.333379
C225	C	1.194914	0.922246	0.666712
N226	N	0.572583	0.236456	0.000050
N227	N	0.905916	0.569789	0.333383
N228	N	1.239249	0.903123	0.666717
C229	C	0.616405	0.267747	0.000054
C230	C	0.949738	0.601080	0.333388
C231	C	1.283072	0.934413	0.666721
C232	C	0.523582	0.714348	0.000027
C233	C	0.856915	1.047681	0.333360
C234	C	1.190248	1.381014	0.666693
C235	C	0.523069	0.764762	0.000027
C236	C	0.856402	1.098096	0.333360
C237	C	1.189735	1.431429	0.666693
C238	C	0.611230	0.776930	0.000036
C239	C	0.944563	1.110263	0.333370
C240	C	1.277896	1.443596	0.666703
C241	C	0.611742	0.726514	0.000040
C242	C	0.945075	1.059848	0.333373
C243	C	1.278409	1.393181	0.666707
C244	C	0.567917	0.695224	0.000031
C245	C	0.901250	1.028557	0.333365
C246	C	1.234583	1.361891	0.666698
C247	C	0.617477	0.161878	0.000064
C248	C	0.950811	0.495211	0.333398
C249	C	1.284144	0.828544	0.666731
C250	C	0.617986	0.111461	0.000071
C251	C	0.951319	0.444794	0.333404
C252	C	1.284652	0.778127	0.666738
C253	C	0.529825	0.099298	0.000059
C254	C	0.863158	0.432631	0.333392
C255	C	1.196492	0.765964	0.666725
C256	C	0.529316	0.149710	0.000055
C257	C	0.862650	0.483043	0.333388
C258	C	1.195983	0.816377	0.666721
C259	C	0.573147	0.180999	0.000056
C260	C	0.906480	0.514333	0.333389
C261	C	1.239813	0.847666	0.666723
O262	O	0.491047	0.224296	0.000057
O263	O	0.824380	0.557629	0.333391
O264	O	1.157713	0.890962	0.666724
O265	O	0.654156	0.246844	0.000053
O266	O	0.987490	0.580177	0.333386
O267	O	1.320823	0.913511	0.666719
C268	C	0.614355	0.469397	0.000041
C269	C	0.947688	0.802730	0.333374
C270	C	1.281022	1.136064	0.666708
C271	C	0.570021	0.488518	0.000032
C272	C	0.903354	0.821852	0.333365
C273	C	1.236687	1.155185	0.666699
C274	C	0.526198	0.457228	0.000027
C275	C	0.859532	0.790561	0.333361
C276	C	1.192865	1.123894	0.666694
C277	C	0.569508	0.538933	0.000032
C278	C	0.902841	0.872266	0.333365
C279	C	1.236174	1.205599	0.666699
C280	C	0.613330	0.570223	0.000036
C281	C	0.946663	0.903557	0.333370
C282	C	1.279996	1.236890	0.666703
C283	C	0.657665	0.551100	0.000041
C284	C	0.990998	0.884433	0.333374
C285	C	1.324332	1.217766	0.666708
C286	C	0.658177	0.500688	0.000045
C287	C	0.991511	0.834021	0.333379
C288	C	1.324844	1.167354	0.666712
C289	C	0.481863	0.476351	0.000023
C290	C	0.815197	0.809685	0.333356
C291	C	1.148530	1.143018	0.666690
C292	C	0.481355	0.526764	0.000019
C293	C	0.814688	0.860097	0.333352
C294	C	1.148021	1.193430	0.666686
C295	C	0.525177	0.558054	0.000023
C296	C	0.858510	0.891388	0.333357
C297	C	1.191843	1.224721	0.666690
N298	N	0.570549	-0.061867	-0.129196
N299	N	0.903883	0.271466	0.204137
N300	N	1.237216	0.604799	0.537471
C301	C	0.603640	-0.028781	0.473932
C302	C	0.936973	0.304552	0.807266
C303	C	1.270307	0.637885	1.140599
C304	C	0.603652	-0.028774	0.682810
C305	C	0.936985	0.304559	1.016143
C306	C	1.270318	0.637893	1.349477
O307	O	0.631801	-0.000613	0.709820
O308	O	0.965135	0.332720	1.043154
O309	O	1.298468	0.666054	1.376487
N310	N	0.570539	-0.061870	0.708925
N311	N	0.903873	0.271463	1.042259
N312	N	1.237206	0.604796	1.375592
C313	C	0.537419	-0.094969	0.682818
C314	C	0.870753	0.238364	1.016151
C315	C	1.204086	0.571698	1.349485
O316	O	0.509252	-0.123116	0.709824
O317	O	0.842585	0.210217	1.043157
O318	O	1.175919	0.543550	1.376490
C319	C	0.537406	-0.094974	0.473941
C320	C	0.870739	0.238360	0.807275
C321	C	1.204073	0.571693	1.140608
C322	C	0.570524	-0.061878	0.447829
C323	C	0.903857	0.271455	0.781162
C324	C	1.237191	0.604788	1.114495
C325	C	0.636755	0.004312	0.447819
C326	C	0.970088	0.337645	0.781153
C327	C	1.303422	0.670978	1.114486
C328	C	0.636754	0.004308	0.395603
C329	C	0.970087	0.337641	0.728936
C330	C	1.303420	0.670975	1.062270
C331	C	0.603637	-0.028789	0.369500
C332	C	0.936971	0.304544	0.702833
C333	C	1.270304	0.637877	1.036166
C334	C	0.570522	-0.061882	0.395612
C335	C	0.903856	0.271451	0.728946
C336	C	1.237189	0.604784	1.062279
C337	C	0.504284	-0.128070	0.447835
C338	C	0.837618	0.205264	0.781168
C339	C	1.170951	0.538597	1.114502
C340	C	0.504283	-0.128067	0.395613
C341	C	0.837616	0.205266	0.728946
C342	C	1.170950	0.538599	1.062279
C343	C	0.537401	-0.094972	0.369500
C344	C	0.870734	0.238362	0.702833
C345	C	1.204068	0.571695	1.036167
C346	C	0.537405	-0.094983	0.317293
C347	C	0.870738	0.238350	0.650626
C348	C	1.204071	0.571683	0.983959
N349	N	0.570517	-0.061887	0.291177
N350	N	0.903850	0.271447	0.624510
N351	N	1.237184	0.604780	0.957844
C352	C	0.603633	-0.028790	0.317281
C353	C	0.936967	0.304544	0.650614
C354	C	1.270300	0.637877	0.983947
C355	C	0.537429	-0.094965	0.792481
C356	C	0.870763	0.238368	1.125815
C357	C	1.204096	0.571702	1.459148
C358	C	0.537433	-0.094964	0.844700
C359	C	0.870767	0.238369	1.178034
C360	C	1.204100	0.571702	1.511367
C361	C	0.603665	-0.028768	0.844689
C362	C	0.936998	0.304565	1.178022
C363	C	1.270332	0.637898	1.511355
C364	C	0.603663	-0.028772	0.792469
C365	C	0.936996	0.304562	1.125802
C366	C	1.270330	0.637895	1.459135
C367	C	0.570542	-0.061868	0.766366
C368	C	0.903875	0.271465	1.099699
C369	C	1.237209	0.604798	1.433033
C370	C	0.603628	-0.028801	0.207623
C371	C	0.936961	0.304533	0.540956
C372	C	1.270295	0.637866	0.874289
C373	C	0.603625	-0.028809	0.155402
C374	C	0.936958	0.304524	0.488735
C375	C	1.270292	0.637858	0.822068
C376	C	0.537392	-0.095003	0.155418
C377	C	0.870725	0.238330	0.488751
C378	C	1.204058	0.571664	0.822085
C379	C	0.537396	-0.094997	0.207635
C380	C	0.870730	0.238337	0.540968
C381	C	1.204063	0.571670	0.874301
C382	C	0.570516	-0.061892	0.233735
C383	C	0.903850	0.271442	0.567069
C384	C	1.237183	0.604775	0.900402
O385	O	0.509266	-0.123126	0.290250
O386	O	0.842599	0.210208	0.623583
O387	O	1.175933	0.543541	0.956916
O388	O	0.631789	-0.000640	0.290266
O389	O	0.965123	0.332694	0.623599
O390	O	1.298456	0.666027	0.956933
C391	C	0.603642	-0.028777	0.526149
C392	C	0.936975	0.304556	0.859482
C393	C	1.270308	0.637889	1.192815
C394	C	0.570527	-0.061870	0.552261
C395	C	0.903860	0.271463	0.885595
C396	C	1.237193	0.604796	1.218928
C397	C	0.537410	-0.094968	0.526158
C398	C	0.870744	0.238366	0.859491
C399	C	1.204077	0.571699	1.192824
C400	C	0.570531	-0.061870	0.604480
C401	C	0.903864	0.271463	0.937814
C402	C	1.237197	0.604797	1.271147
C403	C	0.603647	-0.028773	0.630584
C404	C	0.936980	0.304560	0.963917
C405	C	1.270314	0.637894	1.297250
C406	C	0.636759	0.004324	0.604468
C407	C	0.970093	0.337657	0.937802
C408	C	1.303426	0.670990	1.271135
C409	C	0.636758	0.004320	0.552252
C410	C	0.970091	0.337653	0.885585
C411	C	1.303425	0.670986	1.218919
C412	C	0.504298	-0.128064	0.552273
C413	C	0.837631	0.205269	0.885606
C414	C	1.170965	0.538603	1.218940
C415	C	0.504303	-0.128058	0.604489
C416	C	0.837636	0.205276	0.937823
C417	C	1.170969	0.538609	1.271156
C418	C	0.537419	-0.094961	0.630593
C419	C	0.870752	0.238373	0.963926
C420	C	1.204086	0.571706	1.297260
H421	H	-0.202311	-0.139207	0.000047
H422	H	0.131022	0.194126	0.333381
H423	H	0.464355	0.527459	0.666714
O424	O	0.472045	-0.160171	0.473169
O425	O	0.805378	0.173163	0.806502
O426	O	1.138711	0.506496	1.139836
C427	C	0.424259	-0.152642	0.460396
C428	C	0.757592	0.180691	0.793729
C429	C	1.090926	0.514025	1.127063
H430	H	0.424321	-0.113939	0.446046
H431	H	0.757654	0.219395	0.779379
H432	H	1.090988	0.552728	1.112713
H433	H	0.399953	-0.158371	0.494734
H434	H	0.733286	0.174963	0.828067
H435	H	1.066619	0.508296	1.161401
H436	H	0.409862	-0.179528	0.430080
H437	H	0.743195	0.153805	0.763413
H438	H	1.076529	0.487139	1.096747
O439	O	0.668945	0.036518	0.526967
O440	O	1.002279	0.369851	0.860300
O441	O	1.335612	0.703185	1.193634
C442	C	0.698179	0.065719	0.561213
C443	C	1.031512	0.399052	0.894547
C444	C	1.364845	0.732386	1.227880
H445	H	0.678363	0.066124	0.598437
H446	H	1.011696	0.399458	0.931770
H447	H	1.345029	0.732791	1.265104
H448	H	0.705843	0.104376	0.546130
H449	H	1.039177	0.437709	0.879463
H450	H	1.372510	0.771043	1.212797
H451	H	0.733968	0.050270	0.566765
H452	H	1.067301	0.383604	0.900099
H453	H	1.400634	0.716937	1.233432
O454	O	0.701235	0.482094	0.000139
O455	O	1.034568	0.815427	0.333472
O456	O	1.367902	1.148761	0.666805
C457	C	0.704164	0.453288	0.043098
C458	C	1.037498	0.786621	0.376432
C459	C	1.370831	1.119955	0.709765
H460	H	0.678990	0.465023	0.073127
H461	H	1.012323	0.798356	0.406460
H462	H	1.345656	1.131690	0.739793
H463	H	0.743155	0.458104	0.057523
H464	H	1.076488	0.791438	0.390856
H465	H	1.409821	1.124771	0.724189
H466	H	0.692718	0.413444	0.033384
H467	H	1.026052	0.746777	0.366717
H468	H	1.359385	1.080110	0.700051
H469	H	0.445246	0.542327	0.000015
H470	H	0.778580	0.875660	0.333349
H471	H	1.111913	1.208993	0.666682
H472	H	0.510433	-0.121951	0.228896
H473	H	0.843767	0.211383	0.562229
H474	H	1.177100	0.544716	0.895563
O475	O	0.439248	0.446028	0.000044
O476	O	0.772581	0.779361	0.333377
O477	O	1.105914	1.112695	0.666710
C478	C	0.400012	0.473724	0.000026
C479	C	0.733345	0.807057	0.333359
C480	C	1.066678	1.140391	0.666693
H481	H	0.412573	0.511446	0.015727
H482	H	0.745907	0.844779	0.349061
H483	H	1.079240	1.178112	0.682394
H484	H	0.369326	0.454909	0.024112
H485	H	0.702660	0.788243	0.357446
H486	H	1.035993	1.121576	0.690779
H487	H	0.386407	0.477212	-0.039775
H488	H	0.719741	0.810545	0.293558
H489	H	1.053074	1.143878	0.626892
H490	H	-0.033688	0.063392	0.000085
H491	H	0.299645	0.396725	0.333418
H492	H	0.632979	0.730059	0.666751
H493	H	0.510430	-0.121952	0.134157
H494	H	0.843764	0.211382	0.467490
H495	H	1.177097	0.544715	0.800823
O496	O	0.480041	0.783414	0.000044
O497	O	0.813375	1.116747	0.333377
O498	O	1.146708	1.450080	0.666710
C499	C	0.488979	0.834621	0.000031
C500	C	0.822312	1.167954	0.333364
C501	C	1.155645	1.501288	0.666697
H502	H	0.526787	0.846741	0.015743
H503	H	0.860120	1.180075	0.349077
H504	H	1.193453	1.513408	0.682410
H505	H	0.460624	0.849892	0.024110
H506	H	0.793958	1.183225	0.357443
H507	H	1.127291	1.516559	0.690776
H508	H	0.486751	0.848638	-0.039770
H509	H	0.820084	1.181971	0.293563
H510	H	1.153418	1.515304	0.626896
H511	H	0.487892	0.688875	0.000020
H512	H	0.821225	1.022208	0.333353
H513	H	1.154558	1.355542	0.666687
O514	O	0.635781	0.003422	0.232919
O515	O	0.969114	0.336756	0.566252
O516	O	1.302447	0.670089	0.899585
C517	C	0.628275	0.051219	0.220162
C518	C	0.961608	0.384552	0.553496
C519	C	1.294941	0.717886	0.886829
H520	H	0.609638	0.051025	0.182251
H521	H	0.942971	0.384358	0.515584
H522	H	1.276304	0.717692	0.848918
H523	H	0.664787	0.075274	0.218366
H524	H	0.998120	0.408607	0.551699
H525	H	1.331454	0.741941	0.885032
H526	H	0.604331	0.066007	0.249554
H527	H	0.937664	0.399341	0.582887
H528	H	1.270998	0.732674	0.916220
H529	H	0.647846	0.710950	0.000047
H530	H	0.981179	1.044283	0.333381
H531	H	1.314513	1.377617	0.666714
O532	O	0.505332	-0.127164	0.870086
O533	O	0.838665	0.206170	1.203419
O534	O	1.171999	0.539503	1.536752
C535	C	0.530991	-0.156803	0.900298
C536	C	0.864324	0.176530	1.233631
C537	C	1.197657	0.509864	1.566965
H538	H	0.569104	-0.157358	0.884560
H539	H	0.902438	0.175975	1.217894
H540	H	1.235771	0.509309	1.551227
H541	H	0.510979	-0.195360	0.900889
H542	H	0.844312	0.137973	1.234222
H543	H	1.177645	0.471306	1.567555
H544	H	0.533637	-0.141659	0.939875
H545	H	0.866970	0.191675	1.273208
H546	H	1.200304	0.525008	1.606541
H547	H	0.321291	-0.144530	0.000035
H548	H	0.654624	0.188804	0.333368
H549	H	0.987957	0.522137	0.666702
O550	O	0.653831	0.807281	-0.000029
O551	O	0.987165	1.140614	0.333304
O552	O	1.320498	1.473947	0.666638
C553	C	0.680769	0.798673	-0.043001
C554	C	1.014103	1.132006	0.290332
C555	C	1.347436	1.465340	0.623666
H556	H	0.668613	0.760337	-0.057323
H557	H	1.001946	1.093670	0.276010
H558	H	1.335280	1.427003	0.609344
H559	H	0.721112	0.802521	-0.033340
H560	H	1.054445	1.135854	0.299993
H561	H	1.387778	1.469188	0.633327
H562	H	0.674366	0.826200	-0.073088
H563	H	1.007700	1.159534	0.260245
H564	H	1.341033	1.492867	0.593578
O565	O	0.439673	0.021425	0.000027
O566	O	0.773006	0.354758	0.333361
O567	O	1.106340	0.688091	0.666694
C568	C	0.411990	0.060671	0.000049
C569	C	0.745324	0.394004	0.333383
C570	C	1.078657	0.727338	0.666716
H571	H	0.374269	0.048122	-0.015658
H572	H	0.707602	0.381456	0.317675
H573	H	1.040935	0.714789	0.651009
H574	H	0.430818	0.091355	-0.024030
H575	H	0.764151	0.424688	0.309304
H576	H	1.097484	0.758021	0.642637
H577	H	0.408500	0.074272	0.039852
H578	H	0.741833	0.407605	0.373186
H579	H	1.075166	0.740938	0.706519
H580	H	0.477330	-0.155015	0.531024
H581	H	0.810663	0.178318	0.864357
H582	H	1.143997	0.511651	1.197690
H583	H	0.630630	-0.001820	0.865951
H584	H	0.963964	0.331513	1.199284
H585	H	1.297297	0.664847	1.532617
H586	H	0.446777	0.391080	0.000011
H587	H	0.780111	0.724414	0.333344
H588	H	1.113444	1.057747	0.666678
H589	H	0.663726	0.031271	0.625730
H590	H	0.997059	0.364604	0.959064
H591	H	1.330392	0.697938	1.292397
O592	O	0.026441	-0.192652	0.000065
O593	O	0.359774	0.140682	0.333398
O594	O	0.693107	0.474015	0.666731
C595	C	-0.011996	-0.231215	0.000048
C596	C	0.321338	0.102119	0.333381
C597	C	0.654671	0.435452	0.666714
H598	H	-0.046147	-0.217922	0.015756
H599	H	0.287186	0.115411	0.349089
H600	H	0.620520	0.448744	0.682423
H601	H	-0.001693	-0.262197	0.024129
H602	H	0.331641	0.071136	0.357462
H603	H	0.664974	0.404469	0.690796
H604	H	-0.019229	-0.244708	-0.039754
H605	H	0.314105	0.088625	0.293580
H606	H	0.647438	0.421959	0.626913
H607	H	0.447710	0.299629	0.000014
H608	H	0.781043	0.632963	0.333347
H609	H	1.114377	0.966296	0.666680
O610	O	0.700222	0.581520	-0.000044
O611	O	1.033555	0.914853	0.333289
O612	O	1.366888	1.248187	0.666622
C613	C	0.702557	0.611050	-0.043006
C614	C	1.035890	0.944384	0.290327
C615	C	1.369224	1.277717	0.623661
H616	H	0.677703	0.592398	-0.073036
H617	H	1.011037	0.925731	0.260297
H618	H	1.344370	1.259065	0.593631
H619	H	0.741539	0.617009	-0.057426
H620	H	1.074872	0.950343	0.275907
H621	H	1.408205	1.283676	0.609240
H622	H	0.690319	0.647622	-0.033296
H623	H	1.023652	0.980955	0.300037
H624	H	1.356985	1.314288	0.633370
H625	H	-0.067947	-0.184708	0.000046
H626	H	0.265386	0.148625	0.333380
H627	H	0.598720	0.481959	0.666713
H628	H	0.477335	-0.155012	0.625747
H629	H	0.810668	0.178321	0.959080
H630	H	1.144002	0.511654	1.292414
H631	H	0.493213	0.165279	0.000061
H632	H	0.826546	0.498612	0.333394
H633	H	1.159879	0.831945	0.666728
H634	H	0.477310	-0.155018	0.374362
H635	H	0.810644	0.178315	0.707696
H636	H	1.143977	0.511649	1.041029
H637	H	0.494146	0.073812	0.000057
H638	H	0.827480	0.407145	0.333390
H639	H	1.160813	0.740478	0.666724
H640	H	0.412743	-0.145454	0.000021
H641	H	0.746076	0.187879	0.333354
H642	H	1.079410	0.521213	0.666687
O643	O	0.062611	0.069391	0.000058
O644	O	0.395944	0.402724	0.333392
O645	O	0.729277	0.736058	0.666725
C646	C	0.034915	0.108627	0.000077
C647	C	0.368248	0.441960	0.333411
C648	C	0.701581	0.775294	0.666744
H649	H	-0.002806	0.096065	-0.015626
H650	H	0.330528	0.429398	0.317708
H651	H	0.663861	0.762732	0.651041
H652	H	0.053731	0.139312	-0.024007
H653	H	0.387065	0.472646	0.309326
H654	H	0.720398	0.805979	0.642660
H655	H	0.031423	0.122231	0.039879
H656	H	0.364756	0.455565	0.373212
H657	H	0.698090	0.788898	0.706546
H658	H	0.663720	0.031258	0.374345
H659	H	0.997053	0.364592	0.707679
H660	H	1.330386	0.697925	1.041012
O661	O	0.635724	0.003350	0.129959
O662	O	0.969057	0.336683	0.463293
O663	O	1.302390	0.670017	0.796626
C664	C	0.628587	-0.003710	0.078271
C665	C	0.961921	0.329624	0.411604
C666	C	1.295254	0.662957	0.744938
H667	H	0.610310	-0.042291	0.071119
H668	H	0.943643	0.291042	0.404453
H669	H	1.276977	0.624375	0.737786
H670	H	0.665214	0.002019	0.058392
H671	H	0.998548	0.335353	0.391726
H672	H	1.331881	0.668686	0.725059
H673	H	0.604468	0.023433	0.063505
H674	H	0.937802	0.356767	0.396838
H675	H	1.271135	0.690100	0.730172
O676	O	0.177676	-0.194189	0.000056
O677	O	0.511010	0.139145	0.333389
O678	O	0.844343	0.472478	0.666722
C679	C	0.139240	-0.232752	0.000040
C680	C	0.472573	0.100582	0.333374
C681	C	0.805907	0.433915	0.666707
H682	H	0.105088	-0.219458	0.015746
H683	H	0.438422	0.113875	0.349079
H684	H	0.771755	0.447209	0.682413
H685	H	0.149542	-0.263732	0.024125
H686	H	0.482876	0.069601	0.357458
H687	H	0.816209	0.402934	0.690791
H688	H	0.132009	-0.246248	-0.039760
H689	H	0.465342	0.087085	0.293573
H690	H	0.798675	0.420419	0.626906
O691	O	0.668975	0.036482	0.473094
O692	O	1.002308	0.369816	0.806428
O693	O	1.335642	0.703149	1.139761
C694	C	0.698188	0.065695	0.438839
C695	C	1.031522	0.399028	0.772172
C696	C	1.364855	0.732361	1.105505
H697	H	0.698573	0.045874	0.401617
H698	H	1.031906	0.379207	0.734950
H699	H	1.365240	0.712541	1.068284
H700	H	0.736850	0.073333	0.453913
H701	H	1.070183	0.406667	0.787246
H702	H	1.403517	0.740000	1.120579
H703	H	0.682766	0.101498	0.433286
H704	H	1.016100	0.434831	0.766620
H705	H	1.349433	0.768165	1.099953
H706	H	0.083302	-0.186251	0.000038
H707	H	0.416636	0.147083	0.333372
H708	H	0.749969	0.480416	0.666705
H709	H	0.630630	-0.001822	0.771211
H710	H	0.963964	0.331511	1.104544
H711	H	1.297297	0.664844	1.437877
O712	O	-0.298760	-0.145116	0.000073
O713	O	0.034573	0.188217	0.333407
O714	O	0.367906	0.521550	0.666740
C715	C	-0.347355	-0.135150	0.000062
C716	C	-0.014022	0.198183	0.333395
C717	C	0.319311	0.531516	0.666728
H718	H	-0.349006	-0.097197	0.015769
H719	H	-0.015673	0.236136	0.349102
H720	H	0.317661	0.569470	0.682436
H721	H	-0.370407	-0.163104	0.024146
H722	H	-0.037074	0.170229	0.357480
H723	H	0.296260	0.503562	0.690813
H724	H	-0.361948	-0.137091	-0.039738
H725	H	-0.028615	0.196243	0.293595
H726	H	0.304718	0.529576	0.626929
O727	O	0.661101	0.092968	0.000056
O728	O	0.994434	0.426302	0.333389
O729	O	1.327767	0.759635	0.666723
C730	C	0.699668	0.131401	0.000070
C731	C	1.033001	0.464734	0.333403
C732	C	1.366334	0.798067	0.666736
H733	H	0.686380	0.165552	-0.015640
H734	H	1.019713	0.498885	0.317693
H735	H	1.353046	0.832219	0.651026
H736	H	0.730649	0.121091	-0.024011
H737	H	1.063983	0.454424	0.309322
H738	H	1.397316	0.787758	0.642655
H739	H	0.713160	0.138637	0.039870
H740	H	1.046494	0.471970	0.373204
H741	H	1.379827	0.805304	0.706537
H742	H	0.653168	0.187348	0.000063
H743	H	0.986501	0.520681	0.333397
H744	H	1.319835	0.854015	0.666730
O745	O	0.340296	0.022361	0.000120
O746	O	0.673629	0.355695	0.333454
O747	O	1.006962	0.689028	0.666787
C748	C	0.311512	0.025296	0.043097
C749	C	0.644845	0.358630	0.376431
C750	C	0.978179	0.691963	0.709764
H751	H	0.298674	-0.012900	0.057416
H752	H	0.632008	0.320433	0.390750
H753	H	0.965341	0.653767	0.724083
H754	H	0.278637	0.044317	0.033444
H755	H	0.611970	0.377650	0.366777
H756	H	0.945304	0.710984	0.700111
H757	H	0.333948	0.046845	0.073184
H758	H	0.667282	0.380178	0.406517
H759	H	1.000615	0.713511	0.739851
H760	H	0.510457	-0.121917	0.771232
H761	H	0.843791	0.211416	1.104565
H762	H	1.177124	0.544749	1.437899
O763	O	-0.274614	0.028683	0.000094
O764	O	0.058719	0.362016	0.333428
O765	O	0.392053	0.695349	0.666761
C766	C	-0.236179	0.067248	0.000088
C767	C	0.097154	0.400581	0.333422
C768	C	0.430487	0.733914	0.666755
H769	H	-0.202029	0.053953	0.015792
H770	H	0.131304	0.387286	0.349125
H771	H	0.464637	0.720620	0.682458
H772	H	-0.246487	0.098223	0.024179
H773	H	0.086846	0.431556	0.357512
H774	H	0.420179	0.764890	0.690845
H775	H	-0.228943	0.080752	-0.039709
H776	H	0.104391	0.414085	0.293624
H777	H	0.437724	0.747419	0.626957
O778	O	-0.175269	0.027601	0.000007
O779	O	0.158064	0.360934	0.333340
O780	O	0.491398	0.694268	0.666674
C781	C	-0.145749	0.029956	-0.042965
C782	C	0.187584	0.363289	0.290368
C783	C	0.520917	0.696622	0.623702
H784	H	-0.143471	-0.008390	-0.057292
H785	H	0.189862	0.324943	0.276042
H786	H	0.523195	0.658276	0.609375
H787	H	-0.107726	0.048258	-0.033302
H788	H	0.225608	0.381592	0.300031
H789	H	0.558941	0.714925	0.633365
H790	H	-0.162180	0.051903	-0.073050
H791	H	0.171153	0.385237	0.260284
H792	H	0.504487	0.718570	0.593617
H793	H	0.117558	0.061861	0.000088
H794	H	0.450892	0.395195	0.333421
H795	H	0.784225	0.728528	0.666755
O796	O	0.213910	0.067826	-0.000001
O797	O	0.547243	0.401159	0.333332
O798	O	0.880576	0.734492	0.666665
C799	C	0.205282	0.094779	-0.042955
C800	C	0.538616	0.428112	0.290379
C801	C	0.871949	0.761445	0.623712
H802	H	0.187864	0.069132	-0.072988
H803	H	0.521198	0.402465	0.260345
H804	H	0.854531	0.735799	0.593678
H805	H	0.241196	0.114440	-0.057376
H806	H	0.574529	0.447774	0.275957
H807	H	0.907863	0.781107	0.609291
H808	H	0.179811	0.122558	-0.033234
H809	H	0.513145	0.455891	0.300100
H810	H	0.846478	0.789224	0.633433
O811	O	0.702827	0.330962	0.000042
O812	O	1.036160	0.664295	0.333375
O813	O	1.369494	0.997629	0.666709
C814	C	0.741390	0.369399	0.000057
C815	C	1.074724	0.702732	0.333390
C816	C	1.408057	1.036065	0.666724
H817	H	0.728098	0.403549	-0.015651
H818	H	1.061431	0.736882	0.317683
H819	H	1.394764	1.070215	0.651016
H820	H	0.772373	0.359094	-0.024026
H821	H	1.105706	0.692427	0.309307
H822	H	1.439040	1.025761	0.642641
H823	H	0.754883	0.376634	0.039858
H824	H	1.088217	0.709967	0.373191
H825	H	1.421550	1.043300	0.706524
O826	O	0.701762	0.430274	-0.000029
O827	O	1.035095	0.763608	0.333305
O828	O	1.368429	1.096941	0.666638
C829	C	0.704116	0.459812	-0.042986
C830	C	1.037449	0.793145	0.290347
C831	C	1.370783	1.126478	0.623681
H832	H	0.679260	0.441173	-0.073022
H833	H	1.012593	0.774506	0.260311
H834	H	1.345927	1.107840	0.593645
H835	H	0.743100	0.465757	-0.057400
H836	H	1.076433	0.799090	0.275933
H837	H	1.409767	1.132424	0.609267
H838	H	0.691892	0.496389	-0.033273
H839	H	1.025225	0.829722	0.300060
H840	H	1.358559	1.163055	0.633394
