data_functionalizedCrystal
_audit_creation_method	'MofGen! by Chris Wilmer'
_symmetry_space_group_name_H-M	'P1'
_symmetry_Int_Tables_number	1
_symmetry_cell_setting	triclinic
loop_
_symmetry_equiv_pos_as_xyz
  x,y,z
_cell_length_a	18.215407
_cell_length_b	16.625546
_cell_length_c	18.215399
_cell_angle_alpha	90.029176
_cell_angle_beta	90.019833
_cell_angle_gamma	90.022916
loop_
_atom_site_label
_atom_site_type_symbol
_atom_site_fract_x
_atom_site_fract_y
_atom_site_fract_z
Zn1	Zn	1.125084	-0.321000	0.416110
Zn2	Zn	1.625084	0.179000	0.916110
Zn3	Zn	1.124998	-0.455841	0.293041
Zn4	Zn	1.624998	0.044159	0.793041
Zn5	Zn	1.002017	-0.321027	0.293057
Zn6	Zn	1.502017	0.178973	0.793057
Zn7	Zn	1.001988	-0.455796	0.416066
Zn8	Zn	1.501988	0.044204	0.916066
O9	O	1.063522	-0.388416	0.354568
O10	O	1.563522	0.111584	0.854568
O11	O	1.228057	-0.338895	0.399796
O12	O	1.728057	0.161105	0.899796
O13	O	1.108660	-0.437987	0.190059
O14	O	1.608660	0.062013	0.690059
O15	O	1.018390	-0.208191	0.309405
O16	O	1.518390	0.291809	0.809405
O17	O	1.227994	-0.437961	0.309378
O18	O	1.727994	0.062039	0.809378
O19	O	1.108807	-0.208171	0.399812
O20	O	1.608807	0.291829	0.899812
O21	O	1.018307	-0.338940	0.190070
O22	O	1.518307	0.161060	0.690070
O23	O	0.899029	-0.338896	0.309363
O24	O	1.399029	0.161104	0.809363
O25	O	1.018341	-0.437885	0.519056
O26	O	1.518341	0.062115	1.019056
O27	O	0.899008	-0.437910	0.399737
O28	O	1.399008	0.062090	0.899737
O29	O	1.108779	-0.338851	0.519088
O30	O	1.608779	0.161149	1.019088
O31	O	1.108632	-0.568667	0.309335
O32	O	1.608632	-0.068667	0.809335
O33	O	1.018257	-0.568634	0.399721
O34	O	1.518257	-0.068634	0.899721
C35	C	0.872315	-0.388402	0.354547
C36	C	1.372315	0.111598	0.854547
C37	C	0.790517	-0.388415	0.354556
C38	C	1.290517	0.111585	0.854556
C39	C	0.602331	-0.440053	0.401554
C40	C	1.102331	0.059947	0.901554
C41	C	0.525472	-0.440056	0.401563
C42	C	1.025472	0.059944	0.901563
C43	C	0.525465	-0.336793	0.307598
C44	C	1.025465	0.163207	0.807598
C45	C	0.602322	-0.336787	0.307593
C46	C	1.102322	0.163213	0.807593
C47	C	0.640753	-0.388422	0.354570
C48	C	1.140753	0.111578	0.854570
C49	C	0.487037	-0.388430	0.354584
C50	C	0.987037	0.111570	0.854584
C51	C	0.403703	-0.388433	0.354594
C52	C	0.903703	0.111567	0.854594
C53	C	0.724092	-0.388418	0.354562
C54	C	1.224092	0.111582	0.854562
C55	C	1.063452	-0.597907	0.354537
C56	C	1.563452	-0.097907	0.854537
C57	C	1.063490	-0.687528	0.354549
C58	C	1.563490	-0.187528	0.854549
C59	C	1.063618	-1.015703	0.354625
C60	C	1.563618	-0.515703	0.854625
C61	C	1.063580	-0.924395	0.354606
C62	C	1.563580	-0.424395	0.854606
C63	C	1.063553	-0.851618	0.354587
C64	C	1.563553	-0.351618	0.854587
C65	C	1.063516	-0.760304	0.354568
C66	C	1.563516	-0.260304	0.854568
C67	C	1.255475	-0.388430	0.354590
C68	C	1.755475	0.111570	0.854590
C69	C	1.337274	-0.388436	0.354599
C70	C	1.837274	0.111564	0.854599
C71	C	1.063567	-0.388360	0.546521
C72	C	1.563567	0.111640	1.046521
C73	C	1.063586	-0.388336	0.628320
C74	C	1.563586	0.111664	1.128320
C75	C	1.063612	-0.178107	0.354615
C76	C	1.563612	0.321893	0.854615
C77	C	1.063650	-0.088486	0.354635
C78	C	1.563650	0.411514	0.854635
C79	C	1.063519	-0.388413	0.163362
C80	C	1.563519	0.111587	0.663362
C81	C	1.063643	-0.388209	0.081563
C82	C	1.563643	0.111791	0.581563
C83	C	1.110694	-0.336721	0.816532
C84	C	1.610694	0.163279	1.316532
C85	C	1.110703	-0.336698	0.893391
C86	C	1.610703	0.163302	1.393391
C87	C	1.016530	-0.439827	0.893346
C88	C	1.516530	0.060173	1.393346
C89	C	1.016518	-0.439846	0.816489
C90	C	1.516518	0.060154	1.316489
C91	C	1.063604	-0.388294	0.778084
C92	C	1.563604	0.111706	1.278084
C93	C	1.063625	-0.388252	0.931800
C94	C	1.563625	0.111748	1.431800
C95	C	1.063634	-0.388227	1.015134
C96	C	1.563634	0.111773	1.515134
C97	C	1.063594	-0.388318	0.694745
C98	C	1.563594	0.111682	1.194745
H99	H	0.494192	-0.482098	0.439823
H100	H	0.994192	0.017902	0.939823
H101	H	0.978166	-0.481842	0.785183
H102	H	1.478166	0.018158	1.285183
H103	H	1.149047	-0.294701	0.924692
H104	H	1.649047	0.205299	1.424692
H105	H	1.149033	-0.294743	0.785265
H106	H	1.649033	0.205257	1.285265
C107	C	0.644602	-0.496847	0.453235
C108	C	1.144602	0.003153	0.953235
N109	N	0.676439	-0.539623	0.492166
N110	N	1.176439	-0.039623	0.992166
C111	C	0.644589	-0.279985	0.255905
C112	C	1.144589	0.220015	0.755905
N113	N	0.676424	-0.237203	0.216975
N114	N	1.176424	0.262797	0.716975
C115	C	0.964736	-0.496529	0.935599
C116	C	1.464736	0.003471	1.435599
N117	N	0.925724	-0.539238	0.967423
N118	N	1.425724	-0.039238	1.467423
H119	H	0.494165	-0.294755	0.269350
H120	H	0.994165	0.205245	0.769350
