data_functionalizedCrystal
_audit_creation_method	'MofGen! by Chris Wilmer'
_symmetry_space_group_name_H-M	'P1'
_symmetry_Int_Tables_number	1
_symmetry_cell_setting	triclinic
loop_
_symmetry_equiv_pos_as_xyz
  x,y,z
_cell_length_a	10.654554
_cell_length_b	14.971486
_cell_length_c	13.448316
_cell_angle_alpha	90.006811
_cell_angle_beta	89.993822
_cell_angle_gamma	95.949564
loop_
_atom_site_label
_atom_site_type_symbol
_atom_site_fract_x
_atom_site_fract_y
_atom_site_fract_z
O1	O	1.666494	-0.125652	-0.082680
O2	O	2.166494	0.374348	0.417320
O3	O	1.300888	-0.137617	-0.082685
O4	O	1.800888	0.362383	0.417315
O5	O	1.493490	-0.001488	-0.082675
O6	O	1.993490	0.498512	0.417325
O7	O	1.473892	-0.261781	-0.082690
O8	O	1.973892	0.238219	0.417310
O9	O	1.493466	-0.001480	0.082709
O10	O	1.993466	0.498520	0.582709
O11	O	1.300863	-0.137609	0.082699
O12	O	1.800863	0.362391	0.582699
O13	O	1.666470	-0.125644	0.082704
O14	O	2.166470	0.374356	0.582704
Cu15	Cu	1.483664	-0.131625	0.097802
Cu16	Cu	1.983664	0.368375	0.597802
Cu17	Cu	1.483693	-0.131636	-0.097783
Cu18	Cu	1.983693	0.368364	0.402217
O19	O	1.473867	-0.261773	0.082694
O20	O	1.973867	0.238227	0.582694
C21	C	1.254087	-0.136734	0.000007
C22	C	1.754087	0.363266	0.500007
C23	C	1.114672	-0.134103	0.000005
C24	C	1.614672	0.365897	0.500005
C25	C	1.492601	0.031846	0.000016
C26	C	1.992601	0.531846	0.500016
C27	C	1.489975	0.131157	0.000016
C28	C	1.989975	0.631157	0.500016
C29	C	1.713270	-0.126527	0.000010
C30	C	2.213270	0.373473	0.500010
C31	C	1.852685	-0.129158	0.000005
C32	C	2.352685	0.370842	0.500005
C33	C	2.064027	-0.051477	0.000013
C34	C	2.564027	0.448523	0.500013
C35	C	1.933032	-0.049004	0.000009
C36	C	2.433032	0.450996	0.500009
C37	C	1.903339	-0.211791	-0.000005
C38	C	2.403339	0.288209	0.499995
C39	C	2.034331	-0.214263	-0.000009
C40	C	2.534331	0.285737	0.499991
C41	C	2.081169	0.042507	0.000025
C42	C	2.581169	0.542507	0.500025
C43	C	1.950174	0.044980	0.000022
C44	C	2.450174	0.544980	0.500022
C45	C	1.474756	-0.295107	0.000000
C46	C	1.974756	0.204893	0.500000
C47	C	1.477382	-0.394418	-0.000005
C48	C	1.977382	0.105582	0.499995
N49	N	1.483653	-0.131618	0.235367
N50	N	1.983653	0.368382	0.735367
C51	C	1.603123	0.187765	0.000018
C52	C	2.103123	0.687765	0.500018
C53	C	1.600648	0.281078	0.000008
C54	C	2.100648	0.781078	0.500008
C55	C	1.485023	0.317781	0.000003
C56	C	1.985023	0.817781	0.500003
C57	C	1.371865	0.261165	-0.000003
C58	C	1.871865	0.761165	0.499997
C59	C	1.374342	0.167854	0.000000
C60	C	1.874342	0.667854	0.500000
C61	C	1.366711	0.455656	-0.000006
C62	C	1.866711	0.955656	0.499994
C63	C	1.364234	0.548974	-0.000007
C64	C	1.864234	1.048974	0.499993
C65	C	1.593017	0.568880	0.000001
C66	C	2.093017	1.068880	0.500001
C67	C	1.595494	0.475569	0.000004
C68	C	2.095494	0.975569	0.500004
C69	C	1.482336	0.418960	0.000001
C70	C	1.982336	0.918960	0.500001
N71	N	1.483714	-0.131636	-0.235348
N72	N	1.983714	0.368364	0.264652
C73	C	1.568964	-0.071365	0.287411
C74	C	2.068964	0.428635	0.787411
C75	C	1.568972	-0.071364	0.391514
C76	C	2.068972	0.428636	0.891514
C77	C	1.483674	-0.131621	0.443571
C78	C	1.983674	0.368379	0.943571
C79	C	1.398354	-0.191877	0.391519
C80	C	1.898354	0.308123	0.891519
C81	C	1.398341	-0.191873	0.287418
C82	C	1.898341	0.308127	0.787418
C83	C	1.398389	-0.191883	0.608499
C84	C	1.898389	0.308117	1.108499
C85	C	1.398403	-0.191889	0.712608
C86	C	1.898403	0.308111	1.212608
C87	C	1.569020	-0.071375	0.712596
C88	C	2.069020	0.428625	1.212596
C89	C	1.569007	-0.071370	0.608495
C90	C	2.069007	0.428630	1.108495
C91	C	1.483688	-0.131628	0.556450
C92	C	1.983688	0.368372	1.056450
H93	H	2.075561	-0.281544	-0.000032
H94	H	2.575561	0.218456	0.499968
F95	F	1.912295	0.093033	0.090482
F96	F	2.412295	0.593033	0.590482
H97	H	1.914874	0.074911	-0.071385
H98	H	2.414874	0.574911	0.428615
F99	F	1.307538	-0.256000	0.232030
F100	F	1.807538	0.244000	0.732030
H101	H	1.697279	0.157890	0.000028
H102	H	2.197279	0.657890	0.500028
F103	F	1.307578	-0.256014	0.553114
F104	F	1.807578	0.243986	1.053114
H105	H	1.638488	-0.022311	0.754977
H106	H	2.138488	0.477689	1.254977
H107	H	2.123305	0.077919	-0.069183
H108	H	2.623305	0.577919	0.430817
H109	H	1.692785	0.327166	0.000012
H110	H	2.192785	0.827166	0.500012
H111	H	1.837909	-0.277054	-0.000017
H112	H	2.337909	0.222946	0.499983
F113	F	1.307615	-0.256022	0.768003
F114	F	1.807615	0.243978	1.268003
F115	F	1.718555	0.436509	0.000007
F116	F	2.218555	0.936509	0.500007
H117	H	1.638429	-0.022300	0.245033
H118	H	2.138429	0.477700	0.745033
F119	F	2.141225	0.079621	0.093363
F120	F	2.641225	0.579621	0.593363
H121	H	1.638469	-0.022309	0.566110
H122	H	2.138469	0.477691	1.066110
F123	F	1.713449	0.629128	0.000000
F124	F	2.213449	1.129128	0.500000
F125	F	1.241173	0.588033	-0.000012
F126	F	1.741173	1.088033	0.499988
H127	H	1.274566	0.409567	-0.000012
H128	H	1.774566	0.909567	0.499988
H129	H	1.638437	-0.022301	0.433889
H130	H	2.138437	0.477699	0.933889
H131	H	1.282205	0.121764	-0.000002
H132	H	1.782205	0.621764	0.499998
F133	F	1.248808	0.300230	-0.000019
F134	F	1.748808	0.800230	0.499981
H135	H	1.328897	-0.240937	0.433910
H136	H	1.828897	0.259063	0.933910
