data_functionalizedCrystal
_audit_creation_method	'MofGen! by Chris Wilmer'
_symmetry_space_group_name_H-M	'P1'
_symmetry_Int_Tables_number	1
_symmetry_cell_setting	triclinic
loop_
_symmetry_equiv_pos_as_xyz
  x,y,z
_cell_length_a	6.817900
_cell_length_b	19.551823
_cell_length_c	10.992410
_cell_angle_alpha	94.485119
_cell_angle_beta	108.764651
_cell_angle_gamma	101.663376
loop_
_atom_site_label
_atom_site_type_symbol
_atom_site_fract_x
_atom_site_fract_y
_atom_site_fract_z
V1	V	-4.078420	-0.096675	-0.401194
O2	O	-4.074098	0.004646	-0.392939
O3	O	-4.020787	-0.191690	-0.399044
O4	O	-4.056564	-0.095188	-0.575897
O5	O	-4.038073	-0.092525	-0.214862
V6	V	-4.559806	-0.084556	-0.378835
O7	O	-4.344369	-0.123259	-0.450240
O8	O	-4.744055	-0.057972	-0.329788
O9	O	-4.394233	0.010459	-0.380984
O10	O	-4.681525	-0.185876	-0.387090
O11	O	-4.717550	-0.088706	-0.565167
O12	O	-4.358456	-0.086043	-0.204132
C13	C	-3.862682	-0.214853	-0.392869
C14	C	-3.897024	-0.292529	-0.392276
C15	C	-4.095899	-0.332575	-0.398422
C16	C	-4.128173	-0.405561	-0.397879
C17	C	-3.961548	-0.438496	-0.391162
C18	C	-3.762648	-0.398442	-0.385022
C19	C	-3.730386	-0.325458	-0.385579
C20	C	-3.835941	-0.544984	-0.309690
C21	C	-3.868206	-0.617965	-0.309125
C22	C	-4.061050	-0.663602	-0.389449
C23	C	-4.221650	-0.636247	-0.470323
C24	C	-4.189388	-0.563263	-0.470880
C25	C	-3.996510	-0.517634	-0.390558
C26	C	-4.294934	-0.782788	-0.395008
C27	C	-4.327205	-0.855776	-0.394472
C28	C	-3.961667	-0.848654	-0.381602
C29	C	-3.929408	-0.775669	-0.382152
C30	C	-4.096046	-0.742740	-0.388849
C31	C	-3.908318	-0.091754	-0.618460
C32	C	-3.971670	-0.091166	-0.761285
C33	C	-3.840776	-0.085817	-0.956375
C34	C	-3.774892	-0.086717	-0.807897
C35	C	-4.144154	-0.160061	-0.838817
C36	C	-4.208693	-0.159452	-0.987380
C37	C	-4.135899	-0.026047	-0.948519
C38	C	-4.065311	-0.025720	-0.799504
C39	C	-4.215678	0.033618	-0.387156
C40	C	-4.160576	0.111294	-0.387757
C41	C	-4.170042	-0.089479	-0.161562
C42	C	-4.085929	-0.090063	-0.018736
H43	H	-3.568436	-0.292853	-0.380575
C44	C	-3.897311	0.043132	-0.728356
H45	H	-3.770629	0.032047	-0.675570
H46	H	-3.866421	0.070660	-0.790353
H47	H	-3.951229	0.069159	-0.675223
H48	H	-3.626984	-0.425262	-0.379556
C49	C	-4.257674	-0.024616	-0.755559
H50	H	-4.283524	-0.064235	-0.713149
H51	H	-4.227973	0.017670	-0.697155
H52	H	-4.380227	-0.026619	-0.829275
C53	C	-3.599120	-0.019803	-0.735417
H54	H	-3.567422	0.008176	-0.796661
H55	H	-3.647164	0.006682	-0.679448
H56	H	-3.474300	-0.032987	-0.685447
C57	C	-3.707403	-0.018441	-0.981404
H58	H	-3.800026	0.007703	-1.030117
H59	H	-3.617552	0.009665	-0.900693
H60	H	-3.622372	-0.031128	-1.028879
H61	H	-3.737440	-0.640231	-0.243265
C62	C	-4.346942	-0.449619	-0.404629
H63	H	-4.441558	-0.419553	-0.408689
H64	H	-4.403675	-0.484624	-0.479986
H65	H	-4.330554	-0.471849	-0.329353
C66	C	-4.344415	-0.167836	-0.799947
H67	H	-4.446620	-0.209828	-0.847975
H68	H	-4.306521	-0.170262	-0.709609
H69	H	-4.403670	-0.128217	-0.818297
C70	C	-4.376427	-0.029423	-1.003715
H71	H	-4.446125	-0.069625	-1.069230
H72	H	-4.434247	-0.032893	-0.935873
H73	H	-4.397296	0.012162	-1.040123
C74	C	-3.778372	-0.884873	-0.374200
H75	H	-3.826061	-0.934074	-0.374738
H76	H	-3.734508	-0.877834	-0.446952
H77	H	-3.661466	-0.865063	-0.296322
H78	H	-4.320154	-0.540994	-0.536731
C79	C	-3.784048	-0.147953	-1.021582
H80	H	-3.909118	-0.176474	-1.086642
H81	H	-3.681896	-0.130158	-1.060248
H82	H	-3.726167	-0.175573	-0.958079
H83	H	-3.700429	-0.133352	-0.783372
H84	H	-3.678891	-0.507832	-0.244285
C85	C	-4.433766	-0.686438	-0.558705
H86	H	-4.429972	-0.733824	-0.546811
H87	H	-4.548275	-0.674816	-0.536883
H88	H	-4.453885	-0.681650	-0.646959
C89	C	-4.058033	-0.225708	-0.804644
H90	H	-4.163580	-0.267137	-0.852049
H91	H	-3.933408	-0.223586	-0.826705
H92	H	-4.024009	-0.226903	-0.714088
H93	H	-4.175167	-0.207924	-1.033951
C94	C	-4.023054	0.044630	-0.975569
H95	H	-3.944398	0.035755	-1.029944
H96	H	-4.126485	0.069133	-1.017683
H97	H	-3.928605	0.072598	-0.895757
C98	C	-4.279208	-0.296359	-0.405820
H99	H	-4.402284	-0.330667	-0.409418
H100	H	-4.237704	-0.261648	-0.331002
H101	H	-4.310755	-0.274426	-0.481632
C102	C	-4.478221	-0.746563	-0.402374
H103	H	-4.601299	-0.780870	-0.405972
H104	H	-4.436684	-0.711860	-0.327540
H105	H	-4.509780	-0.724619	-0.478173
H106	H	-4.489161	-0.888381	-0.399486
H107	H	-3.767460	-0.743062	-0.377138
H108	H	-4.388475	-0.165443	-1.030049
