data_functionalizedCrystal
_audit_creation_method	'MofGen! by Chris Wilmer'
_symmetry_space_group_name_H-M	'P1'
_symmetry_Int_Tables_number	1
_symmetry_cell_setting	triclinic
loop_
_symmetry_equiv_pos_as_xyz
  x,y,z
_cell_length_a	17.640112
_cell_length_b	12.594516
_cell_length_c	12.594509
_cell_angle_alpha	90.024652
_cell_angle_beta	78.825183
_cell_angle_gamma	101.240082
loop_
_atom_site_label
_atom_site_type_symbol
_atom_site_fract_x
_atom_site_fract_y
_atom_site_fract_z
Zn1	Zn	1.208346	-0.094434	0.273404
Zn2	Zn	1.708346	0.405566	0.773404
Zn3	Zn	1.208264	-0.272461	0.095454
Zn4	Zn	1.708264	0.227539	0.595454
Zn5	Zn	1.076172	-0.130494	0.131362
Zn6	Zn	1.576172	0.369506	0.631362
Zn7	Zn	1.076160	-0.308393	0.309295
Zn8	Zn	1.576160	0.191607	0.809295
O9	O	1.142236	-0.201446	0.202379
O10	O	1.642236	0.298554	0.702379
O11	O	1.318936	-0.087920	0.219750
O12	O	1.818936	0.412080	0.719750
O13	O	1.190713	-0.253683	-0.048721
O14	O	1.690713	0.246317	0.451279
O15	O	1.093745	0.023246	0.150212
O16	O	1.593745	0.523246	0.650212
O17	O	1.318876	-0.218717	0.089011
O18	O	1.818876	0.281283	0.589011
O19	O	1.190852	0.049739	0.254569
O20	O	1.690852	0.549739	0.754569
O21	O	1.093666	-0.149381	-0.022339
O22	O	1.593666	0.350619	0.477661
O23	O	0.965570	-0.184222	0.185013
O24	O	1.465570	0.315778	0.685013
O25	O	1.093724	-0.279957	0.453472
O26	O	1.593724	0.220043	0.953472
O27	O	0.965560	-0.314924	0.315740
O28	O	1.465560	0.185076	0.815740
O29	O	1.190840	-0.122762	0.427103
O30	O	1.690840	0.377238	0.927103
O31	O	1.190701	-0.426184	0.123813
O32	O	1.690701	0.073816	0.623813
O33	O	1.093644	-0.452583	0.280921
O34	O	1.593644	0.047417	0.780921
C35	C	0.936887	-0.257386	0.258168
C36	C	1.436887	0.242614	0.758168
C37	C	0.849038	-0.281343	0.282060
C38	C	1.349038	0.218657	0.782060
C39	C	0.560029	-0.019428	0.020880
C40	C	1.060029	0.480572	0.520880
C41	C	0.477481	-0.041961	0.043345
C42	C	0.977481	0.458039	0.543345
C43	C	0.477526	-0.178248	0.179236
C44	C	0.977526	0.321752	0.679236
C45	C	0.560075	-0.155723	0.156786
C46	C	1.060075	0.344277	0.656786
C47	C	0.601320	-0.076313	0.077606
C48	C	1.101320	0.423687	0.577606
C49	C	0.601366	-0.212607	0.213512
C50	C	1.101366	0.287393	0.713512
C51	C	0.683908	-0.190088	0.191060
C52	C	1.183908	0.309912	0.691060
C53	C	0.725159	-0.110683	0.111881
C54	C	1.225159	0.389317	0.611881
C55	C	0.683862	-0.053793	0.055154
C56	C	1.183862	0.446207	0.555154
C57	C	0.560120	-0.292022	0.292686
C58	C	1.060120	0.207978	0.792686
C59	C	0.601411	-0.348907	0.349411
C60	C	1.101411	0.151093	0.849411
C61	C	0.683955	-0.326382	0.326965
C62	C	1.183955	0.173618	0.826965
C63	C	0.725205	-0.246978	0.247787
C64	C	1.225205	0.253022	0.747787
C65	C	0.725252	-0.383273	0.383692
C66	C	1.225252	0.116727	0.883692
C67	C	0.807794	-0.360753	0.361240
C68	C	1.307794	0.139247	0.861240
C69	C	0.807747	-0.224458	0.225335
C70	C	1.307747	0.275542	0.725335
C71	C	1.142184	-0.478001	0.202382
C72	C	1.642184	0.021999	0.702382
C73	C	1.142234	-0.596293	0.202400
C74	C	1.642234	-0.096293	0.702400
C75	C	1.089440	-0.679944	0.287802
C76	C	1.589440	-0.179944	0.787802
C77	C	1.070182	-0.756055	0.195914
C78	C	1.570182	-0.256055	0.695914
C79	C	1.161563	-0.730961	0.294285
C80	C	1.661563	-0.230961	0.794285
C81	C	1.122938	-0.670856	0.110470
C82	C	1.622938	-0.170856	0.610470
C83	C	1.214353	-0.645746	0.208898
C84	C	1.714353	-0.145746	0.708898
C85	C	1.195123	-0.721818	0.116935
C86	C	1.695123	-0.221818	0.616935
C87	C	1.348386	-0.145288	0.146372
C88	C	1.848386	0.354712	0.646372
C89	C	1.436235	-0.121357	0.122505
C90	C	1.936235	0.378643	0.622505
C91	C	1.142290	-0.201345	0.479985
C92	C	1.642290	0.298655	0.979985
C93	C	1.142313	-0.201303	0.598284
C94	C	1.642313	0.298697	1.098284
C95	C	1.142309	0.076195	0.202392
C96	C	1.642309	0.576195	0.702392
C97	C	1.142340	0.194509	0.202398
C98	C	1.642340	0.694509	0.702398
C99	C	1.142227	-0.201457	-0.074160
C100	C	1.642227	0.298543	0.425840
C101	C	1.142357	-0.201158	-0.192500
C102	C	1.642357	0.298842	0.307500
C103	C	1.089524	-0.286703	0.752634
C104	C	1.589524	0.213297	1.252634
C105	C	1.070200	-0.194904	0.687082
C106	C	1.570200	0.305096	1.187082
C107	C	1.161601	-0.293101	0.662275
C108	C	1.661601	0.206899	1.162275
C109	C	1.122997	-0.109317	0.743515
C110	C	1.622997	0.390683	1.243515
C111	C	1.214430	-0.207570	0.718706
C112	C	1.714430	0.292430	1.218706
C113	C	1.195134	-0.115697	0.653178
C114	C	1.695134	0.384303	1.153178
H115	H	0.841414	-0.407073	0.407433
H116	H	1.341414	0.092927	0.907433
H117	H	1.275279	-0.597927	0.214438
H118	H	1.775279	-0.097927	0.714438
O119	O	1.183170	-0.766168	0.397211
O120	O	1.683170	-0.266168	0.897211
H121	H	1.139207	-0.749842	0.467968
H122	H	1.639207	-0.249842	0.967968
H123	H	0.717446	0.010887	-0.009306
H124	H	1.217446	0.510887	0.490694
H125	H	0.691658	-0.447936	0.448152
H126	H	1.191658	0.052064	0.948152
H127	H	0.443933	-0.242907	0.243701
H128	H	0.943933	0.257093	0.743701
O129	O	1.101323	-0.006393	0.790395
O130	O	1.601323	0.493607	1.290395
H131	H	1.041670	-0.001000	0.777545
H132	H	1.541670	0.499000	1.277545
O133	O	0.989442	-0.187811	0.667796
O134	O	1.489442	0.312189	1.167796
H135	H	0.949074	-0.185007	0.746728
H136	H	1.449074	0.314993	1.246728
H137	H	0.593613	0.045251	-0.043580
H138	H	1.093613	0.545251	0.456420
O139	O	1.030202	-0.654970	0.383381
O140	O	1.530202	-0.154970	0.883381
H141	H	1.031078	-0.566610	0.382958
H142	H	1.531078	-0.066610	0.882958
H143	H	1.044830	-0.358917	0.795848
H144	H	1.544830	0.141083	1.295848
H145	H	0.443865	0.004375	-0.002846
H146	H	0.943865	0.504375	0.497154
H147	H	1.239815	-0.740475	0.044643
H148	H	1.739815	-0.240475	0.544643
H149	H	1.239795	-0.043347	0.610171
H150	H	1.739795	0.456653	1.110171
O151	O	0.989457	-0.819371	0.188613
O152	O	1.489457	-0.319371	0.688613
H153	H	0.990389	-0.907236	0.187887
H154	H	1.490389	-0.407236	0.687887
O155	O	1.101240	-0.635857	0.007534
O156	O	1.601240	-0.135857	0.507534
H157	H	1.101334	-0.547706	0.008363
H158	H	1.601334	-0.047706	0.508363
H159	H	1.275383	-0.212975	0.733272
H160	H	1.775383	0.287025	1.233272
O161	O	1.183193	-0.396007	0.615232
O162	O	1.683193	0.103993	1.115232
H163	H	1.193419	-0.447546	0.680445
H164	H	1.693419	0.052454	1.180445
O165	O	0.852240	-0.138809	0.139931
O166	O	1.352240	0.361191	0.639931
H167	H	0.836407	-0.059614	0.162627
H168	H	1.336407	0.440386	0.662627
O169	O	0.814187	-0.086396	0.087653
O170	O	1.314187	0.413604	0.587653
H171	H	0.835964	-0.000199	0.103363
H172	H	1.335964	0.499801	0.603363
O173	O	0.471092	-0.316352	0.316918
O174	O	0.971092	0.183648	0.816918
H175	H	0.449316	-0.242055	0.344505
H176	H	0.949316	0.257945	0.844505
O177	O	0.556926	-0.434548	0.434816
O178	O	1.056926	0.065452	0.934816
H179	H	0.492591	-0.440647	0.440906
H180	H	0.992591	0.059353	0.940906
