data_functionalizedCrystal
_audit_creation_method	'MofGen! by Chris Wilmer'
_symmetry_space_group_name_H-M	'P1'
_symmetry_Int_Tables_number	1
_symmetry_cell_setting	triclinic
loop_
_symmetry_equiv_pos_as_xyz
  x,y,z
_cell_length_a	15.298206
_cell_length_b	16.959453
_cell_length_c	15.298431
_cell_angle_alpha	80.286783
_cell_angle_beta	107.350793
_cell_angle_gamma	80.358622
loop_
_atom_site_label
_atom_site_type_symbol
_atom_site_fract_x
_atom_site_fract_y
_atom_site_fract_z
Zn1	Zn	1.330707	-0.473851	-0.279354
Zn2	Zn	1.357505	-0.633688	-0.123845
Zn3	Zn	1.202097	-0.473899	-0.150810
Zn4	Zn	1.175179	-0.578352	-0.306271
O5	O	1.266372	-0.539948	-0.215070
O6	O	1.464389	-0.518192	-0.236175
O7	O	1.359370	-0.635670	0.002720
O8	O	1.219208	-0.363286	-0.167881
O9	O	1.484078	-0.635623	-0.121924
O10	O	1.313697	-0.363251	-0.262322
O11	O	1.245193	-0.518273	-0.017091
O12	O	1.068399	-0.464617	-0.193982
O13	O	1.173330	-0.541312	-0.432843
O14	O	1.048622	-0.541358	-0.308199
O15	O	1.287595	-0.464535	-0.413067
O16	O	1.333269	-0.736954	-0.148025
O17	O	1.199315	-0.696299	-0.282052
C18	C	1.024770	-0.496989	-0.256938
C19	C	0.921408	-0.478626	-0.274871
C20	C	0.862587	-0.408920	-0.342878
C21	C	0.765473	-0.391659	-0.359730
C22	C	0.727168	-0.444106	-0.308581
C23	C	0.785989	-0.513817	-0.240577
C24	C	0.883113	-0.531076	-0.223719
C25	C	0.747695	-0.566262	-0.189422
C26	C	0.806515	-0.635973	-0.121418
C27	C	0.903630	-0.653229	-0.104563
C28	C	0.941934	-0.600782	-0.155712
C29	C	0.650570	-0.549003	-0.206280
C30	C	0.671096	-0.671159	-0.087121
C31	C	0.768211	-0.688420	-0.070270
C32	C	1.266300	-0.745306	-0.215049
C33	C	1.266349	-0.833169	-0.215057
C34	C	1.315629	-1.204563	-0.264344
C35	C	1.217351	-1.204751	-0.165889
C36	C	1.217320	-1.122203	-0.165873
C37	C	1.266443	-1.080830	-0.215095
C38	C	1.315597	-1.122006	-0.264333
C39	C	1.168159	-1.081018	-0.116645
C40	C	1.168125	-0.998465	-0.116628
C41	C	1.217255	-0.957093	-0.165845
C42	C	1.266412	-0.998274	-0.215084
C43	C	1.315535	-0.956901	-0.264306
C44	C	1.364698	-0.998083	-0.313540
C45	C	1.364727	-1.080634	-0.313550
C46	C	1.217226	-0.874541	-0.165835
C47	C	1.315503	-0.874345	-0.264294
C48	C	1.508917	-0.583075	-0.173039
C49	C	1.612276	-0.601453	-0.155128
C50	C	1.224470	-0.496746	-0.457643
C51	C	1.206614	-0.478336	-0.561013
C52	C	1.266466	-0.333788	-0.215107
C53	C	1.266506	-0.245935	-0.215122
C54	C	1.138778	-0.408562	-0.619884
C55	C	1.121989	-0.391264	-0.717008
C56	C	1.173041	-0.443734	-0.755268
C57	C	1.240883	-0.513507	-0.696396
C58	C	1.257668	-0.530810	-0.599264
C59	C	1.291931	-0.565982	-0.734648
C60	C	1.359774	-0.635755	-0.675775
C61	C	1.376556	-0.653055	-0.578653
C62	C	1.325505	-0.600584	-0.540392
C63	C	1.275146	-0.548679	-0.831780
C64	C	1.394037	-0.670927	-0.811159
C65	C	1.410825	-0.688225	-0.714036
C66	C	1.308164	-0.582934	0.026568
C67	C	1.326200	-0.601153	0.129969
H68	H	0.648093	-0.430046	-0.322303
N69	N	1.164375	-1.249373	-0.112799
H70	H	1.190347	-1.249430	-0.043849
H71	H	1.095442	-1.220640	-0.138772
N72	N	1.046685	-0.619435	-0.137516
H73	H	1.067102	-0.674819	-0.150437
H74	H	1.061983	-0.575604	-0.180236
H75	H	0.893785	-0.366222	-0.384511
N76	N	0.702049	-0.316475	-0.433077
H77	H	0.654321	-0.333825	-0.483104
H78	H	0.668337	-0.279379	-0.402280
N79	N	1.115114	-0.954051	-0.063521
H80	H	1.046180	-0.954075	-0.089424
H81	H	1.141171	-0.982873	0.005412
N82	N	0.629787	-0.727729	-0.031954
H83	H	0.644202	-0.784676	-0.043342
H84	H	0.658160	-0.730124	0.037377
N85	N	0.831656	-0.763604	0.003078
H86	H	0.898991	-0.766575	0.005992
H87	H	0.826136	-0.760017	0.066523
H88	H	1.177193	-0.841014	-0.125755
N89	N	1.154935	-0.425081	-0.860022
H90	H	1.104212	-0.372919	-0.891512
H91	H	1.214733	-0.417769	-0.872291
H92	H	1.466063	-0.745035	-0.666089
H93	H	1.219909	-0.491869	-0.879705
N94	N	0.967067	-0.728410	-0.031205
H95	H	0.947681	-0.779349	-0.048464
H96	H	1.034383	-0.731311	-0.028314
H97	H	1.404752	-1.114171	-0.353634
H98	H	1.066749	-0.334457	-0.764936
N99	N	1.449100	-0.727531	-0.852413
H100	H	1.428174	-0.705982	-0.922875
H101	H	1.518452	-0.730067	-0.823935
H102	H	1.355510	-0.840666	-0.304373
N103	N	1.417669	-0.953454	-0.366639
H104	H	1.410180	-0.894908	-0.359163
H105	H	1.486593	-0.982214	-0.340712
N106	N	1.083714	-0.351980	-0.578621
H107	H	1.104641	-0.373531	-0.508159
H108	H	1.095279	-0.295079	-0.593093
N109	N	1.368658	-1.248974	-0.317439
H110	H	1.361230	-1.307549	-0.309978
H111	H	1.342654	-1.220122	-0.386363
H112	H	1.128162	-1.114709	-0.076574
N113	N	1.343602	-0.619236	-0.435637
H114	H	1.330522	-0.674582	-0.415190
H115	H	1.411442	-0.620174	-0.401263
N116	N	1.449721	-0.728314	-0.515159
H117	H	1.513246	-0.724841	-0.520553
H118	H	1.452525	-0.731272	-0.447855
N119	N	0.587144	-0.473817	-0.279621
H120	H	0.592589	-0.477358	-0.343107
H121	H	0.519835	-0.470874	-0.282463
