data_functionalizedCrystal
_audit_creation_method	'MofGen! by Chris Wilmer'
_symmetry_space_group_name_H-M	'P1'
_symmetry_Int_Tables_number	1
_symmetry_cell_setting	triclinic
loop_
_symmetry_equiv_pos_as_xyz
  x,y,z
_cell_length_a	19.121063
_cell_length_b	18.215407
_cell_length_c	18.215399
_cell_angle_alpha	90.020595
_cell_angle_beta	92.409843
_cell_angle_gamma	87.531048
loop_
_atom_site_label
_atom_site_type_symbol
_atom_site_fract_x
_atom_site_fract_y
_atom_site_fract_z
Zn1	Zn	-0.279623	-1.112559	-0.428611
Zn2	Zn	0.220377	-0.612559	0.071389
Zn3	Zn	-0.397078	-1.107211	-0.310787
Zn4	Zn	0.102922	-0.607211	0.189213
Zn5	Zn	-0.279645	-0.989490	-0.305558
Zn6	Zn	0.220355	-0.489490	0.194442
Zn7	Zn	-0.397038	-0.984203	-0.433809
Zn8	Zn	0.102962	-0.484203	0.066191
O9	O	-0.338346	-1.048366	-0.369691
O10	O	0.161654	-0.548366	0.130309
O11	O	-0.295211	-1.214833	-0.412995
O12	O	0.204789	-0.714833	0.087005
O13	O	-0.381526	-1.091570	-0.207110
O14	O	0.118474	-0.591570	0.292890
O15	O	-0.181357	-1.010267	-0.317518
O16	O	0.318643	-0.510267	0.182482
O17	O	-0.381505	-1.210904	-0.326430
O18	O	0.118495	-0.710904	0.173570
O19	O	-0.181341	-1.100684	-0.407924
O20	O	0.318659	-0.600684	0.092076
O21	O	-0.295248	-1.005081	-0.203268
O22	O	0.204752	-0.505081	0.296732
O23	O	-0.295209	-0.885805	-0.322557
O24	O	0.204791	-0.385805	0.177443
O25	O	-0.381436	-1.001255	-0.536102
O26	O	0.118564	-0.501255	-0.036102
O27	O	-0.381457	-0.881920	-0.416783
O28	O	0.118543	-0.381920	0.083217
O29	O	-0.295172	-1.095557	-0.532284
O30	O	0.204828	-0.595557	-0.032284
O31	O	-0.495357	-1.086443	-0.331470
O32	O	0.004643	-0.586443	0.168530
O33	O	-0.495328	-0.996069	-0.421853
O34	O	0.004672	-0.496069	0.078147
C35	C	-0.338332	-0.857160	-0.369667
C36	C	0.161668	-0.357160	0.130333
C37	C	-0.338343	-0.775361	-0.369675
C38	C	0.161657	-0.275361	0.130325
C39	C	-0.383321	-0.585160	-0.418680
C40	C	0.116679	-0.085160	0.081320
C41	C	-0.383323	-0.508301	-0.418688
C42	C	0.116677	-0.008301	0.081312
C43	C	-0.293374	-0.512323	-0.320706
C44	C	0.206626	-0.012323	0.179294
C45	C	-0.293369	-0.589181	-0.320702
C46	C	0.206631	-0.089181	0.179298
C47	C	-0.338347	-0.625597	-0.369688
C48	C	0.161653	-0.125597	0.130312
C49	C	-0.338353	-0.471881	-0.369700
C50	C	0.161647	0.028119	0.130300
C51	C	-0.338354	-0.388547	-0.369709
C52	C	0.161646	0.111453	0.130291
C53	C	-0.338345	-0.708936	-0.369680
C54	C	0.161655	-0.208936	0.130320
C55	C	-0.520826	-1.040122	-0.377809
C56	C	-0.020826	-0.540122	0.122191
C57	C	-0.598892	-1.036663	-0.381307
C58	C	-0.098892	-0.536663	0.118693
C59	C	-0.635560	-1.082127	-0.335931
C60	C	-0.135560	-0.582127	0.164069
C61	C	-0.708911	-1.078878	-0.339225
C62	C	-0.208911	-0.578878	0.160775
C63	C	-0.745594	-1.030160	-0.387891
C64	C	-0.245594	-0.530160	0.112109
C65	C	-0.708921	-0.984694	-0.433272
C66	C	-0.208921	-0.484694	0.066728
C67	C	-0.635571	-0.987948	-0.429981
C68	C	-0.135571	-0.487948	0.070019
C69	C	-0.967064	-1.017985	-0.400182
C70	C	-0.467064	-0.517985	0.099818
C71	C	-1.040419	-1.014733	-0.403467
C72	C	-0.540419	-0.514733	0.096533
C73	C	-1.040404	-1.108918	-0.309421
C74	C	-0.540404	-0.608918	0.190579
C75	C	-0.967053	-1.112164	-0.306132
C76	C	-0.467053	-0.612164	0.193868
C77	C	-0.930386	-1.066701	-0.351515
C78	C	-0.430386	-0.566701	0.148485
C79	C	-0.820571	-1.026836	-0.391257
C80	C	-0.320571	-0.526836	0.108743
C81	C	-0.855411	-1.070029	-0.348152
C82	C	-0.355411	-0.570029	0.151848
C83	C	-0.155152	-1.056662	-0.361558
C84	C	0.344848	-0.556662	0.138442
C85	C	-0.077086	-1.060197	-0.358092
C86	C	0.422914	-0.560197	0.141908
C87	C	-0.338297	-1.048413	-0.561642
C88	C	0.161703	-0.548413	-0.061642
C89	C	-0.338277	-1.048433	-0.643440
C90	C	0.161723	-0.548433	-0.143440
C91	C	-0.338358	-0.240318	-0.369713
C92	C	0.161642	0.259682	0.130287
C93	C	-0.338357	-0.322117	-0.369713
C94	C	0.161643	0.177883	0.130287
C95	C	-0.293317	-1.097555	-0.829645
C96	C	0.206683	-0.597555	-0.329645
C97	C	-0.293296	-1.097565	-0.906503
C98	C	0.206704	-0.597565	-0.406503
C99	C	-0.383128	-0.999368	-0.910468
C100	C	0.116872	-0.499368	-0.410468
C101	C	-0.383144	-0.999355	-0.833612
C102	C	0.116856	-0.499355	-0.333612
C103	C	-0.338240	-1.048453	-0.793202
C104	C	0.161760	-0.548453	-0.293202
C105	C	-0.338203	-1.048475	-0.946917
C106	C	0.161797	-0.548475	-0.446917
C107	C	-0.338181	-1.048485	-1.030249
C108	C	0.161819	-0.548485	-0.530249
C109	C	-0.338260	-1.048442	-0.709864
C110	C	0.161740	-0.548442	-0.209864
C111	C	-0.338343	-1.048364	-0.178485
C112	C	0.161657	-0.548364	0.321515
C113	C	-0.338166	-1.048495	-0.096679
C114	C	0.161834	-0.548495	0.403321
H115	H	-0.419943	-0.614808	-0.458569
H116	H	0.080057	-0.114808	0.041431
O117	O	-0.249638	-1.145335	-0.941789
O118	O	0.250362	-0.645335	-0.441789
C119	C	-0.209997	-1.188650	-0.889638
C120	C	0.290003	-0.688650	-0.389638
H121	H	-0.238779	-1.189887	-0.836130
H122	H	0.261221	-0.689887	-0.336130
H123	H	-0.156655	-1.164115	-0.879089
H124	H	0.343345	-0.664115	-0.379089
C125	C	-0.164521	-1.265919	-0.984920
C126	C	0.335479	-0.765919	-0.484920
C127	C	-0.199875	-1.267443	-0.919203
C128	C	0.300125	-0.767443	-0.419203
H129	H	-0.158273	-1.314521	-1.003158
H130	H	0.341727	-0.814521	-0.503158
H131	H	-0.191225	-1.236735	-1.020056
H132	H	0.308775	-0.736735	-0.520056
H133	H	-0.120073	-1.245469	-0.976121
H134	H	0.379927	-0.745469	-0.476121
H135	H	-0.244325	-1.287884	-0.928005
H136	H	0.255675	-0.787884	-0.428005
H137	H	-0.173177	-1.296632	-0.884069
H138	H	0.326823	-0.796632	-0.384069
O139	O	-0.426824	-0.951783	-0.949761
O140	O	0.073176	-0.451783	-0.449761
C141	C	-0.472168	-0.991637	-0.996251
C142	C	0.027832	-0.491637	-0.496251
H143	H	-0.476513	-1.049398	-0.973292
H144	H	0.023487	-0.549398	-0.473292
H145	H	-0.450440	-0.995166	-1.053536
H146	H	0.049560	-0.495166	-0.553536
C147	C	-0.539842	-0.881437	-1.028862
C148	C	-0.039842	-0.381437	-0.528862
C149	C	-0.545184	-0.952378	-1.000660
C150	C	-0.045184	-0.452378	-0.500660
H151	H	-0.584882	-0.857219	-1.031585
H152	H	-0.084882	-0.357219	-0.531585
H153	H	-0.509292	-0.854585	-0.997543
H154	H	-0.009292	-0.354585	-0.497543
H155	H	-0.521733	-0.884387	-1.076597
H156	H	-0.021733	-0.384387	-0.576597
H157	H	-0.563285	-0.949426	-0.952922
H158	H	-0.063285	-0.449426	-0.452922
H159	H	-0.575739	-0.979229	-1.031971
H160	H	-0.075739	-0.479229	-0.531971
H161	H	-0.256742	-0.622106	-0.280807
H162	H	0.243258	-0.122106	0.219193
O163	O	-0.249757	-1.145212	-0.790280
O164	O	0.250243	-0.645212	-0.290280
C165	C	-0.259389	-1.134661	-0.714628
C166	C	0.240611	-0.634661	-0.214628
H167	H	-0.313595	-1.108111	-0.706527
H168	H	0.186405	-0.608111	-0.206527
H169	H	-0.217736	-1.097346	-0.690964
H170	H	0.282264	-0.597346	-0.190964
C171	C	-0.186376	-1.242015	-0.684846
C172	C	0.313624	-0.742015	-0.184846
C173	C	-0.252956	-1.209412	-0.674897
C174	C	0.247044	-0.709412	-0.174897
H175	H	-0.182405	-1.288124	-0.660337
H176	H	0.317595	-0.788124	-0.160337
H177	H	-0.179885	-1.249123	-0.735814
H178	H	0.320115	-0.749123	-0.235814
H179	H	-0.151673	-1.210912	-0.665127
H180	H	0.348327	-0.710912	-0.165127
H181	H	-0.287657	-1.240511	-0.694624
H182	H	0.212343	-0.740511	-0.194624
H183	H	-0.259453	-1.202312	-0.623931
H184	H	0.240547	-0.702312	-0.123931
H185	H	-0.825542	-1.109697	-0.308531
H186	H	-0.325542	-0.609697	0.191469
O187	O	-0.426978	-0.469104	-0.466377
O188	O	0.073022	0.030896	0.033623
C189	C	-0.411707	-0.488594	-0.539071
C190	C	0.088293	0.011406	-0.039071
H191	H	-0.384706	-0.545617	-0.539436
H192	H	0.115294	-0.045617	-0.039436
H193	H	-0.375630	-0.446978	-0.562320
H194	H	0.124370	0.053022	-0.062320
C195	C	-0.513394	-0.419035	-0.586132
C196	C	-0.013394	0.080965	-0.086132
C197	C	-0.480237	-0.489075	-0.586581
C198	C	0.019763	0.010925	-0.086581
H199	H	-0.555665	-0.419328	-0.615439
H200	H	-0.055665	0.080672	-0.115439
H201	H	-0.523682	-0.405901	-0.537157
H202	H	-0.023682	0.094099	-0.037157
H203	H	-0.483322	-0.384362	-0.605504
H204	H	0.016678	0.115638	-0.105504
H205	H	-0.510304	-0.523744	-0.567200
H206	H	-0.010304	-0.023744	-0.067200
H207	H	-0.469956	-0.502214	-0.635553
H208	H	0.030044	-0.002214	-0.135553
H209	H	-0.605717	-0.950927	-0.466932
H210	H	-0.105717	-0.450927	0.033068
H211	H	-0.850445	-0.987169	-0.430880
H212	H	-0.350445	-0.487169	0.069120
H213	H	-0.419725	-0.959365	-0.803939
H214	H	0.080275	-0.459365	-0.303939
H215	H	-0.605698	-1.121794	-0.296299
H216	H	-0.105698	-0.621794	0.203701
H217	H	-0.738763	-1.115899	-0.302275
H218	H	-0.238763	-0.615899	0.197725
O219	O	-0.249752	-0.476830	-0.273149
O220	O	0.250248	0.023170	0.226851
C221	C	-0.259386	-0.400322	-0.283669
C222	C	0.240614	0.099678	0.216331
H223	H	-0.313619	-0.387386	-0.310090
H224	H	0.186381	0.112614	0.189910
H225	H	-0.217777	-0.380408	-0.321083
H226	H	0.282223	0.119592	0.178917
C227	C	-0.186248	-0.377015	-0.176480
C228	C	0.313752	0.122985	0.323520
C229	C	-0.252860	-0.361126	-0.208926
C230	C	0.247140	0.138874	0.291074
H231	H	-0.182219	-0.352835	-0.130376
H232	H	0.317781	0.147165	0.369624
H233	H	-0.179755	-0.428559	-0.169394
H234	H	0.320245	0.071441	0.330606
H235	H	-0.151580	-0.360419	-0.207666
H236	H	0.348420	0.139581	0.292334
H237	H	-0.287526	-0.377730	-0.177745
H238	H	0.212474	0.122270	0.322255
H239	H	-0.259359	-0.309583	-0.216005
H240	H	0.240641	0.190417	0.283995
H241	H	-0.937187	-1.151833	-0.266504
H242	H	-0.437187	-0.651833	0.233496
H243	H	-1.070266	-1.145932	-0.272474
H244	H	-0.570266	-0.645932	0.227526
O245	O	-1.075945	-0.967392	-0.450814
O246	O	-0.575945	-0.467392	0.049186
C247	C	-1.027854	-0.927951	-0.490155
C248	C	-0.527854	-0.427951	0.009845
H249	H	-0.975541	-0.960411	-0.490384
H250	H	-0.475541	-0.460411	0.009616
H251	H	-1.020115	-0.872413	-0.462814
H252	H	-0.520115	-0.372413	0.037186
C253	C	-1.120694	-0.876175	-0.569470
C254	C	-0.620694	-0.376175	-0.069470
C255	C	-1.056444	-0.916046	-0.569757
C256	C	-0.556444	-0.416046	-0.069757
H257	H	-1.138330	-0.868828	-0.618571
H258	H	-0.638330	-0.368828	-0.118571
H259	H	-1.153094	-0.902745	-0.542964
H260	H	-0.653094	-0.402745	-0.042964
H261	H	-1.114236	-0.829898	-0.546682
H262	H	-0.614236	-0.329898	-0.046682
H263	H	-1.062904	-0.962326	-0.592536
H264	H	-0.562904	-0.462326	-0.092536
H265	H	-1.024046	-0.889484	-0.596269
H266	H	-0.524046	-0.389484	-0.096269
H267	H	-0.937216	-0.980965	-0.437133
H268	H	-0.437216	-0.480965	0.062867
H269	H	-0.738793	-0.945031	-0.472900
H270	H	-0.238793	-0.445031	0.027100
