data_functionalizedCrystal
_audit_creation_method	'MofGen! by Chris Wilmer'
_symmetry_space_group_name_H-M	'P1'
_symmetry_Int_Tables_number	1
_symmetry_cell_setting	triclinic
loop_
_symmetry_equiv_pos_as_xyz
  x,y,z
_cell_length_a	10.723024
_cell_length_b	14.044220
_cell_length_c	9.798715
_cell_angle_alpha	89.995876
_cell_angle_beta	89.996609
_cell_angle_gamma	88.828373
loop_
_atom_site_label
_atom_site_type_symbol
_atom_site_fract_x
_atom_site_fract_y
_atom_site_fract_z
O1	O	1.670498	0.133040	-0.113486
O2	O	1.308619	0.145774	-0.113491
O3	O	1.484127	0.001387	-0.113476
O4	O	1.494990	0.277427	-0.113502
O5	O	1.484112	0.001387	0.113507
O6	O	1.308605	0.145774	0.113491
O7	O	1.670483	0.133039	0.113496
Zn8	Zn	1.489542	0.139407	0.149532
Zn9	Zn	1.489561	0.139407	-0.149527
O10	O	1.494976	0.277427	0.113480
C11	C	1.262020	0.144847	-0.000001
C12	C	1.123188	0.142075	-0.000002
C13	C	1.056288	0.222866	-0.000011
C14	C	0.912798	0.220002	-0.000013
C15	C	1.479364	-0.033958	0.000016
C16	C	1.465180	-0.139276	0.000018
C17	C	1.439248	-0.332106	-0.000002
C18	C	1.539849	-0.389085	-0.000005
C19	C	1.525420	-0.496383	-0.000016
C20	C	1.453675	-0.224799	0.000009
C21	C	1.717083	0.133966	0.000002
C22	C	1.855914	0.136739	-0.000005
C23	C	1.499738	0.312772	-0.000015
C24	C	1.513923	0.418090	-0.000025
N25	N	1.489538	0.139406	0.353631
N26	N	1.489573	0.139401	-0.353627
C27	C	1.563202	0.078514	0.421415
C28	C	1.563222	0.078511	0.578578
H29	H	0.913420	0.067571	-0.000006
C30	C	1.669219	-0.346818	0.000230
C31	C	1.733899	-0.377221	0.116996
C32	C	1.853078	-0.338309	0.117256
H33	H	1.662039	-0.279293	0.000310
H34	H	1.713381	-0.367342	-0.078879
H35	H	1.689748	-0.356691	0.196084
H36	H	1.741114	-0.444740	0.116940
H37	H	1.897239	-0.358832	0.038147
H38	H	1.845885	-0.270785	0.117332
H39	H	1.896982	-0.358938	0.196473
H40	H	1.342291	-0.363906	-0.000007
H41	H	1.074234	0.070786	-0.000030
C42	C	0.836277	0.312305	0.000188
C43	C	0.864755	0.365055	0.116943
C44	C	0.794298	0.450098	0.117163
H45	H	0.750000	0.298257	0.000256
H46	H	0.855463	0.348270	-0.078929
H47	H	0.845561	0.329098	0.196038
H48	H	0.951020	0.379128	0.116899
H49	H	0.813484	0.486062	0.038047
H50	H	0.708025	0.436040	0.117228
H51	H	0.813619	0.485903	0.196373
H52	H	1.626250	0.026381	0.363098
C53	C	1.647237	0.008841	0.656119
C54	C	1.616313	-0.084463	0.621448
C55	C	1.693693	-0.148671	0.692842
H56	H	1.636146	0.017946	0.751441
H57	H	1.731803	0.019465	0.632723
H58	H	1.531768	-0.095083	0.644854
H59	H	1.627411	-0.093599	0.526139
H60	H	1.778258	-0.138047	0.669446
H61	H	1.682595	-0.139557	0.788160
H62	H	1.672730	-0.211985	0.669318
C63	C	1.405679	0.208969	0.568495
C64	C	1.478929	0.267272	0.486419
C65	C	1.401689	0.331361	0.414635
H66	H	1.359451	0.247261	0.631260
H67	H	1.349832	0.174596	0.512685
H68	H	1.534754	0.301642	0.542224
H69	H	1.525155	0.229006	0.423628
H70	H	1.345842	0.296988	0.358826
H71	H	1.355465	0.369646	0.477411
H72	H	1.451377	0.370921	0.358930
C73	C	1.121781	0.317833	-0.000082
C74	C	1.251082	0.301793	-0.000109
C75	C	1.311449	0.389256	-0.000190
H76	H	1.098436	0.352966	0.079047
H77	H	1.098378	0.352906	-0.079271
H78	H	1.274475	0.266735	0.079072
H79	H	1.274462	0.266674	-0.079232
H80	H	1.288046	0.424329	-0.079378
H81	H	1.288095	0.424383	0.078941
H82	H	1.399185	0.378385	-0.000220
H83	H	1.426481	0.191531	0.411950
