data_functionalizedCrystal
_audit_creation_method	'MofGen! by Chris Wilmer'
_symmetry_space_group_name_H-M	'P1'
_symmetry_Int_Tables_number	1
_symmetry_cell_setting	triclinic
loop_
_symmetry_equiv_pos_as_xyz
  x,y,z
_cell_length_a	14.971486
_cell_length_b	10.489741
_cell_length_c	13.448316
_cell_angle_alpha	89.993703
_cell_angle_beta	89.998199
_cell_angle_gamma	84.076651
loop_
_atom_site_label
_atom_site_type_symbol
_atom_site_fract_x
_atom_site_fract_y
_atom_site_fract_z
O1	O	1.187893	0.166222	-0.082577
O2	O	0.927607	0.186128	-0.082604
O3	O	1.063673	-0.009491	-0.082584
O4	O	1.051827	0.361841	-0.082597
O5	O	1.063655	-0.009503	0.082800
O6	O	0.927589	0.186116	0.082780
O7	O	1.187876	0.166210	0.082807
Cu8	Cu	1.057731	0.176162	0.097894
Cu9	Cu	1.057752	0.176176	-0.097691
O10	O	1.051810	0.361829	0.082787
C11	C	0.894268	0.185232	0.000085
C12	C	0.794956	0.182564	0.000074
C13	C	1.062769	-0.057019	0.000107
C14	C	1.060093	-0.198617	0.000105
C15	C	0.738385	0.297485	0.000072
C16	C	0.645071	0.294971	0.000087
C17	C	0.608330	0.177534	0.000097
C18	C	0.664909	0.062604	0.000103
C19	C	0.758221	0.065120	0.000095
C20	C	0.470416	0.057369	0.000117
C21	C	0.377098	0.054853	0.000123
C22	C	0.357267	0.287220	0.000108
C23	C	0.450579	0.289736	0.000101
C24	C	0.507151	0.174805	0.000104
C25	C	0.973518	-0.265755	0.000089
C26	C	1.014406	-0.358357	0.081636
C27	C	1.014444	-0.358320	-0.081419
C28	C	1.101017	-0.289354	0.081720
C29	C	1.101043	-0.289307	-0.081409
C30	C	1.141994	-0.381882	0.000158
C31	C	1.221215	0.167106	0.000116
C32	C	1.320527	0.169774	0.000120
C33	C	1.052713	0.409357	0.000094
C34	C	1.055390	0.550955	0.000089
N35	N	1.057723	0.176151	0.235459
N36	N	1.057766	0.176177	-0.235255
C37	C	1.117992	0.089567	0.287508
C38	C	1.117998	0.089566	0.391611
C39	C	1.057738	0.176156	0.443663
C40	C	0.997462	0.262745	0.391607
C41	C	0.997453	0.262739	0.287505
C42	C	0.997487	0.262753	0.608587
C43	C	0.997497	0.262761	0.712695
C44	C	1.118032	0.089580	0.712693
C45	C	1.118023	0.089574	0.608591
C46	C	1.057748	0.176165	0.556542
H47	H	0.599014	0.388551	0.000083
N48	N	0.777999	0.424157	0.000061
H49	H	0.816276	0.430378	0.061365
H50	H	0.816223	0.430313	-0.061292
N51	N	0.965918	-0.398781	-0.172744
H52	H	1.007877	-0.459533	-0.213603
H53	H	0.912174	-0.443141	-0.151868
H54	H	1.213239	-0.432131	0.000211
N55	N	0.490197	0.416404	0.000089
H56	H	0.528474	0.422624	0.061392
H57	H	0.528422	0.422555	-0.061264
H58	H	0.948402	0.333261	0.566212
N59	N	1.149537	-0.248717	-0.172717
H60	H	1.212817	-0.292675	-0.173364
H61	H	1.116718	-0.273510	-0.234238
N62	N	0.296256	0.411184	0.000101
H63	H	0.231568	0.391775	0.000112
H64	H	0.308240	0.462361	0.061403
N65	N	0.932491	0.356136	0.768837
H66	H	0.941647	0.342999	0.842683
H67	H	0.943387	0.446653	0.750632
H68	H	1.167073	0.019061	0.433989
H69	H	0.347187	-0.040774	0.000132
N70	N	1.183021	-0.003809	0.552445
H71	H	1.221205	-0.058664	0.601213
H72	H	1.148413	-0.060279	0.509265
N73	N	1.149472	-0.249109	0.173161
H74	H	1.212920	-0.292475	0.173460
H75	H	1.150891	-0.153061	0.172578
N76	N	0.531436	-0.066588	0.000127
H77	H	0.494004	-0.141366	0.000132
H78	H	0.570582	-0.070600	-0.061186
H79	H	1.167067	0.019060	0.245134
H80	H	0.634987	-0.033015	0.000126
N81	N	1.183046	-0.003813	0.768824
H82	H	1.173908	0.009322	0.842670
H83	H	1.172139	-0.094327	0.750637
N84	N	0.932465	0.356130	0.447751
H85	H	0.967009	0.412692	0.490928
H86	H	0.894294	0.410893	0.398919
N87	N	0.965887	-0.398905	0.172948
H88	H	0.997952	-0.372592	0.234537
H89	H	0.902252	-0.356231	0.172799
N90	N	0.819244	-0.058827	0.000091
H91	H	0.858401	-0.062963	0.061399
H92	H	0.781752	-0.133536	0.000060
H93	H	0.902336	-0.215280	0.000164
H94	H	0.948375	0.333243	0.245128
