data_functionalizedCrystal
_audit_creation_method	'MofGen! by Chris Wilmer'
_symmetry_space_group_name_H-M	'P1'
_symmetry_Int_Tables_number	1
_symmetry_cell_setting	triclinic
loop_
_symmetry_equiv_pos_as_xyz
  x,y,z
_cell_length_a	14.908520
_cell_length_b	12.759401
_cell_length_c	12.759393
_cell_angle_alpha	90.019596
_cell_angle_beta	86.736394
_cell_angle_gamma	93.320814
loop_
_atom_site_label
_atom_site_type_symbol
_atom_site_fract_x
_atom_site_fract_y
_atom_site_fract_z
Zn1	Zn	-0.359107	1.582078	0.618084
Zn2	Zn	-0.509991	1.571806	0.452531
Zn3	Zn	-0.359152	1.406374	0.442426
Zn4	Zn	-0.509925	1.396210	0.628168
O5	O	-0.434544	1.489117	0.535302
O6	O	-0.379131	1.727736	0.596132
O7	O	-0.490029	1.549816	0.304173
O8	O	-0.232902	1.438234	0.457279
O9	O	-0.489985	1.720189	0.474501
O10	O	-0.232869	1.567323	0.586334
O11	O	-0.379208	1.428274	0.296749
O12	O	-0.379143	1.258005	0.467057
O13	O	-0.489872	1.420911	0.773848
O14	O	-0.489915	1.250538	0.603520
O15	O	-0.379067	1.557468	0.766440
O16	O	-0.636227	1.539961	0.484278
O17	O	-0.636178	1.410951	0.613318
C18	C	-0.434528	1.216151	0.535287
C19	C	-0.434543	1.099373	0.535307
C20	C	-0.492323	0.930913	0.606271
C21	C	-0.492313	1.040638	0.606260
C22	C	-0.376785	1.048379	0.464353
C23	C	-0.376800	0.938655	0.464361
C24	C	-0.668936	1.473267	0.551012
C25	C	-0.769210	1.466582	0.557768
C26	C	-0.957625	1.588497	0.436202
C27	C	-1.051841	1.582220	0.442546
C28	C	-1.051861	1.447757	0.576805
C29	C	-0.957644	1.454034	0.570461
C30	C	-0.910530	1.524405	0.500155
C31	C	-0.816312	1.530677	0.493807
C32	C	-0.816333	1.396219	0.628070
C33	C	-0.910549	1.389942	0.634414
C34	C	-0.199236	1.505058	0.519555
C35	C	-0.098962	1.511851	0.512844
C36	C	-0.434457	1.489202	0.809330
C37	C	-0.434420	1.489238	0.926104
C38	C	-0.434561	1.763149	0.535319
C39	C	-0.434568	1.879926	0.535326
C40	C	-0.434565	1.489098	0.262336
C41	C	-0.434348	1.489283	0.145546
C42	C	-0.376715	1.560348	0.977110
C43	C	-0.376676	1.560369	1.086831
C44	C	-0.492056	1.418165	1.094533
C45	C	-0.492089	1.418140	0.984813
H46	H	-0.329751	1.096210	0.406578
H47	H	-1.090238	1.390471	0.634050
H48	H	-0.948923	1.332651	0.691657
O49	O	-0.911992	1.656933	0.367880
C50	C	-0.921913	1.789574	0.235317
C51	C	-0.973702	1.712137	0.312666
H52	H	-0.971782	1.834212	0.190640
H53	H	-0.877753	1.847499	0.280570
H54	H	-0.877852	1.744278	0.177422
H55	H	-1.017812	1.757345	0.370579
H56	H	-1.017804	1.654213	0.267344
O57	O	-1.097614	1.644619	0.380589
C58	C	-1.203878	1.779409	0.373800
C59	C	-1.152091	1.708795	0.444079
H60	H	-1.247949	1.831298	0.425102
H61	H	-1.154038	1.830855	0.322509
H62	H	-1.248033	1.728289	0.321747
H63	H	-1.107934	1.759834	0.496195
H64	H	-1.201979	1.657342	0.495299
O65	O	-0.548048	1.349210	1.151725
C66	C	-0.599094	1.286182	1.324164
C67	C	-0.535650	1.364346	1.259527
H68	H	-0.589080	1.298377	1.411333
H69	H	-0.671867	1.299695	1.307540
H70	H	-0.583260	1.202546	1.301458
H71	H	-0.551403	1.448012	1.282196
H72	H	-0.462897	1.350741	1.276157
H73	H	-0.539079	1.360226	0.943283
H74	H	-0.777952	1.587974	0.436558
H75	H	-0.329755	1.618238	0.929312
O76	O	-0.548523	0.874018	0.675241
C77	C	-0.663066	0.877929	0.816038
C78	C	-0.599480	0.942484	0.737969
H79	H	-0.704268	0.933257	0.866789
H80	H	-0.710258	0.823382	0.770935
H81	H	-0.621692	0.829349	0.868238
H82	H	-0.640781	0.991126	0.685749
H83	H	-0.552286	0.996966	0.783137
H84	H	-0.329768	0.897141	0.406583
H85	H	-0.329685	1.618272	1.128355
O86	O	-0.548288	1.090289	0.675225
C87	C	-0.560546	1.213346	0.817908
C88	C	-0.497050	1.157209	0.739845
H89	H	-0.519145	1.267447	0.870188
H90	H	-0.607653	1.261586	0.772799
H91	H	-0.601852	1.152497	0.868578
H92	H	-0.455685	1.217987	0.689155
H93	H	-0.450003	1.108949	0.785017
O94	O	-0.770685	1.333997	0.690352
C95	C	-0.741744	1.284846	0.867066
C96	C	-0.793510	1.355360	0.796664
H97	H	-0.760165	1.302107	0.953033
H98	H	-0.760370	1.198886	0.849872
H99	H	-0.666316	1.301393	0.850403
H100	H	-0.868950	1.338905	0.813287
H101	H	-0.774809	1.441297	0.813871
