data_functionalizedCrystal
_audit_creation_method	'MofGen! by Chris Wilmer'
_symmetry_space_group_name_H-M	'P1'
_symmetry_Int_Tables_number	1
_symmetry_cell_setting	triclinic
loop_
_symmetry_equiv_pos_as_xyz
  x,y,z
_cell_length_a	10.654558
_cell_length_b	10.654550
_cell_length_c	8.140239
_cell_angle_alpha	89.997641
_cell_angle_beta	89.997900
_cell_angle_gamma	84.486610
loop_
_atom_site_label
_atom_site_type_symbol
_atom_site_fract_x
_atom_site_fract_y
_atom_site_fract_z
O1	O	1.667832	0.176447	-0.136586
O2	O	1.302355	0.193242	-0.136594
O3	O	1.493497	0.002105	-0.136584
O4	O	1.476690	0.367583	-0.136596
O5	O	1.493486	0.002103	0.136643
O6	O	1.302344	0.193240	0.136633
O7	O	1.667821	0.176444	0.136641
Zn8	Zn	1.485081	0.184842	0.180018
Zn9	Zn	1.485095	0.184845	-0.179971
O10	O	1.476680	0.367581	0.136631
C11	C	1.255552	0.192005	0.000019
C12	C	1.116109	0.188309	0.000016
C13	C	0.919576	0.183115	-0.148921
C14	C	1.050599	0.186577	-0.148922
C15	C	1.050591	0.186567	0.148965
C16	C	0.919572	0.183097	0.148965
C17	C	0.854071	0.181395	-0.297868
C18	C	0.919581	0.183134	-0.446818
C19	C	1.050603	0.186596	-0.446820
C20	C	1.116117	0.188319	-0.297872
C21	C	1.492257	-0.044694	0.000028
C22	C	1.488565	-0.184137	0.000022
C23	C	1.601106	-0.263620	0.000029
C24	C	1.597630	-0.394641	0.000018
C25	C	1.369061	-0.366684	-0.000002
C26	C	1.372539	-0.235666	-0.000002
C27	C	1.717133	-0.212091	0.000053
C28	C	1.829683	-0.291575	0.000062
C29	C	1.826207	-0.422596	0.000051
C30	C	1.710180	-0.474133	0.000030
C31	C	1.714625	0.177681	0.000025
C32	C	1.854067	0.181377	0.000017
C33	C	1.477919	0.414380	0.000016
C34	C	1.481611	0.553823	0.000011
N35	N	1.485081	0.184839	0.425700
N36	N	1.485105	0.184837	-0.425653
H37	H	0.866230	0.181705	0.270243
H38	H	1.280898	-0.170948	-0.000006
H39	H	1.719976	-0.105409	0.000068
O40	O	1.942277	-0.241309	0.000148
C41	C	1.921218	-0.108625	0.000115
H42	H	1.823474	-0.078721	0.051840
H43	H	1.995522	-0.067764	0.079447
H44	H	1.927629	-0.072098	-0.130963
O45	O	1.935648	-0.499627	0.000124
C46	C	2.038794	-0.426045	0.000101
H47	H	2.007763	-0.328556	0.051830
H48	H	2.117711	-0.473679	0.079433
H49	H	2.074315	-0.416401	-0.130975
H50	H	1.274597	-0.408657	-0.000016
O51	O	0.726804	0.177984	-0.298163
C52	C	0.683026	0.176878	-0.461559
H53	H	0.763376	0.139179	-0.545906
H54	H	0.602800	0.113708	-0.470610
H55	H	0.647502	0.276849	-0.500287
O56	O	0.856032	0.181239	-0.591542
C57	C	0.901338	0.073527	-0.682171
H58	H	0.946623	-0.001417	-0.595026
H59	H	0.819629	0.034810	-0.749736
H60	H	0.974395	0.100087	-0.775037
H61	H	1.707358	-0.580820	0.000003
O62	O	1.114157	0.188503	-0.591543
C63	C	1.068849	0.296223	-0.682163
H64	H	1.023558	0.371156	-0.595011
H65	H	1.150559	0.334951	-0.749725
H66	H	0.995798	0.269669	-0.775030
O67	O	1.243416	0.191492	-0.298069
C68	C	1.300448	0.084046	-0.379718
H69	H	1.229369	0.045864	-0.466695
H70	H	1.385133	0.110765	-0.452928
H71	H	1.332961	0.008625	-0.285559
H72	H	1.103943	0.187972	0.270231
