data_functionalizedCrystal
_audit_creation_method	'MofGen! by Chris Wilmer'
_symmetry_space_group_name_H-M	'P1'
_symmetry_Int_Tables_number	1
_symmetry_cell_setting	triclinic
loop_
_symmetry_equiv_pos_as_xyz
  x,y,z
_cell_length_a	16.704479
_cell_length_b	21.606444
_cell_length_c	21.606444
_cell_angle_alpha	119.998975
_cell_angle_beta	90.003521
_cell_angle_gamma	56.630238
loop_
_atom_site_label
_atom_site_type_symbol
_atom_site_fract_x
_atom_site_fract_y
_atom_site_fract_z
Zr1	Zr	0.815198	0.612735	0.048850
O2	O	0.680088	0.752575	0.153031
O3	O	0.856618	0.480329	0.016916
O4	O	0.856629	0.609443	0.146030
O5	O	0.680068	0.623465	-0.077932
O6	O	0.995886	0.598389	0.140504
O7	O	0.680078	0.623462	0.023917
O8	O	0.995867	0.367428	-0.090456
O9	O	0.680086	0.854426	0.153027
O10	O	0.978208	0.523786	-0.000830
O11	O	0.874275	0.532039	-0.072716
O12	O	0.874287	0.684053	0.079298
O13	O	0.770354	0.692306	0.007413
Zr14	Zr	1.037282	0.595111	-0.122401
Zr15	Zr	1.037297	0.595105	0.040038
Zr16	Zr	0.815183	0.612741	-0.113589
Zr17	Zr	0.815196	0.775175	0.048845
Zr18	Zr	1.037284	0.432670	-0.122396
O19	O	0.995862	0.727516	-0.090467
O20	O	0.995884	0.727507	0.140500
O21	O	0.680066	0.752584	-0.077937
O22	O	1.172392	0.455270	-0.226582
O23	O	1.172414	0.455262	0.004386
O24	O	0.856597	0.480338	-0.214051
O25	O	1.172412	0.584380	0.004381
O26	O	0.995852	0.598403	-0.219581
O27	O	0.856595	0.609457	-0.214055
O28	O	1.172403	0.584384	-0.097468
O29	O	0.856625	0.840412	0.146022
O30	O	0.995855	0.367433	-0.219573
O31	O	1.172394	0.353420	-0.226578
O32	O	1.172406	0.353415	-0.097461
O33	O	0.680074	0.854431	0.023910
O34	O	0.856613	0.840417	0.016905
O35	O	0.978193	0.523792	-0.152849
O36	O	1.082126	0.515540	-0.080964
O37	O	0.978206	0.675807	-0.000835
O38	O	0.874272	0.684059	-0.072721
C39	C	0.926243	0.400735	-0.036769
C40	C	0.926244	0.331774	-0.036767
C41	C	0.648428	0.625975	-0.025752
C42	C	0.554142	0.633460	-0.022011
C43	C	0.980494	0.295069	0.000758
C44	C	0.980497	0.230269	0.000753
C45	C	0.926245	0.202180	-0.036773
C46	C	0.871993	0.238888	-0.074303
C47	C	0.871996	0.303682	-0.074302
C48	C	0.871981	-0.022420	-0.074309
C49	C	0.871980	-0.087217	-0.074305
C50	C	0.980482	-0.095834	0.000746
C51	C	0.980485	-0.031039	0.000747
C52	C	0.926239	0.005659	-0.036786
C53	C	0.926237	0.075922	-0.036781
C54	C	0.926240	0.131924	-0.036774
C55	C	0.367007	0.727659	0.025086
C56	C	0.455594	0.720633	0.021573
C57	C	0.564100	0.553308	-0.062085
C58	C	0.475513	0.560334	-0.058571
C59	C	0.376968	0.647513	-0.014984
C60	C	0.288380	0.654538	-0.011466
C61	C	0.396887	0.487214	-0.095128
C62	C	0.485474	0.480188	-0.098641
C63	C	1.204052	0.581870	-0.047799
C64	C	1.298339	0.574386	-0.051540
C65	C	0.926259	0.603915	0.166411
C66	C	0.926266	0.603912	0.235370
C67	C	0.926237	0.807111	-0.036782
C68	C	0.926236	0.876071	-0.036784
C69	C	0.849501	0.610022	0.661721
C70	C	0.849510	0.610015	0.596921
C71	C	0.926233	0.603923	0.561482
C72	C	1.002959	0.597828	0.590842
C73	C	1.002953	0.597829	0.655637
C74	C	1.002983	0.597825	0.329530
C75	C	1.002980	0.597828	0.264732
C76	C	0.849539	0.610011	0.270813
C77	C	0.849534	0.610011	0.335609
C78	C	0.926262	0.603912	0.364960
C79	C	0.926253	0.603918	0.435222
C80	C	0.926239	0.603923	0.491225
C81	C	0.926222	0.603930	0.760038
C82	C	0.926219	0.603930	0.691077
C83	C	1.204055	0.378682	-0.047793
C84	C	1.298343	0.302237	-0.051532
C85	C	0.926224	0.400742	-0.239955
C86	C	0.926218	0.331785	-0.308913
C87	C	1.204036	0.378690	-0.250979
C88	C	1.298317	0.302248	-0.323678
C89	C	0.648445	0.829156	0.177428
C90	C	0.554163	0.905598	0.250127
C91	C	0.648425	0.829164	-0.025758
C92	C	0.554138	0.905608	-0.022019
C93	C	0.926256	0.807103	0.166404
C94	C	0.926262	0.876061	0.235362
C95	C	1.288377	0.270643	-0.011452
C96	C	1.376961	0.198824	-0.014950
C97	C	1.475511	0.158598	-0.058532
C98	C	1.485475	0.190199	-0.098613
C99	C	1.396891	0.262020	-0.095110
C100	C	0.980460	0.295097	-0.383131
C101	C	0.980451	0.230313	-0.447930
C102	C	0.926206	0.202214	-0.438509
C103	C	0.871957	0.238909	-0.364282
C104	C	0.871961	0.303696	-0.299485
C105	C	1.396854	0.262041	-0.320295
C106	C	1.485449	0.190224	-0.388597
C107	C	1.475506	0.158610	-0.460282
C108	C	1.376959	0.198824	-0.463663
C109	C	1.288365	0.270644	-0.395361
C110	C	0.455627	0.945812	0.246744
C111	C	0.367031	1.017650	0.315046
C112	C	0.376974	1.049267	0.386731
C113	C	0.475521	1.009049	0.390112
C114	C	0.564115	0.937217	0.321810
C115	C	0.564104	0.937210	-0.062092
C116	C	0.475519	1.009046	-0.058576
C117	C	0.376969	1.049275	-0.014992
C118	C	0.367005	1.017671	0.025086
C119	C	0.455589	0.945840	0.021574
C120	C	0.980518	0.904139	0.225916
C121	C	0.980543	0.968922	0.290702
C122	C	0.926306	1.005630	0.364933
C123	C	0.872048	0.977546	0.374377
C124	C	0.872029	0.912759	0.309592
H125	H	1.024667	0.317939	0.031320
H126	H	1.368878	0.173073	-0.522038
H127	H	0.304847	1.107763	-0.012139
F128	F	1.038249	0.865082	0.146919
H129	H	0.447460	0.920114	0.054205
H130	H	0.827826	0.216008	-0.104861
F131	F	0.262112	1.060493	0.071467
H132	H	0.827794	0.333559	-0.239055
F133	F	1.038289	0.998803	0.280634
H134	H	1.208136	0.303372	-0.398127
H135	H	0.787065	0.614973	0.246907
H136	H	0.644340	0.904460	-0.097588
F137	F	1.084639	0.591337	0.360765
F138	F	0.926212	0.133259	-0.507480
F139	F	0.814229	0.208993	-0.354268
F140	F	1.407460	0.295677	-0.244009
F141	F	1.407514	0.295633	-0.137776
H142	H	1.065433	0.592862	0.561981
H143	H	1.368828	0.173104	0.017689
H144	H	1.065426	0.592867	0.679537
F145	F	0.486145	1.042665	-0.101238
F146	F	1.569805	0.082171	-0.532969
F147	F	0.445021	0.912175	0.170458
H148	H	0.286798	1.050384	0.312278
H149	H	0.304827	1.107757	0.442340
F150	F	0.814251	0.016626	-0.114257
F151	F	0.590359	0.387411	-0.145039
H152	H	0.827818	0.333569	-0.104856
F153	F	1.590320	0.147435	-0.384982
H154	H	0.827799	-0.110086	-0.104865
H155	H	0.827890	1.007444	0.434825
F156	F	0.183501	0.747320	0.034927
F157	F	1.038219	0.191222	0.040706
F158	F	0.767859	0.616496	0.565677
H159	H	1.065462	0.592865	0.235877
H160	H	0.483605	1.034801	0.448486
F161	F	1.038223	-0.001144	0.040691
F162	F	0.668983	0.894420	0.325423
F163	F	1.038195	0.191269	-0.526921
F164	F	0.407486	0.401911	-0.137770
H165	H	0.827843	0.889906	0.317294
F166	F	1.038221	-0.134899	0.040689
F167	F	0.262127	0.820439	0.071485
H168	H	0.787020	0.614988	0.690574
H169	H	0.644348	0.482331	-0.097578
F170	F	0.444987	0.805935	0.064218
F171	F	0.767872	0.616500	0.373325
H172	H	0.926329	1.058383	0.417679
H173	H	1.208140	0.303395	0.024046
H174	H	1.547634	0.100116	-0.061379
F175	F	1.590368	0.147375	-0.144996
F176	F	1.038204	0.324987	-0.393176
