data_functionalizedCrystal
_audit_creation_method	'MofGen! by Chris Wilmer'
_symmetry_space_group_name_H-M	'P1'
_symmetry_Int_Tables_number	1
_symmetry_cell_setting	triclinic
loop_
_symmetry_equiv_pos_as_xyz
  x,y,z
_cell_length_a	12.837943
_cell_length_b	13.596369
_cell_length_c	14.519709
_cell_angle_alpha	89.993066
_cell_angle_beta	90.745458
_cell_angle_gamma	90.004014
loop_
_atom_site_label
_atom_site_type_symbol
_atom_site_fract_x
_atom_site_fract_y
_atom_site_fract_z
O1	O	1.375899	0.081778	-0.239787
O2	O	1.709233	0.415112	0.093546
O3	O	2.042566	0.748445	0.426880
O4	O	1.074072	0.081784	-0.227942
O5	O	1.407405	0.415117	0.105391
O6	O	1.740738	0.748451	0.438725
O7	O	1.232988	0.081772	-0.100318
O8	O	1.566321	0.415106	0.233016
O9	O	1.899655	0.748439	0.566349
O10	O	1.216983	0.081790	-0.367412
O11	O	1.550316	0.415124	-0.034078
O12	O	1.883650	0.748457	0.299255
O13	O	1.232972	-0.081811	-0.100309
O14	O	1.566306	0.251523	0.233024
O15	O	1.899639	0.584856	0.566358
O16	O	1.074056	-0.081799	-0.227933
O17	O	1.407389	0.251534	0.105400
O18	O	1.740723	0.584868	0.438733
O19	O	1.375884	-0.081804	-0.239778
O20	O	1.709217	0.251529	0.093555
O21	O	2.042550	0.584862	0.426888
Zn22	Zn	1.224967	-0.107774	-0.233854
Zn23	Zn	1.558301	0.225559	0.099479
Zn24	Zn	1.891634	0.558893	0.432812
Zn25	Zn	1.224988	0.107754	-0.233866
Zn26	Zn	1.558321	0.441087	0.099467
Zn27	Zn	1.891655	0.774420	0.432801
O28	O	1.216967	-0.081793	-0.367403
O29	O	1.550301	0.251541	-0.034069
O30	O	1.883634	0.584874	0.299264
C31	C	1.035436	-0.000007	-0.223936
C32	C	1.368769	0.333327	0.109397
C33	C	1.702103	0.666660	0.442730
C34	C	0.920337	-0.000005	-0.212002
C35	C	1.253670	0.333328	0.121331
C36	C	1.587003	0.666662	0.454665
N37	N	1.224961	-0.254866	-0.233846
N38	N	1.558294	0.078468	0.099487
N39	N	1.891627	0.411801	0.432820
C40	C	0.679644	-0.000009	-0.355473
C41	C	1.012978	0.333324	-0.022139
C42	C	1.346311	0.666657	0.311194
C43	C	0.571498	-0.000008	-0.344264
C44	C	0.904831	0.333325	-0.010930
C45	C	1.238164	0.666658	0.322403
C46	C	0.595895	-0.000009	-0.178376
C47	C	0.929228	0.333324	0.154957
C48	C	1.262561	0.666658	0.488290
C49	C	0.704041	-0.000010	-0.189585
C50	C	1.037375	0.333323	0.143748
C51	C	1.370708	0.666657	0.477082
C52	C	0.745912	-0.000009	-0.278136
C53	C	1.079245	0.333325	0.055197
C54	C	1.412579	0.666658	0.388531
C55	C	0.854061	-0.000003	-0.289344
C56	C	1.187394	0.333331	0.043989
C57	C	1.520727	0.666664	0.377322
C58	C	0.878456	-0.000010	-0.123458
C59	C	1.211789	0.333323	0.209876
C60	C	1.545122	0.666656	0.543209
C61	C	0.770309	-0.000009	-0.112249
C62	C	1.103642	0.333324	0.221085
C63	C	1.436976	0.666657	0.554418
C64	C	1.224987	-0.656157	-0.233867
C65	C	1.558320	-0.322823	0.099466
C66	C	1.891653	0.010510	0.432800
C67	C	1.224976	-0.544505	-0.233864
C68	C	1.558310	-0.211172	0.099469
C69	C	1.891643	0.122161	0.432803
C70	C	1.224974	-0.455515	-0.233857
C71	C	1.558307	-0.122181	0.099476
C72	C	1.891641	0.211152	0.432809
C73	C	1.224963	-0.343856	-0.233853
C74	C	1.558296	-0.010523	0.099480
C75	C	1.891629	0.322810	0.432814
C76	C	1.414519	-0.000011	-0.243784
C77	C	1.747853	0.333322	0.089549
C78	C	2.081186	0.666655	0.422882
C79	C	1.529619	-0.000007	-0.255718
C80	C	1.862952	0.333327	0.077615
C81	C	2.196285	0.666660	0.410948
C82	C	1.232234	-0.000019	-0.065889
C83	C	1.565568	0.333314	0.267444
C84	C	1.898901	0.666647	0.600778
C85	C	1.229999	-0.000020	0.036685
C86	C	1.563332	0.333313	0.370019
C87	C	1.896666	0.666647	0.703352
N88	N	1.225003	0.254845	-0.233867
N89	N	1.558336	0.588179	0.099466
N90	N	1.891670	0.921512	0.432799
C91	C	1.217721	0.000001	-0.401831
C92	C	1.551054	0.333334	-0.068498
C93	C	1.884388	0.666668	0.264835
C94	C	1.219956	0.000008	-0.504406
C95	C	1.553290	0.333341	-0.171072
C96	C	1.886623	0.666675	0.162261
C97	C	1.221770	0.000006	0.412292
C98	C	1.555104	0.333339	0.745626
C99	C	1.888437	0.666673	1.078959
C100	C	1.224055	-0.000002	0.307787
C101	C	1.557389	0.333332	0.641120
C102	C	1.890722	0.666665	0.974453
C103	C	1.225884	-0.000008	0.224492
C104	C	1.559218	0.333325	0.557825
C105	C	1.892551	0.666659	0.891159
C106	C	1.228170	-0.000014	0.119980
C107	C	1.561503	0.333320	0.453313
C108	C	1.894837	0.666653	0.786647
H109	H	0.888149	-0.000003	-0.361447
H110	H	1.221483	0.333330	-0.028114
H111	H	1.554816	0.666663	0.305220
H112	H	0.713736	-0.000007	-0.427574
H113	H	1.047069	0.333327	-0.094241
H114	H	1.380402	0.666660	0.239092
H115	H	0.932423	-0.000003	-0.060484
H116	H	1.265756	0.333330	0.272849
H117	H	1.599090	0.666663	0.606182
H118	H	0.517545	-0.000012	-0.407239
H119	H	0.850879	0.333322	-0.073906
H120	H	1.184212	0.666655	0.259427
H121	H	0.561784	-0.000091	-0.106282
H122	H	0.895118	0.333242	0.227051
H123	H	1.228451	0.666575	0.560385
H124	H	0.736203	-0.000022	-0.040153
H125	H	1.069536	0.333312	0.293181
H126	H	1.402869	0.666645	0.626514
