data_functionalizedCrystal
_audit_creation_method	'MofGen! by Chris Wilmer'
_symmetry_space_group_name_H-M	'P1'
_symmetry_Int_Tables_number	1
_symmetry_cell_setting	triclinic
loop_
_symmetry_equiv_pos_as_xyz
  x,y,z
_cell_length_a	19.902436
_cell_length_b	14.560438
_cell_length_c	14.560438
_cell_angle_alpha	60.000905
_cell_angle_beta	90.002252
_cell_angle_gamma	59.996626
loop_
_atom_site_label
_atom_site_type_symbol
_atom_site_fract_x
_atom_site_fract_y
_atom_site_fract_z
Zr1	Zr	0.647320	1.005173	-0.120435
O2	O	0.540025	1.196793	-0.267092
O3	O	0.680211	0.813566	-0.075480
O4	O	0.680208	1.005170	-0.267080
O5	O	0.540031	1.005187	0.075649
O6	O	0.790787	1.005152	-0.267068
O7	O	0.540028	1.005189	-0.075492
O8	O	0.790792	0.662407	0.075671
O9	O	0.540025	1.347931	-0.267089
O10	O	0.776763	0.892358	-0.056294
O11	O	0.694241	0.892369	0.056491
O12	O	0.694237	1.117958	-0.169094
O13	O	0.611716	1.117970	-0.056308
Zr14	Zr	0.823685	1.005140	0.120636
Zr15	Zr	0.823680	1.005144	-0.120416
Zr16	Zr	0.647324	1.005168	0.120617
Zr17	Zr	0.647320	1.246220	-0.120431
Zr18	Zr	0.823684	0.764092	0.120632
O19	O	0.790793	1.196747	0.075681
O20	O	0.790787	1.196753	-0.267064
O21	O	0.540031	1.196787	0.075653
O22	O	0.930979	0.813520	0.267293
O23	O	0.930973	0.813525	-0.075452
O24	O	0.680217	0.813560	0.267266
O25	O	0.930973	1.005126	-0.075448
O26	O	0.790797	1.005143	0.267281
O27	O	0.680218	1.005161	0.267269
O28	O	0.930976	1.005124	0.075693
O29	O	0.680208	1.347908	-0.267074
O30	O	0.790796	0.662404	0.267275
O31	O	0.930979	0.662382	0.267291
O32	O	0.930975	0.662385	0.075686
O33	O	0.540029	1.347928	-0.075485
O34	O	0.680212	1.347905	-0.075470
O35	O	0.776767	0.892354	0.169295
O36	O	0.859289	0.892343	0.056510
O37	O	0.776763	1.117943	-0.056290
O38	O	0.694242	1.117955	0.056495
C39	C	0.735502	0.703643	0.000095
C40	C	0.735502	0.601311	0.000093
C41	C	0.778575	0.553229	-0.058780
C42	C	0.778579	0.457070	-0.058770
C43	C	0.692428	0.457087	0.058988
C44	C	0.692430	0.553238	0.058984
C45	C	0.514902	1.005192	0.000076
C46	C	0.440033	1.005204	0.000068
C47	C	0.168031	1.005140	0.000111
C48	C	0.144462	1.147453	-0.070704
C49	C	0.222300	1.147542	-0.071097
C50	C	0.302974	1.005173	0.000090
C51	C	0.300561	0.934499	-0.051799
C52	C	0.222334	0.935408	-0.052323
C53	C	0.223324	0.932483	0.122848
C54	C	0.300245	0.935157	0.122659
C55	C	0.379240	1.005183	0.000078
C56	C	0.091765	1.005125	0.000119
C57	C	0.956102	1.005121	0.000125
C58	C	1.030972	1.005109	0.000133
C59	C	0.735497	1.005161	-0.301419
C60	C	0.735495	1.005163	-0.403752
C61	C	0.735503	1.306670	0.000106
C62	C	0.735503	1.409001	0.000108
C63	C	0.692418	1.122922	-0.510708
C64	C	0.692428	1.122916	-0.606857
C65	C	0.778592	0.887382	-0.489079
C66	C	0.778586	0.887389	-0.392933
C67	C	0.735508	1.005151	0.301620
C68	C	0.735510	1.005150	0.403953
C69	C	0.956102	0.703607	0.000119
C70	C	1.030971	0.601264	0.000126
C71	C	0.735507	0.703637	0.301614
C72	C	0.735509	0.601305	0.403945
C73	C	0.956107	0.703602	0.301639
C74	C	1.030979	0.601257	0.403978
C75	C	0.514897	1.306711	-0.301438
C76	C	0.440026	1.409056	-0.403777
C77	C	0.514903	1.306706	0.000082
C78	C	0.440033	1.409049	0.000075
C79	C	0.735497	1.306675	-0.301413
C80	C	0.735495	1.409008	-0.403744
C81	C	1.023053	0.553210	-0.058764
C82	C	1.093394	0.457062	-0.058780
C83	C	1.171653	0.408961	0.000100
C84	C	1.179569	0.457024	0.058991
C85	C	1.109229	0.553178	0.059001
C86	C	1.109222	0.553189	0.393165
C87	C	1.179578	0.457039	0.489314
C88	C	1.171690	0.408951	0.596276
C89	C	1.093438	0.457029	0.607087
C90	C	1.023084	0.553184	0.510939
C91	C	0.361782	1.457135	-0.392964
C92	C	0.291426	1.553316	-0.489113
C93	C	0.299315	1.601408	-0.596075
C94	C	0.377566	1.553324	-0.606886
C95	C	0.447921	1.457152	-0.510738
C96	C	0.447951	1.457112	0.058955
C97	C	0.377610	1.553288	0.058945
C98	C	0.299352	1.601391	0.000061
C99	C	0.291435	1.553324	-0.058826
C100	C	0.361775	1.457157	-0.058822
C101	C	0.778587	0.553219	0.510903
C102	C	0.778579	0.457075	0.607050
C103	C	0.692415	0.457108	0.489268
C104	C	0.692418	0.553257	0.393123
H105	H	0.657359	0.417935	0.106934
Cl106	Cl	1.260145	0.288066	0.717139
H107	H	1.087027	0.417862	0.694188
H108	H	0.813671	0.592341	0.519721
H109	H	0.511667	1.417954	0.106912
H110	H	0.657333	0.417974	0.480470
Cl111	Cl	0.832754	0.739331	-0.475489
H112	H	0.657353	0.592385	0.106930
H113	H	0.813668	0.791490	-0.305838
H114	H	0.813656	0.417930	0.694137
H115	H	0.221023	1.203275	-0.036562
H116	H	0.357706	0.831290	0.179863
Cl117	Cl	0.638273	1.270963	-0.741316
Cl118	Cl	0.351843	1.396696	-0.258509
Cl119	Cl	0.083988	1.233702	-0.017249
Cl120	Cl	0.082843	1.233274	-0.209649
Cl121	Cl	0.167260	1.002779	0.189775
H122	H	0.241682	0.830995	-0.004079
Cl123	Cl	0.638254	0.613720	0.258651
H124	H	0.227717	1.592449	-0.480289
H125	H	0.302111	0.983584	-0.141257
H126	H	0.959337	0.592373	-0.106725
H127	H	1.228921	0.330666	0.000084
Cl128	Cl	0.210931	1.722286	0.000070
H129	H	0.657330	1.218821	-0.519524
Cl130	Cl	1.119198	0.613567	0.133050
H131	H	0.813648	0.592367	-0.106731
H132	H	1.086932	0.417940	-0.106736
Cl133	Cl	0.546281	1.396711	-0.524351
H134	H	1.243296	0.417847	0.106929
Cl135	Cl	0.832728	0.396632	-0.132789
Cl136	Cl	1.119161	0.613630	0.258710
H137	H	0.959377	0.592309	0.519759
H138	H	0.384072	1.592408	0.106902
H139	H	0.220524	1.203329	-0.161633
Cl140	Cl	0.387469	1.613792	-0.741361
Cl141	Cl	0.193047	1.613805	-0.132840
H142	H	1.243288	0.417903	0.480492
H143	H	0.355317	1.418026	-0.106765
Cl144	Cl	0.210860	1.722309	-0.716938
H145	H	0.185789	0.985634	-0.142640
H146	H	0.357376	0.829819	-0.002701
Cl147	Cl	0.299686	1.014693	0.182523
Cl148	Cl	0.254091	0.770619	0.204690
