data_functionalizedCrystal
_audit_creation_method	'MofGen! by Chris Wilmer'
_symmetry_space_group_name_H-M	'P1'
_symmetry_Int_Tables_number	1
_symmetry_cell_setting	triclinic
loop_
_symmetry_equiv_pos_as_xyz
  x,y,z
_cell_length_a	15.944551
_cell_length_b	15.944551
_cell_length_c	15.021413
_cell_angle_alpha	89.996935
_cell_angle_beta	89.997174
_cell_angle_gamma	96.501262
loop_
_atom_site_label
_atom_site_type_symbol
_atom_site_fract_x
_atom_site_fract_y
_atom_site_fract_z
O1	O	1.114529	-0.108321	-0.073941
O2	O	1.447862	0.225012	0.259392
O3	O	1.781196	0.558346	0.592726
O4	O	0.869979	-0.121677	-0.073964
O5	O	1.203313	0.211656	0.259370
O6	O	1.536646	0.544990	0.592703
O7	O	0.998932	0.007276	-0.073944
O8	O	1.332265	0.340609	0.259390
O9	O	1.665599	0.673943	0.592723
O10	O	0.985576	-0.237274	-0.073961
O11	O	1.318909	0.096060	0.259372
O12	O	1.652243	0.429393	0.592706
O13	O	0.998912	0.007257	0.074121
O14	O	1.332245	0.340591	0.407454
O15	O	1.665578	0.673924	0.740787
O16	O	0.869959	-0.121695	0.074101
O17	O	1.203292	0.211638	0.407434
O18	O	1.536625	0.544971	0.740767
O19	O	1.114508	-0.108339	0.074123
O20	O	1.447842	0.224994	0.407456
O21	O	1.781175	0.558327	0.740790
Zn22	Zn	0.992230	-0.115020	0.097620
Zn23	Zn	1.325564	0.218313	0.430954
Zn24	Zn	1.658897	0.551646	0.764287
Zn25	Zn	0.992257	-0.114996	-0.097461
Zn26	Zn	1.325591	0.218337	0.235873
Zn27	Zn	1.658924	0.551671	0.569206
O28	O	0.985555	-0.237292	0.074103
O29	O	1.318889	0.096041	0.407437
O30	O	1.652222	0.429374	0.740770
C31	C	0.838675	-0.121132	0.000066
C32	C	1.172008	0.212202	0.333399
C33	C	1.505342	0.545535	0.666732
C34	C	0.745429	-0.119470	0.000057
C35	C	1.078762	0.213864	0.333391
C36	C	1.412096	0.547197	0.666724
C37	C	0.530572	-0.035565	0.000081
C38	C	0.863906	0.297768	0.333414
C39	C	1.197239	0.631102	0.666747
C40	C	0.469562	-0.074518	-0.072926
C41	C	0.802896	0.258815	0.260408
C42	C	1.136229	0.592148	0.593741
C43	C	0.574703	-0.116462	0.000068
C44	C	0.908036	0.216871	0.333402
C45	C	1.241370	0.550204	0.666735
C46	C	0.469564	-0.074556	0.073054
C47	C	0.802898	0.258778	0.406387
C48	C	1.136231	0.592111	0.739721
C49	C	0.409790	-0.113551	0.000083
C50	C	0.743124	0.219782	0.333416
C51	C	1.076457	0.553115	0.666749
C52	C	0.514921	-0.155438	-0.072998
C53	C	0.848255	0.177896	0.260335
C54	C	1.181588	0.511229	0.593668
C55	C	0.514930	-0.155464	0.073047
C56	C	0.848263	0.177870	0.406380
C57	C	1.181596	0.511203	0.739714
C58	C	0.453937	-0.194476	0.000023
C59	C	0.787271	0.138857	0.333356
C60	C	1.120604	0.472191	0.666690
C61	C	0.669705	-0.118137	0.000059
C62	C	1.003039	0.215197	0.333393
C63	C	1.336372	0.548530	0.666726
C64	C	0.314789	-0.111883	0.000085
C65	C	0.648123	0.221450	0.333418
C66	C	0.981456	0.554783	0.666752
C67	C	0.998367	0.038561	0.000089
C68	C	1.331701	0.371894	0.333422
C69	C	1.665034	0.705227	0.666755
C70	C	0.996705	0.131807	0.000089
C71	C	1.330038	0.465140	0.333422
C72	C	1.663372	0.798473	0.666756
C73	C	1.145813	-0.108885	0.000092
C74	C	1.479146	0.224449	0.333425
C75	C	1.812479	0.557782	0.666758
C76	C	1.239059	-0.110547	0.000094
C77	C	1.572392	0.222786	0.333428
C78	C	1.905725	0.556120	0.666761
C79	C	0.986120	-0.268577	0.000069
C80	C	1.319453	0.064756	0.333402
C81	C	1.652787	0.398090	0.666736
C82	C	0.987782	-0.361823	0.000063
C83	C	1.321116	-0.028490	0.333396
C84	C	1.654449	0.304844	0.666730
N85	N	0.992218	-0.115036	0.230758
N86	N	1.325551	0.218297	0.564091
N87	N	1.658885	0.551630	0.897425
C88	C	0.912801	0.346663	0.000069
C89	C	1.246134	0.679997	0.333402
C90	C	1.579467	1.013330	0.666736
C91	C	0.951753	0.407672	0.073077
C92	C	1.285086	0.741005	0.406410
C93	C	1.618420	1.074338	0.739744
C94	C	0.993698	0.302533	0.000082
C95	C	1.327031	0.635866	0.333415
C96	C	1.660365	0.969199	0.666748
C97	C	0.951792	0.407673	-0.072903
C98	C	1.285126	0.741006	0.260431
C99	C	1.618459	1.074340	0.593764
C100	C	0.990787	0.467445	0.000071
C101	C	1.324120	0.800779	0.333404
C102	C	1.657454	1.134112	0.666738
C103	C	1.032672	0.362313	0.073150
C104	C	1.366006	0.695646	0.406484
C105	C	1.699339	1.028979	0.739817
C106	C	1.032700	0.362308	-0.072895
C107	C	1.366034	0.695641	0.260438
C108	C	1.699367	1.028974	0.593772
C109	C	1.071711	0.423298	0.000131
C110	C	1.405045	0.756632	0.333464
C111	C	1.738378	1.089965	0.666798
C112	C	0.995372	0.207530	0.000089
C113	C	1.328706	0.540864	0.333422
C114	C	1.662039	0.874197	0.666755
C115	C	0.989119	0.562446	0.000070
C116	C	1.322452	0.895780	0.333404
C117	C	1.655785	1.229113	0.666737
N118	N	0.992276	-0.114973	-0.230598
N119	N	1.325610	0.218360	0.102735
N120	N	1.658943	0.551693	0.436068
C121	C	0.932581	-0.174636	0.470432
C122	C	1.265914	0.158697	0.803765
C123	C	1.599248	0.492031	1.137099
C124	C	1.008481	-0.190943	0.529772
C125	C	1.341815	0.142390	0.863105
C126	C	1.675148	0.475723	1.196439
C127	C	0.992239	-0.115015	0.412365
C128	C	1.325573	0.218318	0.745698
C129	C	1.658906	0.551651	1.079031
C130	C	0.916360	-0.098727	0.529766
C131	C	1.249693	0.234606	0.863100
C132	C	1.583026	0.567940	1.196433
C133	C	0.992253	-0.114997	0.587789
C134	C	1.325587	0.218336	0.921122
C135	C	1.658920	0.551670	1.254456
C136	C	1.068178	-0.131360	0.470398
C137	C	1.401511	0.201973	0.803732
C138	C	1.734845	0.535307	1.137065
C139	C	0.976006	-0.039111	0.470387
C140	C	1.309340	0.294222	0.803721
C141	C	1.642673	0.627556	1.137054
C142	C	1.051962	-0.055386	0.529701
C143	C	1.385295	0.277947	0.863034
C144	C	1.718628	0.611281	1.196368
C145	C	0.992230	-0.115028	0.311307
C146	C	1.325564	0.218305	0.644641
C147	C	1.658897	0.551639	0.977974
C148	C	0.992271	-0.114984	0.688844
C149	C	1.325605	0.218350	1.022177
C150	C	1.658938	0.551683	1.355511
H151	H	0.563905	0.031573	-0.000005
H152	H	0.897238	0.364906	0.333328
H153	H	1.230572	0.698240	0.666662
H154	H	0.534918	-0.189621	-0.134787
H155	H	0.868251	0.143713	0.198547
H156	H	1.201584	0.477046	0.531880
H157	H	1.022224	-0.255126	0.555856
H158	H	1.355557	0.078208	0.889190
H159	H	1.688891	0.411541	1.222523
H160	H	0.449470	-0.040332	0.134773
H161	H	0.782803	0.293001	0.468106
H162	H	1.116136	0.626334	0.801440
H163	H	0.852184	-0.084959	0.555847
H164	H	1.185517	0.248374	0.889180
H165	H	1.518850	0.581708	1.222513
H166	H	1.102474	-0.004956	0.555561
H167	H	1.435807	0.328378	0.888894
H168	H	1.769141	0.661711	1.222228
Cl169	Cl	0.809130	0.295238	0.000166
Cl170	Cl	1.142464	0.628572	0.333499
Cl171	Cl	1.475797	0.961905	0.666833
Cl172	Cl	0.438528	-0.021683	-0.168214
Cl173	Cl	0.771861	0.311650	0.165120
Cl174	Cl	1.105194	0.644984	0.498453
Cl175	Cl	0.402738	-0.298236	-0.000044
Cl176	Cl	0.736071	0.035097	0.333289
Cl177	Cl	1.069404	0.368431	0.666622
H178	H	0.917574	0.427758	-0.134630
H179	H	1.250907	0.761091	0.198704
H180	H	1.584241	1.094424	0.532037
Cl181	Cl	0.854768	-0.252539	0.430247
Cl182	Cl	1.188101	0.080794	0.763580
Cl183	Cl	1.521435	0.414128	1.096913
Cl184	Cl	0.954752	0.059951	0.430079
Cl185	Cl	1.288086	0.393284	0.763412
Cl186	Cl	1.621419	0.726617	1.096746
Cl187	Cl	0.546002	-0.208259	0.168338
Cl188	Cl	0.879336	0.125074	0.501672
Cl189	Cl	1.212669	0.458407	0.835005
H190	H	1.066851	0.342314	0.134941
H191	H	1.400184	0.675648	0.468274
H192	H	1.733518	1.008981	0.801607
H193	H	1.138919	0.456457	0.000178
H194	H	1.472252	0.789790	0.333512
H195	H	1.805585	1.123124	0.666845
H196	H	0.917528	0.427772	0.134794
H197	H	1.250861	0.761106	0.468127
H198	H	1.584195	1.094439	0.801460
Cl199	Cl	1.085496	0.331236	-0.168186
Cl200	Cl	1.418830	0.664569	0.165147
Cl201	Cl	1.752163	0.997903	0.498481
Cl202	Cl	1.167285	-0.152735	0.430311
Cl203	Cl	1.500618	0.180599	0.763645
Cl204	Cl	1.833951	0.513932	1.096978
