data_functionalizedCrystal
_audit_creation_method	'MofGen! by Chris Wilmer'
_symmetry_space_group_name_H-M	'P1'
_symmetry_Int_Tables_number	1
_symmetry_cell_setting	triclinic
loop_
_symmetry_equiv_pos_as_xyz
  x,y,z
_cell_length_a	19.805407
_cell_length_b	21.295417
_cell_length_c	19.805399
_cell_angle_alpha	90.029796
_cell_angle_beta	90.019573
_cell_angle_gamma	90.029702
loop_
_atom_site_label
_atom_site_type_symbol
_atom_site_fract_x
_atom_site_fract_y
_atom_site_fract_z
Zn1	Zn	1.034720	-0.250624	0.382709
Zn2	Zn	1.034629	-0.355893	0.269517
Zn3	Zn	0.921535	-0.250641	0.269534
Zn4	Zn	0.921492	-0.355859	0.382663
O5	O	0.978094	-0.303254	0.326106
O6	O	1.129425	-0.264595	0.367706
O7	O	1.019606	-0.341952	0.174802
O8	O	0.936605	-0.162549	0.284573
O9	O	1.129357	-0.341935	0.284544
O10	O	1.019762	-0.162537	0.367723
O11	O	0.936517	-0.264624	0.174815
O12	O	0.826813	-0.264592	0.284529
O13	O	0.936532	-0.341878	0.477386
O14	O	0.826781	-0.341895	0.367644
O15	O	1.019721	-0.264562	0.477420
O16	O	1.019564	-0.443977	0.284499
O17	O	0.936443	-0.443953	0.367628
C18	C	0.802238	-0.303242	0.326084
C19	C	0.727006	-0.303252	0.326091
C20	C	0.978008	-0.466806	0.326071
C21	C	0.978033	-0.536774	0.326079
C22	C	0.691663	-0.343564	0.369299
C23	C	0.620975	-0.343566	0.369308
C24	C	0.585630	-0.303257	0.326106
C25	C	0.620978	-0.262940	0.282895
C26	C	0.691665	-0.262936	0.282890
C27	C	0.335905	-0.262954	0.282918
C28	C	0.265213	-0.262962	0.282925
C29	C	0.265214	-0.343583	0.369336
C30	C	0.335901	-0.343579	0.369331
C31	C	0.371243	-0.303261	0.326123
C32	C	0.447891	-0.303259	0.326114
C33	C	0.508983	-0.303261	0.326111
C34	C	1.021308	-0.569577	0.369406
C35	C	1.021331	-0.635319	0.369423
C36	C	0.978087	-0.668256	0.326101
C37	C	0.934804	-0.635446	0.282771
C38	C	0.934777	-0.569704	0.282760
N39	N	0.972976	-0.771518	0.266865
N40	N	0.973006	-0.833969	0.266877
C41	C	0.978167	-0.866331	0.326131
N42	N	0.983309	-0.833882	0.385374
N43	N	0.983283	-0.771425	0.385362
C44	C	0.978112	-0.739542	0.326108
C45	C	1.021470	-0.970419	0.369480
C46	C	1.021489	-1.036163	0.369498
C47	C	0.934965	-1.036288	0.282840
C48	C	0.934942	-0.970546	0.282828
C49	C	0.978198	-0.937615	0.326147
C50	C	1.154637	-0.303267	0.326128
C51	C	1.229869	-0.303272	0.326138
C52	C	0.978132	-0.303214	0.502649
C53	C	0.978148	-0.303198	0.577881
C54	C	0.978199	-0.139064	0.326155
C55	C	0.978244	-0.069096	0.326176
C56	C	0.978095	-0.303248	0.150250
C57	C	0.978210	-0.303088	0.075018
C58	C	1.021465	-0.262937	0.613243
C59	C	1.021472	-0.262919	0.683932
C60	C	0.978165	-0.303165	0.719256
C61	C	0.934843	-0.343427	0.683888
C62	C	0.934833	-0.343441	0.613201
C63	C	0.934881	-0.343368	0.968962
C64	C	0.934896	-0.343352	1.039654
C65	C	1.021520	-0.262846	1.039692
C66	C	1.021510	-0.262860	0.969005
C67	C	0.978186	-0.303120	0.933644
C68	C	0.978178	-0.303138	0.856995
C69	C	0.978176	-0.303150	0.795903
H70	H	0.720435	-0.376390	0.404477
H71	H	0.364672	-0.230129	0.247731
C72	C	0.887908	-0.387150	1.077920
C73	C	0.902585	-0.449438	1.060694
C74	C	0.859312	-0.489799	1.095923
H75	H	0.894078	-0.381462	1.125093
H76	H	0.842424	-0.377970	1.066317
H77	H	0.948058	-0.458615	1.072301
H78	H	0.896411	-0.455145	1.013527
H79	H	0.813828	-0.480619	1.084321
H80	H	0.865485	-0.484106	1.143095
H81	H	0.869260	-0.532066	1.084236
C82	C	0.582571	-0.387234	0.416303
C83	C	0.542040	-0.351653	0.459779
C84	C	0.506663	-0.391861	0.503088
H85	H	0.554915	-0.414644	0.390438
H86	H	0.613727	-0.411230	0.442066
H87	H	0.510888	-0.327668	0.434019
H88	H	0.569679	-0.324245	0.485659
H89	H	0.537818	-0.415856	0.528852
H90	H	0.479011	-0.419268	0.477218
H91	H	0.479163	-0.367725	0.532596
H92	H	0.364675	-0.376405	0.404509
C93	C	0.887953	-0.387119	0.930497
C94	C	0.926233	-0.427473	0.889894
C95	C	0.883022	-0.467782	0.854445
H96	H	0.862153	-0.411142	0.961590
H97	H	0.858479	-0.363061	0.902888
H98	H	0.955696	-0.451528	0.917501
H99	H	0.952032	-0.403468	0.858789
H100	H	0.853548	-0.443725	0.826836
H101	H	0.857225	-0.491800	0.885542
H102	H	0.908989	-0.495163	0.826887
C103	C	0.226720	-0.387286	0.416230
C104	C	0.157250	-0.378652	0.407006
C105	C	0.121770	-0.418894	0.450196
H106	H	0.238197	-0.429594	0.406280
H107	H	0.238292	-0.378123	0.461738
H108	H	0.145682	-0.387819	0.361508
H109	H	0.145752	-0.336352	0.416960
H110	H	0.133342	-0.409731	0.495704
H111	H	0.133253	-0.461199	0.440243
H112	H	0.074631	-0.413037	0.443948
C113	C	1.068440	-1.071698	0.416650
C114	C	1.053677	-1.055662	0.483603
C115	C	1.096922	-1.088378	0.527057
H116	H	1.062305	-1.115578	0.410549
H117	H	1.113928	-1.060878	0.406818
H118	H	1.008200	-1.066486	0.493432
H119	H	1.059815	-1.011788	0.489726
H120	H	1.142410	-1.077558	0.517225
H121	H	1.090784	-1.132256	0.520950
H122	H	1.086916	-1.077498	0.572489
C123	C	1.068580	-0.219186	0.722204
C124	C	1.106521	-0.183959	0.676139
C125	C	1.149932	-0.143670	0.711369
H126	H	1.042789	-0.191692	0.749784
H127	H	1.098094	-0.243251	0.749763
H128	H	1.077011	-0.159896	0.648591
H129	H	1.132326	-0.211437	0.648557
H130	H	1.179445	-0.167735	0.738929
H131	H	1.124135	-0.116180	0.738949
H132	H	1.175684	-0.119768	0.680120
C133	C	1.068414	-0.219117	0.930573
C134	C	1.030100	-0.178789	0.889992
C135	C	1.073280	-0.138483	0.854576
H136	H	1.094223	-0.195075	0.961686
H137	H	1.097880	-0.243178	0.902952
H138	H	1.000645	-0.154730	0.917610
H139	H	1.004292	-0.202813	0.858867
H140	H	1.102747	-0.162543	0.826955
H141	H	1.099087	-0.114445	0.885693
H142	H	1.047291	-0.111119	0.827032
H143	H	0.592195	-0.230118	0.247722
C144	C	0.887862	-0.387225	0.722153
C145	C	0.902545	-0.449512	0.704927
C146	C	0.859275	-0.489877	0.740154
H147	H	0.894030	-0.381537	0.769327
H148	H	0.842377	-0.378049	0.710549
H149	H	0.948019	-0.458685	0.716535
H150	H	0.896373	-0.455219	0.657759
H151	H	0.813790	-0.480701	0.728551
H152	H	0.865446	-0.484184	0.787326
H153	H	0.869228	-0.532143	0.728467
H154	H	1.056565	-0.662032	0.404713
H155	H	0.899553	-0.376219	0.584410
H156	H	0.236437	-0.230134	0.247744
H157	H	0.899593	-0.662267	0.247499
H158	H	1.056794	-0.230062	1.068492
H159	H	0.720441	-0.230107	0.247709
H160	H	1.056527	-0.542767	0.404681
H161	H	1.056689	-0.943606	0.404755
C162	C	0.887683	-0.534166	0.235753
C163	C	0.820712	-0.550213	0.250420
C164	C	0.777313	-0.517493	0.207124
H165	H	0.893770	-0.490287	0.241906
H166	H	0.897579	-0.544975	0.190275
H167	H	0.810820	-0.539400	0.295887
H168	H	0.814604	-0.594087	0.244263
H169	H	0.787209	-0.528302	0.161646
H170	H	0.783406	-0.473616	0.213281
H171	H	0.731869	-0.528381	0.217066
H172	H	0.899707	-0.943836	0.247544
C173	C	0.888081	-1.072154	0.235834
C174	C	0.897374	-1.136749	0.245108
C175	C	0.854198	-1.169811	0.201815
H176	H	0.842568	-1.061484	0.245657
H177	H	0.898012	-1.061439	0.190348
H178	H	0.887439	-1.147459	0.290584
H179	H	0.942879	-1.147437	0.235280
H180	H	0.864129	-1.159096	0.156328
H181	H	0.808688	-1.159136	0.211641
H182	H	0.860502	-1.213642	0.208096
H183	H	1.056733	-0.230166	0.584487
