data_functionalizedCrystal
_audit_creation_method	'MofGen! by Chris Wilmer'
_symmetry_space_group_name_H-M	'P1'
_symmetry_Int_Tables_number	1
_symmetry_cell_setting	triclinic
loop_
_symmetry_equiv_pos_as_xyz
  x,y,z
_cell_length_a	21.295417
_cell_length_b	21.395364
_cell_length_c	21.395355
_cell_angle_alpha	90.025298
_cell_angle_beta	89.978549
_cell_angle_gamma	89.952792
loop_
_atom_site_label
_atom_site_type_symbol
_atom_site_fract_x
_atom_site_fract_y
_atom_site_fract_z
Zn1	Zn	-0.250402	-0.957860	-0.354261
Zn2	Zn	0.082932	-0.624527	-0.020928
Zn3	Zn	0.416265	-0.291193	0.312405
Zn4	Zn	-0.355653	-0.957763	-0.249478
Zn5	Zn	-0.022320	-0.624430	0.083855
Zn6	Zn	0.311014	-0.291096	0.417188
Zn7	Zn	-0.250432	-0.853075	-0.249497
Zn8	Zn	0.082901	-0.519742	0.083837
Zn9	Zn	0.416234	-0.186408	0.417170
Zn10	Zn	-0.355668	-0.853045	-0.354217
Zn11	Zn	-0.022334	-0.519711	-0.020884
Zn12	Zn	0.310999	-0.186378	0.312450
O13	O	-0.303039	-0.905436	-0.301863
O14	O	0.030295	-0.572102	0.031470
O15	O	0.363628	-0.238769	0.364803
O16	O	-0.264345	-1.045525	-0.340372
O17	O	0.068989	-0.712192	-0.007039
O18	O	0.402322	-0.378858	0.326294
O19	O	-0.341702	-0.943848	-0.161803
O20	O	-0.008369	-0.610515	0.171530
O21	O	0.324964	-0.277181	0.504864
O22	O	-0.162339	-0.867028	-0.263420
O23	O	0.170994	-0.533695	0.069913
O24	O	0.504328	-0.200362	0.403247
O25	O	-0.341672	-1.045454	-0.263389
O26	O	-0.008339	-0.712120	0.069945
O27	O	0.324994	-0.378787	0.403278
O28	O	-0.162316	-0.944014	-0.340390
O29	O	0.171017	-0.610680	-0.007057
O30	O	0.504350	-0.277347	0.326277
O31	O	-0.264397	-0.866934	-0.161816
O32	O	0.068936	-0.533601	0.171517
O33	O	0.402270	-0.200268	0.504850
O34	O	-0.264411	-0.765393	-0.263377
O35	O	0.068922	-0.432060	0.069956
O36	O	0.402256	-0.098726	0.403290
O37	O	-0.341697	-0.866977	-0.441901
O38	O	-0.008364	-0.533643	-0.108568
O39	O	0.324970	-0.200310	0.224766
O40	O	-0.341727	-0.765371	-0.340315
O41	O	-0.008394	-0.432037	-0.006982
O42	O	0.324940	-0.098704	0.326352
O43	O	-0.264359	-0.943984	-0.441933
O44	O	0.068975	-0.610651	-0.108600
O45	O	0.402308	-0.277317	0.224733
O46	O	-0.443744	-0.943818	-0.263346
O47	O	-0.110411	-0.610485	0.069987
O48	O	0.222922	-0.277152	0.403321
O49	O	-0.443755	-0.866882	-0.340297
O50	O	-0.110422	-0.533549	-0.006964
O51	O	0.222912	-0.200216	0.326369
C52	C	-0.303074	-0.742648	-0.301844
C53	C	0.030259	-0.409315	0.031490
C54	C	0.363592	-0.075981	0.364823
C55	C	-0.303105	-0.673007	-0.301850
C56	C	0.030229	-0.339673	0.031483
C57	C	0.363562	-0.006340	0.364817
C58	C	-0.262907	-0.640353	-0.341997
C59	C	0.070426	-0.307020	-0.008663
C60	C	0.403760	0.026313	0.324670
C61	C	-0.262892	-0.574918	-0.341998
C62	C	0.070441	-0.241584	-0.008665
C63	C	0.403774	0.091749	0.324668
C64	C	-0.303086	-0.542138	-0.301860
C65	C	0.030247	-0.208805	0.031474
C66	C	0.363580	0.124528	0.364807
C67	C	-0.343287	-0.574800	-0.261705
C68	C	-0.009954	-0.241467	0.071628
C69	C	0.323380	0.091867	0.404962
C70	C	-0.343296	-0.640234	-0.261700
C71	C	-0.009963	-0.306901	0.071633
C72	C	0.323371	0.026433	0.404966
C73	C	-0.359779	-0.438414	-0.296818
C74	C	-0.026446	-0.105081	0.036515
C75	C	0.306888	0.228252	0.369849
C76	C	-0.359771	-0.372981	-0.296827
C77	C	-0.026438	-0.039648	0.036506
C78	C	0.306896	0.293685	0.369840
C79	C	-0.303058	-0.340318	-0.301871
C80	C	0.030275	-0.006984	0.031462
C81	C	0.363609	0.326349	0.364796
C82	C	-0.246351	-0.373095	-0.306919
C83	C	0.086982	-0.039762	0.026415
C84	C	0.420315	0.293572	0.359748
C85	C	-0.246360	-0.438529	-0.306914
C86	C	0.086973	-0.105196	0.026419
C87	C	0.420306	0.228137	0.359753
C88	C	-0.303081	-0.471186	-0.301860
C89	C	0.030253	-0.137853	0.031473
C90	C	0.363586	0.195481	0.364806
C91	C	-0.262841	-0.236712	-0.342022
C92	C	0.070492	0.096622	-0.008688
C93	C	0.403826	0.429955	0.324645
C94	C	-0.262825	-0.171275	-0.342019
C95	C	0.070508	0.162058	-0.008686
C96	C	0.403842	0.495392	0.324648
C97	C	-0.343225	-0.171158	-0.261729
C98	C	-0.009892	0.162175	0.071604
C99	C	0.323441	0.495508	0.404938
C100	C	-0.343236	-0.236594	-0.261728
C101	C	-0.009902	0.096740	0.071605
C102	C	0.323431	0.430073	0.404938
C103	C	-0.303044	-0.269366	-0.301878
C104	C	0.030289	0.063967	0.031455
C105	C	0.363622	0.397300	0.364789
C106	C	-0.466590	-0.905354	-0.301829
C107	C	-0.133257	-0.572020	0.031505
C108	C	0.200076	-0.238687	0.364838
C109	C	-0.536558	-0.905376	-0.301835
C110	C	-0.203225	-0.572042	0.031499
C111	C	0.130108	-0.238709	0.364832
C112	C	-0.569399	-0.945472	-0.261807
C113	C	-0.236065	-0.612139	0.071526
C114	C	0.097268	-0.278805	0.404859
C115	C	-0.635141	-0.945501	-0.261821
C116	C	-0.301808	-0.612168	0.071512
C117	C	0.031526	-0.278835	0.404845
C118	C	-0.668041	-0.905423	-0.301856
C119	C	-0.334708	-0.572090	0.031477
C120	C	-0.001374	-0.238757	0.364810
C121	C	-0.635193	-0.865324	-0.341892
C122	C	-0.301859	-0.531991	-0.008558
C123	C	0.031474	-0.198658	0.324775
C124	C	-0.569452	-0.865300	-0.341881
C125	C	-0.236118	-0.531967	-0.008547
C126	C	0.097215	-0.198634	0.324786
N127	N	-0.771324	-0.850613	-0.306626
N128	N	-0.437990	-0.517280	0.026707
N129	N	-0.104657	-0.183947	0.360040
N130	N	-0.833775	-0.850638	-0.306633
N131	N	-0.500442	-0.517305	0.026701
N132	N	-0.167108	-0.183971	0.360034
C133	C	-0.866116	-0.905493	-0.301892
C134	C	-0.532782	-0.572160	0.031441
C135	C	-0.199449	-0.238827	0.364774
N136	N	-0.833645	-0.960325	-0.297133
N137	N	-0.500312	-0.626992	0.036201
N138	N	-0.166979	-0.293658	0.369534
N139	N	-0.771188	-0.960300	-0.297123
N140	N	-0.437855	-0.626967	0.036211
N141	N	-0.104522	-0.293633	0.369544
C142	C	-0.739326	-0.905445	-0.301873
C143	C	-0.405993	-0.572112	0.031461
C144	C	-0.072660	-0.238778	0.364794
C145	C	-0.970241	-0.945625	-0.261878
C146	C	-0.636908	-0.612292	0.071455
C147	C	-0.303575	-0.278958	0.404789
C148	C	-1.035985	-0.945655	-0.261896
C149	C	-0.702652	-0.612322	0.071437
C150	C	-0.369318	-0.278989	0.404770
C151	C	-1.036035	-0.865473	-0.341963
C152	C	-0.702702	-0.532139	-0.008630
C153	C	-0.369369	-0.198806	0.324703
C154	C	-0.970293	-0.865448	-0.341948
C155	C	-0.636960	-0.532115	-0.008615
C156	C	-0.303626	-0.198781	0.324719
C157	C	-0.937400	-0.905523	-0.301902
C158	C	-0.604066	-0.572190	0.031431
C159	C	-0.270733	-0.238856	0.364765
C160	C	-0.138848	-0.905535	-0.301912
C161	C	0.194485	-0.572202	0.031421
C162	C	0.527818	-0.238869	0.364755
C163	C	-0.068880	-0.905578	-0.301933
C164	C	0.264453	-0.572244	0.031401
C165	C	0.597786	-0.238911	0.364734
C166	C	-0.303026	-0.905488	-0.465287
C167	C	0.030307	-0.572154	-0.131953
C168	C	0.363641	-0.238821	0.201380
C169	C	-0.303020	-0.905510	-0.534928
C170	C	0.030313	-0.572177	-0.201595
C171	C	0.363646	-0.238843	0.131739
C172	C	-0.303011	-0.068859	-0.301880
C173	C	0.030322	0.264474	0.031453
C174	C	0.363656	0.597808	0.364786
C175	C	-0.303019	-0.138500	-0.301879
C176	C	0.030314	0.194833	0.031454
C177	C	0.363648	0.528166	0.364788
C178	C	-0.262749	-0.945606	-0.567659
C179	C	0.070585	-0.612273	-0.234326
C180	C	0.403918	-0.278939	0.099008
C181	C	-0.262722	-0.945605	-0.633094
C182	C	0.070612	-0.612272	-0.299761
C183	C	0.403945	-0.278938	0.033572
C184	C	-0.302978	-0.905515	-0.665796
C185	C	0.030356	-0.572181	-0.332463
C186	C	0.363689	-0.238848	0.000870
C187	C	-0.343252	-0.865411	-0.633057
C188	C	-0.009919	-0.532078	-0.299724
C189	C	0.323414	-0.198744	0.033609
C190	C	-0.343274	-0.865408	-0.567623
C191	C	-0.009940	-0.532075	-0.234290
C192	C	0.323393	-0.198742	0.099043
C193	C	-0.359659	-0.900539	-0.769459
C194	C	-0.026326	-0.567206	-0.436126
C195	C	0.307008	-0.233872	-0.102792
C196	C	-0.359639	-0.900546	-0.834892
C197	C	-0.026305	-0.567213	-0.501559
C198	C	0.307028	-0.233879	-0.168225
C199	C	-0.302911	-0.905519	-0.867617
C200	C	0.030422	-0.572185	-0.534284
C201	C	0.363756	-0.238852	-0.200951
C202	C	-0.246202	-0.910498	-0.834901
C203	C	0.087131	-0.577164	-0.501568
C204	C	0.420465	-0.243831	-0.168235
C205	C	-0.246223	-0.910495	-0.769467
C206	C	0.087110	-0.577162	-0.436134
C207	C	0.420443	-0.243829	-0.102801
C208	C	-0.302959	-0.905513	-0.736749
C209	C	0.030375	-0.572179	-0.403415
C210	C	0.363708	-0.238846	-0.070082
C211	C	-0.262606	-0.945616	-0.971301
C212	C	0.070727	-0.612283	-0.637967
C213	C	0.404060	-0.278949	-0.304634
C214	C	-0.262578	-0.945611	-1.036737
C215	C	0.070755	-0.612277	-0.703404
C216	C	0.404088	-0.278944	-0.370071
C217	C	-0.343115	-0.865420	-1.036699
C218	C	-0.009781	-0.532086	-0.703366
C219	C	0.323552	-0.198753	-0.370033
C220	C	-0.343137	-0.865422	-0.971264
C221	C	-0.009804	-0.532088	-0.637931
C222	C	0.323530	-0.198755	-0.304597
C223	C	-0.302884	-0.905523	-0.938569
C224	C	0.030449	-0.572190	-0.605235
C225	C	0.363783	-0.238856	-0.271902
C226	C	-0.303006	-0.905420	-0.139076
C227	C	0.030327	-0.572087	0.194258
C228	C	0.363661	-0.238753	0.527591
C229	C	-0.302834	-0.905519	-0.069435
C230	C	0.030499	-0.572186	0.263898
C231	C	0.363833	-0.238853	0.597232
H232	H	-0.200188	-0.465214	-0.311022
H233	H	0.133146	-0.131881	0.022311
H234	H	0.466479	0.201453	0.355645
H235	H	-0.405842	-0.896322	-0.742820
H236	H	-0.072509	-0.562989	-0.409486
H237	H	0.260825	-0.229655	-0.076153
Cl238	Cl	-0.212000	-0.996025	-0.930195
Cl239	Cl	0.121333	-0.662691	-0.596862
Cl240	Cl	0.454666	-0.329358	-0.263528
Cl241	Cl	-0.431059	-0.331782	-0.290492
Cl242	Cl	-0.097726	0.001551	0.042842
Cl243	Cl	0.235607	0.334884	0.376175
Cl244	Cl	-0.393833	-0.681287	-0.211224
Cl245	Cl	-0.060500	-0.347953	0.122109
Cl246	Cl	0.272834	-0.014620	0.455443
H247	H	-0.375935	-0.832775	-0.944614
H248	H	-0.042601	-0.499442	-0.611281
H249	H	0.290732	-0.166108	-0.277947
Cl250	Cl	-0.431082	-0.479470	-0.290468
Cl251	Cl	-0.097749	-0.146137	0.042865
Cl252	Cl	0.235585	0.187196	0.376199
Cl253	Cl	-0.528051	-0.995861	-0.211473
Cl254	Cl	-0.194717	-0.662528	0.121860
Cl255	Cl	0.138616	-0.329195	0.455194
Cl256	Cl	-0.928887	-0.996004	-0.211535
Cl257	Cl	-0.595554	-0.662670	0.121798
Cl258	Cl	-0.262220	-0.329337	0.455131
H259	H	-0.375952	-0.144470	-0.229047
H260	H	-0.042619	0.188863	0.104286
H261	H	0.290714	0.522196	0.437620
H262	H	-0.405815	-0.896495	-0.861524
H263	H	-0.072481	-0.563162	-0.528191
H264	H	0.260852	-0.229829	-0.194857
H265	H	-1.062722	-0.978310	-0.229303
H266	H	-0.729389	-0.644977	0.104031
H267	H	-0.396056	-0.311644	0.437364
Cl268	Cl	-0.929006	-0.815035	-0.392268
Cl269	Cl	-0.595672	-0.481702	-0.058935
Cl270	Cl	-0.262339	-0.148368	0.274398
Cl271	Cl	-0.393857	-0.815009	-0.674167
Cl272	Cl	-0.060524	-0.481676	-0.340834
Cl273	Cl	0.272809	-0.148343	-0.007501
H274	H	-0.229781	-0.978261	-1.063386
H275	H	0.103553	-0.644927	-0.730053
H276	H	0.436886	-0.311594	-0.396719
Cl277	Cl	-0.174936	-0.916750	-0.728341
Cl278	Cl	0.158398	-0.583416	-0.395008
Cl279	Cl	0.491731	-0.250083	-0.061674
Cl280	Cl	-0.393814	-0.533593	-0.211242
Cl281	Cl	-0.060481	-0.200259	0.122091
Cl282	Cl	0.272853	0.133074	0.455425
H283	H	-0.230111	-0.263397	-0.374710
H284	H	0.103223	0.069937	-0.041377
H285	H	0.436556	0.403270	0.291957
H286	H	-0.229971	-0.978259	-0.541042
H287	H	0.103363	-0.644926	-0.207709
H288	H	0.436696	-0.311592	0.125624
Cl289	Cl	-0.212283	-0.130224	-0.392491
Cl290	Cl	0.121050	0.203109	-0.059158
Cl291	Cl	0.454383	0.536443	0.274175
Cl292	Cl	-0.676435	-0.995911	-0.211496
Cl293	Cl	-0.343101	-0.662577	0.121837
Cl294	Cl	-0.009768	-0.329244	0.455170
Cl295	Cl	-0.212078	-0.996003	-0.674251
Cl296	Cl	0.121256	-0.662670	-0.340917
Cl297	Cl	0.454589	-0.329336	-0.007584
Cl298	Cl	-0.174882	-0.916752	-0.876034
Cl299	Cl	0.158451	-0.583419	-0.542701
Cl300	Cl	0.491784	-0.250086	-0.209367
H301	H	-0.661984	-0.832694	-0.374489
H302	H	-0.328651	-0.499360	-0.041156
H303	H	0.004683	-0.166027	0.292177
H304	H	-0.542712	-0.832649	-0.374477
H305	H	-0.209379	-0.499315	-0.041143
H306	H	0.123954	-0.165982	0.292190
Cl307	Cl	-1.077389	-0.815092	-0.392298
Cl308	Cl	-0.744056	-0.481759	-0.058965
Cl309	Cl	-0.410722	-0.148426	0.274369
Cl310	Cl	-0.393717	-0.815014	-1.077804
Cl311	Cl	-0.060384	-0.481681	-0.744471
Cl312	Cl	0.272949	-0.148347	-0.411137
H313	H	-0.230180	-0.667033	-0.374689
H314	H	0.103154	-0.333699	-0.041356
H315	H	0.436487	-0.000366	0.291977
Cl316	Cl	-0.175049	-0.332040	-0.313259
Cl317	Cl	0.158284	0.001293	0.020074
Cl318	Cl	0.491617	0.334627	0.353408
Cl319	Cl	-0.212354	-0.533859	-0.392472
Cl320	Cl	0.120980	-0.200525	-0.059139
Cl321	Cl	0.454313	0.132808	0.274195
Cl322	Cl	-0.393770	-0.277646	-0.211252
Cl323	Cl	-0.060437	0.055687	0.122081
Cl324	Cl	0.272897	0.389020	0.455414
H325	H	-0.376067	-0.832755	-0.540974
H326	H	-0.042734	-0.499421	-0.207641
H327	H	0.290600	-0.166088	0.125693
