data_functionalizedCrystal
_audit_creation_method	'MofGen! by Chris Wilmer'
_symmetry_space_group_name_H-M	'P1'
_symmetry_Int_Tables_number	1
_symmetry_cell_setting	triclinic
loop_
_symmetry_equiv_pos_as_xyz
  x,y,z
_cell_length_a	25.639242
_cell_length_b	25.639240
_cell_length_c	25.639234
_cell_angle_alpha	89.967912
_cell_angle_beta	89.978465
_cell_angle_gamma	90.025061
loop_
_atom_site_label
_atom_site_type_symbol
_atom_site_fract_x
_atom_site_fract_y
_atom_site_fract_z
Zn1	Zn	0.799284	-0.208290	-0.295607
Zn2	Zn	1.299284	0.291710	0.204393
Zn3	Zn	0.799205	-0.295718	-0.208160
Zn4	Zn	1.299205	0.204282	0.291840
Zn5	Zn	0.711849	-0.208287	-0.208183
Zn6	Zn	1.211849	0.291713	0.291817
Zn7	Zn	0.711814	-0.295684	-0.295562
Zn8	Zn	1.211814	0.204316	0.204438
O9	O	0.755538	-0.251995	-0.251878
O10	O	1.255538	0.248005	0.248122
O11	O	0.872438	-0.219903	-0.284016
O12	O	1.372438	0.280097	0.215984
O13	O	0.787599	-0.284133	-0.134998
O14	O	1.287599	0.215867	0.365002
O15	O	0.723495	-0.135122	-0.219808
O16	O	1.223495	0.364878	0.280192
O17	O	0.872381	-0.284136	-0.219770
O18	O	1.372381	0.215864	0.280230
O19	O	0.787733	-0.135124	-0.284038
O20	O	1.287733	0.364876	0.215962
O21	O	0.723419	-0.219898	-0.135015
O22	O	1.223419	0.280102	0.364985
O23	O	0.638679	-0.219865	-0.219765
O24	O	1.138679	0.280135	0.280235
O25	O	0.723435	-0.284079	-0.368733
O26	O	1.223435	0.215921	0.131267
O27	O	0.638654	-0.284076	-0.283962
O28	O	1.138654	0.215924	0.216038
O29	O	0.787699	-0.219870	-0.368766
O30	O	1.287699	0.280130	0.131234
O31	O	0.787565	-0.368879	-0.219726
O32	O	1.287565	0.131121	0.280274
O33	O	0.723359	-0.368854	-0.283940
O34	O	1.223359	0.131146	0.216060
C35	C	0.619695	-0.251967	-0.251861
C36	C	1.119695	0.248033	0.248139
C37	C	0.561581	-0.251967	-0.251867
C38	C	1.061581	0.248033	0.248133
C39	C	0.755464	-0.387837	-0.251837
C40	C	1.255464	0.112163	0.248163
C41	C	0.755480	-0.445951	-0.251837
C42	C	1.255480	0.054049	0.248163
C43	C	0.310426	-0.218608	-0.285392
C44	C	0.810426	0.281392	0.214608
C45	C	0.365030	-0.218603	-0.285390
C46	C	0.865030	0.281397	0.214610
O47	O	0.393299	-0.190217	-0.313891
O48	O	0.893299	0.309783	0.186109
N49	N	0.392307	-0.251989	-0.251884
N50	N	0.892307	0.248011	0.248116
C51	C	0.364978	-0.285386	-0.218383
C52	C	0.864978	0.214614	0.281617
O53	O	0.393193	-0.313783	-0.189885
O54	O	0.893193	0.186217	0.310115
C55	C	0.310374	-0.285393	-0.218389
C56	C	0.810374	0.214607	0.281611
C57	C	0.283100	-0.252001	-0.251893
C58	C	0.783100	0.247999	0.248107
C59	C	0.283152	-0.185219	-0.318894
C60	C	0.783152	0.314781	0.181106
C61	C	0.228551	-0.185224	-0.318896
C62	C	0.728551	0.314776	0.181104
C63	C	0.201225	-0.218617	-0.285397
C64	C	0.701225	0.281383	0.214603
C65	C	0.228499	-0.252006	-0.251895
C66	C	0.728499	0.247994	0.248105
C67	C	0.283045	-0.318792	-0.184892
C68	C	0.783045	0.181208	0.315108
C69	C	0.228438	-0.318797	-0.184901
C70	C	0.728438	0.181203	0.315099
C71	C	0.201164	-0.285405	-0.218405
C72	C	0.701164	0.214595	0.281595
C73	C	0.146573	-0.285404	-0.218398
C74	C	0.646573	0.214596	0.281602
N75	N	0.119295	-0.252018	-0.251904
N76	N	0.619295	0.247982	0.248096
C77	C	0.146622	-0.218625	-0.285403
C78	C	0.646622	0.281375	0.214597
C79	C	0.479648	-0.285368	-0.218374
C80	C	0.979648	0.214632	0.281626
C81	C	0.534250	-0.285359	-0.218365
C82	C	1.034250	0.214641	0.281635
C83	C	0.534299	-0.218576	-0.285372
C84	C	1.034299	0.281424	0.214628
C85	C	0.479696	-0.218584	-0.285378
C86	C	0.979696	0.281416	0.214622
C87	C	0.452371	-0.251982	-0.251879
C88	C	0.952371	0.248018	0.248121
C89	C	0.031956	-0.218637	-0.285404
C90	C	0.531956	0.281363	0.214596
C91	C	-0.022649	-0.218643	-0.285402
C92	C	0.477351	0.281357	0.214598
C93	C	-0.022693	-0.285427	-0.218397
C94	C	0.477307	0.214573	0.281603
C95	C	0.031907	-0.285419	-0.218398
C96	C	0.531907	0.214581	0.281602
C97	C	0.059231	-0.252022	-0.251905
C98	C	0.559231	0.247978	0.248095
O99	O	0.118269	-0.313777	-0.189913
O100	O	0.618269	0.186223	0.310087
O101	O	0.118400	-0.190237	-0.313902
O102	O	0.618400	0.309763	0.186098
C103	C	0.789003	-0.806277	-0.285383
C104	C	1.289003	-0.306277	0.214617
C105	C	0.789019	-0.860882	-0.285394
C106	C	1.289019	-0.360882	0.214606
O107	O	0.817433	-0.889087	-0.313874
O108	O	1.317433	-0.389087	0.186126
N109	N	0.755611	-0.888234	-0.251929
N110	N	1.255611	-0.388234	0.248071
C111	C	0.722181	-0.860979	-0.218455
C112	C	1.222181	-0.360979	0.281545
O113	O	0.693766	-0.889258	-0.189991
O114	O	1.193766	-0.389258	0.310009
C115	C	0.722163	-0.806376	-0.218447
C116	C	1.222163	-0.306376	0.281553
C117	C	0.755577	-0.779026	-0.251911
C118	C	1.255577	-0.279026	0.248089
C119	C	0.822414	-0.778928	-0.318844
C120	C	1.322414	-0.278928	0.181156
C121	C	0.822399	-0.724327	-0.318833
C122	C	1.322399	-0.224327	0.181167
C123	C	0.788974	-0.697076	-0.285360
C124	C	1.288974	-0.197076	0.214640
C125	C	0.755563	-0.724426	-0.251899
C126	C	1.255563	-0.224426	0.248101
C127	C	0.688732	-0.779122	-0.184976
C128	C	1.188732	-0.279122	0.315024
C129	C	0.688717	-0.724515	-0.184972
C130	C	1.188717	-0.224515	0.315028
C131	C	0.722131	-0.697165	-0.218435
C132	C	1.222131	-0.197165	0.281565
C133	C	0.722122	-0.642574	-0.218415
C134	C	1.222122	-0.142574	0.281585
N135	N	0.755530	-0.615222	-0.251880
N136	N	1.255530	-0.115222	0.248120
C137	C	0.788956	-0.642473	-0.285353
C138	C	1.288956	-0.142473	0.214647
C139	C	0.722220	-0.975650	-0.218474
C140	C	1.222220	-0.475650	0.281526
C141	C	0.722240	-1.030252	-0.218478
C142	C	1.222240	-0.530252	0.281522
C143	C	0.789077	-1.030151	-0.285418
C144	C	1.289077	-0.530151	0.214582
C145	C	0.789059	-0.975547	-0.285411
C146	C	1.289059	-0.475547	0.214589
C147	C	0.755628	-0.948297	-0.251939
C148	C	1.255628	-0.448297	0.248061
C149	C	0.788922	-0.527808	-0.285326
C150	C	1.288922	-0.027808	0.214674
C151	C	0.788906	-0.473202	-0.285310
C152	C	1.288906	0.026798	0.214690
C153	C	0.722067	-0.473309	-0.218372
C154	C	1.222067	0.026691	0.281628
C155	C	0.722085	-0.527909	-0.218386
C156	C	1.222085	-0.027909	0.281614
C157	C	0.755515	-0.555157	-0.251867
C158	C	1.255515	-0.055157	0.248133
O159	O	0.693720	-0.614335	-0.189951
O160	O	1.193720	-0.114335	0.310049
O161	O	0.817361	-0.614187	-0.313816
O162	O	1.317361	-0.114187	0.186184
C163	C	0.891911	-0.252024	-0.251896
C164	C	1.391911	0.247976	0.248104
C165	C	0.950025	-0.252036	-0.251903
C166	C	1.450025	0.247964	0.248097
C167	C	0.755572	-0.251971	-0.388251
C168	C	1.255572	0.248029	0.111749
C169	C	0.755586	-0.251961	-0.446365
C170	C	1.255586	0.248039	0.053635
C171	C	0.755626	-0.115622	-0.251931
C172	C	1.255626	0.384378	0.248069
C173	C	0.755664	-0.057508	-0.251953
C174	C	1.255664	0.442492	0.248047
C175	C	0.722182	-0.218451	-0.806743
C176	C	1.222182	0.281549	-0.306743
C177	C	0.722185	-0.218442	-0.861347
C178	C	1.222185	0.281558	-0.361347
O179	O	0.693758	-0.190008	-0.889596
O180	O	1.193758	0.309992	-0.389596
N181	N	0.755604	-0.251879	-0.888648
N182	N	1.255604	0.248121	-0.388648
C183	C	0.789018	-0.285331	-0.861342
C184	C	1.289018	0.214669	-0.361342
O185	O	0.817443	-0.313772	-0.889577
O186	O	1.317443	0.186228	-0.389577
C187	C	0.789012	-0.285343	-0.806739
C188	C	1.289012	0.214657	-0.306739
C189	C	0.755595	-0.251900	-0.779440
C190	C	1.255595	0.248100	-0.279440
C191	C	0.688768	-0.185011	-0.779445
C192	C	1.188768	0.314989	-0.279445
C193	C	0.688766	-0.185020	-0.724844
C194	C	1.188766	0.314980	-0.224844
C195	C	0.722178	-0.218469	-0.697542
C196	C	1.222178	0.281531	-0.197542
C197	C	0.755593	-0.251909	-0.724840
C198	C	1.255593	0.248091	-0.224840
C199	C	0.822423	-0.318798	-0.779433
C200	C	1.322423	0.181202	-0.279433
C201	C	0.822414	-0.318807	-0.724826
C202	C	1.322414	0.181193	-0.224826
C203	C	0.788997	-0.285364	-0.697528
C204	C	1.288997	0.214636	-0.197528
C205	C	0.789004	-0.285367	-0.642937
C206	C	1.289004	0.214633	-0.142937
N207	N	0.755585	-0.251930	-0.615636
N208	N	1.255585	0.248070	-0.115636
C209	C	0.722173	-0.218481	-0.642938
C210	C	1.222173	0.281519	-0.142938
C211	C	0.789027	-0.285305	-0.976013
C212	C	1.289027	0.214695	-0.476013
C213	C	0.789036	-0.285291	-1.030615
C214	C	1.289036	0.214709	-0.530615
C215	C	0.722202	-0.218402	-1.030616
C216	C	1.222202	0.281598	-0.530616
C217	C	0.722197	-0.218414	-0.976013
C218	C	1.222197	0.281586	-0.476013
C219	C	0.755608	-0.251868	-0.948712
C220	C	1.255608	0.248132	-0.448712
C221	C	0.722171	-0.218502	-0.528273
C222	C	1.222171	0.281498	-0.028273
C223	C	0.722174	-0.218512	-0.473668
C224	C	1.222174	0.281488	0.026332
C225	C	0.789005	-0.285403	-0.473671
C226	C	1.289005	0.214597	0.026329
C227	C	0.789005	-0.285391	-0.528272
C228	C	1.289005	0.214609	-0.028272
C229	C	0.755584	-0.251938	-0.555571
C230	C	1.255584	0.248062	-0.055571
O231	O	0.817415	-0.313787	-0.614653
O232	O	1.317415	0.186213	-0.114653
O233	O	0.693748	-0.190050	-0.614696
O234	O	1.193748	0.309950	-0.114696
C235	C	0.755534	-0.251981	-0.116036
C236	C	1.255534	0.248019	0.383964
C237	C	0.755621	-0.251844	-0.057922
C238	C	1.255621	0.248156	0.442078
H239	H	-0.044853	-0.191448	-0.312685
H240	H	0.455147	0.308552	0.187315
H241	H	0.556558	-0.191386	-0.312649
H242	H	1.056558	0.308614	0.187351
H243	H	0.054115	-0.312604	-0.191112
H244	H	0.554115	0.187396	0.308888
Cl245	Cl	0.194090	-0.360790	-0.142789
Cl246	Cl	0.694090	0.139210	0.357211
H247	H	0.694881	-0.550178	-0.191133
H248	H	1.194881	-0.050178	0.308867
H249	H	-0.044952	-0.312612	-0.191121
H250	H	0.455048	0.187388	0.308879
Cl251	Cl	0.680048	-0.439040	-0.176295
Cl252	Cl	1.180048	0.060960	0.323705
H253	H	0.206349	-0.158035	-0.346181
H254	H	0.706349	0.341965	0.153819
H255	H	0.816210	-0.312634	-0.451432
H256	H	1.316210	0.187366	0.048568
Cl257	Cl	0.680239	-1.064628	-0.176401
Cl258	Cl	1.180239	-0.564628	0.323599
Cl259	Cl	0.066298	-0.176650	-0.327528
Cl260	Cl	0.566298	0.323350	0.172472
H261	H	0.694998	-0.953465	-0.191213
H262	H	1.194998	-0.453465	0.308787
H263	H	0.661491	-0.702331	-0.157715
H264	H	1.161491	-0.202331	0.342285
Cl265	Cl	0.568532	-0.327329	-0.176235
Cl266	Cl	1.068532	0.172671	0.323765
H267	H	0.694962	-0.191276	-0.451444
H268	H	1.194962	0.308724	0.048556
Cl269	Cl	0.680160	-0.176443	-0.562584
Cl270	Cl	1.180160	0.323557	-0.062584
H271	H	0.849626	-0.346047	-0.702600
H272	H	1.349626	0.153953	-0.202600
Cl273	Cl	0.445302	-0.327354	-0.176251
Cl274	Cl	0.945302	0.172646	0.323749
H275	H	0.816241	-0.312544	-0.953787
H276	H	1.316241	0.187456	-0.453787
Cl277	Cl	0.646750	-0.142979	-0.690534
Cl278	Cl	1.146750	0.357021	-0.190534
Cl279	Cl	0.831024	-0.327425	-0.562590
Cl280	Cl	1.331024	0.172575	-0.062590
H281	H	0.661522	-0.801381	-0.157726
H282	H	1.161522	-0.301381	0.342274
Cl283	Cl	0.317495	-0.143234	-0.361014
Cl284	Cl	0.817495	0.356766	0.138986
Cl285	Cl	0.830916	-0.438824	-0.327381
Cl286	Cl	1.330916	0.061176	0.172619
H287	H	0.457493	-0.191393	-0.312659
H288	H	0.957493	0.308607	0.187341
Cl289	Cl	0.646751	-0.142962	-0.813758
Cl290	Cl	1.146751	0.357038	-0.313758
Cl291	Cl	0.830950	-0.562054	-0.327415
Cl292	Cl	1.330950	-0.062054	0.172585
Cl293	Cl	0.680184	-0.176371	-0.941701
Cl294	Cl	1.180184	0.323629	-0.441701
H295	H	0.694996	-0.191166	-1.052856
H296	H	1.194996	0.308834	-0.552856
H297	H	0.305243	-0.345984	-0.157609
H298	H	0.805243	0.154016	0.342391
H299	H	0.816253	-0.312518	-1.052836
H300	H	1.316253	0.187482	-0.552836
Cl301	Cl	0.864404	-0.689953	-0.360908
Cl302	Cl	1.364404	-0.189953	0.139092
H303	H	0.849634	-0.346031	-0.801650
H304	H	1.349634	0.153969	-0.301650
H305	H	0.849633	-0.801110	-0.346105
H306	H	1.349633	-0.301110	0.153895
Cl307	Cl	0.831066	-0.941171	-0.327482
Cl308	Cl	1.331066	-0.441171	0.172518
H309	H	0.816293	-1.052348	-0.312674
H310	H	1.316293	-0.552348	0.187326
