data_functionalizedCrystal
_audit_creation_method	'MofGen! by Chris Wilmer'
_symmetry_space_group_name_H-M	'P1'
_symmetry_Int_Tables_number	1
_symmetry_cell_setting	triclinic
loop_
_symmetry_equiv_pos_as_xyz
  x,y,z
_cell_length_a	19.805404
_cell_length_b	25.639243
_cell_length_c	19.805399
_cell_angle_alpha	90.021236
_cell_angle_beta	89.972890
_cell_angle_gamma	89.967726
loop_
_atom_site_label
_atom_site_type_symbol
_atom_site_fract_x
_atom_site_fract_y
_atom_site_fract_z
Zn1	Zn	-0.269430	-0.799285	-0.382752
Zn2	Zn	0.063903	-0.465952	-0.049419
Zn3	Zn	0.397236	-0.132618	0.283915
Zn4	Zn	-0.382619	-0.799214	-0.269565
Zn5	Zn	-0.049285	-0.465881	0.063769
Zn6	Zn	0.284048	-0.132548	0.397102
Zn7	Zn	-0.269454	-0.711853	-0.269573
Zn8	Zn	0.063879	-0.378520	0.063760
Zn9	Zn	0.397212	-0.045187	0.397093
Zn10	Zn	-0.382588	-0.711820	-0.382708
Zn11	Zn	-0.049255	-0.378487	-0.049375
Zn12	Zn	0.284079	-0.045154	0.283959
O13	O	-0.326023	-0.755543	-0.326149
O14	O	0.007310	-0.422210	0.007184
O15	O	0.340644	-0.088877	0.340517
O16	O	-0.284448	-0.872441	-0.367752
O17	O	0.048885	-0.539108	-0.034419
O18	O	0.382219	-0.205774	0.298915
O19	O	-0.367630	-0.787610	-0.174849
O20	O	-0.034297	-0.454277	0.158484
O21	O	0.299036	-0.120943	0.491818
O22	O	-0.174735	-0.723495	-0.284609
O23	O	0.158599	-0.390161	0.048725
O24	O	0.491932	-0.056828	0.382058
O25	O	-0.367607	-0.872389	-0.284594
O26	O	-0.034274	-0.539056	0.048739
O27	O	0.299060	-0.205722	0.382073
O28	O	-0.174717	-0.787731	-0.367760
O29	O	0.158616	-0.454397	-0.034427
O30	O	0.491950	-0.121064	0.298906
O31	O	-0.284489	-0.723426	-0.174855
O32	O	0.048845	-0.390093	0.158478
O33	O	0.382178	-0.056760	0.491811
O34	O	-0.284459	-0.638684	-0.284566
O35	O	0.048874	-0.305351	0.048767
O36	O	0.382208	0.027983	0.382101
O37	O	-0.367555	-0.723439	-0.477430
O38	O	-0.034221	-0.390105	-0.144097
O39	O	0.299112	-0.056772	0.189236
O40	O	-0.367578	-0.638660	-0.367686
O41	O	-0.034245	-0.305326	-0.034352
O42	O	0.299089	0.028007	0.298981
O43	O	-0.284418	-0.787698	-0.477463
O44	O	0.048915	-0.454365	-0.144129
O45	O	0.382248	-0.121032	0.189204
O46	O	-0.477331	-0.787578	-0.284551
O47	O	-0.143998	-0.454245	0.048782
O48	O	0.189335	-0.120911	0.382115
O49	O	-0.477309	-0.723370	-0.367677
O50	O	-0.143975	-0.390037	-0.034344
O51	O	0.189358	-0.056703	0.298989
C52	C	-0.326018	-0.619701	-0.326122
C53	C	0.007315	-0.286367	0.007211
C54	C	0.340648	0.046966	0.340544
C55	C	-0.326033	-0.561587	-0.326127
C56	C	0.007301	-0.228253	0.007206
C57	C	0.340634	0.105080	0.340540
C58	C	-0.282790	-0.201245	-0.369522
C59	C	0.050544	0.132088	-0.036188
C60	C	0.383877	0.465422	0.297145
C61	C	-0.282789	-0.146641	-0.369526
C62	C	0.050544	0.186693	-0.036192
C63	C	0.383878	0.520026	0.297141
O64	O	-0.246010	-0.118422	-0.406388
O65	O	0.087324	0.214911	-0.073055
O66	O	0.420657	0.548244	0.260279
N67	N	-0.326020	-0.119304	-0.326167
N68	N	0.007313	0.214029	0.007166
N69	N	0.340646	0.547362	0.340499
C70	C	-0.369250	-0.146575	-0.282797
C71	C	-0.035917	0.186758	0.050536
C72	C	0.297416	0.520092	0.383869
O73	O	-0.406022	-0.118309	-0.245918
O74	O	-0.072688	0.215024	0.087416
O75	O	0.260645	0.548358	0.420749
C76	C	-0.369247	-0.201178	-0.282790
C77	C	-0.035914	0.132155	0.050543
C78	C	0.297420	0.465488	0.383876
C79	C	-0.326018	-0.228512	-0.326156
C80	C	0.007316	0.104821	0.007177
C81	C	0.340649	0.438155	0.340510
C82	C	-0.239563	-0.228579	-0.412883
C83	C	0.093770	0.104754	-0.079550
C84	C	0.427104	0.438088	0.253783
C85	C	-0.239565	-0.283179	-0.412880
C86	C	0.093769	0.050154	-0.079547
C87	C	0.427102	0.383487	0.253787
C88	C	-0.282793	-0.310446	-0.369515
C89	C	0.050540	0.022887	-0.036181
C90	C	0.383874	0.356220	0.297152
C91	C	-0.326019	-0.283112	-0.326153
C92	C	0.007314	0.050221	0.007181
C93	C	0.340647	0.383554	0.340514
C94	C	-0.412473	-0.228448	-0.239417
C95	C	-0.079140	0.104886	0.093916
C96	C	0.254193	0.438219	0.427249
C97	C	-0.412466	-0.283055	-0.239413
C98	C	-0.079133	0.050278	0.093920
C99	C	0.254201	0.383612	0.427253
C100	C	-0.369236	-0.310389	-0.282779
C101	C	-0.035903	0.022945	0.050554
C102	C	0.297430	0.356278	0.383887
C103	C	-0.369249	-0.364980	-0.282784
C104	C	-0.035916	-0.031646	0.050549
C105	C	0.297417	0.301687	0.383883
N106	N	-0.326018	-0.392316	-0.326142
N107	N	0.007316	-0.058983	0.007191
N108	N	0.340649	0.274350	0.340524
C109	C	-0.282790	-0.365050	-0.369508
C110	C	0.050544	-0.031716	-0.036174
C111	C	0.383877	0.301617	0.297159
C112	C	-0.369253	-0.031904	-0.282815
C113	C	-0.035920	0.301429	0.050519
C114	C	0.297413	0.634762	0.383852
C115	C	-0.369260	0.022698	-0.282824
C116	C	-0.035927	0.356031	0.050509
C117	C	0.297406	0.689365	0.383842
C118	C	-0.282798	0.022628	-0.369552
C119	C	0.050535	0.355962	-0.036219
C120	C	0.383869	0.689295	0.297114
C121	C	-0.282795	-0.031975	-0.369545
C122	C	0.050539	0.301358	-0.036212
C123	C	0.383872	0.634692	0.297122
C124	C	-0.326022	-0.059241	-0.326173
C125	C	0.007312	0.274093	0.007161
C126	C	0.340645	0.607426	0.340494
C127	C	-0.282797	-0.479715	-0.369498
C128	C	0.050536	-0.146381	-0.036164
C129	C	0.383870	0.186952	0.297169
C130	C	-0.282804	-0.534320	-0.369492
C131	C	0.050529	-0.200987	-0.036159
C132	C	0.383862	0.132347	0.297174
C133	C	-0.369264	-0.534246	-0.282762
C134	C	-0.035931	-0.200912	0.050571
C135	C	0.297403	0.132421	0.383904
C136	C	-0.369259	-0.479645	-0.282770
C137	C	-0.035926	-0.146312	0.050563
C138	C	0.297407	0.187022	0.383897
C139	C	-0.326020	-0.452381	-0.326140
C140	C	0.007313	-0.119047	0.007194
C141	C	0.340646	0.214286	0.340527
O142	O	-0.406008	-0.393233	-0.245938
O143	O	-0.072674	-0.059900	0.087395
O144	O	0.260659	0.273434	0.420728
O145	O	-0.246018	-0.393322	-0.406375
O146	O	0.087315	-0.059989	-0.073042
O147	O	0.420648	0.273345	0.260292
C148	C	-0.501879	-0.755477	-0.326123
C149	C	-0.168546	-0.422144	0.007210
C150	C	0.164788	-0.088810	0.340543
C151	C	-0.577111	-0.755496	-0.326135
C152	C	-0.243778	-0.422163	0.007198
C153	C	0.089556	-0.088830	0.340532
C154	C	-1.038891	-0.789105	-0.282961
C155	C	-0.705558	-0.455772	0.050373
C156	C	-0.372224	-0.122438	0.383706
C157	C	-0.968203	-0.789080	-0.282947
C158	C	-0.634869	-0.455747	0.050386
C159	C	-0.301536	-0.122414	0.383719
C160	C	-0.932873	-0.755612	-0.326185
C161	C	-0.599539	-0.422279	0.007148
C162	C	-0.266206	-0.088945	0.340481
C163	C	-0.968235	-0.722162	-0.369435
C164	C	-0.634901	-0.388829	-0.036101
C165	C	-0.301568	-0.055495	0.297232
C166	C	-1.038922	-0.722184	-0.369444
C167	C	-0.705588	-0.388851	-0.036110
C168	C	-0.372255	-0.055518	0.297223
C169	C	-0.683161	-0.722071	-0.369397
C170	C	-0.349828	-0.388738	-0.036064
C171	C	-0.016495	-0.055404	0.297269
C172	C	-0.612469	-0.722052	-0.369386
C173	C	-0.279136	-0.388719	-0.036053
C174	C	0.054197	-0.055386	0.297281
C175	C	-0.612442	-0.788967	-0.282901
C176	C	-0.279109	-0.455634	0.050433
C177	C	0.054224	-0.122300	0.383766
C178	C	-0.683130	-0.788989	-0.282910
C179	C	-0.349796	-0.455656	0.050423
C180	C	-0.016463	-0.122323	0.383757
C181	C	-0.718485	-0.755538	-0.326156
C182	C	-0.385152	-0.422204	0.007177
C183	C	-0.051819	-0.088871	0.340510
C184	C	-0.795134	-0.755564	-0.326169
C185	C	-0.461800	-0.422231	0.007164
C186	C	-0.128467	-0.088897	0.340497
C187	C	-0.856226	-0.755588	-0.326176
C188	C	-0.522892	-0.422255	0.007157
C189	C	-0.189559	-0.088921	0.340490
C190	C	-0.149480	-0.755624	-0.326190
C191	C	0.183853	-0.422291	0.007143
C192	C	0.517186	-0.088958	0.340476
C193	C	-0.074248	-0.755659	-0.326208
C194	C	0.259085	-0.422325	0.007126
C195	C	0.592418	-0.088992	0.340459
C196	C	-0.325980	-0.755573	-0.502692
C197	C	0.007353	-0.422239	-0.169359
C198	C	0.340686	-0.088906	0.163974
C199	C	-0.325962	-0.755585	-0.577924
C200	C	0.007371	-0.422252	-0.244591
C201	C	0.340704	-0.088919	0.088742
C202	C	-0.326028	0.108084	-0.326177
C203	C	0.007305	0.441417	0.007157
C204	C	0.340639	0.774750	0.340490
C205	C	-0.326029	0.049970	-0.326188
C206	C	0.007304	0.383303	0.007146
C207	C	0.340637	0.716636	0.340479
C208	C	-0.282671	-0.789046	-0.613286
C209	C	0.050662	-0.455713	-0.279953
C210	C	0.383996	-0.122379	0.053380
C211	C	-0.282651	-0.789051	-0.683975
C212	C	0.050682	-0.455718	-0.350641
C213	C	0.384015	-0.122385	-0.017308
C214	C	-0.325927	-0.755598	-0.719300
C215	C	0.007407	-0.422265	-0.385967
C216	C	0.340740	-0.088932	-0.052633
C217	C	-0.369220	-0.722134	-0.683933
C218	C	-0.035887	-0.388800	-0.350600
C219	C	0.297447	-0.055467	-0.017266
C220	C	-0.369236	-0.722126	-0.613246
C221	C	-0.035902	-0.388793	-0.279912
C222	C	0.297431	-0.055459	0.053421
C223	C	-0.369157	-0.722163	-0.969006
C224	C	-0.035824	-0.388830	-0.635673
C225	C	0.297510	-0.055496	-0.302340
C226	C	-0.369139	-0.722174	-1.039699
C227	C	-0.035806	-0.388841	-0.706365
C228	C	0.297527	-0.055508	-0.373032
C229	C	-0.282572	-0.789089	-1.039735
C230	C	0.050761	-0.455755	-0.706402
C231	C	0.384094	-0.122422	-0.373069
C232	C	-0.282588	-0.789081	-0.969048
C233	C	0.050745	-0.455748	-0.635715
C234	C	0.384079	-0.122414	-0.302382
C235	C	-0.325879	-0.755615	-0.933687
C236	C	0.007455	-0.422281	-0.600354
C237	C	0.340788	-0.088948	-0.267021
C238	C	-0.325898	-0.755609	-0.857039
C239	C	0.007435	-0.422275	-0.523706
C240	C	0.340768	-0.088942	-0.190372
C241	C	-0.325911	-0.755607	-0.795947
C242	C	0.007422	-0.422273	-0.462614
C243	C	0.340756	-0.088940	-0.129280
C244	C	-0.326017	-0.755544	-0.150293
C245	C	0.007317	-0.422211	0.183040
C246	C	0.340650	-0.088878	0.516373
C247	C	-0.325844	-0.755633	-0.075062
C248	C	0.007489	-0.422300	0.258271
C249	C	0.340823	-0.088966	0.591605
H250	H	-0.404461	-0.556456	-0.247457
H251	H	-0.071127	-0.223123	0.085877
H252	H	0.262206	0.110211	0.419210
O253	O	-0.415848	-0.686055	-0.930895
O254	O	-0.082514	-0.352722	-0.597561
O255	O	0.250819	-0.019389	-0.264228
H256	H	-0.450304	-0.709418	-0.898677
H257	H	-0.116971	-0.376084	-0.565344
H258	H	0.216362	-0.042751	-0.232010
H259	H	-0.204358	-0.206384	-0.448197
H260	H	0.128976	0.126949	-0.114864
H261	H	0.462309	0.460283	0.218470
O262	O	-1.076984	-0.825213	-0.236327
O263	O	-0.743651	-0.491880	0.097006
O264	O	-0.410318	-0.158546	0.430339
H265	H	-1.109127	-0.851814	-0.266664
H266	H	-0.775794	-0.518481	0.066669
H267	H	-0.442460	-0.185147	0.400002
O268	O	-0.415883	-0.061312	-0.236035
O269	O	-0.082550	0.272022	0.097298
O270	O	0.250783	0.605355	0.430632
H271	H	-0.469020	-0.050815	-0.247556
H272	H	-0.135687	0.282519	0.085778
H273	H	0.197647	0.615852	0.419111
H274	H	-0.711940	-0.694829	-0.404606
H275	H	-0.378606	-0.361495	-0.071273
H276	H	-0.045273	-0.028162	0.262060
H277	H	-0.404468	-0.457389	-0.247466
H278	H	-0.071135	-0.124055	0.085868
H279	H	0.262199	0.209278	0.419201
H280	H	-0.247597	0.044839	-0.404861
H281	H	0.085736	0.378172	-0.071528
H282	H	0.419069	0.711506	0.261806
H283	H	-0.711892	-0.816245	-0.247704
H284	H	-0.378558	-0.482911	0.085630
H285	H	-0.045225	-0.149578	0.418963
H286	H	-0.939415	-0.816314	-0.247732
H287	H	-0.606082	-0.482981	0.085602
H288	H	-0.272749	-0.149648	0.418935
O289	O	-0.574310	-0.825053	-0.236258
O290	O	-0.240977	-0.491720	0.097076
O291	O	0.092357	-0.158386	0.430409
H292	H	-0.519221	-0.819416	-0.243510
H293	H	-0.185888	-0.486082	0.089823
H294	H	0.147445	-0.152749	0.423156
O295	O	-0.459090	-0.198974	-0.192634
O296	O	-0.125757	0.134360	0.140700
O297	O	0.207577	0.467693	0.474033
H298	H	-0.489135	-0.227116	-0.162474
H299	H	-0.155801	0.106217	0.170859
H300	H	0.177532	0.439551	0.504192
O301	O	-0.459092	-0.312464	-0.192634
O302	O	-0.125758	0.020869	0.140700
O303	O	0.207575	0.354202	0.474033
H304	H	-0.489152	-0.284280	-0.162487
H305	H	-0.155818	0.049053	0.170847
H306	H	0.177515	0.382387	0.504180
H307	H	-0.583705	-0.694796	-0.404597
H308	H	-0.250371	-0.361463	-0.071264
H309	H	0.082962	-0.028130	0.262070
H310	H	-0.247321	-0.816337	-1.068535
H311	H	0.086012	-0.483003	-0.735201
H312	H	0.419346	-0.149670	-0.401868
H313	H	-0.404381	-0.694930	-1.068458
H314	H	-0.071048	-0.361597	-0.735125
H315	H	0.262286	-0.028264	-0.401792
O316	O	-0.930134	-0.686063	-0.416073
O317	O	-0.596800	-0.352730	-0.082740
O318	O	-0.263467	-0.019396	0.250593
H319	H	-0.875040	-0.691670	-0.408808
H320	H	-0.541707	-0.358337	-0.075474
H321	H	-0.208373	-0.025004	0.257859
H322	H	-0.404453	-0.694893	-0.712700
H323	H	-0.071120	-0.361560	-0.379367
H324	H	0.262213	-0.028227	-0.046034
O325	O	-0.236166	-0.450312	-0.416277
O326	O	0.097167	-0.116978	-0.082944
O327	O	0.430501	0.216355	0.250389
H328	H	-0.206117	-0.478499	-0.446430
H329	H	0.127217	-0.145166	-0.113096
H330	H	0.460550	0.188168	0.220237
H331	H	-0.247433	-0.816289	-0.584530
H332	H	0.085900	-0.482956	-0.251196
H333	H	0.419234	-0.149623	0.082137
H334	H	-1.067709	-0.694952	-0.404664
H335	H	-0.734375	-0.361618	-0.071330
H336	H	-0.401042	-0.028285	0.262003
O337	O	-0.415927	-0.686035	-0.575100
O338	O	-0.082593	-0.352702	-0.241767
O339	O	0.250740	-0.019369	0.091567
H340	H	-0.385630	-0.659445	-0.542902
H341	H	-0.052296	-0.326112	-0.209569
H342	H	0.281037	0.007221	0.123764
H343	H	-0.247401	-0.816300	-0.712763
H344	H	0.085933	-0.482967	-0.379430
H345	H	0.419266	-0.149633	-0.046097
O346	O	-0.235916	-0.825166	-0.930949
O347	O	0.097418	-0.491833	-0.597616
O348	O	0.430751	-0.158500	-0.264282
H349	H	-0.201489	-0.801778	-0.898740
H350	H	0.131844	-0.468445	-0.565407
H351	H	0.465177	-0.135112	-0.232074
O352	O	-0.236170	-0.563803	-0.416260
O353	O	0.097163	-0.230469	-0.082927
O354	O	0.430497	0.102864	0.250407
H355	H	-0.206105	-0.535665	-0.446407
H356	H	0.127228	-0.202332	-0.113074
H357	H	0.460562	0.131001	0.220260
H358	H	-0.204362	-0.305430	-0.448192
H359	H	0.128971	0.027904	-0.114859
H360	H	0.462305	0.361237	0.218475
H361	H	-0.404470	0.044949	-0.247519
H362	H	-0.071136	0.378282	0.085814
H363	H	0.262197	0.711615	0.419148
O364	O	-0.236161	-0.061456	-0.416309
O365	O	0.097172	0.271877	-0.082975
O366	O	0.430506	0.605211	0.250358
H367	H	-0.206101	-0.033317	-0.446458
H368	H	0.127232	0.300017	-0.113125
H369	H	0.460565	0.633350	0.220208
