data_functionalizedCrystal
_audit_creation_method	'MofGen! by Chris Wilmer'
_symmetry_space_group_name_H-M	'P1'
_symmetry_Int_Tables_number	1
_symmetry_cell_setting	triclinic
loop_
_symmetry_equiv_pos_as_xyz
  x,y,z
_cell_length_a	19.188930
_cell_length_b	10.268362
_cell_length_c	11.792241
_cell_angle_alpha	90.005428
_cell_angle_beta	96.330902
_cell_angle_gamma	89.981535
loop_
_atom_site_label
_atom_site_type_symbol
_atom_site_fract_x
_atom_site_fract_y
_atom_site_fract_z
O1	O	0.926947	-0.108720	-0.141694
O2	O	1.426947	0.391280	0.358306
O3	O	0.723744	-0.108631	-0.160769
O4	O	1.223744	0.391369	0.339231
O5	O	0.830277	-0.108668	0.014013
O6	O	1.330277	0.391332	0.514013
O7	O	0.820415	-0.108682	-0.316476
O8	O	1.320415	0.391318	0.183524
O9	O	0.830268	0.107932	0.014020
O10	O	1.330268	0.607932	0.514020
O11	O	0.723735	0.107970	-0.160762
O12	O	1.223735	0.607970	0.339238
O13	O	0.926938	0.107881	-0.141687
O14	O	1.426938	0.607881	0.358313
Cu15	Cu	0.825336	0.127703	-0.151224
Cu16	Cu	1.325336	0.627703	0.348776
Cu17	Cu	0.825347	-0.128453	-0.151232
Cu18	Cu	1.325347	0.371547	0.348768
O19	O	0.820405	0.107919	-0.316469
O20	O	1.320405	0.607919	0.183531
C21	C	0.697725	-0.000319	-0.160148
C22	C	1.197725	0.499681	0.339852
C23	C	0.620210	-0.000285	-0.158293
C24	C	1.120210	0.499715	0.341707
N25	N	0.825333	0.307869	-0.151217
N26	N	1.325333	0.807869	0.348783
N27	N	0.825355	-0.308618	-0.151230
N28	N	1.325355	0.191382	0.348770
C29	C	0.575867	-0.000309	-0.260849
C30	C	1.075867	0.499691	0.239151
C31	C	0.503033	-0.000324	-0.259107
C32	C	1.003033	0.499676	0.240893
C33	C	0.474546	-0.000339	-0.154803
C34	C	0.974546	0.499661	0.345197
C35	C	0.518899	-0.000307	-0.052234
C36	C	1.018899	0.499693	0.447766
C37	C	0.591731	-0.000280	-0.053979
C38	C	1.091731	0.499720	0.446021
N39	N	0.366117	-0.074107	-0.075079
N40	N	0.866117	0.425893	0.424921
N41	N	0.296929	-0.074136	-0.073428
N42	N	0.796929	0.425864	0.426572
C43	C	0.255107	-0.000419	-0.149540
C44	C	0.755107	0.499581	0.350460
N45	N	0.285086	0.073312	-0.227382
N46	N	0.785086	0.573312	0.272618
N47	N	0.354280	0.073335	-0.229036
N48	N	0.854280	0.573335	0.270964
C49	C	0.395573	-0.000368	-0.152900
C50	C	0.895573	0.499632	0.347100
C51	C	0.131789	-0.000457	-0.250214
C52	C	0.631789	0.499543	0.249786
C53	C	0.058955	-0.000463	-0.248468
C54	C	0.558955	0.499537	0.251532
C55	C	0.074822	-0.000460	-0.041591
C56	C	0.574822	0.499540	0.458409
C57	C	0.147655	-0.000440	-0.043341
C58	C	0.647655	0.499560	0.456659
C59	C	0.176134	-0.000445	-0.147655
C60	C	0.676134	0.499555	0.352345
C61	C	0.952957	-0.000434	-0.142309
C62	C	1.452957	0.499566	0.357691
C63	C	1.030472	-0.000477	-0.144163
C64	C	1.530472	0.499523	0.355837
C65	C	0.829653	-0.000368	0.056298
C66	C	1.329653	0.499632	0.556298
C67	C	0.827799	-0.000368	0.182284
C68	C	1.327799	0.499632	0.682284
C69	C	0.825343	0.573539	-0.151230
C70	C	1.325343	1.073539	0.348770
C71	C	0.825335	0.425701	-0.151226
C72	C	1.325335	0.925701	0.348774
C73	C	0.821029	-0.000385	-0.358754
C74	C	1.321029	0.499615	0.141246
C75	C	0.822884	-0.000393	-0.484740
C76	C	1.322884	0.499607	0.015260
C77	C	0.824389	-0.000389	0.412945
C78	C	1.324389	0.499611	0.912945
C79	C	0.826283	-0.000378	0.284588
C80	C	1.326283	0.499622	0.784588
H81	H	0.466922	-0.000340	-0.342624
H82	H	0.966922	0.499660	0.157376
N83	N	0.488183	-0.000333	0.060270
N84	N	0.988183	0.499667	0.560270
H85	H	0.504302	0.079970	0.105187
H86	H	1.004302	0.579970	0.605187
H87	H	0.435320	-0.000408	0.045726
H88	H	0.935320	0.499592	0.545726
N89	N	0.195480	-0.000434	0.067282
N90	N	0.695480	0.499566	0.567282
H91	H	0.226074	-0.080717	0.071166
H92	H	0.726074	0.419283	0.571166
H93	H	0.225985	0.079924	0.071111
H94	H	0.725985	0.579924	0.571111
N95	N	0.011146	-0.000469	-0.359111
N96	N	0.511146	0.499531	0.140889
H97	H	-0.019412	-0.080764	-0.363028
H98	H	0.480588	0.419236	0.136972
H99	H	-0.019395	0.079877	-0.362946
H100	H	0.480605	0.579877	0.137054
N101	N	0.639563	-0.000247	0.056639
N102	N	1.139563	0.499753	0.556639
H103	H	0.610468	-0.000253	0.122983
H104	H	1.110468	0.499747	0.622983
H105	H	0.670149	-0.080533	0.060422
H106	H	1.170149	0.419467	0.560422
N107	N	0.044107	-0.000462	0.070911
N108	N	0.544107	0.499538	0.570911
H109	H	-0.008761	-0.000478	0.056457
H110	H	0.491239	0.499522	0.556457
H111	H	0.060322	-0.080751	0.115774
H112	H	0.560322	0.419249	0.615774
H113	H	0.599050	-0.000316	-0.345790
H114	H	1.099050	0.499684	0.154210
N115	N	0.162513	-0.000456	-0.362717
N116	N	0.662513	0.499544	0.137283
H117	H	0.123367	-0.000462	-0.427424
H118	H	0.623367	0.499538	0.072576
H119	H	0.192367	0.079848	-0.367942
H120	H	0.692367	0.579848	0.132058
