data_functionalizedCrystal
_audit_creation_method	'MofGen! by Chris Wilmer'
_symmetry_space_group_name_H-M	'P1'
_symmetry_Int_Tables_number	1
_symmetry_cell_setting	triclinic
loop_
_symmetry_equiv_pos_as_xyz
  x,y,z
_cell_length_a	15.538191
_cell_length_b	19.188930
_cell_length_c	14.750779
_cell_angle_alpha	77.396187
_cell_angle_beta	97.572172
_cell_angle_gamma	65.208438
loop_
_atom_site_label
_atom_site_type_symbol
_atom_site_fract_x
_atom_site_fract_y
_atom_site_fract_z
O1	O	1.230319	-0.206654	-0.079811
O2	O	1.730319	0.293346	0.420189
O3	O	0.955725	-0.125950	-0.079820
O4	O	1.455725	0.374050	0.420180
O5	O	1.100951	-0.269953	-0.079797
O6	O	1.600951	0.230047	0.420203
O7	O	1.085093	-0.062651	-0.079835
O8	O	1.585093	0.437349	0.420165
O9	O	1.142004	-0.310658	0.079860
O10	O	1.642004	0.189342	0.579860
O11	O	0.996778	-0.166654	0.079837
O12	O	1.496778	0.333346	0.579837
O13	O	1.271372	-0.247359	0.079846
O14	O	1.771372	0.252641	0.579846
Zn15	Zn	1.140594	-0.213470	0.105190
Zn16	Zn	1.640594	0.286530	0.605190
Zn17	Zn	1.086504	-0.159839	-0.105165
Zn18	Zn	1.586504	0.340161	0.394835
O19	O	1.126146	-0.103356	0.079822
O20	O	1.626146	0.396644	0.579822
C21	C	0.941121	-0.137858	0.000007
C22	C	1.441121	0.362142	0.500007
C23	C	0.836443	-0.112707	0.000004
C24	C	1.336443	0.387293	0.500004
C25	C	0.549690	-0.362580	0.000035
C26	C	1.049690	0.137420	0.500035
C27	C	0.451325	-0.338928	0.000030
C28	C	0.951325	0.161072	0.500030
C29	C	0.428328	-0.205893	0.000006
C30	C	0.928328	0.294107	0.500006
C31	C	0.526694	-0.229535	0.000016
C32	C	1.026694	0.270465	0.500016
C33	C	0.587367	-0.307879	0.000029
C34	C	1.087367	0.192121	0.500029
C35	C	0.564371	-0.174835	0.000010
C36	C	1.064371	0.325165	0.500010
C37	C	0.662727	-0.198474	0.000014
C38	C	1.162727	0.301526	0.500014
C39	C	0.723406	-0.276813	0.000025
C40	C	1.223406	0.223187	0.500025
C41	C	0.685723	-0.331518	0.000034
C42	C	1.185723	0.168482	0.500034
C43	C	0.503694	-0.096490	-0.000011
C44	C	1.003694	0.403510	0.499989
C45	C	0.541372	-0.041789	-0.000017
C46	C	1.041372	0.458211	0.499983
C47	C	0.639731	-0.065429	-0.000005
C48	C	1.139731	0.434571	0.499995
C49	C	0.700410	-0.143769	0.000006
C50	C	1.200410	0.356231	0.500006
C51	C	0.677414	-0.010724	-0.000014
C52	C	1.177414	0.489276	0.499986
C53	C	0.775770	-0.034363	-0.000009
C54	C	1.275770	0.465637	0.499991
C55	C	0.798766	-0.167408	0.000010
C56	C	1.298766	0.332592	0.500010
C57	C	1.120965	-0.316188	0.000035
C58	C	1.620965	0.183812	0.500035
C59	C	1.119427	-0.393308	0.000043
C60	C	1.619427	0.106692	0.500043
C61	C	1.204639	-0.459635	0.000050
C62	C	1.704639	0.040365	0.500050
C63	C	1.203187	-0.532092	0.000035
C64	C	1.703187	-0.032092	0.500035
C65	C	1.116524	-0.538221	0.000031
C66	C	1.616524	-0.038221	0.500031
C67	C	1.031299	-0.471879	0.000018
C68	C	1.531299	0.028121	0.500018
C69	C	1.032751	-0.399422	0.000024
C70	C	1.532751	0.100578	0.500024
N71	N	1.064252	-0.643440	0.054363
N72	N	1.564252	-0.143440	0.554363
N73	N	1.062879	-0.712273	0.054360
N74	N	1.562879	-0.212273	0.554360
C75	C	1.112146	-0.756526	0.000012
C76	C	1.612146	-0.256526	0.500012
N77	N	1.162854	-0.729353	-0.054321
N78	N	1.662854	-0.229353	0.445679
N79	N	1.164230	-0.660516	-0.054313
N80	N	1.664230	-0.160516	0.445687
C81	C	1.114941	-0.616784	0.000024
C82	C	1.614941	-0.116784	0.500024
C83	C	1.195790	-0.901421	0.000001
C84	C	1.695790	-0.401421	0.500001
C85	C	1.194333	-0.973876	-0.000020
C86	C	1.694333	-0.473876	0.499980
C87	C	1.022445	-0.913663	-0.000027
C88	C	1.522445	-0.413663	0.499973
C89	C	1.023901	-0.841208	-0.000016
C90	C	1.523901	-0.341208	0.499984
C91	C	1.110577	-0.835093	0.000003
C92	C	1.610577	-0.335093	0.500003
C93	C	1.285976	-0.235450	0.000016
C94	C	1.785976	0.264550	0.500016
C95	C	1.390652	-0.260600	0.000013
C96	C	1.890652	0.239400	0.500013
C97	C	1.106132	-0.057120	-0.000011
C98	C	1.606132	0.442880	0.499989
C99	C	1.107668	0.020001	-0.000026
C100	C	1.607668	0.520001	0.499974
N101	N	1.177515	-0.250073	0.248752
N102	N	1.677515	0.249927	0.748752
N103	N	1.049589	-0.123244	-0.248726
N104	N	1.549589	0.376756	0.251274
C105	C	0.946472	-0.021047	0.600532
C106	C	1.446472	0.478953	1.100532
C107	C	0.972351	-0.046693	0.701036
C108	C	1.472351	0.453307	1.201036
C109	C	1.100975	-0.174180	0.701020
C110	C	1.600975	0.325820	1.201020
C111	C	1.075104	-0.148545	0.600514
C112	C	1.575104	0.351455	1.100514
C113	C	0.997852	-0.071978	0.550279
C114	C	1.497852	0.428022	1.050279
C115	C	1.126484	-0.199476	0.550260
C116	C	1.626484	0.300524	1.050260
C117	C	1.100617	-0.173842	0.449764
C118	C	1.600617	0.326158	0.949764
C119	C	1.023370	-0.097277	0.399521
C120	C	1.523370	0.402723	0.899521
C121	C	0.971985	-0.046344	0.449782
C122	C	1.471985	0.453656	0.949782
C123	C	1.203739	-0.276041	0.600498
C124	C	1.703739	0.223959	1.100498
C125	C	1.255119	-0.326973	0.550244
C126	C	1.755119	0.173027	1.050244
C127	C	1.229248	-0.301341	0.449745
C128	C	1.729248	0.198659	0.949745
C129	C	1.152002	-0.224776	0.399503
C130	C	1.652002	0.275224	0.899503
C131	C	1.280633	-0.352274	0.399484
C132	C	1.780633	0.147726	0.899484
C133	C	1.254767	-0.326640	0.298988
C134	C	1.754767	0.173360	0.798988
C135	C	1.126135	-0.199142	0.299006
C136	C	1.626135	0.300858	0.799006
H137	H	0.806449	0.010177	-0.000005
H138	H	1.306449	0.510177	0.499995
O139	O	0.940840	-0.327877	0.000021
O140	O	1.440840	0.172123	0.500021
H141	H	0.954129	-0.310027	0.065096
H142	H	1.454129	0.189973	0.565096
H143	H	1.272579	-0.586105	0.000037
H144	H	1.772579	-0.086105	0.500037
H145	H	0.420654	-0.383477	0.000033
H146	H	0.920654	0.116523	0.500033
H147	H	0.803490	-0.296055	0.000016
H148	H	1.303490	0.203945	0.500016
O149	O	0.751178	-0.416018	0.000051
O150	O	1.251178	0.083982	0.500051
H151	H	0.708456	-0.450088	0.000052
H152	H	1.208456	0.049912	0.500052
H153	H	1.263725	-1.027882	-0.000019
H154	H	1.763725	-0.527882	0.499981
H155	H	1.275216	-0.454663	0.000062
H156	H	1.775216	0.045337	0.500062
O157	O	1.042805	-0.116565	0.244797
O158	O	1.542805	0.383435	0.744797
H159	H	1.059540	-0.070021	0.264055
H160	H	1.559540	0.429979	0.764055
O161	O	0.928969	-0.920261	-0.000027
O162	O	1.428969	-0.420261	0.499973
H163	H	0.942275	-0.981790	-0.000023
H164	H	1.442275	-0.481790	0.499977
H165	H	0.954514	-0.787202	-0.000016
H166	H	1.454514	-0.287202	0.499984
O167	O	0.995467	-0.069624	0.291127
O168	O	1.495467	0.430376	0.791127
H169	H	0.918254	-0.056221	0.264652
H170	H	1.418254	0.443779	0.764652
O171	O	0.937826	-0.478485	0.000025
O172	O	1.437826	0.021515	0.500025
H173	H	0.951135	-0.540015	0.000036
H174	H	1.451135	-0.040015	0.500036
O175	O	0.888662	0.036240	0.395585
O176	O	1.388662	0.536240	0.895585
H177	H	0.857278	0.067354	0.447411
H178	H	1.357278	0.567354	0.947411
H179	H	0.883560	0.041299	0.559629
H180	H	1.383560	0.541299	1.059629
H181	H	0.930506	-0.005211	0.741948
H182	H	1.430506	0.494789	1.241948
O183	O	1.289264	-0.894810	0.000002
O184	O	1.789264	-0.394810	0.500002
H185	H	1.348271	-0.953104	-0.000014
H186	H	1.848271	-0.453104	0.499986
H187	H	0.599096	-0.426376	0.000052
H188	H	1.099096	0.073624	0.500052
O189	O	1.184292	-0.256762	0.755203
O190	O	1.684292	0.243238	1.255203
H191	H	1.193644	-0.266034	0.833528
H192	H	1.693644	0.233966	1.333528
O193	O	0.362891	-0.121400	0.000005
O194	O	0.862891	0.378600	0.500005
H195	H	0.288170	-0.114153	0.000012
H196	H	0.788170	0.385847	0.500012
H197	H	0.627997	0.053065	-0.000034
H198	H	1.127997	0.553065	0.499966
H199	H	1.343539	-0.414613	0.440399
H200	H	1.843539	0.085387	0.940399
H201	H	1.224800	-0.296908	0.682329
H202	H	1.724800	0.203092	1.182329
O203	O	1.338436	-0.409555	0.604427
O204	O	1.838436	0.090445	1.104427
H205	H	1.347788	-0.418827	0.682752
H206	H	1.847788	0.081173	1.182752
H207	H	1.296607	-0.368114	0.258071
H208	H	1.796607	0.131886	0.758071
H209	H	0.848172	-0.231204	0.000027
H210	H	1.348172	0.268796	0.500027
H211	H	0.423607	-0.077245	-0.000017
H212	H	0.923607	0.422755	0.499983
H213	H	0.491958	0.022000	-0.000032
H214	H	0.991958	0.522000	0.499968
