data_functionalizedCrystal
_audit_creation_method	'MofGen! by Chris Wilmer'
_symmetry_space_group_name_H-M	'P1'
_symmetry_Int_Tables_number	1
_symmetry_cell_setting	triclinic
loop_
_symmetry_equiv_pos_as_xyz
  x,y,z
_cell_length_a	13.032831
_cell_length_b	29.839131
_cell_length_c	13.033109
_cell_angle_alpha	97.151620
_cell_angle_beta	76.665514
_cell_angle_gamma	82.845366
loop_
_atom_site_label
_atom_site_type_symbol
_atom_site_fract_x
_atom_site_fract_y
_atom_site_fract_z
Zn1	Zn	1.699796	-0.315802	-0.806302
Zn2	Zn	1.677064	-0.379995	-0.628664
Zn3	Zn	1.499642	-0.293953	-0.606203
Zn4	Zn	1.522079	-0.379955	-0.783708
O5	O	1.599645	-0.342426	-0.706219
O6	O	1.845408	-0.333478	-0.801594
O7	O	1.634625	-0.359454	-0.477056
O8	O	1.526317	-0.233994	-0.632802
O9	O	1.828706	-0.380640	-0.671084
O10	O	1.673369	-0.250047	-0.779815
O11	O	1.504274	-0.296239	-0.460554
O12	O	1.353992	-0.296200	-0.610893
O13	O	1.564557	-0.380573	-0.935334
O14	O	1.370476	-0.359386	-0.741306
O15	O	1.695125	-0.333440	-0.951934
O16	O	1.656381	-0.442847	-0.649175
O17	O	1.542514	-0.442818	-0.763085
C18	C	1.323696	-0.325418	-0.671211
C19	C	1.205647	-0.318155	-0.656260
C20	C	1.161189	-0.346217	-0.714022
C21	C	1.039179	-0.338711	-0.698571
C22	C	1.599447	-0.459134	-0.706142
C23	C	1.599464	-0.509070	-0.706157
C24	C	1.659072	-0.818743	-0.647021
C25	C	1.659208	-1.006427	-0.647079
O26	O	1.709732	-1.030705	-0.596740
N27	N	1.599876	-1.029887	-0.706327
C28	C	1.540510	-1.006424	-0.765571
O29	O	1.490056	-1.030686	-0.815975
C30	C	1.540381	-0.818742	-0.765518
C31	C	1.599709	-0.795283	-0.706258
C32	C	1.718396	-0.795284	-0.587766
C33	C	1.718357	-0.748366	-0.587748
C34	C	1.658993	-0.724906	-0.646984
C35	C	1.599669	-0.748364	-0.706239
C36	C	1.481022	-0.795280	-0.824767
C37	C	1.480997	-0.748357	-0.824751
C38	C	1.540325	-0.724898	-0.765490
C39	C	1.540267	-0.677986	-0.765457
N40	N	1.599599	-0.654526	-0.706209
C41	C	1.658963	-0.677985	-0.646972
C42	C	1.540581	-1.104960	-0.765593
C43	C	1.540612	-1.151880	-0.765604
C44	C	1.659311	-1.151879	-0.647114
C45	C	1.659274	-1.104958	-0.647097
C46	C	1.599913	-1.081499	-0.706344
C47	C	1.658875	-0.579453	-0.646937
C48	C	1.658827	-0.532530	-0.646921
C49	C	1.540132	-0.532535	-0.765415
C50	C	1.540175	-0.579453	-0.765428
C51	C	1.599555	-0.602912	-0.706187
O52	O	1.489779	-0.653680	-0.815780
O53	O	1.709428	-0.653718	-0.596594
C54	C	1.659111	-0.865661	-0.647040
C55	C	1.599787	-0.889120	-0.706295
C56	C	1.540424	-0.865660	-0.765531
C57	C	1.599818	-0.936040	-0.706306
C58	C	1.659181	-0.959500	-0.647070
C59	C	1.718514	-0.936040	-0.587822
C60	C	1.718474	-0.889121	-0.587803
C61	C	1.481091	-0.889121	-0.824779
C62	C	1.481135	-0.936039	-0.824792
C63	C	1.540498	-0.959499	-0.765556
C64	C	1.876672	-0.359501	-0.741365
C65	C	1.994724	-0.366777	-0.756342
C66	C	1.634879	-0.359439	-0.983249
C67	C	1.649894	-0.366689	-1.101303
C68	C	1.599876	-0.225266	-0.706323
C69	C	1.599975	-0.175340	-0.706368
C70	C	1.592093	-0.338644	-1.145770
C71	C	1.607610	-0.346136	-1.267784
C72	C	1.564610	-0.325451	-0.430275
C73	C	1.549801	-0.318087	-0.312248
H74	H	1.046984	-0.396360	-0.817245
Br75	Br	1.460012	-1.073130	-0.846008
Br76	Br	1.118548	-0.268843	-0.554773
Br77	Br	1.400607	-0.967870	-0.905222
H78	H	1.432660	-0.729260	-0.873001
H79	H	0.986919	-0.309124	-0.637679
Br80	Br	1.448134	-0.268830	-1.225156
H81	H	1.491869	-0.598555	-0.813687
H82	H	1.492290	-1.170975	-0.813849
H83	H	1.432705	-0.814372	-0.873018
H84	H	1.766846	-0.955149	-0.539586
H85	H	1.491795	-0.513426	-0.813641
H86	H	1.766670	-0.729268	-0.539496
Br87	Br	1.739346	-0.500695	-0.566488
H88	H	1.707230	-0.598547	-0.598700
Br89	Br	1.798974	-0.827114	-0.507365
Br90	Br	1.248288	-0.395527	-0.815515
H91	H	1.766785	-0.870025	-0.539548
H92	H	1.531116	-0.309088	-1.093509
H93	H	1.668586	-0.375696	-1.320042
Br94	Br	1.751515	-0.415959	-1.188396
H95	H	1.707584	-1.085860	-0.598842
H96	H	1.707648	-1.170988	-0.598881
H97	H	1.432752	-0.870023	-0.873018
