data_functionalizedCrystal
_audit_creation_method	'MofGen! by Chris Wilmer'
_symmetry_space_group_name_H-M	'P1'
_symmetry_Int_Tables_number	1
_symmetry_cell_setting	triclinic
loop_
_symmetry_equiv_pos_as_xyz
  x,y,z
_cell_length_a	31.640172
_cell_length_b	23.196402
_cell_length_c	31.640172
_cell_angle_alpha	60.012858
_cell_angle_beta	90.011976
_cell_angle_gamma	59.998806
loop_
_atom_site_label
_atom_site_type_symbol
_atom_site_fract_x
_atom_site_fract_y
_atom_site_fract_z
Zr1	Zr	0.407192	0.630913	-0.055385
Zr2	Zr	0.907192	1.130913	0.444615
O3	O	0.339703	0.751171	-0.122869
O4	O	0.839703	1.251171	0.377131
O5	O	0.427880	0.510650	-0.034700
O6	O	0.927880	1.010650	0.465300
O7	O	0.427879	0.630891	-0.122861
O8	O	0.927879	1.130891	0.377139
O9	O	0.339706	0.630949	0.034838
O10	O	0.839706	1.130949	0.534838
O11	O	0.497436	0.630879	-0.122851
O12	O	0.997436	1.130879	0.377149
O13	O	0.339704	0.630930	-0.034708
O14	O	0.839704	1.130930	0.465292
O15	O	0.497438	0.415789	0.034852
O16	O	0.997438	0.915789	0.534852
O17	O	0.339705	0.846039	-0.122866
O18	O	0.839705	1.346039	0.377134
O19	O	0.488615	0.560108	-0.025868
O20	O	0.988615	1.060108	0.474132
O21	O	0.436707	0.560131	0.026026
O22	O	0.936707	1.060131	0.526026
O23	O	0.436706	0.701700	-0.077772
O24	O	0.936706	1.201700	0.422228
O25	O	0.384798	0.701723	-0.025877
O26	O	0.884798	1.201723	0.474123
Zr27	Zr	0.518132	0.630924	0.055548
Zr28	Zr	1.018132	1.130924	0.555548
Zr29	Zr	0.518128	0.630894	-0.055370
Zr30	Zr	1.018128	1.130894	0.444630
Zr31	Zr	0.407197	0.630943	0.055533
Zr32	Zr	0.907197	1.130943	0.555533
Zr33	Zr	0.407196	0.782215	-0.055380
Zr34	Zr	0.907196	1.282215	0.444620
Zr35	Zr	0.518129	0.479621	0.055543
Zr36	Zr	1.018129	0.979621	0.555543
O37	O	0.497445	0.751187	0.034863
O38	O	0.997445	1.251187	0.534863
O39	O	0.497439	0.751144	-0.122847
O40	O	0.997439	1.251144	0.377153
O41	O	0.339709	0.751214	0.034842
O42	O	0.839709	1.251214	0.534842
O43	O	0.585622	0.510665	0.123031
O44	O	1.085622	1.010665	0.623031
O45	O	0.585616	0.510622	-0.034679
O46	O	1.085616	1.010622	0.465321
O47	O	0.427886	0.510692	0.123010
O48	O	0.927886	1.010692	0.623010
O49	O	0.585618	0.630888	-0.034675
O50	O	1.085618	1.130888	0.465325
O51	O	0.497446	0.630946	0.123024
O52	O	0.997446	1.130946	0.623024
O53	O	0.427889	0.630958	0.123014
O54	O	0.927889	1.130958	0.623014
O55	O	0.585621	0.630907	0.034871
O56	O	1.085621	1.130907	0.534871
O57	O	0.427883	0.846023	-0.122854
O58	O	0.927883	1.346023	0.377146
O59	O	0.497441	0.415813	0.123017
O60	O	0.997441	0.915813	0.623017
O61	O	0.585620	0.415798	0.123029
O62	O	1.085620	0.915798	0.623029
O63	O	0.585617	0.415774	0.034864
O64	O	1.085617	0.915774	0.534864
O65	O	0.339708	0.846063	-0.034701
O66	O	0.839708	1.346063	0.465299
O67	O	0.427887	0.846047	-0.034689
O68	O	0.927887	1.346047	0.465311
O69	O	0.488619	0.560137	0.077935
O70	O	0.988619	1.060137	0.577935
O71	O	0.540526	0.560114	0.026040
O72	O	1.040526	1.060114	0.526040
O73	O	0.488618	0.701705	-0.025863
O74	O	0.988618	1.201705	0.474137
O75	O	0.436710	0.701728	0.026031
O76	O	0.936710	1.201728	0.526031
C77	C	0.462659	0.441662	0.000076
C78	C	0.962659	0.941662	0.500076
C79	C	0.462657	0.377430	0.000074
C80	C	0.962657	0.877430	0.500074
C81	C	0.489749	0.347248	-0.027017
C82	C	0.989749	0.847248	0.472983
C83	C	0.489754	0.286887	-0.027012
C84	C	0.989754	0.786887	0.472988
C85	C	0.462657	0.256722	0.000075
C86	C	0.962657	0.756722	0.500075
C87	C	0.435564	0.286908	0.027171
C88	C	0.935564	0.786908	0.527171
C89	C	0.435564	0.347262	0.027170
C90	C	0.935564	0.847262	0.527170
C91	C	0.417270	0.194699	-0.003798
C92	C	0.917270	0.694699	0.496202
C93	C	0.417269	0.134350	-0.003801
C94	C	0.917269	0.634350	0.496199
C95	C	0.462658	0.070567	0.000080
C96	C	0.962658	0.570567	0.500080
C97	C	0.508048	0.067149	0.003953
C98	C	1.008048	0.567149	0.503953
C99	C	0.508048	0.127503	0.003953
C100	C	1.008048	0.627503	0.503953
C101	C	0.462654	0.191278	0.000079
C102	C	0.962654	0.691278	0.500079
C103	C	0.489757	-0.025066	-0.027007
C104	C	0.989757	0.474934	0.472993
C105	C	0.489764	-0.085432	-0.026999
C106	C	0.989764	0.414568	0.473001
C107	C	0.435569	-0.085403	0.027181
C108	C	0.935569	0.414597	0.527181
C109	C	0.435568	-0.025045	0.027177
C110	C	0.935568	0.474955	0.527177
C111	C	0.462661	0.005123	0.000080
C112	C	0.962661	0.505123	0.500080
C113	C	0.323899	0.630942	0.000063
C114	C	0.823899	1.130942	0.500063
C115	C	0.276804	0.630950	0.000057
C116	C	0.776804	1.130950	0.500057
C117	C	0.011894	0.557001	0.027185
C118	C	0.511894	1.057001	0.527185
C119	C	-0.165091	0.556987	0.027195
C120	C	0.334909	1.056987	0.527195
O121	O	-0.164933	0.494129	0.050256
O122	O	0.335067	0.994129	0.550256
N123	N	-0.214317	0.630896	0.000101
N124	N	0.285683	1.130896	0.500101
C125	C	-0.219295	0.704814	-0.026994
C126	C	0.280705	1.204814	0.473006
O127	O	-0.265226	0.767677	-0.050034
O128	O	0.234774	1.267677	0.449966
C129	C	-0.042311	0.704827	-0.027001
C130	C	0.457689	1.204827	0.472999
C131	C	0.006914	0.630913	0.000090
C132	C	0.506914	1.130913	0.500090
C133	C	0.061117	0.483094	0.054275
C134	C	0.561117	0.983094	0.554275
C135	C	0.105360	0.483098	0.054270
C136	C	0.605360	0.983098	0.554270
C137	C	0.100381	0.557010	0.027175
C138	C	0.600381	1.057010	0.527175
C139	C	0.051158	0.630917	0.000085
C140	C	0.551158	1.130917	0.500085
C141	C	-0.047290	0.778744	-0.054093
C142	C	0.452710	1.278744	0.445907
C143	C	-0.003038	0.778740	-0.054091
C144	C	0.496962	1.278740	0.445909
C145	C	0.046187	0.704827	-0.027000
C146	C	0.546187	1.204827	0.473000
C147	C	0.090421	0.704834	-0.027015
C148	C	0.590421	1.204834	0.472985
N149	N	0.139647	0.630925	0.000079
N150	N	0.639647	1.130925	0.500079
C151	C	0.144627	0.557013	0.027174
C152	C	0.644627	1.057013	0.527174
C153	C	-0.312213	0.704801	-0.026989
C154	C	0.187787	1.204801	0.473011
C155	C	-0.356459	0.704798	-0.026988
C156	C	0.143541	1.204798	0.473012
C157	C	-0.302252	0.556971	0.027202
C158	C	0.197748	1.056971	0.527202
C159	C	-0.258005	0.556975	0.027198
C160	C	0.241995	1.056975	0.527198
C161	C	-0.262987	0.630893	0.000104
C162	C	0.237013	1.130893	0.500104
C163	C	0.237539	0.557027	0.027161
C164	C	0.737539	1.057027	0.527161
C165	C	0.281784	0.557038	0.027151
C166	C	0.781784	1.057038	0.527151
C167	C	0.227573	0.704865	-0.027036
C168	C	0.727573	1.204865	0.472964
C169	C	0.183331	0.704854	-0.027030
C170	C	0.683331	1.204854	0.472970
C171	C	0.188318	0.630929	0.000073
C172	C	0.688318	1.130929	0.500073
O173	O	0.090303	0.767658	-0.050058
O174	O	0.590303	1.267658	0.449942
O175	O	0.190561	0.494159	0.050220
O176	O	0.690561	0.994159	0.550220
C177	C	-0.032349	0.556997	0.027190
C178	C	0.467651	1.056997	0.527190
C179	C	-0.081572	0.630905	0.000101
C180	C	0.418428	1.130905	0.500101
C181	C	-0.086552	0.704817	-0.026994
C182	C	0.413448	1.204817	0.473006
C183	C	-0.125818	0.630901	0.000102
C184	C	0.374182	1.130901	0.500102
C185	C	-0.120839	0.556990	0.027196
C186	C	0.379161	1.056990	0.527196
C187	C	-0.071613	0.483081	0.054290
C188	C	0.428387	0.983081	0.554290
C189	C	-0.027370	0.483085	0.054285
C190	C	0.472630	0.983085	0.554285
C191	C	-0.135777	0.778725	-0.054088
C192	C	0.364223	1.278725	0.445912
C193	C	-0.180019	0.778715	-0.054081
C194	C	0.319981	1.278715	0.445919
C195	C	-0.175039	0.704803	-0.026986
C196	C	0.324961	1.204803	0.473014
C197	C	0.601426	0.630894	0.000100
C198	C	1.101426	1.130894	0.500100
C199	C	0.648521	0.630886	0.000106
C200	C	1.148521	1.130886	0.500106
C201	C	0.462657	0.630881	-0.138659
C202	C	0.962657	1.130881	0.361341
C203	C	0.462655	0.630868	-0.185747
C204	C	0.962655	1.130868	0.314253
C205	C	0.462666	0.820175	0.000087
C206	C	0.962666	1.320175	0.500087
C207	C	0.462667	0.884406	0.000089
C208	C	0.962667	1.384406	0.500089
C209	C	0.489770	0.557003	-0.494959
C210	C	0.989770	1.057003	0.005041
C211	C	0.489762	0.556978	-0.317960
C212	C	0.989762	1.056978	0.182040
O213	O	0.512821	0.494119	-0.272034
O214	O	1.012821	0.994119	0.227966
N215	N	0.462664	0.630885	-0.322919
N216	N	0.962664	1.130885	0.177081
C217	C	0.435570	0.704804	-0.372133
C218	C	0.935570	1.204804	0.127867
O219	O	0.412526	0.767667	-0.372290
O220	O	0.912526	1.267667	0.127710
C221	C	0.435581	0.704828	-0.549131
C222	C	0.935581	1.204828	-0.049131
C223	C	0.462676	0.630916	-0.544168
C224	C	0.962676	1.130916	-0.044168
C225	C	0.516863	0.483096	-0.489998
C226	C	1.016863	0.983096	0.010002
C227	C	0.516862	0.483103	-0.534245
C228	C	1.016862	0.983103	-0.034245
C229	C	0.489768	0.557016	-0.583454
C230	C	0.989768	1.057016	-0.083454
C231	C	0.462675	0.630923	-0.588415
C232	C	0.962675	1.130923	-0.088415
C233	C	0.408490	0.778746	-0.598344
C234	C	0.908490	1.278746	-0.098344
C235	C	0.408496	0.778746	-0.642594
C236	C	0.908496	1.278746	-0.142594
C237	C	0.435591	0.704833	-0.637630
C238	C	0.935591	1.204833	-0.137630
C239	C	0.435581	0.704843	-0.681871
C240	C	0.935581	1.204843	-0.181871
N241	N	0.462678	0.630935	-0.676912
N242	N	0.962678	1.130935	-0.176912
C243	C	0.489772	0.557022	-0.627703
C244	C	0.989772	1.057022	-0.127703
C245	C	0.435565	0.704787	-0.279205
C246	C	0.935565	1.204787	0.220795
C247	C	0.435561	0.704781	-0.234955
C248	C	0.935561	1.204781	0.265045
C249	C	0.489754	0.556954	-0.180785
C250	C	0.989754	1.056954	0.319215
C251	C	0.489755	0.556961	-0.225035
C252	C	0.989755	1.056961	0.274965
C253	C	0.462662	0.630879	-0.274245
C254	C	0.962662	1.130879	0.225755
C255	C	0.489768	0.557042	-0.720628
C256	C	0.989768	1.057042	-0.220628
C257	C	0.489763	0.557056	-0.764882
C258	C	0.989763	1.057056	-0.264882
C259	C	0.435573	0.704882	-0.819048
C260	C	0.935573	1.204882	-0.319048
C261	C	0.435575	0.704869	-0.774798
C262	C	0.935575	1.204869	-0.274798
C263	C	0.462677	0.630942	-0.725587
C264	C	0.962677	1.130942	-0.225587
O265	O	0.412538	0.767669	-0.727812
O266	O	0.912538	1.267669	-0.227812
O267	O	0.512822	0.494169	-0.627557
O268	O	1.012822	0.994169	-0.127557
C269	C	0.489770	0.556996	-0.450712
C270	C	0.989770	1.056996	0.049288
C271	C	0.462677	0.630902	-0.455673
C272	C	0.962677	1.130902	0.044327
C273	C	0.435583	0.704815	-0.504881
C274	C	0.935583	1.204815	-0.004881
C275	C	0.462673	0.630896	-0.411424
C276	C	0.962673	1.130896	0.088576
C277	C	0.489767	0.556983	-0.362215
C278	C	0.989767	1.056983	0.137785
C279	C	0.516865	0.483076	-0.357255
C280	C	1.016865	0.983076	0.142745
C281	C	0.516864	0.483082	-0.401503
C282	C	1.016864	0.983082	0.098497
C283	C	0.408486	0.778723	-0.509841
C284	C	0.908486	1.278723	-0.009841
C285	C	0.408488	0.778710	-0.465591
C286	C	0.908488	1.278710	0.034409
C287	C	0.435582	0.704797	-0.416383
C288	C	0.935582	1.204797	0.083617
C289	C	0.462668	0.630956	0.138822
C290	C	0.962668	1.130956	0.638822
C291	C	0.462670	0.630969	0.185910
C292	C	0.962670	1.130969	0.685910
C293	C	0.601422	0.441638	0.000094
C294	C	1.101422	0.941638	0.500094
C295	C	0.648516	0.377398	0.000098
C296	C	1.148516	0.877398	0.500098
C297	C	0.462664	0.441700	0.138816
C298	C	0.962664	0.941700	0.638816
C299	C	0.462665	0.377481	0.185902
C300	C	0.962665	0.877481	0.685902
C301	C	0.601427	0.441676	0.138835
C302	C	1.101427	0.941676	0.638835
C303	C	0.648523	0.377449	0.185926
C304	C	1.148523	0.877449	0.685926
C305	C	0.323897	0.820161	-0.138672
C306	C	0.823897	1.320161	0.361328
C307	C	0.276802	0.884388	-0.185763
C308	C	0.776802	1.384388	0.314237
C309	C	0.323903	0.820198	0.000069
C310	C	0.823903	1.320198	0.500069
C311	C	0.276809	0.884438	0.000065
C312	C	0.776809	1.384438	0.500065
C313	C	0.462661	0.820137	-0.138653
C314	C	0.962661	1.320137	0.361347
C315	C	0.462660	0.884356	-0.185739
C316	C	0.962660	1.384356	0.314261
C317	C	0.643534	0.347228	-0.027000
C318	C	1.143534	0.847228	0.473000
C319	C	0.687779	0.286876	-0.027006
C320	C	1.187779	0.786876	0.472994
C321	C	0.737006	0.256691	0.000089
C322	C	1.237006	0.756691	0.500089
C323	C	0.741986	0.286868	0.027188
C324	C	1.241986	0.786868	0.527188
C325	C	0.697742	0.347223	0.027191
C326	C	1.197742	0.847223	0.527191
C327	C	0.489762	0.347325	0.235114
C328	C	0.989762	0.847325	0.735114
C329	C	0.489761	0.286993	0.279359
C330	C	0.989761	0.786993	0.779359
C331	C	0.462664	0.256813	0.274392
C332	C	0.962664	0.756813	0.774392
C333	C	0.435563	0.286974	0.225175
C334	C	0.935563	0.786974	0.725175
C335	C	0.435562	0.347310	0.180930
C336	C	0.935562	0.847310	0.680930
C337	C	0.697739	0.347275	0.180953
C338	C	1.197739	0.847275	0.680953
C339	C	0.741995	0.286935	0.225196
C340	C	1.241995	0.786935	0.725196
C341	C	0.737033	0.256766	0.274413
C342	C	1.237033	0.756766	0.774413
C343	C	0.687811	0.286946	0.279385
C344	C	1.187811	0.786946	0.779385
C345	C	0.643557	0.347289	0.235142
C346	C	1.143557	0.847289	0.735142
C347	C	0.227585	0.914569	-0.180790
C348	C	0.727585	1.414569	0.319210
C349	C	0.183330	0.974927	-0.225033
C350	C	0.683330	1.474927	0.274967
C351	C	0.188292	1.005100	-0.274250
C352	C	0.688292	1.505100	0.225750
C353	C	0.237514	0.974916	-0.279222
C354	C	0.737514	1.474916	0.220778
C355	C	0.281768	0.914563	-0.234979
C356	C	0.781768	1.414563	0.265021
C357	C	0.281791	0.914615	0.027158
C358	C	0.781791	1.414615	0.527158
C359	C	0.237546	0.974984	0.027152
C360	C	0.737546	1.474984	0.527152
C361	C	0.188319	1.005170	0.000056
C362	C	0.688319	1.505170	0.500056
C363	C	0.183338	0.974991	-0.027041
C364	C	0.683338	1.474991	0.472959
C365	C	0.227583	0.914628	-0.027038
C366	C	0.727583	1.414628	0.472962
C367	C	0.489762	0.914517	-0.180755
C368	C	0.989762	1.414517	0.319245
C369	C	0.489771	0.974849	-0.224992
C370	C	0.989771	1.474849	0.275008
C371	C	0.462676	1.005024	-0.274213
C372	C	0.962676	1.505024	0.225787
C373	C	0.435574	0.974857	-0.279196
C374	C	0.935574	1.474857	0.220804
C375	C	0.435567	0.914522	-0.234959
C376	C	0.935567	1.414522	0.265041
H377	H	0.545007	0.124715	0.007108
H378	H	1.045007	0.624715	0.507108
H379	H	0.511816	0.262308	-0.049073
H380	H	1.011816	0.762308	0.450927
Cl381	Cl	0.581686	0.385209	0.241404
Cl382	Cl	1.081686	0.885209	0.741404
H383	H	0.223520	0.890059	-0.049099
H384	H	0.723520	1.390059	0.450901
Cl385	Cl	0.401487	0.876620	-0.241233
Cl386	Cl	0.901487	1.376620	0.258767
H387	H	0.413507	-0.109963	0.049236
H388	H	0.913507	0.390037	0.549236
H389	H	0.701805	0.371780	0.049260
H390	H	1.201805	0.871780	0.549260
Cl391	Cl	0.132701	1.081055	0.000058
Cl392	Cl	0.632701	1.581055	0.500058
Cl393	Cl	0.550923	0.390157	-0.295385
Cl394	Cl	1.050923	0.890157	0.204615
H395	H	0.413498	0.371854	0.140861
H396	H	0.913498	0.871854	0.640861
Cl397	Cl	0.523842	1.012766	-0.218716
Cl398	Cl	1.023842	1.512766	0.281284
Cl399	Cl	0.221334	0.876650	-0.118923
Cl400	Cl	0.721334	1.376650	0.381077
Cl401	Cl	0.523810	0.385168	-0.061080
Cl402	Cl	1.023810	0.885168	0.438920
Cl403	Cl	-0.196126	0.464052	0.061258
Cl404	Cl	0.303874	0.964052	0.561258
H405	H	0.386423	0.838913	-0.549906
H406	H	0.886423	1.338913	-0.049906
Cl407	Cl	0.167238	0.390172	0.088334
Cl408	Cl	0.667238	0.890172	0.588334
Cl409	Cl	0.121458	1.012857	-0.218770
Cl410	Cl	0.621458	1.512857	0.281230
H411	H	0.152253	1.054243	-0.310271
H412	H	0.652253	1.554243	0.189729
H413	H	0.413502	0.262393	0.221139
H414	H	0.913502	0.762393	0.721139
H415	H	0.241611	0.999545	0.049220
H416	H	0.741611	1.499545	0.549220
Cl417	Cl	0.462672	0.180961	0.330020
Cl418	Cl	0.962672	0.680961	0.830020
Cl419	Cl	0.523821	0.012855	-0.061066
Cl420	Cl	1.023821	0.512855	0.438934
Cl421	Cl	0.523832	0.385251	0.241372
Cl422	Cl	1.023832	0.885251	0.741372
H423	H	0.241548	0.999490	-0.319299
H424	H	0.741548	1.499490	0.180701
H425	H	0.538928	0.422904	-0.449932
H426	H	1.038928	0.922904	0.050068
H427	H	0.413513	0.999435	-0.319277
H428	H	0.913513	1.499435	0.180723
Cl429	Cl	0.121450	1.012945	-0.061101
Cl430	Cl	0.621450	1.512945	0.438899
Cl431	Cl	0.523830	0.876594	-0.118883
Cl432	Cl	1.023830	1.376594	0.381117
H433	H	0.065180	0.422902	0.076341
H434	H	0.565180	0.922902	0.576341
H435	H	0.321841	0.889990	-0.239035
H436	H	0.821841	1.389990	0.260965
Cl437	Cl	0.343670	0.876683	0.061224
Cl438	Cl	0.843670	1.376683	0.561224
Cl439	Cl	0.803875	0.248909	0.061251
Cl440	Cl	1.303875	0.748909	0.561251
Cl441	Cl	0.462687	1.080878	-0.329821
Cl442	Cl	0.962687	1.580878	0.170179
H443	H	0.545010	0.015209	0.007120
H444	H	1.045010	0.515209	0.507120
H445	H	0.511818	0.496775	-0.220989
H446	H	1.011818	0.996775	0.279011
Cl447	Cl	-0.418338	0.797722	-0.061055
Cl448	Cl	0.081662	1.297722	0.438945
Cl449	Cl	0.523823	-0.123373	-0.061061
Cl450	Cl	1.023823	0.376627	0.438939
H451	H	0.380308	0.137142	-0.006957
H452	H	0.880308	0.637142	0.493043
Cl453	Cl	0.401506	0.012903	0.061233
Cl454	Cl	0.901506	0.512903	0.561233
H455	H	0.511831	0.262443	0.319430
H456	H	1.011831	0.762443	0.819430
H457	H	0.701789	0.371830	0.140882
H458	H	1.201789	0.871830	0.640882
Cl459	Cl	0.034508	0.390160	0.088346
Cl460	Cl	0.534508	0.890160	0.588346
Cl461	Cl	0.401504	0.248982	0.061228
Cl462	Cl	0.901504	0.748982	0.561228
H463	H	0.782069	0.262369	0.221138
H464	H	1.282069	0.762369	0.721138
H465	H	0.380303	0.246641	-0.006968
H466	H	0.880303	0.746641	0.493032
Cl467	Cl	0.401503	0.385208	0.061229
Cl468	Cl	0.901503	0.885208	0.561229
Cl469	Cl	0.401511	0.797796	-0.880917
Cl470	Cl	0.901511	1.297796	-0.380917
H471	H	0.321865	0.496846	0.049214
H472	H	0.821865	0.996846	0.549214
H473	H	0.773072	0.207631	0.310434
H474	H	1.273072	0.707631	0.810434
H475	H	0.683779	0.262373	0.319463
H476	H	1.183779	0.762373	0.819463
H477	H	-0.298204	0.496789	0.049260
H478	H	0.201796	0.996789	0.549260
Cl479	Cl	-0.318486	0.797736	-0.061055
Cl480	Cl	0.181514	1.297736	0.438945
Cl481	Cl	0.243815	0.464092	0.061231
Cl482	Cl	0.743815	0.964092	0.561231
Cl483	Cl	0.121447	0.797775	-0.061098
Cl484	Cl	0.621447	1.297775	0.438902
Cl485	Cl	-0.109164	0.871670	-0.088148
Cl486	Cl	0.390836	1.371670	0.411852
Cl487	Cl	0.792623	0.180814	0.000081
Cl488	Cl	1.292623	0.680814	0.500081
Cl489	Cl	-0.009307	0.871671	-0.088153
Cl490	Cl	0.490693	1.371671	0.411847
H491	H	0.223527	0.765042	-0.049098
H492	H	0.723527	1.265042	0.450902
H493	H	-0.067566	0.422899	0.076348
H494	H	0.432434	0.922899	0.576348
Cl495	Cl	0.550929	0.390159	-0.395255
Cl496	Cl	1.050929	0.890159	0.104745
H497	H	-0.139840	0.838915	-0.076153
H498	H	0.360160	1.338915	0.423847
Cl499	Cl	-0.241900	0.871645	-0.088144
Cl500	Cl	0.258100	1.371645	0.411856
H501	H	0.511837	0.496844	-0.680563
H502	H	1.011837	0.996844	-0.180563
Cl503	Cl	0.523827	0.464130	-0.758637
Cl504	Cl	1.023827	0.964130	-0.258637
Cl505	Cl	0.550929	0.390179	-0.527997
Cl506	Cl	1.050929	0.890179	-0.027997
H507	H	0.511813	0.496771	-0.140711
H508	H	1.011813	0.996771	0.359289
Cl509	Cl	0.401486	0.797703	-0.241202
Cl510	Cl	0.901486	1.297703	0.258798
Cl511	Cl	0.401500	0.797723	-0.341066
Cl512	Cl	0.901500	1.297723	0.158934
H513	H	0.386427	0.838934	-0.602396
H514	H	0.886427	1.338934	-0.102396
H515	H	0.386434	0.838940	-0.682662
H516	H	0.886434	1.338940	-0.182662
H517	H	0.386419	0.838903	-0.469641
H518	H	0.886419	1.338903	0.030359
Cl519	Cl	0.401520	0.797788	-0.781038
Cl520	Cl	0.901520	1.297788	-0.281038
H521	H	0.603455	0.371803	-0.049070
H522	H	1.103455	0.871803	0.450930
H523	H	0.683714	0.262314	-0.049073
H524	H	1.183714	0.762314	0.450927
