data_functionalizedCrystal
_audit_creation_method	'MofGen! by Chris Wilmer'
_symmetry_space_group_name_H-M	'P1'
_symmetry_Int_Tables_number	1
_symmetry_cell_setting	triclinic
loop_
_symmetry_equiv_pos_as_xyz
  x,y,z
_cell_length_a	12.837943
_cell_length_b	27.732048
_cell_length_c	11.892095
_cell_angle_alpha	93.851775
_cell_angle_beta	85.689438
_cell_angle_gamma	88.735798
loop_
_atom_site_label
_atom_site_type_symbol
_atom_site_fract_x
_atom_site_fract_y
_atom_site_fract_z
O1	O	1.380115	0.122782	-0.094008
O2	O	1.078409	0.116579	-0.094014
O3	O	1.238631	0.049749	-0.093989
O4	O	1.219894	0.189612	-0.094033
O5	O	1.225272	0.055311	0.094016
O6	O	1.065051	0.122142	0.093992
O7	O	1.366757	0.128345	0.093997
Zn8	Zn	1.213783	0.126126	0.123844
Zn9	Zn	1.231383	0.118797	-0.123861
O10	O	1.206535	0.195175	0.093973
C11	C	1.033143	0.117265	-0.000011
C12	C	0.918166	0.111016	-0.000012
C13	C	0.676005	0.186144	-0.000019
C14	C	0.567973	0.180275	-0.000020
C15	C	0.594068	0.093407	-0.000005
C16	C	0.702100	0.099277	-0.000005
C17	C	0.743064	0.145647	-0.000014
C18	C	0.851099	0.151516	-0.000022
C19	C	0.877191	0.064649	0.000001
C20	C	0.769159	0.058780	0.000001
C21	C	1.231558	0.034504	0.000017
C22	C	1.230373	-0.019210	0.000026
C23	C	1.317601	-0.353705	-0.000031
C24	C	1.313207	-0.555583	-0.000046
O25	O	1.392971	-0.582888	-0.000094
N26	N	1.218201	-0.579414	-0.000047
C27	C	1.124288	-0.552772	-0.000051
O28	O	1.043379	-0.577674	-0.000064
C29	C	1.128683	-0.350895	-0.000043
C30	C	1.223695	-0.327067	-0.000031
C31	C	1.412605	-0.329876	-0.000020
C32	C	1.413702	-0.279410	-0.000010
C33	C	1.319795	-0.252772	-0.000010
C34	C	1.224792	-0.276600	-0.000021
C35	C	1.034772	-0.324255	-0.000056
C36	C	1.035879	-0.273783	-0.000056
C37	C	1.130890	-0.249954	-0.000044
C38	C	1.131982	-0.199496	-0.000012
N39	N	1.226988	-0.175665	-0.000011
C40	C	1.320894	-0.202303	-0.000010
C41	C	1.121987	-0.658760	-0.000053
C42	C	1.120887	-0.709229	-0.000053
C43	C	1.309807	-0.712036	-0.000050
C44	C	1.310905	-0.661566	-0.000042
C45	C	1.216992	-0.634929	-0.000052
C46	C	1.323191	-0.096319	0.000012
C47	C	1.324280	-0.045848	0.000027
C48	C	1.135361	-0.043045	0.000018
C49	C	1.134271	-0.093512	0.000009
C50	C	1.228195	-0.120148	0.000002
O51	O	1.052262	-0.172160	0.000024
O52	O	1.401793	-0.177392	-0.000023
C53	C	1.316504	-0.404172	-0.000041
C54	C	1.221500	-0.428000	-0.000051
C55	C	1.127594	-0.401362	-0.000052
C56	C	1.220401	-0.478469	-0.000051
C57	C	1.314308	-0.505107	-0.000051
C58	C	1.409314	-0.481276	-0.000050
C59	C	1.410411	-0.430810	-0.000040
C60	C	1.032588	-0.425193	-0.000053
C61	C	1.031499	-0.475660	-0.000062
C62	C	1.125405	-0.502298	-0.000061
C63	C	1.412023	0.127658	-0.000008
C64	C	1.527001	0.133908	-0.000014
C65	C	1.213608	0.210420	-0.000035
C66	C	1.214794	0.264133	-0.000052
N67	N	1.201778	0.131128	0.292897
N68	N	1.243396	0.113792	-0.292913
C69	C	1.326930	0.078958	0.529564
C70	C	1.318546	0.082459	0.647904
C71	C	1.176623	0.141626	0.647921
C72	C	1.185007	0.138126	0.529580
C73	C	1.260163	0.106791	0.470406
C74	C	1.268551	0.103294	0.352063
C75	C	1.126624	0.162459	0.352082
C76	C	1.118240	0.165959	0.470422
H77	H	0.931804	0.031673	-0.000001
H78	H	1.401652	-0.026449	0.000039
H79	H	1.372913	0.059793	0.696067
C80	C	0.895446	0.201882	-0.000205
C81	C	0.868140	0.223804	-0.096916
C82	C	0.908957	0.270205	-0.097113
H83	H	0.969390	0.199647	-0.000264
H84	H	0.867693	0.220726	0.065322
H85	H	0.895897	0.204964	-0.162426
H86	H	0.794203	0.226051	-0.096877
H87	H	0.881205	0.289049	-0.031586
H88	H	0.982900	0.267965	-0.097169
H89	H	0.890428	0.285086	-0.162724
C90	C	1.425271	-0.125146	0.000068
C91	C	1.508693	-0.093466	0.000110
C92	C	1.602741	-0.120003	0.000184
H93	H	1.433587	-0.146830	-0.065478
H94	H	1.424169	-0.142947	0.065654
H95	H	1.509796	-0.075673	-0.065470
H96	H	1.500412	-0.071781	0.065651
H97	H	1.601639	-0.137804	0.065771
H98	H	1.611046	-0.141686	-0.065362
H99	H	1.659353	-0.098512	0.000223
H100	H	1.491070	-0.260013	-0.000004
C101	C	1.054241	0.192767	0.287916
C102	C	1.068266	0.241858	0.316675
C103	C	1.001620	0.269794	0.257579
H104	H	0.983777	0.184957	0.307277
H105	H	1.070000	0.186230	0.208949
H106	H	1.052500	0.248392	0.395624
H107	H	1.138716	0.249683	0.297311
H108	H	1.017379	0.263258	0.178612
H109	H	0.931160	0.261980	0.276945
H110	H	1.011134	0.303105	0.277076
H111	H	1.058904	-0.021347	0.000022
C112	C	1.094913	0.175646	0.711975
C113	C	1.038209	0.199263	0.634841
C114	C	0.962915	0.230598	0.693806
H115	H	1.128446	0.198884	0.758143
H116	H	1.048754	0.157640	0.758118
H117	H	1.084362	0.217268	0.588718
H118	H	1.004654	0.176038	0.588671
H119	H	0.916756	0.212592	0.739949
H120	H	0.996457	0.253833	0.739973
H121	H	0.924426	0.246623	0.641481
H122	H	1.485775	-0.502974	-0.000045
H123	H	1.487778	-0.411413	-0.000030
C124	C	1.514677	-0.358705	0.000044
C125	C	1.598097	-0.327024	0.000082
C126	C	1.692147	-0.353558	0.000166
H127	H	1.522997	-0.380392	-0.065496
H128	H	1.513575	-0.376502	0.065636
H129	H	1.599201	-0.309234	-0.065503
H130	H	1.589812	-0.305336	0.065617
H131	H	1.691044	-0.371356	0.065758
H132	H	1.700455	-0.375245	-0.065375
H133	H	1.748757	-0.332066	0.000202
H134	H	1.057046	0.191469	0.518616
H135	H	0.735790	0.021027	0.000022
H136	H	0.709358	0.223900	-0.000028
C137	C	0.928232	-0.501440	-0.000132
C138	C	0.846238	-0.467304	-0.000163
C139	C	0.751100	-0.491034	-0.000254
H140	H	0.919059	-0.519138	0.065404
H141	H	0.928483	-0.522991	-0.065728
H142	H	0.845984	-0.445762	0.065426
H143	H	0.855376	-0.449605	-0.065694
H144	H	0.751351	-0.512585	-0.065850
H145	H	0.741937	-0.508731	0.065283
H146	H	0.695456	-0.467877	-0.000286
H147	H	0.513376	0.213252	-0.000021
H148	H	0.560689	0.055658	0.000096
C149	C	1.414172	-0.635789	-0.000100
C150	C	1.496170	-0.669926	-0.000126
C151	C	1.591320	-0.646201	-0.000199
H152	H	1.414027	-0.614222	0.065440
H153	H	1.423247	-0.618110	-0.065692
H154	H	1.487098	-0.687597	0.065459
H155	H	1.496350	-0.691494	-0.065661
H156	H	1.600395	-0.628522	-0.065791
H157	H	1.591164	-0.624636	0.065342
H158	H	1.646968	-0.669360	-0.000227
C159	C	1.019900	-0.629927	0.000006
C160	C	0.936472	-0.661605	0.000039
C161	C	0.842414	-0.635063	0.000116
H162	H	1.020898	-0.612112	-0.065536
H163	H	1.011683	-0.608255	0.065596
H164	H	0.944688	-0.683269	-0.065544
H165	H	0.935441	-0.679421	0.065576
H166	H	0.834197	-0.613391	0.065706
H167	H	0.843422	-0.617249	-0.065427
H168	H	0.785796	-0.656552	0.000149
H169	H	1.386269	-0.733734	-0.000049
C170	C	1.349963	0.069216	0.287698
C171	C	1.300031	0.035094	0.219794
C172	C	1.374981	0.003685	0.160491
H173	H	1.388535	0.053091	0.339779
H174	H	1.396098	0.087182	0.241433
H175	H	1.253914	0.017130	0.266055
H176	H	1.261464	0.051205	0.167692
H177	H	1.421116	0.021651	0.114226
H178	H	1.413549	-0.012436	0.212580
H179	H	1.341114	-0.019467	0.114403
H180	H	1.043518	-0.728625	-0.000043
H181	H	1.056903	-0.112913	0.000031
H182	H	0.957404	-0.343648	-0.000072
C183	C	0.930672	-0.396259	-0.000281
C184	C	0.932627	-0.370064	-0.097013
C185	C	0.838747	-0.343413	-0.097263
H186	H	0.922415	-0.374541	0.065208
H187	H	0.873916	-0.417671	-0.000345
H188	H	0.989367	-0.348655	-0.096939
H189	H	0.940867	-0.391771	-0.162518
H190	H	0.781991	-0.364824	-0.097327
H191	H	0.830498	-0.321697	-0.031769
H192	H	0.840057	-0.325640	-0.162899
C193	C	0.933847	-0.244929	-0.000241
C194	C	0.883460	-0.259222	-0.096958
C195	C	0.789461	-0.232658	-0.097157
H196	H	0.947958	-0.211450	-0.000294
H197	H	0.890140	-0.250700	0.065282
H198	H	0.927157	-0.253447	-0.162464
H199	H	0.869323	-0.292697	-0.096926
H200	H	0.745755	-0.238430	-0.031634
H201	H	0.803582	-0.199181	-0.097207
H202	H	0.755258	-0.242356	-0.162773
H203	H	1.388132	0.053448	0.481383
