data_functionalizedCrystal
_audit_creation_method	'MofGen! by Chris Wilmer'
_symmetry_space_group_name_H-M	'P1'
_symmetry_Int_Tables_number	1
_symmetry_cell_setting	triclinic
loop_
_symmetry_equiv_pos_as_xyz
  x,y,z
_cell_length_a	27.440280
_cell_length_b	14.560432
_cell_length_c	14.560432
_cell_angle_alpha	90.001357
_cell_angle_beta	60.007426
_cell_angle_gamma	59.999727
loop_
_atom_site_label
_atom_site_type_symbol
_atom_site_fract_x
_atom_site_fract_y
_atom_site_fract_z
Zr1	Zr	0.533400	-0.120513	0.884879
O2	O	0.635058	-0.267156	0.738258
O3	O	0.431740	-0.075561	0.929809
O4	O	0.533399	-0.267159	0.929833
O5	O	0.533401	0.075579	0.738233
O6	O	0.533401	-0.267159	1.080971
O7	O	0.533399	-0.075558	0.738233
O8	O	0.351552	0.075575	1.080927
O9	O	0.715250	-0.267155	0.738277
O10	O	0.473557	-0.056388	1.061784
O11	O	0.473557	0.056405	0.948992
O12	O	0.593247	-0.169177	0.949021
O13	O	0.593247	-0.056385	0.836228
Zr14	Zr	0.533407	0.120533	1.125926
Zr15	Zr	0.533404	-0.120514	1.125926
Zr16	Zr	0.533404	0.120534	0.884879
Zr17	Zr	0.661298	-0.120511	0.884910
Zr18	Zr	0.405509	0.120530	1.125895
O19	O	0.635067	0.075581	1.080996
O20	O	0.635063	-0.267157	1.080996
O21	O	0.635063	0.075581	0.738258
O22	O	0.431749	0.267176	1.272547
O23	O	0.431745	-0.075562	1.272547
O24	O	0.431745	0.267177	0.929809
O25	O	0.533406	-0.075559	1.272571
O26	O	0.533408	0.267179	1.080971
O27	O	0.533406	0.267179	0.929833
O28	O	0.533408	0.075578	1.272571
O29	O	0.715253	-0.267155	0.929878
O30	O	0.351554	0.267175	1.080927
O31	O	0.351557	0.267174	1.272527
O32	O	0.351554	0.075574	1.272527
O33	O	0.715253	-0.075554	0.738277
O34	O	0.715255	-0.075555	0.929878
O35	O	0.473560	0.169197	1.061784
O36	O	0.473560	0.056404	1.174576
O37	O	0.593250	-0.056385	1.061813
O38	O	0.593250	0.056407	0.949021
C39	C	0.373423	0.000006	1.005363
C40	C	0.319127	0.000005	1.005350
C41	C	0.533399	0.000010	0.703889
C42	C	0.533398	0.000011	0.601558
C43	C	0.533408	0.301523	1.005402
C44	C	0.533409	0.403854	1.005402
C45	C	-0.017615	-0.058857	1.064310
C46	C	-0.068639	-0.058854	1.064320
O47	O	-0.095045	-0.108892	1.114427
N48	N	-0.094155	0.000021	1.005443
C49	C	-0.068649	0.058905	0.946561
O50	O	-0.095039	0.108983	0.896483
C51	C	-0.017630	0.058908	0.946558
C52	C	0.007888	0.000020	1.005430
C53	C	0.007903	-0.117738	1.123178
C54	C	0.058924	-0.117743	1.123166
C55	C	0.084428	-0.058866	1.064286
C56	C	0.058910	0.000016	1.005417
C57	C	0.007871	0.117798	0.887683
C58	C	0.058894	0.117796	0.887685
C59	C	0.084412	0.058909	0.946557
C60	C	0.135434	0.058888	0.946525
N61	N	0.160951	0.000014	1.005402
C62	C	0.135447	-0.058863	1.064283
C63	C	-0.175795	0.058896	0.946573
C64	C	-0.226810	0.058887	0.946569
C65	C	-0.226796	-0.058870	1.064330
C66	C	-0.175777	-0.058867	1.064327
C67	C	-0.150278	0.000022	1.005450
C68	C	0.242596	-0.058869	1.064252
C69	C	0.293624	-0.058872	1.064231
C70	C	0.293603	0.058890	0.946474
C71	C	0.242583	0.058888	0.946490
C72	C	0.217079	0.000007	1.005387
O73	O	0.161871	0.108904	0.896448
O74	O	0.161836	-0.108921	1.114364
C75	C	0.693384	0.000013	1.005441
C76	C	0.747680	0.000015	1.005454
C77	C	0.533399	-0.301503	1.005402
C78	C	0.533398	-0.403834	1.005402
C79	C	0.658367	0.286118	0.887687
C80	C	0.720844	0.275327	0.828835
C81	C	0.720841	0.371479	0.828837
C82	C	0.658354	0.478431	0.887695
C83	C	0.595878	0.489222	0.946548
C84	C	0.595887	0.393061	0.946542
C85	C	0.470921	0.606957	1.064255
C86	C	0.470923	0.510806	1.064260
C87	C	0.408435	0.713909	1.123113
C88	C	0.345956	0.724702	1.181973
C89	C	0.345962	0.628541	1.181969
C90	C	0.408446	0.521597	1.123113
C91	C	0.408440	0.117753	0.719267
C92	C	0.345963	0.176619	0.730044
C93	C	0.345966	0.176616	0.633892
C94	C	0.408453	0.117743	0.526953
C95	C	0.470929	0.058878	0.516176
C96	C	0.470920	0.058884	0.612337
C97	C	0.595886	-0.058857	0.398469
C98	C	0.595884	-0.058862	0.494620
C99	C	0.658372	-0.117729	0.291530
C100	C	0.720851	-0.176602	0.280751
C101	C	0.720845	-0.176598	0.376912
C102	C	0.658361	-0.117727	0.483842
C103	C	0.533408	0.000009	1.306915
C104	C	0.533409	0.000009	1.409246
C105	C	0.373427	0.000006	1.306876
C106	C	0.319133	0.000004	1.409194
C107	C	0.373427	0.301520	1.005363
C108	C	0.319133	0.403849	1.005350
C109	C	0.373431	0.301519	1.306876
C110	C	0.319138	0.403848	1.409194
C111	C	0.693376	-0.301499	0.703928
C112	C	0.747669	-0.403829	0.601610
C113	C	0.693380	0.000014	0.703928
C114	C	0.747674	0.000015	0.601610
C115	C	0.693380	-0.301500	1.005441
C116	C	0.747674	-0.403829	1.005454
C117	C	0.293634	-0.058883	1.398367
C118	C	0.242625	-0.058907	1.494496
C119	C	0.217113	-0.000036	1.601451
C120	C	0.242617	0.058853	1.612276
C121	C	0.293628	0.058869	1.516148
C122	C	0.293637	0.510791	1.064220
C123	C	0.242629	0.606949	1.064204
C124	C	0.217113	0.596164	1.005323
C125	C	0.242614	0.489211	0.946445
C126	C	0.293625	0.393055	0.946456
C127	C	0.293642	0.393027	1.516130
C128	C	0.242635	0.489167	1.612277
C129	C	0.217122	0.596127	1.601486
C130	C	0.242623	0.606947	1.494539
C131	C	0.293633	0.510808	1.398394
C132	C	0.773172	-0.393007	0.494674
C133	C	0.824195	-0.489147	0.398527
C134	C	0.849710	-0.596108	0.409318
C135	C	0.824205	-0.606927	0.516265
C136	C	0.773187	-0.510788	0.612410
C137	C	0.773179	0.058892	0.612437
C138	C	0.824201	0.058890	0.516308
C139	C	0.849715	0.000016	0.409353
C140	C	0.824209	-0.058868	0.398529
C141	C	0.773191	-0.058872	0.494657
C142	C	0.773173	-0.393008	1.064347
C143	C	0.824182	-0.489148	1.064381
C144	C	0.849694	-0.596109	1.005516
C145	C	0.824190	-0.606928	0.946622
C146	C	0.773179	-0.510789	0.946595
H147	H	0.314401	-0.106829	1.112170
H148	H	0.658351	-0.117721	0.562142
H149	H	0.314377	0.305982	0.898520
H150	H	0.891231	-0.674382	1.005547
H151	H	0.752400	-0.305923	0.485867
H152	H	0.314405	-0.106836	1.311288
H153	H	0.844942	-0.480317	1.112338
C154	C	0.658369	0.180354	0.887697
H155	H	0.612212	0.202098	0.931184
H156	H	0.681452	0.136844	0.812691
H157	H	0.681439	0.136876	0.919246
C158	C	0.321673	0.123648	1.528065
H159	H	0.355712	0.115227	1.455503
H160	H	0.285046	0.201103	1.568017
H161	H	0.341577	0.094559	1.568021
C162	C	0.658377	-0.117736	0.185764
H163	H	0.612220	-0.074257	0.207496
H164	H	0.681449	-0.086209	0.142276
H165	H	0.681457	-0.192758	0.142277
C166	C	0.658352	0.584195	0.887685
H167	H	0.704510	0.562451	0.844205
H168	H	0.635277	0.627681	0.856153
H169	H	0.635276	0.627697	0.962696
H170	H	0.844990	-0.106802	0.311433
C171	C	0.321699	0.522671	1.128988
H172	H	0.355729	0.450093	1.120578
H173	H	0.341604	0.562616	1.099909
H174	H	0.285073	0.562625	1.206443
C175	C	0.214548	0.724606	1.482684
H176	H	0.180511	0.780304	1.555265
H177	H	0.251161	0.733066	1.442744
H178	H	0.194634	0.733044	1.442743
C179	C	0.789576	-0.241353	0.163129
H180	H	0.780629	-0.232925	0.107409
H181	H	0.815247	-0.212277	0.154708
H182	H	0.815247	-0.318819	0.154696
H183	H	0.844952	-0.480316	0.311456
C184	C	0.789571	-0.241353	0.365049
H185	H	0.826782	-0.276418	0.287590
H186	H	0.792165	-0.190532	0.400119
H187	H	0.792171	-0.297081	0.400101
C188	C	0.852264	-0.724587	0.881865
H189	H	0.886302	-0.780285	0.890311
H190	H	0.815651	-0.733046	0.910914
H191	H	0.872177	-0.733025	0.804402
C192	C	0.214581	0.724582	1.128983
H193	H	0.237077	0.717225	1.164065
H194	H	0.222946	0.764548	1.078177
H195	H	0.166415	0.764538	1.184691
C196	C	0.852272	-0.724587	0.528121
H197	H	0.886302	-0.780285	0.455539
H198	H	0.872176	-0.733042	0.568076
H199	H	0.815647	-0.733028	0.568046
C200	C	0.408434	0.117758	0.825034
H201	H	0.362274	0.161255	0.890264
H202	H	0.431514	0.042747	0.825046
H203	H	0.431501	0.149302	0.825054
H204	H	0.314407	0.305943	1.524938
H205	H	0.221866	-0.106861	1.485660
C206	C	0.905820	-0.701851	0.303552
H207	H	0.917344	-0.680077	0.238323
H208	H	0.945630	-0.745361	0.303535
H209	H	0.889090	-0.745339	0.303538
C210	C	0.214542	0.477356	0.881686
H211	H	0.237032	0.399895	0.846615
H212	H	0.166378	0.512429	0.932504
H213	H	0.222908	0.512420	0.825970
C214	C	0.321666	0.522725	1.280771
H215	H	0.299157	0.600198	1.288125
H216	H	0.369830	0.487672	1.240805
H217	H	0.313290	0.487678	1.240823
C218	C	0.277233	0.241368	0.847672
H219	H	0.286176	0.232933	0.903397
H220	H	0.251556	0.318827	0.856106
H221	H	0.251570	0.212271	0.856086
H222	H	0.295092	0.224553	0.642672
C223	C	0.160997	-0.000050	1.707185
H224	H	0.149454	0.043440	1.772440
H225	H	0.121199	0.031465	1.707166
H226	H	0.177726	-0.075071	1.707186
H227	H	0.295085	0.811785	1.229884
C228	C	0.905832	0.000032	0.303623
H229	H	0.917359	0.043541	0.325399
H230	H	0.945638	-0.074975	0.260130
H231	H	0.889109	0.031568	0.260121
C232	C	0.214544	0.123615	1.729929
H233	H	0.180506	0.115176	1.785620
H234	H	0.251157	0.094558	1.738396
H235	H	0.194631	0.201082	1.738363
C236	C	0.745144	-0.522706	0.881793
H237	H	0.767652	-0.600179	0.846733
H238	H	0.696980	-0.487653	0.932580
H239	H	0.753518	-0.487657	0.826066
C240	C	-0.020194	0.182581	0.822931
H241	H	-0.054232	0.174153	0.831352
H242	H	-0.040090	0.260036	0.852009
H243	H	0.016428	0.153505	0.745473
H244	H	0.221835	-0.106814	1.112213
H245	H	0.079697	-0.165690	1.171108
H246	H	0.175577	0.674470	1.005323
H247	H	0.314379	0.106822	0.898532
C248	C	0.852242	0.123677	0.528235
H249	H	0.829728	0.158754	0.605703
H250	H	0.900404	0.072872	0.493205
H251	H	0.843878	0.179397	0.493172
C252	C	0.789576	0.157686	0.764092
H253	H	0.826783	0.165033	0.729034
H254	H	0.792174	0.117729	0.814911
H255	H	0.792177	0.117728	0.708366
H256	H	0.771715	0.362688	0.780908
C257	C	0.214570	0.477252	1.729907
H258	H	0.180537	0.549822	1.785630
H259	H	0.194667	0.437308	1.738302
H260	H	0.251191	0.437286	1.738361
H261	H	0.175586	0.674401	1.679783
H262	H	0.079653	0.165750	0.839738
C263	C	-0.020139	-0.182516	1.187945
H264	H	0.002376	-0.217585	1.222991
H265	H	-0.068301	-0.131714	1.243662
H266	H	-0.011773	-0.238243	1.137123
H267	H	0.752423	-0.519613	0.699480
H268	H	-0.155003	-0.106817	1.112266
H269	H	0.221812	0.106824	0.898537
H270	H	-0.247571	-0.106809	1.112276
C271	C	0.408430	0.819675	1.123102
H272	H	0.454588	0.797933	1.079627
H273	H	0.385358	0.863156	1.091564
H274	H	0.385350	0.863181	1.198114
H275	H	-0.155032	0.106844	0.898616
H276	H	0.752409	-0.305924	1.112282
H277	H	-0.247575	0.106825	0.898615
H278	H	0.295085	0.637340	1.229888
H279	H	0.752409	0.106842	0.699517
H280	H	0.752426	-0.106813	0.485825
H281	H	0.408456	0.443297	1.123110
H282	H	0.408449	0.117758	0.448666
