data_functionalizedCrystal
_audit_creation_method	'MofGen! by Chris Wilmer'
_symmetry_space_group_name_H-M	'P1'
_symmetry_Int_Tables_number	1
_symmetry_cell_setting	triclinic
loop_
_symmetry_equiv_pos_as_xyz
  x,y,z
_cell_length_a	12.759399
_cell_length_b	11.169417
_cell_length_c	11.169409
_cell_angle_alpha	89.980487
_cell_angle_beta	89.965790
_cell_angle_gamma	90.016365
loop_
_atom_site_label
_atom_site_type_symbol
_atom_site_fract_x
_atom_site_fract_y
_atom_site_fract_z
Zn1	Zn	-0.418146	1.834922	-0.678517
Zn2	Zn	-0.593872	1.834795	-0.477828
Zn3	Zn	-0.418211	1.634208	-0.477853
Zn4	Zn	-0.593788	1.634199	-0.678473
O5	O	-0.506004	1.734531	-0.578168
O6	O	-0.441465	2.002855	-0.651903
O7	O	-0.570633	1.808137	-0.309881
O8	O	-0.271182	1.660891	-0.504500
O9	O	-0.570570	2.002762	-0.504457
O10	O	-0.271134	1.808354	-0.651927
O11	O	-0.441576	1.660767	-0.309899
O12	O	-0.441494	1.466257	-0.504458
O13	O	-0.570426	1.660875	-0.846429
O14	O	-0.570489	1.466251	-0.651853
O15	O	-0.441383	1.808346	-0.846461
O16	O	-0.740882	1.808128	-0.504415
O17	O	-0.740820	1.660751	-0.651829
C18	C	-0.505990	1.422707	-0.578154
C19	C	-0.506009	1.289307	-0.578177
C20	C	-0.778972	1.734458	-0.578140
C21	C	-0.895748	1.734536	-0.578169
C22	C	-0.950608	1.811363	-0.501498
C23	C	-1.060332	1.811440	-0.501538
C24	C	-1.060327	1.657853	-0.654924
C25	C	-0.950605	1.657783	-0.654889
C26	C	-1.210210	1.953101	-0.458824
C27	C	-1.265073	2.029917	-0.382134
C28	C	-1.229538	2.048380	-0.265031
C29	C	-1.139142	1.990009	-0.224593
C30	C	-1.084285	1.913184	-0.301277
C31	C	-1.119818	1.894744	-0.418397
C32	C	-0.800725	1.516120	-0.697591
C33	C	-0.745866	1.439288	-0.774269
C34	C	-0.781398	1.420813	-0.891374
C35	C	-0.871798	1.479163	-0.931807
C36	C	-0.926657	1.555995	-0.855129
C37	C	-0.891117	1.574472	-0.738025
C38	C	-0.231971	1.734638	-0.578221
C39	C	-0.115194	1.734683	-0.578244
C40	C	-0.505888	1.734623	-0.891210
C41	C	-0.505838	1.734663	-1.024610
C42	C	-0.506019	2.047574	-0.578182
C43	C	-0.506026	2.180974	-0.578188
C44	C	-0.506045	1.734509	-0.266343
C45	C	-0.505798	1.734702	-0.132944
H46	H	-1.010685	1.865661	-0.268354
C47	C	-1.249289	1.932805	-0.587645
H48	H	-1.203665	1.878706	-0.627532
H49	H	-1.318046	1.900228	-0.585587
H50	H	-1.250249	2.006966	-0.629299
C51	C	-1.120673	1.573420	-0.739296
H52	H	-1.193877	1.584454	-0.728328
H53	H	-1.102620	1.590926	-0.819946
H54	H	-1.102761	1.492775	-0.721646
C55	C	-1.100063	2.010313	-0.095774
H56	H	-1.145676	2.064434	-0.055898
H57	H	-1.099099	1.936164	-0.054111
H58	H	-1.031302	2.042895	-0.097842
C59	C	-0.890263	1.895786	-0.417114
H60	H	-0.817059	1.884734	-0.428061
H61	H	-0.908169	1.976430	-0.434745
H62	H	-0.908325	1.878260	-0.336464
C63	C	-1.289882	2.132880	-0.180677
H64	H	-1.348801	2.165002	-0.221532
H65	H	-1.312936	2.089531	-0.112375
H66	H	-1.245138	2.196261	-0.156107
H67	H	-1.000262	1.603512	-0.888061
H68	H	-0.736722	1.358246	-0.953803
C69	C	-1.364495	2.094132	-0.426617
H70	H	-1.377793	2.072154	-0.507353
H71	H	-1.422415	2.071568	-0.378123
H72	H	-1.354604	2.178297	-0.421830
C73	C	-0.761649	1.536421	-0.568764
H74	H	-0.699967	1.490645	-0.555658
H75	H	-0.746532	1.618921	-0.557423
H76	H	-0.814344	1.512188	-0.513728
H77	H	-0.900729	1.464121	-1.027164
H78	H	-0.672253	1.391784	-0.741341
