data_functionalizedCrystal
_audit_creation_method	'MofGen! by Chris Wilmer'
_symmetry_space_group_name_H-M	'P1'
_symmetry_Int_Tables_number	1
_symmetry_cell_setting	triclinic
loop_
_symmetry_equiv_pos_as_xyz
  x,y,z
_cell_length_a	8.559649
_cell_length_b	8.559649
_cell_length_c	14.048226
_cell_angle_alpha	89.995035
_cell_angle_beta	89.993610
_cell_angle_gamma	69.778664
loop_
_atom_site_label
_atom_site_type_symbol
_atom_site_fract_x
_atom_site_fract_y
_atom_site_fract_z
O1	O	2.126885	-0.055032	-0.079146
O2	O	1.651400	0.028749	-0.079149
O3	O	1.931033	-0.250884	-0.079146
O4	O	1.847252	0.224601	-0.079149
O5	O	1.931005	-0.250895	0.079175
O6	O	1.651372	0.028738	0.079172
O7	O	2.126857	-0.055043	0.079176
Zn8	Zn	1.889110	-0.013154	0.104311
Zn9	Zn	1.889147	-0.013140	-0.104284
O10	O	1.847224	0.224590	0.079173
C11	C	1.591077	0.035093	0.000011
C12	C	1.411378	0.053992	0.000009
C13	C	1.937369	-0.311198	0.000013
C14	C	1.956268	-0.490898	0.000008
C15	C	2.187180	-0.061387	0.000013
C16	C	2.366879	-0.080286	0.000009
C17	C	1.840889	0.284904	0.000011
C18	C	1.821990	0.464604	0.000010
N19	N	1.889097	-0.013167	0.246671
N20	N	1.889175	-0.013142	-0.246645
C21	C	2.012947	-0.136947	0.296491
C22	C	2.012958	-0.136949	0.396149
C23	C	1.889124	-0.013163	0.445985
C24	C	1.765261	0.110624	0.396158
C25	C	1.765245	0.110618	0.296503
C26	C	1.765307	0.110630	0.603873
C27	C	1.765325	0.110638	0.703535
C28	C	2.013020	-0.136937	0.703519
C29	C	2.013004	-0.136943	0.603863
C30	C	1.889142	-0.013154	0.554043
H31	H	1.692570	-0.436018	0.000012
H32	H	1.311990	0.183420	0.000003
C33	C	2.149170	-0.273117	0.241676
C34	C	2.285396	-0.409278	0.296482
C35	C	2.421619	-0.545456	0.241671
C36	C	2.421616	-0.545473	0.132053
C37	C	2.285385	-0.409307	0.077241
C38	C	2.149162	-0.273129	0.132052
H39	H	2.285403	-0.409270	0.377633
H40	H	2.522466	-0.646256	0.282247
H41	H	2.522457	-0.646281	0.091479
H42	H	2.285379	-0.409315	-0.003910
H43	H	2.048315	-0.172330	0.091476
H44	H	2.085696	-0.590286	0.000016
H45	H	2.113806	-0.237741	0.436711
C46	C	2.149219	-0.273103	0.549038
C47	C	2.169184	-0.457514	0.562744
C48	C	2.305397	-0.593677	0.507918
C49	C	2.421645	-0.545430	0.439384
C50	C	2.401684	-0.361011	0.425674
C51	C	2.265471	-0.224847	0.480501
H52	H	2.083127	-0.493237	0.613480
H53	H	2.320173	-0.730197	0.518067
H54	H	2.522478	-0.646226	0.398798
H55	H	2.487741	-0.325287	0.374939
H56	H	2.250695	-0.088328	0.470352
C57	C	2.149264	-0.273111	0.758318
C58	C	2.333638	-0.292937	0.744600
C59	C	2.469880	-0.429099	0.799406
C60	C	2.421748	-0.545435	0.867930
C61	C	2.237364	-0.525613	0.881651
C62	C	2.101122	-0.389451	0.826846
H63	H	2.369277	-0.206815	0.693872
H64	H	2.606373	-0.443772	0.789248
H65	H	2.522602	-0.646230	0.908501
H66	H	2.201726	-0.611735	0.932380
H67	H	1.964630	-0.374778	0.837003
H68	H	1.466258	-0.209705	0.000005
H69	H	1.664485	0.211437	0.744107
H70	H	1.664441	0.211428	0.563313
H71	H	1.664426	0.211409	0.436741
H72	H	1.664392	0.211411	0.255941
