data_functionalizedCrystal
_audit_creation_method	'MofGen! by Chris Wilmer'
_symmetry_space_group_name_H-M	'P1'
_symmetry_Int_Tables_number	1
_symmetry_cell_setting	triclinic
loop_
_symmetry_equiv_pos_as_xyz
  x,y,z
_cell_length_a	18.101398
_cell_length_b	21.395361
_cell_length_c	21.395355
_cell_angle_alpha	90.021511
_cell_angle_beta	90.029870
_cell_angle_gamma	90.025974
loop_
_atom_site_label
_atom_site_type_symbol
_atom_site_fract_x
_atom_site_fract_y
_atom_site_fract_z
Zn1	Zn	1.132164	-0.249590	0.354337
Zn2	Zn	1.465497	0.083743	0.687671
Zn3	Zn	1.798830	0.417076	1.021004
Zn4	Zn	1.132048	-0.354350	0.249554
Zn5	Zn	1.465382	-0.021017	0.582888
Zn6	Zn	1.798715	0.312317	0.916221
Zn7	Zn	1.008310	-0.249582	0.249564
Zn8	Zn	1.341644	0.083752	0.582898
Zn9	Zn	1.674977	0.417085	0.916231
Zn10	Zn	1.008274	-0.354325	0.354285
Zn11	Zn	1.341607	-0.020992	0.687618
Zn12	Zn	1.674941	0.312341	1.020951
O13	O	1.070199	-0.301962	0.301935
O14	O	1.403532	0.031372	0.635268
O15	O	1.736866	0.364705	0.968602
O16	O	1.235781	-0.263501	0.340455
O17	O	1.569114	0.069833	0.673789
O18	O	1.902448	0.403166	1.007122
O19	O	1.115601	-0.340459	0.161878
O20	O	1.448935	-0.007126	0.495211
O21	O	1.782268	0.326208	0.828544
O22	O	1.024803	-0.161905	0.263489
O23	O	1.358137	0.171428	0.596822
O24	O	1.691470	0.504762	0.930155
O25	O	1.235696	-0.340467	0.263472
O26	O	1.569030	-0.007134	0.596805
O27	O	1.902363	0.326199	0.930138
O28	O	1.115798	-0.161911	0.340465
O29	O	1.449131	0.171422	0.673798
O30	O	1.782464	0.504755	1.007132
O31	O	1.024692	-0.263486	0.161885
O32	O	1.358025	0.069847	0.495218
O33	O	1.691358	0.403180	0.828552
O34	O	0.904673	-0.263462	0.263438
O35	O	1.238006	0.069871	0.596771
O36	O	1.571339	0.403204	0.930105
O37	O	1.024741	-0.340425	0.441970
O38	O	1.358075	-0.007092	0.775303
O39	O	1.691408	0.326242	1.108636
O40	O	0.904646	-0.340417	0.340376
O41	O	1.237979	-0.007084	0.673709
O42	O	1.571313	0.326250	1.007042
O43	O	1.115762	-0.263477	0.442008
O44	O	1.449096	0.069857	0.775342
O45	O	1.782429	0.403190	1.108675
O46	O	1.115566	-0.442025	0.263421
O47	O	1.448899	-0.108691	0.596754
O48	O	1.782233	0.224642	0.930088
O49	O	1.024629	-0.442006	0.340366
O50	O	1.357963	-0.108673	0.673699
O51	O	1.691296	0.224660	1.007033
C52	C	1.070101	-0.464749	0.301900
C53	C	1.403435	-0.131416	0.635234
C54	C	1.736768	0.201917	0.968567
C55	C	1.070127	-0.534391	0.301906
C56	C	1.403461	-0.201057	0.635240
C57	C	1.736794	0.132276	0.968573
C58	C	0.877789	-0.301936	0.301902
C59	C	1.211122	0.031397	0.635236
C60	C	1.544455	0.364730	0.968569
C61	C	0.795474	-0.301941	0.301903
C62	C	1.128808	0.031393	0.635237
C63	C	1.462141	0.364726	0.968570
C64	C	1.117520	-0.567092	0.261882
C65	C	1.450853	-0.233759	0.595215
C66	C	1.784186	0.099574	0.928549
C67	C	1.117554	-0.632528	0.261896
C68	C	1.450888	-0.299195	0.595229
C69	C	1.784221	0.034139	0.928563
C70	C	1.070183	-0.665259	0.301928
C71	C	1.403516	-0.331926	0.635261
C72	C	1.736850	0.001408	0.968594
C73	C	1.022787	-0.632549	0.341960
C74	C	1.356120	-0.299216	0.675293
C75	C	1.689454	0.034117	1.008626
C76	C	1.022759	-0.567115	0.341949
C77	C	1.356093	-0.233782	0.675282
C78	C	1.689426	0.099552	1.008616
C79	C	1.003502	-0.768969	0.306832
C80	C	1.336836	-0.435636	0.640166
C81	C	1.670169	-0.102303	0.973499
C82	C	1.003529	-0.834402	0.306839
C83	C	1.336862	-0.501069	0.640172
C84	C	1.670196	-0.167736	0.973505
C85	C	1.070269	-0.867080	0.301965
C86	C	1.403603	-0.533746	0.635298
C87	C	1.736936	-0.200413	0.968631
C88	C	1.136985	-0.834316	0.297071
C89	C	1.470318	-0.500983	0.630404
C90	C	1.803652	-0.167649	0.963737
C91	C	1.136957	-0.768882	0.297060
C92	C	1.470290	-0.435548	0.630393
C93	C	1.803624	-0.102215	0.963727
C94	C	1.070208	-0.736211	0.301944
C95	C	1.403541	-0.402878	0.635277
C96	C	1.736875	-0.069545	0.968611
C97	C	1.117703	-0.970734	0.261953
C98	C	1.451036	-0.637401	0.595287
C99	C	1.784370	-0.304067	0.928620
C100	C	1.117739	-1.036171	0.261972
C101	C	1.451072	-0.702837	0.595305
C102	C	1.784405	-0.369504	0.928638
C103	C	1.022965	-1.036191	0.342032
C104	C	1.356298	-0.702857	0.675366
C105	C	1.689632	-0.369524	1.008699
C106	C	1.022936	-0.970755	0.342017
C107	C	1.356269	-0.637422	0.675350
C108	C	1.689603	-0.304089	1.008684
C109	C	1.070304	-0.938031	0.301974
C110	C	1.403637	-0.604698	0.635308
C111	C	1.736971	-0.271364	0.968641
C112	C	0.496383	-0.301980	0.301956
C113	C	0.829717	0.031354	0.635289
C114	C	1.163050	0.364687	0.968623
C115	C	0.527701	-0.253320	0.253785
C116	C	0.861034	0.080013	0.587118
C117	C	1.194368	0.413347	0.920452
C118	C	0.613319	-0.253450	0.253579
C119	C	0.946652	0.079883	0.586913
C120	C	1.279986	0.413216	0.920246
C121	C	0.644766	-0.301960	0.301930
C122	C	0.978099	0.031374	0.635263
C123	C	1.311433	0.364707	0.968596
C124	C	0.613646	-0.367957	0.283884
C125	C	0.946980	-0.034624	0.617217
C126	C	1.280313	0.298709	0.950550
C127	C	0.528001	-0.367687	0.283549
C128	C	0.861335	-0.034354	0.616882
C129	C	1.194668	0.298980	0.950215
C130	C	0.528006	-0.285215	0.368286
C131	C	0.861339	0.048118	0.701620
C132	C	1.194672	0.381451	1.034953
C133	C	0.613656	-0.283746	0.367925
C134	C	0.946990	0.049588	0.701258
C135	C	1.280323	0.382921	1.034591
C136	C	0.728626	-0.301953	0.301916
C137	C	1.061959	0.031381	0.635249
C138	C	1.395292	0.364714	0.968583
C139	C	0.412524	-0.301991	0.301968
C140	C	0.745857	0.031342	0.635301
C141	C	1.079191	0.364675	0.968635
C142	C	1.263361	-0.301988	0.301968
C143	C	1.596694	0.031346	0.635302
C144	C	1.930028	0.364679	0.968635
C145	C	1.345675	-0.301999	0.301982
C146	C	1.679008	0.031334	0.635316
C147	C	2.012342	0.364668	0.968649
C148	C	1.070261	-0.301949	0.465358
C149	C	1.403594	0.031384	0.798692
C150	C	1.736927	0.364718	1.132025
C151	C	1.070287	-0.301944	0.535000
C152	C	1.403620	0.031390	0.868333
C153	C	1.736953	0.364723	1.201666
C154	C	1.070317	-0.138538	0.301984
C155	C	1.403651	0.194795	0.635317
C156	C	1.736984	0.528128	0.968651
C157	C	1.070368	-0.068897	0.302005
C158	C	1.403701	0.264436	0.635338
C159	C	1.737035	0.597769	0.968671
C160	C	1.070180	-0.301929	0.139148
C161	C	1.403514	0.031404	0.472481
C162	C	1.736847	0.364737	0.805814
C163	C	1.070298	-0.301758	0.069507
C164	C	1.403631	0.031575	0.402840
C165	C	1.736964	0.364909	0.736173
C166	C	1.117679	-0.261875	0.567734
C167	C	1.451013	0.071458	0.901067
C168	C	1.784346	0.404792	1.234401
C169	C	1.117678	-0.261848	0.633169
C170	C	1.451012	0.071485	0.966503
C171	C	1.784345	0.404819	1.299836
C172	C	1.070293	-0.301901	0.665868
C173	C	1.403626	0.031432	0.999201
C174	C	1.736959	0.364766	1.332535
C175	C	1.022891	-0.341973	0.633126
C176	C	1.356224	-0.008639	0.966459
C177	C	1.689557	0.324694	1.299793
C178	C	1.022888	-0.341994	0.567692
C179	C	1.356221	-0.008661	0.901025
C180	C	1.689554	0.324673	1.234359
C181	C	1.064411	-0.358316	0.769530
C182	C	1.397744	-0.024983	1.102864
C183	C	1.731078	0.308351	1.436197
C184	C	1.064419	-0.358296	0.834963
C185	C	1.397753	-0.024962	1.168297
C186	C	1.731086	0.308371	1.501630
C187	C	1.070297	-0.301835	0.867689
C188	C	1.403630	0.031499	1.201022
C189	C	1.736964	0.364832	1.534356
C190	C	1.076183	-0.245393	0.834974
C191	C	1.409516	0.087941	1.168307
C192	C	1.742849	0.421274	1.501640
C193	C	1.076180	-0.245414	0.769540
C194	C	1.409513	0.087919	1.102873
C195	C	1.742846	0.421253	1.436206
C196	C	1.070290	-0.301882	0.736821
C197	C	1.403623	0.031451	1.070154
C198	C	1.736957	0.364785	1.403487
C199	C	1.117691	-0.261734	0.971376
C200	C	1.451025	0.071600	1.304709
C201	C	1.784358	0.404933	1.638042
C202	C	1.117685	-0.261706	1.036812
C203	C	1.451018	0.071628	1.370146
C204	C	1.784352	0.404961	1.703479
C205	C	1.022901	-0.341836	1.036768
C206	C	1.356235	-0.008502	1.370101
C207	C	1.689568	0.324831	1.703434
C208	C	1.022904	-0.341858	0.971332
C209	C	1.356237	-0.008525	1.304666
C210	C	1.689570	0.324809	1.637999
C211	C	1.070302	-0.301808	0.938640
C212	C	1.403636	0.031526	1.271974
C213	C	1.736969	0.364859	1.605307
H214	H	1.156091	-0.540450	0.229278
H215	H	1.489425	-0.207117	0.562612
H216	H	1.822758	0.126217	0.895945
C217	C	0.642562	-0.387498	0.219079
C218	C	0.975895	-0.054165	0.552412
C219	C	1.309228	0.279169	0.885745
N220	N	0.664338	-0.402212	0.170265
N221	N	0.997671	-0.068879	0.503599
N222	N	1.331005	0.264455	0.836932
H223	H	0.634360	-0.204510	0.264892
H224	H	0.967694	0.128823	0.598225
H225	H	1.301027	0.462157	0.931558
H226	H	1.080970	-0.199457	0.742905
H227	H	1.414303	0.133877	1.076239
H228	H	1.747636	0.467210	1.409572
C229	C	0.970857	-1.072191	0.386069
C230	C	1.304190	-0.738858	0.719402
C231	C	1.637524	-0.405525	1.052736
N232	N	0.931609	-1.099310	0.419240
N233	N	1.264942	-0.765977	0.752573
N234	N	1.598276	-0.432643	1.085906
H235	H	1.156282	-0.229119	0.944756
H236	H	1.489615	0.104215	1.278090
H237	H	1.822949	0.437548	1.611423
C238	C	0.930076	-0.733031	0.312180
C239	C	1.263410	-0.399698	0.645513
C240	C	1.596743	-0.066364	0.978846
N241	N	0.874773	-0.705963	0.316202
N242	N	1.208106	-0.372630	0.649535
N243	N	1.541440	-0.039296	0.982868
H244	H	1.156150	-0.659159	0.229304
H245	H	1.489483	-0.325826	0.562637
H246	H	1.822816	0.007508	0.895970
H247	H	0.507753	-0.320657	0.404178
H248	H	0.841087	0.012676	0.737512
H249	H	1.174420	0.346009	1.070845
H250	H	1.191279	-0.742207	0.293077
H251	H	1.524612	-0.408874	0.626410
H252	H	1.857945	-0.075540	0.959744
C253	C	1.210406	-0.870256	0.291714
C254	C	1.543739	-0.536923	0.625047
C255	C	1.877073	-0.203589	0.958380
N256	N	1.265705	-0.897329	0.287680
N257	N	1.599038	-0.563995	0.621013
N258	N	1.932371	-0.230662	0.954346
C259	C	0.930141	-0.870436	0.312220
C260	C	1.263474	-0.537103	0.645554
C261	C	1.596807	-0.203770	0.978887
N262	N	0.874862	-0.897575	0.316275
N263	N	1.208196	-0.564242	0.649608
N264	N	1.541529	-0.230909	0.982941
H265	H	1.059426	-0.404281	0.742891
H266	H	1.392760	-0.070948	1.076224
H267	H	1.726093	0.262385	1.409557
H268	H	0.506435	-0.237928	0.384693
H269	H	0.839768	0.095405	0.718026
H270	H	1.173102	0.428738	1.051360
C271	C	0.970752	-0.386076	0.531683
C272	C	1.304085	-0.052743	0.865016
C273	C	1.637418	0.280591	1.198350
N274	N	0.931483	-0.419280	0.504560
N275	N	1.264816	-0.085947	0.837894
N276	N	1.598149	0.247386	1.171227
C277	C	0.642573	-0.328141	0.419011
C278	C	0.975906	0.005192	0.752345
C279	C	1.309240	0.338525	1.085678
N280	N	0.664351	-0.361587	0.457488
N281	N	0.997684	-0.028253	0.790822
N282	N	1.331018	0.305080	1.124155
H283	H	0.634002	-0.235179	0.381532
H284	H	0.967335	0.098155	0.714865
H285	H	1.300668	0.431488	1.048199
C286	C	1.169810	-0.217810	0.531777
C287	C	1.503143	0.115523	0.865110
C288	C	1.836477	0.448857	1.198443
N289	N	1.209072	-0.184617	0.504692
N290	N	1.542405	0.148716	0.838026
N291	N	1.875739	0.482049	1.171359
C292	C	0.498570	-0.268112	0.187773
C293	C	0.831903	0.065221	0.521106
C294	C	1.165237	0.398555	0.854439
N295	N	0.476626	-0.279254	0.138053
N296	N	0.809959	0.054079	0.471386
N297	N	1.143293	0.387412	0.804720
H298	H	1.156270	-0.229216	0.659827
H299	H	1.489603	0.104117	0.993160
H300	H	1.822936	0.437451	1.326493
H301	H	0.984311	-0.374441	1.063390
H302	H	1.317645	-0.041108	1.396724
H303	H	1.650978	0.292226	1.730057
H304	H	1.156275	-0.944089	0.229350
H305	H	1.489609	-0.610755	0.562683
H306	H	1.822942	-0.277422	0.896017
H307	H	1.080970	-0.199417	0.861618
H308	H	1.414303	0.133917	1.194951
H309	H	1.747637	0.467250	1.528284
C310	C	1.169877	-1.072142	0.217939
C311	C	1.503210	-0.738809	0.551272
C312	C	1.836543	-0.405476	0.884606
N313	N	1.209146	-1.099237	0.184771
N314	N	1.542480	-0.765904	0.518105
N315	N	1.875813	-0.432570	0.851438
H316	H	0.984341	-0.944128	0.374606
H317	H	1.317675	-0.610795	0.707939
H318	H	1.651008	-0.277461	1.041273
C319	C	1.169822	-0.217623	1.072820
C320	C	1.503155	0.115710	1.406153
C321	C	1.836489	0.449044	1.739487
N322	N	1.209094	-0.184420	1.099941
N323	N	1.542427	0.148913	1.433275
N324	N	1.875760	0.482247	1.766608
C325	C	0.970770	-0.385940	0.935323
C326	C	1.304104	-0.052607	1.268657
C327	C	1.637437	0.280727	1.601990
N328	N	0.931499	-0.419143	0.908202
N329	N	1.264832	-0.085810	1.241535
N330	N	1.598166	0.247524	1.574868
C331	C	0.970676	-0.668555	0.385993
C332	C	1.304009	-0.335221	0.719326
C333	C	1.637343	-0.001888	1.052659
N334	N	0.931425	-0.695674	0.419160
N335	N	1.264758	-0.362341	0.752493
N336	N	1.598091	-0.029007	1.085827
H337	H	1.059631	-0.404254	0.861595
H338	H	1.392965	-0.070921	1.194928
H339	H	1.726298	0.262412	1.528262
H340	H	0.984306	-0.374582	0.659754
H341	H	1.317640	-0.041249	0.993087
H342	H	1.650973	0.292085	1.326420
C343	C	0.970631	-0.531142	0.385989
C344	C	1.303964	-0.197809	0.719322
C345	C	1.637297	0.135525	1.052655
N346	N	0.931370	-0.504046	0.419163
N347	N	1.264703	-0.170713	0.752496
N348	N	1.598036	0.162620	1.085829
H349	H	0.507131	-0.204230	0.264973
H350	H	0.840465	0.129103	0.598306
H351	H	1.173798	0.462437	0.931640
C352	C	0.500957	-0.386888	0.218037
C353	C	0.834290	-0.053555	0.551371
C354	C	1.167624	0.279779	0.884704
N355	N	0.480591	-0.401348	0.168691
N356	N	0.813924	-0.068014	0.502025
N357	N	1.147258	0.265319	0.835358
H358	H	0.633767	-0.264532	0.204429
H359	H	0.967100	0.068801	0.537763
H360	H	1.300434	0.402135	0.871096
H361	H	0.507283	-0.405169	0.317104
H362	H	0.840617	-0.071836	0.650437
H363	H	1.173950	0.261497	0.983771
H364	H	0.634015	-0.405183	0.317871
H365	H	0.967348	-0.071850	0.651204
H366	H	1.300682	0.261483	0.984537
