data_functionalizedCrystal
_audit_creation_method	'MofGen! by Chris Wilmer'
_symmetry_space_group_name_H-M	'P1'
_symmetry_Int_Tables_number	1
_symmetry_cell_setting	triclinic
loop_
_symmetry_equiv_pos_as_xyz
  x,y,z
_cell_length_a	16.109301
_cell_length_b	16.109295
_cell_length_c	14.586319
_cell_angle_alpha	90.000675
_cell_angle_beta	89.998857
_cell_angle_gamma	96.539615
loop_
_atom_site_label
_atom_site_type_symbol
_atom_site_fract_x
_atom_site_fract_y
_atom_site_fract_z
O1	O	1.103129	-0.106867	-0.076184
O2	O	0.861066	-0.120167	-0.076196
O3	O	0.988750	0.007514	-0.076190
O4	O	0.975445	-0.234548	-0.076189
O5	O	0.988741	0.007516	0.076290
O6	O	0.861057	-0.120165	0.076285
O7	O	1.103120	-0.106865	0.076297
Cu8	Cu	0.982088	-0.113515	0.090214
Cu9	Cu	0.982098	-0.113517	-0.090112
O10	O	0.975436	-0.234546	0.076292
C11	C	0.830087	-0.119627	0.000043
C12	C	0.737792	-0.118012	0.000038
C13	C	0.988207	0.038490	0.000048
C14	C	0.986594	0.130786	0.000041
C15	C	0.428792	-0.188495	0.000055
C16	C	0.515512	-0.190020	0.000049
C17	C	0.535389	-0.038531	0.000036
C18	C	0.448670	-0.037007	0.000035
C19	C	0.395374	-0.111991	0.000049
C20	C	0.568812	-0.115041	0.000045
C21	C	0.662838	-0.116694	0.000039
C22	C	0.301342	-0.110338	0.000053
C23	C	1.134099	-0.107405	0.000056
C24	C	1.226394	-0.109020	0.000055
N25	N	0.982086	-0.113513	0.217046
C26	C	1.058606	0.353059	0.000011
C27	C	1.057084	0.439779	-0.000004
C28	C	0.905594	0.419905	-0.000007
C29	C	0.907118	0.333186	0.000001
C30	C	0.983626	0.299766	0.000015
C31	C	0.980580	0.473205	-0.000009
C32	C	0.978929	0.567231	-0.000025
C33	C	0.985277	0.205733	0.000030
C34	C	0.975984	0.734478	0.000030
C35	C	0.977612	0.642185	-0.000035
N36	N	0.982106	-0.113513	-0.216944
C37	C	1.038643	-0.056995	0.452054
C38	C	1.038646	-0.056993	0.548036
C39	C	0.925543	-0.170033	0.548041
C40	C	0.925538	-0.170031	0.452061
C41	C	0.982092	-0.113512	0.404070
C42	C	0.982100	-0.113513	0.596031
C43	C	0.982103	-0.113511	0.700098
C44	C	0.982089	-0.113513	0.299997
H45	H	0.385400	-0.249552	0.000066
H46	H	1.120904	0.325851	0.000020
C47	C	0.757218	0.322244	0.000007
C48	C	0.824693	0.274599	0.000009
H49	H	0.706336	0.286073	0.000015
H50	H	0.759773	0.356474	-0.053166
H51	H	0.759777	0.356488	0.053181
H52	H	0.822137	0.240360	-0.053169
H53	H	0.822136	0.240354	0.053188
C54	C	1.150432	0.054748	0.461694
C55	C	1.100799	0.005137	0.399302
H56	H	1.188800	0.093110	0.429127
H57	H	1.180329	0.020131	0.499121
H58	H	1.115826	0.084658	0.499137
H59	H	1.135405	-0.024778	0.361864
H60	H	1.070900	0.039758	0.361859
C61	C	1.056732	0.056157	0.655965
C62	C	1.100810	0.005133	0.600779
H63	H	1.095113	0.094516	0.688521
H64	H	1.023064	0.022499	0.698282
H65	H	1.022137	0.086071	0.618514
H66	H	1.135400	-0.024785	0.638230
H67	H	1.134492	0.038796	0.558457
H68	H	0.879499	-0.216051	0.587124
H69	H	0.879483	-0.216055	0.412990
C70	C	1.206975	0.450708	0.000013
C71	C	1.139504	0.498359	-0.000003
H72	H	1.257859	0.486874	0.000019
H73	H	1.204422	0.416467	-0.053153
H74	H	1.204406	0.416474	0.053195
H75	H	1.142069	0.532589	-0.053188
H76	H	1.142059	0.532614	0.053168
H77	H	0.542717	-0.252317	0.000054
C78	C	0.677149	0.026397	0.000044
C79	C	0.593975	0.043889	0.000034
H80	H	0.713314	0.077282	0.000051
H81	H	0.687277	-0.004970	-0.053125
H82	H	0.687265	-0.004973	0.053222
H83	H	0.583857	0.075254	-0.053148
H84	H	0.583843	0.075269	0.053208
C85	C	0.816003	0.505901	-0.078398
C86	C	0.821501	0.456648	-0.000012
H87	H	0.764088	0.528586	-0.078394
H88	H	0.819741	0.472479	-0.131559
H89	H	0.860446	0.550049	-0.078391
H90	H	0.777061	0.412496	-0.000023
H91	H	0.817755	0.490071	0.053163
C92	C	0.477021	0.112588	0.000031
C93	C	0.411930	0.047093	0.000032
H94	H	0.454337	0.164503	0.000033
H95	H	0.510431	0.108841	-0.053138
H96	H	0.510431	0.108842	0.053210
H97	H	0.378524	0.050835	-0.053150
H98	H	0.378506	0.050842	0.053206
