data_functionalizedCrystal
_audit_creation_method	'MofGen! by Chris Wilmer'
_symmetry_space_group_name_H-M	'P1'
_symmetry_Int_Tables_number	1
_symmetry_cell_setting	triclinic
loop_
_symmetry_equiv_pos_as_xyz
  x,y,z
_cell_length_a	8.559649
_cell_length_b	14.185569
_cell_length_c	8.559649
_cell_angle_alpha	101.272706
_cell_angle_beta	69.778664
_cell_angle_gamma	78.725084
loop_
_atom_site_label
_atom_site_type_symbol
_atom_site_fract_x
_atom_site_fract_y
_atom_site_fract_z
O1	O	2.085576	0.083402	-0.013746
O2	O	1.610089	0.083406	0.070037
O3	O	1.889724	0.083403	-0.209598
O4	O	1.805942	0.083405	0.265889
O5	O	1.972330	-0.083433	-0.292196
O6	O	1.692695	-0.083430	-0.012562
O7	O	2.168182	-0.083434	-0.096345
Cu8	Cu	1.937981	-0.098665	-0.061995
Cu9	Cu	1.840290	0.098637	0.035687
O10	O	1.888547	-0.083430	0.183290
C11	C	1.591083	-0.000011	0.035087
C12	C	1.411383	-0.000010	0.053987
N13	N	2.006703	-0.237437	-0.130702
C14	C	1.569685	-0.605082	0.306170
C15	C	1.621751	-0.710104	0.254135
C16	C	1.869402	-0.710068	0.006595
C17	C	1.817352	-0.605043	0.058605
C18	C	1.667493	-0.552559	0.208395
C19	C	1.915160	-0.552520	-0.039170
C20	C	1.863119	-0.447505	0.012841
C21	C	1.713269	-0.395013	0.162628
C22	C	1.615452	-0.447544	0.260406
C23	C	2.065025	-0.605007	-0.188953
C24	C	2.162834	-0.552484	-0.286728
C25	C	2.110786	-0.447467	-0.234724
C26	C	1.960936	-0.394975	-0.084938
C27	C	2.208603	-0.394937	-0.332503
C28	C	2.156562	-0.289922	-0.280492
C29	C	1.908895	-0.289960	-0.032926
C30	C	2.187187	-0.000014	-0.061394
C31	C	2.366884	-0.000009	-0.080290
C32	C	1.937375	-0.000013	-0.311205
C33	C	1.956272	-0.000008	-0.490902
N34	N	1.771583	0.237409	0.104380
C35	C	1.840895	-0.000012	0.284898
C36	C	1.821995	-0.000011	0.464598
H37	H	1.311992	-0.000004	0.183418
H38	H	1.466260	-0.000005	-0.209708
H39	H	1.493412	-0.404808	0.382370
H40	H	1.692577	-0.000013	-0.436025
O41	O	1.763470	-0.239010	0.112758
C42	C	1.782805	-0.264685	0.257428
H43	H	1.926869	-0.293542	0.228079
H44	H	1.719936	-0.195623	0.375319
H45	H	1.717246	-0.325649	0.285870
O46	O	1.662504	-0.293001	0.213444
C47	C	1.509240	-0.257943	0.366589
H48	H	1.499085	-0.318470	0.436706
H49	H	1.512854	-0.187681	0.454917
H50	H	1.391851	-0.239328	0.331983
H51	H	1.447645	-0.562347	0.428134
H52	H	2.085704	-0.000017	-0.590294
H53	H	1.542091	-0.752863	0.333771
O54	O	2.014862	-0.760949	-0.139073
C55	C	1.995444	-0.735307	-0.283734
H56	H	1.895120	-0.659065	-0.238128
H57	H	2.125382	-0.731701	-0.376756
H58	H	1.950132	-0.794417	-0.353294
H59	H	2.284854	-0.595229	-0.408686
O60	O	2.115871	-0.707019	-0.239682
C61	C	2.269094	-0.742081	-0.392868
H62	H	2.339194	-0.681546	-0.402978
H63	H	2.357393	-0.812329	-0.389170
H64	H	2.234599	-0.760721	-0.510323
H65	H	2.236210	-0.247157	-0.360111
O66	O	2.353990	-0.445975	-0.478154
C67	C	2.309520	-0.506757	-0.597691
H68	H	2.166261	-0.475128	-0.569146
H69	H	2.392117	-0.507946	-0.735312
H70	H	2.334222	-0.586344	-0.585280
