data_functionalizedCrystal
_audit_creation_method	'MofGen! by Chris Wilmer'
_symmetry_space_group_name_H-M	'P1'
_symmetry_Int_Tables_number	1
_symmetry_cell_setting	triclinic
loop_
_symmetry_equiv_pos_as_xyz
  x,y,z
_cell_length_a	19.288859
_cell_length_b	19.288859
_cell_length_c	18.366186
_cell_angle_alpha	89.994011
_cell_angle_beta	89.990083
_cell_angle_gamma	83.133726
loop_
_atom_site_label
_atom_site_type_symbol
_atom_site_fract_x
_atom_site_fract_y
_atom_site_fract_z
O1	O	0.921354	0.086628	-0.060564
O2	O	1.421354	0.586628	0.439436
O3	O	0.719092	0.098322	-0.060562
O4	O	1.219092	0.598322	0.439438
O5	O	0.826069	-0.008656	-0.060558
O6	O	1.326069	0.491344	0.439442
O7	O	0.814376	0.193606	-0.060567
O8	O	1.314376	0.693606	0.439433
O9	O	0.826051	-0.008661	0.060541
O10	O	1.326051	0.491339	0.560541
O11	O	0.719074	0.098317	0.060538
O12	O	1.219074	0.598317	0.560538
O13	O	0.921335	0.086623	0.060536
O14	O	1.421335	0.586623	0.560536
Zn15	Zn	0.820202	0.092469	0.079764
Zn16	Zn	1.320202	0.592469	0.579764
Zn17	Zn	0.820226	0.092476	-0.079790
Zn18	Zn	1.320226	0.592476	0.420210
O19	O	0.814358	0.193601	0.060532
O20	O	1.314358	0.693601	0.560532
C21	C	0.693206	0.097944	-0.000012
C22	C	1.193206	0.597944	0.499988
C23	C	0.616103	0.096816	-0.000011
C24	C	1.116103	0.596816	0.499989
C25	C	0.825685	-0.034535	-0.000009
C26	C	1.325685	0.465465	0.499991
C27	C	0.824558	-0.111639	-0.000011
C28	C	1.324558	0.388361	0.499989
C29	C	0.052061	0.151960	-0.000015
C30	C	0.552061	0.651960	0.499985
C31	C	0.124507	0.153025	-0.000018
C32	C	0.624507	0.653025	0.499982
C33	C	0.169215	0.090256	-0.000014
C34	C	0.669215	0.590256	0.499986
C35	C	0.141472	0.026416	-0.000025
C36	C	0.641472	0.526416	0.499975
C37	C	0.069026	0.025353	-0.000029
C38	C	0.569026	0.525353	0.499971
C39	C	0.290480	0.043441	0.042417
C40	C	0.790480	0.543441	0.542417
C41	C	0.362924	0.044507	0.042425
C42	C	0.862924	0.544507	0.542425
C43	C	0.392661	0.093533	-0.000007
C44	C	0.892661	0.593533	0.499993
C45	C	0.349944	0.141505	-0.042437
C46	C	0.849944	0.641505	0.457563
C47	C	0.277499	0.140442	-0.042441
C48	C	0.777499	0.640442	0.457559
C49	C	0.247771	0.091402	-0.000011
C50	C	0.747771	0.591402	0.499989
C51	C	0.498951	0.158524	-0.000006
C52	C	0.998951	0.658524	0.499994
C53	C	0.571399	0.159586	-0.000014
C54	C	1.071399	0.659586	0.499986
C55	C	0.588363	0.032976	-0.000013
C56	C	1.088363	0.532976	0.499987
C57	C	0.515916	0.031915	-0.000012
C58	C	1.015916	0.531915	0.499988
C59	C	0.471214	0.094691	-0.000005
C60	C	0.971214	0.594691	0.499995
C61	C	0.947221	0.087001	-0.000016
C62	C	1.447221	0.587001	0.499984
C63	C	1.024325	0.088129	-0.000021
C64	C	1.524325	0.588129	0.499979
C65	C	0.879701	-0.675680	-0.000030
C66	C	1.379701	-0.175680	0.499970
C67	C	0.880766	-0.603234	-0.000024
C68	C	1.380766	-0.103234	0.499976
C69	C	0.817997	-0.558526	-0.000023
C70	C	1.317997	-0.058526	0.499977
C71	C	0.754157	-0.586269	-0.000011
C72	C	1.254157	-0.086269	0.499989
C73	C	0.753094	-0.658715	-0.000010
C74	C	1.253094	-0.158715	0.499990
C75	C	0.771190	-0.437249	-0.042448
C76	C	1.271190	0.062751	0.457552
C77	C	0.772256	-0.364806	-0.042453
C78	C	1.272256	0.135194	0.457547
C79	C	0.821274	-0.335080	-0.000023
C80	C	1.321274	0.164920	0.499977
C81	C	0.869238	-0.377809	0.042404
C82	C	1.369238	0.122191	0.542404
C83	C	0.868175	-0.450254	0.042405
C84	C	1.368175	0.049746	0.542405
C85	C	0.819143	-0.479970	-0.000024
C86	C	1.319143	0.020030	0.499976
C87	C	0.886265	-0.228790	-0.000023
C88	C	1.386265	0.271210	0.499977
C89	C	0.887328	-0.156342	-0.000012
C90	C	1.387328	0.343658	0.499988
C91	C	0.760717	-0.139378	-0.000007
C92	C	1.260717	0.360622	0.499993
C93	C	0.759656	-0.211825	-0.000010
C94	C	1.259656	0.288175	0.499990
C95	C	0.822432	-0.256527	-0.000022
C96	C	1.322432	0.243473	0.499978
C97	C	0.814743	0.219480	-0.000018
C98	C	1.314743	0.719480	0.499982
C99	C	0.815870	0.296584	-0.000022
C100	C	1.315870	0.796584	0.499978
N101	N	0.820191	0.092464	0.188655
N102	N	1.320191	0.592464	0.688655
N103	N	0.820242	0.092476	-0.188681
N104	N	1.320242	0.592476	0.311319
C105	C	0.867576	0.045118	0.226757
C106	C	1.367576	0.545118	0.726757
C107	C	0.867580	0.045114	0.302985
C108	C	1.367580	0.545114	0.802985
C109	C	0.820206	0.092470	0.341108
C110	C	1.320206	0.592470	0.841108
C111	C	0.772812	0.139820	0.302997
C112	C	1.272812	0.639820	0.802997
C113	C	0.772804	0.139817	0.226770
C114	C	1.272804	0.639817	0.726770
C115	C	0.810906	0.155758	0.461865
C116	C	1.310906	0.655758	0.961865
C117	C	0.810919	0.155762	0.538090
C118	C	1.310919	0.655762	1.038090
C119	C	0.820226	0.092478	0.576215
C120	C	1.320226	0.592478	1.076215
C121	C	0.829535	0.029188	0.538106
C122	C	1.329535	0.529188	1.038106
C123	C	0.829527	0.029186	0.461879
C124	C	1.329527	0.529186	0.961879
C125	C	0.820209	0.092478	0.423762
C126	C	1.320209	0.592478	0.923762
C127	C	0.867618	0.045125	0.696972
C128	C	1.367618	0.545125	1.196972
C129	C	0.867618	0.045121	0.773201
C130	C	1.367618	0.545121	1.273201
C131	C	0.772853	0.139832	0.773212
C132	C	1.272853	0.639832	1.273212
C133	C	0.772850	0.139830	0.696984
C134	C	1.272850	0.639830	1.196984
C135	C	0.820236	0.092477	0.658869
C136	C	1.320236	0.592477	1.158869
H137	H	0.015668	0.203077	-0.000012
H138	H	0.515668	0.703077	0.499988
H139	H	0.937381	-0.265188	-0.000032
H140	H	1.437381	0.234812	0.499968
Br141	Br	0.842175	-0.056702	0.589836
Br142	Br	1.342175	0.443298	1.089836
H143	H	0.177878	-0.024691	-0.000024
H144	H	0.677878	0.475309	0.499976
Br145	Br	0.708491	0.204077	0.175056
Br146	Br	1.208491	0.704077	0.675056
Br147	Br	0.162159	0.239659	-0.000009
Br148	Br	0.662159	0.739659	0.499991
Br149	Br	0.798293	0.241653	0.589803
Br150	Br	1.298293	0.741653	1.089803
Br151	Br	0.031382	-0.061282	-0.000042
Br152	Br	0.531382	0.438718	0.499958
H153	H	0.242722	0.179501	-0.076990
H154	H	0.742722	0.679501	0.423010
Br155	Br	0.675528	-0.078711	0.000007
Br156	Br	1.175528	0.421289	0.500007
Br157	Br	0.390290	0.208055	-0.100016
Br158	Br	0.890290	0.708055	0.399984
Br159	Br	0.673023	-0.249470	-0.000004
Br160	Br	1.173023	0.250530	0.499996
Br161	Br	0.609042	0.246222	-0.000016
Br162	Br	1.109042	0.746222	0.499984
Br163	Br	0.478271	-0.054718	-0.000027
Br164	Br	0.978271	0.445282	0.499973
H165	H	0.930818	-0.712073	-0.000036
H166	H	1.430818	-0.212073	0.499964
H167	H	0.734268	0.178387	0.665959
H168	H	1.234268	0.678387	1.165959
Br169	Br	0.967400	-0.565582	-0.000023
Br170	Br	1.467400	-0.065582	0.499977
Br171	Br	0.931893	-0.019148	0.354704
Br172	Br	1.431893	0.480852	0.854704
H173	H	0.624764	-0.018133	-0.000016
H174	H	1.124764	0.481867	0.499984
Br175	Br	0.931925	-0.019141	0.645242
Br176	Br	1.431925	0.480859	1.145242
H177	H	0.734238	0.178376	0.334040
H178	H	1.234238	0.678376	0.834040
H179	H	0.462553	0.209640	-0.000001
H180	H	0.962553	0.709640	0.499999
Br181	Br	0.420888	-0.020589	0.100017
Br182	Br	0.920888	0.479411	0.600017
Br183	Br	0.935772	-0.337478	0.099988
Br184	Br	1.435772	0.162522	0.599988
H185	H	0.803316	0.207294	0.430830
H186	H	1.303316	0.707294	0.930830
H187	H	0.907227	-0.485041	0.076951
H188	H	1.407227	0.014959	0.576951
Br189	Br	0.707172	-0.306825	-0.100041
Br190	Br	1.207172	0.193175	0.399959
H191	H	0.731265	-0.461444	-0.076995
H192	H	1.231265	0.038556	0.423005
H193	H	0.703050	-0.549863	-0.000009
H194	H	1.203050	-0.049863	0.499991
H195	H	0.266276	0.003514	0.076971
H196	H	0.766276	0.503514	0.576971
H197	H	0.939309	-0.133762	-0.000014
H198	H	1.439309	0.366238	0.499986
Br199	Br	0.666459	-0.696359	0.000002
Br200	Br	1.166459	-0.196359	0.500002
Br201	Br	0.931881	-0.019147	0.175028
Br202	Br	1.431881	0.480853	0.675028
Br203	Br	0.931925	-0.019146	0.824915
Br204	Br	1.431925	0.480854	1.324915
Br205	Br	0.842153	-0.056703	0.410161
Br206	Br	1.342153	0.443297	0.910161
H207	H	0.734278	0.178387	0.804251
H208	H	1.234278	0.678387	1.304251
