data_functionalizedCrystal
_audit_creation_method	'MofGen! by Chris Wilmer'
_symmetry_space_group_name_H-M	'P1'
_symmetry_Int_Tables_number	1
_symmetry_cell_setting	triclinic
loop_
_symmetry_equiv_pos_as_xyz
  x,y,z
_cell_length_a	12.837943
_cell_length_b	12.837942
_cell_length_c	11.295483
_cell_angle_alpha	94.530417
_cell_angle_beta	85.461227
_cell_angle_gamma	94.828940
loop_
_atom_site_label
_atom_site_type_symbol
_atom_site_fract_x
_atom_site_fract_y
_atom_site_fract_z
O1	O	1.408689	0.265788	-0.099003
O2	O	1.908689	0.765788	0.400997
O3	O	1.105556	0.252345	-0.099010
O4	O	1.605556	0.752345	0.400990
O5	O	1.250401	0.107500	-0.098999
O6	O	1.750401	0.607500	0.401001
O7	O	1.263845	0.410633	-0.099013
O8	O	1.763845	0.910633	0.400987
O9	O	1.237676	0.120201	0.099051
O10	O	1.737676	0.620201	0.599051
O11	O	1.092832	0.265045	0.099040
O12	O	1.592832	0.765045	0.599040
O13	O	1.395965	0.278489	0.099047
O14	O	1.895965	0.778489	0.599047
Cu15	Cu	1.243237	0.272927	0.117127
Cu16	Cu	1.743237	0.772927	0.617127
Cu17	Cu	1.258285	0.257907	-0.117090
Cu18	Cu	1.758285	0.757907	0.382910
O19	O	1.251121	0.423333	0.099037
O20	O	1.751121	0.923333	0.599037
C21	C	1.060125	0.254153	0.000014
C22	C	1.560125	0.754153	0.500014
C23	C	0.943710	0.240609	0.000012
C24	C	1.443710	0.740609	0.500012
C25	C	1.239497	0.074781	0.000025
C26	C	1.739497	0.574781	0.500025
C27	C	1.225953	-0.041634	0.000023
C28	C	1.725953	0.458366	0.500023
C29	C	0.718835	0.403439	0.000021
C30	C	1.218835	0.903439	0.500021
C31	C	0.609453	0.390717	0.000020
C32	C	1.109453	0.890717	0.500020
C33	C	0.615561	0.202446	0.000016
C34	C	1.115561	0.702446	0.500016
C35	C	0.724943	0.215167	0.000017
C36	C	1.224943	0.715167	0.500017
C37	C	0.776576	0.315667	0.000018
C38	C	1.276576	0.815667	0.500018
C39	C	0.885961	0.328387	0.000011
C40	C	1.385961	0.828387	0.500011
C41	C	0.892066	0.140117	0.000016
C42	C	1.392066	0.640117	0.500016
C43	C	0.782684	0.127396	0.000015
C44	C	1.282684	0.627396	0.500015
C45	C	1.388784	-0.266509	0.000002
C46	C	1.888784	0.233491	0.500002
C47	C	1.376062	-0.375892	-0.000000
C48	C	1.876062	0.124108	0.500000
C49	C	1.187791	-0.369784	0.000008
C50	C	1.687791	0.130216	0.500008
C51	C	1.200512	-0.260402	0.000010
C52	C	1.700512	0.239598	0.500010
C53	C	1.301011	-0.208768	0.000009
C54	C	1.801011	0.291232	0.500009
C55	C	1.313731	-0.099383	0.000020
C56	C	1.813731	0.400617	0.500020
C57	C	1.125461	-0.093278	0.000019
C58	C	1.625461	0.406722	0.500019
C59	C	1.112740	-0.202660	0.000017
C60	C	1.612740	0.297340	0.500017
C61	C	1.441396	0.276680	0.000021
C62	C	1.941396	0.776680	0.500021
C63	C	1.557812	0.290224	0.000015
C64	C	2.057812	0.790224	0.500015
C65	C	1.262024	0.456052	0.000010
C66	C	1.762024	0.956052	0.500010
C67	C	1.275569	0.572467	0.000004
C68	C	1.775569	1.072467	0.500004
N69	N	1.232661	0.283491	0.281863
N70	N	1.732661	0.783491	0.781863
N71	N	1.268868	0.247335	-0.281825
N72	N	1.768868	0.747335	0.218175
C73	C	1.344996	0.171231	0.531161
C74	C	1.844996	0.671231	1.031161
C75	C	1.337012	0.179223	0.655824
C76	C	1.837012	0.679223	1.155824
C77	C	1.208702	0.307459	0.655854
C78	C	1.708702	0.807459	1.155854
C79	C	1.216687	0.299467	0.531191
C80	C	1.716687	0.799467	1.031191
C81	C	1.284837	0.231353	0.468849
C82	C	1.784837	0.731353	0.968849
C83	C	1.292826	0.223367	0.344183
C84	C	1.792826	0.723367	0.844183
C85	C	1.164512	0.351597	0.344216
C86	C	1.664512	0.851597	0.844216
C87	C	1.156528	0.359589	0.468879
C88	C	1.656528	0.859589	0.968879
H89	H	0.760876	0.485269	0.000020
H90	H	1.260876	0.985269	0.500020
N91	N	1.135217	0.380932	0.723109
N92	N	1.635217	0.880932	1.223109
H93	H	1.098319	0.417814	0.664721
H94	H	1.598319	0.917814	1.164721
H95	H	1.081663	0.339580	0.774847
H96	H	1.581663	0.839580	1.274847
N97	N	1.497170	-0.210809	0.000019
N98	N	1.997170	0.289191	0.500019
H99	H	1.550845	-0.263986	0.000021
H100	H	2.050845	0.236014	0.500021
H101	H	1.511269	-0.170261	-0.073398
H102	H	2.011269	0.329739	0.426602
N103	N	1.030783	-0.031003	0.000019
N104	N	1.530783	0.468997	0.500019
H105	H	0.982703	-0.044003	0.073438
H106	H	1.482703	0.455997	0.573438
H107	H	1.054173	0.046102	-0.000022
H108	H	1.554173	0.546102	0.499978
N109	N	1.422122	-0.043691	0.000026
N110	N	1.922122	0.456309	0.500026
H111	H	1.465776	-0.068762	-0.073395
H112	H	1.965776	0.431238	0.426605
H113	H	1.416773	0.034352	0.000079
H114	H	1.916773	0.534352	0.500079
N115	N	1.099628	0.416456	0.277010
N116	N	1.599628	0.916456	0.777010
H117	H	1.115028	0.401063	0.188576
H118	H	1.615028	0.901063	0.688576
H119	H	1.022772	0.398390	0.298813
H120	H	1.522772	0.898390	0.798813
N121	N	1.079405	-0.425488	0.000003
N122	N	1.579405	0.074512	0.500003
H123	H	1.025727	-0.372313	0.000006
H124	H	1.525727	0.127687	0.500006
H125	H	1.074751	-0.475436	-0.073424
H126	H	1.574751	0.024564	0.426576
H127	H	1.447536	-0.422901	-0.000010
H128	H	1.947536	0.077099	0.499990
H129	H	1.348320	0.167908	0.293425
H130	H	1.848320	0.667908	0.793425
N131	N	0.941657	0.436776	0.000002
N132	N	1.441657	0.936776	0.500002
H133	H	0.888476	0.490448	0.000006
H134	H	1.388476	0.990448	0.500006
H135	H	0.982194	0.450861	0.073420
H136	H	1.482194	0.950861	0.573420
N137	N	0.559844	0.094066	0.000021
N138	N	1.059844	0.594066	0.500021
H139	H	0.584918	0.050413	-0.073396
H140	H	1.084918	0.550413	0.426604
H141	H	0.575512	0.059917	0.073487
H142	H	1.075512	0.559917	0.573487
N143	N	1.004346	-0.258348	0.000021
N144	N	1.504346	0.241652	0.500021
H145	H	0.999580	-0.308298	-0.073397
H146	H	1.499580	0.191702	0.426603
H147	H	0.990226	-0.298829	0.073486
H148	H	1.490226	0.201171	0.573486
H149	H	0.562444	0.462191	0.000025
H150	H	1.062444	0.962191	0.500025
H151	H	1.101038	0.415044	0.519653
H152	H	1.601038	0.915044	1.019653
N153	N	0.726979	0.019010	0.000024
N154	N	1.226979	0.519010	0.500024
H155	H	0.686445	0.004833	-0.073392
H156	H	1.186445	0.504833	0.426608
H157	H	0.780215	-0.034598	0.000067
H158	H	1.280215	0.465402	0.500067
H159	H	1.385998	0.130265	0.706555
H160	H	1.885998	0.630265	1.206555
H161	H	1.400494	0.115777	0.480401
H162	H	1.900494	0.615777	0.980401
N163	N	0.954335	0.045434	0.000010
N164	N	1.454335	0.545434	0.500010
H165	H	1.004566	0.041810	-0.073409
H166	H	1.504566	0.541810	0.426591
H167	H	0.995075	0.051269	0.073474
H168	H	1.495075	0.551269	0.573474
