data_functionalizedCrystal
_audit_creation_method	'MofGen! by Chris Wilmer'
_symmetry_space_group_name_H-M	'P1'
_symmetry_Int_Tables_number	1
_symmetry_cell_setting	triclinic
loop_
_symmetry_equiv_pos_as_xyz
  x,y,z
_cell_length_a	13.032831
_cell_length_b	13.032721
_cell_length_c	18.215399
_cell_angle_alpha	82.845262
_cell_angle_beta	97.190803
_cell_angle_gamma	90.902885
loop_
_atom_site_label
_atom_site_type_symbol
_atom_site_fract_x
_atom_site_fract_y
_atom_site_fract_z
Zn1	Zn	1.520252	-0.609421	0.606330
Zn2	Zn	1.498292	-0.781391	0.496682
Zn3	Zn	1.348268	-0.587579	0.465971
Zn4	Zn	1.326400	-0.759468	0.602401
O5	O	1.423303	-0.684465	0.542846
O6	O	1.661252	-0.650550	0.606282
O7	O	1.478353	-0.755716	0.389623
O8	O	1.389424	-0.446570	0.473381
O9	O	1.645119	-0.776895	0.525724
O10	O	1.515780	-0.462618	0.576503
O11	O	1.368130	-0.613322	0.367060
O12	O	1.201454	-0.592064	0.469571
O13	O	1.352153	-0.739530	0.705907
O14	O	1.185387	-0.718350	0.569806
O15	O	1.494576	-0.629292	0.708794
O16	O	1.457148	-0.922390	0.521914
O17	O	1.330860	-0.906283	0.599586
C18	C	1.156105	-0.650459	0.515930
C19	C	1.041794	-0.635936	0.504435
C20	C	0.982896	-0.692045	0.548845
C21	C	0.864749	-0.677036	0.536966
C22	C	1.389276	-0.951653	0.563675
C23	C	1.374813	-1.065969	0.572620
C24	C	1.430906	-1.124877	0.538216
C25	C	1.415959	-1.243029	0.547460
C26	C	1.691544	-0.718605	0.569867
C27	C	1.805852	-0.733153	0.581382
C28	C	1.423375	-0.684402	0.734800
C29	C	1.423405	-0.684375	0.816599
C30	C	1.457491	-0.416237	0.521955
C31	C	1.472060	-0.301934	0.513052
C32	C	1.423300	-0.684461	0.351639
C33	C	1.423506	-0.684223	0.269838
C34	C	1.497596	-0.626915	1.006295
C35	C	1.497612	-0.626887	1.083153
C36	C	1.349307	-0.741685	1.080136
C37	C	1.349288	-0.741707	1.003279
C38	C	1.423438	-0.684324	0.966361
C39	C	1.423473	-0.684274	1.120076
C40	C	1.423490	-0.684244	1.203408
C41	C	1.423420	-0.684353	0.883023
H42	H	1.004751	-0.576782	0.457622
H43	H	1.531156	-1.264902	0.476755
H44	H	1.557998	-0.580137	1.115663
H45	H	1.288892	-0.788455	0.970763
H46	H	1.557971	-0.580188	0.976238
H47	H	1.489998	-1.087841	0.501921
H48	H	1.019939	-0.751190	0.595664
C49	C	1.337182	-1.292589	0.595803
C50	C	1.337994	-1.399922	0.595342
C51	C	1.265431	-1.445611	0.639857
H52	H	1.354323	-1.277000	0.645435
H53	H	1.270256	-1.266373	0.576669
H54	H	1.404904	-1.426129	0.614478
H55	H	1.320841	-1.415541	0.545721
H56	H	1.198506	-1.419394	0.620724
H57	H	1.282579	-1.430014	0.689487
H58	H	1.265966	-1.518439	0.639545
C59	C	1.268928	-0.803965	1.120362
C60	C	1.284833	-0.791684	1.196222
C61	C	1.210816	-0.849054	1.233301
H62	H	1.201693	-0.780187	1.099721
H63	H	1.275179	-0.875003	1.114707
H64	H	1.278573	-0.720661	1.201872
H65	H	1.352053	-0.815468	1.216884
H66	H	1.217067	-0.920092	1.227647
H67	H	1.143586	-0.825271	1.212654
H68	H	1.221603	-0.840737	1.284777
C69	C	1.296158	-1.115306	0.621153
C70	C	1.321790	-1.092024	0.694203
C71	C	1.249363	-1.137463	0.738936
H72	H	1.229220	-1.089072	0.602122
H73	H	1.296592	-1.188166	0.620985
H74	H	1.321345	-1.019179	0.694368
H75	H	1.388716	-1.118258	0.713255
H76	H	1.249798	-1.210323	0.738768
H77	H	1.182430	-1.111226	0.719899
H78	H	1.266750	-1.121681	0.788506
C79	C	0.855036	-0.812046	0.643877
C80	C	0.777801	-0.860883	0.682555
C81	C	0.823071	-0.933554	0.740135
H82	H	0.891226	-0.862178	0.623434
H83	H	0.901937	-0.778073	0.677152
H84	H	0.730919	-0.894856	0.649286
H85	H	0.741606	-0.810778	0.703015
H86	H	0.869972	-0.899581	0.773410
H87	H	0.859260	-0.983679	0.719685
H88	H	0.770676	-0.966692	0.766390
C89	C	0.815441	-0.598000	0.474618
C90	C	0.854424	-0.499558	0.485437
C91	C	0.809011	-0.426728	0.428024
H92	H	0.831030	-0.615032	0.428028
H93	H	0.742595	-0.598330	0.474934
H94	H	0.927252	-0.499231	0.485113
H95	H	0.838836	-0.482494	0.532016
H96	H	0.736166	-0.427058	0.428341
H97	H	0.824603	-0.443769	0.381438
H98	H	0.835447	-0.359925	0.435361
