data_functionalizedCrystal
_audit_creation_method	'MofGen! by Chris Wilmer'
_symmetry_space_group_name_H-M	'P1'
_symmetry_Int_Tables_number	1
_symmetry_cell_setting	triclinic
loop_
_symmetry_equiv_pos_as_xyz
  x,y,z
_cell_length_a	19.121063
_cell_length_b	12.645331
_cell_length_c	12.645324
_cell_angle_alpha	90.022962
_cell_angle_beta	92.401246
_cell_angle_gamma	87.532020
loop_
_atom_site_label
_atom_site_type_symbol
_atom_site_fract_x
_atom_site_fract_y
_atom_site_fract_z
Zn1	Zn	-0.279578	-1.602660	-0.617385
Zn2	Zn	0.220422	-1.102660	-0.117385
Zn3	Zn	-0.397050	-1.594947	-0.447663
Zn4	Zn	0.102950	-1.094947	0.052337
Zn5	Zn	-0.279616	-1.425371	-0.440132
Zn6	Zn	0.220384	-0.925371	0.059868
Zn7	Zn	-0.396990	-1.417766	-0.624874
Zn8	Zn	0.103010	-0.917766	-0.124874
O9	O	-0.338308	-1.510186	-0.532514
O10	O	0.161692	-1.010186	-0.032514
O11	O	-0.295170	-1.749984	-0.594889
O12	O	0.204830	-1.249984	-0.094889
O13	O	-0.381513	-1.572407	-0.298319
O14	O	0.118487	-1.072407	0.201681
O15	O	-0.181327	-1.455300	-0.457359
O16	O	0.318673	-0.955300	0.042641
O17	O	-0.381476	-1.744316	-0.470194
O18	O	0.118524	-1.244316	0.029806
O19	O	-0.181299	-1.585553	-0.587586
O20	O	0.318701	-1.085553	-0.087586
O21	O	-0.295235	-1.447821	-0.292786
O22	O	0.204765	-0.947821	0.207214
O23	O	-0.295176	-1.276016	-0.464621
O24	O	0.204824	-0.776016	0.035379
O25	O	-0.381374	-1.442338	-0.772226
O26	O	0.118626	-0.942338	-0.272226
O27	O	-0.381411	-1.270428	-0.600350
O28	O	0.118589	-0.770428	-0.100350
O29	O	-0.295112	-1.578179	-0.766723
O30	O	0.204888	-1.078179	-0.266723
O31	O	-0.495326	-1.565032	-0.477456
O32	O	0.004674	-1.065032	0.022544
O33	O	-0.495282	-1.434858	-0.607653
O34	O	0.004718	-0.934858	-0.107653
C35	C	-0.338292	-1.234757	-0.532482
C36	C	0.161708	-0.734757	-0.032482
C37	C	-0.338301	-1.116927	-0.532494
C38	C	0.161699	-0.616927	-0.032494
C39	C	-0.520788	-1.498312	-0.544207
C40	C	-0.020788	-0.998312	-0.044207
C41	C	-0.598853	-1.493329	-0.549245
C42	C	-0.098853	-0.993329	-0.049245
C43	C	-0.338232	-1.510270	-0.809014
C44	C	0.161768	-1.010270	-0.309014
C45	C	-0.338199	-1.510306	-0.926842
C46	C	0.161801	-1.010306	-0.426842
C47	C	-0.635528	-1.558815	-0.483882
C48	C	-0.135528	-1.058815	0.016118
C49	C	-0.708879	-1.554135	-0.488627
C50	C	-0.208879	-1.054135	0.011373
C51	C	-0.745553	-1.483963	-0.558730
C52	C	-0.245553	-0.983963	-0.058730
C53	C	-0.708873	-1.418474	-0.624100
C54	C	-0.208873	-0.918474	-0.124100
C55	C	-0.635524	-1.423160	-0.619360
C56	C	-0.135524	-0.923160	-0.119360
C57	C	-0.967021	-1.466425	-0.576435
C58	C	-0.467021	-0.966425	-0.076435
C59	C	-1.040376	-1.461741	-0.581168
C60	C	-0.540376	-0.961741	-0.081168
C61	C	-1.040376	-1.597405	-0.445695
C62	C	-0.540376	-1.097405	0.054305
C63	C	-0.967026	-1.602080	-0.440957
C64	C	-0.467026	-1.102080	0.059043
C65	C	-0.930352	-1.536595	-0.506331
C66	C	-0.430352	-1.036595	-0.006331
C67	C	-0.820530	-1.479175	-0.563579
C68	C	-0.320530	-0.979175	-0.063579
C69	C	-0.855377	-1.541389	-0.501487
C70	C	-0.355377	-1.041389	-0.001487
C71	C	-0.155116	-1.522136	-0.520797
C72	C	0.344884	-1.022136	-0.020797
C73	C	-0.077051	-1.527228	-0.515804
C74	C	0.422949	-1.027228	-0.015804
C75	C	-0.338326	-1.786690	-0.532546
C76	C	0.161674	-1.286690	-0.032546
C77	C	-0.338333	-1.904520	-0.532560
C78	C	0.161667	-1.404520	-0.032560
C79	C	-0.283802	-0.952859	-0.447543
C80	C	0.216198	-0.452859	0.052457
C81	C	-0.283943	-1.075409	-0.447193
C82	C	0.216057	-0.575409	0.052807
C83	C	-0.412291	-1.067623	-0.506727
C84	C	0.087709	-0.567623	-0.006727
C85	C	-0.411993	-0.945044	-0.506152
C86	C	0.088007	-0.445044	-0.006152
C87	C	-0.319516	-0.950992	-0.643573
C88	C	0.180484	-0.450992	-0.143573
C89	C	-0.317863	-1.073705	-0.642843
C90	C	0.182137	-0.573705	-0.142843
C91	C	-0.284089	-1.596073	-1.090955
C92	C	0.215911	-1.096073	-0.590955
C93	C	-0.283894	-1.595822	-0.968382
C94	C	0.216106	-1.095822	-0.468382
C95	C	-0.318085	-1.399925	-0.970030
C96	C	0.181915	-0.899925	-0.470030
C97	C	-0.317674	-1.400451	-1.092602
C98	C	0.182326	-0.900451	-0.592602
C99	C	-0.412503	-1.534010	-1.098808
C100	C	0.087497	-1.034010	-0.598808
C101	C	-0.412129	-1.536478	-0.976178
C102	C	0.087871	-1.036478	-0.476178
C103	C	-0.338334	-1.510166	-0.257085
C104	C	0.161666	-1.010166	0.242915
C105	C	-0.338168	-1.510348	-0.139245
C106	C	0.161832	-1.010348	0.360755
H107	H	-0.605673	-1.615952	-0.426792
H108	H	-0.105673	-1.115952	0.073208
F109	F	-0.365991	-1.110660	-0.729567
F110	F	0.134009	-0.610660	-0.229567
H111	H	-0.738736	-1.607460	-0.435400
H112	H	-0.238736	-1.107460	0.064600
F113	F	-0.246700	-1.116360	-0.668364
F114	F	0.253300	-0.616360	-0.168364
F115	F	-0.300197	-1.112631	-0.339538
F116	F	0.199803	-0.612631	0.160462
H117	H	-0.359234	-0.919446	-0.706860
H118	H	0.140766	-0.419446	-0.206860
H119	H	-0.427950	-0.915366	-0.425137
H120	H	0.072050	-0.415366	0.074863
H121	H	-0.937167	-1.659220	-0.383873
H122	H	-0.437167	-1.159220	0.116127
F123	F	-1.079412	-1.667098	-0.376129
F124	F	-0.579412	-1.167098	0.123871
H125	H	-1.070234	-1.404611	-0.638273
H126	H	-0.570234	-0.904611	-0.138273
H127	H	-0.296102	-0.921215	-0.365661
H128	H	0.203898	-0.421215	0.134339
H129	H	-0.825514	-1.598528	-0.444412
H130	H	-0.325514	-1.098528	0.055588
H131	H	-0.229328	-1.581007	-1.118265
H132	H	0.270672	-1.081007	-0.618265
F133	F	-0.246659	-1.373462	-1.125443
F134	F	0.253341	-0.873462	-0.625443
H135	H	-0.605664	-1.369835	-0.672588
H136	H	-0.105664	-0.869835	-0.172588
F137	F	-0.367990	-1.314437	-0.935120
F138	F	0.132010	-0.814437	-0.435120
F139	F	-0.247851	-1.372347	-0.925412
F140	F	0.252149	-0.872347	-0.425412
F141	F	-0.300350	-1.703005	-0.930131
F142	F	0.199650	-1.203005	-0.430131
F143	F	-0.436412	-1.637092	-1.140769
F144	F	0.063588	-1.137092	-0.640769
F145	F	-0.928000	-1.396728	-0.646012
F146	F	-0.428000	-0.896728	-0.146012
H147	H	-0.738739	-1.361342	-0.681185
H148	H	-0.238739	-0.861342	-0.181185
F149	F	-0.859568	-1.404493	-0.638185
F150	F	-0.359568	-0.904493	-0.138185
F151	F	-0.466899	-0.902744	-0.583891
F152	F	0.033101	-0.402744	-0.083891
F153	F	-0.212229	-1.119393	-0.467589
F154	F	0.287771	-0.619393	0.032411
H155	H	-0.228771	-0.926952	-0.462933
H156	H	0.271229	-0.426952	0.037067
F157	F	-0.466817	-1.102213	-0.585401
F158	F	0.033183	-0.602213	-0.085401
F159	F	-0.467631	-1.460293	-0.939683
F160	F	0.032369	-0.960293	-0.439683
H161	H	-0.428521	-1.097229	-0.426610
H162	H	0.071479	-0.597229	0.073390
F163	F	-0.250225	-0.915092	-0.675400
F164	F	0.249775	-0.415092	-0.175400
H165	H	-0.296528	-1.678357	-1.121246
H166	H	0.203472	-1.178357	-0.621246
H167	H	-0.228828	-1.580533	-0.935536
H168	H	0.271172	-1.080533	-0.435536
H169	H	-0.427297	-1.617686	-0.948080
H170	H	0.072703	-1.117686	-0.448080
F171	F	-0.465170	-1.452322	-1.140067
F172	F	0.034830	-0.952322	-0.640067
H173	H	-0.355350	-1.334663	-1.124666
H174	H	0.144650	-0.834663	-0.624666
