data_functionalizedCrystal
_audit_creation_method	'MofGen! by Chris Wilmer'
_symmetry_space_group_name_H-M	'P1'
_symmetry_Int_Tables_number	1
_symmetry_cell_setting	triclinic
loop_
_symmetry_equiv_pos_as_xyz
  x,y,z
_cell_length_a	6.817900
_cell_length_b	11.168138
_cell_length_c	16.305550
_cell_angle_alpha	93.901092
_cell_angle_beta	103.455250
_cell_angle_gamma	108.508793
loop_
_atom_site_label
_atom_site_type_symbol
_atom_site_fract_x
_atom_site_fract_y
_atom_site_fract_z
V1	V	-4.052076	-0.175770	-0.263038
O2	O	-4.012761	0.007350	-0.258024
O3	O	-4.028759	-0.347468	-0.261246
O4	O	-4.003156	-0.173548	-0.377755
O5	O	-4.038542	-0.167775	-0.140708
V6	V	-4.532521	-0.153810	-0.248406
O7	O	-4.320086	-0.223942	-0.295136
O8	O	-4.714709	-0.105639	-0.216308
O9	O	-4.332632	0.017888	-0.250198
O10	O	-4.689233	-0.336930	-0.253420
O11	O	-4.663453	-0.161806	-0.370736
O12	O	-4.358235	-0.156033	-0.133689
C13	C	-3.879879	-0.389310	-0.257099
C14	C	-3.942098	-0.529678	-0.256398
C15	C	-4.208095	-0.743456	-0.259363
C16	C	-4.143793	-0.598378	-0.260087
C17	C	-3.847218	-0.167455	-0.405716
C18	C	-3.888669	-0.166774	-0.499498
C19	C	-4.039368	-0.164135	-0.840244
C20	C	-3.802169	-0.156300	-0.799315
C21	C	-3.759156	-0.157531	-0.701820
C22	C	-3.964603	-0.165443	-0.671196
C23	C	-4.149963	-0.290149	-0.721827
C24	C	-4.191722	-0.289444	-0.819377
C25	C	-4.077095	-0.048261	-0.794395
C26	C	-4.029021	-0.047274	-0.696553
C27	C	-3.922363	-0.166188	-0.575658
C28	C	-4.081619	-0.163399	-0.935782
C29	C	-4.144855	0.059723	-0.254343
C30	C	-4.061875	0.200090	-0.255049
C31	C	-4.177516	-0.162130	-0.105724
C32	C	-4.115302	-0.162804	-0.011941
H33	H	-4.380883	-0.802529	-0.262517
H34	H	-4.249841	-0.052892	-0.821212
C35	C	-3.757765	-0.268765	-0.841875
H36	H	-3.614115	-0.263304	-0.816775
H37	H	-3.853896	-0.347078	-0.833923
H38	H	-3.777860	-0.265282	-0.901190
H39	H	-3.971808	0.046228	-0.807759
C40	C	-4.428716	-0.304208	-0.857200
H41	H	-4.455816	-0.303870	-0.917018
H42	H	-4.518508	-0.382615	-0.846480
H43	H	-4.458020	-0.235231	-0.831440
H44	H	-3.817011	-0.578243	-0.252709
H45	H	-4.107423	-0.377893	-0.705018
C46	C	-3.828443	-0.720124	-0.250780
H47	H	-3.745040	-0.774354	-0.247974
H48	H	-3.825505	-0.680134	-0.300286
H49	H	-3.770754	-0.656673	-0.201432
C50	C	-3.570449	-0.036418	-0.654497
H51	H	-3.519440	0.013979	-0.694822
H52	H	-3.617516	0.011594	-0.617854
H53	H	-3.457937	-0.060113	-0.621634
C54	C	-3.640888	-0.034612	-0.816019
H55	H	-3.716757	0.012505	-0.848109
H56	H	-3.553238	0.016393	-0.763137
H57	H	-3.553188	-0.057668	-0.847141
H58	H	-3.705105	-0.241742	-0.685530
C59	C	-4.160298	-0.407937	-0.860428
H60	H	-4.122169	-0.456048	-0.817447
H61	H	-4.290112	-0.459279	-0.900919
H62	H	-4.049177	-0.381581	-0.888229
H63	H	-4.268873	-0.549807	-0.263785
H64	H	-4.304632	-0.300449	-0.702915
C65	C	-3.847190	0.077337	-0.650113
H66	H	-3.732492	0.057444	-0.615409
H67	H	-3.797035	0.126919	-0.690931
H68	H	-3.899863	0.124515	-0.615330
H69	H	-4.176081	-0.045722	-0.675205
