data_functionalizedCrystal
_audit_creation_method	'MofGen! by Chris Wilmer'
_symmetry_space_group_name_H-M	'P1'
_symmetry_Int_Tables_number	1
_symmetry_cell_setting	triclinic
loop_
_symmetry_equiv_pos_as_xyz
  x,y,z
_cell_length_a	16.992694
_cell_length_b	16.992695
_cell_length_c	15.455301
_cell_angle_alpha	87.173129
_cell_angle_beta	92.821270
_cell_angle_gamma	89.331777
loop_
_atom_site_label
_atom_site_type_symbol
_atom_site_fract_x
_atom_site_fract_y
_atom_site_fract_z
O1	O	1.054114	-0.170180	0.072023
O2	O	1.387448	0.163154	0.405357
O3	O	1.720781	0.496487	0.738690
O4	O	0.825715	-0.168350	0.072049
O5	O	1.159049	0.164984	0.405382
O6	O	1.492382	0.498317	0.738715
O7	O	0.938999	-0.055064	0.072029
O8	O	1.272332	0.278269	0.405363
O9	O	1.605666	0.611602	0.738696
O10	O	0.940831	-0.283465	0.072043
O11	O	1.274164	0.049868	0.405376
O12	O	1.607497	0.383202	0.738709
O13	O	0.932451	-0.048524	-0.072233
O14	O	1.265784	0.284809	0.261100
O15	O	1.599118	0.618143	0.594434
O16	O	0.819168	-0.161809	-0.072214
O17	O	1.152501	0.171524	0.261120
O18	O	1.485834	0.504857	0.594453
O19	O	1.047566	-0.163639	-0.072239
O20	O	1.380900	0.169694	0.261094
O21	O	1.714233	0.503027	0.594428
Cu22	Cu	0.932769	-0.162127	-0.085399
Cu23	Cu	1.266102	0.171206	0.247935
Cu24	Cu	1.599436	0.504540	0.581268
Cu25	Cu	0.940513	-0.169862	0.085208
Cu26	Cu	1.273846	0.163472	0.418542
Cu27	Cu	1.607179	0.496805	0.751875
O28	O	0.934283	-0.276925	-0.072220
O29	O	1.267616	0.056409	0.261114
O30	O	1.600950	0.389742	0.594447
C31	C	0.793081	-0.162724	-0.000079
C32	C	1.126415	0.170609	0.333254
C33	C	1.459748	0.503943	0.666587
C34	C	0.705597	-0.155696	-0.000070
C35	C	1.038931	0.177638	0.333264
C36	C	1.372264	0.510971	0.666597
N37	N	0.927328	-0.156687	-0.205394
N38	N	1.260662	0.176646	0.127939
N39	N	1.593995	0.509980	0.461272
C40	C	0.933369	-0.022434	-0.000102
C41	C	1.266703	0.310899	0.333232
C42	C	1.600036	0.644233	0.666565
C43	C	0.926341	0.065051	-0.000101
C44	C	1.259674	0.398384	0.333233
C45	C	1.593007	0.731717	0.666566
C46	C	0.659607	-0.223514	-0.000066
C47	C	0.992940	0.109820	0.333267
C48	C	1.326273	0.443153	0.666600
C49	C	0.577405	-0.216904	-0.000079
C50	C	0.910739	0.116429	0.333255
C51	C	1.244072	0.449763	0.666588
C52	C	0.541197	-0.142476	-0.000088
C53	C	0.874530	0.190857	0.333245
C54	C	1.207863	0.524191	0.666579
C55	C	0.587193	-0.074653	-0.000094
C56	C	0.920527	0.258681	0.333239
C57	C	1.253860	0.592014	0.666573
C58	C	0.669393	-0.081263	-0.000088
C59	C	1.002726	0.252071	0.333245
C60	C	1.336059	0.585404	0.666579
C61	C	0.295881	-0.115080	-0.000113
C62	C	0.629214	0.218253	0.333220
C63	C	0.962548	0.551586	0.666554
C64	C	0.213676	-0.108476	-0.000116
C65	C	0.547009	0.224858	0.333217
C66	C	0.880342	0.558191	0.666550
C67	C	0.203893	-0.250728	-0.000103
C68	C	0.537227	0.082606	0.333231
C69	C	0.870560	0.415939	0.666564
C70	C	0.286095	-0.257331	-0.000091
C71	C	0.619428	0.076002	0.333242
C72	C	0.952762	0.409335	0.666575
C73	C	0.332084	-0.189508	-0.000102
C74	C	0.665418	0.143826	0.333232
C75	C	0.998751	0.477159	0.666565
N76	N	0.457174	-0.135718	-0.000098
N77	N	0.790507	0.197615	0.333235
N78	N	1.123841	0.530948	0.666569
N79	N	0.416105	-0.196266	-0.000098
N80	N	0.749438	0.137067	0.333235
N81	N	1.082772	0.470401	0.666569
C82	C	1.080200	-0.169265	-0.000109
C83	C	1.413534	0.164068	0.333224
C84	C	1.746867	0.497401	0.666557
C85	C	1.167685	-0.176294	-0.000113
C86	C	1.501018	0.157040	0.333220
C87	C	1.834352	0.490373	0.666554
C88	C	0.939913	-0.309555	-0.000087
C89	C	1.273246	0.023778	0.333246
C90	C	1.606579	0.357112	0.666580
C91	C	0.946942	-0.397040	-0.000082
C92	C	1.280275	-0.063707	0.333251
C93	C	1.613608	0.269627	0.666584
C94	C	0.994158	0.111042	-0.000109
C95	C	1.327491	0.444375	0.333224
C96	C	1.660825	0.777708	0.666558
C97	C	0.987550	0.193242	-0.000100
C98	C	1.320883	0.526575	0.333233
C99	C	1.654216	0.859909	0.666567
C100	C	0.913122	0.229450	-0.000089
C101	C	1.246456	0.562783	0.333244
C102	C	1.579789	0.896117	0.666578
C103	C	0.845300	0.183452	-0.000078
C104	C	1.178633	0.516786	0.333256
C105	C	1.511967	0.850119	0.666589
C106	C	0.851910	0.101253	-0.000081
C107	C	1.185243	0.434587	0.333253
C108	C	1.518576	0.767920	0.666586
C109	C	0.885729	0.474764	-0.000074
C110	C	1.219062	0.808097	0.333259
C111	C	1.552395	1.141430	0.666593
C112	C	0.879124	0.556969	-0.000074
C113	C	1.212457	0.890302	0.333260
C114	C	1.545791	1.223636	0.666593
C115	C	1.021375	0.566753	-0.000094
C116	C	1.354708	0.900086	0.333239
C117	C	1.688041	1.233420	0.666572
C118	C	1.027977	0.484552	-0.000102
C119	C	1.361311	0.817885	0.333231
C120	C	1.694644	1.151219	0.666564
C121	C	0.960155	0.438562	-0.000087
C122	C	1.293488	0.771895	0.333247
C123	C	1.626822	1.105228	0.666580
N124	N	0.906366	0.313472	-0.000082
N125	N	1.239699	0.646805	0.333251
N126	N	1.573032	0.980139	0.666584
N127	N	0.966913	0.354541	-0.000087
N128	N	1.300246	0.687874	0.333246
N129	N	1.633579	1.021207	0.666580
C130	C	0.976004	-0.205394	-0.250787
C131	C	1.309338	0.127939	0.082546
C132	C	1.642671	0.461272	0.415879
C133	C	0.971900	-0.201276	-0.341595
C134	C	1.305233	0.132058	-0.008262
C135	C	1.638567	0.465391	0.325071
C136	C	0.919115	-0.148453	-0.387009
C137	C	1.252448	0.184880	-0.053675
C138	C	1.585782	0.518213	0.279658
C139	C	0.870437	-0.099741	-0.341609
C140	C	1.203770	0.233593	-0.008276
C141	C	1.537104	0.566926	0.325058
C142	C	0.874546	-0.103856	-0.250803
C143	C	1.207879	0.229478	0.082530
C144	C	1.541213	0.562811	0.415864
C145	C	0.901390	-0.130699	-0.658590
C146	C	1.234723	0.202635	-0.325257
C147	C	1.568057	0.535968	0.008076
C148	C	0.897283	-0.126589	-0.749403
C149	C	1.230617	0.206744	-0.416070
C150	C	1.563950	0.540078	-0.082736
C151	C	0.998748	-0.228123	-0.749383
C152	C	1.332081	0.105210	-0.416050
C153	C	1.665414	0.438543	-0.082716
C154	C	1.002849	-0.232237	-0.658575
C155	C	1.336182	0.101096	-0.325242
C156	C	1.669515	0.434430	0.008092
C157	C	0.954174	-0.183522	-0.613183
C158	C	1.287507	0.149812	-0.279850
C159	C	1.620840	0.483145	0.053483
N160	N	0.914917	-0.144244	-0.479829
N161	N	1.248250	0.189089	-0.146496
N162	N	1.581583	0.522423	0.186838
N163	N	0.958376	-0.187728	-0.520365
N164	N	1.291710	0.145606	-0.187031
N165	N	1.625043	0.478939	0.146302
N166	N	0.945959	-0.175296	0.205204
N167	N	1.279293	0.158037	0.538537
N168	N	1.612626	0.491370	0.871871
H169	H	0.689081	-0.284121	-0.000058
H170	H	1.022415	0.049212	0.333275
H171	H	1.355748	0.382546	0.666609
Br172	Br	1.113414	0.629172	-0.000116
Br173	Br	1.446747	0.962505	0.333218
Br174	Br	1.780080	1.295839	0.666551
H175	H	0.784700	0.212939	-0.000063
H176	H	1.118033	0.546272	0.333270
H177	H	1.451367	0.879606	0.666604
H178	H	1.038377	-0.267784	-0.786350
H179	H	1.371710	0.065549	-0.453017
H180	H	1.705043	0.398883	-0.119684
Br181	Br	1.074451	-0.303964	-0.596949
Br182	Br	1.407784	0.029369	-0.263615
Br183	Br	1.741118	0.362702	0.069718
H184	H	0.796685	0.063808	-0.000073
H185	H	1.130018	0.397141	0.333260
H186	H	1.463352	0.730474	0.666593
Br187	Br	0.514992	-0.308948	-0.000071
Br188	Br	0.848325	0.024386	0.333262
Br189	Br	1.181658	0.357719	0.666595
Br190	Br	0.778109	0.606108	-0.000067
Br191	Br	1.111442	0.939441	0.333266
Br192	Br	1.444775	1.272775	0.666599
H193	H	0.315570	-0.317939	-0.000074
H194	H	0.648904	0.015394	0.333260
H195	H	0.982237	0.348728	0.666593
Br196	Br	0.798802	-0.028049	-0.403240
Br197	Br	1.132136	0.305284	-0.069907
Br198	Br	1.465469	0.638618	0.263426
H199	H	0.333316	-0.059853	-0.000122
H200	H	0.666649	0.273480	0.333211
H201	H	0.999983	0.606813	0.666544
Br202	Br	1.037964	-0.267381	-0.403197
Br203	Br	1.371297	0.065952	-0.069864
Br204	Br	1.704631	0.399285	0.263470
Br205	Br	0.731810	0.010780	-0.000100
Br206	Br	1.065143	0.344114	0.333233
Br207	Br	1.398477	0.677447	0.666567
Br208	Br	1.095171	0.061912	-0.000137
Br209	Br	1.428504	0.395245	0.333196
Br210	Br	1.761837	0.728578	0.666530
H211	H	0.184198	-0.047864	-0.000123
H212	H	0.517531	0.285469	0.333210
H213	H	0.850864	0.618802	0.666543
H214	H	0.166440	-0.305945	-0.000096
H215	H	0.499773	0.027388	0.333237
H216	H	0.833107	0.360721	0.666571
H217	H	0.557705	-0.014051	-0.000114
H218	H	0.891038	0.319282	0.333219
H219	H	1.224372	0.652616	0.666552
Br220	Br	0.808494	-0.037740	-0.189197
Br221	Br	1.141827	0.295594	0.144137
Br222	Br	1.475160	0.628927	0.477470
H223	H	1.042774	0.230685	-0.000109
H224	H	1.376107	0.564019	0.333224
H225	H	1.709441	0.897352	0.666558
Br226	Br	0.793683	0.412358	-0.000047
Br227	Br	1.127017	0.745691	0.333286
Br228	Br	1.460350	1.079025	0.666620
H229	H	1.088584	0.455078	-0.000112
H230	H	1.421917	0.788411	0.333222
H231	H	1.755250	1.121744	0.666555
H232	H	1.018983	-0.248412	-0.213818
H233	H	1.352317	0.084921	0.119515
H234	H	1.685650	0.418254	0.452848
H235	H	0.854295	-0.083574	-0.786376
H236	H	1.187628	0.249759	-0.453043
H237	H	1.520962	0.583092	-0.119709
H238	H	0.861756	-0.091031	-0.621644
H239	H	1.195089	0.242303	-0.288310
H240	H	1.528422	0.575636	0.045023
