data_functionalizedCrystal
_audit_creation_method	'MofGen! by Chris Wilmer'
_symmetry_space_group_name_H-M	'P1'
_symmetry_Int_Tables_number	1
_symmetry_cell_setting	triclinic
loop_
_symmetry_equiv_pos_as_xyz
  x,y,z
_cell_length_a	33.359640
_cell_length_b	33.359654
_cell_length_c	33.359725
_cell_angle_alpha	89.996437
_cell_angle_beta	120.001352
_cell_angle_gamma	119.999911
loop_
_atom_site_label
_atom_site_type_symbol
_atom_site_fract_x
_atom_site_fract_y
_atom_site_fract_z
O1	O	0.286918	-0.341662	0.011934
O2	O	0.204832	-0.283369	-0.011861
O3	O	0.286916	-0.283368	0.070223
O4	O	0.204835	-0.341663	-0.070150
O5	O	0.353584	-0.216699	0.070217
O6	O	0.271500	-0.216700	-0.011866
O7	O	0.353586	-0.274992	0.011928
Cu8	Cu	0.318631	-0.239759	0.000031
Cu9	Cu	0.239788	-0.318603	0.000037
O10	O	0.271503	-0.274994	-0.070155
C11	C	0.117512	-0.073732	-0.028804
C12	C	0.141408	-0.098079	-0.029146
C13	C	0.044919	-0.146324	-0.028810
C14	C	0.068925	-0.170560	-0.029152
C15	C	0.117508	-0.146324	-0.028811
C16	C	0.068929	-0.098079	-0.029145
C17	C	0.123218	0.004723	-0.022907
C18	C	0.149788	0.054298	-0.019185
C19	C	0.199456	0.079162	-0.017318
C20	C	0.228269	0.132915	-0.013280
C21	C	0.222559	0.054455	-0.019177
C22	C	0.195989	0.004882	-0.022901
C23	C	0.146321	-0.019981	-0.024764
C24	C	0.196151	-0.146136	-0.022922
C25	C	0.222874	-0.168987	-0.019206
C26	C	0.199932	-0.216791	-0.017345
C27	C	0.228906	-0.241568	-0.013314
C28	C	0.150264	-0.241752	-0.019204
C29	C	0.123541	-0.218903	-0.022921
C30	C	0.146486	-0.171095	-0.024778
C31	C	-0.027645	-0.146136	-0.022919
C32	C	-0.073498	-0.168985	-0.019196
C33	C	-0.096499	-0.216789	-0.017335
C34	C	-0.146219	-0.241567	-0.013303
C35	C	-0.073650	-0.241748	-0.019192
C36	C	-0.027797	-0.218901	-0.022913
C37	C	-0.004796	-0.171095	-0.024776
O38	O	-0.162496	-0.216699	-0.011855
O39	O	-0.279077	-0.274993	0.011942
O40	O	-0.279084	-0.274986	-0.070142
O41	O	-0.162489	-0.216706	0.070230
O42	O	-0.279087	-0.341659	-0.070149
O43	O	-0.279080	-0.341666	0.011936
O44	O	-0.162500	-0.283372	-0.011861
Cu45	Cu	-0.220790	-0.318607	0.000037
Cu46	Cu	-0.220786	-0.239758	0.000044
O47	O	-0.162493	-0.283379	0.070223
C48	C	0.117510	-0.412030	-0.367106
C49	C	0.068929	-0.460272	-0.391339
C50	C	0.117509	-0.412031	-0.294517
C51	C	0.068929	-0.460273	-0.318860
C52	C	0.044923	-0.484618	-0.367102
C53	C	0.141405	-0.387795	-0.318864
C54	C	0.196150	-0.339279	-0.366921
C55	C	0.222874	-0.316272	-0.389772
C56	C	0.199937	-0.341075	-0.437572
C57	C	0.228912	-0.316134	-0.462350
C58	C	0.150271	-0.388885	-0.462531
C59	C	0.123547	-0.411889	-0.439682
C60	C	0.146489	-0.387086	-0.391877
C61	C	-0.027637	-0.563070	-0.439850
C62	C	-0.073492	-0.612643	-0.462853
C63	C	-0.096489	-0.637506	-0.438048
C64	C	-0.146205	-0.691257	-0.462987
C65	C	-0.073641	-0.612801	-0.390239
C66	C	-0.027791	-0.563230	-0.367237
C67	C	-0.004789	-0.538367	-0.392043
C68	C	0.196149	-0.339280	-0.216067
C69	C	0.222876	-0.316276	-0.166492
C70	C	0.199938	-0.341080	-0.141627
C71	C	0.228913	-0.316139	-0.087876
C72	C	0.150277	-0.388888	-0.166329
C73	C	0.123549	-0.411893	-0.215902
C74	C	0.146488	-0.387087	-0.240768
C75	C	0.440928	-0.484618	0.028911
C76	C	0.489510	-0.460273	0.029248
C77	C	0.440924	-0.412030	0.028903
C78	C	0.489506	-0.387795	0.029241
C79	C	0.513514	-0.412031	0.028905
C80	C	0.417030	-0.460272	0.029247
C81	C	0.362289	-0.563070	0.023026
C82	C	0.335567	-0.612643	0.019313
C83	C	0.358507	-0.637505	0.017451
C84	C	0.329535	-0.691256	0.013422
C85	C	0.408174	-0.612800	0.019306
C86	C	0.434896	-0.563229	0.023022
C87	C	0.411951	-0.538366	0.024880
C88	C	0.586079	-0.412220	0.023016
C89	C	0.631934	-0.389371	0.019297
C90	C	0.654930	-0.341571	0.017427
C91	C	0.704647	-0.316795	0.013392
C92	C	0.632079	-0.316610	0.019281
C93	C	0.586227	-0.339457	0.023002
C94	C	0.563227	-0.387262	0.024868
C95	C	0.362281	-0.412219	0.023011
C96	C	0.335550	-0.389372	0.019284
C97	C	0.358487	-0.341571	0.017414
C98	C	0.329509	-0.316795	0.013378
C99	C	0.408149	-0.316613	0.019268
C100	C	0.434879	-0.339458	0.022993
C101	C	0.411943	-0.387261	0.024864
O102	O	0.353610	0.291018	0.011971
O103	O	0.271523	0.150642	-0.011827
O104	O	0.353603	0.232712	0.070258
O105	O	0.271530	0.208947	-0.070114
O106	O	0.286932	0.232713	0.070259
O107	O	0.204852	0.150642	-0.011826
O108	O	0.286939	0.291018	0.011972
Cu109	Cu	0.239808	0.220830	0.000073
Cu110	Cu	0.318654	0.220830	0.000072
O111	O	0.204859	0.208948	-0.070113
O112	O	-0.279063	-0.849357	-0.495746
O113	O	-0.162480	-0.708984	-0.437459
O114	O	-0.162475	-0.791063	-0.437453
O115	O	-0.279068	-0.767278	-0.495753
O116	O	-0.162474	-0.791061	-0.504123
O117	O	-0.162479	-0.708983	-0.504130
O118	O	-0.279061	-0.849355	-0.562417
Cu119	Cu	-0.220770	-0.779169	-0.539361
Cu120	Cu	-0.220772	-0.779171	-0.460515
O121	O	-0.279066	-0.767276	-0.562423
O122	O	0.286916	-0.283368	-0.562448
O123	O	0.204838	-0.341660	-0.504149
O124	O	0.286920	-0.341660	-0.504147
O125	O	0.204834	-0.283368	-0.562450
O126	O	0.353589	-0.274990	-0.437481
O127	O	0.271507	-0.274990	-0.437483
O128	O	0.353585	-0.216698	-0.495781
Cu129	Cu	0.318633	-0.239756	-0.460544
Cu130	Cu	0.239789	-0.318601	-0.539386
O131	O	0.271503	-0.216698	-0.495783
C132	C	0.513498	-0.073742	0.367169
C133	C	0.489492	-0.098087	0.391407
C134	C	0.440911	-0.146330	0.294585
C135	C	0.417015	-0.170565	0.318932
C136	C	0.440911	-0.146329	0.367174
C137	C	0.489492	-0.098088	0.318928
C138	C	0.586058	0.004711	0.366975
C139	C	0.631913	0.054284	0.389822
C140	C	0.654910	0.079147	0.437622
C141	C	0.704626	0.132898	0.462395
C142	C	0.632061	0.054441	0.462585
C143	C	0.586211	0.004870	0.439741
C144	C	0.563210	-0.019993	0.391936
C145	C	0.435210	-0.146141	0.439926
C146	C	0.408643	-0.168990	0.462934
C147	C	0.358977	-0.216791	0.438133
C148	C	0.330168	-0.241567	0.463077
C149	C	0.335874	-0.241751	0.390324
C150	C	0.362441	-0.218904	0.367318
C151	C	0.412106	-0.171099	0.392119
C152	C	0.435209	-0.146141	0.216130
C153	C	0.408638	-0.168988	0.166555
C154	C	0.358972	-0.216789	0.141695
C155	C	0.330163	-0.241566	0.087944
C156	C	0.335869	-0.241748	0.166401
C157	C	0.362436	-0.218903	0.215974
C158	C	0.412106	-0.171099	0.240836
C159	C	-0.559123	-0.484598	-0.367089
C160	C	-0.583020	-0.460249	-0.391320
C161	C	-0.486523	-0.412013	-0.294502
C162	C	-0.510531	-0.387774	-0.318843
C163	C	-0.559119	-0.412007	-0.367082
C164	C	-0.510535	-0.460255	-0.318850
C165	C	-0.564828	-0.563054	-0.366907
C166	C	-0.591399	-0.612628	-0.389758
C167	C	-0.641072	-0.637488	-0.437556
C168	C	-0.669886	-0.691239	-0.462334
C169	C	-0.664177	-0.612778	-0.462512
C170	C	-0.637605	-0.563207	-0.439663
C171	C	-0.587933	-0.538347	-0.391861
C172	C	-0.637767	-0.412189	-0.439824
C173	C	-0.664491	-0.389336	-0.462825
C174	C	-0.641548	-0.341535	-0.438019
C175	C	-0.670523	-0.316755	-0.462954
C176	C	-0.591875	-0.316577	-0.390212
C177	C	-0.565151	-0.339428	-0.367214
C178	C	-0.588099	-0.387234	-0.392020
C179	C	-0.413952	-0.412208	-0.216056
C180	C	-0.368094	-0.389364	-0.166483
C181	C	-0.345091	-0.341562	-0.141617
C182	C	-0.295367	-0.316789	-0.087869
C183	C	-0.367942	-0.316601	-0.166317
C184	C	-0.413800	-0.339443	-0.215888
C185	C	-0.436803	-0.387246	-0.240755
C186	C	0.117542	-0.146359	0.367164
C187	C	0.141444	-0.098116	0.391401
C188	C	0.044947	-0.146352	0.294583
C189	C	0.068959	-0.098110	0.318931
C190	C	0.117546	-0.073767	0.367171
C191	C	0.068955	-0.170591	0.318924
C192	C	0.123239	-0.219114	0.366967
C193	C	0.149806	-0.242123	0.389810
C194	C	0.199479	-0.217323	0.437609
C195	C	0.228289	-0.242268	0.462379
C196	C	0.222588	-0.169513	0.462571
C197	C	0.196020	-0.146505	0.439730
C198	C	0.146348	-0.171306	0.391927
C199	C	0.196199	0.004683	0.439920
C200	C	0.222928	0.054256	0.462928
C201	C	0.199988	0.079123	0.438129
C202	C	0.228968	0.132874	0.463072
C203	C	0.150316	0.054420	0.390322
C204	C	0.123587	0.004848	0.367317
C205	C	0.146531	-0.020018	0.392116
C206	C	-0.027628	-0.219101	0.216130
C207	C	-0.073486	-0.242102	0.166557
C208	C	-0.096485	-0.217295	0.141699
C209	C	-0.146210	-0.242233	0.087950
C210	C	-0.073630	-0.169487	0.166405
C211	C	-0.027772	-0.146484	0.215976
C212	C	-0.004773	-0.171293	0.240837
C213	C	0.440909	0.249625	0.367208
C214	C	0.489490	0.249960	0.391443
C215	C	0.440915	0.249636	0.294622
C216	C	0.489496	0.249972	0.318967
C217	C	0.513499	0.249625	0.367208
C218	C	0.417016	0.249972	0.318967
C219	C	0.362266	0.243734	0.367019
C220	C	0.335539	0.240013	0.389867
C221	C	0.358474	0.238140	0.437667
C222	C	0.329496	0.234102	0.462442
C223	C	0.408140	0.239993	0.462627
C224	C	0.434866	0.243716	0.439781
C225	C	0.411927	0.245585	0.391977
C226	C	0.586057	0.243722	0.439957
C227	C	0.631911	0.240001	0.462963
C228	C	0.654911	0.238139	0.438159
C229	C	0.704627	0.234101	0.463100
C230	C	0.632065	0.240004	0.390351
C231	C	0.586215	0.243728	0.367348
C232	C	0.563211	0.245585	0.392151
C233	C	0.362278	0.243758	0.216170
C234	C	0.335553	0.240042	0.166595
C235	C	0.358494	0.238180	0.141733
C236	C	0.329523	0.234155	0.087982
C237	C	0.408155	0.240031	0.166436
C238	C	0.434880	0.243745	0.216009
C239	C	0.411940	0.245609	0.240873
O240	O	-0.795236	-0.849334	-0.562428
O241	O	-0.713143	-0.708961	-0.504131
O242	O	-0.795217	-0.791039	-0.504120
O243	O	-0.713162	-0.767257	-0.562439
O244	O	-0.728541	-0.791046	-0.437458
O245	O	-0.646468	-0.708969	-0.437469
O246	O	-0.728560	-0.849342	-0.495766
Cu247	Cu	-0.681426	-0.779156	-0.460531
Cu248	Cu	-0.760277	-0.779147	-0.539366
O249	O	-0.646486	-0.767264	-0.495777
C250	C	0.044965	0.192035	-0.367063
C251	C	0.068975	0.191700	-0.391298
C252	C	0.117548	0.192024	-0.294476
C253	C	0.141448	0.191688	-0.318821
C254	C	0.117555	0.192035	-0.367062
C255	C	0.068968	0.191688	-0.318822
C256	C	-0.027599	0.197926	-0.366875
C257	C	-0.073453	0.201648	-0.389724
C258	C	-0.096447	0.203521	-0.437524
C259	C	-0.146163	0.207558	-0.462300
C260	C	-0.073595	0.201668	-0.462484
C261	C	-0.027745	0.197944	-0.439637
C262	C	-0.004747	0.196075	-0.391833
C263	C	0.123264	0.197937	-0.439811
C264	C	0.149834	0.201659	-0.462816
C265	C	0.199500	0.203520	-0.438012
C266	C	0.228313	0.207558	-0.462952
C267	C	0.222600	0.201656	-0.390204
C268	C	0.196029	0.197932	-0.367201
C269	C	0.146364	0.196075	-0.392004
C270	C	0.123243	0.197902	-0.216025
C271	C	0.149811	0.201618	-0.166451
C272	C	0.199477	0.203480	-0.141587
C273	C	0.228283	0.207505	-0.087837
C274	C	0.222583	0.201629	-0.166291
C275	C	0.196020	0.197914	-0.215863
C276	C	0.146350	0.196051	-0.240728
H277	H	0.048828	-0.210201	-0.029703
H278	H	-0.490453	-0.479810	-0.299306
H279	H	0.475315	-0.319135	0.024499
F280	F	-0.098129	-0.292628	-0.017207
F281	F	0.042665	-0.485819	-0.293312
H282	H	0.567357	-0.451144	0.024538
H283	H	-0.490435	-0.348137	-0.299293
F284	F	0.561908	0.245720	0.316472
F285	F	-0.003127	0.195934	-0.315999
F286	F	-0.511958	-0.536597	-0.316033
H287	H	0.263043	0.203170	-0.370011
F288	F	0.432559	-0.265736	0.017274
F289	F	0.125901	0.080889	0.363931
F290	F	0.337857	-0.245468	0.316440
H291	H	0.263312	-0.148658	-0.017696
H292	H	0.263037	-0.149322	0.501495
F293	F	0.432548	0.237999	0.513505
F294	F	0.488070	-0.095263	0.466325
F295	F	0.656550	0.238024	0.363955
F296	F	0.656559	-0.265732	0.017292
H297	H	0.377919	-0.210200	0.299384
H298	H	0.048883	0.191160	-0.430935
F299	F	0.515758	-0.072542	0.443218
F300	F	0.070697	-0.462775	-0.242190
H301	H	-0.432677	-0.451131	-0.236302
H302	H	0.214882	-0.015562	0.460117
H303	H	-0.092092	-0.632752	-0.501781
F304	F	0.275447	0.203611	-0.139827
F305	F	-0.098123	-0.639267	-0.363841
F306	F	0.337862	0.245743	0.242631
F307	F	0.515758	0.250686	0.293419
F308	F	0.433227	-0.142422	0.140264
F309	F	0.070379	0.195916	-0.242487
F310	F	0.515749	0.250668	0.443252
H311	H	0.131586	-0.280680	-0.017689
H312	H	0.214836	-0.107579	0.460056
H313	H	0.263369	0.074363	0.501853
F314	F	0.283012	-0.292631	0.363931
H315	H	0.131597	-0.409078	-0.501456
F316	F	0.432588	-0.639267	0.017324
H317	H	0.083105	-0.450814	-0.460006
H318	H	0.295129	-0.632753	0.017801
H319	H	0.048834	-0.479813	-0.430980
F320	F	-0.566808	-0.638920	-0.363197
H321	H	-0.092055	0.203155	-0.369399
H322	H	-0.622115	-0.479793	-0.430957
H323	H	0.130973	0.074410	-0.017672
F324	F	0.070355	-0.021737	-0.024891
H325	H	0.509592	-0.348159	0.029780
H326	H	-0.349491	-0.409691	-0.146377
F327	F	0.070680	-0.245468	-0.024902
F328	F	0.337846	-0.245465	0.242267
F329	F	0.070725	-0.021442	0.316439
H330	H	-0.009192	-0.543114	-0.328313
F331	F	0.283001	-0.292623	0.139938
F332	F	0.487756	-0.536934	0.025003
F333	F	-0.717047	-0.639242	-0.513387
F334	F	0.192503	-0.335988	-0.293317
H335	H	0.295115	-0.409697	0.017777
F336	F	-0.662191	-0.536909	-0.466222
H337	H	-0.656451	-0.451112	-0.460029
H338	H	-0.009134	0.196443	-0.459957
H339	H	0.130993	-0.281046	0.369479
H340	H	-0.704933	-0.409661	-0.501750
F341	F	0.275425	0.080923	-0.017191
F342	F	0.125216	0.203586	-0.140164
H343	H	0.131019	0.203175	-0.501742
H344	H	-0.009194	-0.239226	-0.024425
H345	H	0.180497	-0.078532	-0.029697
H346	H	0.131601	-0.409086	-0.146079
F347	F	-0.098073	0.203661	-0.513361
F348	F	0.042693	-0.222398	0.293372
H349	H	-0.432404	-0.319116	-0.235997
H350	H	0.180539	0.191139	-0.299273
H351	H	-0.349211	-0.277676	-0.146066
F352	F	0.282687	0.238044	0.363303
F353	F	0.487709	0.245668	0.466336
H354	H	0.475654	-0.107218	0.236372
H355	H	0.650535	-0.409699	0.017789
H356	H	-0.573195	-0.277650	-0.370018
H357	H	0.214828	-0.319078	-0.236312
H358	H	0.295119	0.238536	0.146486
F359	F	0.275728	-0.265396	-0.140206
H360	H	0.082822	0.196423	-0.460011
F361	F	0.337869	-0.463094	0.025006
F362	F	0.561917	-0.312890	0.024987
F363	F	0.561582	-0.021749	0.316098
F364	F	-0.003447	-0.095601	0.242270
H365	H	-0.524707	-0.319106	-0.328290
H366	H	0.426835	0.238515	0.146189
H367	H	0.048867	-0.078561	0.299386
F368	F	0.220607	0.195940	-0.316325
H369	H	0.567610	-0.015245	0.460067
F370	F	0.070371	-0.245512	0.316092
F371	F	0.042680	-0.072524	-0.029839
F372	F	0.487733	0.245713	0.242299
F373	F	0.220615	0.195949	-0.242153
H374	H	-0.092091	-0.281028	0.146446
F375	F	-0.097816	-0.142421	-0.017226
F376	F	-0.003169	-0.095258	-0.024904
F377	F	0.365921	0.250688	0.293419
H378	H	0.650507	0.238483	0.501889
F379	F	0.192524	-0.072583	0.443218
H380	H	0.214831	-0.319078	-0.327997
H381	H	0.509575	-0.078535	0.299377
H382	H	-0.008906	-0.239305	0.236370
H383	H	0.650512	0.074395	0.369494
H384	H	0.263309	-0.277346	-0.369448
F385	F	0.220575	-0.021412	-0.024880
H386	H	-0.092357	-0.149286	0.146160
F387	F	-0.003162	-0.536610	-0.466253
H388	H	0.509601	-0.479821	0.029796
F389	F	0.337852	0.245726	0.316142
H390	H	0.377936	-0.479821	0.029790
F391	F	0.220571	-0.095256	-0.024902
H392	H	0.343605	-0.542827	0.024543
F393	F	0.656542	0.080908	0.513463
F394	F	0.433235	-0.142423	0.513815
H395	H	0.567331	0.245238	0.460158
H396	H	0.048898	0.191179	-0.299266
