data_functionalizedCrystal
_audit_creation_method	'MofGen! by Chris Wilmer'
_symmetry_space_group_name_H-M	'P1'
_symmetry_Int_Tables_number	1
_symmetry_cell_setting	triclinic
loop_
_symmetry_equiv_pos_as_xyz
  x,y,z
_cell_length_a	12.594516
_cell_length_b	12.594517
_cell_length_c	12.759393
_cell_angle_alpha	89.972136
_cell_angle_beta	90.029124
_cell_angle_gamma	89.988892
loop_
_atom_site_label
_atom_site_type_symbol
_atom_site_fract_x
_atom_site_fract_y
_atom_site_fract_z
Zn1	Zn	-0.423820	-1.627274	0.594262
Zn2	Zn	0.076180	-1.127274	1.094262
Zn3	Zn	-0.601839	-1.627163	0.418589
Zn4	Zn	-0.101839	-1.127163	0.918589
Zn5	Zn	-0.423860	-1.449276	0.418572
Zn6	Zn	0.076140	-0.949276	0.918572
Zn7	Zn	-0.601741	-1.449260	0.594202
Zn8	Zn	-0.101741	-0.949260	1.094202
O9	O	-0.512815	-1.538243	0.506406
O10	O	-0.012815	-1.038243	1.006406
O11	O	-0.447459	-1.776205	0.570990
O12	O	0.052541	-1.276205	1.070990
O13	O	-0.578287	-1.603526	0.271566
O14	O	-0.078287	-1.103526	0.771566
O15	O	-0.274908	-1.472941	0.441896
O16	O	0.225092	-0.972941	0.941896
O17	O	-0.578249	-1.776123	0.441925
O18	O	-0.078249	-1.276123	0.941925
O19	O	-0.274879	-1.603715	0.570974
O20	O	0.225121	-1.103715	1.070974
O21	O	-0.447526	-1.472833	0.271553
O22	O	0.052474	-0.972833	0.771553
O23	O	-0.447432	-1.300328	0.441838
O24	O	0.052568	-0.800328	0.941838
O25	O	-0.578082	-1.472914	0.741231
O26	O	-0.078082	-0.972914	1.241231
O27	O	-0.578121	-1.300316	0.570872
O28	O	-0.078121	-0.800316	1.070872
O29	O	-0.447364	-1.603700	0.741275
O30	O	0.052636	-1.103700	1.241275
O31	O	-0.750772	-1.603511	0.441867
O32	O	-0.250772	-1.103511	0.941867
O33	O	-0.750700	-1.472806	0.570889
O34	O	-0.250700	-0.972806	1.070889
C35	C	-0.512771	-1.261702	0.506347
C36	C	-0.012771	-0.761702	1.006347
C37	C	-0.512777	-1.143397	0.506347
C38	C	-0.012777	-0.643397	1.006347
C39	C	-0.789356	-1.538174	0.506396
C40	C	-0.289356	-1.038174	1.006396
C41	C	-0.907661	-1.538241	0.506427
C42	C	-0.407661	-1.038241	1.006427
C43	C	-0.441607	-1.003356	0.436314
C44	C	0.058393	-0.503356	0.936314
C45	C	-0.415674	-1.074215	0.532190
C46	C	0.084326	-0.574215	1.032190
C47	C	-0.538662	-1.074109	0.410482
C48	C	-0.038662	-0.574109	0.910482
C49	C	-0.486820	-1.003471	0.602333
C50	C	0.013180	-0.503471	1.102333
C51	C	-0.609853	-1.003358	0.480560
C52	C	-0.109853	-0.503358	0.980560
C53	C	-0.583958	-1.074186	0.576502
C54	C	-0.083958	-0.574186	1.076502
C55	C	-0.976914	-1.467144	0.576552
C56	C	-0.476914	-0.967144	1.076552
C57	C	-1.047782	-1.441210	0.480682
C58	C	-0.547782	-0.941210	0.980682
C59	C	-1.047592	-1.564273	0.602314
C60	C	-0.547592	-1.064273	1.102314
C61	C	-0.976971	-1.512255	0.410505
C62	C	-0.476971	-1.012255	0.910505
C63	C	-0.976775	-1.635363	0.532202
C64	C	-0.476775	-1.135363	1.032202
C65	C	-1.047611	-1.609466	0.436265
C66	C	-0.547611	-1.109466	0.936265
C67	C	-0.235194	-1.538342	0.506440
C68	C	0.264806	-1.038342	1.006440
C69	C	-0.116889	-1.538384	0.506454
C70	C	0.383111	-1.038384	1.006454
C71	C	-0.512707	-1.538318	0.780440
C72	C	-0.012707	-1.038318	1.280440
C73	C	-0.512662	-1.538350	0.897217
C74	C	-0.012662	-1.038350	1.397217
C75	C	-0.512841	-0.815864	0.506445
C76	C	-0.012841	-0.315864	1.006445
C77	C	-0.512803	-0.934170	0.506406
C78	C	-0.012803	-0.434170	1.006406
C79	C	-0.512845	-1.538230	0.233439
C80	C	-0.012845	-1.038230	0.733439
C81	C	-0.512591	-1.538405	0.116663
C82	C	-0.012591	-1.038405	0.616663
C83	C	-0.444590	-1.606459	0.952103
C84	C	0.055410	-1.106459	1.452103
C85	C	-0.444552	-1.606485	1.061827
C86	C	0.055448	-1.106485	1.561827
C87	C	-0.580665	-1.470287	1.061769
C88	C	-0.080665	-0.970287	1.561769
C89	C	-0.580698	-1.470258	0.952046
C90	C	-0.080698	-0.970258	1.452046
C91	C	-0.376554	-1.674551	0.897273
C92	C	0.123446	-1.174551	1.397273
C93	C	-0.308478	-1.742667	0.952160
C94	C	0.191522	-1.242667	1.452160
C95	C	-0.308440	-1.742693	1.061884
C96	C	0.191560	-1.242693	1.561884
C97	C	-0.376477	-1.674602	1.116722
C98	C	0.123523	-1.174602	1.616722
H99	H	-0.381364	-0.972259	0.377137
H100	H	0.118636	-0.472259	0.877137
N101	N	-0.376441	-1.674603	1.228802
N102	N	0.123559	-1.174603	1.728802
N103	N	-0.354166	-1.591593	1.277757
N104	N	0.145834	-1.091593	1.777757
H105	H	-0.354143	-1.591596	1.356913
H106	H	0.145857	-1.091596	1.856913
H107	H	-0.636111	-1.414780	0.907357
H108	H	-0.136111	-0.914780	1.407357
N109	N	-0.312696	-1.113252	0.559585
N110	N	0.187304	-0.613252	1.059585
N111	N	-0.234226	-1.090548	0.503983
N112	N	0.265774	-0.590548	1.003983
H113	H	-0.161495	-1.118114	0.523324
H114	H	0.338505	-0.618114	1.023324
H115	H	-0.945871	-1.406912	0.635769
H116	H	-0.445871	-0.906912	1.135769
H117	H	-1.078995	-1.359142	0.458903
H118	H	-0.578995	-0.859142	0.958903
H119	H	-1.078457	-1.669652	0.376905
H120	H	-0.578457	-1.169652	0.876905
N121	N	-0.650151	-1.400744	1.117797
N122	N	-0.150151	-0.900744	1.617797
N123	N	-0.650112	-1.400781	1.215762
N124	N	-0.150112	-0.900781	1.715762
H125	H	-0.699188	-1.351667	1.255333
H126	H	-0.199188	-0.851667	1.755333
N127	N	-0.712799	-0.964291	0.453115
N128	N	-0.212799	-0.464291	0.953115
N129	N	-0.752328	-0.986860	0.366054
N130	N	-0.252328	-0.486860	0.866054
H131	H	-0.825035	-0.959269	0.346659
H132	H	-0.325035	-0.459269	0.846659
H133	H	-0.464841	-0.972571	0.683453
H134	H	0.035159	-0.472571	1.183453
N135	N	-0.566146	-1.113035	0.308754
N136	N	-0.066146	-0.613035	0.808754
N137	N	-0.646709	-1.169777	0.297133
N138	N	-0.146709	-0.669777	0.797133
H139	H	-0.666114	-1.197266	0.225286
H140	H	-0.166114	-0.697266	0.725286
N141	N	-0.938209	-1.484574	0.308771
N142	N	-0.438209	-0.984574	0.808771
N143	N	-0.840481	-1.479999	0.292353
N144	N	-0.340481	-0.979999	0.792353
H145	H	-0.813101	-1.460440	0.220508
H146	H	-0.313101	-0.960440	0.720508
N147	N	-0.937629	-1.738294	0.559589
N148	N	-0.437629	-1.238294	1.059589
N149	N	-0.960178	-1.777896	0.646622
N150	N	-0.460178	-1.277896	1.146622
H151	H	-0.932531	-1.850592	0.665975
H152	H	-0.432531	-1.350592	1.165975
N153	N	-0.238965	-1.812211	0.896167
N154	N	0.261035	-1.312211	1.396167
N155	N	-0.140745	-1.805189	0.908440
N156	N	0.359255	-1.305189	1.408440
H157	H	-0.091646	-1.854306	0.868898
H158	H	0.408354	-1.354306	1.368898
N159	N	-0.659472	-1.112946	0.650921
N160	N	-0.159472	-0.612946	1.150921
N161	N	-0.649841	-1.090111	0.745776
N162	N	-0.149841	-0.590111	1.245776
H163	H	-0.703169	-1.117485	0.798338
H164	H	-0.203169	-0.617485	1.298338
H165	H	-1.078614	-1.586232	0.683394
H166	H	-0.578614	-1.086232	1.183394
H167	H	-0.376580	-1.674541	0.807930
H168	H	0.123420	-1.174541	1.307930
H169	H	-0.253001	-1.798148	1.106570
H170	H	0.246999	-1.298148	1.606570
