data_functionalizedCrystal
_audit_creation_method	'MofGen! by Chris Wilmer'
_symmetry_space_group_name_H-M	'P1'
_symmetry_Int_Tables_number	1
_symmetry_cell_setting	triclinic
loop_
_symmetry_equiv_pos_as_xyz
  x,y,z
_cell_length_a	29.839134
_cell_length_b	19.077356
_cell_length_c	29.839126
_cell_angle_alpha	87.691801
_cell_angle_beta	89.970362
_cell_angle_gamma	92.293749
loop_
_atom_site_label
_atom_site_type_symbol
_atom_site_fract_x
_atom_site_fract_y
_atom_site_fract_z
Zn1	Zn	0.679690	-0.280349	-0.246978
Zn2	Zn	0.676646	-0.398036	-0.168848
Zn3	Zn	0.604562	-0.280347	-0.171848
Zn4	Zn	0.601556	-0.397999	-0.243937
O5	O	0.640613	-0.339183	-0.207903
O6	O	0.742153	-0.295977	-0.236631
O7	O	0.667069	-0.382439	-0.106378
O8	O	0.617060	-0.181857	-0.184342
O9	O	0.739917	-0.382441	-0.179229
O10	O	0.672256	-0.181859	-0.239540
O11	O	0.614109	-0.295973	-0.108582
O12	O	0.541297	-0.295937	-0.181393
O13	O	0.611936	-0.382378	-0.307208
O14	O	0.539088	-0.382376	-0.234357
O15	O	0.669340	-0.295941	-0.309442
O16	O	0.664153	-0.496521	-0.176280
O17	O	0.608985	-0.496494	-0.231448
C18	C	0.523892	-0.339153	-0.207871
C19	C	0.473957	-0.339157	-0.207868
C20	C	0.635925	-0.522045	-0.203219
C21	C	0.633960	-0.600275	-0.201230
C22	C	0.640642	-0.339156	-0.325082
C23	C	0.640654	-0.339144	-0.375016
C24	C	0.163171	-0.384258	-0.235444
C25	C	-0.024503	-0.384278	-0.235463
O26	O	-0.049739	-0.422591	-0.258891
N27	N	-0.046829	-0.339209	-0.207936
C28	C	-0.022234	-0.294128	-0.180403
O29	O	-0.045530	-0.255789	-0.156993
C30	C	0.165439	-0.294105	-0.180387
C31	C	0.187762	-0.339182	-0.207913
C32	C	0.185494	-0.429331	-0.262968
C33	C	0.232410	-0.429328	-0.262961
C34	C	0.257002	-0.384253	-0.235430
C35	C	0.234678	-0.339180	-0.207906
C36	C	0.190033	-0.249022	-0.152857
C37	C	0.236954	-0.249019	-0.152856
C38	C	0.259278	-0.294096	-0.180382
C39	C	0.306185	-0.294101	-0.180368
N40	N	0.328511	-0.339171	-0.207895
C41	C	0.303920	-0.384246	-0.235427
C42	C	-0.120765	-0.294144	-0.180414
C43	C	-0.167683	-0.294151	-0.180417
C44	C	-0.169949	-0.384300	-0.235478
C45	C	-0.123030	-0.384296	-0.235472
C46	C	-0.098439	-0.339213	-0.207941
C47	C	0.402446	-0.384237	-0.235410
C48	C	0.449365	-0.384233	-0.235399
C49	C	0.451627	-0.294082	-0.180340
C50	C	0.404711	-0.294088	-0.180349
C51	C	0.380122	-0.339169	-0.207887
O52	O	0.331449	-0.255803	-0.156956
O53	O	0.327224	-0.422568	-0.258840
C54	C	0.116255	-0.384261	-0.235451
C55	C	0.093931	-0.339188	-0.207927
C56	C	0.118523	-0.294112	-0.180396
C57	C	0.047013	-0.339194	-0.207930
C58	C	0.022422	-0.384270	-0.235461
C59	C	0.044748	-0.429339	-0.262989
C60	C	0.091663	-0.429336	-0.262982
C61	C	0.096197	-0.249043	-0.152868
C62	C	0.049281	-0.249050	-0.152877
C63	C	0.024689	-0.294126	-0.180408
C64	C	0.757791	-0.339213	-0.207935
C65	C	0.807725	-0.339226	-0.207948
C66	C	0.645333	-0.155606	-0.212615
C67	C	0.647344	-0.077377	-0.214623
C68	C	0.619553	-0.040623	-0.186829
C69	C	0.621442	0.032882	-0.188720
C70	C	0.651124	0.069631	-0.218403
C71	C	0.678916	0.032872	-0.246201
C72	C	0.677025	-0.040632	-0.244311
C73	C	0.659860	0.289463	-0.227138
C74	C	0.661751	0.362971	-0.229024
C75	C	0.604276	0.362976	-0.171543
C76	C	0.602389	0.289472	-0.169655
C77	C	0.630179	0.252719	-0.197454
N78	N	0.653057	0.144765	-0.220336
N79	N	0.628244	0.177586	-0.195523
C80	C	0.613089	-0.294051	-0.685812
C81	C	0.613103	-0.294003	-0.873487
O82	O	0.589641	-0.255733	-0.898729
N83	N	0.640679	-0.339012	-0.895805
C84	C	0.668251	-0.384041	-0.871202
O85	O	0.691703	-0.422329	-0.894491
C86	C	0.668235	-0.384093	-0.683528
C87	C	0.640660	-0.339075	-0.661212
C88	C	0.585516	-0.249038	-0.663496
C89	C	0.585515	-0.249048	-0.616581
C90	C	0.613086	-0.294071	-0.591981
C91	C	0.640659	-0.339085	-0.614297
C92	C	0.695804	-0.429124	-0.658926
C93	C	0.695797	-0.429135	-0.612005
C94	C	0.668222	-0.384117	-0.589689
C95	C	0.668228	-0.384118	-0.542781
N96	N	0.640652	-0.339109	-0.520463
C97	C	0.613081	-0.294085	-0.545063
C98	C	0.668259	-0.384010	-0.969733
C99	C	0.668263	-0.383996	-1.016652
C100	C	0.613114	-0.293958	-1.018933
C101	C	0.613112	-0.293969	-0.972014
C102	C	0.640683	-0.339000	-0.947415
C103	C	0.613080	-0.294109	-0.446536
C104	C	0.613083	-0.294121	-0.399616
C105	C	0.668230	-0.384161	-0.397339
C106	C	0.668230	-0.384147	-0.444255
C107	C	0.640651	-0.339118	-0.468852
O108	O	0.691674	-0.422374	-0.517510
O109	O	0.589625	-0.255814	-0.521765
C110	C	0.613090	-0.294041	-0.732728
C111	C	0.640663	-0.339055	-0.755044
C112	C	0.668234	-0.384079	-0.730444
C113	C	0.640668	-0.339041	-0.801962
C114	C	0.613096	-0.294018	-0.826562
C115	C	0.585520	-0.249008	-0.804243
C116	C	0.585519	-0.249018	-0.757328
C117	C	0.695810	-0.429089	-0.752763
C118	C	0.695810	-0.429074	-0.799679
C119	C	0.668238	-0.384051	-0.824278
C120	C	0.640612	-0.339159	-0.091181
C121	C	0.640692	-0.338972	-0.041251
H122	H	0.382430	-0.420945	-0.257835
H123	H	0.699651	-0.070556	-0.266948
C124	C	0.583093	-0.245217	-0.375470
C125	C	0.558939	-0.205802	-0.407059
C126	C	0.531304	-0.160755	-0.384834
H127	H	0.601016	-0.214495	-0.357962
H128	H	0.562802	-0.272124	-0.356477
H129	H	0.579228	-0.178898	-0.426044
H130	H	0.541007	-0.236506	-0.424568
H131	H	0.511012	-0.187662	-0.365841
H132	H	0.549230	-0.130038	-0.367327
H133	H	0.514909	-0.134011	-0.406263
H134	H	0.590659	-0.257311	-0.953848
H135	H	0.250582	-0.466033	-0.285377
H136	H	0.590666	-0.257296	-1.038970
H137	H	-0.100747	-0.257432	-0.157993
C138	C	0.570125	0.249491	-0.137502
C139	C	0.540259	0.207298	-0.161851
C140	C	0.510534	0.170454	-0.132247
H141	H	0.553799	0.281833	-0.121211
H142	H	0.586549	0.220765	-0.117198
H143	H	0.523837	0.236022	-0.182147
H144	H	0.556572	0.174943	-0.178141
H145	H	0.526957	0.141728	-0.111943
H146	H	0.494211	0.202801	-0.115957
H147	H	0.490269	0.141817	-0.148763
H148	H	0.590624	-0.257442	-0.466558
H149	H	0.598812	0.062807	-0.166088
H150	H	0.165477	-0.466037	-0.285390
C151	C	0.711130	0.072895	-0.278383
C152	C	0.706848	0.145134	-0.274081
C153	C	0.736522	0.182023	-0.303715
H154	H	0.704283	0.060942	-0.308278
H155	H	0.741013	0.060877	-0.271503
H156	H	0.676971	0.157147	-0.280964
H157	H	0.713699	0.157108	-0.244193
H158	H	0.766406	0.170005	-0.296835
H159	H	0.729673	0.170064	-0.333608
H160	H	0.733624	0.231041	-0.300797
C161	C	0.574122	0.403007	-0.141419
C162	C	0.582121	0.475244	-0.149433
C163	C	0.554345	0.512142	-0.121695
H164	H	0.580352	0.391039	-0.110910
H165	H	0.543621	0.391011	-0.147683
H166	H	0.612615	0.487236	-0.143166
H167	H	0.575888	0.487233	-0.179937
H168	H	0.523843	0.500145	-0.127960
H169	H	0.560577	0.500168	-0.091188
H170	H	0.559765	0.561158	-0.127132
H171	H	0.682494	0.259547	-0.249769
H172	H	0.595384	-0.070539	-0.162655
C173	C	-0.098877	-0.433259	-0.265409
C174	C	-0.130461	-0.472721	-0.289526
C175	C	-0.108230	-0.517826	-0.317115
H176	H	-0.081365	-0.463949	-0.247457
H177	H	-0.079887	-0.406392	-0.285724
H178	H	-0.149442	-0.499586	-0.269213
H179	H	-0.147973	-0.442050	-0.307486
H180	H	-0.089240	-0.490959	-0.337430
H181	H	-0.090719	-0.548512	-0.299160
H182	H	-0.129656	-0.544602	-0.333485
H183	H	0.386534	-0.257384	-0.157934
C184	C	0.693987	0.402745	-0.261306
C185	C	0.717909	0.354827	-0.285258
C186	C	0.747601	0.391441	-0.315004
H187	H	0.714337	0.431415	-0.244918
H188	H	0.677547	0.431410	-0.281632
H189	H	0.734348	0.326174	-0.264935
H190	H	0.697570	0.326156	-0.301656
H191	H	0.731161	0.420106	-0.335330
H192	H	0.767948	0.420110	-0.298612
H193	H	0.763833	0.358935	-0.331262
C194	C	0.698094	-0.433064	-0.468540
C195	C	0.671495	-0.478154	-0.494309
C196	C	0.698987	-0.523228	-0.516686
H197	H	0.714522	-0.459945	-0.447216
H198	H	0.718355	-0.406170	-0.487572
H199	H	0.651243	-0.505046	-0.475278
H200	H	0.655068	-0.451293	-0.515640
H201	H	0.719248	-0.496334	-0.535718
H202	H	0.715414	-0.550104	-0.495359
H203	H	0.680945	-0.553823	-0.534176
H204	H	0.563059	-0.212392	-0.598415
C205	C	0.698221	-0.432944	-1.040794
C206	C	0.722354	-0.472387	-1.009203
C207	C	0.749950	-0.517497	-1.031424
H208	H	0.718529	-0.406103	-1.059796
H209	H	0.680258	-0.463641	-1.058292
H210	H	0.740315	-0.441695	-0.991713
H211	H	0.702058	-0.499243	-0.990200
H212	H	0.731987	-0.548193	-1.048921
H213	H	0.770254	-0.490650	-1.050425
H214	H	0.766324	-0.544269	-1.009992
C215	C	0.555565	-0.200070	-0.690121
C216	C	0.531429	-0.160647	-0.660526
C217	C	0.503840	-0.115516	-0.685033
H218	H	0.535259	-0.226895	-0.707730
H219	H	0.573532	-0.169362	-0.709206
H220	H	0.513464	-0.191351	-0.641448
H221	H	0.551724	-0.133807	-0.642916
H222	H	0.521806	-0.084808	-0.704118
H223	H	0.483536	-0.142347	-0.702641
H224	H	0.487463	-0.088757	-0.664957
H225	H	0.690710	-0.420683	-0.949709
H226	H	0.109835	-0.466043	-0.285397
C227	C	0.025130	-0.200028	-0.122973
C228	C	0.056715	-0.160541	-0.098873
C229	C	0.034486	-0.115366	-0.071331
H230	H	0.006126	-0.226823	-0.102645
H231	H	0.007635	-0.169362	-0.140971
H232	H	0.074202	-0.191204	-0.080877
H233	H	0.075720	-0.133732	-0.119190
H234	H	0.016991	-0.084699	-0.089328
H235	H	0.015482	-0.142166	-0.051005
H236	H	0.055912	-0.088564	-0.054979
C237	C	0.725755	-0.478084	-0.683063
C238	C	0.749884	-0.517528	-0.651468
C239	C	0.777476	-0.562648	-0.673686
H240	H	0.746065	-0.451251	-0.702066
H241	H	0.707790	-0.508780	-0.700559
H242	H	0.767848	-0.486835	-0.633980
H243	H	0.729586	-0.544375	-0.632464
H244	H	0.759511	-0.593344	-0.691181
H245	H	0.797783	-0.535809	-0.692688
H246	H	0.793848	-0.589420	-0.652252
H247	H	-0.189979	-0.421002	-0.257895
C248	C	0.122946	-0.200218	-0.122943
C249	C	0.148851	-0.240003	-0.093089
C250	C	0.173500	-0.195049	-0.065515
H251	H	0.102977	-0.173364	-0.106509
H252	H	0.142070	-0.169594	-0.140925
H253	H	0.129729	-0.270614	-0.075109
H254	H	0.168828	-0.266855	-0.109511
H255	H	0.192624	-0.164425	-0.083498
H256	H	0.153528	-0.168198	-0.049085
H257	H	0.191082	-0.222036	-0.045259
H258	H	0.718251	-0.465801	-0.591978
H259	H	-0.185855	-0.257451	-0.157998
C260	C	0.698114	-0.433017	-0.370545
C261	C	0.692197	-0.423401	-0.324680
C262	C	0.719711	-0.468405	-0.299982
H263	H	0.728583	-0.422774	-0.378453
H264	H	0.690316	-0.480317	-0.376989
H265	H	0.699997	-0.376111	-0.318238
H266	H	0.661734	-0.433648	-0.316758
H267	H	0.711913	-0.515706	-0.306427
H268	H	0.750178	-0.458159	-0.307894
H269	H	0.715697	-0.461892	-0.268861
H270	H	0.563065	-0.212360	-0.739162
C271	C	0.263627	-0.200162	-0.122885
C272	C	0.251802	-0.215403	-0.078031
C273	C	0.276368	-0.170421	-0.050407
H274	H	0.257172	-0.152862	-0.130662
H275	H	0.294772	-0.206620	-0.126791
H276	H	0.220665	-0.208939	-0.074127
H277	H	0.258259	-0.262695	-0.070240
H278	H	0.307512	-0.176879	-0.054313
H279	H	0.269910	-0.123124	-0.058188
H280	H	0.268351	-0.180760	-0.019970
C281	C	0.555598	-0.200204	-0.831036
C282	C	0.561497	-0.209851	-0.876900
C283	C	0.533935	-0.164920	-0.901597
H284	H	0.563356	-0.152887	-0.824623
H285	H	0.525138	-0.210510	-0.823096
H286	H	0.591950	-0.199541	-0.884837
H287	H	0.553736	-0.257159	-0.883326
H288	H	0.503475	-0.175225	-0.893656
H289	H	0.541695	-0.117605	-0.895180
H290	H	0.537930	-0.171464	-0.932718
H291	H	0.718261	-0.465756	-0.732738
C292	C	0.473520	-0.433201	-0.265336
C293	C	0.441938	-0.472660	-0.289457
C294	C	0.464172	-0.517767	-0.317043
H295	H	0.491028	-0.463893	-0.247382
H296	H	0.492513	-0.406335	-0.285649
H297	H	0.422953	-0.499524	-0.269147
H298	H	0.424429	-0.441987	-0.307420
H299	H	0.483164	-0.490902	-0.337356
H300	H	0.481679	-0.548454	-0.299085
H301	H	0.442747	-0.544541	-0.333416
C302	C	0.478389	-0.245258	-0.150423
C303	C	0.504299	-0.285044	-0.120574
C304	C	0.528964	-0.240088	-0.093014
H305	H	0.458430	-0.218393	-0.133985
H306	H	0.497510	-0.214646	-0.168415
H307	H	0.485179	-0.315644	-0.102583
H308	H	0.524266	-0.311907	-0.136998
H309	H	0.548086	-0.209476	-0.111006
H310	H	0.509002	-0.213225	-0.076580
H311	H	0.546550	-0.267075	-0.072761
C312	C	0.018021	-0.478159	-0.292940
C313	C	-0.007869	-0.438362	-0.322802
C314	C	-0.032493	-0.483303	-0.350404
H315	H	-0.001114	-0.508800	-0.274992
H316	H	0.038018	-0.504993	-0.309363
H317	H	-0.027863	-0.411539	-0.306380
H318	H	0.011256	-0.407722	-0.340760
H319	H	-0.012496	-0.510137	-0.366827
H320	H	-0.051626	-0.513942	-0.332452
H321	H	-0.050059	-0.456307	-0.370671
C322	C	0.725766	-0.478032	-0.823821
C323	C	0.749899	-0.517474	-0.792229
C324	C	0.777490	-0.562591	-0.814450
H325	H	0.746073	-0.451196	-0.842826
H326	H	0.707800	-0.508729	-0.841315
H327	H	0.767864	-0.486782	-0.774742
H328	H	0.729603	-0.544325	-0.773223
H329	H	0.759524	-0.593288	-0.831945
H330	H	0.797795	-0.535750	-0.833454
H331	H	0.793865	-0.589363	-0.793019
H332	H	0.171865	-0.212317	-0.130441
