data_functionalizedCrystal
_audit_creation_method	'MofGen! by Chris Wilmer'
_symmetry_space_group_name_H-M	'P1'
_symmetry_Int_Tables_number	1
_symmetry_cell_setting	triclinic
loop_
_symmetry_equiv_pos_as_xyz
  x,y,z
_cell_length_a	16.625548
_cell_length_b	21.295417
_cell_length_c	16.625539
_cell_angle_alpha	89.968491
_cell_angle_beta	89.982945
_cell_angle_gamma	90.031575
loop_
_atom_site_label
_atom_site_type_symbol
_atom_site_fract_x
_atom_site_fract_y
_atom_site_fract_z
Zn1	Zn	1.232607	-0.250602	-0.455881
Zn2	Zn	1.732607	0.249398	0.044119
Zn3	Zn	1.232500	-0.355872	-0.321036
Zn4	Zn	1.732500	0.144128	0.178964
Zn5	Zn	1.097778	-0.250622	-0.321061
Zn6	Zn	1.597778	0.249378	0.178939
Zn7	Zn	1.097721	-0.355839	-0.455826
Zn8	Zn	1.597721	0.144161	0.044174
O9	O	1.165151	-0.303234	-0.388451
O10	O	1.665151	0.196766	0.111549
O11	O	1.345426	-0.264571	-0.438006
O12	O	1.845426	0.235429	0.061994
O13	O	1.214608	-0.341932	-0.208207
O14	O	1.714608	0.158068	0.291793
O15	O	1.115732	-0.162530	-0.338979
O16	O	1.615732	0.337470	0.161021
O17	O	1.345347	-0.341913	-0.338936
O18	O	1.845347	0.158087	0.161064
O19	O	1.214791	-0.162515	-0.438030
O20	O	1.714791	0.337485	0.061970
O21	O	1.115628	-0.264606	-0.208226
O22	O	1.615628	0.235394	0.291774
O23	O	0.984938	-0.264574	-0.338926
O24	O	1.484938	0.235426	0.161074
O25	O	1.115635	-0.341857	-0.568666
O26	O	1.615635	0.158143	-0.068666
O27	O	0.984896	-0.341877	-0.437937
O28	O	1.484896	0.158123	0.062063
O29	O	1.214736	-0.264539	-0.568706
O30	O	1.714736	0.235461	-0.068706
O31	O	1.214553	-0.443957	-0.338883
O32	O	1.714553	0.056043	0.161117
O33	O	1.115531	-0.443933	-0.437912
O34	O	1.615531	0.056067	0.062088
C35	C	0.955661	-0.303225	-0.388429
C36	C	1.455661	0.196775	0.111571
C37	C	0.866039	-0.303236	-0.388438
C38	C	1.366039	0.196764	0.111562
C39	C	0.537864	-0.303240	-0.388473
C40	C	1.037864	0.196760	0.111527
C41	C	0.629172	-0.303237	-0.388460
C42	C	1.129172	0.196763	0.111540
C43	C	0.701949	-0.303238	-0.388455
C44	C	1.201949	0.196762	0.111545
C45	C	0.793263	-0.303235	-0.388444
C46	C	1.293263	0.196765	0.111556
C47	C	1.165046	-0.466785	-0.388407
C48	C	1.665046	0.033215	0.111593
C49	C	1.165074	-0.536753	-0.388414
C50	C	1.665074	-0.036753	0.111586
C51	C	1.216681	-0.569612	-0.336903
C52	C	1.716681	-0.069612	0.163097
C53	C	1.216719	-0.635354	-0.336921
C54	C	1.716719	-0.135354	0.163079
C55	C	1.165135	-0.668236	-0.388442
C56	C	1.665135	-0.168236	0.111558
C57	C	1.113525	-0.635370	-0.439964
C58	C	1.613525	-0.135370	0.060036
C59	C	1.113495	-0.569628	-0.439950
C60	C	1.613495	-0.069628	0.060050
N61	N	1.094600	-0.771503	-0.394581
N62	N	1.594600	-0.271503	0.105419
N63	N	1.094631	-0.833954	-0.394590
N64	N	1.594631	-0.333954	0.105410
C65	C	1.165226	-0.866311	-0.388488
C66	C	1.665226	-0.366311	0.111512
N67	N	1.235789	-0.833856	-0.382362
N68	N	1.735789	-0.333856	0.117638
N69	N	1.235757	-0.771399	-0.382350
N70	N	1.735757	-0.271399	0.117650
C71	C	1.165163	-0.739521	-0.388463
C72	C	1.665163	-0.239521	0.111537
C73	C	1.216878	-0.970454	-0.336993
C74	C	1.716878	-0.470454	0.163007
C75	C	1.216917	-1.036198	-0.337017
C76	C	1.716917	-0.536198	0.162983
C77	C	1.113716	-1.036212	-0.440056
C78	C	1.613716	-0.536212	0.059944
C79	C	1.113684	-0.970470	-0.440037
C80	C	1.613684	-0.470470	0.059963
C81	C	1.165264	-0.937595	-0.388501
C82	C	1.665264	-0.437595	0.111499
C83	C	1.375460	-0.303243	-0.388474
C84	C	1.875460	0.196757	0.111526
C85	C	1.465081	-0.303247	-0.388484
C86	C	1.965081	0.196753	0.111516
C87	C	1.165191	-0.303192	-0.598760
C88	C	1.665191	0.196808	-0.098760
C89	C	1.165208	-0.303174	-0.688381
C90	C	1.665208	0.196826	-0.188381
C91	C	1.165280	-0.139043	-0.388514
C92	C	1.665280	0.360957	0.111486
C93	C	1.165334	-0.069075	-0.388540
C94	C	1.665334	0.430925	0.111460
C95	C	1.165221	-0.303161	-0.761164
C96	C	1.665221	0.196839	-0.261164
C97	C	1.165240	-0.303137	-0.852472
C98	C	1.665240	0.196863	-0.352472
C99	C	1.165259	-0.303115	-0.925249
C100	C	1.665259	0.196885	-0.425249
C101	C	1.165279	-0.303092	-1.016563
C102	C	1.665279	0.196908	-0.516563
C103	C	1.165158	-0.303230	-0.178960
C104	C	1.665158	0.196770	0.321040
C105	C	1.165298	-0.303070	-0.089340
C106	C	1.665298	0.196930	0.410660
H107	H	1.258682	-0.542847	-0.294941
H108	H	1.758682	-0.042847	0.205059
O109	O	1.063637	-1.068243	-0.490032
O110	O	1.563637	-0.568243	0.009968
C111	C	1.017990	-1.169527	-0.535764
C112	C	1.517990	-0.669527	-0.035764
C113	C	1.074730	-1.133328	-0.479106
C114	C	1.574730	-0.633328	0.020894
H115	H	1.026951	-1.222155	-0.526962
H116	H	1.526951	-0.722155	-0.026962
H117	H	0.952958	-1.156706	-0.521544
H118	H	1.452958	-0.656706	-0.021544
H119	H	1.032098	-1.156514	-0.600780
H120	H	1.532098	-0.656514	-0.100780
H121	H	1.060695	-1.146322	-0.414072
H122	H	1.560695	-0.646322	0.085928
H123	H	1.139746	-1.146152	-0.493396
H124	H	1.639746	-0.646152	0.006604
O125	O	1.063507	-0.938478	-0.489957
O126	O	1.563507	-0.438478	0.010043
C127	C	0.954573	-0.864354	-0.500681
C128	C	1.454573	-0.364354	-0.000681
C129	C	1.011361	-0.900534	-0.444051
C130	C	1.511361	-0.400534	0.055949
H131	H	0.912387	-0.833678	-0.463588
H132	H	1.412387	-0.333678	0.036412
H133	H	0.991506	-0.833482	-0.542855
H134	H	1.491506	-0.333482	-0.042855
H135	H	0.917747	-0.899157	-0.537527
H136	H	1.417747	-0.399157	-0.037527
H137	H	1.048199	-0.865777	-0.407152
H138	H	1.548199	-0.365777	0.092848
H139	H	0.974381	-0.931415	-0.401930
H140	H	1.474381	-0.431415	0.098070
O141	O	1.266874	-0.667184	-0.286800
O142	O	1.766874	-0.167184	0.213200
C143	C	1.369250	-0.660237	-0.184620
C144	C	1.869250	-0.160237	0.315380
C145	C	1.312479	-0.624114	-0.241327
C146	C	1.812479	-0.124114	0.258673
H147	H	1.406149	-0.625431	-0.147852
H148	H	1.906149	-0.125431	0.352148
H149	H	1.332302	-0.691046	-0.142383
H150	H	1.832302	-0.191046	0.357617
H151	H	1.411368	-0.690984	-0.221692
H152	H	1.911368	-0.190984	0.278308
H153	H	1.270349	-0.593333	-0.204320
H154	H	1.770349	-0.093333	0.295680
H155	H	1.349477	-0.593345	-0.283566
H156	H	1.849477	-0.093345	0.216434
H157	H	1.071470	-0.542875	-0.481898
H158	H	1.571470	-0.042875	0.018102
O159	O	1.267058	-0.938612	-0.286912
O160	O	1.767058	-0.438612	0.213088
C161	C	1.369381	-0.945535	-0.184676
C162	C	1.869381	-0.445535	0.315324
C163	C	1.312609	-0.981672	-0.241367
C164	C	1.812609	-0.481672	0.258633
H165	H	1.406211	-0.980333	-0.147826
H166	H	1.906211	-0.480333	0.352174
H167	H	1.411557	-0.914719	-0.221684
H168	H	1.911557	-0.414719	0.278316
H169	H	1.332356	-0.914794	-0.142508
H170	H	1.832356	-0.414794	0.357492
H171	H	1.349568	-1.012447	-0.283546
H172	H	1.849568	-0.512447	0.216454
H173	H	1.270430	-1.012448	-0.204309
H174	H	1.770430	-0.512448	0.295691
O175	O	1.063305	-0.667239	-0.489972
O176	O	1.563305	-0.167239	0.010028
C177	C	0.926135	-0.687457	-0.528963
C178	C	1.426135	-0.187457	-0.028963
C179	C	0.982916	-0.651317	-0.472285
C180	C	1.482916	-0.151317	0.027715
H181	H	0.861128	-0.674608	-0.514672
H182	H	1.361128	-0.174608	-0.014672
H183	H	0.940184	-0.674473	-0.594002
H184	H	1.440184	-0.174473	-0.094002
H185	H	0.935061	-0.740086	-0.520137
H186	H	1.435061	-0.240086	-0.020137
H187	H	0.974022	-0.598680	-0.481039
H188	H	1.474022	-0.098680	0.018961
H189	H	0.968853	-0.664353	-0.407267
H190	H	1.468853	-0.164353	0.092733
O191	O	1.267202	-1.068118	-0.287128
O192	O	1.767202	-0.568118	0.212872
C193	C	1.376189	-1.142205	-0.276512
C194	C	1.876189	-0.642205	0.223488
C195	C	1.319260	-1.106101	-0.333080
C196	C	1.819260	-0.606101	0.166920
H197	H	1.418281	-1.172932	-0.313640
H198	H	1.918281	-0.672932	0.186360
H199	H	1.413101	-1.107408	-0.239739
H200	H	1.913101	-0.607408	0.260261
H201	H	1.339284	-1.173036	-0.234265
H202	H	1.839284	-0.673036	0.265735
H203	H	1.356103	-1.075269	-0.375375
H204	H	1.856103	-0.575269	0.124625
H205	H	1.282346	-1.140932	-0.369796
H206	H	1.782346	-0.640932	0.130204
