data_functionalizedCrystal
_audit_creation_method	'MofGen! by Chris Wilmer'
_symmetry_space_group_name_H-M	'P1'
_symmetry_Int_Tables_number	1
_symmetry_cell_setting	triclinic
loop_
_symmetry_equiv_pos_as_xyz
  x,y,z
_cell_length_a	14.853559
_cell_length_b	16.109301
_cell_length_c	15.186229
_cell_angle_alpha	89.999362
_cell_angle_beta	90.001554
_cell_angle_gamma	96.453533
loop_
_atom_site_label
_atom_site_type_symbol
_atom_site_fract_x
_atom_site_fract_y
_atom_site_fract_z
O1	O	0.115881	-1.103290	0.073169
O2	O	0.130302	-0.861248	0.073182
O3	O	-0.008149	-0.988738	0.073174
O4	O	0.254333	-0.975800	0.073177
O5	O	-0.008151	-0.988730	-0.073283
O6	O	0.130300	-0.861240	-0.073275
O7	O	0.115879	-1.103282	-0.073289
Zn8	Zn	0.123089	-0.982259	-0.096535
Zn9	Zn	0.123092	-0.982270	0.096429
O10	O	0.254331	-0.975792	-0.073281
C11	C	0.129717	-0.830268	-0.000045
C12	C	0.127966	-0.737970	-0.000040
C13	C	-0.041738	-0.988149	-0.000053
C14	C	-0.141819	-0.986396	-0.000048
C15	C	0.116464	-1.134262	-0.000060
C16	C	0.118216	-1.226559	-0.000059
C17	C	-0.564981	-0.978964	0.079786
C18	C	-0.564978	-0.978955	-0.079887
C19	C	-0.470947	-0.980609	-0.079888
C20	C	-0.423929	-0.981439	-0.000050
C21	C	-0.470941	-0.980616	0.079788
C22	C	-0.423927	-0.981424	-0.159725
C23	C	-0.329890	-0.983077	-0.159729
C24	C	-0.282871	-0.983913	-0.079890
C25	C	-0.329889	-0.983091	-0.000049
C26	C	-0.282871	-0.983921	0.079789
C27	C	-0.329889	-0.983104	0.159631
C28	C	-0.423922	-0.981452	0.159627
C29	C	-0.188838	-0.985566	-0.079885
C30	C	-0.188832	-0.985573	0.079790
C31	C	0.287920	-0.976381	-0.000052
C32	C	0.388001	-0.978134	-0.000051
N33	N	0.123087	-0.982258	-0.228228
C34	C	0.206048	-0.515805	-0.000049
C35	C	0.204395	-0.429083	-0.000055
C36	C	0.040127	-0.448731	-0.000053
C37	C	0.041781	-0.535452	-0.000053
C38	C	0.124744	-0.568987	-0.000047
C39	C	0.121438	-0.395543	-0.000052
C40	C	0.119645	-0.301514	-0.000058
C41	C	0.126537	-0.663021	-0.000042
C42	C	0.061801	-1.038729	-0.453954
C43	C	0.061799	-1.038732	-0.546144
C44	C	0.184376	-0.925801	-0.546146
C45	C	0.184373	-0.925795	-0.453958
C46	C	0.123087	-0.982264	-0.407865
C47	C	0.123088	-0.982272	-0.592242
C48	C	0.123086	-0.982275	-0.692198
C49	C	0.123087	-0.982261	-0.307902
N50	N	0.123087	-0.982279	0.228121
H51	H	-0.150557	-0.986253	0.144805
C52	C	-0.051127	-0.411838	-0.000050
C53	C	-0.074857	-0.354916	-0.076096
C54	C	-0.166113	-0.318025	-0.076090
C55	C	-0.233640	-0.338056	-0.000037
C56	C	-0.209913	-0.394981	0.076015
C57	C	-0.118656	-0.431872	0.076009
H58	H	-0.024868	-0.340085	-0.132400
H59	H	-0.183678	-0.275885	-0.132389
H60	H	-0.301194	-0.310747	-0.000032
H61	H	-0.259902	-0.409812	0.132319
H62	H	-0.101092	-0.474012	0.132308
H63	H	0.273602	-0.543106	-0.000051
H64	H	-0.024431	-0.578755	-0.000054
C65	C	0.293832	-0.370583	-0.000052
C66	C	0.292021	-0.275193	-0.000057
C67	C	0.381461	-0.216693	-0.000056
C68	C	0.472713	-0.253584	-0.000050
C69	C	0.474527	-0.348979	-0.000045
C70	C	0.385087	-0.407479	-0.000046
H71	H	0.224467	-0.247879	-0.000062
H72	H	0.380117	-0.146075	-0.000060
H73	H	0.538922	-0.210279	-0.000049
H74	H	0.542080	-0.376293	-0.000040
H75	H	0.386431	-0.478097	-0.000042
H76	H	0.011897	-1.084709	-0.416427
H77	H	-0.603267	-0.978302	0.144792
H78	H	0.011894	-1.084710	-0.583668
C79	C	0.251796	-0.863693	-0.596849
C80	C	0.251856	-0.863740	-0.698252
C81	C	0.319280	-0.801633	-0.748952
C82	C	0.386644	-0.739477	-0.698249
C83	C	0.386586	-0.739427	-0.596840
C84	C	0.319162	-0.801535	-0.546140
H85	H	0.201987	-0.909754	-0.735791
H86	H	0.319323	-0.801670	-0.824022
H87	H	0.436556	-0.693501	-0.735780
H88	H	0.436455	-0.693414	-0.559302
H89	H	0.319120	-0.801498	-0.471071
H90	H	0.234279	-0.879810	-0.416429
H91	H	-0.291593	-0.983774	0.224635
H92	H	-0.603265	-0.978273	-0.144887
C93	C	-0.475643	-0.980539	0.247445
C94	C	-0.550563	-1.051532	0.269399
C95	C	-0.602289	-1.050613	0.357214
C96	C	-0.579095	-0.978700	0.423076
C97	C	-0.504171	-0.907702	0.401124
C98	C	-0.452445	-0.908622	0.313308
H99	H	-0.567737	-1.104771	0.220642
H100	H	-0.657753	-1.103171	0.373465
H101	H	-0.617385	-0.978020	0.488083
H102	H	-0.486998	-0.854464	0.449880
H103	H	-0.396982	-0.856064	0.297058
H104	H	-0.291617	-0.983745	-0.224741
C105	C	-0.137116	-0.986460	-0.167701
C106	C	-0.139780	-0.914085	-0.233554
C107	C	-0.088059	-0.914980	-0.321374
C108	C	-0.033673	-0.988250	-0.343341
C109	C	-0.031007	-1.060630	-0.277486
C110	C	-0.082728	-1.059735	-0.189666
H111	H	-0.180042	-0.859842	-0.217294
H112	H	-0.090033	-0.861399	-0.370124
H113	H	0.004614	-0.988912	-0.408351
H114	H	0.009255	-1.114874	-0.293746
H115	H	-0.080754	-1.113317	-0.140916
H116	H	-0.462215	-0.980743	-0.224724
