data_functionalizedCrystal
_audit_creation_method	'MofGen! by Chris Wilmer'
_symmetry_space_group_name_H-M	'P1'
_symmetry_Int_Tables_number	1
_symmetry_cell_setting	triclinic
loop_
_symmetry_equiv_pos_as_xyz
  x,y,z
_cell_length_a	11.792254
_cell_length_b	11.792241
_cell_length_c	9.198806
_cell_angle_alpha	89.996670
_cell_angle_beta	89.996104
_cell_angle_gamma	84.196007
loop_
_atom_site_label
_atom_site_type_symbol
_atom_site_fract_x
_atom_site_fract_y
_atom_site_fract_z
O1	O	1.506900	0.155634	-0.120892
O2	O	2.006900	0.655634	0.379108
O3	O	1.176560	0.171652	-0.120895
O4	O	1.676560	0.671652	0.379105
O5	O	1.349746	-0.001527	-0.120883
O6	O	1.849746	0.498473	0.379117
O7	O	1.333714	0.328813	-0.120904
O8	O	1.833714	0.828813	0.379096
O9	O	1.349733	-0.001528	0.120902
O10	O	1.849733	0.498472	0.620902
O11	O	1.176547	0.171651	0.120890
O12	O	1.676547	0.671651	0.620890
O13	O	1.506886	0.155633	0.120893
O14	O	2.006886	0.655633	0.620893
Cu15	Cu	1.341715	0.163642	0.142968
Cu16	Cu	1.841715	0.663642	0.642968
Cu17	Cu	1.341731	0.163643	-0.142970
Cu18	Cu	1.841731	0.663643	0.357030
O19	O	1.333700	0.328812	0.120881
O20	O	1.833700	0.828812	0.620881
C21	C	1.134263	0.170642	-0.000003
C22	C	1.634263	0.670642	0.499997
C23	C	1.008250	0.167622	-0.000004
C24	C	1.508250	0.667622	0.499996
C25	C	0.905913	0.165168	-0.000010
C26	C	1.405913	0.665168	0.499990
C27	C	0.777527	0.162100	-0.000011
C28	C	1.277527	0.662100	0.499989
C29	C	1.348732	-0.043819	0.000009
C30	C	1.848732	0.456181	0.500009
C31	C	1.345718	-0.169832	0.000007
C32	C	1.845718	0.330168	0.500007
C33	C	1.340175	-0.400545	-0.000017
C34	C	1.840175	0.099455	0.499983
C35	C	1.343255	-0.272160	-0.000004
C36	C	1.843255	0.227840	0.499996
C37	C	1.549183	0.156643	-0.000002
C38	C	2.049183	0.656643	0.499998
C39	C	1.675196	0.159663	-0.000011
C40	C	2.175196	0.659663	0.499989
C41	C	1.334714	0.371104	-0.000014
C42	C	1.834714	0.871104	0.499986
C43	C	1.337728	0.497118	-0.000022
C44	C	1.837728	0.997118	0.499978
N45	N	1.341712	0.163641	0.344082
N46	N	1.841712	0.663641	0.844082
N47	N	1.341743	0.163635	-0.344084
N48	N	1.841743	0.663635	0.155916
C49	C	1.414428	0.090608	0.416284
C50	C	1.914428	0.590608	0.916284
C51	C	1.414446	0.090604	0.583697
C52	C	1.914446	0.590604	1.083697
H53	H	1.476706	0.028082	0.645787
H54	H	1.976706	0.528082	1.145787
O55	O	1.488574	0.015879	0.342217
O56	O	1.988574	0.515879	0.842217
C57	C	1.553380	-0.181097	0.295322
C58	C	2.053380	0.318903	0.795322
C59	C	1.469325	-0.096605	0.379283
C60	C	1.969325	0.403395	0.879283
H61	H	1.537863	-0.272058	0.325282
H62	H	2.037863	0.227942	0.825282
H63	H	1.540113	-0.167871	0.173498
H64	H	2.040113	0.332129	0.673498
H65	H	1.644458	-0.165901	0.325106
H66	H	2.144458	0.334099	0.825106
H67	H	1.378214	-0.111749	0.349621
H68	H	1.878214	0.388251	0.849621
H69	H	1.482692	-0.109851	0.501086
H70	H	1.982692	0.390149	1.001086
H71	H	1.279465	0.226161	0.406206
H72	H	1.779465	0.726161	0.906206
O73	O	1.267623	0.238285	0.581703
O74	O	1.767623	0.738285	1.081703
C75	C	1.244950	0.393081	0.409750
C76	C	1.744950	0.893081	0.909750
C77	C	1.329014	0.308587	0.493691
C78	C	1.829014	0.808587	0.993691
H79	H	1.294552	0.449958	0.338596
H80	H	1.794552	0.949958	0.838596
H81	H	1.187860	0.343879	0.338405
H82	H	1.687860	0.843879	0.838405
H83	H	1.190191	0.448014	0.490201
H84	H	1.690191	0.948014	0.990201
H85	H	1.383847	0.253633	0.413345
H86	H	1.883847	0.753633	0.913345
H87	H	1.386026	0.357859	0.565059
H88	H	1.886026	0.857859	1.065059
