data_functionalizedCrystal
_audit_creation_method	'MofGen! by Chris Wilmer'
_symmetry_space_group_name_H-M	'P1'
_symmetry_Int_Tables_number	1
_symmetry_cell_setting	triclinic
loop_
_symmetry_equiv_pos_as_xyz
  x,y,z
_cell_length_a	15.995350
_cell_length_b	15.995292
_cell_length_c	14.472311
_cell_angle_alpha	89.994907
_cell_angle_beta	89.998542
_cell_angle_gamma	83.480495
loop_
_atom_site_label
_atom_site_type_symbol
_atom_site_fract_x
_atom_site_fract_y
_atom_site_fract_z
O1	O	1.110963	0.107934	-0.076756
O2	O	1.610963	0.607934	0.423244
O3	O	0.867185	0.121262	-0.076774
O4	O	1.367185	0.621262	0.423226
O5	O	0.995763	-0.007293	-0.076766
O6	O	1.495763	0.492707	0.423234
O7	O	0.982385	0.236489	-0.076764
O8	O	1.482385	0.736489	0.423236
O9	O	0.995752	-0.007306	0.076916
O10	O	1.495752	0.492694	0.576916
O11	O	0.867174	0.121249	0.076908
O12	O	1.367174	0.621249	0.576908
O13	O	1.110952	0.107921	0.076926
O14	O	1.610952	0.607921	0.576926
Cu15	Cu	0.989062	0.114584	0.090949
Cu16	Cu	1.489062	0.614584	0.590949
Cu17	Cu	0.989075	0.114599	-0.090798
Cu18	Cu	1.489075	0.614599	0.409202
O19	O	0.982373	0.236476	0.076918
O20	O	1.482373	0.736476	0.576918
C21	C	0.835985	0.120704	0.000064
C22	C	1.335985	0.620704	0.500064
C23	C	0.743035	0.119053	0.000057
C24	C	1.243035	0.619053	0.500057
C25	C	0.995213	-0.038495	0.000073
C26	C	1.495213	0.461505	0.500073
C27	C	0.993581	-0.131448	0.000066
C28	C	1.493581	0.368552	0.500066
C29	C	0.987580	-0.469186	0.000074
C30	C	1.487580	0.030814	0.500074
C31	C	1.080384	-0.445874	0.000424
C32	C	1.580384	0.054126	0.500424
C33	C	1.082148	-0.349199	0.000074
C34	C	1.582148	0.150801	0.500074
C35	C	0.990557	-0.301631	0.000070
C36	C	1.490557	0.198369	0.500070
C37	C	0.944166	-0.330724	-0.087690
C38	C	1.444166	0.169276	0.412310
C39	C	0.943049	-0.427515	-0.087761
C40	C	1.443049	0.072485	0.412239
C41	C	0.941141	-0.427386	0.087004
C42	C	1.441141	0.072614	0.587004
C43	C	0.944580	-0.330894	0.088161
C44	C	1.444580	0.169106	0.588161
C45	C	0.992235	-0.206934	0.000065
C46	C	1.492235	0.293066	0.500065
C47	C	0.985899	-0.563882	0.000072
C48	C	1.485899	-0.063882	0.500072
C49	C	0.405288	0.113120	0.000076
C50	C	0.905288	0.613120	0.500076
C51	C	0.452742	0.021566	0.000418
C52	C	0.952742	0.521566	0.500418
C53	C	0.549431	0.023218	0.000066
C54	C	1.049431	0.523218	0.500066
C55	C	0.572848	0.116063	0.000067
C56	C	1.072848	0.616063	0.500067
C57	C	0.531759	0.161228	-0.087689
C58	C	1.031759	0.661228	0.412311
C59	C	0.435123	0.158928	-0.087756
C60	C	0.935123	0.658928	0.412244
C61	C	0.434771	0.160805	0.087010
C62	C	0.934771	0.660805	0.587010
C63	C	0.531716	0.160783	0.088163
C64	C	1.031716	0.660783	0.588163
C65	C	0.667546	0.117731	0.000059
C66	C	1.167546	0.617731	0.500059
C67	C	0.310591	0.111455	0.000078
C68	C	0.810591	0.611455	0.500078
C69	C	1.142152	0.108479	0.000085
C70	C	1.642152	0.608479	0.500085
C71	C	1.235102	0.110130	0.000087
C72	C	1.735102	0.610130	0.500087
C73	C	0.982924	0.267678	0.000077
C74	C	1.482924	0.767678	0.500077
C75	C	0.984556	0.360631	0.000078
C76	C	1.484556	0.860631	0.500078
N77	N	0.989058	0.114573	0.218780
N78	N	1.489058	0.614573	0.718780
N79	N	0.989085	0.114603	-0.218628
N80	N	1.489085	0.614603	0.281372
C81	C	0.989067	0.114584	0.407280
C82	C	1.489067	0.614584	0.907280
C83	C	1.057883	0.045820	0.446486
C84	C	1.557883	0.545820	0.946486
C85	C	1.058132	0.046003	0.553574
C86	C	1.558132	0.546003	1.053574
C87	C	0.989076	0.114593	0.592871
C88	C	1.489076	0.614593	1.092871
C89	C	1.007778	0.202068	0.553980
C90	C	1.507778	0.702068	1.053980
C91	C	1.008267	0.201659	0.446859
C92	C	1.508267	0.701659	0.946859
C93	C	0.901343	0.096660	0.446764
C94	C	1.401343	0.596660	0.946764
C95	C	0.901937	0.094680	0.553893
C96	C	1.401937	0.594680	1.053893
C97	C	0.989080	0.114603	0.697760
C98	C	1.489080	0.614603	1.197760
C99	C	0.989066	0.114579	0.302392
C100	C	1.489066	0.614579	0.802392
H101	H	1.118480	-0.330179	0.062983
H102	H	1.618480	0.169821	0.562983
C103	C	0.832163	0.164389	0.412511
C104	C	1.332163	0.664389	0.912511
H105	H	0.779304	0.153227	0.436603
H106	H	1.279304	0.653227	0.936603
H107	H	0.830257	0.163551	0.346918
H108	H	1.330257	0.663551	0.846918
H109	H	0.844249	0.218180	0.432897
H110	H	1.344249	0.718180	0.932897
H111	H	1.072232	0.217403	0.421872
H112	H	1.572232	0.717403	0.921872
H113	H	1.046999	-0.019408	0.420714
H114	H	1.546999	0.480592	0.920714
H115	H	1.122621	0.057136	0.419554
H116	H	1.622621	0.557136	0.919554
C117	C	0.876935	0.012304	0.410289
C118	C	1.376935	0.512304	0.910289
H119	H	0.823814	0.002692	0.434942
H120	H	1.323814	0.502692	0.934942
H121	H	0.918237	-0.031974	0.428650
H122	H	1.418237	0.468026	0.928650
H123	H	0.873689	0.014157	0.344763
H124	H	1.373689	0.514157	0.844763
H125	H	0.414236	0.130868	0.153527
H126	H	0.914236	0.630868	0.653527
H127	H	0.975187	-0.454326	-0.153360
H128	H	1.475187	0.045674	0.346640
H129	H	1.123240	0.057492	0.579200
H130	H	1.623240	0.557492	1.079200
H131	H	1.115961	-0.474887	-0.062155
H132	H	1.615961	0.025113	0.437845
C133	C	1.128704	-0.483693	0.085449
C134	C	1.628704	0.016307	0.585449
H135	H	1.092718	-0.514047	0.121494
H136	H	1.592718	-0.014047	0.621494
H137	H	1.147164	-0.439727	0.121578
H138	H	1.647164	0.060273	0.621578
H139	H	1.176035	-0.520654	0.065730
H140	H	1.676035	-0.020654	0.565730
H141	H	0.875004	-0.442065	-0.091740
H142	H	1.375004	0.057935	0.408260
C143	C	0.853121	-0.287670	-0.092114
C144	C	1.353121	0.212330	0.407886
H145	H	0.842568	-0.251479	-0.040356
H146	H	1.342568	0.248521	0.459644
H147	H	0.815173	-0.329241	-0.091302
H148	H	1.315173	0.170759	0.408698
H149	H	0.845457	-0.255711	-0.147412
H150	H	1.345457	0.244289	0.352588
C151	C	0.848861	-0.446286	0.087810
C152	C	1.348861	0.053714	0.587810
H153	H	0.821125	-0.420859	0.140491
H154	H	1.321125	0.079141	0.640491
H155	H	0.847085	-0.505411	0.090066
H156	H	1.347085	-0.005411	0.590066
H157	H	0.821439	-0.424232	0.033365
H158	H	1.321439	0.075768	0.533365
C159	C	0.829552	0.157923	0.590019
C160	C	1.329552	0.657923	1.090019
H161	H	0.851626	0.197479	0.629517
H162	H	1.351626	0.697479	1.129517
H163	H	0.790827	0.128701	0.623480
H164	H	1.290827	0.628701	1.123480
H165	H	0.801557	0.186624	0.539339
H166	H	1.301557	0.686624	1.039339
C167	C	0.426293	-0.027648	-0.084124
C168	C	0.926293	0.472352	0.415876
H169	H	0.455251	-0.082893	-0.083384
H170	H	0.955251	0.417107	0.416616
H171	H	0.439947	0.000312	-0.139079
H172	H	0.939947	0.500312	0.360921
H173	H	0.367360	-0.030734	-0.082054
H174	H	0.867360	0.469266	0.417946
C175	C	0.987623	-0.303517	-0.175918
C176	C	1.487623	0.196483	0.324082
H177	H	1.034040	-0.274450	-0.159458
H178	H	1.534040	0.225550	0.340542
H179	H	0.948660	-0.267448	-0.211339
H180	H	1.448660	0.232552	0.288661
H181	H	1.006976	-0.351846	-0.211379
H182	H	1.506976	0.148154	0.288621
H183	H	0.559035	0.127813	0.153085
H184	H	1.059035	0.627813	0.653085
C185	C	0.943117	0.272890	0.411815
C186	C	1.443117	0.772890	0.911815
H187	H	0.916473	0.301952	0.463049
H188	H	1.416473	0.801952	0.963049
H189	H	0.902085	0.249693	0.375344
H190	H	1.402085	0.749693	0.875344
H191	H	0.970612	0.310982	0.375445
H192	H	1.470612	0.810982	0.875445
C193	C	0.990184	-0.305792	0.175875
C194	C	1.490184	0.194208	0.675875
H195	H	0.962070	-0.323660	0.228928
H196	H	1.462070	0.176340	0.728928
H197	H	0.990014	-0.246402	0.177473
H198	H	1.490014	0.253598	0.677473
H199	H	1.046600	-0.331832	0.175341
H200	H	1.546600	0.168168	0.675341
H201	H	0.416827	0.126002	-0.153357
H202	H	0.916827	0.626002	0.346643
C203	C	1.131522	-0.324321	-0.085058
C204	C	1.631522	0.175679	0.414942
H205	H	1.150572	-0.373327	-0.119568
H206	H	1.650572	0.126673	0.380432
H207	H	1.178506	-0.297494	-0.065492
H208	H	1.678506	0.202506	0.434508
H209	H	1.095937	-0.286802	-0.122650
H210	H	1.595937	0.213198	0.377350
C211	C	0.980406	-0.465562	0.176866
C212	C	1.480406	0.034438	0.676866
H213	H	1.025495	-0.507354	0.162205
H214	H	1.525495	-0.007354	0.662205
H215	H	0.938939	-0.490327	0.211131
H216	H	1.438939	0.009673	0.711131
H217	H	1.001030	-0.422554	0.212692
H218	H	1.501030	0.077446	0.712692
H219	H	0.402861	0.226146	-0.091737
H220	H	0.902861	0.726146	0.408263
C221	C	0.391847	0.251993	0.087823
C222	C	0.891847	0.751993	0.587823
H223	H	0.409915	0.280489	0.140505
H224	H	0.909915	0.780489	0.640505
H225	H	0.332531	0.251676	0.090081
H226	H	0.832531	0.751676	0.590081
H227	H	0.406628	0.280075	0.033380
H228	H	0.906628	0.780075	0.533380
H229	H	0.877728	-0.297925	0.093458
H230	H	1.377728	0.202075	0.593458
H231	H	0.887737	0.030328	0.579312
H232	H	1.387737	0.530328	1.079312
H233	H	0.577863	-0.012284	0.062973
H234	H	1.077863	0.487716	0.562973
H235	H	0.958974	0.254486	0.579433
H236	H	1.458974	0.754486	1.079433
C237	C	0.552449	0.252248	0.095329
C238	C	1.052449	0.752248	0.595329
H239	H	0.586608	0.264415	0.044457
H240	H	1.086608	0.764415	0.544457
H241	H	0.581795	0.259329	0.151341
H242	H	1.081795	0.759329	0.651341
H243	H	0.501727	0.289432	0.094590
H244	H	1.001727	0.789432	0.594590
H245	H	1.071011	0.218190	0.580807
H246	H	1.571011	0.718190	1.080807
H247	H	0.434222	-0.015036	0.063352
H248	H	0.934222	0.484964	0.563352
H249	H	0.577302	-0.012513	-0.062952
H250	H	1.077302	0.487487	0.437048
H251	H	0.545869	0.229439	-0.090951
H252	H	1.045869	0.729439	0.409049
H253	H	0.560144	0.129868	-0.152999
H254	H	1.060144	0.629868	0.347001
C255	C	1.043185	-0.041827	0.589103
C256	C	1.543185	0.458173	1.089103
H257	H	1.036907	-0.077942	0.538068
H258	H	1.536907	0.422058	1.038068
H259	H	0.993579	-0.037435	0.625700
H260	H	1.493579	0.462565	1.125700
H261	H	1.089868	-0.064302	0.625447
H262	H	1.589868	0.435698	1.125447
