data_functionalizedCrystal
_audit_creation_method	'MofGen! by Chris Wilmer'
_symmetry_space_group_name_H-M	'P1'
_symmetry_Int_Tables_number	1
_symmetry_cell_setting	triclinic
loop_
_symmetry_equiv_pos_as_xyz
  x,y,z
_cell_length_a	29.839131
_cell_length_b	13.897449
_cell_length_c	13.897441
_cell_angle_alpha	90.026069
_cell_angle_beta	89.964857
_cell_angle_gamma	89.958652
loop_
_atom_site_label
_atom_site_type_symbol
_atom_site_fract_x
_atom_site_fract_y
_atom_site_fract_z
Zn1	Zn	-0.178840	-1.474544	-0.545488
Zn2	Zn	0.154493	-1.141210	-0.212155
Zn3	Zn	0.487827	-0.807877	0.121179
Zn4	Zn	-0.253975	-1.474371	-0.384177
Zn5	Zn	0.079359	-1.141037	-0.050843
Zn6	Zn	0.412692	-0.807704	0.282490
Zn7	Zn	-0.178859	-1.313233	-0.384191
Zn8	Zn	0.154474	-0.979899	-0.050858
Zn9	Zn	0.487807	-0.646566	0.282475
Zn10	Zn	-0.253943	-1.313148	-0.545414
Zn11	Zn	0.079390	-0.979814	-0.212081
Zn12	Zn	0.412723	-0.646481	0.121253
O13	O	-0.216404	-1.393824	-0.464817
O14	O	0.116929	-1.060490	-0.131484
O15	O	0.450262	-0.727157	0.201849
O16	O	-0.188812	-1.609502	-0.524114
O17	O	0.144522	-1.276169	-0.190781
O18	O	0.477855	-0.942836	0.142552
O19	O	-0.244032	-1.452959	-0.249197
O20	O	0.089301	-1.119625	0.084137
O21	O	0.422635	-0.786292	0.417470
O22	O	-0.115990	-1.334739	-0.405625
O23	O	0.217344	-1.001406	-0.072291
O24	O	0.550677	-0.668072	0.261042
O25	O	-0.244013	-1.609375	-0.405600
O26	O	0.089321	-1.276042	-0.072266
O27	O	0.422654	-0.942709	0.261067
O28	O	-0.115975	-1.453253	-0.524129
O29	O	0.217358	-1.119920	-0.190795
O30	O	0.550691	-0.786587	0.142538
O31	O	-0.188845	-1.334571	-0.249208
O32	O	0.144488	-1.001238	0.084126
O33	O	0.477822	-0.667905	0.417459
O34	O	-0.188815	-1.178240	-0.405553
O35	O	0.144519	-0.844907	-0.072220
O36	O	0.477852	-0.511573	0.261114
O37	O	-0.243960	-1.334594	-0.680406
O38	O	0.089374	-1.001261	-0.347072
O39	O	0.422707	-0.667927	-0.013739
O40	O	-0.243979	-1.178177	-0.524003
O41	O	0.089355	-0.844844	-0.190670
O42	O	0.422688	-0.511511	0.142664
O43	O	-0.188781	-1.453171	-0.680460
O44	O	0.144552	-1.119838	-0.347127
O45	O	0.477885	-0.786504	-0.013793
O46	O	-0.316838	-1.452876	-0.405528
O47	O	0.016496	-1.119543	-0.072195
O48	O	0.349829	-0.786210	0.261139
O49	O	-0.316815	-1.334426	-0.523989
O50	O	0.016519	-1.001093	-0.190655
O51	O	0.349852	-0.667760	0.142678
C52	C	-0.216396	-1.143209	-0.464772
C53	C	0.116938	-0.809876	-0.131439
C54	C	0.450271	-0.476543	0.201894
C55	C	-0.216403	-1.035995	-0.464776
C56	C	0.116931	-0.702662	-0.131442
C57	C	0.450264	-0.369329	0.201891
C58	C	-0.216404	-0.948926	-0.464788
C59	C	0.116930	-0.615592	-0.131454
C60	C	0.450263	-0.282259	0.201879
C61	C	-0.216406	-0.839693	-0.464812
C62	C	0.116927	-0.506360	-0.131479
C63	C	0.450261	-0.173027	0.201855
C64	C	-0.333127	-1.393650	-0.464770
C65	C	0.000206	-1.060316	-0.131436
C66	C	0.333540	-0.726983	0.201897
C67	C	-0.383061	-1.393663	-0.464781
C68	C	-0.049728	-1.060330	-0.131448
C69	C	0.283605	-0.726997	0.201885
C70	C	-0.692704	-1.455613	-0.403225
C71	C	-0.359371	-1.122279	-0.069892
C72	C	-0.026037	-0.788946	0.263441
C73	C	-0.880377	-1.455732	-0.403263
C74	C	-0.547044	-1.122398	-0.069929
C75	C	-0.213710	-0.789065	0.263404
O76	O	-0.904641	-1.508265	-0.350889
O77	O	-0.571308	-1.174932	-0.017555
O78	O	-0.237975	-0.841599	0.315778
N79	N	-0.903846	-1.394024	-0.464890
N80	N	-0.570513	-1.060690	-0.131557
N81	N	-0.237180	-0.727357	0.201776
C82	C	-0.880395	-1.332286	-0.526517
C83	C	-0.547061	-0.998953	-0.193184
C84	C	-0.213728	-0.665619	0.140149
O85	O	-0.904663	-1.279809	-0.578943
O86	O	-0.571330	-0.946476	-0.245610
O87	O	-0.237996	-0.613143	0.087723
C88	C	-0.692722	-1.332172	-0.526484
C89	C	-0.359389	-0.998839	-0.193151
C90	C	-0.026056	-0.665506	0.140183
C91	C	-0.669256	-1.393878	-0.464846
C92	C	-0.335922	-1.060544	-0.131512
C93	C	-0.002589	-0.727211	0.201821
C94	C	-0.669237	-1.517314	-0.341592
C95	C	-0.335904	-1.183980	-0.008259
C96	C	-0.002570	-0.850647	0.325074
C97	C	-0.622322	-1.517280	-0.341580
C98	C	-0.288988	-1.183946	-0.008247
C99	C	0.044345	-0.850613	0.325087
C100	C	-0.598873	-1.455545	-0.403200
C101	C	-0.265540	-1.122211	-0.069867
C102	C	0.067793	-0.788878	0.263466
C103	C	-0.622340	-1.393844	-0.464833
C104	C	-0.289007	-1.060510	-0.131500
C105	C	0.044327	-0.727177	0.201834
C106	C	-0.669271	-1.270440	-0.588115
C107	C	-0.335938	-0.937107	-0.254782
C108	C	-0.002605	-0.603774	0.078551
C109	C	-0.622350	-1.270419	-0.588103
C110	C	-0.289017	-0.937086	-0.254770
C111	C	0.044316	-0.603752	0.078563
C112	C	-0.598884	-1.332124	-0.526465
C113	C	-0.265550	-0.998791	-0.193131
C114	C	0.067783	-0.665458	0.140202
C115	C	-0.551976	-1.332074	-0.526441
C116	C	-0.218643	-0.998741	-0.193108
C117	C	0.114691	-0.665408	0.140226
N118	N	-0.528507	-1.393783	-0.464813
N119	N	-0.195173	-1.060449	-0.131480
N120	N	0.138160	-0.727116	0.201853
C121	C	-0.551955	-1.455518	-0.403193
C122	C	-0.218622	-1.122184	-0.069860
C123	C	0.114711	-0.788851	0.263474
C124	C	-0.978925	-1.332349	-0.526529
C125	C	-0.645592	-0.999015	-0.193196
C126	C	-0.312259	-0.665682	0.140138
C127	C	-1.025843	-1.332376	-0.526536
C128	C	-0.692510	-0.999042	-0.193203
C129	C	-0.359176	-0.665709	0.140130
C130	C	-1.025822	-1.455823	-0.403283
C131	C	-0.692489	-1.122490	-0.069949
C132	C	-0.359156	-0.789156	0.263384
C133	C	-0.978904	-1.455790	-0.403271
C134	C	-0.645570	-1.122457	-0.069938
C135	C	-0.312237	-0.789124	0.263395
C136	C	-0.955456	-1.394057	-0.464902
C137	C	-0.622123	-1.060723	-0.131568
C138	C	-0.288789	-0.727390	0.201765
C139	C	-0.453430	-1.455441	-0.403171
C140	C	-0.120096	-1.122107	-0.069838
C141	C	0.213237	-0.788774	0.263496
C142	C	-0.406510	-1.455398	-0.403161
C143	C	-0.073177	-1.122065	-0.069828
C144	C	0.260157	-0.788732	0.263506
C145	C	-0.406535	-1.331955	-0.526418
C146	C	-0.073201	-0.998622	-0.193085
C147	C	0.260132	-0.665288	0.140249
C148	C	-0.453450	-1.331993	-0.526425
C149	C	-0.120117	-0.998660	-0.193091
C150	C	0.213216	-0.665327	0.140242
C151	C	-0.476896	-1.393744	-0.464798
C152	C	-0.143563	-1.060411	-0.131465
C153	C	0.189770	-0.727077	0.201869
O154	O	-0.527683	-1.279576	-0.578795
O155	O	-0.194350	-0.946243	-0.245462
O156	O	0.138984	-0.612909	0.087871
O157	O	-0.527679	-1.508002	-0.350790
O158	O	-0.194346	-1.174668	-0.017457
O159	O	0.138988	-0.841335	0.315877
C160	C	-0.739620	-1.455647	-0.403238
C161	C	-0.406286	-1.122314	-0.069904
C162	C	-0.072953	-0.788980	0.263429
C163	C	-0.763086	-1.393946	-0.464870
C164	C	-0.429753	-1.060613	-0.131537
C165	C	-0.096420	-0.727279	0.201796
C166	C	-0.739638	-1.332211	-0.526491
C167	C	-0.406305	-0.998878	-0.193157
C168	C	-0.072971	-0.665544	0.140176
C169	C	-0.810004	-1.393973	-0.464878
C170	C	-0.476671	-1.060640	-0.131544
C171	C	-0.143338	-0.727306	0.201789
C172	C	-0.833453	-1.455708	-0.403257
C173	C	-0.500119	-1.122375	-0.069924
C174	C	-0.166786	-0.789041	0.263409
C175	C	-0.809983	-1.517416	-0.341630
C176	C	-0.476650	-1.184083	-0.008297
C177	C	-0.143317	-0.850749	0.325037
C178	C	-0.763068	-1.517382	-0.341617
C179	C	-0.429735	-1.184049	-0.008284
C180	C	-0.096401	-0.850715	0.325049
C181	C	-0.763107	-1.270503	-0.588118
C182	C	-0.429774	-0.937169	-0.254785
C183	C	-0.096441	-0.603836	0.078548
C184	C	-0.810023	-1.270541	-0.588125
C185	C	-0.476689	-0.937208	-0.254792
C186	C	-0.143356	-0.603874	0.078542
C187	C	-0.833471	-1.332276	-0.526505
C188	C	-0.500138	-0.998943	-0.193171
C189	C	-0.166805	-0.665610	0.140162
C190	C	-0.099226	-1.394025	-0.464887
C191	C	0.234107	-1.060692	-0.131553
C192	C	0.567441	-0.727358	0.201780
C193	C	-0.049292	-1.394111	-0.464916
C194	C	0.284042	-1.060777	-0.131583
C195	C	0.617375	-0.727444	0.201751
C196	C	-0.216365	-1.393892	-0.716411
C197	C	0.116969	-1.060559	-0.383077
C198	C	0.450302	-0.727226	-0.049744
C199	C	-0.216348	-1.393921	-0.823625
C200	C	0.116986	-1.060588	-0.490291
C201	C	0.450319	-0.727255	-0.156958
C202	C	-0.216412	-0.645417	-0.464852
C203	C	0.116922	-0.312083	-0.131518
C204	C	0.450255	0.021250	0.201815
C205	C	-0.216410	-0.752631	-0.464837
C206	C	0.116923	-0.419297	-0.131503
C207	C	0.450257	-0.085964	0.201830
C208	C	-0.216317	-1.393948	-1.019920
C209	C	0.117016	-1.060614	-0.686587
C210	C	0.450349	-0.727281	-0.353253
C211	C	-0.216336	-1.393930	-0.910687
C212	C	0.116998	-1.060597	-0.577354
C213	C	0.450331	-0.727263	-0.244021
C214	C	-0.216412	-1.393811	-0.214203
C215	C	0.116922	-1.060478	0.119130
C216	C	0.450255	-0.727144	0.452464
C217	C	-0.216302	-1.393969	-0.106990
C218	C	0.117031	-1.060636	0.226344
C219	C	0.450365	-0.727302	0.559677
H220	H	-0.387405	-1.505646	-0.352964
H221	H	-0.054071	-1.172313	-0.019631
H222	H	0.279262	-0.838979	0.313702
H223	H	-0.603262	-1.220149	-0.638293
H224	H	-0.269928	-0.886816	-0.304960
H225	H	0.063405	-0.553482	0.028374
H226	H	-0.472514	-1.505726	-0.352991
H227	H	-0.139181	-1.172393	-0.019657
H228	H	0.194153	-0.839059	0.313676
Cl229	Cl	-0.839518	-1.192959	-0.665621
Cl230	Cl	-0.506185	-0.859626	-0.332287
Cl231	Cl	-0.172851	-0.526293	0.001046
H232	H	-0.688370	-1.220189	-0.638303
H233	H	-0.355037	-0.886855	-0.304970
H234	H	-0.021703	-0.553522	0.028363
H235	H	-0.472558	-1.281751	-0.576619
H236	H	-0.139225	-0.948418	-0.243285
H237	H	0.194109	-0.615084	0.090048
H238	H	-0.829083	-1.567680	-0.291454
H239	H	-0.495750	-1.234347	0.041880
H240	H	-0.162417	-0.901014	0.375213
Cl241	Cl	-0.592827	-1.594871	-0.264102
Cl242	Cl	-0.259494	-1.261538	0.069231
Cl243	Cl	0.073839	-0.928204	0.402565
Cl244	Cl	-0.733636	-1.192884	-0.665592
Cl245	Cl	-0.400303	-0.859551	-0.332259
Cl246	Cl	-0.066970	-0.526218	0.001075
Cl247	Cl	-0.698707	-1.594935	-0.264116
Cl248	Cl	-0.365374	-1.261601	0.069217
Cl249	Cl	-0.032040	-0.928268	0.402550
H250	H	-1.044946	-1.282120	-0.576720
H251	H	-0.711612	-0.948787	-0.243386
H252	H	-0.378279	-0.615453	0.089947
H253	H	-1.044922	-1.506090	-0.353109
H254	H	-0.711589	-1.172757	-0.019776
H255	H	-0.378255	-0.839424	0.313557
Cl256	Cl	-0.949407	-1.533367	-0.325782
Cl257	Cl	-0.616074	-1.200033	0.007552
Cl258	Cl	-0.282741	-0.866700	0.340885
H259	H	-0.387436	-1.281688	-0.576586
H260	H	-0.054102	-0.948355	-0.243252
H261	H	0.279231	-0.615021	0.090081
H262	H	-0.743965	-1.567628	-0.291426
H263	H	-0.410631	-1.234295	0.041908
H264	H	-0.077298	-0.900962	0.375241
H265	H	-0.959837	-1.282075	-0.576717
H266	H	-0.626504	-0.948742	-0.243384
H267	H	-0.293170	-0.615408	0.089950
