data_functionalizedCrystal
_audit_creation_method	'MofGen! by Chris Wilmer'
_symmetry_space_group_name_H-M	'P1'
_symmetry_Int_Tables_number	1
_symmetry_cell_setting	triclinic
loop_
_symmetry_equiv_pos_as_xyz
  x,y,z
_cell_length_a	10.723023
_cell_length_b	15.995292
_cell_length_c	9.798715
_cell_angle_alpha	90.000045
_cell_angle_beta	89.996770
_cell_angle_gamma	83.968082
loop_
_atom_site_label
_atom_site_type_symbol
_atom_site_fract_x
_atom_site_fract_y
_atom_site_fract_z
O1	O	1.655653	0.117435	-0.113466
O2	O	2.155653	0.617435	0.386534
O3	O	1.292354	0.128676	-0.113471
O4	O	1.792354	0.628676	0.386529
O5	O	1.483972	0.001222	-0.113471
O6	O	1.983972	0.501222	0.386529
O7	O	1.464035	0.244889	-0.113467
O8	O	1.964035	0.744889	0.386533
O9	O	1.483958	0.001221	0.113511
O10	O	1.983958	0.501221	0.613511
O11	O	1.292340	0.128676	0.113511
O12	O	1.792340	0.628676	0.613511
O13	O	1.655639	0.117434	0.113516
O14	O	2.155639	0.617434	0.613516
Zn15	Zn	1.473987	0.123055	0.149552
Zn16	Zn	1.973987	0.623055	0.649552
Zn17	Zn	1.474006	0.123055	-0.149507
Zn18	Zn	1.974006	0.623055	0.350493
O19	O	1.464020	0.244889	0.113515
O20	O	1.964020	0.744889	0.613515
C21	C	1.245858	0.127858	0.000019
C22	C	1.745858	0.627858	0.500019
C23	C	1.107335	0.125411	0.000017
C24	C	1.607335	0.625411	0.500017
C25	C	1.045570	0.124320	0.117599
C26	C	1.545570	0.624320	0.617599
C27	C	0.902400	0.121790	0.117600
C28	C	1.402400	0.621790	0.617600
C29	C	1.483154	-0.029979	0.000017
C30	C	1.983154	0.470021	0.500017
C31	C	1.480721	-0.122946	0.000007
C32	C	1.980721	0.377054	0.500007
C33	C	1.471778	-0.460735	0.000019
C34	C	1.971778	0.039265	0.500019
C35	C	1.610083	-0.436629	0.000528
C36	C	2.110083	0.063371	0.500528
C37	C	1.612711	-0.339938	0.000011
C38	C	2.112711	0.160062	0.500011
C39	C	1.476215	-0.293154	0.000014
C40	C	1.976215	0.206846	0.500014
C41	C	1.407077	-0.322652	-0.129601
C42	C	1.907077	0.177348	0.370399
C43	C	1.405412	-0.419452	-0.129705
C44	C	1.905412	0.080548	0.370295
C45	C	1.402572	-0.419326	0.128417
C46	C	1.902572	0.080674	0.628417
C47	C	1.407697	-0.322804	0.130125
C48	C	1.907697	0.177196	0.630125
C49	C	1.478716	-0.198444	0.000006
C50	C	1.978716	0.301556	0.500006
C51	C	1.469273	-0.555446	0.000017
C52	C	1.969273	-0.055446	0.500017
C53	C	1.702135	0.118252	0.000022
C54	C	2.202135	0.618252	0.500022
C55	C	1.840657	0.120700	0.000016
C56	C	2.340657	0.620700	0.500016
C57	C	1.464839	0.276089	0.000025
C58	C	1.964839	0.776089	0.500025
C59	C	1.467272	0.369056	0.000026
C60	C	1.967272	0.869056	0.500026
N61	N	1.473983	0.123054	0.353651
N62	N	1.973983	0.623054	0.853651
N63	N	1.474019	0.123050	-0.353607
N64	N	1.974019	0.623050	0.146393
C65	C	1.554442	0.069304	0.421428
C66	C	2.054442	0.569304	0.921428
C67	C	1.554462	0.069301	0.578591
C68	C	2.054462	0.569301	1.078591
H69	H	1.054222	0.124470	-0.100649
H70	H	1.554222	0.624470	0.399351
F71	F	1.679759	-0.472822	0.122025
F72	F	2.179759	0.027178	0.622025
F73	F	1.644239	0.009007	0.345200
F74	F	2.144239	0.509007	0.845200
F75	F	1.383983	0.183207	0.570222
F76	F	1.883983	0.683207	1.070222
H77	H	1.098685	0.125253	0.218266
H78	H	1.598685	0.625253	0.718266
H79	H	1.304006	-0.434585	-0.135576
H80	H	1.804006	0.065415	0.364424
F81	F	1.469847	-0.296075	-0.255684
F82	F	1.969847	0.203925	0.244316
F83	F	1.683915	-0.315469	-0.121646
F84	F	2.183915	0.184531	0.378354
F85	F	0.910071	0.121932	-0.131573
F86	F	1.410071	0.621932	0.368427
F87	F	1.269509	-0.438377	0.129563
F88	F	1.769509	0.061623	0.629563
H89	H	1.623350	0.023286	0.636876
H90	H	2.123350	0.523286	1.136876
H91	H	1.453306	-0.445993	-0.226596
H92	H	1.953306	0.054007	0.273404
H93	H	1.405110	0.169067	0.411976
H94	H	1.905110	0.669067	0.911976
H95	H	1.666859	-0.320602	0.092922
H96	H	2.166859	0.179398	0.592922
H97	H	0.849283	0.120857	0.218266
H98	H	1.349283	0.620857	0.718266
H99	H	1.308068	-0.290406	0.137954
H100	H	1.808068	0.209594	0.637954
F101	F	1.679386	-0.474157	-0.120283
F102	F	2.179386	0.025843	0.379717
H103	H	1.306635	-0.291361	-0.134418
H104	H	1.806635	0.208639	0.365582
H105	H	1.458040	-0.303949	0.226013
H106	H	1.958040	0.196051	0.726013
F107	F	1.459124	-0.455985	0.256826
F108	F	1.959124	0.044015	0.756826
