data_functionalizedCrystal
_audit_creation_method	'MofGen! by Chris Wilmer'
_symmetry_space_group_name_H-M	'P1'
_symmetry_Int_Tables_number	1
_symmetry_cell_setting	triclinic
loop_
_symmetry_equiv_pos_as_xyz
  x,y,z
_cell_length_a	6.817900
_cell_length_b	17.982783
_cell_length_c	11.168144
_cell_angle_alpha	94.260778
_cell_angle_beta	108.508840
_cell_angle_gamma	102.448572
loop_
_atom_site_label
_atom_site_type_symbol
_atom_site_fract_x
_atom_site_fract_y
_atom_site_fract_z
V1	V	-4.079235	-0.105423	-0.394223
O2	O	-4.070937	0.005055	-0.386180
O3	O	-4.025404	-0.209025	-0.392046
O4	O	-4.055996	-0.103806	-0.565921
O5	O	-4.040133	-0.100892	-0.211101
V6	V	-4.560307	-0.092208	-0.372257
O7	O	-4.345872	-0.134411	-0.442407
O8	O	-4.743868	-0.063220	-0.324073
O9	O	-4.390931	0.011394	-0.374435
O10	O	-4.686002	-0.202685	-0.380301
O11	O	-4.716805	-0.096738	-0.555380
O12	O	-4.360339	-0.093825	-0.200560
C13	C	-3.868270	-0.234281	-0.385961
C14	C	-3.905711	-0.318977	-0.385325
C15	C	-3.866681	-0.347884	-0.269338
C16	C	-3.901882	-0.427465	-0.268745
C17	C	-3.976098	-0.478139	-0.384139
C18	C	-4.015136	-0.449227	-0.500135
C19	C	-3.979950	-0.369647	-0.500727
C20	C	-4.157042	-0.770165	-0.497749
C21	C	-4.192220	-0.849750	-0.497148
C22	C	-4.078974	-0.827983	-0.265767
C23	C	-4.043788	-0.748403	-0.266359
C24	C	-4.082839	-0.719499	-0.382355
C25	C	-4.044674	-0.633207	-0.382996
C26	C	-4.014249	-0.564429	-0.383498
C27	C	-3.907292	-0.100063	-0.607754
C28	C	-3.969539	-0.099426	-0.748121
C29	C	-4.034829	-0.165449	-0.828170
C30	C	-4.099166	-0.164793	-0.973247
C31	C	-4.211407	0.036646	-0.380517
C32	C	-4.153205	0.121342	-0.381161
C33	C	-4.172385	-0.097570	-0.158720
C34	C	-4.089376	-0.098203	-0.018351
H35	H	-3.983347	-0.707148	-0.172393
H36	H	-4.155157	-0.221316	-1.042020
H37	H	-4.033358	-0.041676	-0.949585
O38	O	-3.958537	-0.023899	-0.799579
H39	H	-4.120043	-0.023167	-0.863638
H40	H	-4.075580	-0.490492	-0.594092
H41	H	-3.806232	-0.306629	-0.175370
H42	H	-4.043108	-0.222459	-0.789299
H43	H	-3.870103	-0.450997	-0.174298
H44	H	-4.047188	-0.851527	-0.171318
H45	H	-4.188816	-0.746641	-0.592199
O46	O	-4.272304	-0.904411	-0.621615
H47	H	-4.293575	-0.870944	-0.702375
H48	H	-4.011755	-0.346114	-0.595176
