data_functionalizedCrystal
_audit_creation_method	'MofGen! by Chris Wilmer'
_symmetry_space_group_name_H-M	'P1'
_symmetry_Int_Tables_number	1
_symmetry_cell_setting	triclinic
loop_
_symmetry_equiv_pos_as_xyz
  x,y,z
_cell_length_a	16.992694
_cell_length_b	14.519709
_cell_length_c	16.053802
_cell_angle_alpha	92.569364
_cell_angle_beta	87.249047
_cell_angle_gamma	87.174184
loop_
_atom_site_label
_atom_site_type_symbol
_atom_site_fract_x
_atom_site_fract_y
_atom_site_fract_z
O1	O	1.043963	0.191936	-0.069327
O2	O	0.815676	0.189789	-0.069352
O3	O	0.935872	0.057059	-0.069332
O4	O	0.923768	0.324666	-0.069348
O5	O	0.929256	0.064333	0.069526
O6	O	0.809060	0.197063	0.069506
O7	O	1.037348	0.199210	0.069530
Zn8	Zn	0.922154	0.199291	0.091565
Zn9	Zn	0.930870	0.189708	-0.091386
O10	O	0.917152	0.331940	0.069510
C11	C	0.783152	0.190666	0.000074
C12	C	0.696097	0.182430	0.000065
C13	C	0.645968	0.261890	0.000061
C14	C	0.564170	0.254147	0.000073
C15	C	0.532503	0.166943	0.000083
C16	C	0.582638	0.087478	0.000089
C17	C	0.664434	0.095222	0.000083
C18	C	0.288859	0.134847	0.000107
C19	C	0.207056	0.127109	0.000111
C20	C	0.188594	0.293779	0.000095
C21	C	0.270393	0.301515	0.000084
C22	C	0.320520	0.222050	0.000095
N23	N	0.448892	0.159027	0.000092
N24	N	0.404129	0.229968	0.000092
C25	C	0.932000	0.026296	0.000097
C26	C	0.930309	-0.076207	0.000098
C27	C	0.924087	-0.451551	0.000075
C28	C	0.925815	-0.347118	0.000082
C29	C	0.927198	-0.263882	0.000087
C30	C	0.928926	-0.159443	0.000092
C31	C	1.069872	0.198333	0.000103
C32	C	1.156927	0.206569	0.000106
C33	C	0.921024	0.362703	0.000079
C34	C	0.922715	0.465206	0.000073
N35	N	0.916210	0.205832	0.216424
N36	N	0.936820	0.183161	-0.216246
C37	C	0.967373	0.149377	0.260127
C38	C	0.963222	0.153962	0.347533
C39	C	0.907913	0.215006	0.391235
C40	C	0.856746	0.271462	0.347526
C41	C	0.860893	0.266872	0.260121
C42	C	0.889799	0.235027	0.652641
C43	C	0.885658	0.239615	0.740052
C44	C	0.992134	0.122113	0.740053
C45	C	0.996279	0.117533	0.652646
C46	C	0.945109	0.173985	0.608945
N47	N	0.903672	0.219695	0.480578
N48	N	0.949347	0.169291	0.519604
H49	H	0.523358	0.318852	0.000068
C50	C	0.719579	0.007814	0.000085
C51	C	0.781778	-0.013561	-0.072020
C52	C	0.836922	-0.100971	-0.072014
C53	C	0.829866	-0.167007	0.000097
C54	C	0.767663	-0.145633	0.072207
C55	C	0.712520	-0.058223	0.072201
H56	H	0.787004	0.035324	-0.125405
H57	H	0.882968	-0.116793	-0.125395
H58	H	0.870686	-0.231713	0.000102
H59	H	0.762438	-0.194518	0.125593
H60	H	0.666474	-0.042401	0.125582
C61	C	0.305233	0.397437	0.000095
C62	C	0.362360	0.421910	-0.072004
C63	C	0.397205	0.517831	-0.071988
C64	C	0.374922	0.589278	0.000126
C65	C	0.317791	0.564807	0.072231
C66	C	0.282947	0.468886	0.072215
H67	H	0.378858	0.369019	-0.125393
H68	H	0.439497	0.535946	-0.125365
H69	H	0.400716	0.660284	0.000138
H70	H	0.301293	0.617698	0.125620
H71	H	0.240655	0.450772	0.125592
C72	C	1.057115	0.050381	0.604572
C73	C	1.029226	-0.025584	0.544496
C74	C	1.090064	-0.092732	0.496418
C75	C	1.178792	-0.083915	0.508416
C76	C	1.206685	-0.007946	0.568494
C77	C	1.145847	0.059202	0.616572
H78	H	0.963541	-0.032114	0.535612
H79	H	1.069415	-0.148969	0.451944
H80	H	1.223828	-0.133622	0.472826
H81	H	1.272370	-0.001416	0.577378
H82	H	1.166496	0.115439	0.661046
C83	C	0.795904	0.338612	0.395593
C84	C	0.791375	0.343715	0.491735
C85	C	0.730534	0.410870	0.539799
C86	C	0.674220	0.472922	0.491722
C87	C	0.678747	0.467822	0.395575
C88	C	0.739588	0.400667	0.347511
H89	H	0.833063	0.297778	0.527329
H90	H	0.727183	0.414645	0.610974
H91	H	0.629181	0.522634	0.527302
H92	H	0.637058	0.513758	0.359981
H93	H	0.742939	0.396891	0.276336
H94	H	1.033794	0.076151	0.775642
C95	C	0.133453	0.381188	0.000091
C96	C	0.133662	0.454779	0.072191
C97	C	0.078522	0.542192	0.072190
C98	C	0.023173	0.556015	0.000090
C99	C	0.022962	0.482422	-0.072016
C100	C	0.078102	0.395008	-0.072015
H101	H	0.174637	0.444549	0.125569
H102	H	0.078679	0.596671	0.125568
H103	H	-0.017645	0.620724	0.000089
H104	H	-0.018013	0.492652	-0.125394
H105	H	0.077945	0.340529	-0.125393
C106	C	1.028215	0.082227	0.212059
C107	C	1.084488	0.020125	0.260136
C108	C	1.145330	-0.047030	0.212072
C109	C	1.149898	-0.052083	0.115930
C110	C	1.093623	0.010021	0.067848
C111	C	1.032781	0.077176	0.115912
H112	H	1.081108	0.023863	0.331311
H113	H	1.186988	-0.093003	0.247666
H114	H	1.194937	-0.101795	0.080350
H115	H	1.097003	0.006283	-0.003327
H116	H	0.991122	0.123150	0.080318
C117	C	0.824810	0.306765	0.788122
C118	C	0.768525	0.368858	0.740050
C119	C	0.707681	0.436007	0.788118
C120	C	0.703123	0.441063	0.884260
C121	C	0.759409	0.378969	0.932338
C122	C	0.820253	0.311820	0.884269
H123	H	0.771898	0.365117	0.668875
H124	H	0.666014	0.481974	0.752527
H125	H	0.658083	0.490771	0.919843
H126	H	0.756036	0.382710	1.003512
H127	H	0.861920	0.265853	0.919860
H128	H	0.181277	0.056094	0.000118
H129	H	0.329663	0.070141	0.000117
H130	H	0.671745	0.332900	0.000052
C131	C	0.547807	-0.008449	0.000099
C132	C	0.457835	-0.016972	0.000100
C133	C	0.423006	-0.112901	0.000106
C134	C	0.478150	-0.200306	0.000112
C135	C	0.568127	-0.191785	0.000112
C136	C	0.602955	-0.095856	0.000105
H137	H	0.417010	0.047733	0.000096
H138	H	0.356399	-0.119208	0.000106
H139	H	0.452367	-0.271318	0.000117
H140	H	0.608952	-0.256490	0.000116
H141	H	0.669562	-0.089549	0.000105
H142	H	1.004882	0.107992	0.383115
H143	H	0.848135	0.280995	0.617067
H144	H	0.819230	0.312842	0.224539
