data_functionalizedCrystal
_audit_creation_method	'MofGen! by Chris Wilmer'
_symmetry_space_group_name_H-M	'P1'
_symmetry_Int_Tables_number	1
_symmetry_cell_setting	triclinic
loop_
_symmetry_equiv_pos_as_xyz
  x,y,z
_cell_length_a	18.050591
_cell_length_b	18.050589
_cell_length_c	18.101389
_cell_angle_alpha	90.019529
_cell_angle_beta	90.023851
_cell_angle_gamma	90.016982
loop_
_atom_site_label
_atom_site_type_symbol
_atom_site_fract_x
_atom_site_fract_y
_atom_site_fract_z
Zn1	Zn	1.135362	-0.295808	0.418824
Zn2	Zn	1.385362	-0.045808	0.668824
Zn3	Zn	1.635362	0.204192	0.918824
Zn4	Zn	1.885362	0.454192	1.168824
Zn5	Zn	1.135281	-0.419982	0.294980
Zn6	Zn	1.385281	-0.169982	0.544980
Zn7	Zn	1.635281	0.080018	0.794980
Zn8	Zn	1.885281	0.330018	1.044980
Zn9	Zn	1.011173	-0.295803	0.294986
Zn10	Zn	1.261173	-0.045803	0.544986
Zn11	Zn	1.511173	0.204197	0.794986
Zn12	Zn	1.761173	0.454197	1.044986
Zn13	Zn	1.011146	-0.419953	0.418769
Zn14	Zn	1.261146	-0.169953	0.668769
Zn15	Zn	1.511146	0.080047	0.918769
Zn16	Zn	1.761146	0.330047	1.168769
O17	O	1.073240	-0.357886	0.356890
O18	O	1.323240	-0.107886	0.606890
O19	O	1.573240	0.142114	0.856890
O20	O	1.823240	0.392114	1.106890
O21	O	1.239276	-0.312294	0.402416
O22	O	1.489276	-0.062294	0.652416
O23	O	1.739276	0.187706	0.902416
O24	O	1.989276	0.437706	1.152416
O25	O	1.118794	-0.403519	0.191348
O26	O	1.368794	-0.153519	0.441348
O27	O	1.618794	0.096481	0.691348
O28	O	1.868794	0.346481	0.941348
O29	O	1.027692	-0.191879	0.311438
O30	O	1.277692	0.058121	0.561438
O31	O	1.527692	0.308121	0.811438
O32	O	1.777692	0.558121	1.061438
O33	O	1.239216	-0.403524	0.311428
O34	O	1.489216	-0.153524	0.561428
O35	O	1.739216	0.096476	0.811428
O36	O	1.989216	0.346476	1.061428
O37	O	1.118933	-0.191882	0.402422
O38	O	1.368933	0.058118	0.652422
O39	O	1.618933	0.308118	0.902422
O40	O	1.868933	0.558118	1.152422
O41	O	1.027613	-0.312285	0.191352
O42	O	1.277613	-0.062285	0.441352
O43	O	1.527613	0.187715	0.691352
O44	O	1.777613	0.437715	0.941352
O45	O	0.907244	-0.312257	0.311386
O46	O	1.157244	-0.062257	0.561386
O47	O	1.407244	0.187743	0.811386
O48	O	1.657244	0.437743	1.061386
O49	O	1.027647	-0.403474	0.522409
O50	O	1.277647	-0.153474	0.772409
O51	O	1.527647	0.096526	1.022409
O52	O	1.777647	0.346526	1.272409
O53	O	0.907225	-0.403469	0.402329
O54	O	1.157225	-0.153469	0.652329
O55	O	1.407225	0.096531	0.902329
O56	O	1.657225	0.346531	1.152329
O57	O	1.118908	-0.312266	0.522449
O58	O	1.368908	-0.062266	0.772449
O59	O	1.618908	0.187734	1.022449
O60	O	1.868908	0.437734	1.272449
O61	O	1.118769	-0.523903	0.311375
O62	O	1.368769	-0.273903	0.561375
O63	O	1.618769	-0.023903	0.811375
O64	O	1.868769	0.226097	1.061375
O65	O	1.027568	-0.523881	0.402323
O66	O	1.277568	-0.273881	0.652323
O67	O	1.527568	-0.023881	0.902323
O68	O	1.777568	0.226119	1.152323
C69	C	0.880288	-0.357860	0.356853
C70	C	1.130288	-0.107860	0.606853
C71	C	1.380288	0.142140	0.856853
C72	C	1.630288	0.392140	1.106853
C73	C	0.797742	-0.357867	0.356854
C74	C	1.047742	-0.107867	0.606854
C75	C	1.297742	0.142133	0.856854
C76	C	1.547742	0.392133	1.106854
C77	C	0.548906	-0.308214	0.307516
C78	C	0.798906	-0.058214	0.557516
C79	C	1.048906	0.191786	0.807516
C80	C	1.298906	0.441786	1.057516
C81	C	0.598340	-0.290138	0.375103
C82	C	0.848340	-0.040138	0.625103
C83	C	1.098340	0.209862	0.875103
C84	C	1.348340	0.459862	1.125103
C85	C	0.500622	-0.357905	0.356915
C86	C	0.750622	-0.107905	0.606915
C87	C	1.000622	0.142095	0.856915
C88	C	1.250622	0.392095	1.106915
C89	C	0.598269	-0.375927	0.289303
C90	C	0.848269	-0.125927	0.539303
C91	C	1.098269	0.124073	0.789303
C92	C	1.348269	0.374073	1.039303
C93	C	0.646607	-0.357884	0.356882
C94	C	0.896607	-0.107884	0.606882
C95	C	1.146607	0.142116	0.856882
C96	C	1.396607	0.392116	1.106882
C97	C	0.548969	-0.339794	0.424537
C98	C	0.798969	-0.089794	0.674537
C99	C	1.048969	0.160206	0.924537
C100	C	1.298969	0.410206	1.174537
C101	C	0.548894	-0.425614	0.338692
C102	C	0.798894	-0.175614	0.588692
C103	C	1.048894	0.074386	0.838692
C104	C	1.298894	0.324386	1.088692
C105	C	0.598306	-0.407564	0.406324
C106	C	0.848306	-0.157564	0.656324
C107	C	1.098306	0.092436	0.906324
C108	C	1.348306	0.342436	1.156324
C109	C	0.416524	-0.357915	0.356933
C110	C	0.666524	-0.107915	0.606933
C111	C	0.916524	0.142085	0.856933
C112	C	1.166524	0.392085	1.106933
C113	C	0.730704	-0.357874	0.356871
C114	C	0.980704	-0.107874	0.606871
C115	C	1.230704	0.142126	0.856871
C116	C	1.480704	0.392126	1.106871
C117	C	1.073177	-0.550838	0.356859
C118	C	1.323177	-0.300838	0.606859
C119	C	1.573177	-0.050838	0.856859
C120	C	1.823177	0.199162	1.106859
C121	C	1.073217	-0.633384	0.356870
C122	C	1.323217	-0.383384	0.606870
C123	C	1.573217	-0.133384	0.856870
C124	C	1.823217	0.116616	1.106870
C125	C	1.122942	-0.882194	0.307495
C126	C	1.372942	-0.632194	0.557495
C127	C	1.622942	-0.382194	0.807495
C128	C	1.872942	-0.132194	1.057495
C129	C	1.055183	-0.832856	0.289300
C130	C	1.305183	-0.582856	0.539300
C131	C	1.555183	-0.332856	0.789300
C132	C	1.805183	-0.082856	1.039300
C133	C	1.073311	-0.930504	0.356927
C134	C	1.323311	-0.680504	0.606927
C135	C	1.573311	-0.430504	0.856927
C136	C	1.823311	-0.180504	1.106927
C137	C	1.141019	-0.832761	0.375059
C138	C	1.391019	-0.582761	0.625059
C139	C	1.641019	-0.332761	0.875059
C140	C	1.891019	-0.082761	1.125059
C141	C	1.073268	-0.784519	0.356898
C142	C	1.323268	-0.534519	0.606898
C143	C	1.573268	-0.284519	0.856898
C144	C	1.823268	-0.034519	1.106898
C145	C	1.005516	-0.882254	0.338697
C146	C	1.255516	-0.632254	0.588697
C147	C	1.505516	-0.382254	0.838697
C148	C	1.755516	-0.132254	1.088697
C149	C	1.091398	-0.882163	0.424488
C150	C	1.341398	-0.632163	0.674488
C151	C	1.591398	-0.382163	0.924488
C152	C	1.841398	-0.132163	1.174488
C153	C	1.023593	-0.832847	0.406319
C154	C	1.273593	-0.582847	0.656319
C155	C	1.523593	-0.332847	0.906319
C156	C	1.773593	-0.082847	1.156319
C157	C	1.073336	-1.014603	0.356943
C158	C	1.323336	-0.764603	0.606943
C159	C	1.573336	-0.514603	0.856943
C160	C	1.823336	-0.264603	1.106943
C161	C	1.073235	-0.700423	0.356882
C162	C	1.323235	-0.450423	0.606882
C163	C	1.573235	-0.200423	0.856882
C164	C	1.823235	0.049577	1.106882
C165	C	1.266946	-0.357913	0.356927
C166	C	1.516946	-0.107913	0.606927
C167	C	1.766946	0.142087	0.856927
C168	C	2.016946	0.392087	1.106927
C169	C	1.349492	-0.357924	0.356943
C170	C	1.599492	-0.107924	0.606943
C171	C	1.849492	0.142076	0.856943
C172	C	2.099492	0.392076	1.106943
C173	C	1.073283	-0.357867	0.550052
C174	C	1.323283	-0.107867	0.800052
C175	C	1.573283	0.142133	1.050052
C176	C	1.823283	0.392133	1.300052
C177	C	1.073302	-0.357859	0.632366
C178	C	1.323302	-0.107859	0.882366
C179	C	1.573302	0.142141	1.132366
C180	C	1.823302	0.392141	1.382366
C181	C	1.073325	-0.164181	0.356937
C182	C	1.323325	0.085819	0.606937
C183	C	1.573325	0.335819	0.856937
C184	C	1.823325	0.585819	1.106937
C185	C	1.073360	-0.081635	0.356957
C186	C	1.323360	0.168365	0.606957
C187	C	1.573360	0.418365	0.856957
C188	C	1.823360	0.668365	1.106957
C189	C	1.073240	-0.357851	0.164479
C190	C	1.323240	-0.107851	0.414479
C191	C	1.573240	0.142149	0.664479
C192	C	1.823240	0.392149	0.914479
C193	C	1.073366	-0.357650	0.082165
C194	C	1.323366	-0.107650	0.332165
C195	C	1.573366	0.142350	0.582165
C196	C	1.823366	0.392350	0.832165
C197	C	1.073345	-0.357720	0.931457
C198	C	1.323345	-0.107720	1.181457
C199	C	1.573345	0.142280	1.431457
C200	C	1.823345	0.392280	1.681457
C201	C	1.015728	-0.414924	0.900107
C202	C	1.265728	-0.164924	1.150107
C203	C	1.515728	0.085076	1.400107
C204	C	1.765728	0.335076	1.650107
C205	C	1.015884	-0.415189	0.814488
C206	C	1.265884	-0.165189	1.064488
C207	C	1.515884	0.084811	1.314488
C208	C	1.765884	0.334811	1.564488
C209	C	1.073323	-0.357789	0.783074
C210	C	1.323323	-0.107789	1.033074
C211	C	1.573323	0.142211	1.283074
C212	C	1.823323	0.392211	1.533074
C213	C	1.151572	-0.379038	0.814179
C214	C	1.401572	-0.129038	1.064179
C215	C	1.651572	0.120962	1.314179
C216	C	1.901572	0.370962	1.564179
C217	C	1.151251	-0.379413	0.899824
C218	C	1.401251	-0.129413	1.149824
C219	C	1.651251	0.120587	1.399824
C220	C	1.901251	0.370587	1.649824
C221	C	1.053393	-0.279141	0.899883
C222	C	1.303393	-0.029141	1.149883
C223	C	1.553393	0.220859	1.399883
C224	C	1.803393	0.470859	1.649883
C225	C	1.051652	-0.279595	0.814232
C226	C	1.301652	-0.029595	1.064232
C227	C	1.551652	0.220405	1.314232
C228	C	1.801652	0.470405	1.564232
C229	C	1.073315	-0.357827	0.699215
C230	C	1.323315	-0.107827	0.949215
C231	C	1.573315	0.142173	1.199215
C232	C	1.823315	0.392173	1.449215
C233	C	1.073358	-0.357684	1.015316
C234	C	1.323358	-0.107684	1.265316
C235	C	1.573358	0.142316	1.515316
C236	C	1.823358	0.392316	1.765316
H237	H	0.527403	-0.324475	0.481718
H238	H	0.777403	-0.074475	0.731718
H239	H	1.027403	0.175525	0.981718
H240	H	1.277403	0.425525	1.231718
O241	O	0.627114	-0.214280	0.395507
O242	O	0.877114	0.035720	0.645507
O243	O	1.127114	0.285720	0.895507
O244	O	1.377114	0.535720	1.145507
H245	H	0.660962	-0.218332	0.446552
H246	H	0.910962	0.031668	0.696552
H247	H	1.160962	0.281668	0.946552
H248	H	1.410962	0.531668	1.196552
O249	O	0.938633	-0.397492	0.927368
O250	O	1.188633	-0.147492	1.177368
O251	O	1.438633	0.102508	1.427368
O252	O	1.688633	0.352508	1.677368
H253	H	0.901898	-0.386414	0.879442
H254	H	1.151898	-0.136414	1.129442
H255	H	1.401898	0.113586	1.379442
H256	H	1.651898	0.363586	1.629442
O257	O	1.034884	-0.804159	0.213605
O258	O	1.284884	-0.554159	0.463605
O259	O	1.534884	-0.304159	0.713605
O260	O	1.784884	-0.054159	0.963605
H261	H	1.034530	-0.742675	0.214430
H262	H	1.284530	-0.492675	0.464430
H263	H	1.534530	-0.242675	0.714430
H264	H	1.784530	0.007325	0.964430
O265	O	0.626857	-0.463217	0.461702
O266	O	0.876857	-0.213217	0.711702
O267	O	1.126857	0.036783	0.961702
O268	O	1.376857	0.286783	1.211702
H269	H	0.660670	-0.505571	0.432746
H270	H	0.910670	-0.255571	0.682746
H271	H	1.160670	-0.005571	0.932746
H272	H	1.410670	0.244429	1.182746
H273	H	0.527159	-0.482867	0.323268
H274	H	0.777159	-0.232867	0.573268
H275	H	1.027159	0.017133	0.823268
H276	H	1.277159	0.267133	1.073268
H277	H	0.619927	-0.391179	0.232138
H278	H	0.869927	-0.141179	0.482138
H279	H	1.119927	0.108821	0.732138
H280	H	1.369927	0.358821	0.982138
O281	O	1.173639	-0.455505	0.926298
O282	O	1.423639	-0.205505	1.176298
O283	O	1.673639	0.044495	1.426298
O284	O	1.923639	0.294495	1.676298
H285	H	1.230007	-0.468631	0.905614
H286	H	1.480007	-0.218631	1.155614
H287	H	1.730007	0.031369	1.405614
H288	H	1.980007	0.281369	1.655614
O289	O	1.210023	-0.326585	0.927269
O290	O	1.460023	-0.076585	1.177269
O291	O	1.710023	0.173415	1.427269
O292	O	1.960023	0.423415	1.677269
H293	H	1.183735	-0.282708	0.961298
H294	H	1.433735	-0.032708	1.211298
H295	H	1.683735	0.217292	1.461298
H296	H	1.933735	0.467292	1.711298
O297	O	1.033335	-0.492360	0.787403
O298	O	1.283335	-0.242360	1.037403
O299	O	1.533335	0.007640	1.287403
O300	O	1.783335	0.257640	1.537403
H301	H	1.084539	-0.490986	0.753500
H302	H	1.334539	-0.240986	1.003500
H303	H	1.584539	0.009014	1.253500
H304	H	1.834539	0.259014	1.503500
H305	H	1.195654	-0.338683	0.793833
H306	H	1.445654	-0.088683	1.043833
H307	H	1.695654	0.161317	1.293833
H308	H	1.945654	0.411317	1.543833
H309	H	0.981555	-0.811316	0.448110
H310	H	1.231555	-0.561316	0.698110
H311	H	1.481555	-0.311316	0.948110
H312	H	1.731555	-0.061316	1.198110
H313	H	1.168776	-0.435870	0.792735
H314	H	1.418776	-0.185870	1.042735
H315	H	1.668776	0.064130	1.292735
H316	H	1.918776	0.314130	1.542735
H317	H	0.997325	-0.259783	0.921470
H318	H	1.247325	-0.009783	1.171470
H319	H	1.497325	0.240217	1.421470
H320	H	1.747325	0.490217	1.671470
H321	H	1.198297	-0.811021	0.390407
H322	H	1.448297	-0.561021	0.640407
H323	H	1.698297	-0.311021	0.890407
H324	H	1.948297	-0.061021	1.140407
H325	H	0.957859	-0.401892	0.793456
H326	H	1.207859	-0.151892	1.043456
H327	H	1.457859	0.098108	1.293456
H328	H	1.707859	0.348108	1.543456
O329	O	0.975383	-0.258353	0.787292
O330	O	1.225383	-0.008353	1.037292
O331	O	1.475383	0.241647	1.287292
O332	O	1.725383	0.491647	1.537292
H333	H	0.952997	-0.303292	0.751856
H334	H	1.202997	-0.053292	1.001856
H335	H	1.452997	0.196708	1.251856
H336	H	1.702997	0.446708	1.501856
H337	H	1.028771	-0.472814	0.921631
H338	H	1.278771	-0.222814	1.171631
H339	H	1.528771	0.027186	1.421631
H340	H	1.778771	0.277186	1.671631
O341	O	1.103183	-0.220136	0.785920
O342	O	1.353183	0.029864	1.035920
O343	O	1.603183	0.279864	1.285920
O344	O	1.853183	0.529864	1.535920
H345	H	1.145236	-0.245503	0.749038
H346	H	1.395236	0.004497	0.999038
H347	H	1.645236	0.254497	1.249038
H348	H	1.895236	0.504497	1.499038
H349	H	1.095358	-0.236521	0.920159
H350	H	1.345358	0.013479	1.170159
H351	H	1.595358	0.263479	1.420159
H352	H	1.845358	0.513479	1.670159
O353	O	0.929624	-0.910917	0.318266
O354	O	1.179624	-0.660917	0.568266
O355	O	1.429624	-0.410917	0.818266
O356	O	1.679624	-0.160917	1.068266
H357	H	0.930246	-0.972404	0.318407
H358	H	1.180246	-0.722404	0.568407
H359	H	1.430246	-0.472404	0.818407
H360	H	1.680246	-0.222404	1.068407
H361	H	0.527217	-0.266169	0.265807
H362	H	0.777217	-0.016169	0.515807
H363	H	1.027217	0.233831	0.765807
H364	H	1.277217	0.483831	1.015807
H365	H	1.164879	-0.903862	0.265672
H366	H	1.414879	-0.653862	0.515672
H367	H	1.664879	-0.403862	0.765672
H368	H	1.914879	-0.153862	1.015672
H369	H	1.106740	-0.903838	0.481620
H370	H	1.356740	-0.653838	0.731620
H371	H	1.606740	-0.403838	0.981620
H372	H	1.856740	-0.153838	1.231620
