data_functionalizedCrystal
_audit_creation_method	'MofGen! by Chris Wilmer'
_symmetry_space_group_name_H-M	'P1'
_symmetry_Int_Tables_number	1
_symmetry_cell_setting	triclinic
loop_
_symmetry_equiv_pos_as_xyz
  x,y,z
_cell_length_a	19.288859
_cell_length_b	15.944551
_cell_length_c	18.366186
_cell_angle_alpha	89.992809
_cell_angle_beta	89.990083
_cell_angle_gamma	83.316232
loop_
_atom_site_label
_atom_site_type_symbol
_atom_site_fract_x
_atom_site_fract_y
_atom_site_fract_z
O1	O	0.921631	0.104759	-0.060566
O2	O	1.421631	0.604759	0.439434
O3	O	0.719407	0.118899	-0.060564
O4	O	1.219407	0.618899	0.439436
O5	O	0.826042	-0.010467	-0.060558
O6	O	1.326042	0.489533	0.439442
O7	O	0.814997	0.234125	-0.060571
O8	O	1.314997	0.734125	0.439429
O9	O	0.826023	-0.010473	0.060541
O10	O	1.326023	0.489527	0.560541
O11	O	0.719389	0.118893	0.060535
O12	O	1.219389	0.618893	0.560535
O13	O	0.921613	0.104753	0.060534
O14	O	1.421613	0.604753	0.560534
Zn15	Zn	0.820498	0.111822	0.079762
Zn16	Zn	1.320498	0.611822	0.579762
Zn17	Zn	0.820522	0.111830	-0.079792
Zn18	Zn	1.320522	0.611830	0.420208
O19	O	0.814979	0.234119	0.060528
O20	O	1.314979	0.734119	0.560528
C21	C	0.693521	0.118442	-0.000014
C22	C	1.193521	0.618442	0.499986
C23	C	0.616413	0.117079	-0.000013
C24	C	1.116413	0.617079	0.499987
C25	C	0.052548	0.183763	-0.000018
C26	C	0.552548	0.683763	0.499982
C27	C	0.124998	0.185051	-0.000022
C28	C	0.624998	0.685051	0.499978
C29	C	0.169505	0.109145	-0.000016
C30	C	0.669505	0.609145	0.499984
C31	C	0.141556	0.031945	-0.000026
C32	C	0.641556	0.531945	0.499974
C33	C	0.069108	0.030659	-0.000029
C34	C	0.569108	0.530659	0.499971
C35	C	0.290620	0.052532	0.042416
C36	C	0.790620	0.552532	0.542416
C37	C	0.363067	0.053821	0.042424
C38	C	0.863067	0.553821	0.542424
C39	C	0.392961	0.113109	-0.000009
C40	C	0.892961	0.613109	0.499991
C41	C	0.350398	0.171121	-0.042441
C42	C	0.850398	0.671121	0.457559
C43	C	0.277949	0.169834	-0.042444
C44	C	0.777949	0.669834	0.457556
C45	C	0.248064	0.110531	-0.000013
C46	C	0.748064	0.610531	0.499987
C47	C	0.499460	0.191701	-0.000009
C48	C	0.999460	0.691701	0.499991
C49	C	0.571911	0.192986	-0.000018
C50	C	1.071911	0.692986	0.499982
C51	C	0.588469	0.039877	-0.000014
C52	C	1.088469	0.539877	0.499986
C53	C	0.516018	0.038594	-0.000013
C54	C	1.016018	0.538594	0.499987
C55	C	0.471518	0.114509	-0.000007
C56	C	0.971518	0.614509	0.499993
C57	C	0.825574	-0.041762	-0.000008
C58	C	1.325574	0.458238	0.499992
C59	C	0.824199	-0.135003	-0.000008
C60	C	1.324199	0.364997	0.499992
C61	C	0.754817	-0.349591	-0.000018
C62	C	1.254817	0.150409	0.499982
C63	C	0.787027	-0.410736	0.059692
C64	C	1.287027	0.089264	0.559692
C65	C	0.821713	-0.305719	-0.000014
C66	C	1.321713	0.194281	0.499986
C67	C	0.787061	-0.410713	-0.059703
C68	C	1.287061	0.089287	0.440297
C69	C	0.819306	-0.470623	-0.000022
C70	C	1.319306	0.029377	0.499978
C71	C	0.853941	-0.365637	0.059745
C72	C	1.353941	0.134363	0.559745
C73	C	0.853965	-0.365608	-0.059703
C74	C	1.353965	0.134392	0.440297
C75	C	0.886224	-0.426735	0.000020
C76	C	1.386224	0.073265	0.500020
C77	C	0.823097	-0.210723	-0.000008
C78	C	1.323097	0.289277	0.499992
C79	C	0.817926	-0.565619	-0.000022
C80	C	1.317926	-0.065619	0.499978
C81	C	0.947500	0.105210	-0.000018
C82	C	1.447500	0.605210	0.499982
C83	C	1.024607	0.106573	-0.000023
C84	C	1.524607	0.606573	0.499977
C85	C	0.815447	0.265414	-0.000023
C86	C	1.315447	0.765414	0.499977
C87	C	0.816821	0.358655	-0.000029
C88	C	1.316821	0.858655	0.499971
N89	N	0.820487	0.111816	0.188653
N90	N	1.320487	0.611816	0.688653
N91	N	0.820539	0.111830	-0.188683
N92	N	1.320539	0.611830	0.311317
C93	C	0.867720	0.054560	0.226756
C94	C	1.367720	0.554560	0.726756
C95	C	0.867725	0.054556	0.302984
C96	C	1.367725	0.554556	0.802984
C97	C	0.820503	0.111822	0.341106
C98	C	1.320503	0.611822	0.841106
C99	C	0.773260	0.169082	0.302993
C100	C	1.273260	0.669082	0.802993
C101	C	0.773253	0.169079	0.226767
C102	C	1.273253	0.669079	0.726767
C103	C	0.811406	0.188356	0.461862
C104	C	1.311406	0.688356	0.961862
C105	C	0.811418	0.188361	0.538087
C106	C	1.311418	0.688361	1.038087
C107	C	0.820522	0.111833	0.576213
C108	C	1.320522	0.611833	1.076213
C109	C	0.829628	0.035297	0.538105
C110	C	1.329628	0.535297	1.038105
C111	C	0.829621	0.035294	0.461879
C112	C	1.329621	0.535294	0.961879
C113	C	0.820505	0.111832	0.423760
C114	C	1.320505	0.611832	0.923760
C115	C	0.867763	0.054569	0.696971
C116	C	1.367763	0.554569	1.196971
C117	C	0.867762	0.054564	0.773200
C118	C	1.367762	0.554564	1.273200
C119	C	0.773302	0.169097	0.773209
C120	C	1.273302	0.669097	1.273209
C121	C	0.773299	0.169095	0.696981
C122	C	1.273299	0.669095	1.196981
C123	C	0.820533	0.111831	0.658867
C124	C	1.320533	0.611831	1.158867
H125	H	0.243297	0.217068	-0.076994
H126	H	0.743297	0.717068	0.423006
H127	H	0.882243	-0.345584	-0.110186
H128	H	1.382243	0.154416	0.389814
O129	O	0.041880	-0.044275	0.000066
O130	O	0.541880	0.455725	0.500066
C131	C	-0.030284	-0.134610	0.062825
C132	C	0.469716	0.365390	0.562825
C133	C	0.000493	-0.049710	0.062798
C134	C	0.500493	0.450290	0.562798
H135	H	-0.063741	-0.139040	0.113547
H136	H	0.436259	0.360960	0.613547
H137	H	-0.063827	-0.139044	0.012180
H138	H	0.436173	0.360956	0.512180
H139	H	0.013979	-0.188630	0.062790
H140	H	0.513979	0.311370	0.562790
H141	H	-0.043726	0.004359	0.062860
H142	H	0.456274	0.504359	0.562860
H143	H	0.034054	-0.045350	0.113439
H144	H	0.534054	0.454650	0.613439
H145	H	0.594658	0.255846	-0.000019
H146	H	1.094658	0.755846	0.499981
O147	O	0.727395	0.224801	0.660076
O148	O	1.227395	0.724801	1.160076
C149	C	0.633678	0.338367	0.668131
C150	C	1.133678	0.838367	1.168131
C151	C	0.685641	0.275338	0.710016
C152	C	1.185641	0.775338	1.210016
H153	H	0.599896	0.379231	0.708489
H154	H	1.099896	0.879231	1.208489
H155	H	0.663626	0.380293	0.632449
H156	H	1.163626	0.880293	1.132449
H157	H	0.599009	0.302192	0.632439
H158	H	1.099009	0.802192	1.132439
H159	H	0.720323	0.311445	0.745747
H160	H	1.220323	0.811445	1.245747
H161	H	0.655650	0.233413	0.745652
H162	H	1.155650	0.733413	1.245652
O163	O	0.753313	-0.434403	-0.119979
O164	O	1.253313	0.065597	0.380021
C165	C	0.692065	-0.389379	-0.230125
C166	C	1.192065	0.110621	0.269875
C167	C	0.730286	-0.362442	-0.161907
C168	C	1.230286	0.137558	0.338093
H169	H	0.673424	-0.331212	-0.264035
H170	H	1.173424	0.168788	0.235965
H171	H	0.729192	-0.434686	-0.263929
H172	H	1.229192	0.065314	0.236071
H173	H	0.645236	-0.422186	-0.212883
H174	H	1.145236	0.077814	0.287117
H175	H	0.777113	-0.329600	-0.179084
H176	H	1.277113	0.170400	0.320916
H177	H	0.693113	-0.317174	-0.128120
H178	H	1.193113	0.182826	0.371880
H179	H	0.803980	0.250678	0.430826
H180	H	1.303980	0.750678	0.930826
H181	H	0.699290	-0.316068	0.000042
H182	H	1.199290	0.183932	0.500042
O183	O	0.184858	-0.041735	-0.000116
O184	O	0.684858	0.458265	0.499884
C185	C	0.276250	-0.129152	-0.062871
C186	C	0.776250	0.370848	0.437129
C187	C	0.227264	-0.045668	-0.062845
C188	C	0.727264	0.454332	0.437155
H189	H	0.310538	-0.132367	-0.113589
H190	H	0.810538	0.367633	0.386411
H191	H	0.310620	-0.132396	-0.012222
H192	H	0.810620	0.367604	0.487778
H193	H	0.243818	-0.184533	-0.062840
H194	H	0.743818	0.315467	0.437160
H195	H	0.259641	0.009760	-0.062902
H196	H	0.759641	0.509760	0.437098
H197	H	0.192892	-0.042498	-0.113489
H198	H	0.692892	0.457502	0.386511
O199	O	0.753155	-0.434547	0.119859
O200	O	1.253155	0.065453	0.619859
C201	C	0.645628	-0.421865	0.187916
C202	C	1.145628	0.078135	0.687916
C203	C	0.683904	-0.394852	0.119741
C204	C	1.183904	0.105148	0.619741
H205	H	0.589637	-0.389771	0.187851
H206	H	1.089637	0.110229	0.687851
H207	H	0.645301	-0.493317	0.187612
H208	H	1.145301	0.006683	0.687612
H209	H	0.673634	-0.402461	0.238788
H210	H	1.173634	0.097539	0.738788
H211	H	0.655929	-0.414199	0.068834
H212	H	1.155929	0.085801	0.568834
H213	H	0.684238	-0.323402	0.120109
H214	H	1.184238	0.176598	0.620109
O215	O	0.887612	-0.341781	0.120012
O216	O	1.387612	0.158219	0.620012
C217	C	0.926716	-0.226595	0.187606
C218	C	1.426716	0.273405	0.687606
C219	C	0.888559	-0.253495	0.119332
C220	C	1.388559	0.246505	0.619332
H221	H	0.927507	-0.155217	0.187071
H222	H	1.427507	0.344783	0.687071
H223	H	0.898385	-0.245499	0.238453
H224	H	1.398385	0.254501	0.738453
H225	H	0.982554	-0.259174	0.187813
H226	H	1.482554	0.240826	0.687813
H227	H	0.832719	-0.220930	0.119054
H228	H	1.332719	0.279070	0.619054
H229	H	0.916944	-0.234607	0.068516
H230	H	1.416944	0.265393	0.568516
H231	H	0.941799	-0.460110	0.000054
H232	H	1.441799	0.039890	0.500054
O233	O	0.727345	0.224784	0.189863
O234	O	1.227345	0.724784	0.689863
C235	C	0.633626	0.338348	0.197915
C236	C	1.133626	0.838348	0.697915
C237	C	0.685588	0.275319	0.239801
C238	C	1.185588	0.775319	0.739801
H239	H	0.599842	0.379210	0.238272
H240	H	1.099842	0.879210	0.738272
H241	H	0.663575	0.380276	0.162236
H242	H	1.163575	0.880276	0.662236
H243	H	0.598959	0.302173	0.162221
H244	H	1.098959	0.802173	0.662221
H245	H	0.720268	0.311426	0.275535
H246	H	1.220268	0.811426	0.775535
H247	H	0.655596	0.233392	0.275435
H248	H	1.155596	0.733392	0.775435
H249	H	0.906180	0.007931	0.195725
H250	H	1.406180	0.507931	0.695725
O251	O	0.913673	-0.001100	0.339895
O252	O	1.413673	0.498900	0.839895
C253	C	1.007333	-0.114736	0.331847
C254	C	1.507333	0.385264	0.831847
C255	C	0.955349	-0.051736	0.289959
C256	C	1.455349	0.448264	0.789959
H257	H	1.041031	-0.155704	0.291493
H258	H	1.541031	0.344296	0.791493
H259	H	1.042080	-0.078621	0.367502
H260	H	1.542080	0.421379	0.867502
H261	H	0.977332	-0.156563	0.367568
H262	H	1.477332	0.343437	0.867568
H263	H	0.985293	-0.009892	0.254199
H264	H	1.485293	0.490108	0.754199
H265	H	0.920602	-0.087904	0.254351
H266	H	1.420602	0.412096	0.754351
H267	H	0.837033	-0.027024	0.430854
H268	H	1.337033	0.472976	0.930854
H269	H	0.804008	0.250681	0.569109
H270	H	1.304008	0.750681	1.069109
H271	H	0.837041	-0.027019	0.569146
H272	H	1.337041	0.472981	1.069146
O273	O	0.631763	-0.033805	-0.000108
O274	O	1.131763	0.466195	0.499892
C275	C	0.723148	-0.121227	-0.062870
C276	C	1.223148	0.378773	0.437130
C277	C	0.674164	-0.037740	-0.062841
C278	C	1.174164	0.462260	0.437159
H279	H	0.757431	-0.124444	-0.113591
H280	H	1.257431	0.375556	0.386409
H281	H	0.757521	-0.124473	-0.012224
H282	H	1.257521	0.375527	0.487776
H283	H	0.690713	-0.176605	-0.062835
H284	H	1.190713	0.323395	0.437165
H285	H	0.706544	0.017685	-0.062901
H286	H	1.206544	0.517685	0.437099
H287	H	0.639788	-0.034568	-0.113481
H288	H	1.139788	0.465432	0.386519
H289	H	0.266287	0.004249	0.076971
H290	H	0.766287	0.504249	0.576971
O291	O	0.913664	-0.001141	0.660054
O292	O	1.413664	0.498859	1.160054
C293	C	1.007381	-0.114710	0.668089
C294	C	1.507381	0.385290	1.168089
C295	C	0.955425	-0.051677	0.709985
C296	C	1.455425	0.448323	1.209985
H297	H	1.041168	-0.155572	0.708440
H298	H	1.541168	0.344428	1.208440
H299	H	0.977427	-0.156636	0.632435
H300	H	1.477427	0.343364	1.132435
H301	H	1.042045	-0.078537	0.632369
H302	H	1.542045	0.421463	1.132369
H303	H	0.920748	-0.087781	0.745745
H304	H	1.420748	0.412219	1.245745
H305	H	0.985423	-0.009751	0.745594
H306	H	1.485423	0.490249	1.245594
H307	H	0.397716	0.006589	0.076978
H308	H	0.897716	0.506589	0.576978
H309	H	0.734810	0.215708	0.334036
H310	H	1.234810	0.715708	0.834036
O311	O	0.488988	-0.036463	0.000023
O312	O	0.988988	0.463537	0.500023
C313	C	0.513058	-0.188188	-0.000015
C314	C	1.013058	0.311812	0.499985
C315	C	0.543762	-0.103241	-0.000036
C316	C	1.043762	0.396759	0.499964
H317	H	0.557328	-0.242200	-0.000078
H318	H	1.057328	0.257800	0.499922
H319	H	0.479570	-0.192679	0.050676
H320	H	0.979570	0.307321	0.550676
H321	H	0.479539	-0.192567	-0.050683
H322	H	0.979539	0.307433	0.449317
H323	H	0.577313	-0.098804	0.050598
H324	H	1.077313	0.401196	0.550598
H325	H	0.577210	-0.098787	-0.050761
H326	H	1.077210	0.401213	0.449239
H327	H	0.734850	0.215721	0.804247
H328	H	1.234850	0.715721	1.304247
O329	O	0.009421	0.257581	-0.000051
O330	O	0.509421	0.757581	0.499949
C331	C	0.000648	0.409577	-0.000005
C332	C	0.500648	0.909577	0.499995
C333	C	0.049570	0.326042	0.000017
C334	C	0.549570	0.826042	0.500017
H335	H	0.033089	0.464949	0.000065
H336	H	0.533089	0.964949	0.500065
H337	H	-0.033661	0.412869	-0.050699
H338	H	0.466339	0.912869	0.449301
H339	H	-0.033709	0.412750	0.050661
H340	H	0.466291	0.912750	0.550661
H341	H	0.083972	0.322813	-0.050615
H342	H	0.583972	0.822813	0.449385
H343	H	0.083832	0.322784	0.050744
H344	H	0.583832	0.822784	0.550744
H345	H	0.374736	0.219400	-0.076992
H346	H	0.874736	0.719400	0.423008
H347	H	0.147752	0.247911	-0.000011
H348	H	0.647752	0.747911	0.499989
H349	H	0.463225	0.253515	-0.000006
H350	H	0.963225	0.753515	0.499994
H351	H	0.906223	0.007935	0.804224
H352	H	1.406223	0.507935	1.304224
