data_functionalizedCrystal
_audit_creation_method	'MofGen! by Chris Wilmer'
_symmetry_space_group_name_H-M	'P1'
_symmetry_Int_Tables_number	1
_symmetry_cell_setting	triclinic
loop_
_symmetry_equiv_pos_as_xyz
  x,y,z
_cell_length_a	19.805407
_cell_length_b	12.645330
_cell_length_c	19.805399
_cell_angle_alpha	89.976144
_cell_angle_beta	89.980427
_cell_angle_gamma	90.012646
loop_
_atom_site_label
_atom_site_type_symbol
_atom_site_fract_x
_atom_site_fract_y
_atom_site_fract_z
Zn1	Zn	1.034800	-0.422064	-0.382737
Zn2	Zn	1.034742	-0.599342	-0.269556
Zn3	Zn	0.921615	-0.422093	-0.269562
Zn4	Zn	0.921606	-0.599286	-0.382703
O5	O	0.978191	-0.510696	-0.326140
O6	O	1.129509	-0.445592	-0.367735
O7	O	1.019715	-0.575865	-0.174840
O8	O	0.936657	-0.273742	-0.284591
O9	O	1.129467	-0.575837	-0.284582
O10	O	1.019814	-0.273721	-0.367741
O11	O	0.936601	-0.445641	-0.174844
O12	O	0.826897	-0.445587	-0.284558
O13	O	0.936642	-0.575741	-0.477424
O14	O	0.826890	-0.575769	-0.367683
O15	O	1.019805	-0.445537	-0.477449
O16	O	1.019706	-0.747682	-0.284549
O17	O	0.936585	-0.747640	-0.367677
C18	C	0.802335	-0.510676	-0.326118
C19	C	0.727103	-0.510693	-0.326124
C20	C	0.691773	-0.578581	-0.369337
C21	C	0.621084	-0.578583	-0.369347
C22	C	0.585727	-0.510701	-0.326140
C23	C	0.621062	-0.442805	-0.282925
C24	C	0.691749	-0.442799	-0.282919
C25	C	0.335989	-0.442829	-0.282947
C26	C	0.265297	-0.442843	-0.282955
C27	C	0.265324	-0.578613	-0.369375
C28	C	0.336011	-0.578606	-0.369369
C29	C	0.371340	-0.510707	-0.326157
C30	C	0.447988	-0.510705	-0.326148
C31	C	0.509080	-0.510708	-0.326145
C32	C	0.978157	-0.786126	-0.326124
C33	C	0.978204	-0.903956	-0.326139
C34	C	1.030412	-1.071502	-0.273737
C35	C	1.030582	-0.948942	-0.273865
C36	C	0.997546	-0.948344	-0.397486
C37	C	0.997960	-1.070942	-0.397208
C38	C	0.906635	-1.071282	-0.307898
C39	C	0.906978	-0.948677	-0.306298
C40	C	1.154734	-0.510717	-0.326162
C41	C	1.229966	-0.510726	-0.326171
C42	C	0.978229	-0.510629	-0.502682
C43	C	0.978245	-0.510601	-0.577914
C44	C	0.978243	-0.234191	-0.326170
C45	C	0.978266	-0.116361	-0.326184
C46	C	1.021549	-0.442800	-0.613273
C47	C	1.021556	-0.442770	-0.683961
C48	C	0.978262	-0.510546	-0.719290
C49	C	0.934953	-0.578349	-0.683927
C50	C	0.934943	-0.578374	-0.613240
C51	C	0.934991	-0.578250	-0.969000
C52	C	0.935006	-0.578223	-1.039692
C53	C	1.021604	-0.442646	-1.039722
C54	C	1.021594	-0.442671	-0.969035
C55	C	0.978283	-0.510470	-0.933678
C56	C	0.978275	-0.510501	-0.857029
C57	C	0.978273	-0.510521	-0.795937
C58	C	0.978192	-0.510686	-0.150284
C59	C	0.978307	-0.510416	-0.075052
H60	H	0.236511	-0.387559	-0.247770
H61	H	0.899699	-0.633530	-0.712697
H62	H	0.867782	-1.100293	-0.346097
H63	H	0.592269	-0.387530	-0.247748
H64	H	0.866030	-0.918066	-0.341696
F65	F	1.014798	-1.110128	-0.204386
F66	F	1.067698	-0.370484	-1.077357
H67	H	1.083636	-0.919535	-0.285960
H68	H	1.056807	-0.387612	-0.584513
H69	H	0.364796	-0.633886	-0.404551
H70	H	0.899747	-0.633416	-1.068455
F71	F	0.227719	-0.650877	-0.415366
H72	H	0.899734	-0.633472	-0.940221
H73	H	0.720556	-0.633862	-0.404519
F74	F	0.373580	-0.370562	-0.236959
H75	H	1.083182	-1.102233	-0.285697
F76	F	1.067670	-0.370643	-0.721589
H77	H	0.592322	-0.633865	-0.404534
H78	H	1.056852	-0.387484	-0.940273
H79	H	0.899673	-0.633573	-0.584452
H80	H	0.720514	-0.387512	-0.247734
H81	H	1.018481	-0.918934	-0.220963
F82	F	1.066396	-1.108215	-0.417452
H83	H	0.961642	-1.100613	-0.437631
F84	F	0.949410	-0.910265	-0.449932
F85	F	1.065209	-0.908107	-0.418071
F86	F	0.887913	-0.910766	-0.237671
F87	F	0.883644	-1.111807	-0.241080
