data_functionalizedCrystal
_audit_creation_method	'MofGen! by Chris Wilmer'
_symmetry_space_group_name_H-M	'P1'
_symmetry_Int_Tables_number	1
_symmetry_cell_setting	triclinic
loop_
_symmetry_equiv_pos_as_xyz
  x,y,z
_cell_length_a	17.038272
_cell_length_b	15.944551
_cell_length_c	15.021413
_cell_angle_alpha	90.002826
_cell_angle_beta	90.004029
_cell_angle_gamma	92.694853
loop_
_atom_site_label
_atom_site_type_symbol
_atom_site_fract_x
_atom_site_fract_y
_atom_site_fract_z
O1	O	0.100827	-1.121728	-0.073940
O2	O	0.434161	-0.788394	0.259394
O3	O	0.767494	-0.455061	0.592727
O4	O	0.113259	-0.878066	-0.073962
O5	O	0.446593	-0.544732	0.259372
O6	O	0.779926	-0.211399	0.592705
O7	O	-0.006773	-0.998449	-0.073944
O8	O	0.326561	-0.665115	0.259390
O9	O	0.659894	-0.331782	0.592723
O10	O	0.220859	-1.001345	-0.073958
O11	O	0.554192	-0.668012	0.259376
O12	O	0.887526	-0.334678	0.592709
O13	O	-0.006755	-0.998429	0.074120
O14	O	0.326578	-0.665096	0.407454
O15	O	0.659911	-0.331763	0.740787
O16	O	0.113277	-0.878046	0.074102
O17	O	0.446610	-0.544713	0.407436
O18	O	0.779943	-0.211380	0.740769
O19	O	0.100844	-1.121708	0.074125
O20	O	0.434178	-0.788375	0.407458
O21	O	0.767511	-0.455042	0.740791
Zn22	Zn	0.107063	-0.999874	0.097622
Zn23	Zn	0.440396	-0.666541	0.430955
Zn24	Zn	0.773730	-0.333208	0.764289
Zn25	Zn	0.107041	-0.999900	-0.097459
Zn26	Zn	0.440374	-0.666566	0.235874
Zn27	Zn	0.773707	-0.333233	0.569208
O28	O	0.220876	-1.001326	0.074107
O29	O	0.554210	-0.667992	0.407440
O30	O	0.887543	-0.334659	0.740773
C31	C	-0.035893	-0.995805	0.000088
C32	C	0.297440	-0.662471	0.333421
C33	C	0.630774	-0.329138	0.666755
C34	C	-0.122688	-0.987945	0.000087
C35	C	0.210645	-0.654612	0.333420
C36	C	0.543978	-0.321279	0.666754
C37	C	0.112752	-0.846725	0.000067
C38	C	0.446085	-0.513392	0.333401
C39	C	0.779419	-0.180059	0.666734
C40	C	0.111205	-0.753369	0.000059
C41	C	0.444538	-0.420035	0.333393
C42	C	0.777871	-0.086702	0.666726
C43	C	0.101352	-1.153049	0.000093
C44	C	0.434685	-0.819716	0.333427
C45	C	0.768019	-0.486382	0.666760
C46	C	0.102899	-1.246405	0.000096
C47	C	0.436232	-0.913072	0.333429
C48	C	0.769566	-0.579739	0.666762
C49	C	-0.172781	-1.060103	0.000094
C50	C	0.160552	-0.726770	0.333428
C51	C	0.493886	-0.393436	0.666761
C52	C	-0.254334	-1.052713	0.000085
C53	C	0.079000	-0.719380	0.333419
C54	C	0.412333	-0.386047	0.666752
C55	C	-0.285792	-0.973165	0.000075
C56	C	0.047541	-0.639832	0.333408
C57	C	0.380875	-0.306499	0.666742
C58	C	-0.235693	-0.901002	0.000065
C59	C	0.097640	-0.567669	0.333398
C60	C	0.430974	-0.234336	0.666732
C61	C	-0.154142	-0.908393	0.000068
C62	C	0.179192	-0.575059	0.333401
C63	C	0.512525	-0.241726	0.666734
C64	C	-0.531558	-0.947056	0.000061
C65	C	-0.198224	-0.613723	0.333394
C66	C	0.135109	-0.280390	0.666727
C67	C	-0.613115	-0.939671	0.000060
C68	C	-0.279782	-0.606338	0.333394
C69	C	0.053551	-0.273005	0.666727
C70	C	-0.631751	-1.091383	0.000079
C71	C	-0.298417	-0.758050	0.333413
C72	C	0.034916	-0.424716	0.666746
C73	C	-0.550197	-1.098766	0.000087
C74	C	-0.216864	-0.765433	0.333421
C75	C	0.116470	-0.432100	0.666754
C76	C	-0.500105	-1.026603	0.000072
C77	C	-0.166772	-0.693270	0.333406
C78	C	0.166562	-0.359937	0.666739
C79	C	-0.369152	-0.965610	0.000069
C80	C	-0.035819	-0.632277	0.333402
C81	C	0.297515	-0.298943	0.666735
C82	C	-0.416747	-1.034159	0.000073
C83	C	-0.083413	-0.700826	0.333406
C84	C	0.249920	-0.367493	0.666739
C85	C	0.249997	-1.003969	0.000073
C86	C	0.583330	-0.670636	0.333406
C87	C	0.916663	-0.337303	0.666740
C88	C	0.336792	-1.011829	0.000068
C89	C	0.670125	-0.678495	0.333401
C90	C	1.003459	-0.345162	0.666735
N91	N	0.107078	-0.999863	0.230759
N92	N	0.440411	-0.666530	0.564093
N93	N	0.773745	-0.333196	0.897426
C94	C	0.033105	-0.532936	0.000081
C95	C	0.366438	-0.199602	0.333415
C96	C	0.699771	0.133731	0.666748
C97	C	0.069363	-0.474515	-0.072924
C98	C	0.402697	-0.141181	0.260409
C99	C	0.736030	0.192152	0.593742
C100	C	0.108405	-0.582443	0.000070
C101	C	0.441739	-0.249110	0.333403
C102	C	0.775072	0.084224	0.666737
C103	C	0.069398	-0.474519	0.073055
C104	C	0.402731	-0.141186	0.406389
C105	C	0.736065	0.192148	0.739722
C106	C	0.105696	-0.417337	0.000084
C107	C	0.439029	-0.084004	0.333417
C108	C	0.772363	0.249330	0.666751
C109	C	0.144684	-0.525252	-0.072996
C110	C	0.478018	-0.191918	0.260337
C111	C	0.811351	0.141415	0.593671
C112	C	0.144709	-0.525262	0.073049
C113	C	0.478042	-0.191928	0.406383
C114	C	0.811375	0.141405	0.739716
C115	C	0.181022	-0.466862	0.000026
C116	C	0.514355	-0.133529	0.333359
C117	C	0.847689	0.199805	0.666692
C118	C	0.109964	-0.677557	0.000061
C119	C	0.443297	-0.344223	0.333394
C120	C	0.776631	-0.010890	0.666728
C121	C	0.104143	-0.322225	0.000087
C122	C	0.437476	0.011108	0.333420
C123	C	0.770810	0.344442	0.666753
N124	N	0.107019	-0.999917	-0.230597
N125	N	0.440353	-0.666584	0.102737
N126	N	0.773686	-0.333251	0.436070
C127	C	0.162555	-0.944187	0.470434
C128	C	0.495888	-0.610854	0.803768
C129	C	0.829221	-0.277520	1.137101
C130	C	0.177734	-1.021171	0.529775
C131	C	0.511067	-0.687838	0.863108
C132	C	0.844400	-0.354505	1.196441
C133	C	0.107059	-0.999883	0.412366
C134	C	0.440392	-0.666550	0.745700
C135	C	0.773725	-0.333217	1.079033
C136	C	0.091897	-0.922921	0.529768
C137	C	0.425230	-0.589588	0.863101
C138	C	0.758564	-0.256254	1.196434
C139	C	0.107041	-0.999896	0.587790
C140	C	0.440375	-0.666563	0.921124
C141	C	0.773708	-0.333229	1.254457
C142	C	0.122273	-1.076908	0.470400
C143	C	0.455606	-0.743575	0.803734
C144	C	0.788939	-0.410241	1.137067
C145	C	0.036405	-0.978606	0.470388
C146	C	0.369739	-0.645272	0.803721
C147	C	0.703072	-0.311939	1.137055
C148	C	0.051554	-1.055643	0.529702
C149	C	0.384888	-0.722309	0.863035
C150	C	0.718221	-0.388976	1.196368
C151	C	0.107070	-0.999875	0.311309
C152	C	0.440404	-0.666541	0.644642
C153	C	0.773737	-0.333208	0.977976
C154	C	0.107029	-0.999913	0.688846
C155	C	0.440362	-0.666580	1.022179
C156	C	0.773696	-0.333246	1.355512
H157	H	-0.147175	-1.124879	0.000108
H158	H	0.186159	-0.791546	0.333442
H159	H	0.519492	-0.458213	0.666775
C160	C	0.139691	-1.164864	0.435327
C161	C	0.473025	-0.831531	0.768660
C162	C	0.806358	-0.498198	1.101994
H163	H	0.139620	-1.164315	0.372085
H164	H	0.472954	-0.830982	0.705418
H165	H	0.806287	-0.497648	1.038751
H166	H	0.100499	-1.204469	0.456092
H167	H	0.433833	-0.871136	0.789425
H168	H	0.767166	-0.537802	1.122759
H169	H	0.189717	-1.180063	0.456156
H170	H	0.523050	-0.846729	0.789489
H171	H	0.856384	-0.513396	1.122823
H172	H	0.004613	-1.102803	0.555561
H173	H	0.337946	-0.769470	0.888894
H174	H	0.671279	-0.436137	1.222228
H175	H	0.037542	-0.452150	0.134774
H176	H	0.370875	-0.118817	0.468107
H177	H	0.704209	0.214517	0.801440
H178	H	-0.672544	-1.150134	0.000090
H179	H	-0.339210	-0.816800	0.333423
H180	H	-0.005877	-0.483467	0.666756
H181	H	0.209524	-0.897140	0.444412
H182	H	0.542857	-0.563807	0.777745
H183	H	0.876191	-0.230474	1.111078
C184	C	0.187710	-0.555525	0.156422
C185	C	0.521044	-0.222191	0.489755
C186	C	0.854377	0.111142	0.823089
H187	H	0.232215	-0.585235	0.138886
H188	H	0.565548	-0.251901	0.472220
H189	H	0.898881	0.081432	0.805553
H190	H	0.153145	-0.591541	0.190202
H191	H	0.486479	-0.258208	0.523536
H192	H	0.819812	0.075126	0.856869
H193	H	0.204310	-0.508461	0.191612
H194	H	0.537643	-0.175128	0.524946
H195	H	0.870977	0.158205	0.858279
H196	H	0.237476	-1.039179	0.555860
H197	H	0.570809	-0.705846	0.889193
H198	H	0.904143	-0.372513	1.222526
H199	H	-0.023318	-0.960575	0.444282
H200	H	0.310016	-0.627242	0.777616
H201	H	0.643349	-0.293909	1.110949
C202	C	0.074573	-0.834990	0.564987
C203	C	0.407906	-0.501657	0.898320
C204	C	0.741240	-0.168323	1.231654
H205	H	0.114057	-0.795485	0.544681
H206	H	0.447390	-0.462152	0.878015
H207	H	0.780724	-0.128819	1.211348
H208	H	0.074212	-0.835737	0.628219
H209	H	0.407545	-0.502403	0.961553
H210	H	0.740878	-0.169070	1.294886
H211	H	0.024766	-0.819493	0.543767
H212	H	0.358100	-0.486159	0.877101
H213	H	0.691433	-0.152826	1.210434
H214	H	-0.295117	-1.111472	0.000093
H215	H	0.038217	-0.778139	0.333427
H216	H	0.371550	-0.444805	0.666760
C217	C	-0.515598	-1.186269	0.000087
C218	C	-0.182265	-0.852936	0.333420
C219	C	0.151068	-0.519602	0.666754
H220	H	-0.557113	-1.228187	0.000081
H221	H	-0.223780	-0.894853	0.333414
H222	H	0.109554	-0.561520	0.666748
H223	H	-0.484168	-1.192302	0.051719
H224	H	-0.150834	-0.858969	0.385052
H225	H	0.182499	-0.525636	0.718386
H226	H	-0.484178	-1.192306	-0.051554
H227	H	-0.150845	-0.858973	0.281779
H228	H	0.182489	-0.525640	0.615113
C229	C	-0.647718	-0.852165	0.000034
C230	C	-0.314385	-0.518831	0.333367
C231	C	0.018949	-0.185498	0.666701
H232	H	-0.606206	-0.810245	0.000014
H233	H	-0.272872	-0.476912	0.333348
H234	H	0.060461	-0.143578	0.666681
H235	H	-0.679142	-0.846113	0.051664
H236	H	-0.345809	-0.512780	0.384997
H237	H	-0.012475	-0.179446	0.718330
H238	H	-0.679146	-0.846150	-0.051609
H239	H	-0.345812	-0.512816	0.281724
H240	H	-0.012479	-0.179483	0.615057
H241	H	-0.490782	-0.888296	0.000049
H242	H	-0.157449	-0.554962	0.333382
H243	H	0.175885	-0.221629	0.666715
H244	H	0.037507	-0.452139	-0.134642
H245	H	0.370840	-0.118805	0.198691
H246	H	0.704174	0.214528	0.532025
C247	C	-0.051318	-0.571932	-0.000024
C248	C	0.282015	-0.238598	0.333309
C249	C	0.615348	0.094735	0.666643
H250	H	-0.077951	-0.554619	-0.051963
H251	H	0.255383	-0.221286	0.281370
H252	H	0.588716	0.112047	0.614703
H253	H	-0.078346	-0.553841	0.051308
H254	H	0.254987	-0.220507	0.384641
H255	H	0.588320	0.112826	0.717975
H256	H	-0.049734	-0.631408	0.000494
H257	H	0.283599	-0.298074	0.333827
H258	H	0.616932	0.035259	0.667160
H259	H	-0.261313	-0.836233	0.000051
H260	H	0.072021	-0.502899	0.333384
H261	H	0.405354	-0.169566	0.666718
H262	H	0.176503	-0.547520	-0.134784
H263	H	0.509836	-0.214186	0.198549
H264	H	0.843169	0.119147	0.531883
C265	C	0.265527	-0.428093	-0.000033
C266	C	0.598860	-0.094759	0.333300
C267	C	0.932193	0.238574	0.666634
H268	H	0.292140	-0.445510	-0.051940
H269	H	0.625473	-0.112177	0.281393
H270	H	0.958806	0.221156	0.614727
H271	H	0.292479	-0.446236	0.051332
H272	H	0.625812	-0.112903	0.384666
H273	H	0.959146	0.220430	0.717999
H274	H	0.264091	-0.368604	0.000453
H275	H	0.597425	-0.035271	0.333787
H276	H	0.930758	0.298062	0.667120
H277	H	-0.391130	-1.098927	0.000061
H278	H	-0.057797	-0.765594	0.333395
H279	H	0.275537	-0.432260	0.666728
C280	C	-0.099040	-0.829020	0.000062
C281	C	0.234294	-0.495686	0.333395
C282	C	0.567627	-0.162353	0.666728
H283	H	-0.129454	-0.780585	0.000063
H284	H	0.203880	-0.447252	0.333396
H285	H	0.537213	-0.113918	0.666730
H286	H	-0.066842	-0.828757	-0.051571
H287	H	0.266491	-0.495424	0.281762
H288	H	0.599825	-0.162091	0.615096
H289	H	-0.066837	-0.828742	0.051702
H290	H	0.266497	-0.495408	0.385035
H291	H	0.599830	-0.162075	0.718369
H292	H	-0.394774	-0.900842	0.000062
H293	H	-0.061441	-0.567508	0.333396
H294	H	0.271892	-0.234175	0.666729
