data_functionalizedCrystal
_audit_creation_method	'MofGen! by Chris Wilmer'
_symmetry_space_group_name_H-M	'P1'
_symmetry_Int_Tables_number	1
_symmetry_cell_setting	triclinic
loop_
_symmetry_equiv_pos_as_xyz
  x,y,z
_cell_length_a	6.817900
_cell_length_b	17.296766
_cell_length_c	23.752930
_cell_angle_alpha	100.249930
_cell_angle_beta	100.066047
_cell_angle_gamma	102.621013
loop_
_atom_site_label
_atom_site_type_symbol
_atom_site_fract_x
_atom_site_fract_y
_atom_site_fract_z
V1	V	-3.988658	-0.112193	-0.184205
O2	O	-3.977037	0.004302	-0.174774
O3	O	-3.940300	-0.221413	-0.188643
O4	O	-3.923700	-0.110946	-0.261944
O5	O	-3.993752	-0.106930	-0.100966
V6	V	-4.474425	-0.098203	-0.173557
O7	O	-4.244992	-0.142883	-0.207563
O8	O	-4.668289	-0.067513	-0.150199
O9	O	-4.299576	0.011016	-0.169119
O10	O	-4.603443	-0.214698	-0.182988
O11	O	-4.586728	-0.103466	-0.256796
O12	O	-4.316176	-0.099450	-0.095818
C13	C	-3.785847	-0.248023	-0.187207
C14	C	-3.827485	-0.337314	-0.191354
C15	C	-3.817965	-0.367481	-0.140296
C16	C	-3.857108	-0.451381	-0.144194
C17	C	-3.905757	-0.505111	-0.199151
C18	C	-3.915283	-0.474939	-0.250213
C19	C	-3.876154	-0.391042	-0.246314
C20	C	-4.025368	-0.759018	-0.213574
C21	C	-4.064491	-0.842920	-0.217469
C22	C	-4.006317	-0.819356	-0.111449
C23	C	-3.967179	-0.735457	-0.107555
C24	C	-3.976718	-0.705293	-0.158618
C25	C	-3.945762	-0.590870	-0.203137
C26	C	-3.936728	-0.619536	-0.154631
C27	C	-3.764671	-0.107111	-0.280709
C28	C	-3.792845	-0.106813	-0.344298
C29	C	-4.149220	-0.108922	-0.741732
C30	C	-4.175715	-0.108632	-0.801479
O31	O	-4.343746	-0.111878	-0.835032
N32	N	-4.007477	-0.104465	-0.828240
C33	C	-3.812727	-0.100580	-0.795248
O34	O	-3.672060	-0.097008	-0.823496
C35	C	-3.786232	-0.100864	-0.735501
C36	C	-3.954487	-0.105039	-0.708745
C37	C	-4.317460	-0.113095	-0.714976
C38	C	-4.290967	-0.113387	-0.655233
C39	C	-4.096234	-0.109504	-0.622246
C40	C	-3.927994	-0.105331	-0.649002
C41	C	-3.591481	-0.096973	-0.702509
C42	C	-3.564999	-0.097257	-0.642758
C43	C	-3.733255	-0.101432	-0.616002
C44	C	-3.706768	-0.101740	-0.556272
N45	N	-3.875006	-0.105906	-0.529511
C46	C	-4.069739	-0.109789	-0.562498
C47	C	-3.868383	-0.099982	-0.920721
C48	C	-3.894878	-0.099703	-0.980469
C49	C	-4.257864	-0.107754	-0.986696
C50	C	-4.231369	-0.108038	-0.926948
C51	C	-4.036620	-0.104148	-0.893961
C52	C	-4.014088	-0.110401	-0.437033
C53	C	-3.987578	-0.110696	-0.377285
C54	C	-3.624593	-0.102641	-0.371063
C55	C	-3.651102	-0.102351	-0.430806
C56	C	-3.845863	-0.106228	-0.463790
O57	O	-3.538797	-0.098492	-0.522682
O58	O	-4.210371	-0.113349	-0.534241
C59	C	-4.117372	0.037623	-0.170553
C60	C	-4.054971	0.126913	-0.166410
C61	C	-4.138548	-0.103288	-0.077050
C62	C	-4.089613	-0.103582	-0.013460
H63	H	-3.998558	-0.843925	-0.069877
H64	H	-3.954910	-0.518694	-0.294960
Br65	Br	-3.360322	-0.097377	-0.326284
Br66	Br	-4.581771	-0.118367	-0.759733
H67	H	-4.104098	-0.886667	-0.262223
H68	H	-3.883929	-0.366482	-0.287892
Br69	Br	-3.901147	-0.662542	-0.032968
H70	H	-3.897127	-0.575785	-0.109886
H71	H	-3.514099	-0.098960	-0.452593
H72	H	-3.985375	-0.634627	-0.247883
Br73	Br	-3.666529	-0.094057	-1.016776
Br74	Br	-3.604064	-0.094712	-0.875960
Br75	Br	-4.038302	-0.718090	-0.282873
Br76	Br	-3.300680	-0.091970	-0.597992
H77	H	-4.416431	-0.110914	-1.013564
H78	H	-4.124602	-0.114098	-0.355504
Br79	Br	-4.278403	-0.115662	-0.481787
H80	H	-3.778337	-0.323738	-0.095544
Br81	Br	-4.459726	-0.113704	-0.890643
H82	H	-3.849358	-0.475938	-0.102617
H83	H	-4.427980	-0.116783	-0.633453
H84	H	-3.454464	-0.093574	-0.724283
