data_functionalizedCrystal
_audit_creation_method	'MofGen! by Chris Wilmer'
_symmetry_space_group_name_H-M	'P1'
_symmetry_Int_Tables_number	1
_symmetry_cell_setting	triclinic
loop_
_symmetry_equiv_pos_as_xyz
  x,y,z
_cell_length_a	12.759401
_cell_length_b	12.827892
_cell_length_c	12.827885
_cell_angle_alpha	89.970024
_cell_angle_beta	89.981893
_cell_angle_gamma	90.015669
loop_
_atom_site_label
_atom_site_type_symbol
_atom_site_fract_x
_atom_site_fract_y
_atom_site_fract_z
Zn1	Zn	1.606246	-0.415975	-0.590815
Zn2	Zn	2.106246	0.084025	-0.090815
Zn3	Zn	1.606139	-0.590752	-0.416075
Zn4	Zn	2.106139	-0.090752	0.083925
Zn5	Zn	1.430549	-0.416027	-0.416092
Zn6	Zn	1.930549	0.083973	0.083908
Zn7	Zn	1.430534	-0.590675	-0.590778
Zn8	Zn	1.930534	-0.090675	-0.090778
O9	O	1.518367	-0.503357	-0.503440
O10	O	2.018367	-0.003357	-0.003440
O11	O	1.753253	-0.439170	-0.567643
O12	O	2.253253	0.060830	-0.067643
O13	O	1.582809	-0.567628	-0.269841
O14	O	2.082809	-0.067628	0.230159
O15	O	1.453906	-0.269784	-0.439292
O16	O	1.953906	0.230216	0.060708
O17	O	1.753175	-0.567578	-0.439262
O18	O	2.253175	-0.067578	0.060738
O19	O	1.582990	-0.269746	-0.567660
O20	O	2.082990	0.230254	-0.067660
O21	O	1.453803	-0.439258	-0.269854
O22	O	1.953803	0.060742	0.230146
O23	O	1.283526	-0.439184	-0.439256
O24	O	1.783526	0.060816	0.060744
O25	O	1.453881	-0.567447	-0.737019
O26	O	1.953881	-0.067447	-0.237019
O27	O	1.283515	-0.567497	-0.567598
O28	O	1.783515	-0.067497	-0.067598
O29	O	1.582976	-0.439095	-0.737046
O30	O	2.082976	0.060905	-0.237046
O31	O	1.582794	-0.736978	-0.439227
O32	O	2.082794	-0.236978	0.060773
O33	O	1.453778	-0.736922	-0.567581
O34	O	1.953778	-0.236922	-0.067581
C35	C	1.245400	-0.503338	-0.503425
C36	C	1.745400	-0.003338	-0.003425
C37	C	1.128623	-0.503356	-0.503444
C38	C	1.628623	-0.003356	-0.003444
C39	C	0.964052	-0.570286	-0.570173
C40	C	1.464052	-0.070286	-0.070173
C41	C	1.073776	-0.570274	-0.570162
C42	C	1.573776	-0.070274	-0.070162
C43	C	1.073741	-0.436452	-0.436725
C44	C	1.573741	0.063548	0.063275
C45	C	0.964019	-0.436469	-0.436731
C46	C	1.464019	0.063531	0.063269
C47	C	1.518301	-0.774867	-0.503421
C48	C	2.018301	-0.274867	-0.003421
C49	C	1.518369	-0.891020	-0.503447
C50	C	2.018369	-0.391020	-0.003447
C51	C	1.582216	-0.942703	-0.567025
C52	C	2.082216	-0.442703	-0.067025
C53	C	1.582287	-1.062753	-0.567054
C54	C	2.082287	-0.562753	-0.067054
C55	C	1.792400	-0.503377	-0.503455
C56	C	2.292400	-0.003377	-0.003455
C57	C	1.909177	-0.503385	-0.503461
C58	C	2.409177	-0.003385	-0.003461
C59	C	1.518439	-0.503257	-0.776010
C60	C	2.018439	-0.003257	-0.276010
C61	C	1.518469	-0.503214	-0.892163
C62	C	2.018469	-0.003214	-0.392163
C63	C	1.518462	-0.230787	-0.503482
C64	C	2.018462	0.269213	-0.003482
C65	C	1.518502	-0.114634	-0.503500
C66	C	2.018502	0.385366	-0.003500
C67	C	1.582356	-0.439689	-0.943961
C68	C	2.082356	0.060311	-0.443961
C69	C	1.582389	-0.439643	-1.064012
C70	C	2.082389	0.060357	-0.564012
C71	C	1.518356	-0.503382	-0.231930
C72	C	2.018356	-0.003382	0.268070
C73	C	1.518529	-0.503130	-0.115777
C74	C	2.018529	-0.003130	0.384223
H75	H	1.118406	-0.381970	-0.382397
H76	H	1.618406	0.118030	0.117603
H77	H	1.463842	-1.070195	-0.449062
H78	H	1.963842	-0.570195	0.050938
H79	H	1.463791	-0.557559	-0.936694
H80	H	1.963791	-0.057559	-0.436694
H81	H	1.118450	-0.624753	-0.624485
H82	H	1.618450	-0.124753	-0.124485
H83	H	1.637024	-0.385333	-0.899431
H84	H	2.137024	0.114667	-0.399431
H85	H	1.637089	-0.385261	-1.108557
H86	H	2.137089	0.114739	-0.608557
H87	H	1.463834	-0.557523	-1.071239
H88	H	1.963834	-0.057523	-0.571239
H89	H	0.919338	-0.381989	-0.382401
H90	H	1.419338	0.118011	0.117599
C91	C	1.655991	-0.882422	-0.640529
C92	C	2.155991	-0.382422	-0.140529
H93	H	1.646270	-0.809643	-0.630861
H94	H	2.146270	-0.309643	-0.130861
H95	H	1.640608	-0.900218	-0.710750
H96	H	2.140608	-0.400218	-0.210750
H97	H	1.726620	-0.900209	-0.625306
H98	H	2.226620	-0.400209	-0.125306
H99	H	1.636952	-1.107199	-0.621481
H100	H	2.136952	-0.607199	-0.121481
H101	H	0.919403	-0.624774	-0.624509
H102	H	1.419403	-0.124774	-0.124509
H103	H	1.463757	-0.935650	-0.449043
H104	H	1.963757	-0.435650	0.050957
