data_functionalizedCrystal
_audit_creation_method	'MofGen! by Chris Wilmer'
_symmetry_space_group_name_H-M	'P1'
_symmetry_Int_Tables_number	1
_symmetry_cell_setting	triclinic
loop_
_symmetry_equiv_pos_as_xyz
  x,y,z
_cell_length_a	19.121063
_cell_length_b	17.640112
_cell_length_c	17.640968
_cell_angle_alpha	87.860920
_cell_angle_beta	81.648500
_cell_angle_gamma	76.851119
loop_
_atom_site_label
_atom_site_type_symbol
_atom_site_fract_x
_atom_site_fract_y
_atom_site_fract_z
Zn1	Zn	-0.020114	-1.247036	-0.196194
Zn2	Zn	0.479886	-0.747036	0.303806
Zn3	Zn	-0.164540	-1.215936	-0.077209
Zn4	Zn	0.335460	-0.715936	0.422791
Zn5	Zn	-0.065650	-1.092687	-0.097361
Zn6	Zn	0.434350	-0.592687	0.402639
Zn7	Zn	-0.155325	-1.115017	-0.229281
Zn8	Zn	0.344675	-0.615017	0.270719
O9	O	-0.101407	-1.167669	-0.150011
O10	O	0.398593	-0.667669	0.349989
O11	O	-0.024071	-1.349741	-0.158129
O12	O	0.475929	-0.849741	0.341871
O13	O	-0.174335	-1.177226	0.025122
O14	O	0.325665	-0.677226	0.525122
O15	O	0.038363	-1.116833	-0.105059
O16	O	0.538363	-0.616833	0.394941
O17	O	-0.130180	-1.326892	-0.070712
O18	O	0.369820	-0.826892	0.429288
O19	O	0.071818	-1.230232	-0.177670
O20	O	0.571818	-0.730232	0.322330
O21	O	-0.101681	-1.086676	0.010316
O22	O	0.398319	-0.586676	0.510316
O23	O	-0.092746	-0.988819	-0.137142
O24	O	0.407254	-0.488819	0.362858
O25	O	-0.114475	-1.154890	-0.329896
O26	O	0.385525	-0.654890	0.170104
O27	O	-0.158630	-1.005224	-0.234062
O28	O	0.341370	-0.505224	0.265938
O29	O	-0.015136	-1.251884	-0.305587
O30	O	0.484864	-0.751884	0.194413
O31	O	-0.261289	-1.198878	-0.102795
O32	O	0.238711	-0.698878	0.397205
O33	O	-0.254519	-1.124733	-0.214521
O34	O	0.245481	-0.624733	0.285479
C35	C	-0.283301	-1.160878	-0.160074
C36	C	0.216699	-0.660878	0.339926
C37	C	-0.361101	-1.158048	-0.164389
C38	C	0.138899	-0.658048	0.335611
C39	C	-0.129630	-0.969322	-0.191380
C40	C	0.370370	-0.469322	0.308620
C41	C	-0.141717	-0.884471	-0.209096
C42	C	0.358283	-0.384471	0.290904
C43	C	-0.058698	-1.209347	-0.345729
C44	C	0.441302	-0.709347	0.154271
C45	C	-0.040499	-1.227107	-0.429132
C46	C	0.459501	-0.727107	0.070868
C47	C	-0.401138	-1.195368	-0.108278
C48	C	0.098862	-0.695368	0.391722
C49	C	-0.474238	-1.192712	-0.112340
C50	C	0.025762	-0.692712	0.387660
C51	C	-0.507299	-1.152731	-0.172510
C52	C	-0.007299	-0.652731	0.327490
C53	C	-0.467255	-1.115410	-0.228626
C54	C	0.032745	-0.615410	0.271374
C55	C	-0.394156	-1.118071	-0.224567
C56	C	0.105844	-0.618071	0.275433
C57	C	-0.727835	-1.142766	-0.187679
C58	C	-0.227835	-0.642766	0.312321
C59	C	-0.800941	-1.140106	-0.191733
C60	C	-0.300941	-0.640106	0.308267
C61	C	-0.807918	-1.217410	-0.075447
C62	C	-0.307918	-0.717410	0.424553
C63	C	-0.734818	-1.220063	-0.071390
C64	C	-0.234818	-0.720063	0.428610
C65	C	-0.694779	-1.182746	-0.127508
C66	C	-0.194779	-0.682746	0.372492
C67	C	-0.582019	-1.150013	-0.176662
C68	C	-0.082019	-0.650013	0.323338
C69	C	-0.620060	-1.185469	-0.123359
C70	C	-0.120060	-0.685469	0.376641
C71	C	0.081204	-1.174511	-0.139922
C72	C	0.581204	-0.674511	0.360078
C73	C	0.159022	-1.177426	-0.135622
C74	C	0.659022	-0.677426	0.364378
C75	C	-0.073074	-1.366791	-0.108482
C76	C	0.426926	-0.866791	0.391518
C77	C	-0.061001	-1.451644	-0.090784
C78	C	0.438999	-0.951644	0.409216
C79	C	-0.009571	-0.562686	-0.015428
C80	C	0.490429	-0.062686	0.484572
C81	C	-0.020940	-0.482957	-0.032086
C82	C	0.479060	0.017043	0.467914
C83	C	-0.089704	-0.500055	-0.132851
C84	C	0.410296	-0.000055	0.367149
C85	C	-0.078338	-0.579787	-0.116204
C86	C	0.421662	-0.079787	0.383796
C87	C	-0.038271	-0.611096	-0.057491
C88	C	0.461729	-0.111096	0.442509
C89	C	-0.107038	-0.628197	-0.158266
C90	C	0.392962	-0.128197	0.341734
C91	C	-0.095675	-0.707921	-0.141618
C92	C	0.404325	-0.207921	0.358382
C93	C	-0.055612	-0.739236	-0.082906
C94	C	0.444388	-0.239236	0.417094
C95	C	-0.026908	-0.690820	-0.040842
C96	C	0.473092	-0.190820	0.459158
C97	C	-0.147109	-0.596886	-0.216975
C98	C	0.352891	-0.096886	0.283025
C99	C	-0.175809	-0.645295	-0.259038
C100	C	0.324191	-0.145295	0.240962
C101	C	-0.164442	-0.725022	-0.242393
C102	C	0.335558	-0.225022	0.257607
C103	C	-0.124379	-0.756337	-0.183682
C104	C	0.375621	-0.256337	0.316318
C105	C	-0.193146	-0.773438	-0.284457
C106	C	0.306854	-0.273438	0.215543
C107	C	-0.181784	-0.853163	-0.267809
C108	C	0.318216	-0.353163	0.232191
C109	C	-0.113017	-0.836061	-0.167033
C110	C	0.386983	-0.336061	0.332967
C111	C	-0.239247	-1.033051	-0.766711
C112	C	0.260753	-0.533051	-0.266711
C113	C	-0.222134	-1.049756	-0.845077
C114	C	0.277866	-0.549756	-0.345077
C115	C	-0.118701	-1.150747	-0.819756
C116	C	0.381299	-0.650747	-0.319756
C117	C	-0.135803	-1.134048	-0.741387
C118	C	0.364197	-0.634048	-0.241387
C119	C	-0.196077	-1.075199	-0.714871
C120	C	0.303923	-0.575199	-0.214871
C121	C	-0.092633	-1.176197	-0.689546
C122	C	0.407367	-0.676197	-0.189546
C123	C	-0.109736	-1.159501	-0.611183
C124	C	0.390264	-0.659501	-0.111183
C125	C	-0.170009	-1.100657	-0.584660
C126	C	0.329991	-0.600657	-0.084660
C127	C	-0.213180	-1.058504	-0.636508
C128	C	0.286820	-0.558504	-0.136508
C129	C	-0.032362	-1.235048	-0.716063
C130	C	0.467638	-0.735048	-0.216063
C131	C	0.010807	-1.277197	-0.664223
C132	C	0.510807	-0.777197	-0.164223
C133	C	-0.006292	-1.260498	-0.585859
C134	C	0.493708	-0.760498	-0.085859
C135	C	-0.066565	-1.201654	-0.559336
C136	C	0.433435	-0.701654	-0.059336
C137	C	0.036879	-1.302651	-0.534012
C138	C	0.536879	-0.802651	-0.034012
C139	C	0.019776	-1.285956	-0.455648
C140	C	0.519776	-0.785956	0.044352
C141	C	-0.083668	-1.184959	-0.480973
C142	C	0.416332	-0.684959	0.019027
C143	C	-0.143893	-1.126199	0.044957
C144	C	0.356107	-0.626199	0.544957
C145	C	-0.161874	-1.108594	0.128402
C146	C	0.338126	-0.608594	0.628402
H147	H	-0.374226	-1.227921	-0.059278
H148	H	0.125774	-0.727921	0.440722
H149	H	-0.695242	-1.112379	-0.233372
H150	H	-0.195242	-0.612379	0.266628
H151	H	0.085950	-1.350570	-0.555613
H152	H	0.585950	-0.850570	-0.055613
Br153	Br	-0.321042	-0.953175	-0.730719
Br154	Br	0.178958	-0.453175	-0.230719
H155	H	0.005731	-0.716316	0.006957
H156	H	0.505731	-0.216316	0.506957
H157	H	-0.262247	-1.010566	-0.614920
H158	H	0.237753	-0.510566	-0.114920
H159	H	0.054930	-1.320276	-0.413438
H160	H	0.554930	-0.820276	0.086562
H161	H	-0.257293	-1.015429	-0.887285
H162	H	0.242707	-0.515429	-0.387285
H163	H	-0.208434	-0.619792	-0.306840
H164	H	0.291566	-0.119792	0.193160
H165	H	-0.046363	-0.804153	-0.069350
H166	H	0.453637	-0.304153	0.430650
Br167	Br	0.018006	-0.417257	0.025014
Br168	Br	0.518006	0.082743	0.525014
H169	H	-0.225774	-0.747933	-0.332256
H170	H	0.274226	-0.247933	0.167744
H171	H	-0.080377	-0.861557	-0.119234
H172	H	0.419623	-0.361557	0.380766
H173	H	-0.361557	-1.087682	-0.270259
H174	H	0.138443	-0.587682	0.229741
Br175	Br	-0.528571	-1.243369	-0.036189
Br176	Br	-0.028571	-0.743369	0.463811
H177	H	0.023068	-0.588182	0.032371
H178	H	0.523068	-0.088182	0.532371
Br179	Br	-0.626893	-1.095755	-0.258321
Br180	Br	-0.126893	-0.595755	0.241679
Br181	Br	-0.036906	-1.230614	-0.855749
Br182	Br	0.463094	-0.730614	-0.355749
H183	H	-0.018440	-1.248641	-0.779872
H184	H	0.481560	-0.748641	-0.279872
Br185	Br	-0.220739	-0.918866	-0.324890
Br186	Br	0.279261	-0.418866	0.175110
Br187	Br	-0.845814	-1.085826	-0.273388
Br188	Br	-0.345814	-0.585826	0.226612
H189	H	-0.707901	-1.252619	-0.022394
H190	H	-0.207901	-0.752619	0.477606
Br191	Br	-0.193228	-1.078002	-0.478309
Br192	Br	0.306772	-0.578002	0.021691
H193	H	-0.494178	-1.082860	-0.277621
H194	H	0.005822	-0.582860	0.222379
Br195	Br	0.092602	-1.357064	-0.700216
Br196	Br	0.592602	-0.857064	-0.200216
Br197	Br	-0.144092	-0.457554	-0.212519
Br198	Br	0.355908	0.042446	0.287481
H199	H	-0.593138	-1.218025	-0.074370
H200	H	-0.093138	-0.718025	0.425630
H201	H	-0.840524	-1.247793	-0.029759
H202	H	-0.340524	-0.747793	0.470241
H203	H	-0.156359	-0.531968	-0.230528
H204	H	0.343641	-0.031968	0.269472
H205	H	-0.132735	-1.137021	-0.459385
H206	H	0.367265	-0.637021	0.040615
