data_functionalizedCrystal
_audit_creation_method	'MofGen! by Chris Wilmer'
_symmetry_space_group_name_H-M	'P1'
_symmetry_Int_Tables_number	1
_symmetry_cell_setting	triclinic
loop_
_symmetry_equiv_pos_as_xyz
  x,y,z
_cell_length_a	16.974800
_cell_length_b	15.995350
_cell_length_c	15.455313
_cell_angle_alpha	92.667328
_cell_angle_beta	90.973911
_cell_angle_gamma	83.440933
loop_
_atom_site_label
_atom_site_type_symbol
_atom_site_fract_x
_atom_site_fract_y
_atom_site_fract_z
O1	O	1.049074	0.106736	0.001543
O2	O	1.549074	0.606736	0.501543
O3	O	0.819642	0.119523	-0.014570
O4	O	1.319642	0.619523	0.485430
O5	O	0.940630	-0.008743	-0.006072
O6	O	1.440630	0.491257	0.493928
O7	O	0.928086	0.235002	-0.006955
O8	O	1.428086	0.735002	0.493045
O9	O	0.933711	-0.001439	0.137704
O10	O	1.433711	0.498561	0.637704
O11	O	0.812723	0.126828	0.129206
O12	O	1.312723	0.626828	0.629206
O13	O	1.042156	0.114041	0.145319
O14	O	1.542156	0.614041	0.645319
Cu15	Cu	0.926808	0.121101	0.150391
Cu16	Cu	1.426808	0.621101	0.650391
Cu17	Cu	0.934990	0.112463	-0.019641
Cu18	Cu	1.434990	0.612463	0.480359
O19	O	0.921168	0.242307	0.136822
O20	O	1.421168	0.742307	0.636822
C21	C	0.786823	0.122555	0.055256
C22	C	1.286823	0.622555	0.555256
C23	C	0.699341	0.120697	0.049113
C24	C	1.199341	0.620697	0.549113
C25	C	0.936652	-0.036287	0.065778
C26	C	1.436652	0.463713	0.565778
C27	C	0.935097	-0.129241	0.065664
C28	C	1.435097	0.370759	0.565664
C29	C	0.654476	0.123804	0.124601
C30	C	1.154476	0.623804	0.624601
C31	C	0.572279	0.122045	0.118830
C32	C	1.072279	0.622045	0.618830
C33	C	0.534949	0.117185	0.037571
C34	C	1.034949	0.617185	0.537571
C35	C	0.579821	0.114076	-0.037923
C36	C	1.079821	0.614076	0.462077
C37	C	0.662017	0.115829	-0.032151
C38	C	1.162017	0.615829	0.467849
C39	C	0.289524	0.111510	0.011907
C40	C	0.789524	0.611510	0.511907
C41	C	0.207322	0.109759	0.006141
C42	C	0.707322	0.609759	0.506141
C43	C	0.199786	0.117727	0.162895
C44	C	0.699786	0.617727	0.662895
C45	C	0.281983	0.119485	0.168659
C46	C	0.781983	0.619485	0.668659
C47	C	0.326849	0.116371	0.093165
C48	C	0.826849	0.616371	0.593165
N49	N	0.450930	0.115390	0.031671
N50	N	0.950930	0.615390	0.531671
N51	N	0.410866	0.118160	0.099066
N52	N	0.910866	0.618160	0.599066
C53	C	0.929514	-0.467002	0.065275
C54	C	1.429514	0.032998	0.565275
C55	C	0.843364	-0.419787	0.058901
C56	C	1.343364	0.080213	0.558901
C57	C	0.844904	-0.323077	0.059334
C58	C	1.344904	0.176923	0.559334
C59	C	0.932284	-0.299435	0.065467
C60	C	1.432284	0.200565	0.565467
C61	C	0.970833	-0.336241	0.150554
C62	C	1.470833	0.163759	0.650554
C63	C	0.968665	-0.432878	0.150470
C64	C	1.468665	0.067122	0.650470
C65	C	0.978313	-0.441539	-0.012905
C66	C	1.478313	0.058461	0.487095
C67	C	0.978344	-0.344649	-0.013992
C68	C	1.478344	0.155351	0.486008
C69	C	0.933853	-0.204734	0.065579
C70	C	1.433853	0.295266	0.565579
C71	C	0.927947	-0.561703	0.065169
C72	C	1.427947	-0.061703	0.565169
C73	C	1.074974	0.111008	0.075491
C74	C	1.574974	0.611008	0.575491
C75	C	1.162456	0.112866	0.081629
C76	C	1.662456	0.612866	0.581629
C77	C	0.925146	0.269851	0.064970
C78	C	1.425146	0.769851	0.564970
C79	C	0.926700	0.362805	0.065078
C80	C	1.426700	0.862805	0.565078
N81	N	0.921059	0.127176	0.269982
N82	N	1.421059	0.627176	0.769982
N83	N	0.940745	0.106381	-0.139233
N84	N	1.440745	0.606381	0.360767
C85	C	0.972476	0.072705	0.318988
C86	C	1.472476	0.572705	0.818988
C87	C	0.968136	0.077307	0.409491
C88	C	1.468136	0.577307	0.909491
C89	C	0.912381	0.136386	0.450987
C90	C	1.412381	0.636386	0.950987
C91	C	0.860957	0.190860	0.401975
C92	C	1.360957	0.690860	0.901975
C93	C	0.865295	0.186253	0.311473
C94	C	1.365295	0.686253	0.811473
C95	C	0.893659	0.156248	0.721254
C96	C	1.393659	0.656248	1.221254
C97	C	0.889327	0.160853	0.811762
C98	C	1.389327	0.660853	1.311762
C99	C	0.996505	0.047298	0.819272
C100	C	1.496505	0.547298	1.319272
C101	C	1.000841	0.042700	0.728768
C102	C	1.500841	0.542700	1.228768
C103	C	0.949415	0.097171	0.679764
C104	C	1.449415	0.597171	1.179764
N105	N	0.907944	0.141093	0.543496
N106	N	1.407944	0.641093	1.043496
N107	N	0.953848	0.092459	0.587257
N108	N	1.453848	0.592459	1.087257
H109	H	0.684863	0.127768	0.190771
H110	H	1.184863	0.627768	0.690771
C111	C	0.522929	0.125469	0.201867
C112	C	1.022929	0.625469	0.701867
H113	H	0.556933	0.128626	0.251088
H114	H	1.056933	0.628626	0.751088
H115	H	0.496720	0.076170	0.203304
H116	H	0.996720	0.576170	0.703304
H117	H	0.484695	0.173739	0.202446
H118	H	0.984695	0.673739	0.702446
C119	C	0.538762	0.108743	-0.127308
C120	C	1.038762	0.608743	0.372692
H121	H	0.577257	0.107140	-0.171439
H122	H	1.077257	0.607140	0.328561
H123	H	0.500845	0.156681	-0.133232
H124	H	1.000845	0.656681	0.366768
H125	H	0.512863	0.059109	-0.132403
H126	H	1.012863	0.559109	0.367597
C127	C	0.338867	0.108105	-0.071130
C128	C	0.838867	0.608105	0.428870
H129	H	0.393168	0.109840	-0.056061
H130	H	0.893168	0.609840	0.443939
H131	H	0.320926	0.154968	-0.104693
H132	H	0.820926	0.654968	0.395307
H133	H	0.332959	0.057397	-0.103862
H134	H	0.832959	0.557397	0.396138
C135	C	0.940379	-0.312036	-0.098990
C136	C	1.440379	0.187964	0.401010
H137	H	0.896642	-0.271032	-0.086116
H138	H	1.396642	0.228968	0.413884
H139	H	0.922574	-0.357619	-0.132587
H140	H	1.422574	0.142381	0.367413
H141	H	0.978499	-0.287315	-0.130698
H142	H	1.478499	0.212685	0.369302
C143	C	0.944300	-0.473639	-0.099644
C144	C	1.444300	0.026361	0.400356
H145	H	0.900014	-0.502873	-0.088987
H146	H	1.400014	-0.002873	0.411013
H147	H	0.983863	-0.510653	-0.129034
H148	H	1.483863	-0.010653	0.370966
H149	H	0.928017	-0.427185	-0.134415
H150	H	1.428017	0.072815	0.365585
C151	C	1.024703	0.017395	0.463394
C152	C	1.524703	0.517395	0.963394
H153	H	1.058538	-0.018440	0.425719
H154	H	1.558538	0.481560	0.925719
H155	H	0.994675	-0.015753	0.496722
H156	H	1.494675	0.484247	0.996722
H157	H	1.055811	0.049422	0.500987
H158	H	1.555811	0.549422	1.000987
H159	H	1.038373	0.002949	0.859179
H160	H	1.538373	0.502949	1.359179
H161	H	0.698545	0.113300	-0.093622
H162	H	1.198545	0.613300	0.406378
H163	H	0.938374	-0.304825	0.209580
H164	H	1.438374	0.195175	0.709580
C165	C	0.837099	0.216171	0.667361
C166	C	1.337099	0.716171	1.167361
H167	H	0.803281	0.252021	0.705039
H168	H	1.303281	0.752021	1.205039
H169	H	0.805987	0.184161	0.629764
H170	H	1.305987	0.684161	1.129764
H171	H	0.867141	0.249317	0.634036
H172	H	1.367141	0.749317	1.134036
C173	C	1.062167	-0.022292	0.683128
C174	C	1.562167	0.477708	1.183128
H175	H	1.092164	-0.054080	0.725277
H176	H	1.592164	0.445920	1.225277
H177	H	1.096659	0.006127	0.650113
H178	H	1.596659	0.506127	1.150113
H179	H	1.035506	-0.059030	0.645847
H180	H	1.535506	0.440970	1.145847
H181	H	0.815556	0.238960	0.435766
H182	H	1.315556	0.738960	0.935766
C183	C	0.803588	-0.288820	-0.023332
C184	C	1.303588	0.211180	0.476668
H185	H	0.785707	-0.334020	-0.057481
H186	H	1.285707	0.165980	0.442519
H187	H	0.839982	-0.262212	-0.055634
H188	H	1.339982	0.237788	0.444366
H189	H	0.759567	-0.249104	-0.007876
H190	H	1.259567	0.250896	0.492124
C191	C	0.827952	0.225797	0.857403
C192	C	1.327952	0.725797	1.357403
H193	H	0.797929	0.257561	0.815256
H194	H	1.297929	0.757561	1.315256
H195	H	0.854563	0.262553	0.894706
H196	H	1.354563	0.762553	1.394706
H197	H	0.793479	0.197323	0.890395
H198	H	1.293479	0.697323	1.390395
H199	H	0.823424	0.230609	0.271573
H200	H	1.323424	0.730609	0.771573
H201	H	0.934720	-0.448135	0.209669
H202	H	1.434720	0.051865	0.709669
C203	C	0.800657	-0.448979	-0.023895
C204	C	1.300657	0.051021	0.476105
H205	H	0.834979	-0.490227	-0.055317
H206	H	1.334979	0.009773	0.444683
H207	H	0.786436	-0.402158	-0.058819
H208	H	1.286436	0.097842	0.441181
H209	H	0.754210	-0.472583	-0.008624
H210	H	1.254210	0.027417	0.491376
H211	H	1.042304	-0.329389	-0.014476
H212	H	1.542304	0.170611	0.485524
H213	H	1.041869	-0.473178	-0.008998
H214	H	1.541869	0.026822	0.491002
H215	H	0.808434	-0.292296	0.115926
H216	H	1.308434	0.207704	0.615926
C217	C	0.323038	0.124851	0.258044
C218	C	0.823038	0.624851	0.758044
H219	H	0.284545	0.126450	0.302177
H220	H	0.784545	0.626450	0.802177
H221	H	0.348926	0.174488	0.263113
H222	H	0.848926	0.674488	0.763113
H223	H	0.360966	0.076920	0.263991
H224	H	0.860966	0.576920	0.763991
H225	H	0.163248	0.120261	0.224357
H226	H	0.663248	0.620261	0.724357
H227	H	0.806260	-0.436488	0.115042
H228	H	1.306260	0.063512	0.615042
C229	C	1.053877	-0.475989	0.161517
C230	C	1.553877	0.024011	0.661517
H231	H	1.089664	-0.434419	0.166043
H232	H	1.589664	0.065581	0.666043
H233	H	1.067131	-0.512997	0.112775
H234	H	1.567131	-0.012997	0.612775
H235	H	1.057408	-0.507136	0.212569
H236	H	1.557408	-0.007136	0.712569
H237	H	0.176930	0.105804	-0.060033
H238	H	0.676930	0.605804	0.439967
H239	H	1.034882	-0.321809	0.158113
H240	H	1.534882	0.178191	0.658113
C241	C	1.033806	0.007716	0.273350
C242	C	1.533806	0.507716	0.773350
H243	H	1.063801	-0.024071	0.315501
H244	H	1.563801	0.475929	0.815501
H245	H	1.068301	0.036133	0.240335
H246	H	1.568301	0.536133	0.740335
H247	H	1.007147	-0.029023	0.236069
H248	H	1.507147	0.470977	0.736069
