data_functionalizedCrystal
_audit_creation_method	'MofGen! by Chris Wilmer'
_symmetry_space_group_name_H-M	'P1'
_symmetry_Int_Tables_number	1
_symmetry_cell_setting	triclinic
loop_
_symmetry_equiv_pos_as_xyz
  x,y,z
_cell_length_a	12.827893
_cell_length_b	18.215405
_cell_length_c	18.215387
_cell_angle_alpha	90.093990
_cell_angle_beta	89.944345
_cell_angle_gamma	89.975144
loop_
_atom_site_label
_atom_site_type_symbol
_atom_site_fract_x
_atom_site_fract_y
_atom_site_fract_z
Zn1	Zn	1.597976	0.292532	-0.416062
Zn2	Zn	2.097976	0.792532	0.083938
Zn3	Zn	1.597730	0.415739	-0.292990
Zn4	Zn	2.097730	0.915739	0.207010
Zn5	Zn	1.423106	0.292691	-0.293013
Zn6	Zn	1.923106	0.792691	0.206987
Zn7	Zn	1.423174	0.415561	-0.416019
Zn8	Zn	1.923174	0.915561	0.083981
O9	O	1.510497	0.354131	-0.354521
O10	O	2.010497	0.854131	0.145479
O11	O	1.744179	0.308883	-0.399744
O12	O	2.244179	0.808883	0.100256
O13	O	1.574435	0.399558	-0.190008
O14	O	2.074435	0.899558	0.309992
O15	O	1.446378	0.189686	-0.309364
O16	O	1.946378	0.689686	0.190636
O17	O	1.743999	0.399403	-0.309323
O18	O	2.243999	0.899403	0.190677
O19	O	1.574854	0.189568	-0.399767
O20	O	2.074854	0.689568	0.100233
O21	O	1.446140	0.309155	-0.190026
O22	O	1.946140	0.809155	0.309974
O23	O	1.276879	0.308982	-0.309323
O24	O	1.776879	0.808982	0.190677
O25	O	1.446493	0.399100	-0.519009
O26	O	1.946493	0.899100	-0.019009
O27	O	1.276929	0.399254	-0.399695
O28	O	1.776929	0.899254	0.100305
O29	O	1.574919	0.308710	-0.519041
O30	O	2.074919	0.808710	-0.019041
O31	O	1.574500	0.518700	-0.309282
O32	O	2.074500	1.018700	0.190718
O33	O	1.446254	0.518569	-0.399671
O34	O	1.946254	1.018569	0.100329
C35	C	1.238987	0.354117	-0.354507
C36	C	1.738987	0.854117	0.145493
C37	C	1.122834	0.354128	-0.354518
C38	C	1.622834	0.854128	0.145482
C39	C	1.510741	0.353867	-0.546474
C40	C	2.010741	0.853867	-0.046474
C41	C	1.510845	0.353755	-0.628274
C42	C	2.010845	0.853755	-0.128274
C43	C	1.510386	0.545337	-0.354486
C44	C	2.010386	1.045337	0.145514
C45	C	1.510435	0.627136	-0.354495
C46	C	2.010435	1.127136	0.145505
C47	C	1.071101	0.398868	-0.399168
C48	C	1.571101	0.898868	0.100832
C49	C	0.951051	0.398881	-0.399181
C50	C	1.451051	0.898881	0.100819
C51	C	1.783067	0.354145	-0.354535
C52	C	2.283067	0.854145	0.145465
C53	C	1.899220	0.354152	-0.354542
C54	C	2.399220	0.854152	0.145458
C55	C	1.510636	0.162178	-0.354573
C56	C	2.010636	0.662178	0.145427
C57	C	1.510695	0.080379	-0.354595
C58	C	2.010695	0.580379	0.145405
C59	C	1.577369	0.815373	-0.307516
C60	C	2.077369	1.315373	0.192484
C61	C	1.577416	0.892232	-0.307534
C62	C	2.077416	1.392232	0.192466
C63	C	1.443758	0.892136	-0.401579
C64	C	1.943758	1.392136	0.098421
C65	C	1.443717	0.815279	-0.401564
C66	C	1.943717	1.315279	0.098436
C67	C	1.510521	0.776899	-0.354529
C68	C	2.010521	1.276899	0.145471
C69	C	1.510609	0.930615	-0.354561
C70	C	2.010609	1.430615	0.145439
C71	C	1.510659	1.013949	-0.354581
C72	C	2.010659	1.513949	0.145419
C73	C	1.510473	0.693560	-0.354510
C74	C	2.010473	1.193560	0.145490
C75	C	1.510313	0.354340	-0.163314
C76	C	2.010313	0.854340	0.336686
C77	C	1.510412	0.354245	-0.081516
C78	C	2.010412	0.854245	0.418484
C79	C	1.577047	0.306561	0.183331
C80	C	2.077047	0.806561	0.683331
C81	C	1.576973	0.306643	0.106473
C82	C	2.076973	0.806643	0.606473
C83	C	1.444202	0.401441	0.106885
C84	C	1.944202	0.901441	0.606885
C85	C	1.444272	0.401355	0.183742
C86	C	1.944272	0.901355	0.683742
C87	C	1.510701	0.353917	0.221963
C88	C	2.010701	0.853917	0.721963
C89	C	1.510556	0.354083	0.068248
C90	C	2.010556	0.854083	0.568248
C91	C	1.510474	0.354172	-0.015086
C92	C	2.010474	0.854172	0.484914
C93	C	1.510781	0.353827	0.305302
C94	C	2.010781	0.853827	0.805302
H95	H	1.115687	0.437158	-0.437388
H96	H	1.615687	0.937158	0.062612
H97	H	0.943702	0.315849	-0.316311
H98	H	1.443702	0.815849	0.183689
H99	H	1.078247	0.315832	-0.316305
H100	H	1.578247	0.815832	0.183695
H101	H	1.630997	0.268080	0.075022
H102	H	2.130997	0.768080	0.575022
C103	C	1.370178	0.772951	-0.453281
C104	C	1.870178	1.272951	0.046719
C105	C	1.370138	0.688411	-0.453266
C106	C	1.870138	1.188411	0.046734
C107	C	1.296606	0.646083	-0.504982
C108	C	1.796606	1.146083	-0.004982
C109	C	1.223114	0.688295	-0.556713
C110	C	1.723114	1.188295	-0.056713
C111	C	1.223152	0.772840	-0.556730
C112	C	1.723152	1.272840	-0.056730
C113	C	1.296683	0.815168	-0.505014
C114	C	1.796683	1.315168	-0.005014
H115	H	1.424543	0.657159	-0.414970
H116	H	1.924543	1.157159	0.085030
H117	H	1.296579	0.583497	-0.504969
H118	H	1.796579	1.083497	-0.004969
H119	H	1.168682	0.656961	-0.594996
H120	H	1.668682	1.156961	-0.094996
H121	H	1.168746	0.804092	-0.595026
H122	H	1.668746	1.304092	-0.095026
H123	H	1.296711	0.877754	-0.505026
H124	H	1.796711	1.377754	-0.005026
H125	H	0.906561	0.437186	-0.437406
H126	H	1.406561	0.937186	0.062594
C127	C	1.371142	0.453627	0.064839
C128	C	1.871142	0.953627	0.564839
C129	C	1.371065	0.453727	-0.019700
C130	C	1.871065	0.953727	0.480300
C131	C	1.298005	0.505917	-0.061744
C132	C	1.798005	1.005917	0.438256
C133	C	1.225023	0.558006	-0.019247
C134	C	1.725023	1.058006	0.480753
C135	C	1.225097	0.557908	0.065297
C136	C	1.725097	1.057908	0.565297
C137	C	1.298156	0.505718	0.107341
C138	C	1.798156	1.005718	0.607341
H139	H	1.425093	0.415166	-0.051163
H140	H	1.925093	0.915166	0.448837
H141	H	1.297951	0.505989	-0.124330
H142	H	1.797951	1.005989	0.375670
H143	H	1.170940	0.596640	-0.050370
H144	H	1.670940	1.096640	0.449630
H145	H	1.171068	0.596469	0.096760
H146	H	1.671068	1.096469	0.596760
H147	H	1.298211	0.505646	0.169926
H148	H	1.798211	1.005646	0.669926
H149	H	1.390238	0.439917	0.215197
H150	H	1.890238	0.939917	0.715197
C151	C	1.650108	0.254374	0.225376
C152	C	2.150108	0.754374	0.725376
C153	C	1.723082	0.202281	0.182878
C154	C	2.223082	0.702281	0.682878
C155	C	1.796142	0.150090	0.224919
C156	C	2.296142	0.650090	0.724919
C157	C	1.796227	0.149993	0.309459
C158	C	2.296227	0.649993	0.809459
C159	C	1.723250	0.202088	0.351962
C160	C	2.223250	0.702088	0.851962
C161	C	1.650190	0.254279	0.309920
C162	C	2.150190	0.754279	0.809920
H163	H	1.723022	0.202351	0.120292
H164	H	2.223022	0.702351	0.620292
H165	H	1.850165	0.111526	0.193456
H166	H	2.350165	0.611526	0.693456
H167	H	1.850310	0.111358	0.340581
H168	H	2.350310	0.611358	0.840581
H169	H	1.723310	0.202018	0.414548
H170	H	2.223310	0.702018	0.914548
H171	H	1.596168	0.292843	0.341384
H172	H	2.096168	0.792843	0.841384
H173	H	1.389367	0.923394	-0.439873
H174	H	1.889367	1.423394	0.060127
C175	C	1.650860	0.773155	-0.255784
C176	C	2.150860	1.273155	0.244216
C177	C	1.724396	0.815480	-0.204074
C178	C	2.224396	1.315480	0.295926
C179	C	1.797891	0.773264	-0.152343
C180	C	2.297891	1.273264	0.347657
C181	C	1.797851	0.688724	-0.152321
C182	C	2.297851	1.188724	0.347679
C183	C	1.724312	0.646395	-0.204032
C184	C	2.224312	1.146395	0.295968
C185	C	1.650816	0.688611	-0.255764
C186	C	2.150816	1.188611	0.244236
H187	H	1.724428	0.878066	-0.204089
H188	H	2.224428	1.378066	0.295911
H189	H	1.852329	0.804600	-0.114062
H190	H	2.352329	1.304600	0.385938
H191	H	1.852256	0.657474	-0.114026
H192	H	2.352256	1.157474	0.385974
H193	H	1.724279	0.583809	-0.204018
H194	H	2.224279	1.083809	0.295982
H195	H	1.596378	0.657275	-0.294044
H196	H	2.096378	1.157275	0.205956
H197	H	1.631852	0.923554	-0.269252
H198	H	2.131852	1.423554	0.230748
