data_functionalizedCrystal
_audit_creation_method	'MofGen! by Chris Wilmer'
_symmetry_space_group_name_H-M	'P1'
_symmetry_Int_Tables_number	1
_symmetry_cell_setting	triclinic
loop_
_symmetry_equiv_pos_as_xyz
  x,y,z
_cell_length_a	12.759401
_cell_length_b	17.637651
_cell_length_c	12.759393
_cell_angle_alpha	78.749835
_cell_angle_beta	89.980623
_cell_angle_gamma	101.220882
loop_
_atom_site_label
_atom_site_type_symbol
_atom_site_fract_x
_atom_site_fract_y
_atom_site_fract_z
Zn1	Zn	1.521699	-0.314689	-0.509342
Zn2	Zn	1.486060	-0.446928	-0.298084
Zn3	Zn	1.345988	-0.314734	-0.333666
Zn4	Zn	1.310472	-0.446871	-0.473738
O5	O	1.416055	-0.380805	-0.403708
O6	O	1.663991	-0.332236	-0.481327
O7	O	1.467428	-0.429435	-0.155772
O8	O	1.399075	-0.204085	-0.386762
O9	O	1.637807	-0.429391	-0.326117
O10	O	1.528169	-0.204052	-0.515830
O11	O	1.364518	-0.332312	-0.181914
O12	O	1.194257	-0.332257	-0.352238
O13	O	1.338543	-0.429294	-0.625494
O14	O	1.168164	-0.429337	-0.455149
O15	O	1.493730	-0.332180	-0.651652
O16	O	1.432989	-0.557563	-0.291593
O17	O	1.303985	-0.557521	-0.420646
C18	C	1.143090	-0.380796	-0.403692
C19	C	1.026309	-0.380812	-0.403705
C20	C	0.875338	-0.330311	-0.484614
C21	C	0.985063	-0.330309	-0.484604
C22	C	0.957823	-0.431325	-0.322817
C23	C	0.848099	-0.431331	-0.322833
C24	C	0.891066	-0.271987	-0.578018
C25	C	1.000791	-0.271985	-0.578008
C26	C	1.360795	-0.586230	-0.348418
C27	C	1.337250	-0.674112	-0.324800
C28	C	1.595602	-0.962763	-0.583462
C29	C	1.573445	-1.045341	-0.561251
C30	C	1.439109	-1.045483	-0.426723
C31	C	1.461258	-0.962903	-0.448919
C32	C	1.539505	-0.921550	-0.527291
C33	C	1.405162	-0.921690	-0.392747
C34	C	1.427306	-0.839117	-0.414946
C35	C	1.505546	-0.797758	-0.493316
C36	C	1.561649	-0.838977	-0.549489
C37	C	1.326910	-0.963045	-0.314382
C38	C	1.270814	-0.921831	-0.258210
C39	C	1.292962	-0.839257	-0.280403
C40	C	1.371203	-0.797898	-0.358773
C41	C	1.236860	-0.798038	-0.224230
C42	C	1.259004	-0.715465	-0.246428
C43	C	1.393347	-0.715325	-0.380971
C44	C	1.690085	-0.380815	-0.403724
C45	C	1.806861	-0.380819	-0.403731
C46	C	1.416150	-0.380726	-0.677763
C47	C	1.416190	-0.380692	-0.794548
C48	C	1.471559	-0.174578	-0.459236
C49	C	1.495212	-0.086697	-0.482899
C50	C	1.497007	-0.330120	-0.863034
C51	C	1.497040	-0.330091	-0.972766
C52	C	1.335434	-0.431213	-0.945515
C53	C	1.335398	-0.431237	-0.835787
C54	C	1.590311	-0.271740	-0.878767
C55	C	1.590344	-0.271711	-0.988499
C56	C	1.416036	-0.380828	-0.130734
C57	C	1.416259	-0.380639	-0.014009
H58	H	0.872672	-0.213795	-0.564667
H59	H	1.667308	-0.288110	-1.013866
C60	C	1.247577	-0.485995	-0.990262
C61	C	1.148257	-0.468766	-0.968224
C62	C	1.067299	-0.519210	-1.009438
H63	H	1.248500	-0.539152	-0.958010
H64	H	1.259102	-0.478730	-1.065434
H65	H	1.136735	-0.476038	-0.893067
H66	H	1.147298	-0.415618	-1.000477
H67	H	1.078824	-0.511945	-1.084609
H68	H	1.068233	-0.572365	-0.977182
H69	H	0.999902	-0.507523	-0.994499
H70	H	0.991413	-0.472452	-0.256954
H71	H	1.375398	-1.079164	-0.362915
C72	C	1.062268	-0.190277	-0.570996
C73	C	0.990179	-0.140298	-0.566725
C74	C	1.046770	-0.065033	-0.560233
H75	H	1.109133	-0.169855	-0.632148
H76	H	1.102682	-0.193545	-0.508321
H77	H	0.949784	-0.137027	-0.629394
H78	H	0.943313	-0.160694	-0.505577
H79	H	1.087183	-0.068301	-0.497557
H80	H	1.093632	-0.044619	-0.621386
H81	H	0.997866	-0.031115	-0.557324
C82	C	1.038513	-0.301173	-0.673157
C83	C	1.116245	-0.241733	-0.733839
C84	C	1.151028	-0.268595	-0.821489
H85	H	0.979634	-0.314392	-0.716189
H86	H	1.068280	-0.346492	-0.648413
H87	H	1.086476	-0.196429	-0.758584
H88	H	1.175142	-0.228507	-0.690839
H89	H	1.180795	-0.313913	-0.796745
H90	H	1.092142	-0.281813	-0.864512
H91	H	1.203779	-0.228272	-0.862667
H92	H	0.856900	-0.288457	-0.654926
C93	C	0.773932	-0.486204	-0.234898
C94	C	0.833539	-0.530421	-0.164036
C95	C	0.765254	-0.580973	-0.083007
H96	H	0.721850	-0.520758	-0.265607
H97	H	0.739269	-0.455942	-0.197278
H98	H	0.868184	-0.560681	-0.201651
H99	H	0.885618	-0.495887	-0.133300
H100	H	0.730592	-0.550710	-0.045386
H101	H	0.713176	-0.615521	-0.113725
H102	H	0.805689	-0.610974	-0.034911
H103	H	1.308873	-1.030281	-0.296320
C104	C	1.197904	-0.670811	-0.185483
C105	C	1.088541	-0.690952	-0.202836
C106	C	1.032216	-0.649839	-0.146705
H107	H	1.222159	-0.615700	-0.209871
H108	H	1.209612	-0.684384	-0.111236
H109	H	1.076839	-0.677374	-0.277067
H110	H	1.064254	-0.746056	-0.178443
H111	H	1.043924	-0.663412	-0.072458
H112	H	1.056480	-0.594730	-0.171098
H113	H	0.958007	-0.663504	-0.158463
H114	H	1.457071	-0.681654	-0.444782
H115	H	1.523575	-0.730522	-0.511388
C116	C	1.646601	-0.794213	-0.634660
C117	C	1.690978	-0.847977	-0.679124
C118	C	1.769220	-0.806770	-0.757596
H119	H	1.701132	-0.761992	-0.603294
H120	H	1.615034	-0.762019	-0.689110
H121	H	1.722546	-0.880158	-0.624683
H122	H	1.636475	-0.880200	-0.710511
H123	H	1.737653	-0.774575	-0.812046
H124	H	1.823743	-0.774550	-0.726221
H125	H	1.799332	-0.843242	-0.787781
H126	H	1.269587	-0.472415	-0.780029
C127	C	1.583050	-0.190170	-0.860878
C128	C	1.490650	-0.195314	-0.798545
C129	C	1.483931	-0.120193	-0.782031
H130	H	1.580052	-0.156069	-0.927873
H131	H	1.644168	-0.169829	-0.824944
H132	H	1.429548	-0.215645	-0.834480
H133	H	1.493627	-0.229401	-0.731539
H134	H	1.545049	-0.099852	-0.746097
H135	H	1.480936	-0.086098	-0.849030
H136	H	1.421244	-0.123674	-0.739729
H137	H	1.661685	-0.293690	-0.838827
C138	C	1.634488	-1.089946	-0.622343
C139	C	1.707756	-1.036053	-0.695718
C140	C	1.764002	-1.077113	-0.752014
H141	H	1.585731	-1.122147	-0.659510
H142	H	1.671718	-1.122147	-0.573584
H143	H	1.670528	-1.003865	-0.744470
H144	H	1.756535	-1.003849	-0.658578
H145	H	1.801232	-1.109314	-0.703256
H146	H	1.715237	-1.109313	-0.789176
H147	H	1.813728	-1.040553	-0.801799
C148	C	1.185943	-0.966876	-0.173122
C149	C	1.178573	-1.048011	-0.165684
C150	C	1.100414	-1.089528	-0.087298
H151	H	1.118896	-0.953466	-0.191964
H152	H	1.204986	-0.953418	-0.106141
H153	H	1.159524	-1.061463	-0.232649
H154	H	1.245600	-1.061444	-0.146827
H155	H	1.119457	-1.076071	-0.020318
H156	H	1.033373	-1.076112	-0.106148
H157	H	1.095410	-1.144582	-0.082234
C158	C	1.572207	-0.194136	-1.054629
C159	C	1.473189	-0.180414	-1.024248
C160	C	1.456447	-0.108957	-1.085131
H161	H	1.572769	-0.196702	-1.128295
H162	H	1.627454	-0.152401	-1.042854
H163	H	1.417957	-0.222138	-1.036032
H164	H	1.472604	-0.177833	-0.950592
H165	H	1.511693	-0.067222	-1.073356
H166	H	1.457013	-0.111530	-1.158793
H167	H	1.389267	-0.099634	-1.064519
C168	C	1.151992	-0.842840	-0.139006
C169	C	1.180284	-0.822790	-0.040465
C170	C	1.102121	-0.864036	0.038064
H171	H	1.146763	-0.897932	-0.133688
H172	H	1.085004	-0.829314	-0.157893
H173	H	1.247254	-0.836321	-0.021582
H174	H	1.185505	-0.767705	-0.045748
H175	H	1.035133	-0.850510	0.019177
H176	H	1.096898	-0.919126	0.043373
H177	H	1.121302	-0.850432	0.104931
H178	H	1.659326	-0.929092	-0.647273
