data_functionalizedCrystal
_audit_creation_method	'MofGen! by Chris Wilmer'
_symmetry_space_group_name_H-M	'P1'
_symmetry_Int_Tables_number	1
_symmetry_cell_setting	triclinic
loop_
_symmetry_equiv_pos_as_xyz
  x,y,z
_cell_length_a	17.077404
_cell_length_b	19.805405
_cell_length_c	17.077396
_cell_angle_alpha	89.968350
_cell_angle_beta	89.980499
_cell_angle_gamma	90.026635
loop_
_atom_site_label
_atom_site_type_symbol
_atom_site_fract_x
_atom_site_fract_y
_atom_site_fract_z
Zn1	Zn	1.200035	-0.269459	-0.443825
Zn2	Zn	1.199934	-0.382652	-0.312552
Zn3	Zn	1.068767	-0.269483	-0.312573
Zn4	Zn	1.068727	-0.382612	-0.443776
O5	O	1.134366	-0.326052	-0.378182
O6	O	1.309869	-0.284481	-0.426424
O7	O	1.182509	-0.367667	-0.202708
O8	O	1.086239	-0.174763	-0.330014
O9	O	1.309795	-0.367644	-0.329978
O10	O	1.182681	-0.174746	-0.426444
O11	O	1.086141	-0.284522	-0.202724
O12	O	0.958915	-0.284483	-0.329966
O13	O	1.086171	-0.367575	-0.553629
O14	O	0.958886	-0.367598	-0.426360
O15	O	1.182643	-0.284442	-0.553666
O16	O	1.182470	-0.477363	-0.329930
O17	O	1.086073	-0.477334	-0.426339
C18	C	0.930418	-0.326039	-0.378160
C19	C	0.843168	-0.326050	-0.378169
C20	C	0.802183	-0.369394	-0.428281
C21	C	0.720203	-0.369395	-0.428294
C22	C	0.679209	-0.326056	-0.378190
C23	C	0.720200	-0.282708	-0.328076
C24	C	0.802179	-0.282703	-0.328068
C25	C	0.549330	-0.282721	-0.328095
C26	C	0.467345	-0.282726	-0.328102
C27	C	0.467354	-0.369413	-0.428321
C28	C	0.549333	-0.369409	-0.428313
C29	C	0.590318	-0.326061	-0.378197
C30	C	1.134278	-0.501908	-0.378144
C31	C	1.134312	-0.577140	-0.378154
C32	C	1.184555	-0.612477	-0.328006
C33	C	1.184588	-0.683165	-0.328023
C34	C	1.134374	-0.718515	-0.378185
C35	C	1.084129	-0.683173	-0.428338
C36	C	1.084100	-0.612486	-0.428324
C37	C	1.084245	-0.968246	-0.428397
C38	C	1.084276	-1.038938	-0.428405
C39	C	1.184733	-1.038925	-0.328095
C40	C	1.184704	-0.968238	-0.328081
C41	C	1.134462	-0.932902	-0.378237
C42	C	1.134427	-0.856254	-0.378219
C43	C	1.134404	-0.795162	-0.378200
C44	C	1.339110	-0.326064	-0.378204
C45	C	1.426360	-0.326070	-0.378213
C46	C	1.134414	-0.326002	-0.582926
C47	C	1.134434	-0.325980	-0.670176
C48	C	1.134476	-0.149509	-0.378237
C49	C	1.134523	-0.074277	-0.378261
C50	C	1.184668	-0.282690	-0.711186
C51	C	1.184678	-0.282667	-0.793167
C52	C	1.134456	-0.325939	-0.834135
C53	C	1.084216	-0.369232	-0.793119
C54	C	1.084203	-0.369251	-0.711140
C55	C	1.084248	-0.369191	-0.963989
C56	C	1.084261	-0.369174	-1.045974
C57	C	1.184722	-0.282608	-1.046016
C58	C	1.184709	-0.282626	-0.964037
C59	C	1.134470	-0.325920	-0.923026
C60	C	1.134364	-0.326052	-0.174234
C61	C	1.134496	-0.325883	-0.086984
H62	H	0.582697	-0.247417	-0.287293
H63	H	1.043289	-0.404496	-0.677751
O64	O	1.035317	-0.411195	-0.832878
C65	C	0.957088	-0.396414	-0.812823
H66	H	0.953155	-0.342345	-0.790307
H67	H	0.918313	-0.402232	-0.866726
H68	H	0.936539	-0.432710	-0.765220
O69	O	1.233371	-0.240556	-0.671429
C70	C	1.216271	-0.173093	-0.691499
H71	H	1.153565	-0.169670	-0.714022
H72	H	1.223045	-0.139664	-0.637601
H73	H	1.258372	-0.155393	-0.739101
O74	O	1.035546	-0.933900	-0.477195
C75	C	1.080182	-0.892937	-0.527924
H76	H	1.142014	-0.914187	-0.532834
H77	H	1.051752	-0.892127	-0.588305
H78	H	1.082872	-0.839375	-0.503653
O79	O	0.589241	-0.411413	-0.477023
C80	C	0.636684	-0.372926	-0.527810
H81	H	0.648974	-0.321602	-0.500230
H82	H	0.694326	-0.400501	-0.538266
H83	H	0.605119	-0.365555	-0.586001
O84	O	0.680300	-0.411534	-0.476858
C85	C	0.632853	-0.455209	-0.432071
H86	H	0.620560	-0.431267	-0.372638
H87	H	0.575213	-0.464317	-0.464029
H88	H	0.664417	-0.505358	-0.423333
H89	H	1.225590	-0.939458	-0.287232
O90	O	0.427401	-0.240666	-0.279486
C91	C	0.346256	-0.249946	-0.290268
H92	H	0.335043	-0.302224	-0.315825
H93	H	0.315060	-0.245251	-0.231496
H94	H	0.323049	-0.209869	-0.332198
O95	O	1.233416	-0.717387	-0.279233
C96	C	1.277740	-0.671028	-0.234966
H97	H	1.245566	-0.620665	-0.232211
H98	H	1.286154	-0.691484	-0.173130
H99	H	1.337339	-0.663448	-0.263761
O100	O	0.680465	-0.240641	-0.279297
C101	C	0.700440	-0.255355	-0.201027
H102	H	0.759951	-0.281367	-0.199337
H103	H	0.703249	-0.206467	-0.165933
H104	H	0.654275	-0.290128	-0.174519
O105	O	1.233533	-1.073356	-0.279465
C106	C	1.222791	-1.143327	-0.290224
H107	H	1.197037	-1.152960	-0.350776
H108	H	1.281610	-1.170145	-0.284978
H109	H	1.181040	-1.163456	-0.243620
H110	H	0.835548	-0.247405	-0.287266
H111	H	1.043386	-1.067719	-0.469259
H112	H	1.225441	-0.583699	-0.287155
H113	H	1.043247	-0.711961	-0.469184
H114	H	0.835555	-0.404688	-0.469079
O115	O	0.427634	-0.411489	-0.477114
C116	C	0.447697	-0.396778	-0.555381
H117	H	0.507231	-0.370755	-0.557057
H118	H	0.450499	-0.445669	-0.590468
H119	H	0.401586	-0.362016	-0.581906
H120	H	1.043188	-0.583715	-0.469161
O121	O	1.233484	-0.240452	-1.085759
C122	C	1.216356	-0.172997	-1.065751
H123	H	1.186170	-0.171611	-1.006225
H124	H	1.273028	-0.142653	-1.062960
H125	H	1.176023	-0.150180	-1.111888
O126	O	1.035399	-0.411226	-1.085651
C127	C	0.991063	-0.449450	-1.031877
H128	H	0.988351	-0.421742	-0.973448
H129	H	0.929216	-0.456655	-1.055556
H130	H	1.019768	-0.500863	-1.023146
O131	O	1.233507	-0.240706	-0.833096
C132	C	1.284200	-0.279229	-0.880507
H133	H	1.256488	-0.330521	-0.892763
H134	H	1.294733	-0.251645	-0.938167
H135	H	1.342368	-0.286672	-0.848932
O136	O	1.233378	-0.240547	-0.924160
C137	C	1.188690	-0.196830	-0.876773
H138	H	1.129192	-0.220713	-0.864470
H139	H	1.220655	-0.187758	-0.819135
H140	H	1.180088	-0.146670	-0.908394
O141	O	1.035561	-0.411281	-0.924058
C142	C	1.080232	-0.455015	-0.876649
H143	H	1.139731	-0.431143	-0.864398
H144	H	1.048253	-0.464097	-0.818987
H145	H	1.088832	-0.505169	-0.908226
