data_functionalizedCrystal
_audit_creation_method	'MofGen! by Chris Wilmer'
_symmetry_space_group_name_H-M	'P1'
_symmetry_Int_Tables_number	1
_symmetry_cell_setting	triclinic
loop_
_symmetry_equiv_pos_as_xyz
  x,y,z
_cell_length_a	9.065218
_cell_length_b	12.503572
_cell_length_c	9.065218
_cell_angle_alpha	86.422702
_cell_angle_beta	85.015885
_cell_angle_gamma	93.570693
loop_
_atom_site_label
_atom_site_type_symbol
_atom_site_fract_x
_atom_site_fract_y
_atom_site_fract_z
O1	O	1.968796	0.089319	0.207934
O2	O	1.539511	0.089320	0.225681
O3	O	1.763027	0.089317	0.002165
O4	O	1.745281	0.089322	0.431450
O5	O	1.746218	-0.089325	0.019003
O6	O	1.522702	-0.089322	0.242519
O7	O	1.951987	-0.089323	0.224772
Cu8	Cu	1.735810	-0.105634	0.235183
Cu9	Cu	1.755689	0.105631	0.215270
O10	O	1.728471	-0.089320	0.448288
C11	C	1.476120	-0.000001	0.232394
C12	C	1.312277	-0.000000	0.227294
N13	N	1.721839	-0.254226	0.249188
C14	C	1.701287	-0.473341	0.269802
C15	C	1.790218	-0.526669	0.180645
C16	C	1.778783	-0.648592	0.192115
C17	C	1.712720	-0.351407	0.258334
C18	C	2.015378	0.000000	0.218059
C19	C	2.179222	0.000007	0.223158
N20	N	1.769671	0.254223	0.201254
C21	C	1.752917	-0.000002	-0.044402
C22	C	1.747818	0.000003	-0.208246
C23	C	1.738582	0.000001	0.494855
C24	C	1.743682	0.000003	0.658698
H25	H	1.874944	-0.480757	0.095702
Cl26	Cl	1.570489	-0.544219	0.400947
