data_functionalizedCrystal
_audit_creation_method	'MofGen! by Chris Wilmer'
_symmetry_space_group_name_H-M	'P1'
_symmetry_Int_Tables_number	1
_symmetry_cell_setting	triclinic
loop_
_symmetry_equiv_pos_as_xyz
  x,y,z
_cell_length_a	13.339070
_cell_length_b	14.519731
_cell_length_c	12.376457
_cell_angle_alpha	101.297478
_cell_angle_beta	75.589755
_cell_angle_gamma	99.659074
loop_
_atom_site_label
_atom_site_type_symbol
_atom_site_fract_x
_atom_site_fract_y
_atom_site_fract_z
O1	O	1.362545	0.449832	-0.094056
O2	O	1.862545	0.949832	0.405944
O3	O	1.067902	0.389120	-0.094048
O4	O	1.567902	0.889120	0.405952
O5	O	1.223022	0.287224	-0.094042
O6	O	1.723022	0.787224	0.405958
O7	O	1.207425	0.551727	-0.094062
O8	O	1.707425	1.051727	0.405938
O9	O	1.184256	0.312653	0.093968
O10	O	1.684256	0.812653	0.593968
O11	O	1.029135	0.414549	0.093962
O12	O	1.529135	0.914549	0.593962
O13	O	1.323779	0.475261	0.093954
O14	O	1.823779	0.975261	0.593954
Zn15	Zn	1.170302	0.448942	0.123809
Zn16	Zn	1.670302	0.948942	0.623809
Zn17	Zn	1.221378	0.415438	-0.123903
Zn18	Zn	1.721378	0.915438	0.376097
O19	O	1.168658	0.577156	0.093948
O20	O	1.668658	1.077156	0.593948
C21	C	1.010810	0.391579	-0.000042
C22	C	1.510810	0.891579	0.499958
C23	C	0.898449	0.361009	-0.000038
C24	C	1.398449	0.861009	0.499962
C25	C	1.202908	0.265393	-0.000037
C26	C	1.702908	0.765393	0.499963
C27	C	1.200717	0.162456	-0.000036
C28	C	1.700717	0.662456	0.499964
C29	C	0.534114	0.598699	-0.000074
C30	C	1.034114	1.098699	0.499926
C31	C	0.639682	0.627422	-0.000081
C32	C	1.139682	1.127422	0.499919
C33	C	0.704379	0.560822	-0.000070
C34	C	1.204379	1.060822	0.499930
C35	C	0.663497	0.465492	-0.000053
C36	C	1.163497	0.965492	0.499947
C37	C	0.557920	0.436764	-0.000055
C38	C	1.057920	0.936764	0.499945
C39	C	0.728185	0.398887	-0.000051
C40	C	1.228185	0.898887	0.499949
C41	C	0.687304	0.303558	-0.000034
C42	C	1.187304	0.803558	0.499966
C43	C	0.581737	0.274835	-0.000035
C44	C	1.081737	0.774835	0.499965
C45	C	0.517040	0.341435	-0.000046
C46	C	1.017040	0.841435	0.499954
C47	C	0.833762	0.427615	-0.000049
C48	C	1.333762	0.927615	0.499951
C49	C	0.857569	0.265681	-0.000029
C50	C	1.357569	0.765681	0.499971
C51	C	0.752000	0.236957	-0.000023
C52	C	1.252000	0.736957	0.499977
C53	C	1.198938	0.078859	-0.000038
C54	C	1.698938	0.578859	0.499962
C55	C	1.196715	-0.026017	-0.000047
C56	C	1.696715	0.473983	0.499953
C57	C	1.194952	-0.109606	-0.000054
C58	C	1.694952	0.390394	0.499946
C59	C	1.192729	-0.214488	-0.000061
C60	C	1.692729	0.285512	0.499939
C61	C	1.380871	0.472802	-0.000055
C62	C	1.880871	0.972802	0.499945
C63	C	1.493233	0.503370	-0.000065
C64	C	1.993233	1.003370	0.499935
C65	C	1.188773	0.598987	-0.000060
C66	C	1.688773	1.098987	0.499940
C67	C	1.190965	0.701923	-0.000068
C68	C	1.690965	1.201923	0.499932
N69	N	1.135451	0.471809	0.292866
N70	N	1.635451	0.971809	0.792866
N71	N	1.256237	0.392566	-0.292960
N72	N	1.756237	0.892566	0.207040
C73	C	1.337137	0.339467	0.647859
C74	C	1.837137	0.839467	1.147859
C75	C	1.361524	0.323460	0.529520
C76	C	1.861524	0.823460	1.029520
C77	C	1.305008	0.360546	0.470351
C78	C	1.805008	0.860546	0.970351
C79	C	1.224101	0.413641	0.529532
C80	C	1.724101	0.913641	1.029532
C81	C	1.199717	0.429655	0.647882
C82	C	1.699717	0.929655	1.147882
C83	C	1.167587	0.450734	0.470374
C84	C	1.667587	0.950734	0.970374
C85	C	1.086681	0.503829	0.529555
C86	C	1.586681	1.003829	1.029555
C87	C	1.062301	0.519840	0.647894
C88	C	1.562301	1.019840	1.147894
C89	C	1.118817	0.482754	0.707064
C90	C	1.618817	0.982754	1.207064
C91	C	1.191971	0.434720	0.352024
C92	C	1.691971	0.934720	0.852024
C93	C	1.054551	0.524909	0.352047
C94	C	1.554551	1.024909	0.852047
C95	C	1.030165	0.540915	0.470386
C96	C	1.530165	1.040915	0.970386
H97	H	0.867037	0.505233	-0.000058
H98	H	1.367037	1.005233	0.499942
H99	H	0.790337	0.584214	-0.000078
H100	H	1.290337	1.084214	0.499922
Br101	Br	0.695160	0.756790	-0.000113
Br102	Br	1.195160	1.256790	0.499887
Br103	Br	0.446314	0.689071	-0.000113
Br104	Br	0.946314	1.189071	0.499887
H105	H	0.548457	0.197210	-0.000034
H106	H	1.048457	0.697210	0.499966
Br107	Br	1.413843	0.289155	0.728159
Br108	Br	1.913843	0.789155	1.228159
H109	H	0.964289	0.584146	0.518586
H110	H	1.464289	1.084146	1.018586
H111	H	1.324867	0.347511	0.373994
H112	H	1.824867	0.847511	0.873994
H113	H	1.008532	0.555109	0.303872
H114	H	1.508532	1.055109	0.803872
H115	H	0.910246	0.211448	-0.000025
H116	H	1.410246	0.711448	0.499975
Br117	Br	1.471322	0.251410	0.449204
Br118	Br	1.971322	0.751410	0.949204
Br119	Br	0.696505	0.107585	0.000002
Br120	Br	1.196505	0.607585	0.500002
Br121	Br	1.085712	0.504471	0.867674
Br122	Br	1.585712	1.004471	1.367674
Br123	Br	0.373760	0.302457	-0.000030
Br124	Br	0.873760	0.802457	0.499970
H125	H	1.257846	0.391491	0.303849
H126	H	1.757846	0.891491	0.803849
H127	H	0.996430	0.563082	0.696080
H128	H	1.496430	1.063082	1.196080
