data_functionalizedCrystal
_audit_creation_method	'MofGen! by Chris Wilmer'
_symmetry_space_group_name_H-M	'P1'
_symmetry_Int_Tables_number	1
_symmetry_cell_setting	triclinic
loop_
_symmetry_equiv_pos_as_xyz
  x,y,z
_cell_length_a	10.654550
_cell_length_b	9.130313
_cell_length_c	10.654550
_cell_angle_alpha	90.002847
_cell_angle_beta	84.484931
_cell_angle_gamma	90.000488
loop_
_atom_site_label
_atom_site_type_symbol
_atom_site_fract_x
_atom_site_fract_y
_atom_site_fract_z
O1	O	1.667840	0.121690	0.176396
O2	O	1.302362	0.121716	0.193202
O3	O	1.493504	0.121693	0.002060
O4	O	1.476698	0.121713	0.367538
O5	O	1.493489	-0.121906	0.002060
O6	O	1.302347	-0.121882	0.193202
O7	O	1.667826	-0.121909	0.176396
Cu8	Cu	1.485085	-0.144138	0.184799
Cu9	Cu	1.485102	0.143946	0.184799
O10	O	1.476683	-0.121886	0.367538
C11	C	1.255556	-0.000080	0.191968
C12	C	1.116113	-0.000070	0.188276
C13	C	1.492263	-0.000105	-0.044738
C14	C	1.488571	-0.000103	-0.184181
C15	C	1.036628	-0.000068	0.300818
C16	C	0.905607	-0.000093	0.297341
C17	C	0.933570	-0.000117	0.068772
C18	C	1.064588	-0.000101	0.072250
C19	C	1.714631	-0.000110	0.177630
C20	C	1.854074	-0.000110	0.181322
N21	N	1.485082	-0.346761	0.184798
C22	C	1.561913	-0.423409	0.261680
C23	C	1.561934	-0.576746	0.261673
C24	C	1.408281	-0.576773	0.107899
C25	C	1.408268	-0.423439	0.107900
N26	N	1.485115	0.346568	0.184790
C27	C	1.601112	-0.000111	-0.263667
C28	C	1.597636	-0.000092	-0.394688
C29	C	1.369066	-0.000065	-0.366725
C30	C	1.372544	-0.000073	-0.235706
C31	C	1.477925	-0.000084	0.414336
C32	C	1.481616	-0.000077	0.553779
H33	H	0.840894	-0.000095	0.388984
O34	O	1.713923	-0.000057	-0.213822
C35	C	1.812508	-0.000091	-0.312080
H36	H	1.776524	0.046030	-0.401372
H37	H	1.893443	0.070630	-0.284001
H38	H	1.847276	-0.116958	-0.330322
O39	O	1.636652	-0.349150	0.336403
C40	C	1.704446	-0.449690	0.404280
H41	H	1.711333	-0.558993	0.352353
H42	H	1.803265	-0.405376	0.412991
H43	H	1.653564	-0.466001	0.502383
O44	O	1.141862	-0.000358	-0.037046
C45	C	1.218516	-0.126493	-0.041851
H46	H	1.171100	-0.214673	0.021951
H47	H	1.232378	-0.168849	-0.142888
H48	H	1.314051	-0.097957	-0.008505
O49	O	1.636387	-0.651364	0.336428
C50	C	1.560559	-0.740044	0.421429
H51	H	1.467043	-0.763032	0.381473
H52	H	1.611178	-0.847860	0.435886
H53	H	1.542140	-0.680952	0.515661
H54	H	1.345740	-0.639223	0.045293
O55	O	1.333511	-0.349200	0.033179
C56	C	1.265731	-0.449754	-0.034709
H57	H	1.258853	-0.559056	0.017211
H58	H	1.166909	-0.405456	-0.043422
H59	H	1.316620	-0.466061	-0.132810
H60	H	1.280893	-0.000062	-0.170985
O61	O	1.706841	-0.000037	-0.472080
C62	C	1.678899	-0.000053	-0.598771
H63	H	1.580213	0.046079	-0.604646
H64	H	1.750572	0.070669	-0.657483
H65	H	1.683320	-0.116915	-0.636629
O66	O	1.256472	-0.000114	-0.416987
C67	C	1.277531	-0.000078	-0.549672
H68	H	1.375270	-0.046203	-0.579585
H69	H	1.203218	-0.070794	-0.590540
H70	H	1.271134	0.116790	-0.586184
H71	H	0.891602	-0.000151	-0.025693
O72	O	1.086473	-0.000114	0.413628
C73	C	0.988215	-0.000084	0.512213
H74	H	0.898924	-0.046215	0.476229
H75	H	1.016295	-0.070798	0.593148
H76	H	0.969971	0.116783	0.546983
