data_functionalizedCrystal
_audit_creation_method	'MofGen! by Chris Wilmer'
_symmetry_space_group_name_H-M	'P1'
_symmetry_Int_Tables_number	1
_symmetry_cell_setting	triclinic
loop_
_symmetry_equiv_pos_as_xyz
  x,y,z
_cell_length_a	10.685980
_cell_length_b	14.908178
_cell_length_c	10.685986
_cell_angle_alpha	82.053409
_cell_angle_beta	90.307287
_cell_angle_gamma	97.409567
loop_
_atom_site_label
_atom_site_type_symbol
_atom_site_fract_x
_atom_site_fract_y
_atom_site_fract_z
Zn1	Zn	1.847913	-0.211881	-0.838217
Zn2	Zn	2.347913	0.288119	-0.338217
Zn3	Zn	1.851772	-0.374857	-0.614339
Zn4	Zn	2.351772	0.125143	-0.114339
Zn5	Zn	1.652464	-0.235143	-0.610346
Zn6	Zn	2.152464	0.264857	-0.110346
Zn7	Zn	1.625896	-0.376545	-0.807808
Zn8	Zn	2.125896	0.123455	-0.307808
O9	O	1.744511	-0.299607	-0.717678
O10	O	2.244511	0.200393	-0.217678
O11	O	2.024751	-0.223059	-0.822916
O12	O	2.524751	0.276941	-0.322916
O13	O	1.838067	-0.365352	-0.437477
O14	O	2.338067	0.134648	0.062523
O15	O	1.687894	-0.104675	-0.651629
O16	O	2.187894	0.395325	-0.151629
O17	O	2.027586	-0.342796	-0.658434
O18	O	2.527586	0.157204	-0.158434
O19	O	1.831490	-0.087584	-0.819045
O20	O	2.331490	0.412416	-0.319045
O21	O	1.691636	-0.262706	-0.434544
O22	O	2.191636	0.237294	0.065456
O23	O	1.472614	-0.264342	-0.622143
O24	O	1.972614	0.235658	-0.122143
O25	O	1.642614	-0.345673	-0.988174
O26	O	2.142614	0.154327	-0.488174
O27	O	1.453095	-0.368229	-0.767217
O28	O	1.953095	0.131771	-0.267217
O29	O	1.805728	-0.224695	-1.010515
O30	O	2.305728	0.275305	-0.510515
O31	O	1.812305	-0.502464	-0.628948
O32	O	2.312305	-0.002464	-0.128948
O33	O	1.646356	-0.503704	-0.771089
O34	O	2.146356	-0.003704	-0.271089
C35	C	1.417135	-0.318994	-0.690947
C36	C	1.917135	0.181006	-0.190947
C37	C	1.277078	-0.327308	-0.679540
C38	C	1.777078	0.172692	-0.179540
C39	C	1.726898	-0.536109	-0.697182
C40	C	2.226898	-0.036109	-0.197182
C41	C	1.719476	-0.637277	-0.688466
C42	C	2.219476	-0.137277	-0.188466
C43	C	1.854919	-0.809434	-0.846579
C44	C	2.354919	-0.309434	-0.346579
C45	C	1.847949	-0.904490	-0.838394
C46	C	2.347949	-0.404490	-0.338394
C47	C	1.698560	-0.922446	-0.663916
C48	C	2.198560	-0.422446	-0.163916
C49	C	1.705530	-0.827390	-0.672102
C50	C	2.205530	-0.327390	-0.172102
C51	C	1.783714	-0.770887	-0.763435
C52	C	2.283714	-0.270887	-0.263435
C53	C	1.790690	-0.675830	-0.771614
C54	C	2.290690	-0.175830	-0.271614
C55	C	1.641294	-0.693788	-0.597143
C56	C	2.141294	-0.193788	-0.097143
C57	C	1.634324	-0.788843	-0.588957
C58	C	2.134324	-0.288843	-0.088957
C59	C	2.073166	-0.280144	-0.744513
C60	C	2.573166	0.219856	-0.244513
C61	C	2.213219	-0.271851	-0.755948
C62	C	2.713219	0.228149	-0.255948
C63	C	1.720777	-0.282778	-1.046344
C64	C	2.220777	0.217222	-0.546344
C65	C	1.710663	-0.275606	-1.186402
C66	C	2.210663	0.224394	-0.686402
C67	C	1.762225	-0.062177	-0.738283
C68	C	2.262225	0.437823	-0.238283
C69	C	1.769774	0.039001	-0.747064
C70	C	2.269774	0.539001	-0.247064
C71	C	1.768230	-0.316300	-0.390301
C72	C	2.268230	0.183700	0.109699
C73	C	1.778608	-0.323201	-0.250286
C74	C	2.278608	0.176799	0.249714
H75	H	1.224597	-0.381152	-0.605386
H76	H	1.724597	0.118848	-0.105386
H77	H	1.918589	-0.763428	-0.920938
H78	H	2.418589	-0.263428	-0.420938
H79	H	1.265694	-0.218005	-0.830090
H80	H	1.765694	0.281995	-0.330090
N81	N	1.865922	-0.384434	-1.180815
N82	N	2.365922	0.115566	-0.680815
H83	H	1.860977	-0.381069	-1.087250
H84	H	2.360977	0.118931	-0.587250
H85	H	1.839854	-0.449443	-1.196541
H86	H	2.339854	0.050557	-0.696541
N87	N	1.623343	-0.214371	-1.255878
N88	N	2.123343	0.285629	-0.755878
H89	H	1.649387	-0.149326	-1.240291
H90	H	2.149387	0.350674	-0.740291
H91	H	1.628285	-0.217839	-1.349412
H92	H	2.128285	0.282161	-0.849412
N93	N	1.875016	-0.614884	-0.870114
N94	N	2.375016	-0.114884	-0.370114
H95	H	1.919063	-0.653731	-0.921545
H96	H	2.419063	-0.153731	-0.421545
H97	H	1.822356	-0.575519	-0.927583
H98	H	2.322356	-0.075519	-0.427583
H99	H	1.583317	-0.662393	-0.529437
H100	H	2.083317	-0.162393	-0.029437
N101	N	1.924740	-0.946053	-0.928094
N102	N	2.424740	-0.446053	-0.428094
H103	H	2.017413	-0.925119	-0.917397
H104	H	2.517413	-0.425119	-0.417397
H105	H	1.908364	-1.014837	-0.909023
H106	H	2.408364	-0.514837	-0.409023
N107	N	1.614246	-0.983395	-0.565409
N108	N	2.114246	-0.483395	-0.065409
H109	H	1.620641	-1.049460	-0.572843
H110	H	2.120641	-0.549460	-0.072843
H111	H	1.641666	-0.970233	-0.478474
H112	H	2.141666	-0.470233	0.021526
H113	H	1.570666	-0.834861	-0.514600
H114	H	2.070666	-0.334861	-0.014600
