data_functionalizedCrystal
_audit_creation_method	'MofGen! by Chris Wilmer'
_symmetry_space_group_name_H-M	'P1'
_symmetry_Int_Tables_number	1
_symmetry_cell_setting	triclinic
loop_
_symmetry_equiv_pos_as_xyz
  x,y,z
_cell_length_a	11.026607
_cell_length_b	10.868271
_cell_length_c	11.792241
_cell_angle_alpha	90.005281
_cell_angle_beta	96.389716
_cell_angle_gamma	90.003487
loop_
_atom_site_label
_atom_site_type_symbol
_atom_site_fract_x
_atom_site_fract_y
_atom_site_fract_z
O1	O	1.613294	0.102332	0.475910
O2	O	1.946627	0.435665	0.809244
O3	O	2.279961	0.768999	1.142577
O4	O	1.259631	0.102332	0.421719
O5	O	1.592965	0.435666	0.755052
O6	O	1.926298	0.768999	1.088385
O7	O	1.445045	0.102323	0.285348
O8	O	1.778378	0.435657	0.618682
O9	O	2.111712	0.768990	0.952015
O10	O	1.427880	0.102341	0.612281
O11	O	1.761214	0.435674	0.945614
O12	O	2.094547	0.769007	1.278948
O13	O	1.445030	-0.102321	0.285338
O14	O	1.778363	0.231012	0.618672
O15	O	2.111696	0.564345	0.952005
O16	O	1.259616	-0.102312	0.421709
O17	O	1.592949	0.231021	0.755042
O18	O	1.926283	0.564354	1.088376
O19	O	1.613279	-0.102313	0.475901
O20	O	1.946612	0.231021	0.809234
O21	O	2.279945	0.564354	1.142567
Zn22	Zn	1.436445	-0.134804	0.448803
Zn23	Zn	1.769778	0.198529	0.782137
Zn24	Zn	2.103112	0.531862	1.115470
Zn25	Zn	1.436465	0.134824	0.448816
Zn26	Zn	1.769798	0.468157	0.782150
Zn27	Zn	2.103132	0.801491	1.115483
O28	O	1.427865	-0.102304	0.612271
O29	O	1.761198	0.231029	0.945604
O30	O	2.094532	0.564363	1.278938
C31	C	1.214347	0.000010	0.411716
C32	C	1.547680	0.333343	0.745050
C33	C	1.881014	0.666677	1.078383
C34	C	1.079437	0.000010	0.381914
C35	C	1.412770	0.333343	0.715247
C36	C	1.746104	0.666677	1.048580
N37	N	1.436440	-0.318818	0.448795
N38	N	1.769773	0.014515	0.782129
N39	N	2.103107	0.347848	1.115462
C40	C	1.006173	0.000015	0.464204
C41	C	1.339506	0.333349	0.797537
C42	C	1.672839	0.666682	1.130871
C43	C	0.866736	0.000015	0.433403
C44	C	1.200069	0.333349	0.766737
C45	C	1.533402	0.666682	1.100070
C46	C	1.436459	-0.569824	0.448813
C47	C	1.769792	-0.236491	0.782146
C48	C	2.103125	0.096842	1.115479
C49	C	1.436444	-0.430147	0.448806
C50	C	1.769778	-0.096814	0.782139
C51	C	2.103111	0.236520	1.115472
C52	C	1.658563	0.000012	0.485903
C53	C	1.991896	0.333346	0.819236
C54	C	2.325230	0.666679	1.152570
C55	C	1.793473	0.000020	0.515706
C56	C	2.126806	0.333354	0.849039
C57	C	2.460140	0.666687	1.182372
C58	C	1.443959	0.000002	0.242838
C59	C	1.777293	0.333335	0.576172
C60	C	2.110626	0.666668	0.909505
C61	C	1.440732	0.000003	0.116184
C62	C	1.774065	0.333336	0.449517
C63	C	2.107399	0.666669	0.782850
N64	N	1.436480	0.318838	0.448817
N65	N	1.769813	0.652171	0.782150
N66	N	2.103146	0.985505	1.115484
C67	C	1.434798	0.000023	-0.115707
C68	C	1.768131	0.333357	0.217627
C69	C	2.101464	0.666690	0.550960
C70	C	1.438095	0.000012	0.013333
C71	C	1.771428	0.333345	0.346666
C72	C	2.104762	0.666679	0.680000
C73	C	1.428951	0.000021	0.654781
C74	C	1.762284	0.333354	0.988114
C75	C	2.095617	0.666687	1.321448
C76	C	1.432178	0.000028	0.781436
C77	C	1.765511	0.333361	1.114769
C78	C	2.098845	0.666694	1.448102
H79	H	1.046678	0.000013	0.557458
H80	H	1.380011	0.333346	0.890791
H81	H	1.713344	0.666680	1.224125
C82	C	0.848171	0.000034	0.641693
C83	C	1.181504	0.333367	0.975026
C84	C	1.514838	0.666700	1.308359
H85	H	0.934712	0.000043	0.645870
H86	H	1.268045	0.333377	0.979203
H87	H	1.601379	0.666710	1.312536
H88	H	0.821775	-0.071324	0.678468
H89	H	1.155108	0.262010	1.011802
H90	H	1.488441	0.595343	1.345135
H91	H	0.821785	0.071413	0.678460
H92	H	1.155118	0.404747	1.011793
H93	H	1.488451	0.738080	1.345127
C94	C	0.812035	0.000015	0.307417
C95	C	1.145368	0.333349	0.640751
C96	C	1.478702	0.666682	0.974084
H97	H	0.725494	0.000026	0.303243
H98	H	1.058827	0.333359	0.636576
H99	H	1.392161	0.666693	0.969910
H100	H	0.838420	-0.071347	0.270635
H101	H	1.171753	0.261986	0.603968
H102	H	1.505086	0.595320	0.937301
H103	H	0.838431	0.071390	0.270655
H104	H	1.171764	0.404723	0.603988
H105	H	1.505097	0.738057	0.937322
H106	H	1.038932	0.000037	0.288660
H107	H	1.372265	0.333370	0.621993
H108	H	1.705599	0.666703	0.955326
