data_functionalizedCrystal
_audit_creation_method	'MofGen! by Chris Wilmer'
_symmetry_space_group_name_H-M	'P1'
_symmetry_Int_Tables_number	1
_symmetry_cell_setting	triclinic
loop_
_symmetry_equiv_pos_as_xyz
  x,y,z
_cell_length_a	12.837943
_cell_length_b	11.295483
_cell_length_c	12.837942
_cell_angle_alpha	94.530417
_cell_angle_beta	85.171060
_cell_angle_gamma	94.538773
loop_
_atom_site_label
_atom_site_type_symbol
_atom_site_fract_x
_atom_site_fract_y
_atom_site_fract_z
O1	O	1.408689	0.099003	-0.265788
O2	O	1.908689	0.599003	0.234212
O3	O	1.105556	0.099010	-0.252345
O4	O	1.605556	0.599010	0.247655
O5	O	1.250401	0.098999	-0.107500
O6	O	1.750401	0.598999	0.392500
O7	O	1.263845	0.099013	-0.410633
O8	O	1.763845	0.599013	0.089367
O9	O	1.237676	-0.099051	-0.120201
O10	O	1.737676	0.400949	0.379799
O11	O	1.092832	-0.099040	-0.265045
O12	O	1.592832	0.400960	0.234955
O13	O	1.395965	-0.099047	-0.278489
O14	O	1.895965	0.400953	0.221511
Cu15	Cu	1.243237	-0.117127	-0.272927
Cu16	Cu	1.743237	0.382873	0.227073
Cu17	Cu	1.258285	0.117090	-0.257907
Cu18	Cu	1.758285	0.617090	0.242093
O19	O	1.251121	-0.099037	-0.423333
O20	O	1.751121	0.400963	0.076667
C21	C	1.060125	-0.000014	-0.254153
C22	C	1.560125	0.499986	0.245847
C23	C	0.943710	-0.000012	-0.240609
C24	C	1.443710	0.499988	0.259391
N25	N	1.232661	-0.281863	-0.283491
N26	N	1.732661	0.218137	0.216509
C27	C	0.718835	-0.000021	-0.403439
C28	C	1.218835	0.499979	0.096561
C29	C	0.609453	-0.000020	-0.390717
C30	C	1.109453	0.499980	0.109283
C31	C	0.615561	-0.000016	-0.202446
C32	C	1.115561	0.499984	0.297554
C33	C	0.724943	-0.000017	-0.215167
C34	C	1.224943	0.499983	0.284833
C35	C	0.776576	-0.000018	-0.315667
C36	C	1.276576	0.499982	0.184333
C37	C	0.885961	-0.000011	-0.328387
C38	C	1.385961	0.499989	0.171613
C39	C	0.892066	-0.000016	-0.140117
C40	C	1.392066	0.499984	0.359883
C41	C	0.782684	-0.000015	-0.127396
C42	C	1.282684	0.499985	0.372604
C43	C	1.344996	-0.531161	-0.171231
C44	C	1.844996	-0.031161	0.328769
C45	C	1.337012	-0.655824	-0.179223
C46	C	1.837012	-0.155824	0.320777
C47	C	1.208702	-0.655854	-0.307459
C48	C	1.708702	-0.155854	0.192541
C49	C	1.216687	-0.531191	-0.299467
C50	C	1.716687	-0.031191	0.200533
C51	C	1.284837	-0.468849	-0.231353
C52	C	1.784837	0.031151	0.268647
C53	C	1.292826	-0.344183	-0.223367
C54	C	1.792826	0.155817	0.276633
C55	C	1.164512	-0.344216	-0.351597
C56	C	1.664512	0.155784	0.148403
C57	C	1.156528	-0.468879	-0.359589
C58	C	1.656528	0.031121	0.140411
C59	C	1.441396	-0.000021	-0.276680
C60	C	1.941396	0.499979	0.223320
C61	C	1.557812	-0.000015	-0.290224
C62	C	2.057812	0.499985	0.209776
C63	C	1.239497	-0.000025	-0.074781
C64	C	1.739497	0.499975	0.425219
C65	C	1.225953	-0.000023	0.041634
C66	C	1.725953	0.499977	0.541634
N67	N	1.268868	0.281825	-0.247335
N68	N	1.768868	0.781825	0.252665
C69	C	1.262024	-0.000010	-0.456052
C70	C	1.762024	0.499990	0.043948
C71	C	1.275569	-0.000004	-0.572467
C72	C	1.775569	0.499996	-0.072467
C73	C	1.388784	-0.000002	0.266509
C74	C	1.888784	0.499998	0.766509
C75	C	1.376062	0.000000	0.375892
C76	C	1.876062	0.500000	0.875892
C77	C	1.187791	-0.000008	0.369784
C78	C	1.687791	0.499992	0.869784
C79	C	1.200512	-0.000010	0.260402
C80	C	1.700512	0.499990	0.760402
C81	C	1.301011	-0.000009	0.208768
C82	C	1.801011	0.499991	0.708768
C83	C	1.313731	-0.000020	0.099383
C84	C	1.813731	0.499980	0.599383
C85	C	1.125461	-0.000019	0.093278
C86	C	1.625461	0.499981	0.593278
C87	C	1.112740	-0.000017	0.202660
C88	C	1.612740	0.499983	0.702660
H89	H	0.928000	-0.000014	-0.410219
H90	H	1.428000	0.499986	0.089781
O91	O	1.079408	-0.000004	0.425497
O92	O	1.579408	0.499996	0.925497
H93	H	1.041896	0.080722	0.408220
H94	H	1.541896	0.580722	0.908220
H95	H	1.395563	-0.000023	0.057344
H96	H	1.895563	0.499977	0.557344
H97	H	1.348320	-0.293425	-0.167908
H98	H	1.848320	0.206575	0.332092
O99	O	1.497171	0.000001	0.210807
O100	O	1.997171	0.500001	0.710807
H101	H	1.556070	0.000011	0.269337
H102	H	2.056070	0.500011	0.769337
H103	H	1.400494	-0.480401	-0.115777
H104	H	1.900494	0.019599	0.384223
O105	O	1.004346	-0.000034	0.258350
O106	O	1.504346	0.499966	0.758350
H107	H	1.010243	-0.000043	0.344111
H108	H	1.510243	0.499957	0.844111
O109	O	1.470728	-0.000006	0.438175
O110	O	1.970728	0.499994	0.938175
H111	H	1.542743	-0.000017	0.383889
H112	H	2.042743	0.499983	0.883889
H113	H	1.053990	-0.000034	0.046252
H114	H	1.553990	0.499966	0.546252
H115	H	0.573495	-0.000114	-0.120630
H116	H	1.073495	0.499886	0.379370
H117	H	0.562444	-0.000025	-0.462191
H118	H	1.062444	0.499975	0.037809
O119	O	1.099623	-0.277010	-0.416453
O120	O	1.599623	0.222990	0.083547
H121	H	1.015164	-0.300962	-0.396552
H122	H	1.515164	0.199038	0.103448
H123	H	0.760876	-0.000020	-0.485269
H124	H	1.260876	0.499980	0.014731
O125	O	1.401909	-0.723038	-0.114392
O126	O	1.901909	-0.223038	0.385608
H127	H	1.450645	-0.658739	-0.065696
H128	H	1.950645	-0.158739	0.434304
H129	H	0.740628	-0.000028	-0.045572
H130	H	1.240628	0.499972	0.454428
H131	H	0.939091	-0.000006	-0.068646
H132	H	1.439091	0.499994	0.431354
H133	H	1.153209	-0.706630	-0.362909
H134	H	1.653209	-0.206630	0.137091
O135	O	1.083032	-0.536121	-0.433061
O136	O	1.583032	-0.036121	0.066939
H137	H	1.087592	-0.633276	-0.428525
H138	H	1.587592	-0.133276	0.071475
