data_functionalizedCrystal
_audit_creation_method	'MofGen! by Chris Wilmer'
_symmetry_space_group_name_H-M	'P1'
_symmetry_Int_Tables_number	1
_symmetry_cell_setting	triclinic
loop_
_symmetry_equiv_pos_as_xyz
  x,y,z
_cell_length_a	13.897449
_cell_length_b	21.395361
_cell_length_c	21.395355
_cell_angle_alpha	90.021511
_cell_angle_beta	89.976610
_cell_angle_gamma	89.968012
loop_
_atom_site_label
_atom_site_type_symbol
_atom_site_fract_x
_atom_site_fract_y
_atom_site_fract_z
Zn1	Zn	1.474641	0.249490	-0.354229
Zn2	Zn	1.474490	0.354250	-0.249446
Zn3	Zn	1.313322	0.249492	-0.249468
Zn4	Zn	1.313275	0.354236	-0.354188
O5	O	1.393932	0.301867	-0.301833
O6	O	1.609602	0.263391	-0.340337
O7	O	1.453068	0.340360	-0.161771
O8	O	1.334804	0.161814	-0.263391
O9	O	1.609492	0.340358	-0.263354
O10	O	1.453324	0.161812	-0.340358
O11	O	1.334659	0.263395	-0.161787
O12	O	1.178334	0.263382	-0.263351
O13	O	1.334723	0.340334	-0.441872
O14	O	1.178299	0.340337	-0.340289
O15	O	1.453278	0.263378	-0.441901
O16	O	1.453022	0.441926	-0.263314
O17	O	1.334578	0.441915	-0.340268
C18	C	1.393805	0.464654	-0.301798
C19	C	1.393838	0.534296	-0.301804
C20	C	1.143318	0.301858	-0.301818
C21	C	1.036104	0.301870	-0.301827
C22	C	1.394012	0.301854	-0.465256
C23	C	1.394046	0.301849	-0.534897
C24	C	0.839809	0.301872	-0.301844
C25	C	0.949041	0.301869	-0.301833
C26	C	1.645525	0.301876	-0.301847
C27	C	1.752739	0.301879	-0.301854
C28	C	1.394086	0.138443	-0.301881
C29	C	1.394152	0.068802	-0.301902
C30	C	1.455567	0.566993	-0.261775
C31	C	1.455612	0.632429	-0.261789
C32	C	1.393911	0.665164	-0.301825
C33	C	1.332178	0.632458	-0.341862
C34	C	1.332142	0.567024	-0.341851
C35	C	1.307060	0.768880	-0.306736
C36	C	1.307094	0.834313	-0.306743
C37	C	1.394023	0.866985	-0.301862
C38	C	1.480920	0.834215	-0.296962
C39	C	1.480884	0.768781	-0.296951
C40	C	1.393944	0.736116	-0.301842
C41	C	1.455806	0.970635	-0.261846
C42	C	1.455852	1.036071	-0.261865
C43	C	1.332410	1.036100	-0.341934
C44	C	1.332372	0.970665	-0.341919
C45	C	1.394069	0.937936	-0.301872
C46	C	1.455775	0.261776	-0.567627
C47	C	1.455774	0.261749	-0.633063
C48	C	1.394054	0.301806	-0.665766
C49	C	1.332313	0.341882	-0.633028
C50	C	1.332309	0.341903	-0.567594
C51	C	1.386393	0.358221	-0.769428
C52	C	1.386404	0.358201	-0.834861
C53	C	1.394060	0.301740	-0.867587
C54	C	1.401725	0.245297	-0.834871
C55	C	1.401722	0.245318	-0.769437
C56	C	1.394051	0.301787	-0.736718
C57	C	1.455790	0.261634	-0.971269
C58	C	1.455782	0.261606	-1.036706
C59	C	1.332327	0.341745	-1.036670
C60	C	1.332330	0.341767	-0.971235
C61	C	1.394067	0.301713	-0.938538
C62	C	1.393908	0.301834	-0.139045
C63	C	1.394061	0.301663	-0.069404
H64	H	1.505807	0.540348	-0.229168
Br65	Br	1.539645	1.080448	-0.207542
Br66	Br	1.248543	0.396241	-0.677409
H67	H	1.551707	0.860815	-0.292988
Br68	Br	1.248552	0.396156	-0.926812
H69	H	1.505882	0.659056	-0.229193
H70	H	1.236337	0.860989	-0.310727
Br71	Br	1.376031	0.434856	-0.725022
Br72	Br	1.539531	0.207345	-0.677491
Br73	Br	1.598810	0.724309	-0.290306
Br74	Br	1.539531	0.926214	-0.207496
Br75	Br	1.539571	0.207274	-0.926891
H76	H	1.282102	0.944040	-0.374512
H77	H	1.282038	0.374534	-0.540946
Br78	Br	1.248681	1.080519	-0.396277
Br79	Br	1.189074	0.724547	-0.313363
H80	H	1.281942	0.659116	-0.374461
Br81	Br	1.248362	0.522646	-0.396181
H82	H	1.380168	0.404160	-0.861494
H83	H	1.506045	0.229160	-0.541010
Br84	Br	1.412120	0.168722	-0.725038
H85	H	1.407961	0.199321	-0.861514
Br86	Br	1.539580	0.207226	-1.081126
Br87	Br	1.248550	0.396101	-1.081046
