data_functionalizedCrystal
_audit_creation_method	'MofGen! by Chris Wilmer'
_symmetry_space_group_name_H-M	'P1'
_symmetry_Int_Tables_number	1
_symmetry_cell_setting	triclinic
loop_
_symmetry_equiv_pos_as_xyz
  x,y,z
_cell_length_a	19.805407
_cell_length_b	12.759399
_cell_length_c	19.805399
_cell_angle_alpha	90.023653
_cell_angle_beta	90.019573
_cell_angle_gamma	90.015116
loop_
_atom_site_label
_atom_site_type_symbol
_atom_site_fract_x
_atom_site_fract_y
_atom_site_fract_z
Zn1	Zn	1.034789	-0.418291	0.382738
Zn2	Zn	1.034726	-0.593984	0.269558
Zn3	Zn	0.921603	-0.418320	0.269563
Zn4	Zn	0.921589	-0.593928	0.382704
O5	O	0.978177	-0.506131	0.326141
O6	O	1.129497	-0.441608	0.367736
O7	O	1.019700	-0.570717	0.174842
O8	O	0.936650	-0.271295	0.284592
O9	O	1.129451	-0.570689	0.284583
O10	O	1.019807	-0.271273	0.367741
O11	O	0.936589	-0.441657	0.174845
O12	O	0.826885	-0.441603	0.284559
O13	O	0.936626	-0.570594	0.477425
O14	O	0.826875	-0.570622	0.367684
O15	O	1.019793	-0.441554	0.477450
O16	O	1.019686	-0.740998	0.284551
O17	O	0.936565	-0.740957	0.367679
C18	C	0.802321	-0.506110	0.326119
C19	C	0.727089	-0.506127	0.326126
C20	C	0.691757	-0.573408	0.369339
C21	C	0.621069	-0.573410	0.369348
C22	C	0.585713	-0.506135	0.326141
C23	C	0.621050	-0.438847	0.282926
C24	C	0.691737	-0.438840	0.282920
C25	C	0.335977	-0.438870	0.282948
C26	C	0.265285	-0.438884	0.282956
C27	C	0.265308	-0.573440	0.369376
C28	C	0.335995	-0.573433	0.369370
C29	C	0.371326	-0.506141	0.326158
C30	C	0.447974	-0.506139	0.326149
C31	C	0.509066	-0.506143	0.326146
C32	C	0.978135	-0.779098	0.326125
C33	C	0.978180	-0.895875	0.326141
C34	C	1.021510	-0.950723	0.282906
C35	C	1.021554	-1.060447	0.282928
C36	C	0.934930	-1.060465	0.369424
C37	C	0.934891	-0.950743	0.369405
C38	C	1.101446	-1.210321	0.258846
C39	C	1.144771	-1.265173	0.215599
C40	C	1.155188	-1.229620	0.149559
C41	C	1.122271	-1.139217	0.126751
C42	C	1.078942	-1.084370	0.169994
C43	C	1.068537	-1.119922	0.236044
C44	C	0.854997	-0.800867	0.393480
C45	C	0.811663	-0.746018	0.436720
C46	C	0.801239	-0.781569	0.502762
C47	C	0.834144	-0.871976	0.525567
C48	C	0.877478	-0.926825	0.482327
C49	C	0.887903	-0.891266	0.416286
C50	C	1.154720	-0.506152	0.326163
C51	C	1.229952	-0.506160	0.326173
C52	C	0.978215	-0.506064	0.502684
C53	C	0.978231	-0.506036	0.577916
C54	C	0.978237	-0.232097	0.326171
C55	C	0.978263	-0.115321	0.326184
C56	C	0.978178	-0.506121	0.150285
C57	C	0.978293	-0.505853	0.075053
C58	C	1.021537	-0.438842	0.613274
C59	C	1.021544	-0.438811	0.683962
C60	C	0.978248	-0.505981	0.719291
C61	C	0.934937	-0.573179	0.683928
C62	C	0.934927	-0.573203	0.613241
C63	C	0.934975	-0.573081	0.969002
C64	C	0.934990	-0.573054	1.039694
C65	C	1.021592	-0.438689	1.039723
C66	C	1.021582	-0.438713	0.969036
C67	C	0.978269	-0.505906	0.933679
C68	C	0.978261	-0.505937	0.857030
C69	C	0.978259	-0.505957	0.795938
H70	H	1.056760	-0.906052	0.247679
C71	C	0.888002	-0.646343	0.574880
C72	C	0.902738	-0.750288	0.592051
C73	C	0.859531	-0.817695	0.556719
H74	H	0.842503	-0.631107	0.586423
H75	H	0.894207	-0.636805	0.527716
H76	H	0.896527	-0.759821	0.639204
H77	H	0.948229	-0.765557	0.580506
H78	H	0.865735	-0.808157	0.509555
H79	H	0.814034	-0.802449	0.568264
H80	H	0.869527	-0.888229	0.568359
C81	C	1.133691	-1.100761	0.055031
C82	C	1.178695	-1.168127	0.022048
C83	C	1.189239	-1.132723	-0.044018
H84	H	1.091924	-1.099793	0.031451
H85	H	1.152096	-1.032014	0.056172
H86	H	1.160288	-1.236855	0.020904
H87	H	1.220470	-1.169102	0.045609
H88	H	1.207643	-1.063976	-0.042877
H89	H	1.147469	-1.131756	-0.067592
H90	H	1.219779	-1.178419	-0.066403
H91	H	1.171572	-1.338780	0.234176
C92	C	1.202165	-1.289363	0.102645
C93	C	1.178241	-1.391835	0.094365
C94	C	1.221505	-1.446907	0.051164
H95	H	1.203690	-1.255382	0.060008
H96	H	1.246220	-1.291207	0.121602
H97	H	1.134198	-1.389987	0.075406
H98	H	1.176719	-1.425845	0.136990
H99	H	1.265560	-1.448751	0.070122
H100	H	1.223027	-1.412917	0.008531
H101	H	1.205283	-1.516443	0.045546
H102	H	1.092975	-1.239270	0.312623
H103	H	0.784874	-0.672399	0.418148
C104	C	1.043294	-0.986215	0.145126
C105	C	1.061698	-0.966803	0.078035
C106	C	1.028883	-0.876379	0.055107
H107	H	0.995819	-0.995978	0.147756
H108	H	1.056036	-0.928271	0.172449
H109	H	1.048951	-1.024733	0.050720
H110	H	1.109167	-0.957021	0.075387
H111	H	1.041626	-0.818435	0.082429
H112	H	0.981410	-0.886150	0.057741
H113	H	1.041370	-0.863191	0.009586
C114	C	1.068572	-0.365797	0.575042
C115	C	1.106485	-0.306924	0.621141
C116	C	1.149813	-0.239610	0.585948
H117	H	1.098111	-0.405880	0.547465
H118	H	1.042701	-0.319970	0.547482
H119	H	1.132354	-0.352745	0.648689
H120	H	1.076963	-0.266819	0.648719
H121	H	1.123942	-0.193783	0.558389
H122	H	1.179348	-0.279702	0.558373
H123	H	1.175538	-0.199650	0.617221
H124	H	0.765951	-0.736902	0.537966
H125	H	0.863486	-0.771906	0.339705
C126	C	1.068505	-0.365600	0.930721
C127	C	1.053773	-0.261647	0.947919
C128	C	1.096977	-0.194258	0.912633
H129	H	1.114006	-0.380832	0.942284
H130	H	1.062294	-0.375160	0.883550
H131	H	1.059989	-0.252092	0.995078
H132	H	1.008280	-0.246381	0.936354
H133	H	1.090766	-0.203817	0.865463
H134	H	1.142474	-0.209499	0.924199
H135	H	1.086983	-0.123718	0.924292
C136	C	0.887815	-0.645979	0.722246
C137	C	0.820848	-0.623081	0.705056
C138	C	0.777422	-0.690118	0.740346
H139	H	0.897614	-0.716612	0.710682
H140	H	0.893978	-0.636337	0.769416
H141	H	0.814689	-0.632732	0.657897
H142	H	0.811029	-0.552460	0.716622
H143	H	0.783584	-0.680475	0.787515
H144	H	0.787226	-0.760746	0.728779
H145	H	0.731980	-0.674584	0.728691
H146	H	1.056857	-0.383973	1.068519
C147	C	0.887953	-1.120228	0.416315
C148	C	0.897246	-1.228058	0.407065
C149	C	0.853973	-1.283141	0.450241
H150	H	0.897781	-1.102314	0.461826
H151	H	0.842461	-1.102372	0.406355
H152	H	0.942728	-1.245906	0.417029
H153	H	0.887413	-1.246003	0.361563
H154	H	0.808481	-1.265286	0.440282
H155	H	0.863805	-1.265219	0.495750
H156	H	0.860268	-1.356309	0.443967
H157	H	0.904274	-1.000436	0.500902
H158	H	0.720538	-0.628195	0.404521
H159	H	0.364735	-0.384085	0.247757
C160	C	0.822770	-0.910384	0.597306
C161	C	0.777793	-0.842985	0.630298
C162	C	0.767303	-0.878323	0.696387
H163	H	0.804363	-0.979118	0.596228
H164	H	0.864573	-0.911323	0.620840
H165	H	0.735998	-0.842057	0.606770
H166	H	0.796187	-0.774248	0.631395
H167	H	0.809106	-0.879263	0.719922
H168	H	0.748899	-0.947057	0.695303
H169	H	0.736791	-0.832593	0.718783
H170	H	0.592304	-0.628198	0.404536
H171	H	1.056810	-0.384097	0.712748
C172	C	0.887901	-0.646020	1.077931
C173	C	0.849953	-0.704849	1.031838
C174	C	0.806566	-0.772063	1.067037
H175	H	0.913710	-0.691886	1.105507
H176	H	0.858392	-0.605833	1.105492
H177	H	0.879459	-0.745033	1.004289
H178	H	0.824130	-0.659011	1.004260
H179	H	0.777056	-0.731876	1.094598
H180	H	0.832380	-0.817922	1.094612
H181	H	0.780808	-0.811980	1.035769
C182	C	0.887873	-0.645854	0.930576
C183	C	0.844488	-0.586364	0.890010
C184	C	0.801081	-0.653367	0.854603
H185	H	0.913671	-0.691661	0.902942
H186	H	0.862047	-0.685843	0.961715
H187	H	0.870311	-0.546394	0.858875
H188	H	0.818675	-0.540560	0.917627
H189	H	0.775256	-0.693355	0.885742
H190	H	0.826885	-0.699170	0.826973
H191	H	0.771636	-0.613012	0.827079
C192	C	0.374258	-0.646514	0.416357
C193	C	0.328186	-0.705418	0.454217
C194	C	0.363408	-0.772738	0.497517
H195	H	0.401820	-0.692329	0.390488
H196	H	0.401836	-0.606402	0.445925
H197	H	0.300620	-0.745528	0.424652
H198	H	0.300622	-0.659631	0.480099
H199	H	0.390985	-0.732626	0.527086
H200	H	0.390968	-0.818546	0.471644
H201	H	0.332153	-0.812706	0.523215
H202	H	0.236533	-0.628228	0.404564
C203	C	0.582545	-0.365912	0.236043
C204	C	0.513077	-0.380335	0.245284
C205	C	0.477587	-0.313175	0.202100
H206	H	0.594062	-0.295299	0.245987
H207	H	0.594068	-0.381199	0.190532
H208	H	0.501558	-0.365041	0.290784
H209	H	0.501540	-0.450934	0.235335
H210	H	0.489110	-0.328462	0.156589
H211	H	0.489109	-0.242566	0.212048
H212	H	0.430449	-0.322959	0.208359
C213	C	0.729978	-0.365758	0.235924
C214	C	0.683888	-0.306865	0.198071
C215	C	0.719090	-0.239538	0.154765
H216	H	0.757574	-0.319937	0.261787
H217	H	0.757520	-0.405866	0.206351
H218	H	0.656358	-0.266760	0.227641
H219	H	0.656291	-0.352658	0.172194
H220	H	0.746632	-0.279645	0.125191
H221	H	0.746684	-0.193724	0.180633
H222	H	0.687823	-0.199577	0.129072
H223	H	0.236500	-0.384094	0.247771
