data_functionalizedCrystal
_audit_creation_method	'MofGen! by Chris Wilmer'
_symmetry_space_group_name_H-M	'P1'
_symmetry_Int_Tables_number	1
_symmetry_cell_setting	triclinic
loop_
_symmetry_equiv_pos_as_xyz
  x,y,z
_cell_length_a	13.897441
_cell_length_b	14.908571
_cell_length_c	14.908520
_cell_angle_alpha	89.794039
_cell_angle_beta	93.265227
_cell_angle_gamma	93.314722
loop_
_atom_site_label
_atom_site_type_symbol
_atom_site_fract_x
_atom_site_fract_y
_atom_site_fract_z
Zn1	Zn	-0.655761	-1.353988	-0.437377
Zn2	Zn	-0.155761	-0.853988	0.062623
Zn3	Zn	-0.503192	-1.345199	-0.587748
Zn4	Zn	-0.003192	-0.845199	-0.087748
Zn5	Zn	-0.484683	-1.203617	-0.428726
Zn6	Zn	0.015317	-0.703617	0.071274
Zn7	Zn	-0.654647	-1.194916	-0.579001
Zn8	Zn	-0.154647	-0.694916	-0.079001
O9	O	-0.574571	-1.274430	-0.508213
O10	O	-0.074571	-0.774430	-0.008213
O11	O	-0.643736	-1.478647	-0.464605
O12	O	-0.143736	-0.978647	0.035395
O13	O	-0.365755	-1.326381	-0.566694
O14	O	0.134245	-0.826381	-0.066694
O15	O	-0.500097	-1.230883	-0.304052
O16	O	-0.000097	-0.730883	0.195948
O17	O	-0.531643	-1.472190	-0.575082
O18	O	-0.031643	-0.972190	-0.075082
O19	O	-0.625788	-1.341360	-0.310408
O20	O	-0.125788	-0.841360	0.189592
O21	O	-0.352156	-1.222361	-0.449862
O22	O	0.147844	-0.722361	0.050138
O23	O	-0.499016	-1.076637	-0.441379
O24	O	0.000984	-0.576637	0.058621
O25	O	-0.789776	-1.216054	-0.560173
O26	O	-0.289776	-0.716054	-0.060173
O27	O	-0.623888	-1.070245	-0.551785
O28	O	-0.123888	-0.570245	-0.051785
O29	O	-0.790595	-1.332923	-0.456123
O30	O	-0.290595	-0.832923	0.043877
O31	O	-0.530562	-1.317944	-0.712409
O32	O	-0.030562	-0.817944	-0.212409
O33	O	-0.641836	-1.207532	-0.705983
O34	O	-0.141836	-0.707532	-0.205983
C35	C	-0.559323	-1.040816	-0.494695
C36	C	-0.059323	-0.540816	0.005305
C37	C	-0.552824	-0.940874	-0.488934
C38	C	-0.052824	-0.440874	0.011066
C39	C	-0.826163	-1.274498	-0.508137
C40	C	-0.326163	-0.774498	-0.008137
C41	C	-0.933377	-1.274527	-0.508105
C42	C	-0.433377	-0.774527	-0.008105
C43	C	-0.588109	-1.260865	-0.741822
C44	C	-0.088109	-0.760865	-0.241822
C45	C	-0.593939	-1.255144	-0.841765
C46	C	-0.093939	-0.755144	-0.341765
C47	C	-1.129670	-1.274555	-0.508046
C48	C	-0.629670	-0.774555	-0.008046
C49	C	-1.020439	-1.274537	-0.508081
C50	C	-0.520439	-0.774537	-0.008081
C51	C	-0.323956	-1.274417	-0.508227
C52	C	0.176044	-0.774417	-0.008227
C53	C	-0.216740	-1.274577	-0.508016
C54	C	0.283260	-0.774577	-0.008016
C55	C	-0.589879	-1.508956	-0.521784
C56	C	-0.089879	-1.008956	-0.021784
C57	C	-0.596402	-1.608897	-0.527568
C58	C	-0.096402	-1.108897	-0.027568
C59	C	-0.670486	-0.746453	-0.593252
C60	C	-0.170486	-0.246453	-0.093252
C61	C	-0.664383	-0.652548	-0.587841
C62	C	-0.164383	-0.152548	-0.087841
C63	C	-0.534521	-0.659158	-0.472698
C64	C	-0.034521	-0.159158	0.027302
C65	C	-0.540624	-0.753063	-0.478109
C66	C	-0.040624	-0.253063	0.021891
C67	C	-0.608607	-0.796707	-0.538389
C68	C	-0.108607	-0.296707	-0.038389
C69	C	-0.614705	-0.890613	-0.543803
C70	C	-0.114705	-0.390613	-0.043803
C71	C	-0.484848	-0.897221	-0.428656
C72	C	0.015152	-0.397221	0.071344
C73	C	-0.478746	-0.803316	-0.423246
C74	C	0.021254	-0.303316	0.076754
C75	C	-0.489131	-1.359484	-1.036207
C76	C	0.010869	-0.859484	-0.536207
C77	C	-0.494606	-1.354112	-1.130113
C78	C	0.005394	-0.854112	-0.630113
C79	C	-0.610366	-1.239032	-1.123485
C80	C	-0.110366	-0.739032	-0.623485
C81	C	-0.604892	-1.244404	-1.029579
C82	C	-0.104892	-0.744404	-0.529579
C83	C	-0.544271	-1.304631	-0.985944
C84	C	-0.044271	-0.804631	-0.485944
C85	C	-0.538792	-1.309999	-0.892036
C86	C	-0.038792	-0.809999	-0.392036
C87	C	-0.654558	-1.194923	-0.885409
C88	C	-0.154558	-0.694923	-0.385409
C89	C	-0.660032	-1.189551	-0.979315
C90	C	-0.160032	-0.689551	-0.479315
C91	C	-0.561002	-1.288073	-0.273694
C92	C	-0.061002	-0.788073	0.226306
C93	C	-0.555220	-1.293887	-0.173756
C94	C	-0.055220	-0.793887	0.326244
H95	H	-0.670059	-0.926147	-0.592887
H96	H	-0.170059	-0.426147	-0.092887
H97	H	-0.479178	-0.623606	-0.423616
H98	H	0.020822	-0.123606	0.076384
C99	C	-0.403968	-0.755297	-0.356941
C100	C	0.096032	-0.255297	0.143059
N101	N	-0.347641	-0.719129	-0.307002
N102	N	0.152359	-0.219129	0.192998
C103	C	-0.416775	-0.952508	-0.368305
C104	C	0.083225	-0.452508	0.131695
N105	N	-0.365500	-0.994151	-0.322853
N106	N	0.134500	-0.494151	0.177147
C107	C	-0.472109	-1.376249	-0.844038
C108	C	0.027891	-0.876249	-0.344038
N109	N	-0.421883	-1.426153	-0.807889
N110	N	0.078117	-0.926153	-0.307889
C111	C	-0.422447	-1.425732	-0.988206
C112	C	0.077553	-0.925732	-0.488206
N113	N	-0.372220	-1.475632	-0.952053
N114	N	0.127780	-0.975632	-0.452053
C115	C	-0.732448	-0.597272	-0.648201
C116	C	-0.232448	-0.097272	-0.148201
N117	N	-0.783716	-0.555638	-0.693669
N118	N	-0.283716	-0.055638	-0.193669
C119	C	-0.677042	-1.172785	-1.171500
C120	C	-0.177042	-0.672785	-0.671500
N121	N	-0.727259	-1.122886	-1.207667
N122	N	-0.227259	-0.622886	-0.707667
C123	C	-0.433943	-1.414451	-1.185400
C124	C	0.066057	-0.914451	-0.685400
N125	N	-0.388249	-1.459900	-1.227042
N126	N	0.111751	-0.959900	-0.727042
H127	H	-0.709390	-1.140518	-1.014856
H128	H	-0.209390	-0.640518	-0.514856
H129	H	-0.699453	-1.150256	-0.844473
H130	H	-0.199453	-0.650256	-0.344473
H131	H	-0.725836	-0.781988	-0.642339
H132	H	-0.225836	-0.281988	-0.142339
