data_functionalizedCrystal
_audit_creation_method	'MofGen! by Chris Wilmer'
_symmetry_space_group_name_H-M	'P1'
_symmetry_Int_Tables_number	1
_symmetry_cell_setting	triclinic
loop_
_symmetry_equiv_pos_as_xyz
  x,y,z
_cell_length_a	15.538191
_cell_length_b	10.654550
_cell_length_c	9.130313
_cell_angle_alpha	89.999890
_cell_angle_beta	89.998968
_cell_angle_gamma	65.878498
loop_
_atom_site_label
_atom_site_type_symbol
_atom_site_fract_x
_atom_site_fract_y
_atom_site_fract_z
O1	O	1.247250	-0.406667	-0.121824
O2	O	0.973935	-0.262093	-0.121821
O3	O	1.116877	-0.520057	-0.121817
O4	O	1.104309	-0.148703	-0.121828
O5	O	1.116875	-0.520051	0.121782
O6	O	0.973934	-0.262087	0.121778
O7	O	1.247248	-0.406661	0.121774
Cu8	Cu	1.110591	-0.334374	0.144019
Cu9	Cu	1.110593	-0.334381	-0.144065
O10	O	1.104307	-0.148697	0.121771
C11	C	1.115953	-0.566421	-0.000019
C12	C	1.113192	-0.704573	-0.000025
C13	C	0.938938	-0.246964	-0.000021
C14	C	0.834659	-0.201908	-0.000019
C15	C	1.197354	-0.823402	-0.000021
C16	C	1.194754	-0.953208	-0.000031
C17	C	1.023824	-0.845338	-0.000042
C18	C	1.026424	-0.715536	-0.000042
C19	C	1.296039	-0.885681	-0.000009
C20	C	1.293439	-1.015486	-0.000019
C21	C	0.543944	-0.649529	-0.000029
C22	C	0.445955	-0.607160	-0.000031
C23	C	0.425069	-0.368846	-0.000038
C24	C	0.523058	-0.411195	-0.000028
C25	C	0.582488	-0.551538	-0.000026
C26	C	0.561602	-0.313204	-0.000025
C27	C	0.659583	-0.355550	-0.000023
C28	C	0.719019	-0.495887	-0.000025
C29	C	0.680469	-0.593884	-0.000024
C30	C	0.502170	-0.172861	-0.000038
C31	C	0.540715	-0.074870	-0.000035
C32	C	0.638697	-0.117216	-0.000023
C33	C	0.698133	-0.257553	-0.000024
C34	C	0.677248	-0.019219	-0.000024
C35	C	0.775228	-0.061564	-0.000022
C36	C	0.796114	-0.299898	-0.000023
C37	C	1.282246	-0.421790	-0.000029
C38	C	1.386525	-0.466847	-0.000040
C39	C	1.105231	-0.102334	-0.000030
C40	C	1.107991	0.035819	-0.000034
N41	N	1.110596	-0.334372	0.346642
N42	N	1.110595	-0.334395	-0.346688
C43	C	1.173907	-0.448578	0.423295
C44	C	1.173904	-0.448591	0.576632
C45	C	1.047277	-0.220183	0.576648
C46	C	1.047276	-0.220174	0.423314
C47	C	1.247017	-0.580445	0.423287
C48	C	1.247014	-0.580459	0.576624
H49	H	0.953180	-0.854282	-0.000058
N50	N	1.342612	-0.596646	0.631757
H51	H	1.356862	-0.517786	0.594931
H52	H	1.342584	-0.596705	0.742373
N53	N	0.935652	-0.587367	-0.000057
H54	H	0.932930	-0.531116	-0.090363
H55	H	0.880346	-0.614124	-0.000011
N56	N	0.360971	-0.217480	-0.000025
H57	H	0.373459	-0.172748	-0.090322
H58	H	0.293077	-0.205632	0.000029
N59	N	0.816806	0.044123	-0.000004
H60	H	0.887895	-0.004002	-0.000007
H61	H	0.795122	0.103563	-0.090309
N62	N	0.978993	-0.097014	0.659351
H63	H	0.938885	-0.024663	0.587519
H64	H	0.937164	-0.126068	0.722962
H65	H	0.592336	-0.763810	-0.000018
H66	H	0.422389	-0.138388	-0.000044
N67	N	1.225777	-0.698379	0.368150
H68	H	1.166582	-0.661331	0.306678
H69	H	1.280278	-0.761763	0.306752
H70	H	0.844506	-0.414180	-0.000012
H71	H	1.334639	-0.874370	-0.101948
H72	H	1.327463	-0.864742	0.105172
H73	H	1.323264	-1.075074	-0.105199
N74	N	1.342686	-1.093836	0.135008
H75	H	1.366532	-1.035171	0.195277
H76	H	1.296881	-1.117650	0.195145
H77	H	0.492314	0.039397	-0.000043
N78	N	0.978975	-0.097012	0.340634
H79	H	0.938864	-0.024674	0.412477
H80	H	1.015275	-0.057996	0.277010
N81	N	1.337340	-0.582169	0.360266
H82	H	1.322654	-0.497545	0.297995
H83	H	1.380941	-0.583054	0.442677
H84	H	0.798801	-0.530362	-0.000043
N85	N	0.613150	0.132147	-0.000021
H86	H	0.625641	0.176873	-0.090320
H87	H	0.545255	0.143994	0.000028
N88	N	0.404370	-0.712846	-0.000031
H89	H	0.425986	-0.772314	-0.090333
H90	H	0.425993	-0.772217	0.090332
N91	N	0.744579	-0.745254	-0.000000
H92	H	0.705296	-0.800913	0.000006
H93	H	0.785689	-0.768019	-0.090304
N94	N	1.216820	-0.687187	0.639628
H95	H	1.202230	-0.738743	0.557290
H96	H	1.269374	-0.753782	0.701903
