data_functionalizedCrystal
_audit_creation_method	'MofGen! by Chris Wilmer'
_symmetry_space_group_name_H-M	'P1'
_symmetry_Int_Tables_number	1
_symmetry_cell_setting	triclinic
loop_
_symmetry_equiv_pos_as_xyz
  x,y,z
_cell_length_a	15.944551
_cell_length_b	15.995350
_cell_length_c	15.021413
_cell_angle_alpha	90.004882
_cell_angle_beta	90.009811
_cell_angle_gamma	96.504444
loop_
_atom_site_label
_atom_site_type_symbol
_atom_site_fract_x
_atom_site_fract_y
_atom_site_fract_z
O1	O	-1.114505	0.107995	0.073931
O2	O	-0.614505	0.607995	0.573931
O3	O	-0.869955	0.121309	0.073952
O4	O	-0.369955	0.621309	0.573952
O5	O	-0.998915	-0.007235	0.073944
O6	O	-0.498915	0.492765	0.573944
O7	O	-0.985545	0.236539	0.073939
O8	O	-0.485545	0.736539	0.573939
O9	O	-0.998929	-0.007252	-0.074120
O10	O	-0.498929	0.492748	0.425880
O11	O	-0.869969	0.121292	-0.074112
O12	O	-0.369969	0.621292	0.425888
O13	O	-1.114520	0.107978	-0.074133
O14	O	-0.614520	0.607978	0.425867
Zn15	Zn	-0.992247	0.114632	-0.097631
Zn16	Zn	-0.492247	0.614632	0.402369
Zn17	Zn	-0.992228	0.114655	0.097450
Zn18	Zn	-0.492228	0.614655	0.597450
O19	O	-0.985560	0.236522	-0.074126
O20	O	-0.485560	0.736522	0.425874
C21	C	-0.838668	0.120748	-0.000077
C22	C	-0.338668	0.620748	0.499923
C23	C	-0.745422	0.119091	-0.000069
C24	C	-0.245422	0.619091	0.499931
C25	C	-0.998370	-0.038438	-0.000085
C26	C	-0.498370	0.461562	0.499915
C27	C	-0.996712	-0.131389	-0.000076
C28	C	-0.496712	0.368611	0.499924
C29	C	-1.145806	0.108539	-0.000102
C30	C	-0.645806	0.608539	0.499898
C31	C	-1.239052	0.110196	-0.000105
C32	C	-0.739052	0.610196	0.499895
C33	C	-0.530570	0.035452	-0.000084
C34	C	-0.030570	0.535452	0.499916
C35	C	-0.469541	0.074300	0.072919
C36	C	0.030459	0.574300	0.572919
C37	C	-0.574697	0.116093	-0.000079
C38	C	-0.074697	0.616093	0.499921
C39	C	-0.469577	0.074302	-0.073061
C40	C	0.030423	0.574302	0.426939
C41	C	-0.409784	0.113192	-0.000093
C42	C	0.090216	0.613192	0.499907
C43	C	-0.514895	0.154963	0.072984
C44	C	-0.014895	0.654963	0.572984
C45	C	-0.514938	0.154953	-0.073062
C46	C	-0.014938	0.654953	0.426938
C47	C	-0.453926	0.193859	-0.000041
C48	C	0.046074	0.693859	0.499959
C49	C	-0.669699	0.117762	-0.000070
C50	C	-0.169699	0.617762	0.499930
C51	C	-0.314783	0.111529	-0.000096
C52	C	0.185217	0.611529	0.499904
C53	C	-0.986105	0.267726	-0.000094
C54	C	-0.486105	0.767726	0.499906
C55	C	-0.987762	0.360676	-0.000097
C56	C	-0.487762	0.860676	0.499903
N57	N	-0.992266	0.114616	-0.230769
N58	N	-0.492266	0.614616	0.269231
C59	C	-0.993713	0.698424	-0.000084
C60	C	-0.493713	1.198424	0.499916
C61	C	-1.085556	0.650995	0.000239
C62	C	-0.585556	1.150995	0.500239
C63	C	-1.083899	0.554305	-0.000100
C64	C	-0.583899	1.054305	0.499900
C65	C	-0.990761	0.530863	-0.000090
C66	C	-0.490761	1.030863	0.499910
C67	C	-0.945469	0.571934	-0.084635
C68	C	-0.445469	1.071934	0.415365
C69	C	-0.947777	0.668570	-0.084701
C70	C	-0.447777	1.168570	0.415299
C71	C	-0.945863	0.668937	0.083676
C72	C	-0.445863	1.168937	0.583676
C73	C	-0.945885	0.571991	0.084789
C74	C	-0.445885	1.071991	0.584789
C75	C	-0.989088	0.436166	-0.000096
C76	C	-0.489088	0.936166	0.499904
C77	C	-0.995384	0.793122	-0.000083
C78	C	-0.495384	1.293122	0.499917
N79	N	-0.992216	0.114664	0.230588
N80	N	-0.492216	0.614664	0.730588
C81	C	-0.932473	0.173983	0.470269
C82	C	-0.432473	0.673983	0.970269
C83	C	-0.916366	0.098261	0.529609
C84	C	-0.416366	0.598261	1.029609
C85	C	-0.992232	0.114646	0.412194
C86	C	-0.492232	0.614646	0.912194
C87	C	-1.008316	0.190351	0.529596
C88	C	-0.508316	0.690351	1.029596
C89	C	-0.992246	0.114636	0.587618
C90	C	-0.492246	0.614636	1.087618
C91	C	-0.976088	0.038887	0.470228
C92	C	-0.476088	0.538887	0.970228
C93	C	-1.068071	0.131026	0.470210
C94	C	-0.568071	0.631026	0.970210
C95	C	-1.051997	0.055250	0.529523
C96	C	-0.551997	0.555250	1.029523
C97	C	-0.992222	0.114654	0.311137
C98	C	-0.492222	0.614654	0.811137
C99	C	-0.992257	0.114620	0.688674
C100	C	-0.492257	0.614620	1.188674
H101	H	-0.563907	-0.031473	0.000008
H102	H	-0.063907	0.468527	0.500008
Cl103	Cl	-0.402721	0.297291	0.000016
Cl104	Cl	0.097279	0.797291	0.500016
H105	H	-0.535073	0.189026	-0.134785
H106	H	-0.035073	0.689026	0.365215
Cl107	Cl	-0.992207	0.700664	0.182616
Cl108	Cl	-0.492207	1.200664	0.682616
H109	H	-0.534875	0.189052	0.134769
H110	H	-0.034875	0.689052	0.634769
H111	H	-0.976946	0.543559	-0.147560
H112	H	-0.476946	1.043559	0.352440
Cl113	Cl	-0.996939	0.529850	0.181358
Cl114	Cl	-0.496939	1.029850	0.681358
H115	H	-1.119750	0.526439	-0.060818
H116	H	-0.619750	1.026439	0.439182
Cl117	Cl	-1.142227	0.679611	0.093850
Cl118	Cl	-0.642227	1.179611	0.593850
Cl119	Cl	-0.841315	0.717962	0.084567
Cl120	Cl	-0.341315	1.217962	0.584567
Cl121	Cl	-0.854392	0.251374	0.430094
Cl122	Cl	-0.354392	0.751374	0.930094
Cl123	Cl	-0.998787	0.696827	-0.182286
Cl124	Cl	-0.498787	1.196827	0.317714
H125	H	-0.852238	0.084401	0.555706
H126	H	-0.352238	0.584401	1.055706
H127	H	-0.962415	-0.025154	0.444260
H128	H	-0.462415	0.474846	0.944260
H129	H	-1.122141	0.670665	-0.060000
H130	H	-0.622141	1.170665	0.440000
H131	H	-1.102543	0.005011	0.555377
H132	H	-0.602543	0.505011	1.055377
H133	H	-1.021925	0.254379	0.555658
H134	H	-0.521925	0.754379	1.055658
Cl135	Cl	-0.438487	0.021655	0.168212
Cl136	Cl	0.061513	0.521655	0.668212
Cl137	Cl	-0.839825	0.550122	-0.089483
Cl138	Cl	-0.339825	1.050122	0.410517
H139	H	-1.119507	0.525887	0.060502
H140	H	-0.619507	1.025887	0.560502
H141	H	-1.132179	0.144915	0.444098
H142	H	-0.632179	0.644915	0.944098
H143	H	-0.880348	0.700814	-0.088538
H144	H	-0.380348	1.200814	0.411462
Cl145	Cl	-0.438580	0.021611	-0.168347
Cl146	Cl	0.061420	0.521611	0.331653
H147	H	-0.877966	0.556621	0.089904
H148	H	-0.377966	1.056621	0.589904
