data_functionalizedCrystal
_audit_creation_method	'MofGen! by Chris Wilmer'
_symmetry_space_group_name_H-M	'P1'
_symmetry_Int_Tables_number	1
_symmetry_cell_setting	triclinic
loop_
_symmetry_equiv_pos_as_xyz
  x,y,z
_cell_length_a	14.908993
_cell_length_b	25.639240
_cell_length_c	14.908694
_cell_angle_alpha	93.258804
_cell_angle_beta	89.788153
_cell_angle_gamma	93.334918
loop_
_atom_site_label
_atom_site_type_symbol
_atom_site_fract_x
_atom_site_fract_y
_atom_site_fract_z
Zn1	Zn	1.403871	-0.175502	-0.429136
Zn2	Zn	1.903871	0.324498	0.070864
Zn3	Zn	1.395065	-0.258208	-0.278760
Zn4	Zn	1.895065	0.241792	0.221240
Zn5	Zn	1.244837	-0.176108	-0.287457
Zn6	Zn	1.744837	0.323892	0.212543
Zn7	Zn	1.253441	-0.268231	-0.437729
Zn8	Zn	1.753441	0.231769	0.062271
O9	O	1.324304	-0.219512	-0.358270
O10	O	1.824304	0.280488	0.141730
O11	O	1.528529	-0.182025	-0.401952
O12	O	2.028529	0.317975	0.098048
O13	O	1.367851	-0.243377	-0.154092
O14	O	1.867851	0.256623	0.345908
O15	O	1.266018	-0.102861	-0.306295
O16	O	1.766018	0.397139	0.193705
O17	O	1.522059	-0.242789	-0.291471
O18	O	2.022059	0.257211	0.208529
O19	O	1.382859	-0.102416	-0.410385
O20	O	1.882859	0.397584	0.089615
O21	O	1.257480	-0.183058	-0.160482
O22	O	1.757480	0.316942	0.339518
O23	O	1.120153	-0.192776	-0.314627
O24	O	1.620153	0.307224	0.185373
O25	O	1.280682	-0.259871	-0.562410
O26	O	1.780682	0.240129	-0.062410
O27	O	1.126474	-0.260458	-0.425031
O28	O	1.626474	0.239542	0.074969
O29	O	1.391202	-0.191743	-0.556097
O30	O	1.891202	0.308257	-0.056097
O31	O	1.376194	-0.332704	-0.299803
O32	O	1.876194	0.167296	0.200197
O33	O	1.272144	-0.340068	-0.416597
O34	O	1.772144	0.159932	0.083403
C35	C	1.090688	-0.227771	-0.371706
C36	C	1.590688	0.272229	0.128294
C37	C	0.990748	-0.231317	-0.377475
C38	C	1.490748	0.268683	0.122525
C39	C	0.796324	-0.167409	-0.273514
C40	C	1.296324	0.332591	0.226486
C41	C	0.702421	-0.170739	-0.278931
C42	C	1.202421	0.329261	0.221069
C43	C	0.709036	-0.241311	-0.393723
C44	C	1.209036	0.258689	0.106277
C45	C	0.802939	-0.237980	-0.388305
C46	C	1.302939	0.262020	0.111695
C47	C	0.846580	-0.201028	-0.328200
C48	C	1.346580	0.298972	0.171800
C49	C	0.940485	-0.197695	-0.322787
C50	C	1.440485	0.302305	0.177213
C51	C	0.947098	-0.268269	-0.437574
C52	C	1.447098	0.231731	0.062426
C53	C	0.853195	-0.271599	-0.442991
C54	C	1.353195	0.228401	0.057009
C55	C	1.324173	-0.355357	-0.358207
C56	C	1.824173	0.144643	0.141793
C57	C	1.324200	-0.413470	-0.358205
C58	C	1.824200	0.086530	0.141795
C59	C	1.385177	-0.773564	-0.412572
C60	C	1.885177	-0.273564	0.087428
C61	C	1.385205	-0.828168	-0.412589
C62	C	1.885205	-0.328168	0.087411
O63	O	1.436894	-0.856178	-0.458750
O64	O	1.936894	-0.356178	0.041250
N65	N	1.324433	-0.855749	-0.358350
N66	N	1.824433	-0.355749	0.141650
C67	C	1.263624	-0.828725	-0.304098
C68	C	1.763624	-0.328725	0.195902
O69	O	1.211935	-0.857199	-0.257965
O70	O	1.711935	-0.357199	0.242035
C71	C	1.263593	-0.774122	-0.304086
C72	C	1.763593	-0.274122	0.195914
C73	C	1.324375	-0.746543	-0.358322
C74	C	1.824375	-0.246543	0.141678
C75	C	1.445953	-0.745984	-0.466804
C76	C	1.945953	-0.245984	0.033196
C77	C	1.445927	-0.691384	-0.466786
C78	C	1.945927	-0.191384	0.033214
C79	C	1.385124	-0.664363	-0.412536
C80	C	1.885124	-0.164363	0.087464
C81	C	1.324348	-0.691943	-0.358304
C82	C	1.824348	-0.191943	0.141696
C83	C	1.202781	-0.747099	-0.249839
C84	C	1.702781	-0.247099	0.250161
C85	C	1.202754	-0.692493	-0.249833
C86	C	1.702754	-0.192493	0.250167
C87	C	1.263536	-0.664913	-0.304069
C88	C	1.763536	-0.164913	0.195931
C89	C	1.263519	-0.610322	-0.304035
C90	C	1.763519	-0.110322	0.195965
N91	N	1.324290	-0.582740	-0.358274
N92	N	1.824290	-0.082740	0.141726
C93	C	1.385093	-0.609760	-0.412524
C94	C	1.885093	-0.109760	0.087476
C95	C	1.263693	-0.943394	-0.304127
C96	C	1.763693	-0.443394	0.195873
C97	C	1.263728	-0.997996	-0.304133
C98	C	1.763728	-0.497996	0.195867
C99	C	1.385308	-0.997434	-0.412625
C100	C	1.885308	-0.497434	0.087375
C101	C	1.385277	-0.942832	-0.412614
C102	C	1.885277	-0.442832	0.087386
C103	C	1.324465	-0.915812	-0.358366
C104	C	1.824465	-0.415812	0.141634
C105	C	1.385033	-0.495096	-0.412482
C106	C	1.885033	0.004904	0.087518
C107	C	1.385003	-0.440491	-0.412456
C108	C	1.885003	0.059509	0.087544
C109	C	1.263421	-0.441057	-0.303967
C110	C	1.763421	0.058943	0.196033
C111	C	1.263453	-0.495657	-0.303989
C112	C	1.763453	0.004343	0.196011
C113	C	1.324262	-0.522675	-0.358253
C114	C	1.824262	-0.022675	0.141747
O115	O	1.211853	-0.582276	-0.257901
O116	O	1.711853	-0.082276	0.242099
O117	O	1.436765	-0.581280	-0.458658
O118	O	1.936765	-0.081280	0.041342
C119	C	1.558831	-0.211221	-0.344783
C120	C	2.058831	0.288779	0.155217
C121	C	1.658773	-0.207688	-0.339035
C122	C	2.158773	0.292312	0.160965
C123	C	1.337884	-0.226857	-0.592790
C124	C	1.837884	0.273143	-0.092790
C125	C	1.343671	-0.229987	-0.692729
C126	C	1.843671	0.270013	-0.192729
C127	C	1.324461	-0.083136	-0.358352
C128	C	1.824461	0.416864	0.141648
C129	C	1.324528	-0.025021	-0.358387
C130	C	1.824528	0.474979	0.141613
C131	C	1.239595	-0.173061	-0.887180
C132	C	1.739595	0.326939	-0.387180
C133	C	1.245029	-0.176001	-0.981082
C134	C	1.745029	0.323999	-0.481082
C135	C	1.359969	-0.238808	-0.974434
C136	C	1.859969	0.261192	-0.474434
C137	C	1.354535	-0.235869	-0.880533
C138	C	1.854535	0.264131	-0.380533
C139	C	1.294346	-0.202994	-0.836909
C140	C	1.794346	0.297006	-0.336909
C141	C	1.288917	-0.200052	-0.743006
C142	C	1.788917	0.299948	-0.243006
C143	C	1.403852	-0.262861	-0.736361
C144	C	1.903852	0.237139	-0.236361
C145	C	1.409286	-0.265801	-0.830262
C146	C	1.909286	0.234199	-0.330262
C147	C	1.310828	-0.212156	-0.124660
C148	C	1.810828	0.287844	0.375340
C149	C	1.305215	-0.208872	-0.024712
C150	C	1.805215	0.291128	0.475288
H151	H	0.976016	-0.167603	-0.273851
H152	H	1.476016	0.332397	0.226149
Br153	Br	0.793960	-0.321754	-0.524546
Br154	Br	1.293960	0.178246	-0.024546
H155	H	1.239912	-0.173281	-0.707489
H156	H	1.739912	0.326719	-0.207489
Br157	Br	1.157926	-0.128439	-0.827971
Br158	Br	1.657926	0.371561	-0.327971
H159	H	1.153231	-0.670496	-0.205659
H160	H	1.653231	-0.170496	0.294341
Br161	Br	1.015309	-0.313885	-0.511818
Br162	Br	1.515309	0.186115	-0.011818
Br163	Br	1.478167	-0.303484	-0.668131
Br164	Br	1.978167	0.196516	-0.168131
Br165	Br	1.490961	-0.310418	-0.889474
Br166	Br	1.990961	0.189582	-0.389474
H167	H	1.434815	-1.019445	-0.456801
H168	H	1.934815	-0.519445	0.043199
Br169	Br	1.170715	-0.135380	-1.049305
Br170	Br	1.670715	0.364620	-0.549305
H171	H	0.673487	-0.271400	-0.442650
H172	H	1.173487	0.228600	0.057350
Br173	Br	1.467562	-0.531755	-0.486125
Br174	Br	1.967562	-0.031755	0.013875
H175	H	1.434502	-0.418037	-0.456621
H176	H	1.934502	0.081963	0.043379
H177	H	1.408959	-0.265581	-1.009970
H178	H	1.908959	0.234419	-0.509970
H179	H	0.831857	-0.137314	-0.224584
H180	H	1.331857	0.362686	0.275416
H181	H	0.661505	-0.143362	-0.234401
H182	H	1.161505	0.356638	0.265599
Br183	Br	1.528415	-0.653964	-0.540402
Br184	Br	2.028415	-0.153964	-0.040402
Br185	Br	1.180908	-0.404375	-0.230343
Br186	Br	1.680908	0.095625	0.269657
H187	H	1.495466	-0.767979	-0.510987
H188	H	1.995466	-0.267979	-0.010987
Br189	Br	1.181250	-1.035417	-0.230508
Br190	Br	1.681250	-0.535417	0.269492
Br191	Br	1.467768	-0.905408	-0.486222
Br192	Br	1.967768	-0.405408	0.013778
H193	H	1.214175	-0.921397	-0.259943
H194	H	1.714175	-0.421397	0.240057
H195	H	1.153286	-0.769545	-0.205674
H196	H	1.653286	-0.269545	0.294326
Br197	Br	1.180977	-0.533087	-0.230368
Br198	Br	1.680977	-0.033087	0.269632
