data_functionalizedCrystal
_audit_creation_method	'MofGen! by Chris Wilmer'
_symmetry_space_group_name_H-M	'P1'
_symmetry_Int_Tables_number	1
_symmetry_cell_setting	triclinic
loop_
_symmetry_equiv_pos_as_xyz
  x,y,z
_cell_length_a	27.731994
_cell_length_b	27.731996
_cell_length_c	26.210047
_cell_angle_alpha	89.998501
_cell_angle_beta	89.997128
_cell_angle_gamma	82.620961
loop_
_atom_site_label
_atom_site_type_symbol
_atom_site_fract_x
_atom_site_fract_y
_atom_site_fract_z
O1	O	0.640938	0.057387	-0.042363
O2	O	0.500139	0.066160	-0.042381
O3	O	0.574924	-0.008626	-0.042360
O4	O	0.566152	0.132173	-0.042383
O5	O	0.574910	-0.008614	0.042498
O6	O	0.500124	0.066172	0.042477
O7	O	0.640923	0.057398	0.042495
Cu8	Cu	0.570522	0.061786	0.050235
Cu9	Cu	0.570540	0.061772	-0.050120
O10	O	0.566138	0.132184	0.042475
C11	C	0.482124	0.065986	0.000046
C12	C	0.428468	0.065443	0.000040
C13	C	0.095742	0.062034	0.046316
C14	C	-0.105915	0.059972	0.046322
O15	O	-0.131995	0.059690	0.085661
N16	N	-0.131122	0.059710	0.000066
C17	C	-0.105911	0.059960	-0.046195
O18	O	-0.131978	0.059684	-0.085538
C19	C	0.095746	0.062018	-0.046200
C20	C	0.120950	0.062285	0.000059
C21	C	0.120946	0.062301	0.092572
C22	C	0.171357	0.062819	0.092570
C23	C	0.196564	0.063070	0.046312
C24	C	0.171361	0.062803	0.000057
C25	C	0.120957	0.062264	-0.092460
C26	C	0.171374	0.062777	-0.092458
C27	C	0.196578	0.063045	-0.046199
C28	C	0.246979	0.063572	-0.046202
N29	N	0.272186	0.063835	0.000054
C30	C	0.246979	0.063584	0.046311
C31	C	-0.211784	0.058880	-0.046188
C32	C	-0.262199	0.058366	-0.046187
C33	C	-0.262199	0.058378	0.046330
C34	C	-0.211785	0.058895	0.046328
C35	C	-0.186578	0.059142	0.000068
C36	C	0.352845	0.064672	0.046303
C37	C	0.403261	0.065192	0.046297
C38	C	0.403257	0.065178	-0.046220
C39	C	0.352846	0.064660	-0.046214
C40	C	0.327642	0.064406	0.000052
O41	O	0.273090	0.063849	-0.085521
O42	O	0.273055	0.063848	0.085649
C43	C	0.045331	0.061516	0.046318
C44	C	0.020127	0.061249	0.000063
C45	C	0.045335	0.061500	-0.046194
C46	C	-0.030287	0.060735	0.000064
C47	C	-0.055494	0.060484	0.046322
C48	C	-0.030287	0.060746	0.092578
C49	C	0.020124	0.061264	0.092576
C50	C	0.020128	0.061238	-0.092450
C51	C	-0.030283	0.060720	-0.092445
C52	C	-0.055491	0.060469	-0.046187
C53	C	0.574737	-0.026628	0.000071
C54	C	0.574194	-0.080284	0.000076
C55	C	0.570787	-0.413006	-0.046206
C56	C	0.568726	-0.614664	-0.046215
O57	O	0.568445	-0.640740	-0.085554
N58	N	0.568462	-0.639874	0.000041
C59	C	0.568710	-0.614667	0.046302
O60	O	0.568434	-0.640737	0.085645
C61	C	0.570768	-0.413010	0.046311
C62	C	0.571037	-0.387802	0.000052
C63	C	0.571055	-0.387798	-0.092461
C64	C	0.571573	-0.337387	-0.092458
C65	C	0.571823	-0.312184	-0.046200
C66	C	0.571555	-0.337391	0.000055
C67	C	0.571013	-0.387803	0.092571
C68	C	0.571526	-0.337385	0.092569
C69	C	0.571795	-0.312178	0.046311
C70	C	0.572322	-0.261777	0.046315
N71	N	0.572586	-0.236566	0.000060
C72	C	0.572336	-0.261769	-0.046198
C73	C	0.567631	-0.720540	0.046294
C74	C	0.567118	-0.770954	0.046292
C75	C	0.567132	-0.770947	-0.046225
C76	C	0.567649	-0.720533	-0.046222
C77	C	0.567895	-0.695329	0.000038
C78	C	0.573424	-0.155903	-0.046189
C79	C	0.573944	-0.105487	-0.046182
C80	C	0.573927	-0.105498	0.046335
C81	C	0.573410	-0.155910	0.046328
C82	C	0.573157	-0.181110	0.000062
O83	O	0.572598	-0.235669	0.085634
O84	O	0.572602	-0.235689	-0.085535
C85	C	0.570269	-0.463417	-0.046209
C86	C	0.570001	-0.488624	0.000046
C87	C	0.570251	-0.463421	0.046304
C88	C	0.569487	-0.539039	0.000044
C89	C	0.569238	-0.564242	-0.046213
C90	C	0.569502	-0.539031	-0.092469
C91	C	0.570020	-0.488620	-0.092466
C92	C	0.569987	-0.488632	0.092560
C93	C	0.569469	-0.539043	0.092553
C94	C	0.569220	-0.564246	0.046296
C95	C	0.658938	0.057573	0.000067
C96	C	0.712594	0.058115	0.000070
C97	C	0.566325	0.150186	0.000043
C98	C	0.566868	0.203842	0.000034
N99	N	0.570514	0.061795	0.120818
N100	N	0.570552	0.061759	-0.120704
C101	C	0.603651	0.028664	0.473342
C102	C	0.603662	0.028658	0.687000
O103	O	0.631818	0.000491	0.714630
N104	N	0.570542	0.061762	0.713712
C105	C	0.537415	0.094867	0.687007
O106	O	0.509242	0.123021	0.714630
C107	C	0.537403	0.094872	0.473349
C108	C	0.570528	0.061769	0.446640
C109	C	0.636773	-0.004436	0.446632
C110	C	0.636772	-0.004432	0.393221
C111	C	0.603649	0.028672	0.366519
C112	C	0.570527	0.061773	0.393228
C113	C	0.504274	0.127975	0.446644
C114	C	0.504273	0.127972	0.393226
C115	C	0.537398	0.094869	0.366517
C116	C	0.537402	0.094881	0.313115
N117	N	0.570522	0.061777	0.286403
C118	C	0.603645	0.028672	0.313105
C119	C	0.537425	0.094864	0.799180
C120	C	0.537429	0.094863	0.852594
C121	C	0.603675	0.028653	0.852584
C122	C	0.603673	0.028656	0.799169
C123	C	0.570545	0.061760	0.772468
C124	C	0.603640	0.028683	0.200937
C125	C	0.603637	0.028691	0.147520
C126	C	0.537390	0.094900	0.147535
C127	C	0.537394	0.094894	0.200947
C128	C	0.570521	0.061781	0.227646
O129	O	0.509257	0.123029	0.285452
O130	O	0.631807	0.000516	0.285472
C131	C	0.603652	0.028661	0.526753
C132	C	0.570530	0.061761	0.553463
C133	C	0.537407	0.094865	0.526761
C134	C	0.570534	0.061761	0.606877
C135	C	0.603657	0.028657	0.633579
C136	C	0.636777	-0.004447	0.606867
C137	C	0.636776	-0.004444	0.553455
C138	C	0.504287	0.127969	0.553473
C139	C	0.504292	0.127963	0.606884
C140	C	0.537415	0.094859	0.633586
H141	H	0.423790	0.065384	-0.083881
C142	C	0.532917	-0.043043	0.099982
C143	C	0.574195	-0.077783	0.097178
H144	H	0.533079	-0.025933	0.131371
H145	H	0.533157	-0.020825	0.072431
H146	H	0.504522	-0.058814	0.098053
H147	H	0.602591	-0.062012	0.099102
H148	H	0.573960	-0.100005	0.124736
H149	H	0.570238	-0.468101	-0.130135
C150	C	-0.160849	0.101022	-0.099877
C151	C	-0.184081	0.059157	-0.097042
H152	H	-0.143747	0.101193	-0.131271
H153	H	-0.184421	0.129016	-0.097954
H154	H	-0.138619	0.101246	-0.072331
H155	H	-0.206314	0.058935	-0.124587
H156	H	-0.160507	0.031156	-0.098970
H157	H	0.477318	0.154924	0.628627
H158	H	0.571719	-0.316866	0.130242
H159	H	0.040647	0.061441	-0.130119
H160	H	0.423779	0.065411	0.083969
H161	H	0.569301	-0.559561	-0.130134
H162	H	0.567833	-0.700025	0.083967
C163	C	0.126045	0.062284	-0.183906
C164	C	0.093263	0.061962	-0.143311
H165	H	0.108949	0.062093	-0.215300
H166	H	0.141799	0.090686	-0.181990
H167	H	0.149617	0.034286	-0.181962
H168	H	0.069693	0.089962	-0.145253
H169	H	0.077502	0.033557	-0.145228
C170	C	0.571033	-0.382722	0.184017
C171	C	0.570712	-0.415501	0.143421
H172	H	0.570843	-0.399822	0.215411
H173	H	0.599435	-0.366967	0.182099
H174	H	0.543035	-0.359151	0.182076
H175	H	0.598713	-0.439070	0.145360
H176	H	0.542307	-0.431264	0.145341
H177	H	0.510423	0.121854	0.125786
H178	H	0.510460	0.121824	0.874337
C179	C	0.616070	-0.054520	-0.099861
C180	C	0.574213	-0.077764	-0.097025
H181	H	0.616228	-0.037404	-0.131248
H182	H	0.616298	-0.032305	-0.072307
H183	H	0.644072	-0.078090	-0.097959
H184	H	0.546210	-0.054193	-0.098923
H185	H	0.573980	-0.099981	-0.124587
C186	C	-0.025205	0.060752	-0.183896
C187	C	-0.057983	0.060425	-0.143298
H188	H	-0.042305	0.060564	-0.215289
H189	H	-0.009452	0.089154	-0.181979
H190	H	-0.001633	0.032754	-0.181957
H191	H	-0.081554	0.088425	-0.145235
H192	H	-0.073744	0.032020	-0.145216
H193	H	0.573216	-0.176415	-0.083863
C194	C	0.290399	0.105668	0.099978
C195	C	0.325144	0.064395	0.097158
H196	H	0.273295	0.105496	0.131372
H197	H	0.306161	0.134063	0.098047
H198	H	0.268171	0.105429	0.072431
H199	H	0.347374	0.064635	0.124703
H200	H	0.309381	0.035992	0.099094
C201	C	0.573446	-0.150850	0.137778
C202	C	0.573117	-0.183621	0.097176
H203	H	0.573259	-0.167955	0.169168
H204	H	0.601849	-0.135097	0.135859
H205	H	0.545449	-0.127276	0.135844
H206	H	0.601116	-0.207192	0.099107
H207	H	0.544711	-0.199381	0.099095
H208	H	0.191895	0.062979	-0.130130
H209	H	0.477295	0.154929	0.371489
C210	C	-0.313137	0.016225	0.100000
C211	C	-0.289910	0.058094	0.097179
H212	H	-0.330242	0.016045	0.131392
H213	H	-0.335359	0.016002	0.072453
H214	H	-0.289558	-0.011769	0.098076
H215	H	-0.313489	0.086088	0.099099
H216	H	-0.267685	0.058321	0.124734
H217	H	0.663746	-0.031396	0.468368
C218	C	0.571528	-0.342459	-0.183904
C219	C	0.571860	-0.309682	-0.143307
H220	H	0.571700	-0.325355	-0.215298
H221	H	0.599526	-0.366023	-0.181977
H222	H	0.543126	-0.358219	-0.181974
H223	H	0.600264	-0.293924	-0.145236
H224	H	0.543859	-0.286109	-0.145236
C225	C	0.015044	0.061220	0.184022
C226	C	0.047824	0.061553	0.143426
H227	H	0.032145	0.061394	0.215416
H228	H	-0.008521	0.089218	0.182091
H229	H	-0.000715	0.032818	0.182094
H230	H	0.063581	0.089957	0.145351
H231	H	0.071399	0.033552	0.145357
C232	C	0.569498	-0.533972	0.184005
C233	C	0.569173	-0.566747	0.143406
H234	H	0.569308	-0.551074	0.215397
H235	H	0.597900	-0.518219	0.182087
H236	H	0.541500	-0.510399	0.182067
H237	H	0.597172	-0.590318	0.145342
H238	H	0.540767	-0.582508	0.145325
H239	H	0.477301	0.154930	0.468384
H240	H	0.570850	-0.408313	-0.130131
C241	C	-0.216860	0.058853	0.137775
C242	C	-0.184082	0.059182	0.097177
H243	H	-0.199758	0.059026	0.169168
H244	H	-0.240424	0.086852	0.135846
H245	H	-0.232622	0.030452	0.135849
H246	H	-0.168323	0.087585	0.099101
H247	H	-0.160510	0.031180	0.099108
H248	H	-0.050820	0.060544	0.130242
C249	C	0.567611	-0.725601	-0.137670
C250	C	0.567939	-0.692826	-0.097071
H251	H	0.567786	-0.708497	-0.169062
H252	H	0.595610	-0.749165	-0.135741
H253	H	0.539210	-0.741363	-0.135743
H254	H	0.596342	-0.677067	-0.098995
H255	H	0.539937	-0.669253	-0.099001
H256	H	0.510425	0.121854	0.222694
H257	H	0.570191	-0.468116	0.130229
C258	C	0.669123	-0.036762	0.195547
C259	C	0.640054	-0.007714	0.230279
H260	H	0.691606	-0.059228	0.213663
H261	H	0.649134	-0.054004	0.174716
H262	H	0.686350	-0.016753	0.174712
H263	H	0.622824	-0.027722	0.251111
H264	H	0.660046	0.009530	0.251119
C265	C	0.566343	-0.848229	-0.087300
C266	C	0.566853	-0.798657	-0.097073
H267	H	0.566164	-0.865335	-0.118690
H268	H	0.594457	-0.860392	-0.068298
H269	H	0.538056	-0.852578	-0.068291
H270	H	0.595141	-0.794307	-0.116079
H271	H	0.538736	-0.786490	-0.116083
H272	H	0.566906	-0.791475	0.083961
H273	H	0.663744	-0.031389	0.371477
H274	H	0.630613	0.001735	0.125775
H275	H	0.332323	0.064450	-0.083882
H276	H	0.630646	0.001700	0.777425
H277	H	0.630646	0.001699	0.874334
C278	C	0.702253	-0.069890	0.558827
C279	C	0.673185	-0.040835	0.524101
H280	H	0.724728	-0.092360	0.540706
H281	H	0.719484	-0.049890	0.579656
H282	H	0.682258	-0.087132	0.579664
H283	H	0.693179	-0.023591	0.503266
H284	H	0.655952	-0.060839	0.503263
C285	C	0.166278	0.062772	0.184016
C286	C	0.199058	0.063105	0.143420
H287	H	0.183378	0.062944	0.215410
H288	H	0.142713	0.090770	0.182087
H289	H	0.150518	0.034370	0.182087
H290	H	0.214815	0.091509	0.145347
H291	H	0.222631	0.035104	0.145350
H292	H	0.510447	0.121822	0.777444
H293	H	0.663749	-0.031401	0.628616
C294	C	0.438813	0.193417	0.558859
C295	C	0.467878	0.164364	0.524127
H296	H	0.416338	0.215890	0.540742
H297	H	0.421582	0.173415	0.579689
H298	H	0.458810	0.210655	0.579694
H299	H	0.447882	0.147123	0.503294
H300	H	0.485111	0.184368	0.503288
H301	H	-0.282716	0.058156	-0.083856
H302	H	0.100428	0.062095	0.130242
