data_functionalizedCrystal
_audit_creation_method	'MofGen! by Chris Wilmer'
_symmetry_space_group_name_H-M	'P1'
_symmetry_Int_Tables_number	1
_symmetry_cell_setting	triclinic
loop_
_symmetry_equiv_pos_as_xyz
  x,y,z
_cell_length_a	15.944551
_cell_length_b	7.540329
_cell_length_c	15.944480
_cell_angle_alpha	90.002913
_cell_angle_beta	96.515708
_cell_angle_gamma	89.997115
loop_
_atom_site_label
_atom_site_type_symbol
_atom_site_fract_x
_atom_site_fract_y
_atom_site_fract_z
O1	O	1.114493	0.147273	-0.108334
O2	O	0.869940	0.147314	-0.121691
O3	O	0.998926	0.147308	0.007266
O4	O	0.985508	0.147279	-0.237291
O5	O	0.998922	-0.147657	0.007267
O6	O	0.869936	-0.147651	-0.121690
O7	O	1.114489	-0.147692	-0.108333
Cu8	Cu	0.992212	-0.174604	-0.115011
Cu9	Cu	0.992217	0.174226	-0.115013
O10	O	0.985503	-0.147686	-0.237290
C11	C	0.838644	-0.000163	-0.121136
C12	C	0.745399	-0.000146	-0.119473
N13	N	0.992214	-0.419953	-0.115010
C14	C	0.530563	-0.000170	-0.035566
C15	C	0.469535	0.145259	-0.074530
C16	C	0.574674	-0.000166	-0.116466
C17	C	0.469553	-0.145554	-0.074549
C18	C	0.409762	-0.000194	-0.113555
C19	C	0.514874	0.145383	-0.155452
C20	C	0.514898	-0.145561	-0.155459
C21	C	0.453888	-0.000096	-0.194482
C22	C	0.669675	-0.000149	-0.118141
C23	C	0.314761	-0.000199	-0.111887
C24	C	1.145785	-0.000211	-0.108888
C25	C	1.239031	-0.000217	-0.110550
C26	C	0.998377	-0.000166	0.038562
C27	C	0.996739	-0.000143	0.131811
N28	N	0.992221	0.419575	-0.115007
C29	C	1.072670	-0.000187	0.367572
C30	C	1.031733	0.145252	0.418140
C31	C	0.993702	-0.000162	0.302533
C32	C	1.031710	-0.145560	0.418117
C33	C	0.990775	-0.000189	0.467444
C34	C	0.952787	0.145397	0.351873
C35	C	0.952776	-0.145546	0.351846
C36	C	0.911781	-0.000071	0.402381
C37	C	0.995391	-0.000145	0.207533
C38	C	0.989081	-0.000194	0.562441
C39	C	0.986063	-0.000205	0.731416
C40	C	0.987736	-0.000211	0.638171
H41	H	0.563913	0.000018	0.031574
H42	H	0.420712	-0.000023	-0.261692
C43	C	0.819828	0.000049	0.423290
C44	C	0.787271	-0.153797	0.474254
C45	C	0.695321	-0.153664	0.495167
C46	C	0.635928	0.000314	0.465116
C47	C	0.668484	0.154172	0.414149
C48	C	0.760434	0.154039	0.393236
H49	H	0.831239	-0.267791	0.496502
H50	H	0.671222	-0.267561	0.532896
H51	H	0.567861	0.000412	0.480597
H52	H	0.624517	0.268166	0.391901
H53	H	0.784534	0.267936	0.355507
H54	H	0.449474	-0.268498	-0.040316
C55	C	0.542094	-0.311673	-0.201642
C56	C	0.475532	-0.448284	-0.237129
C57	C	0.502732	-0.614414	-0.283302
C58	C	0.596496	-0.643934	-0.293986
C59	C	0.663064	-0.507319	-0.258498
C60	C	0.635863	-0.341189	-0.212325
H61	H	0.406117	-0.426435	-0.229221
H62	H	0.453454	-0.715545	-0.309573
H63	H	0.616631	-0.766914	-0.328166
H64	H	0.732478	-0.529168	-0.266406
H65	H	0.685142	-0.240058	-0.186054
C66	C	1.164552	-0.000014	0.346449
C67	C	1.223957	0.154052	0.376334
C68	C	1.315837	0.154234	0.355208
C69	C	1.348311	0.000350	0.304199
C70	C	1.288905	-0.153727	0.274312
C71	C	1.197026	-0.153909	0.295437
H72	H	1.199918	0.267976	0.414097
H73	H	1.359812	0.268293	0.377333
H74	H	1.416326	0.000485	0.288561
H75	H	1.312944	-0.267651	0.236549
H76	H	1.153050	-0.267968	0.273312
C77	C	1.076785	0.311343	0.457250
C78	C	1.082786	0.342562	0.553191
C79	C	1.127844	0.508644	0.592298
C80	C	1.166903	0.643508	0.535464
C81	C	1.160904	0.612294	0.439517
C82	C	1.115845	0.446211	0.400410
H83	H	1.053871	0.242724	0.595268
H84	H	1.132285	0.531751	0.663325
H85	H	1.200259	0.766452	0.564413
H86	H	1.189819	0.712131	0.397440
H87	H	1.111405	0.423105	0.329384
C88	C	0.907772	0.311700	0.312948
C89	C	0.901064	0.342484	0.216943
C90	C	0.856053	0.508786	0.178018
C91	C	0.817752	0.644304	0.235097
C92	C	0.824460	0.613524	0.331108
C93	C	0.869470	0.447222	0.370033
H94	H	0.929417	0.242162	0.174685
H95	H	0.851088	0.531571	0.106944
H96	H	0.784433	0.767411	0.206282
H97	H	0.796106	0.713846	0.373366
H98	H	0.874435	0.424437	0.441107
H99	H	0.534855	0.268465	-0.189644
H100	H	0.449436	0.268217	-0.040314
H101	H	0.919454	-0.268499	0.322886
H102	H	1.065074	-0.268509	0.447049
