data_functionalizedCrystal
_audit_creation_method	'MofGen! by Chris Wilmer'
_symmetry_space_group_name_H-M	'P1'
_symmetry_Int_Tables_number	1
_symmetry_cell_setting	triclinic
loop_
_symmetry_equiv_pos_as_xyz
  x,y,z
_cell_length_a	16.109302
_cell_length_b	14.044220
_cell_length_c	14.586319
_cell_angle_alpha	89.995213
_cell_angle_beta	89.994552
_cell_angle_gamma	88.325329
loop_
_atom_site_label
_atom_site_type_symbol
_atom_site_fract_x
_atom_site_fract_y
_atom_site_fract_z
O1	O	1.112195	0.121838	-0.076284
O2	O	1.612195	0.621838	0.423716
O3	O	0.871261	0.136999	-0.076278
O4	O	1.371261	0.636999	0.423722
O5	O	0.988112	-0.008565	-0.076272
O6	O	1.488112	0.491435	0.423728
O7	O	0.995345	0.267402	-0.076290
O8	O	1.495345	0.767402	0.423710
O9	O	0.988103	-0.008567	0.076209
O10	O	1.488103	0.491433	0.576209
O11	O	0.871252	0.136997	0.076203
O12	O	1.371252	0.636997	0.576203
O13	O	1.112186	0.121836	0.076196
O14	O	1.612186	0.621836	0.576196
Cu15	Cu	0.991718	0.129416	0.090122
Cu16	Cu	1.491718	0.629416	0.590122
Cu17	Cu	0.991729	0.129419	-0.090204
Cu18	Cu	1.491729	0.629419	0.409796
O19	O	0.995336	0.267400	0.076191
O20	O	1.495336	0.767400	0.576191
C21	C	0.840236	0.136384	-0.000036
C22	C	1.340236	0.636384	0.499964
C23	C	0.747804	0.134542	-0.000033
C24	C	1.247804	0.634542	0.499967
C25	C	0.535141	0.130283	0.083075
C26	C	1.035141	0.630283	0.583075
C27	C	0.448292	0.128542	0.083072
C28	C	0.948292	0.628542	0.583072
C29	C	0.448312	0.128549	-0.083171
C30	C	0.948312	0.628549	0.416829
C31	C	0.535161	0.130283	-0.083167
C32	C	1.035161	0.630283	0.416833
C33	C	0.578573	0.131155	-0.000041
C34	C	1.078573	0.631155	0.499959
C35	C	0.404875	0.127680	-0.000048
C36	C	0.904875	0.627680	0.499952
C37	C	0.310709	0.125793	-0.000052
C38	C	0.810709	0.625793	0.499948
C39	C	0.672745	0.133040	-0.000037
C40	C	1.172745	0.633040	0.499963
C41	C	0.984941	-0.043879	-0.000031
C42	C	1.484941	0.456121	0.499969
C43	C	0.975498	-0.149102	-0.000030
C44	C	1.475498	0.350898	0.499970
C45	C	0.958232	-0.341758	-0.000042
C46	C	1.458232	0.158242	0.499958
C47	C	1.025212	-0.399412	-0.000047
C48	C	1.525212	0.100588	0.499953
C49	C	1.015605	-0.506613	-0.000054
C50	C	1.515605	-0.006613	0.499946
C51	C	0.967838	-0.234548	-0.000035
C52	C	1.467838	0.265452	0.499965
C53	C	1.143211	0.122451	-0.000047
C54	C	1.643211	0.622451	0.499953
C55	C	1.235644	0.124293	-0.000056
C56	C	1.735644	0.624293	0.499944
C57	C	0.998506	0.302714	-0.000052
C58	C	1.498506	0.802714	0.499948
C59	C	1.007950	0.407937	-0.000060
C60	C	1.507950	0.907937	0.499940
N61	N	0.991717	0.129414	0.216954
N62	N	1.491717	0.629414	0.716954
N63	N	0.991737	0.129414	-0.217035
N64	N	1.491737	0.629414	0.282965
C65	C	1.043479	0.064980	0.451963
C66	C	1.543479	0.564980	0.951963
C67	C	1.043481	0.064977	0.547944
C68	C	1.543481	0.564977	1.047944
C69	C	0.939969	0.193851	0.547949
C70	C	1.439969	0.693851	1.047949
C71	C	0.939963	0.193848	0.451969
C72	C	1.439963	0.693848	0.951969
C73	C	0.991723	0.129413	0.403979
C74	C	1.491723	0.629413	0.903979
C75	C	0.991731	0.129414	0.595940
C76	C	1.491731	0.629414	1.095940
C77	C	0.991733	0.129412	0.700007
C78	C	1.491733	0.629412	1.200007
C79	C	0.991720	0.129414	0.299905
C80	C	1.491720	0.629414	0.799905
H81	H	0.412934	0.127833	0.150754
H82	H	0.912934	0.627833	0.650754
C83	C	0.582938	0.131237	-0.174606
C84	C	1.082938	0.631237	0.325394
N85	N	0.618924	0.131951	-0.243475
N86	N	1.118924	0.631951	0.256525
C87	C	0.883066	0.264777	0.399184
C88	C	1.383066	0.764777	0.899184
N89	N	0.840225	0.318212	0.359425
N90	N	1.340225	0.818212	0.859425
C91	C	0.582892	0.131230	0.174516
C92	C	1.082892	0.631230	0.674516
N93	N	0.618856	0.131939	0.243392
N94	N	1.118856	0.631939	0.743392
H95	H	0.412956	0.127841	-0.150849
H96	H	0.912956	0.627841	0.349151
C97	C	1.112427	-0.357330	-0.000036
C98	C	1.612427	0.142670	0.499964
N99	N	1.178115	-0.325630	-0.000024
N100	N	1.678115	0.174370	0.499976
H101	H	1.085623	0.012512	0.412892
H102	H	1.585623	0.512512	0.912892
C103	C	1.100409	-0.005913	0.600723
C104	C	1.600409	0.494087	1.100723
N105	N	1.143287	-0.059314	0.640475
N106	N	1.643287	0.440686	1.140475
H107	H	0.893680	-0.372908	-0.000043
H108	H	1.393680	0.127092	0.499957
C109	C	0.883035	0.264723	0.600747
C110	C	1.383035	0.764723	1.100747
N111	N	0.840151	0.318106	0.640514
N112	N	1.340151	0.818106	1.140514
