data_functionalizedCrystal
_audit_creation_method	'MofGen! by Chris Wilmer'
_symmetry_space_group_name_H-M	'P1'
_symmetry_Int_Tables_number	1
_symmetry_cell_setting	triclinic
loop_
_symmetry_equiv_pos_as_xyz
  x,y,z
_cell_length_a	12.759395
_cell_length_b	12.759394
_cell_length_c	14.908308
_cell_angle_alpha	93.270151
_cell_angle_beta	93.279830
_cell_angle_gamma	90.014617
loop_
_atom_site_label
_atom_site_type_symbol
_atom_site_fract_x
_atom_site_fract_y
_atom_site_fract_z
Zn1	Zn	1.571951	-0.452506	-0.510069
Zn2	Zn	1.581995	-0.618074	-0.359221
Zn3	Zn	1.406399	-0.442413	-0.359232
Zn4	Zn	1.396246	-0.628143	-0.510035
O5	O	1.489148	-0.535284	-0.434639
O6	O	1.720304	-0.474479	-0.490069
O7	O	1.567155	-0.586334	-0.232981
O8	O	1.428406	-0.296732	-0.379259
O9	O	1.727683	-0.596121	-0.379241
O10	O	1.550036	-0.304147	-0.490079
O11	O	1.438145	-0.457277	-0.232989
O12	O	1.258032	-0.467040	-0.379227
O13	O	1.411101	-0.613283	-0.636282
O14	O	1.250573	-0.603496	-0.490021
O15	O	1.540191	-0.484243	-0.636307
O16	O	1.557310	-0.766430	-0.379209
O17	O	1.420841	-0.773828	-0.490011
C18	C	1.216182	-0.535266	-0.434622
C19	C	1.099404	-0.535286	-0.434636
C20	C	0.872270	-0.408874	-0.550256
C21	C	0.923289	-0.345645	-0.608041
C22	C	1.033012	-0.345625	-0.608025
C23	C	1.091718	-0.408845	-0.550221
C24	C	1.040700	-0.472075	-0.492436
C25	C	0.930974	-0.472085	-0.492456
C26	C	1.048385	-0.598515	-0.376851
C27	C	0.938663	-0.598530	-0.376861
C28	C	1.107092	-0.661735	-0.319046
C29	C	1.056074	-0.724961	-0.261256
C30	C	0.946345	-0.724976	-0.261273
C31	C	0.887644	-0.661760	-0.319076
C32	C	1.489091	-0.808251	-0.434625
C33	C	1.489160	-0.925029	-0.434648
C34	C	1.615707	-0.932598	-0.550131
C35	C	1.679013	-0.991244	-0.607879
C36	C	1.679074	-1.100967	-0.607899
C37	C	1.615820	-1.152046	-0.550166
C38	C	1.552514	-1.093400	-0.492418
C39	C	1.552462	-0.983675	-0.492402
C40	C	1.425963	-1.085831	-0.376941
C41	C	1.425906	-0.976108	-0.376915
C42	C	1.362709	-1.136911	-0.319208
C43	C	1.299407	-1.078264	-0.261454
C44	C	1.299349	-0.968535	-0.261436
C45	C	1.362600	-0.917462	-0.319167
C46	C	1.763180	-0.535303	-0.434658
C47	C	1.879956	-0.535311	-0.434665
C48	C	1.473393	-0.551012	-0.669942
C49	C	1.466679	-0.557714	-0.770215
C50	C	1.489233	-0.261253	-0.434674
C51	C	1.489269	-0.144477	-0.434689
C52	C	1.588481	-0.435914	-0.958664
C53	C	1.582176	-0.442208	-1.052879
C54	C	1.447760	-0.576589	-1.052860
C55	C	1.454065	-0.570295	-0.958646
C56	C	1.524429	-0.499956	-0.911551
C57	C	1.530738	-0.493669	-0.817335
C58	C	1.396318	-0.628044	-0.817318
C59	C	1.390013	-0.634338	-0.911532
C60	C	1.504902	-0.519542	-0.200252
C61	C	1.511819	-0.512544	-0.099980
H62	H	0.875478	-0.294175	-0.655106
N63	N	1.327233	-0.697132	-0.766504
H64	H	1.341905	-0.682477	-0.699672
H65	H	1.251100	-0.681883	-0.782966
H66	H	1.645780	-0.378647	-0.920319
H67	H	1.615866	-1.241389	-0.550194
N68	N	1.088046	-0.277438	-0.670354
H69	H	1.034212	-0.237393	-0.706977
H70	H	1.136020	-0.226294	-0.633695
H71	H	1.181060	-0.408834	-0.550221
H72	H	0.904812	-0.776471	-0.214222
H73	H	0.798303	-0.661753	-0.319085
N74	N	1.615656	-0.814254	-0.550097
H75	H	1.665334	-0.790794	-0.595428
H76	H	1.542418	-0.789053	-0.566599
N77	N	1.747226	-0.936154	-0.670154
H78	H	1.737584	-0.857746	-0.661382
H79	H	1.823220	-0.954342	-0.656171
H80	H	1.390473	-0.633855	-1.091221
N81	N	1.225433	-0.661771	-0.319067
H82	H	1.248846	-0.612136	-0.364454
H83	H	1.255953	-0.638255	-0.257186
H84	H	1.730612	-1.148717	-0.654932
H85	H	1.247793	-0.920791	-0.214414
H86	H	1.332722	-0.691603	-0.949890
N87	N	1.362790	-1.255253	-0.319216
H88	H	1.339309	-1.285826	-0.381090
H89	H	1.436022	-1.280416	-0.302642
N90	N	1.231189	-1.133354	-0.199191
H91	H	1.240830	-1.211761	-0.207969
H92	H	1.251906	-1.109887	-0.134770
N93	N	1.606636	-0.417818	-0.766536
H94	H	1.566577	-0.366520	-0.727441
H95	H	1.657907	-0.457995	-0.727503
H96	H	1.362564	-0.828120	-0.319154
H97	H	1.634332	-0.390055	-1.091235
N98	N	1.119389	-0.793145	-0.198918
H99	H	1.196639	-0.783543	-0.207681
H100	H	1.104512	-0.772367	-0.134516
H101	H	0.782929	-0.408859	-0.550255
