data_functionalizedCrystal
_audit_creation_method	'MofGen! by Chris Wilmer'
_symmetry_space_group_name_H-M	'P1'
_symmetry_Int_Tables_number	1
_symmetry_cell_setting	triclinic
loop_
_symmetry_equiv_pos_as_xyz
  x,y,z
_cell_length_a	15.944551
_cell_length_b	15.944551
_cell_length_c	14.421503
_cell_angle_alpha	89.996660
_cell_angle_beta	89.996859
_cell_angle_gamma	96.501262
loop_
_atom_site_label
_atom_site_type_symbol
_atom_site_fract_x
_atom_site_fract_y
_atom_site_fract_z
O1	O	1.114529	-0.108320	-0.077017
O2	O	0.869980	-0.121677	-0.077040
O3	O	0.998933	0.007276	-0.077020
O4	O	0.985576	-0.237273	-0.077038
O5	O	0.998911	0.007257	0.077204
O6	O	0.869958	-0.121696	0.077183
O7	O	1.114508	-0.108340	0.077206
Cu8	Cu	0.992231	-0.115020	0.091277
Cu9	Cu	0.992256	-0.114997	-0.091110
O10	O	0.985555	-0.237293	0.077186
C11	C	0.838675	-0.121132	0.000069
C12	C	0.745429	-0.119470	0.000060
C13	C	0.998367	0.038561	0.000092
C14	C	0.996705	0.131807	0.000093
C15	C	0.530572	-0.035565	0.000084
C16	C	0.469563	-0.074518	-0.075959
C17	C	0.574703	-0.116462	0.000071
C18	C	0.469564	-0.074556	0.076093
C19	C	0.409790	-0.113551	0.000086
C20	C	0.514922	-0.155437	-0.076035
C21	C	0.514929	-0.155464	0.076086
C22	C	0.453937	-0.194476	0.000024
C23	C	0.669705	-0.118137	0.000062
C24	C	0.314789	-0.111883	0.000089
C25	C	1.145813	-0.108885	0.000096
C26	C	1.239059	-0.110547	0.000098
C27	C	0.986120	-0.268577	0.000072
C28	C	0.987782	-0.361823	0.000066
N29	N	0.992219	-0.115035	0.219558
C30	C	0.912801	0.346663	0.000072
C31	C	0.951753	0.407671	0.076117
C32	C	0.993698	0.302533	0.000085
C33	C	0.951793	0.407674	-0.075935
C34	C	0.990787	0.467445	0.000074
C35	C	1.032672	0.362312	0.076193
C36	C	1.032701	0.362308	-0.075927
C37	C	1.071711	0.423298	0.000136
C38	C	0.995372	0.207530	0.000092
C39	C	0.989119	0.562446	0.000073
N40	N	0.992275	-0.114975	-0.219392
C41	C	0.932581	-0.174636	0.469202
C42	C	1.008481	-0.190943	0.531011
C43	C	0.992240	-0.115015	0.408719
C44	C	0.916359	-0.098727	0.531005
C45	C	0.992253	-0.114997	0.591441
C46	C	1.068178	-0.131360	0.469167
C47	C	0.976007	-0.039111	0.469156
C48	C	1.051961	-0.055386	0.530936
C49	C	0.992231	-0.115027	0.303458
C50	C	0.992270	-0.114985	0.696700
H51	H	0.449461	-0.040294	-0.140243
H52	H	1.022224	-0.255126	0.558180
H53	H	0.563905	0.031573	-0.000005
C54	C	0.906036	0.434335	-0.161628
C55	C	0.822893	0.395142	-0.161277
C56	C	0.780714	0.419669	-0.240203
H57	H	0.905664	0.493866	-0.161391
H58	H	0.934190	0.418011	-0.215647
H59	H	0.794745	0.411471	-0.107272
H60	H	0.823240	0.335612	-0.161527
H61	H	0.808869	0.403345	-0.294222
H62	H	0.780349	0.479200	-0.239960
H63	H	0.724300	0.393074	-0.239980
C64	C	0.957772	0.046522	0.433017
C65	C	1.019526	0.108953	0.465672
C66	C	1.002740	0.187848	0.432407
H67	H	0.958440	0.046159	0.367157
H68	H	0.903827	0.058059	0.454178
H69	H	1.073458	0.097419	0.444506
H70	H	1.018869	0.109343	0.531529
H71	H	0.948795	0.199386	0.453569
H72	H	1.003407	0.187477	0.366548
H73	H	1.044632	0.230218	0.454566
H74	H	1.102474	-0.004956	0.557872
C75	C	1.153678	-0.149920	0.432929
C76	C	1.152646	-0.149799	0.335850
C77	C	1.231376	-0.166937	0.302433
H78	H	1.196187	-0.107872	0.454442
H79	H	1.165270	-0.203690	0.454590
H80	H	1.141064	-0.096037	0.314198
H81	H	1.110154	-0.191848	0.314312
H82	H	1.242968	-0.220706	0.324094
H83	H	1.273879	-0.124886	0.323952
H84	H	1.230684	-0.166865	0.236562
C85	C	1.078179	0.335482	0.161981
C86	C	1.079152	0.247790	0.161017
C87	C	1.121052	0.223040	0.240035
H88	H	1.134488	0.362327	0.162289
H89	H	1.049620	0.351322	0.215935
H90	H	1.107713	0.231957	0.107078
H91	H	1.022855	0.220924	0.160724
H92	H	1.092492	0.238881	0.293989
H93	H	1.177358	0.249890	0.240336
H94	H	1.121711	0.163538	0.239396
C95	C	1.161338	0.467477	0.000389
C96	C	1.203280	0.444481	0.080150
C97	C	1.285839	0.485172	0.080426
H98	H	1.190398	0.451291	-0.053050
H99	H	1.159829	0.526871	-0.000073
H100	H	1.204793	0.385100	0.080604
H101	H	1.174246	0.460668	0.133603
H102	H	1.284330	0.544566	0.079964
H103	H	1.314891	0.468983	0.026983
H104	H	1.314304	0.469581	0.134546
H105	H	1.066897	0.342186	-0.140214
H106	H	0.852183	-0.084959	0.558170
H107	H	0.882181	-0.225096	0.442096
H108	H	0.534918	-0.189620	-0.140394
H109	H	0.420779	-0.261683	-0.000023
C110	C	0.541637	-0.201192	0.161772
C111	C	0.501278	-0.283881	0.162356
C112	C	0.525855	-0.326019	0.241290
H113	H	0.601051	-0.202454	0.160920
H114	H	0.526257	-0.172426	0.215779
H115	H	0.516664	-0.312640	0.108364
H116	H	0.441865	-0.282644	0.163222
H117	H	0.510475	-0.297253	0.295296
H118	H	0.585269	-0.327274	0.240431
H119	H	0.498470	-0.382125	0.241701
C120	C	0.442736	-0.028790	0.161703
C121	C	0.402316	0.040751	0.134511
C122	C	0.377603	0.082943	0.213343
H123	H	0.405026	-0.066120	0.197572
H124	H	0.491108	-0.009996	0.197748
H125	H	0.353950	0.021956	0.098482
H126	H	0.440010	0.078101	0.098652
H127	H	0.425975	0.101737	0.249388
H128	H	0.339895	0.045606	0.249207
H129	H	0.350182	0.130135	0.194905
C130	C	0.823332	0.302091	0.000105
C131	C	0.826038	0.214630	-0.000735
C132	C	0.743638	0.173543	-0.000715
H133	H	0.794631	0.317406	0.054172
H134	H	0.794305	0.318225	-0.053393
H135	H	0.855053	0.198502	0.052757
H136	H	0.854722	0.199290	-0.054798
H137	H	0.714611	0.189677	-0.054213
H138	H	0.714944	0.188864	0.053352
H139	H	0.745463	0.114197	-0.001294
C140	C	0.905964	0.434413	0.161752
C141	C	0.822805	0.395262	0.161386
C142	C	0.780591	0.419880	0.240248
H143	H	0.934050	0.418129	0.215820
H144	H	0.905639	0.493959	0.161419
H145	H	0.823134	0.335728	0.161728
H146	H	0.794696	0.411541	0.107336
H147	H	0.780267	0.479427	0.239914
H148	H	0.808684	0.403595	0.294310
H149	H	0.724162	0.393327	0.240005
