data_functionalizedCrystal
_audit_creation_method	'MofGen! by Chris Wilmer'
_symmetry_space_group_name_H-M	'P1'
_symmetry_Int_Tables_number	1
_symmetry_cell_setting	triclinic
loop_
_symmetry_equiv_pos_as_xyz
  x,y,z
_cell_length_a	12.759400
_cell_length_b	14.908618
_cell_length_c	14.908308
_cell_angle_alpha	90.173623
_cell_angle_beta	86.730859
_cell_angle_gamma	93.290618
loop_
_atom_site_label
_atom_site_type_symbol
_atom_site_fract_x
_atom_site_fract_y
_atom_site_fract_z
Zn1	Zn	-0.548328	-1.345340	0.587634
Zn2	Zn	-0.714509	-1.353934	0.437280
Zn3	Zn	-0.528144	-1.203653	0.428628
Zn4	Zn	-0.713255	-1.194962	0.578927
O5	O	-0.626059	-1.274472	0.508117
O6	O	-0.579345	-1.472306	0.574954
O7	O	-0.681864	-1.341233	0.310307
O8	O	-0.383805	-1.222489	0.449743
O9	O	-0.701437	-1.478621	0.464489
O10	O	-0.398634	-1.326585	0.566565
O11	O	-0.544943	-1.230823	0.303951
O12	O	-0.543727	-1.076674	0.441300
O13	O	-0.699300	-1.207676	0.705907
O14	O	-0.679728	-1.070288	0.551725
O15	O	-0.578129	-1.318158	0.712304
O16	O	-0.861359	-1.332805	0.456046
O17	O	-0.860438	-1.216009	0.560114
C18	C	-0.609402	-1.040856	0.494629
C19	C	-0.602302	-0.940912	0.488880
C20	C	-0.899021	-1.274420	0.508095
C21	C	-1.015804	-1.274478	0.508121
C22	C	-0.730778	-0.746516	0.592908
C23	C	-0.724111	-0.652610	0.587510
C24	C	-0.582297	-0.659192	0.472690
C25	C	-0.588964	-0.753098	0.478089
C26	C	-0.663208	-0.796757	0.538199
C27	C	-0.669879	-0.890665	0.543592
C28	C	-0.528061	-0.897245	0.428778
C29	C	-0.521394	-0.803339	0.423379
C30	C	-1.071119	-1.335354	0.454000
C31	C	-1.180849	-1.335408	0.454031
C32	C	-1.179938	-1.213702	0.562305
C33	C	-1.070211	-1.213653	0.562279
C34	C	-1.016712	-1.396179	0.399842
C35	C	-1.072027	-1.457059	0.345716
C36	C	-1.181757	-1.457113	0.345747
C37	C	-1.236171	-1.396286	0.399904
C38	C	-0.352034	-1.274548	0.508160
C39	C	-0.235260	-1.274580	0.508178
C40	C	-0.640826	-1.260988	0.742642
C41	C	-0.647119	-1.255242	0.842583
C42	C	-0.642773	-0.509001	0.521651
C43	C	-0.649874	-0.608945	0.527402
C44	C	-0.611277	-1.287955	0.274507
C45	C	-0.604701	-1.293876	0.174577
C46	C	-0.532744	-1.359487	1.037045
C47	C	-0.538654	-1.354091	1.130949
C48	C	-0.664841	-1.239050	1.124295
C49	C	-0.658931	-1.244446	1.030391
C50	C	-0.592882	-1.304668	0.986770
C51	C	-0.586979	-1.310068	0.892865
C52	C	-0.713160	-1.195023	0.886213
C53	C	-0.719069	-1.189627	0.980116
H54	H	-0.730334	-0.926210	0.592535
H55	H	-0.718614	-1.190021	1.159828
H56	H	-1.027718	-1.506587	0.301629
C57	C	-0.501510	-0.611840	0.407553
C58	C	-0.400471	-0.633565	0.428625
C59	C	-0.326015	-0.589959	0.368649
H60	H	-0.513914	-0.630650	0.347965
H61	H	-0.507127	-0.548706	0.412176
H62	H	-0.394858	-0.696685	0.423994
H63	H	-0.388034	-0.614753	0.488202
H64	H	-0.331632	-0.526825	0.373271
H65	H	-0.338430	-0.608773	0.309065
H66	H	-0.257452	-0.604686	0.382943
H67	H	-1.325522	-1.396342	0.399932
H68	H	-0.762132	-1.150387	0.845269
C69	C	-0.811351	-0.794091	0.658073
C70	C	-0.802744	-0.887084	0.651075
C71	C	-0.876962	-0.930938	0.711083
H72	H	-0.798879	-0.775350	0.717669
H73	H	-0.880015	-0.779508	0.643917
H74	H	-0.734096	-0.901660	0.665237
H75	H	-0.815226	-0.905850	0.591493
H76	H	-0.945626	-0.916355	0.696927
H77	H	-0.864483	-0.912190	0.770675
H78	H	-0.871138	-0.994038	0.706337
C79	C	-1.239198	-1.147700	0.620998
C80	C	-1.347130	-1.160756	0.609419
C81	C	-1.401749	-1.099960	0.663461
H82	H	-1.226040	-1.157267	0.682209
H83	H	-1.216202	-1.088028	0.604288
H84	H	-1.370117	-1.220412	0.626135
H85	H	-1.360319	-1.151180	0.548220
H86	H	-1.378754	-1.040289	0.646751
H87	H	-1.388583	-1.109533	0.724669
H88	H	-1.474985	-1.108804	0.655606
H89	H	-0.478970	-1.408526	1.001528
C90	C	-0.797601	-0.598222	0.646953
C91	C	-0.864059	-0.656560	0.700733
C92	C	-0.931781	-0.606491	0.755499
H93	H	-0.757469	-0.559339	0.684160
H94	H	-0.838608	-0.563576	0.610410
H95	H	-0.823056	-0.691191	0.737273
H96	H	-0.904213	-0.695444	0.663550
H97	H	-0.972788	-0.571845	0.718956
H98	H	-0.891641	-0.567610	0.792700
H99	H	-0.976887	-0.646066	0.791989
C100	C	-0.790754	-1.124336	1.027649
C101	C	-0.783077	-1.131355	1.120647
C102	C	-0.849111	-1.071232	1.164461
H103	H	-0.770181	-1.064766	1.008879
H104	H	-0.861339	-1.138372	1.013064
H105	H	-0.712507	-1.117313	1.135225
H106	H	-0.803658	-1.190911	1.139443
H107	H	-0.919696	-1.085269	1.149876
H108	H	-0.828532	-1.011667	1.145684
H109	H	-0.843918	-1.075993	1.227565
H110	H	-0.489680	-1.398728	1.171879
H111	H	-1.025173	-1.164083	0.606350
H112	H	-0.473043	-0.938162	0.384227
C113	C	-0.440852	-0.756055	0.357981
C114	C	-0.459578	-0.784003	0.270299
C115	C	-0.385396	-0.740474	0.210029
H116	H	-0.446482	-0.692926	0.362480
H117	H	-0.372191	-0.770714	0.372069
H118	H	-0.528221	-0.769338	0.256215
H119	H	-0.453938	-0.847126	0.265771
H120	H	-0.316735	-0.755133	0.224118
H121	H	-0.391032	-0.677347	0.214537
H122	H	-0.398085	-0.759437	0.150531
H123	H	-0.927364	-1.396140	0.399808
H124	H	-1.226793	-1.506690	0.301682
C125	C	-0.515166	-1.375471	0.845666
C126	C	-0.463743	-1.422305	0.909798
C127	C	-0.397566	-1.482552	0.866354
H128	H	-0.555725	-1.416827	0.811291
H129	H	-0.464583	-1.343207	0.807076
H130	H	-0.514319	-1.454567	0.948372
H131	H	-0.423164	-1.380972	0.944176
H132	H	-0.346982	-1.450288	0.827764
H133	H	-0.438133	-1.523902	0.831980
H134	H	-0.362660	-1.514330	0.909860
