data_functionalizedCrystal
_audit_creation_method	'MofGen! by Chris Wilmer'
_symmetry_space_group_name_H-M	'P1'
_symmetry_Int_Tables_number	1
_symmetry_cell_setting	triclinic
loop_
_symmetry_equiv_pos_as_xyz
  x,y,z
_cell_length_a	14.044191
_cell_length_b	27.732048
_cell_length_c	12.503572
_cell_angle_alpha	93.489054
_cell_angle_beta	86.162165
_cell_angle_gamma	87.917216
loop_
_atom_site_label
_atom_site_type_symbol
_atom_site_fract_x
_atom_site_fract_y
_atom_site_fract_z
O1	O	1.261504	0.113917	-0.089290
O2	O	0.985597	0.109711	-0.089303
O3	O	1.132118	0.041820	-0.089276
O4	O	1.114983	0.181808	-0.089317
O5	O	1.121099	0.046935	0.089364
O6	O	0.974577	0.114826	0.089337
O7	O	1.250485	0.119032	0.089350
Cu8	Cu	1.111525	0.117396	0.105655
Cu9	Cu	1.124557	0.111347	-0.105608
O10	O	1.103963	0.186923	0.089323
C11	C	0.944800	0.110428	0.000016
C12	C	0.839654	0.104940	0.000012
C13	C	0.588944	0.133831	0.000014
C14	C	0.647143	0.094914	0.000024
C15	C	0.754266	0.100494	0.000017
C16	C	0.481811	0.128252	0.000020
C17	C	1.126249	0.026354	0.000047
C18	C	1.125165	-0.027351	0.000056
C19	C	1.204934	-0.362424	0.000005
C20	C	1.200915	-0.564272	-0.000011
O21	O	1.273858	-0.592105	-0.000054
N22	N	1.114033	-0.587475	-0.000014
C23	C	1.028150	-0.560212	-0.000020
O24	O	0.954160	-0.584578	-0.000034
C25	C	1.032170	-0.358364	-0.000012
C26	C	1.119057	-0.335164	0.000002
C27	C	1.291814	-0.339224	0.000017
C28	C	1.292817	-0.288764	0.000027
C29	C	1.206940	-0.261505	0.000024
C30	C	1.120060	-0.284705	0.000011
C31	C	0.946289	-0.331102	-0.000026
C32	C	0.947301	-0.280637	-0.000027
C33	C	1.034188	-0.257438	-0.000013
C34	C	1.035187	-0.206986	0.000018
N35	N	1.122069	-0.183784	0.000021
C36	C	1.207946	-0.211043	0.000024
C37	C	1.026046	-0.666185	-0.000022
C38	C	1.025040	-0.716646	-0.000022
C39	C	1.197806	-0.720704	-0.000014
C40	C	1.198810	-0.670241	-0.000007
C41	C	1.112928	-0.642982	-0.000019
C42	C	1.210046	-0.105075	0.000045
C43	C	1.211041	-0.054611	0.000059
C44	C	1.038277	-0.050558	0.000046
C45	C	1.037280	-0.101018	0.000038
C46	C	1.123173	-0.128275	0.000034
O47	O	0.962284	-0.179123	0.000049
O48	O	1.281926	-0.186668	0.000014
C49	C	1.203930	-0.412883	-0.000005
C50	C	1.117050	-0.436083	-0.000018
C51	C	1.031174	-0.408824	-0.000021
C52	C	1.116045	-0.486545	-0.000018
C53	C	1.201922	-0.513804	-0.000015
C54	C	1.288804	-0.490602	-0.000012
C55	C	1.289807	-0.440142	-0.000002
C56	C	0.944292	-0.432026	-0.000024
C57	C	0.943295	-0.482485	-0.000032
C58	C	1.029172	-0.509745	-0.000029
C59	C	1.291282	0.118315	0.000029
C60	C	1.396428	0.123803	0.000026
C61	C	1.109833	0.202389	-0.000003
C62	C	1.110917	0.256094	-0.000019
N63	N	1.102366	0.121651	0.254245
N64	N	1.133723	0.107089	-0.254198
C65	C	1.088893	0.127914	0.473358
C66	C	1.147193	0.100828	0.526696
C67	C	1.139696	0.104312	0.648618
C68	C	1.096388	0.124429	0.351425
H69	H	0.619570	0.171337	-0.000001
H70	H	1.033354	0.153718	0.519255
H71	H	1.360559	-0.421258	0.000009
C72	C	0.852821	-0.250656	-0.000037
N73	N	0.781659	-0.228075	-0.000040
C74	C	0.941701	-0.126538	0.000029
N75	N	0.869709	-0.145757	0.000012
H76	H	0.968358	-0.028354	0.000047
C77	C	1.306628	-0.029094	0.000071
N78	N	1.378622	-0.009877	0.000078
C79	C	1.388401	-0.263252	0.000031
N80	N	1.460400	-0.244039	0.000029
C81	C	0.605770	0.044240	0.000029
N82	N	0.574604	0.006074	0.000027
C83	C	1.304532	-0.135051	0.000050
N84	N	1.375698	-0.157628	0.000063
H85	H	1.361749	-0.361413	0.000016
H86	H	1.269561	-0.651355	0.000004
C87	C	1.292272	-0.750698	-0.000019
N88	N	1.363419	-0.773293	-0.000033
H89	H	0.874359	-0.409836	-0.000029
C90	C	0.929457	-0.742160	-0.000024
N91	N	0.857461	-0.761375	-0.000032
C92	C	0.931562	-0.636206	-0.000034
N93	N	0.860396	-0.613629	-0.000040
H94	H	1.358727	-0.512805	-0.000004
H95	H	0.872536	-0.501370	-0.000034
C96	C	1.222240	0.065970	0.464686
N97	N	1.278768	0.039720	0.417976
C98	C	0.850705	-0.356611	-0.000049
N99	N	0.778706	-0.375823	-0.000070
