data_functionalizedCrystal
_audit_creation_method	'MofGen! by Chris Wilmer'
_symmetry_space_group_name_H-M	'P1'
_symmetry_Int_Tables_number	1
_symmetry_cell_setting	triclinic
loop_
_symmetry_equiv_pos_as_xyz
  x,y,z
_cell_length_a	12.645331
_cell_length_b	12.645330
_cell_length_c	19.077579
_cell_angle_alpha	87.677471
_cell_angle_beta	87.691152
_cell_angle_gamma	90.013057
loop_
_atom_site_label
_atom_site_type_symbol
_atom_site_fract_x
_atom_site_fract_y
_atom_site_fract_z
Zn1	Zn	1.644768	-0.397970	-0.397887
Zn2	Zn	2.144768	0.102030	0.102113
Zn3	Zn	1.637567	-0.582372	-0.280196
Zn4	Zn	2.137567	-0.082372	0.219804
Zn5	Zn	1.460385	-0.405123	-0.280213
Zn6	Zn	1.960385	0.094877	0.219787
Zn7	Zn	1.467479	-0.575195	-0.397863
Zn8	Zn	1.967479	-0.075195	0.102137
O9	O	1.552550	-0.490165	-0.339040
O10	O	2.052550	0.009835	0.160960
O11	O	1.792160	-0.422442	-0.382279
O12	O	2.292160	0.077558	0.117721
O13	O	1.608080	-0.564856	-0.181707
O14	O	2.108080	-0.064856	0.318293
O15	O	1.484889	-0.255826	-0.295840
O16	O	1.984889	0.244174	0.204160
O17	O	1.786869	-0.557921	-0.295811
O18	O	2.286869	-0.057921	0.204189
O19	O	1.620355	-0.250571	-0.382295
O20	O	2.120355	0.249429	0.117705
O21	O	1.477906	-0.434632	-0.181720
O22	O	1.977906	0.065368	0.318280
O23	O	1.312979	-0.427673	-0.295816
O24	O	1.812979	0.072327	0.204184
O25	O	1.496979	-0.545689	-0.496357
O26	O	1.996979	-0.045689	0.003643
O27	O	1.318190	-0.552624	-0.382253
O28	O	1.818190	-0.052624	0.117747
O29	O	1.627233	-0.415483	-0.496375
O30	O	2.127233	0.084517	0.003625
O31	O	1.614959	-0.729768	-0.295788
O32	O	2.114959	-0.229768	0.204212
O33	O	1.489996	-0.724495	-0.382237
O34	O	1.989996	-0.224495	0.117763
C35	C	1.277120	-0.490147	-0.339035
C36	C	1.777120	0.009853	0.160965
C37	C	1.159291	-0.490164	-0.339049
C38	C	1.659291	0.009836	0.160951
C39	C	1.117718	-0.568915	-0.393347
C40	C	1.617718	-0.068915	0.106653
C41	C	0.995148	-0.569262	-0.393186
C42	C	1.495148	-0.069262	0.106814
C43	C	0.986860	-0.524491	-0.264784
C44	C	1.486860	-0.024491	0.235216
C45	C	1.109477	-0.525051	-0.265099
C46	C	1.609477	-0.025051	0.234901
C47	C	1.115300	-0.376951	-0.358367
C48	C	1.615300	0.123049	0.141633
C49	C	0.992793	-0.377471	-0.360002
C50	C	1.492793	0.122529	0.139998
C51	C	1.552496	-0.765596	-0.339023
C52	C	2.052496	-0.265596	0.160977
C53	C	1.552571	-0.883425	-0.339040
C54	C	2.052571	-0.383425	0.160960
C55	C	1.631047	-1.054268	-0.284544
C56	C	2.131047	-0.554268	0.215456
C57	C	1.631321	-0.931700	-0.284678
C58	C	2.131321	-0.431700	0.215322
C59	C	1.587346	-0.923323	-0.413228
C60	C	2.087346	-0.423323	0.086772
C61	C	1.587977	-1.045938	-0.412939
C62	C	2.087977	-0.545938	0.087061
C63	C	1.439332	-1.051899	-0.320078
C64	C	1.939332	-0.551899	0.179922
C65	C	1.439769	-0.929395	-0.318414
C66	C	1.939769	-0.429395	0.181586
C67	C	1.829055	-0.490184	-0.339046
C68	C	2.329055	0.009816	0.160954
C69	C	1.946885	-0.490192	-0.339048
C70	C	2.446885	0.009808	0.160952
C71	C	1.563701	-0.478987	-0.522618
C72	C	2.063701	0.021013	-0.022618
C73	C	1.568453	-0.474224	-0.600848
C74	C	2.068453	0.025776	-0.100848
C75	C	1.552634	-0.213658	-0.339072
C76	C	2.052634	0.286342	0.160928
C77	C	1.552670	-0.095827	-0.339086
C78	C	2.052670	0.404173	0.160914
C79	C	1.602536	-0.440138	-1.041201
C80	C	2.102536	0.059862	-0.541201
C81	C	1.598064	-0.444618	-0.967696
C82	C	2.098064	0.055382	-0.467696
C83	C	1.528007	-0.514644	-0.930937
C84	C	2.028007	-0.014644	-0.430937
C85	C	1.462425	-0.580201	-0.967688
C86	C	1.962425	-0.080201	-0.467688
C87	C	1.466902	-0.575725	-1.041192
C88	C	1.966902	-0.075725	-0.541192
C89	C	1.507348	-0.535305	-0.711103
C90	C	2.007348	-0.035305	-0.211103
C91	C	1.502873	-0.539773	-0.637593
C92	C	2.002873	-0.039773	-0.137593
C93	C	1.638515	-0.404192	-0.637606
C94	C	2.138515	0.095808	-0.137606
C95	C	1.642982	-0.399718	-0.711112
C96	C	2.142982	0.100282	-0.211112
C97	C	1.577403	-0.465278	-0.747856
C98	C	2.077403	0.034722	-0.247856
N99	N	1.523432	-0.519223	-0.855803
N100	N	2.023432	-0.019223	-0.355803
N101	N	1.581984	-0.460704	-0.822989
N102	N	2.081984	0.039296	-0.322989
C103	C	1.541503	-0.501223	-0.156176
C104	C	2.041503	-0.001223	0.343824
C105	C	1.536956	-0.505687	-0.077947
C106	C	2.036956	-0.005687	0.422053
H107	H	0.959954	-0.315341	-0.323369
H108	H	1.459954	0.184659	0.176631
H109	H	0.968415	-0.547338	-0.448242
H110	H	1.468415	-0.047338	0.051758
H111	H	1.714447	-1.084247	-0.296975
H112	H	2.214447	-0.584247	0.203025
N113	N	1.157471	-0.679288	-0.376582
N114	N	1.657471	-0.179288	0.123418
H115	H	1.237405	-0.679343	-0.379033
H116	H	1.737405	-0.179343	0.120967
H117	H	1.131166	-0.703027	-0.327777
H118	H	1.631166	-0.203027	0.172223
N119	N	1.718519	-0.324166	-0.750757
N120	N	2.218519	0.175834	-0.250757
H121	H	1.759380	-0.283312	-0.716325
H122	H	2.259380	0.216688	-0.216325
H123	H	1.769428	-0.365444	-0.781256
H124	H	2.269428	0.134556	-0.281256
N125	N	1.145437	-0.452681	-0.209652
N126	N	1.645437	0.047319	0.290348
H127	H	1.191221	-0.394442	-0.232438
H128	H	1.691221	0.105558	0.267562
H129	H	1.081585	-0.420635	-0.185134
H130	H	1.581585	0.079365	0.314866
N131	N	1.709255	-0.333500	-0.597973
N132	N	2.209255	0.166500	-0.097973
H133	H	1.754317	-0.288463	-0.632414
H134	H	2.254317	0.211537	-0.132414
H135	H	1.664269	-0.286289	-0.567483
H136	H	2.164269	0.213711	-0.067483
H137	H	1.715176	-0.901532	-0.297249
H138	H	2.215176	-0.401532	0.202751
H139	H	1.413629	-0.903699	-0.263818
H140	H	1.913629	-0.403699	0.236182
N141	N	1.697892	-1.082429	-0.434249
N142	N	2.197892	-0.582429	0.065751
H143	H	1.745479	-1.018869	-0.443743
H144	H	2.245479	-0.518869	0.056257
H145	H	1.726880	-1.128655	-0.395123
H146	H	2.226880	-0.628655	0.104877
H147	H	1.405387	-0.637222	-0.937753
H148	H	1.905387	-0.137222	-0.437753
H149	H	1.445799	-0.596777	-0.607667
H150	H	1.945799	-0.096777	-0.107667
H151	H	1.533636	-1.073065	-0.454976
H152	H	2.033636	-0.573065	0.045024
H153	H	1.453948	-0.588687	-0.741011
H154	H	1.953948	-0.088687	-0.241011
N155	N	0.944831	-0.633105	-0.242777
N156	N	1.444831	-0.133105	0.257223
H157	H	0.899902	-0.660252	-0.280799
H158	H	1.399902	-0.160252	0.219201
H159	H	1.006036	-0.682942	-0.235011
H160	H	1.506036	-0.182942	0.264989
H161	H	1.377858	-0.896556	-0.355227
H162	H	1.877858	-0.396556	0.144773
H163	H	1.413501	-0.629103	-1.071109
H164	H	1.913501	-0.129103	-0.571109
H165	H	1.141917	-0.318227	-0.318823
H166	H	1.641917	0.181773	0.181177
N167	N	1.514293	-0.881385	-0.468504
N168	N	2.014293	-0.381385	0.031496
H169	H	1.457819	-0.836009	-0.445933
H170	H	1.957819	-0.336009	0.054067
H171	H	1.556313	-0.837525	-0.505262
H172	H	2.056313	-0.337525	-0.005262
N173	N	0.944944	-0.451106	-0.209719
N174	N	1.444944	0.048894	0.290281
H175	H	0.899528	-0.394787	-0.232438
H176	H	1.399528	0.105213	0.267562
H177	H	0.901132	-0.492926	-0.172836
H178	H	1.401132	0.007074	0.327164
H179	H	0.967039	-0.351679	-0.414656
H180	H	1.467039	0.148321	0.085344
H181	H	0.965024	-0.653070	-0.380369
H182	H	1.465024	-0.153070	0.119631
H183	H	1.669413	-0.891544	-0.429597
H184	H	2.169413	-0.391544	0.070403
H185	H	1.150566	-0.547195	-0.448575
H186	H	1.650566	-0.047195	0.051425
H187	H	1.137064	-0.607927	-0.248771
H188	H	1.637064	-0.107927	0.251229
N189	N	1.160547	-0.336600	-0.428890
N190	N	1.660547	0.163400	0.071110
H191	H	1.210028	-0.391306	-0.449031
H192	H	1.710028	0.108694	0.050969
H193	H	1.101056	-0.322715	-0.461795
H194	H	1.601056	0.177285	0.038205
H195	H	1.609045	-0.905022	-0.229668
H196	H	2.109045	-0.405022	0.270332
N197	N	1.601841	-1.097813	-0.211459
N198	N	2.101841	-0.597813	0.288541
H199	H	1.537525	-1.144910	-0.212993
H200	H	2.037525	-0.644910	0.287007
H201	H	1.662985	-1.140234	-0.192739
H202	H	2.162985	-0.640234	0.307261
N203	N	1.398576	-1.097211	-0.249666
N204	N	1.898576	-0.597211	0.250334
H205	H	1.394489	-1.176852	-0.251148
H206	H	1.894489	-0.676852	0.248852
H207	H	1.448193	-1.077089	-0.212203
H208	H	1.948193	-0.577089	0.287797
H209	H	1.380879	-1.078506	-0.359803
H210	H	1.880879	-0.578506	0.140197
N211	N	1.678094	-0.364598	-1.080839
N212	N	2.178094	0.135402	-0.580839
H213	H	1.753052	-0.381851	-1.068041
H214	H	2.253052	0.118149	-0.568041
H215	H	1.670892	-0.371734	-1.132968
H216	H	2.170892	0.128266	-0.632968
N217	N	1.668800	-0.373922	-0.928062
N218	N	2.168800	0.126078	-0.428062
H219	H	1.713855	-0.328879	-0.962502
H220	H	2.213855	0.171121	-0.462502
H221	H	1.623808	-0.326718	-0.897570
H222	H	2.123808	0.173282	-0.397570
