data_functionalizedCrystal
_audit_creation_method	'MofGen! by Chris Wilmer'
_symmetry_space_group_name_H-M	'P1'
_symmetry_Int_Tables_number	1
_symmetry_cell_setting	triclinic
loop_
_symmetry_equiv_pos_as_xyz
  x,y,z
_cell_length_a	17.077404
_cell_length_b	21.295417
_cell_length_c	17.077396
_cell_angle_alpha	90.032144
_cell_angle_beta	90.018362
_cell_angle_gamma	90.027672
loop_
_atom_site_label
_atom_site_type_symbol
_atom_site_fract_x
_atom_site_fract_y
_atom_site_fract_z
Zn1	Zn	1.200017	-0.250643	0.443799
Zn2	Zn	1.533351	0.082690	0.777132
Zn3	Zn	1.866684	0.416023	1.110466
Zn4	Zn	1.199909	-0.355916	0.312524
Zn5	Zn	1.533242	-0.022583	0.645858
Zn6	Zn	1.866576	0.310750	0.979191
Zn7	Zn	1.068749	-0.250661	0.312549
Zn8	Zn	1.402083	0.082672	0.645883
Zn9	Zn	1.735416	0.416005	0.979216
Zn10	Zn	1.068702	-0.355875	0.443751
Zn11	Zn	1.402035	-0.022542	0.777084
Zn12	Zn	1.735368	0.310792	1.110417
O13	O	1.134344	-0.303274	0.378156
O14	O	1.467678	0.030059	0.711489
O15	O	1.801011	0.363393	1.044822
O16	O	1.309850	-0.264618	0.426395
O17	O	1.643183	0.068715	0.759728
O18	O	1.976517	0.402049	1.093061
O19	O	1.182485	-0.341979	0.202681
O20	O	1.515818	-0.008646	0.536014
O21	O	1.849151	0.324688	0.869347
O22	O	1.086228	-0.162569	0.329991
O23	O	1.419561	0.170764	0.663324
O24	O	1.752894	0.504097	0.996657
O25	O	1.309770	-0.341962	0.329948
O26	O	1.643104	-0.008628	0.663281
O27	O	1.976437	0.324705	0.996615
O28	O	1.182670	-0.162556	0.426419
O29	O	1.516003	0.170777	0.759752
O30	O	1.849336	0.504110	1.093086
O31	O	1.086122	-0.264648	0.202699
O32	O	1.419456	0.068685	0.536032
O33	O	1.752789	0.402018	0.869366
O34	O	0.958896	-0.264608	0.329944
O35	O	1.292229	0.068725	0.663277
O36	O	1.625563	0.402058	0.996610
O37	O	1.086146	-0.341891	0.553604
O38	O	1.419480	-0.008557	0.886937
O39	O	1.752813	0.324776	1.220271
O40	O	0.958861	-0.341908	0.426337
O41	O	1.292194	-0.008575	0.759670
O42	O	1.625528	0.324758	1.093003
O43	O	1.182624	-0.264578	0.553639
O44	O	1.515957	0.068756	0.886973
O45	O	1.849290	0.402089	1.220306
O46	O	1.182439	-0.444000	0.329901
O47	O	1.515772	-0.110667	0.663235
O48	O	1.849105	0.222666	0.996568
O49	O	1.086041	-0.443970	0.426313
O50	O	1.419374	-0.110636	0.759646
O51	O	1.752708	0.222697	1.092979
C52	C	0.930396	-0.303256	0.378138
C53	C	1.263730	0.030077	0.711472
C54	C	1.597063	0.363411	1.044805
C55	C	0.843147	-0.303264	0.378149
C56	C	1.176480	0.030070	0.711483
C57	C	1.509813	0.363403	1.044816
C58	C	0.802199	-0.263062	0.428446
C59	C	1.135532	0.070271	0.761779
C60	C	1.468865	0.403604	1.095112
C61	C	0.720218	-0.263066	0.428449
C62	C	1.053552	0.070267	0.761783
C63	C	1.386885	0.403600	1.095116
C64	C	0.679187	-0.303275	0.378160
C65	C	1.012521	0.030058	0.711493
C66	C	1.345854	0.363391	1.044827
C67	C	0.720141	-0.343478	0.327858
C68	C	1.053474	-0.010145	0.661191
C69	C	1.386808	0.323188	0.994525
C70	C	0.802120	-0.343471	0.327851
C71	C	1.135453	-0.010137	0.661184
C72	C	1.468786	0.323196	0.994518
C73	C	0.549271	-0.343493	0.327877
C74	C	0.882604	-0.010159	0.661211
C75	C	1.215937	0.323174	0.994544
C76	C	0.467286	-0.343501	0.327885
C77	C	0.800620	-0.010168	0.661219
C78	C	1.133953	0.323165	0.994552
C79	C	0.467369	-0.263088	0.428476
C80	C	0.800703	0.070245	0.761809
C81	C	1.134036	0.403578	1.095143
C82	C	0.549348	-0.263081	0.428469
C83	C	0.882682	0.070253	0.761802
C84	C	1.216015	0.403586	1.095136
C85	C	0.590296	-0.303285	0.378168
C86	C	0.923630	0.030049	0.711501
C87	C	1.256963	0.363382	1.044834
C88	C	1.134244	-0.466826	0.378116
C89	C	1.467578	-0.133492	0.711449
C90	C	1.800911	0.199841	1.044783
C91	C	1.134273	-0.536794	0.378125
C92	C	1.467607	-0.203460	0.711459
C93	C	1.800940	0.129873	1.044792
C94	C	1.184462	-0.569596	0.428371
C95	C	1.517795	-0.236263	0.761705
C96	C	1.851129	0.097070	1.095038
C97	C	1.184490	-0.635339	0.428391
C98	C	1.517823	-0.302005	0.761724
C99	C	1.851156	0.031328	1.095058
C100	C	1.134337	-0.668276	0.378150
C101	C	1.467670	-0.334943	0.711483
C102	C	1.801004	-0.001609	1.044817
C103	C	1.084138	-0.635466	0.327900
C104	C	1.417472	-0.302132	0.661234
C105	C	1.750805	0.031201	0.994567
C106	C	1.084107	-0.569724	0.327888
C107	C	1.417440	-0.236391	0.661221
C108	C	1.750773	0.096942	0.994555
N109	N	1.128408	-0.771539	0.309452
N110	N	1.461741	-0.438206	0.642785
N111	N	1.795074	-0.104873	0.976119
N112	N	1.128443	-0.833991	0.309466
N113	N	1.461776	-0.500658	0.642799
N114	N	1.795109	-0.167324	0.976133
C115	C	1.134429	-0.866351	0.378186
C116	C	1.467762	-0.533018	0.711519
C117	C	1.801095	-0.199684	1.044852
N118	N	1.140394	-0.833900	0.446892
N119	N	1.473727	-0.500567	0.780225
N120	N	1.807060	-0.167233	1.113559
N121	N	1.140363	-0.771443	0.446877
N122	N	1.473696	-0.438110	0.780211
N123	N	1.807030	-0.104776	1.113544
C124	C	1.134365	-0.739562	0.378158
C125	C	1.467699	-0.406228	0.711492
C126	C	1.801032	-0.072895	1.044825
C127	C	1.184650	-0.970439	0.428457
C128	C	1.517983	-0.637106	0.761790
C129	C	1.851317	-0.303772	1.095124
C130	C	1.184672	-1.036183	0.428478
C131	C	1.518006	-0.702849	0.761811
C132	C	1.851339	-0.369516	1.095144
C133	C	1.084325	-1.036308	0.327980
C134	C	1.417658	-0.702975	0.661313
C135	C	1.750992	-0.369642	0.994647
C136	C	1.084299	-0.970566	0.327966
C137	C	1.417632	-0.637232	0.661300
C138	C	1.750965	-0.303899	0.994633
C139	C	1.134465	-0.937635	0.378204
C140	C	1.467799	-0.604302	0.711537
C141	C	1.801132	-0.270968	1.044870
C142	C	1.339089	-0.303292	0.378174
C143	C	1.672422	0.030041	0.711507
C144	C	2.005755	0.363374	1.044841
C145	C	1.426338	-0.303300	0.378182
C146	C	1.759672	0.030033	0.711515
C147	C	2.093005	0.363367	1.044848
C148	C	1.134392	-0.303228	0.582900
C149	C	1.467725	0.030106	0.916234
C150	C	1.801058	0.363439	1.249567
C151	C	1.134412	-0.303208	0.670150
C152	C	1.467745	0.030126	1.003483
C153	C	1.801079	0.363459	1.336817
C154	C	1.134466	-0.139084	0.378213
C155	C	1.467799	0.194250	0.711546
C156	C	1.801133	0.527583	1.044880
C157	C	1.134518	-0.069116	0.378237
C158	C	1.467851	0.264218	0.711571
C159	C	1.801185	0.597551	1.044904
C160	C	1.134342	-0.303275	0.174208
C161	C	1.467675	0.030059	0.507541
C162	C	1.801009	0.363392	0.840875
C163	C	1.134474	-0.303117	0.086959
C164	C	1.467807	0.030216	0.420292
C165	C	1.801141	0.363550	0.753625
C166	C	1.184650	-0.262947	0.711160
C167	C	1.517983	0.070386	1.044493
C168	C	1.851316	0.403719	1.377827
C169	C	1.184659	-0.262927	0.793140
C170	C	1.517992	0.070407	1.126474
C171	C	1.851326	0.403740	1.459807
C172	C	1.134434	-0.303170	0.834110
C173	C	1.467768	0.030164	1.167443
C174	C	1.801101	0.363497	1.500776
C175	C	1.084191	-0.343432	0.793094
C176	C	1.417525	-0.010098	1.126427
C177	C	1.750858	0.323235	1.459761
C178	C	1.084178	-0.343449	0.711115
C179	C	1.417512	-0.010116	1.044448
C180	C	1.750845	0.323218	1.377782
C181	C	1.084223	-0.343394	0.963964
C182	C	1.417556	-0.010060	1.297297
C183	C	1.750890	0.323273	1.630631
C184	C	1.084237	-0.343377	1.045949
C185	C	1.417570	-0.010044	1.379282
C186	C	1.750903	0.323289	1.712615
C187	C	1.184703	-0.262871	1.045990
C188	C	1.518037	0.070462	1.379323
C189	C	1.851370	0.403795	1.712656
C190	C	1.184691	-0.262889	0.964011
C191	C	1.518024	0.070445	1.297344
C192	C	1.851357	0.403778	1.630677
C193	C	1.134448	-0.303152	0.923001
C194	C	1.467782	0.030182	1.256334
C195	C	1.801115	0.363515	1.589667
H196	H	0.433881	-0.376243	0.286936
H197	H	0.767214	-0.042910	0.620269
H198	H	1.100548	0.290423	0.953602
H199	H	1.225496	-0.943626	0.469366
H200	H	1.558830	-0.610292	0.802699
H201	H	1.892163	-0.276959	1.136032
H202	H	1.043236	-0.543016	0.286971
H203	H	1.376569	-0.209683	0.620304
H204	H	1.709903	0.123651	0.953638
H205	H	0.686882	-0.230332	0.469407
H206	H	1.020215	0.103002	0.802741
H207	H	1.353549	0.436335	1.136074
Br208	Br	0.857876	-0.208494	0.496705
Br209	Br	1.191209	0.124839	0.830039
Br210	Br	1.524542	0.458172	1.163372
H211	H	0.582754	-0.230343	0.469424
H212	H	0.916087	0.102991	0.802757
H213	H	1.249420	0.436324	1.136090
Br214	Br	1.252893	-0.208231	1.101644
Br215	Br	1.586226	0.125102	1.434978
Br216	Br	1.919559	0.458436	1.768311
Br217	Br	0.411798	-0.208526	0.496742
Br218	Br	0.745132	0.124808	0.830075
Br219	Br	1.078465	0.458141	1.163409
Br220	Br	1.016180	-0.926045	0.259773
Br221	Br	1.349513	-0.592711	0.593107
Br222	Br	1.682846	-0.259378	0.926440
Br223	Br	1.016066	-0.397987	1.101550
Br224	Br	1.349400	-0.064654	1.434883
Br225	Br	1.682733	0.268679	1.768217
Br226	Br	0.857693	-0.398031	0.259587
Br227	Br	1.191027	-0.064697	0.592921
Br228	Br	1.524360	0.268636	0.926254
Br229	Br	0.604843	-0.398059	0.259615
Br230	Br	0.938176	-0.064726	0.592949
Br231	Br	1.271509	0.268607	0.926282
Br232	Br	1.016066	-0.680164	0.259723
Br233	Br	1.349399	-0.346831	0.593057
Br234	Br	1.682733	-0.013498	0.926390
Br235	Br	1.252878	-0.208314	0.848794
Br236	Br	1.586211	0.125019	1.182127
Br237	Br	1.919545	0.458352	1.515461
Br238	Br	1.252860	-0.208278	0.908409
Br239	Br	1.586193	0.125055	1.241743
Br240	Br	1.919527	0.458388	1.575076
H241	H	1.043298	-0.376170	0.930576
H242	H	1.376631	-0.042837	1.263910
H243	H	1.709965	0.290496	1.597243
H244	H	0.686727	-0.376214	0.286908
H245	H	1.020060	-0.042881	0.620241
H246	H	1.353394	0.290453	0.953574
H247	H	1.225309	-0.542786	0.469280
H248	H	1.558642	-0.209453	0.802613
H249	H	1.891975	0.123881	1.135946
H250	H	1.225542	-1.062889	0.469398
H251	H	1.558875	-0.729556	0.802731
H252	H	1.892208	-0.396223	1.136064
Br253	Br	1.252612	-0.679867	0.496583
Br254	Br	1.585945	-0.346533	0.829916
Br255	Br	1.919278	-0.013200	1.163250
H256	H	1.043485	-1.063125	0.287078
H257	H	1.376818	-0.729792	0.620411
H258	H	1.710151	-0.396459	0.953745
H259	H	1.225551	-0.230179	0.677809
H260	H	1.558884	0.103155	1.011142
H261	H	1.892217	0.436488	1.344475
Br262	Br	1.016023	-0.398044	0.848694
Br263	Br	1.349357	-0.064711	1.182027
Br264	Br	1.682690	0.268623	1.515361
H265	H	1.043262	-0.376227	0.677726
H266	H	1.376595	-0.042893	1.011059
H267	H	1.709929	0.290440	1.344392
