data_functionalizedCrystal
_audit_creation_method	'MofGen! by Chris Wilmer'
_symmetry_space_group_name_H-M	'P1'
_symmetry_Int_Tables_number	1
_symmetry_cell_setting	triclinic
loop_
_symmetry_equiv_pos_as_xyz
  x,y,z
_cell_length_a	14.519709
_cell_length_b	13.596369
_cell_length_c	9.065218
_cell_angle_alpha	89.986598
_cell_angle_beta	95.651951
_cell_angle_gamma	89.999709
loop_
_atom_site_label
_atom_site_type_symbol
_atom_site_fract_x
_atom_site_fract_y
_atom_site_fract_z
O1	O	1.225285	0.081680	-0.193397
O2	O	1.475285	0.331680	0.056603
O3	O	1.725285	0.581680	0.306603
O4	O	1.975285	0.831680	0.556603
O5	O	0.956974	0.081712	-0.216171
O6	O	1.206974	0.331712	0.033829
O7	O	1.456974	0.581712	0.283829
O8	O	1.706974	0.831712	0.533829
O9	O	1.096675	0.081670	0.009962
O10	O	1.346675	0.331670	0.259962
O11	O	1.596675	0.581670	0.509962
O12	O	1.846675	0.831670	0.759962
O13	O	1.085584	0.081722	-0.419530
O14	O	1.335584	0.331722	-0.169530
O15	O	1.585584	0.581722	0.080470
O16	O	1.835584	0.831722	0.330470
O17	O	1.096661	-0.081913	0.009974
O18	O	1.346661	0.168087	0.259974
O19	O	1.596661	0.418087	0.509974
O20	O	1.846661	0.668087	0.759974
O21	O	0.956960	-0.081871	-0.216159
O22	O	1.206960	0.168129	0.033841
O23	O	1.456960	0.418129	0.283841
O24	O	1.706960	0.668129	0.533841
O25	O	1.225270	-0.081903	-0.193385
O26	O	1.475270	0.168097	0.056615
O27	O	1.725270	0.418097	0.306615
O28	O	1.975270	0.668097	0.556615
Zn29	Zn	1.091113	-0.107859	-0.204770
Zn30	Zn	1.341113	0.142141	0.045230
Zn31	Zn	1.591113	0.392141	0.295230
Zn32	Zn	1.841113	0.642141	0.545230
Zn33	Zn	1.091132	0.107668	-0.204786
Zn34	Zn	1.341132	0.357668	0.045214
Zn35	Zn	1.591132	0.607668	0.295214
Zn36	Zn	1.841132	0.857668	0.545214
O37	O	1.085569	-0.081861	-0.419518
O38	O	1.335569	0.168139	-0.169518
O39	O	1.585569	0.418139	0.080482
O40	O	1.835569	0.668139	0.330482
C41	C	0.922600	-0.000076	-0.215104
C42	C	1.172600	0.249924	0.034896
C43	C	1.422600	0.499924	0.284896
C44	C	1.672600	0.749924	0.534896
C45	C	0.820195	-0.000065	-0.211923
C46	C	1.070195	0.249935	0.038077
C47	C	1.320195	0.499935	0.288077
C48	C	1.570195	0.749935	0.538077
C49	C	0.445214	-0.000111	-0.200214
C50	C	0.695214	0.249889	0.049786
C51	C	0.945214	0.499889	0.299786
C52	C	1.195214	0.749889	0.549786
C53	C	0.549545	-0.000098	-0.203466
C54	C	0.799545	0.249902	0.046534
C55	C	1.049545	0.499902	0.296534
C56	C	1.299545	0.749902	0.546534
C57	C	0.632701	-0.000087	-0.206068
C58	C	0.882701	0.249913	0.043932
C59	C	1.132701	0.499913	0.293932
C60	C	1.382701	0.749913	0.543932
C61	C	0.737039	-0.000076	-0.209321
C62	C	0.987039	0.249924	0.040679
C63	C	1.237039	0.499924	0.290679
C64	C	1.487039	0.749924	0.540679
N65	N	1.091107	-0.254951	-0.204758
N66	N	1.341107	-0.004951	0.045242
N67	N	1.591107	0.245049	0.295242
N68	N	1.841107	0.495049	0.545242
C69	C	1.091130	-0.656242	-0.204788
C70	C	1.341130	-0.406242	0.045212
C71	C	1.591130	-0.156242	0.295212
C72	C	1.841130	0.093758	0.545212
C73	C	1.091121	-0.544591	-0.204784
C74	C	1.341121	-0.294591	0.045216
C75	C	1.591121	-0.044591	0.295216
C76	C	1.841121	0.205409	0.545216
C77	C	1.091119	-0.455600	-0.204774
C78	C	1.341119	-0.205600	0.045226
C79	C	1.591119	0.044400	0.295226
C80	C	1.841119	0.294400	0.545226
C81	C	1.091109	-0.343942	-0.204769
C82	C	1.341109	-0.093942	0.045231
C83	C	1.591109	0.156058	0.295231
C84	C	1.841109	0.406058	0.545231
C85	C	1.259645	-0.000113	-0.194452
C86	C	1.509645	0.249887	0.055548
C87	C	1.759645	0.499887	0.305548
C88	C	2.009645	0.749887	0.555548
C89	C	1.362050	-0.000118	-0.197633
C90	C	1.612050	0.249882	0.052367
C91	C	1.862050	0.499882	0.302367
C92	C	2.112050	0.749882	0.552367
C93	C	1.095602	-0.000125	0.064935
C94	C	1.345602	0.249875	0.314935
C95	C	1.595602	0.499875	0.564935
C96	C	1.845602	0.749875	0.814935
C97	C	1.092415	-0.000138	0.228718
C98	C	1.342415	0.249862	0.478718
C99	C	1.592415	0.499862	0.728718
C100	C	1.842415	0.749862	0.978718
N101	N	1.091145	0.254760	-0.204786
N102	N	1.341145	0.504760	0.045214
N103	N	1.591145	0.754760	0.295214
N104	N	1.841145	1.004760	0.545214
C105	C	1.086642	-0.000090	0.525509
C106	C	1.336642	0.249910	0.775509
C107	C	1.586642	0.499910	1.025509
C108	C	1.836642	0.749910	1.275509
C109	C	1.089830	-0.000152	0.361726
C110	C	1.339830	0.249848	0.611726
C111	C	1.589830	0.499848	0.861726
C112	C	1.839830	0.749848	1.111726
