data_functionalizedCrystal
_audit_creation_method	'MofGen! by Chris Wilmer'
_symmetry_space_group_name_H-M	'P1'
_symmetry_Int_Tables_number	1
_symmetry_cell_setting	triclinic
loop_
_symmetry_equiv_pos_as_xyz
  x,y,z
_cell_length_a	14.971486
_cell_length_b	17.019294
_cell_length_c	14.048226
_cell_angle_alpha	86.114596
_cell_angle_beta	89.998499
_cell_angle_gamma	83.504267
loop_
_atom_site_label
_atom_site_type_symbol
_atom_site_fract_x
_atom_site_fract_y
_atom_site_fract_z
O1	O	1.186691	0.102801	-0.087476
O2	O	1.686691	0.602801	0.412524
O3	O	0.926261	0.115111	-0.088511
O4	O	1.426261	0.615111	0.411489
O5	O	1.063741	-0.005870	-0.078576
O6	O	1.563741	0.494130	0.421424
O7	O	1.049211	0.223782	-0.097411
O8	O	1.549211	0.723782	0.402589
O9	O	1.063724	-0.005877	0.079746
O10	O	1.563724	0.494123	0.579746
O11	O	0.926244	0.115104	0.069811
O12	O	1.426244	0.615104	0.569811
O13	O	1.186675	0.102794	0.070846
O14	O	1.686675	0.602794	0.570846
Zn15	Zn	1.056457	0.108948	0.095465
Zn16	Zn	1.556457	0.608948	0.595465
Zn17	Zn	1.056479	0.108957	-0.113131
Zn18	Zn	1.556479	0.608957	0.386869
O19	O	1.049195	0.223775	0.060910
O20	O	1.549195	0.723775	0.560910
C21	C	0.892929	0.114557	-0.009308
C22	C	1.392929	0.614557	0.490692
C23	C	0.793636	0.112907	-0.009183
C24	C	1.293636	0.612907	0.490817
C25	C	0.736234	0.183981	-0.015011
C26	C	1.236234	0.683981	0.484989
C27	C	0.642939	0.182426	-0.014869
C28	C	1.142939	0.682426	0.485131
C29	C	0.607047	0.109797	-0.008906
C30	C	1.107047	0.609797	0.491094
C31	C	0.664456	0.038718	-0.003075
C32	C	1.164456	0.538718	0.496925
C33	C	0.757750	0.040274	-0.003210
C34	C	1.257750	0.540274	0.496790
C35	C	0.470002	0.035480	-0.002796
C36	C	0.970002	0.535480	0.497204
C37	C	0.376702	0.033924	-0.002663
C38	C	0.876702	0.533924	0.497337
C39	C	0.355190	0.177632	-0.014455
C40	C	0.855190	0.677632	0.485545
C41	C	0.448484	0.179188	-0.014590
C42	C	0.948484	0.679188	0.485410
C43	C	0.505887	0.108109	-0.008761
C44	C	1.005887	0.608109	0.491239
C45	C	1.063181	-0.035263	0.002993
C46	C	1.563181	0.464737	0.502993
C47	C	1.061528	-0.122836	0.010169
C48	C	1.561528	0.377164	0.510169
C49	C	1.060763	-0.163969	-0.072761
C50	C	1.560763	0.336031	0.427239
C51	C	1.059204	-0.246252	-0.066016
C52	C	1.559204	0.253748	0.433984
C53	C	1.058417	-0.287400	0.023660
C54	C	1.558417	0.212600	0.523660
C55	C	1.059180	-0.246261	0.106596
C56	C	1.559180	0.253739	0.606596
C57	C	1.060732	-0.163979	0.099850
C58	C	1.560732	0.336021	0.599850
C59	C	1.053723	-0.535838	0.048347
C60	C	1.553723	-0.035838	0.548347
C61	C	1.052173	-0.618126	0.055087
C62	C	1.552173	-0.118126	0.555087
C63	C	1.052195	-0.618111	-0.117525
C64	C	1.552195	-0.118111	0.382475
C65	C	1.053753	-0.535828	-0.124264
C66	C	1.553753	-0.035828	0.375736
C67	C	1.054511	-0.494695	-0.041328
C68	C	1.554511	0.005305	0.458672
C69	C	1.056826	-0.371507	0.030557
C70	C	1.556826	0.128493	0.530557
C71	C	1.056096	-0.410590	-0.048226
C72	C	1.556096	0.089410	0.451774
C73	C	1.220007	0.103348	-0.008359
C74	C	1.720007	0.603348	0.491641
C75	C	1.319300	0.104998	-0.008491
C76	C	1.819300	0.604998	0.491509
C77	C	1.049754	0.253168	-0.020661
C78	C	1.549754	0.753168	0.479339
C79	C	1.051407	0.340741	-0.027843
C80	C	1.551407	0.840741	0.472157
N81	N	1.056449	0.108941	0.237826
N82	N	1.556449	0.608941	0.737826
N83	N	1.056494	0.108958	-0.255491
N84	N	1.556494	0.608958	0.244509
C85	C	1.117344	0.055392	0.292042
C86	C	1.617344	0.555392	0.792042
C87	C	1.117350	0.055392	0.391700
C88	C	1.617350	0.555392	0.891700
C89	C	1.056464	0.108944	0.437140
C90	C	1.556464	0.608944	0.937140
C91	C	0.995563	0.162495	0.382917
C92	C	1.495563	0.662495	0.882917
C93	C	0.995553	0.162491	0.283261
C94	C	1.495553	0.662491	0.783261
C95	C	0.995588	0.162501	0.590631
C96	C	1.495588	0.662501	1.090631
C97	C	0.995599	0.162506	0.690293
C98	C	1.495599	0.662506	1.190293
C99	C	1.117385	0.055402	0.699069
C100	C	1.617385	0.555402	1.199069
C101	C	1.117376	0.055398	0.599413
C102	C	1.617376	0.555398	1.099413
C103	C	1.056475	0.108950	0.545197
C104	C	1.556475	0.608950	1.045197
H105	H	0.347482	-0.025217	0.002194
H106	H	0.847482	0.474783	0.502194
H107	H	0.477704	0.238329	-0.019455
H108	H	0.977704	0.738329	0.480545
H109	H	1.051576	-0.651610	-0.185047
H110	H	1.551576	-0.151610	0.314953
H111	H	0.516737	-0.022400	0.001952
H112	H	1.016737	0.477600	0.501952
H113	H	1.058584	-0.279739	-0.133546
H114	H	1.558584	0.220261	0.366454
H115	H	1.166973	0.011798	0.743217
H116	H	1.666973	0.511798	1.243217
Cl117	Cl	0.919051	0.229831	0.747410
Cl118	Cl	1.419051	0.729831	1.247410
H119	H	0.635226	-0.020418	0.001794
H120	H	1.135226	0.479582	0.501794
Cl121	Cl	1.054745	-0.484105	-0.237003
Cl122	Cl	1.554745	0.015895	0.262997
H123	H	1.051527	-0.651627	0.128115
H124	H	1.551527	-0.151627	0.628115
Cl125	Cl	0.570779	0.271779	-0.022202
Cl126	Cl	1.070779	0.771779	0.477798
H127	H	1.166935	0.011788	0.435842
H128	H	1.666935	0.511788	0.935842
H129	H	0.945993	0.206107	0.546491
H130	H	1.445993	0.706107	1.046491
H131	H	0.765449	0.243124	-0.019867
H132	H	1.265449	0.743124	0.480133
Cl133	Cl	0.283027	0.266989	-0.021782
Cl134	Cl	0.783027	0.766989	0.478218
H135	H	0.945984	0.206096	0.419920
H136	H	1.445984	0.706096	0.919920
Cl137	Cl	1.057090	-0.358859	-0.160957
Cl138	Cl	1.557090	0.141141	0.339043
H139	H	1.056188	-0.405020	0.103571
H140	H	1.556188	0.094980	0.603571
H141	H	1.061408	-0.130472	-0.145784
H142	H	1.561408	0.369528	0.354216
H143	H	1.054358	-0.502360	0.115879
H144	H	1.554358	-0.002360	0.615879
Cl145	Cl	1.193923	-0.011921	0.542286
Cl146	Cl	1.693923	0.488079	1.042286
H147	H	0.945965	0.206095	0.239120
H148	H	1.445965	0.706095	0.739120
H149	H	1.058534	-0.279770	0.179612
H150	H	1.558534	0.220230	0.679612
Cl151	Cl	0.829913	-0.049080	0.004121
Cl152	Cl	1.329913	0.450920	0.504121
Cl153	Cl	1.061693	-0.112268	0.204109
Cl154	Cl	1.561693	0.387732	0.704109
H155	H	1.166928	0.011787	0.255051
H156	H	1.666928	0.511787	0.755051
