data_functionalizedCrystal
_audit_creation_method	'MofGen! by Chris Wilmer'
_symmetry_space_group_name_H-M	'P1'
_symmetry_Int_Tables_number	1
_symmetry_cell_setting	triclinic
loop_
_symmetry_equiv_pos_as_xyz
  x,y,z
_cell_length_a	31.640172
_cell_length_b	31.640171
_cell_length_c	31.640172
_cell_angle_alpha	59.980623
_cell_angle_beta	89.999972
_cell_angle_gamma	59.987882
loop_
_atom_site_label
_atom_site_type_symbol
_atom_site_fract_x
_atom_site_fract_y
_atom_site_fract_z
Zr1	Zr	0.407043	0.462757	-0.055701
O2	O	0.339521	0.550977	-0.123229
O3	O	0.427759	0.374546	-0.034972
O4	O	0.427723	0.462762	-0.123191
O5	O	0.339568	0.462754	0.034547
O6	O	0.497279	0.462754	-0.123194
O7	O	0.339558	0.462761	-0.035010
O8	O	0.497345	0.304953	0.034615
O9	O	0.339502	0.620555	-0.123262
O10	O	0.488483	0.410819	-0.026168
O11	O	0.436582	0.410819	0.025744
O12	O	0.436539	0.514682	-0.078124
O13	O	0.384637	0.514681	-0.026212
Zr14	Zr	0.517994	0.462733	0.055228
Zr15	Zr	0.517978	0.462745	-0.055706
Zr16	Zr	0.407059	0.462745	0.055233
Zr17	Zr	0.407013	0.573726	-0.055754
Zr18	Zr	0.518024	0.351764	0.055281
O19	O	0.497278	0.550944	0.034499
O20	O	0.497255	0.550961	-0.123236
O21	O	0.339544	0.550960	0.034505
O22	O	0.585516	0.374513	0.122756
O23	O	0.585493	0.374530	-0.034978
O24	O	0.427782	0.374529	0.122763
O25	O	0.585469	0.462736	-0.035020
O26	O	0.497314	0.462728	0.122718
O27	O	0.427758	0.462735	0.122721
O28	O	0.585480	0.462729	0.034537
O29	O	0.427680	0.620546	-0.123266
O30	O	0.497357	0.304944	0.122793
O31	O	0.585535	0.304935	0.122789
O32	O	0.585522	0.304944	0.034611
O33	O	0.339515	0.620546	-0.035084
O34	O	0.427693	0.620537	-0.035088
O35	O	0.488498	0.410808	0.077651
O36	O	0.540400	0.410808	0.025739
O37	O	0.488455	0.514671	-0.026217
O38	O	0.436554	0.514670	0.025695
C39	C	0.462556	0.323939	-0.000171
C40	C	0.462569	0.276829	-0.000149
C41	C	0.435426	-0.059393	0.026865
C42	C	0.435454	0.117560	0.026911
O43	O	0.412434	0.140422	0.049978
N44	N	0.462550	0.139689	-0.000181
C45	C	0.489644	0.117574	-0.027284
O46	O	0.512695	0.140451	-0.050322
C47	C	0.489619	-0.059382	-0.027326
C48	C	0.462517	-0.081504	-0.000236
C49	C	0.408327	-0.081516	0.053953
C50	C	0.408318	-0.125750	0.053939
C51	C	0.435409	-0.147860	0.026837
C52	C	0.462508	-0.125738	-0.000250
C53	C	0.516715	-0.081500	-0.054425
C54	C	0.516708	-0.125742	-0.054432
C55	C	0.489606	-0.147865	-0.027343
C56	C	0.489589	-0.192082	-0.027366
N57	N	0.462493	-0.214211	-0.000274
C58	C	0.435403	-0.192100	0.026828
C59	C	0.489654	0.210479	-0.027260
C60	C	0.489659	0.254718	-0.027251
C61	C	0.435471	0.254701	0.026945
C62	C	0.435462	0.210464	0.026932
C63	C	0.462558	0.188350	-0.000168
C64	C	0.435386	-0.284993	0.026796
C65	C	0.435378	-0.329229	0.026778
C66	C	0.489569	-0.329210	-0.027415
C67	C	0.489575	-0.284976	-0.027400
C68	C	0.462483	-0.262870	-0.000290
O69	O	0.512602	-0.214976	-0.050417
O70	O	0.412364	-0.214995	0.049871
C71	C	0.435435	-0.015160	0.026879
C72	C	0.462535	0.006963	-0.000209
C73	C	0.489625	-0.015148	-0.027310
C74	C	0.462540	0.051202	-0.000199
C75	C	0.435450	0.073313	0.026903
C76	C	0.408354	0.051184	0.053995
C77	C	0.408345	0.006951	0.053981
C78	C	0.516721	0.006980	-0.054402
C79	C	0.516727	0.051214	-0.054386
C80	C	0.489637	0.073325	-0.027285
C81	C	0.323757	0.462759	-0.000231
C82	C	0.276662	0.462764	-0.000229
C83	C	-0.015349	0.462738	-0.038555
C84	C	-0.192335	0.462731	-0.038558
O85	O	-0.215212	0.462708	-0.071135
N86	N	-0.214460	0.462728	-0.000240
C87	C	-0.192334	0.462723	0.038084
O88	O	-0.215211	0.462714	0.070680
C89	C	-0.015346	0.462726	0.038090
C90	C	0.006774	0.462735	-0.000234
C91	C	0.006772	0.462746	-0.076875
C92	C	0.051014	0.462752	-0.076876
C93	C	0.073136	0.462748	-0.038555
C94	C	0.051016	0.462740	-0.000234
C95	C	0.006781	0.462717	0.076416
C96	C	0.051032	0.462716	0.076415
C97	C	0.073152	0.462725	0.038091
C98	C	0.117380	0.462742	0.038086
N99	N	0.139506	0.462745	-0.000233
C100	C	0.117383	0.462748	-0.038553
C101	C	-0.285256	0.462722	0.038078
C102	C	-0.329503	0.462723	0.038076
C103	C	-0.329501	0.462729	-0.038566
C104	C	-0.285255	0.462733	-0.038566
C105	C	-0.263131	0.462725	-0.000240
C106	C	0.210295	0.462760	-0.038551
C107	C	0.254540	0.462767	-0.038550
C108	C	0.254535	0.462757	0.038094
C109	C	0.210293	0.462753	0.038091
C110	C	0.188175	0.462752	-0.000234
O111	O	0.140288	0.462759	0.070648
O112	O	0.140274	0.462744	-0.071137
C113	C	-0.059591	0.462733	-0.038554
C114	C	-0.081711	0.462725	-0.000234
C115	C	-0.059589	0.462722	0.038087
C116	C	-0.125958	0.462725	-0.000235
C117	C	-0.148081	0.462728	-0.038556
C118	C	-0.125955	0.462731	-0.076875
C119	C	-0.081713	0.462736	-0.076875
C120	C	-0.081714	0.462719	0.076405
C121	C	-0.125957	0.462714	0.076402
C122	C	-0.148079	0.462717	0.038082
C123	C	0.601280	0.462731	-0.000242
C124	C	0.648375	0.462726	-0.000244
C125	C	0.462499	0.462760	-0.138998
C126	C	0.462492	0.462765	-0.186093
C127	C	0.462481	0.601551	-0.000302
C128	C	0.462468	0.648661	-0.000324
C129	C	0.500847	0.462730	-0.478100
C130	C	0.500859	0.462722	-0.655086
O131	O	0.533462	0.462692	-0.677960
N132	N	0.462539	0.462727	-0.677215
C133	C	0.424216	0.462731	-0.655093
O134	O	0.391626	0.462729	-0.677973
C135	C	0.424207	0.462734	-0.478105
C136	C	0.462526	0.462735	-0.455982
C137	C	0.539164	0.462731	-0.455976
C138	C	0.539159	0.462736	-0.411733
C139	C	0.500838	0.462741	-0.389615
C140	C	0.462521	0.462740	-0.411739
C141	C	0.385886	0.462733	-0.455982
C142	C	0.385888	0.462732	-0.411731
C143	C	0.424207	0.462733	-0.389608
C144	C	0.424195	0.462751	-0.345379
N145	N	0.462515	0.462745	-0.323250
C146	C	0.500836	0.462741	-0.345368
C147	C	0.424222	0.462730	-0.748015
C148	C	0.424224	0.462730	-0.792262
C149	C	0.500868	0.462721	-0.792251
C150	C	0.500864	0.462725	-0.748005
C151	C	0.462542	0.462725	-0.725886
C152	C	0.500823	0.462752	-0.252456
C153	C	0.500813	0.462760	-0.208211
C154	C	0.424171	0.462766	-0.208224
C155	C	0.424179	0.462761	-0.252467
C156	C	0.462509	0.462752	-0.274581
O157	O	0.391612	0.462774	-0.322474
O158	O	0.533428	0.462729	-0.322474
C159	C	0.500852	0.462725	-0.522342
C160	C	0.462536	0.462725	-0.544466
C161	C	0.424214	0.462730	-0.522348
C162	C	0.462537	0.462725	-0.588713
C163	C	0.500859	0.462720	-0.610832
C164	C	0.539178	0.462715	-0.588702
C165	C	0.539174	0.462720	-0.544460
C166	C	0.385895	0.462735	-0.544477
C167	C	0.385902	0.462730	-0.588720
C168	C	0.424224	0.462725	-0.610838
C169	C	0.462539	0.462730	0.138525
C170	C	0.462545	0.462725	0.185620
C171	C	0.601318	0.323924	-0.000177
C172	C	0.648425	0.276810	-0.000156
C173	C	0.462576	0.323924	0.138591
C174	C	0.462596	0.276809	0.185708
C175	C	0.601338	0.323910	0.138585
C176	C	0.648452	0.276790	0.185700
C177	C	0.323699	0.601580	-0.139058
C178	C	0.276585	0.648699	-0.186173
C179	C	0.323719	0.601565	-0.000296
C180	C	0.276612	0.648680	-0.000317
C181	C	0.462461	0.601566	-0.139064
C182	C	0.462441	0.648680	-0.186181
C183	C	0.643447	0.254690	-0.027246
C184	C	0.687705	0.210428	-0.027238
C185	C	0.736941	0.188282	-0.000136
C186	C	0.741918	0.210406	0.026955
C187	C	0.697660	0.254671	0.026943
C188	C	0.489705	0.254678	0.234934
C189	C	0.489721	0.210415	0.279209
C190	C	0.462632	0.188281	0.274257
C191	C	0.435519	0.210417	0.225026
C192	C	0.435500	0.254682	0.180752
C193	C	0.697674	0.254663	0.180729
C194	C	0.741947	0.210395	0.224994
C195	C	0.736997	0.188253	0.274230
C196	C	0.687770	0.210385	0.279200
C197	C	0.643498	0.254655	0.234936
C198	C	0.227363	0.670833	-0.181202
C199	C	0.183090	0.715114	-0.225467
C200	C	0.188040	0.737258	-0.274703
C201	C	0.237268	0.715123	-0.279673
C202	C	0.281539	0.670846	-0.235409
C203	C	0.281590	0.670804	0.026769
C204	C	0.237332	0.715079	0.026748
C205	C	0.188096	0.737226	-0.000356
C206	C	0.183119	0.715100	-0.027445
C207	C	0.227377	0.670829	-0.027426
C208	C	0.489536	0.670800	-0.181212
C209	C	0.489528	0.715064	-0.225479
C210	C	0.462421	0.737209	-0.274714
C211	C	0.435325	0.715085	-0.279681
C212	C	0.435337	0.670819	-0.235415
H213	H	0.413411	0.272712	0.049011
O214	O	0.518755	0.738919	-0.220112
H215	H	0.491389	0.787754	-0.239002
H216	H	-0.347515	0.462725	0.069279
O217	O	0.795025	0.186516	0.056184
H218	H	0.791057	0.209334	0.075020
O219	O	0.344568	0.462735	-0.612586
H220	H	0.322462	0.503274	-0.653026
H221	H	0.570380	0.462714	-0.606720
H222	H	0.462416	0.773253	-0.310754
H223	H	0.511801	0.192398	0.319291
O224	O	0.222018	0.646956	-0.128099
H225	H	0.180349	0.669797	-0.132088
H226	H	0.462651	0.152238	0.310312
O227	O	0.518781	0.646913	-0.128111
H228	H	0.537625	0.669730	-0.132102
O229	O	0.344557	0.462746	-0.520626
H230	H	0.317913	0.462754	-0.543454
H231	H	0.683747	0.192351	0.319294
H232	H	0.603361	0.272721	-0.049323
H233	H	0.511623	-0.347217	-0.049483
H234	H	0.143012	0.733128	-0.221410
O235	O	0.406083	0.738978	-0.332786
H236	H	0.410625	0.773480	-0.362728
O237	O	0.518885	0.278583	-0.056474
H238	H	0.537724	0.255767	-0.075315
H239	H	0.223317	0.652816	-0.049481
H240	H	0.386276	-0.011057	0.076040
H241	H	0.413463	0.192389	0.221002
O242	O	0.784676	0.140537	-0.000122
H243	H	0.784655	0.100205	0.016854
H244	H	0.511765	0.272695	0.238975
O245	O	0.542152	0.462746	-0.184341
H246	H	0.523717	0.503285	-0.184465
H247	H	0.413270	0.652814	-0.239468
O248	O	-0.017087	0.462758	-0.118216
H249	H	-0.016969	0.422221	-0.099783
H250	H	0.241292	0.733159	-0.319767
H251	H	0.386294	0.069197	0.076060
O252	O	0.334633	0.646967	-0.240763
H253	H	0.339134	0.626802	-0.262239
O254	O	0.406343	0.278468	0.127657
H255	H	0.387544	0.255604	0.131658
O256	O	0.682332	0.186565	-0.056454
H257	H	0.640660	0.209395	-0.075291
O258	O	0.590408	0.278508	0.240300
H259	H	0.594409	0.255663	0.281975
O260	O	0.703019	0.278547	0.127626
H261	H	0.744688	0.255724	0.131615
H262	H	0.321676	0.652775	0.048843
H263	H	0.151987	0.773311	-0.310742
O264	O	0.406130	-0.353075	0.055981
H265	H	0.387293	-0.330263	0.074826
O266	O	0.242705	0.738932	0.055973
H267	H	0.284377	0.716082	0.074831
H268	H	0.152063	0.773274	-0.000366
H269	H	0.392971	0.462769	-0.270485
O270	O	0.130014	0.738989	-0.056677
H271	H	0.100080	0.773485	-0.052132
H272	H	0.354683	0.462732	-0.473989
H273	H	0.392969	0.462773	-0.190210
H274	H	0.570363	0.462734	-0.393721
O275	O	0.703031	0.278519	0.056172
H276	H	0.744704	0.255675	0.075023
O277	O	-0.261394	0.462737	-0.079897
H278	H	-0.284214	0.462736	-0.106540
O279	O	0.406233	0.186602	0.056149
H280	H	0.376269	0.195135	0.028772
H281	H	-0.143976	0.462737	-0.108078
H282	H	0.782026	0.192380	0.220937
O283	O	0.784750	0.140496	0.321971
H284	H	0.808113	0.157482	0.321928
O285	O	0.406172	-0.261148	0.056033
H286	H	0.364512	-0.240948	0.040357
O287	O	0.379065	-0.149580	0.083144
H288	H	0.394727	-0.169773	0.124806
O289	O	0.379109	-0.057668	0.083186
H290	H	0.337452	-0.037475	0.067507
O291	O	0.518873	0.186640	-0.056501
H292	H	0.560528	0.166460	-0.040833
O293	O	0.545948	-0.057647	-0.083642
H294	H	0.564787	-0.080466	-0.102481
H295	H	0.538774	-0.143746	-0.076500
H296	H	0.511638	-0.266957	-0.049464
H297	H	0.538782	-0.011019	-0.076471
O298	O	0.545957	0.075077	-0.083609
H299	H	0.587611	0.037901	-0.067934
O300	O	0.278400	0.462774	-0.079885
H301	H	0.255584	0.462769	-0.106527
H302	H	0.069023	0.462756	-0.108081
O303	O	0.186437	0.462770	-0.079892
H304	H	0.215207	0.422241	-0.077997
O305	O	-0.353363	0.462731	-0.079898
H306	H	-0.387844	0.462725	-0.073455
H307	H	-0.011222	0.462709	0.107623
O308	O	-0.261396	0.462713	0.079419
H309	H	-0.290166	0.503251	0.077511
O310	O	0.074894	0.462709	0.117751
H311	H	0.052074	0.462707	0.144395
H312	H	0.192278	0.462754	0.069294
H313	H	0.272553	0.462757	0.069293
O314	O	-0.057855	0.462741	-0.118208
H315	H	-0.080675	0.462738	-0.144848
H316	H	-0.063705	0.462715	0.107611
O317	O	-0.149805	0.462695	0.117747
H318	H	-0.161585	0.503225	0.115854
O319	O	0.542159	0.462754	-0.276308
H320	H	0.580809	0.422221	-0.247530
O321	O	0.580493	0.462737	-0.479835
H322	H	0.607129	0.462745	-0.457014
H323	H	0.532067	0.462725	-0.729995
O324	O	0.542204	0.462714	-0.816108
H325	H	0.564311	0.422172	-0.815981
O326	O	0.382878	0.462756	-0.816130
H327	H	0.384769	0.422223	-0.787363
O328	O	0.382884	0.462738	-0.724162
H329	H	0.356238	0.462748	-0.746991
H330	H	0.570377	0.462721	-0.526450
O331	O	0.344552	0.462737	-0.387875
H332	H	0.317907	0.462742	-0.410698
