data_functionalizedCrystal
_audit_creation_method	'MofGen! by Chris Wilmer'
_symmetry_space_group_name_H-M	'P1'
_symmetry_Int_Tables_number	1
_symmetry_cell_setting	triclinic
loop_
_symmetry_equiv_pos_as_xyz
  x,y,z
_cell_length_a	18.215407
_cell_length_b	12.759394
_cell_length_c	12.759387
_cell_angle_alpha	90.031405
_cell_angle_beta	90.019761
_cell_angle_gamma	90.015285
loop_
_atom_site_label
_atom_site_type_symbol
_atom_site_fract_x
_atom_site_fract_y
_atom_site_fract_z
Zn1	Zn	1.125123	-0.418201	0.594070
Zn2	Zn	1.125053	-0.593917	0.418388
Zn3	Zn	1.002056	-0.418254	0.418399
Zn4	Zn	1.002043	-0.593840	0.594019
O5	O	1.063569	-0.506053	0.506219
O6	O	1.228098	-0.441520	0.570782
O7	O	1.108713	-0.570670	0.271368
O8	O	1.018415	-0.271226	0.441728
O9	O	1.228046	-0.570618	0.441709
O10	O	1.108832	-0.271187	0.570793
O11	O	1.018347	-0.441611	0.271376
O12	O	0.899070	-0.441536	0.441679
O13	O	1.018394	-0.570487	0.741047
O14	O	0.899060	-0.570538	0.570706
O15	O	1.108820	-0.441445	0.741084
O16	O	1.108701	-0.740928	0.441659
O17	O	1.018326	-0.740871	0.570695
C18	C	0.872362	-0.506035	0.506189
C19	C	0.790563	-0.506053	0.506201
C20	C	0.602384	-0.573330	0.573301
C21	C	0.525525	-0.573333	0.573314
C22	C	0.525505	-0.438796	0.439160
C23	C	0.602363	-0.438788	0.439153
C24	C	0.640800	-0.506061	0.506222
C25	C	0.487084	-0.506072	0.506242
C26	C	0.403750	-0.506075	0.506255
C27	C	0.724139	-0.506057	0.506210
C28	C	1.063524	-0.779021	0.506193
C29	C	1.063573	-0.895797	0.506218
C30	C	1.157751	-0.895803	0.371954
C31	C	1.204859	-0.950667	0.304834
C32	C	1.204902	-1.060388	0.304862
C33	C	1.157834	-1.115249	0.372020
C34	C	1.110725	-1.060385	0.439140
C35	C	1.110686	-0.950661	0.439102
C36	C	1.016552	-1.060379	0.573408
C37	C	1.016504	-0.950658	0.573375
C38	C	0.969484	-1.115240	0.640565
C39	C	0.922370	-1.060376	0.707681
C40	C	0.922329	-0.950648	0.707649
C41	C	0.969396	-0.895794	0.640495
C42	C	1.255521	-0.506072	0.506250
C43	C	1.337320	-0.506080	0.506263
C44	C	1.063613	-0.505951	0.780252
C45	C	1.063632	-0.505908	0.897029
C46	C	1.063633	-0.232020	0.506267
C47	C	1.063660	-0.115243	0.506288
C48	C	1.063566	-0.506079	0.233251
C49	C	1.063690	-0.505826	0.116475
C50	C	1.157782	-0.640224	1.116446
C51	C	1.204816	-0.707440	1.061570
C52	C	1.204792	-0.707480	0.951848
C53	C	1.157726	-0.640299	0.897000
C54	C	1.110691	-0.573084	0.951875
C55	C	1.110722	-0.573049	1.061600
C56	C	1.016597	-0.438692	0.951905
C57	C	1.016624	-0.438645	1.061626
C58	C	0.969531	-0.371512	0.897056
C59	C	0.922499	-0.304289	0.951932
C60	C	0.922526	-0.304251	1.061660
C61	C	0.969589	-0.371430	1.116502
H62	H	1.243184	-0.905990	0.250157
H63	H	0.969512	-0.371553	0.807715
H64	H	0.633677	-0.628105	0.627915
C65	C	1.256719	-1.120745	0.231030
C66	C	1.308492	-1.060412	0.157160
C67	C	1.360307	-1.120769	0.083327
C68	C	1.360349	-1.241459	0.083363
C69	C	1.308574	-1.301799	0.157236
C70	C	1.256758	-1.241442	0.231069
H71	H	1.308463	-0.971064	0.157130
H72	H	1.398635	-1.076101	0.028641
H73	H	1.398706	-1.286139	0.028707
H74	H	1.308603	-1.391147	0.157265
H75	H	1.218431	-1.286110	0.285754
C76	C	0.483267	-0.647335	0.647098
C77	C	0.398727	-0.647346	0.647116
C78	C	0.356470	-0.721350	0.720904
C79	C	0.398753	-0.795344	0.794674
C80	C	0.483297	-0.795337	0.794658
C81	C	0.525555	-0.721332	0.720870
H82	H	0.367423	-0.592568	0.592505
H83	H	0.293884	-0.721356	0.720916
H84	H	0.367471	-0.850127	0.849296
H85	H	0.514602	-0.850114	0.849269
H86	H	0.588141	-0.721327	0.720859
H87	H	1.157704	-0.640347	0.807659
H88	H	1.157813	-0.640189	1.205787
H89	H	0.883970	-0.905984	0.762310
H90	H	1.157879	-1.204590	0.372046
C91	C	1.256589	-0.781334	1.121904
C92	C	1.256624	-0.781295	1.242594
C93	C	1.308395	-0.855190	1.302923
C94	C	1.360131	-0.929126	1.242562
C95	C	1.360098	-0.929168	1.121866
C96	C	1.308327	-0.855273	1.061536
H97	H	1.218324	-0.726561	1.287283
H98	H	1.308419	-0.855158	1.392271
H99	H	1.398455	-0.983828	1.287222
H100	H	1.398397	-0.983902	1.077177
H101	H	1.308302	-0.855305	0.972188
H102	H	0.494200	-0.384026	0.384553
C103	C	0.644626	-0.364792	0.365355
C104	C	0.602350	-0.290807	0.291569
C105	C	0.644614	-0.216814	0.217776
C106	C	0.729154	-0.216807	0.217770
C107	C	0.771435	-0.290795	0.291559
C108	C	0.729171	-0.364788	0.365352
H109	H	0.539764	-0.290810	0.291571
H110	H	0.613315	-0.162044	0.163153
H111	H	0.760441	-0.162033	0.163145
H112	H	0.834021	-0.290792	0.291557
H113	H	0.760471	-0.419559	0.419975
C114	C	0.870602	-1.120722	0.781551
C115	C	0.870655	-1.241411	0.781593
C116	C	0.818886	-1.301761	0.855464
C117	C	0.767064	-1.241421	0.929293
C118	C	0.767010	-1.120724	0.929253
C119	C	0.818779	-1.060375	0.855382
H120	H	0.909019	-1.286085	0.726938
H121	H	0.818927	-1.391109	0.855493
H122	H	0.728742	-1.286096	0.983976
H123	H	0.728646	-1.076051	0.983908
H124	H	0.818738	-0.971027	0.855353
H125	H	0.969362	-0.806453	0.640455
H126	H	1.157711	-0.806462	0.371910
H127	H	1.243096	-0.762207	0.907169
H128	H	0.969525	-1.204581	0.640588
C129	C	0.870785	-0.230312	1.122019
C130	C	0.819019	-0.156423	1.061684
C131	C	0.767277	-0.082483	1.122039
C132	C	0.767301	-0.082431	1.242729
C133	C	0.819069	-0.156322	1.303071
C134	C	0.870811	-0.230263	1.242716
H135	H	0.818999	-0.156459	0.972336
H136	H	0.728954	-0.027784	1.077369
H137	H	0.728998	-0.027696	1.287407
H138	H	0.819088	-0.156287	1.392419
H139	H	0.909133	-0.284962	1.287386
H140	H	0.884179	-0.249601	0.907265
H141	H	0.969619	-0.371401	1.205843
