data_functionalizedCrystal
_audit_creation_method	'MofGen! by Chris Wilmer'
_symmetry_space_group_name_H-M	'P1'
_symmetry_Int_Tables_number	1
_symmetry_cell_setting	triclinic
loop_
_symmetry_equiv_pos_as_xyz
  x,y,z
_cell_length_a	6.817900
_cell_length_b	10.992723
_cell_length_c	10.992410
_cell_angle_alpha	91.830958
_cell_angle_beta	108.764651
_cell_angle_gamma	108.770285
loop_
_atom_site_label
_atom_site_type_symbol
_atom_site_fract_x
_atom_site_fract_y
_atom_site_fract_z
V1	V	-4.114281	-0.177763	-0.400582
O2	O	-4.072374	0.008542	-0.392968
O3	O	-4.091893	-0.352473	-0.397831
O4	O	-4.091873	-0.175028	-0.575295
O5	O	-4.072394	-0.170131	-0.214276
V6	V	-4.591171	-0.155478	-0.378300
O7	O	-4.390091	-0.226645	-0.449460
O8	O	-4.765559	-0.106596	-0.329421
O9	O	-4.390353	0.019232	-0.381050
O10	O	-4.750475	-0.341783	-0.385913
O11	O	-4.750455	-0.163110	-0.564605
O12	O	-4.390373	-0.158213	-0.203587
C13	C	-3.942380	-0.395064	-0.391509
C14	C	-4.005535	-0.537892	-0.390424
C15	C	-4.317466	-0.748833	-0.396136
C16	C	-4.252189	-0.600354	-0.397761
C17	C	-3.982608	-0.607105	-0.509425
C18	C	-4.049772	-0.755778	-0.508444
C19	C	-3.918395	-0.717504	-0.262824
C20	C	-3.856042	-0.568782	-0.262474
C21	C	-3.942354	-0.168714	-0.617879
C22	C	-4.005488	-0.167634	-0.760708
C23	C	-3.872609	-0.157797	-0.955832
C24	C	-3.807059	-0.159452	-0.807348
C25	C	-4.203527	-0.294316	-0.837804
C26	C	-4.267841	-0.293195	-0.986371
C27	C	-4.145561	-0.047894	-0.948354
C28	C	-4.074852	-0.047293	-0.799341
C29	C	-4.203208	0.061816	-0.387369
C30	C	-4.119293	0.204643	-0.388462
C31	C	-4.203234	-0.164532	-0.160995
C32	C	-4.119337	-0.165605	-0.018165
H33	H	-4.369438	-0.581708	-0.489581
H34	H	-3.873883	-0.522188	-0.174363
H35	H	-3.673420	-0.524703	-0.249649
N36	N	-4.263072	-0.045262	-0.756280
H37	H	-4.214858	0.037406	-0.694473
H38	H	-4.306212	-0.122729	-0.710963
H39	H	-3.805731	-0.566667	-0.508578
H40	H	-4.157782	-0.383663	-0.812193
N41	N	-4.247240	-0.411245	-1.047667
H42	H	-4.395615	-0.466642	-1.113236
H43	H	-4.196473	-0.463421	-0.978035
H44	H	-3.931581	0.046420	-0.746989
N45	N	-4.009231	0.079537	-0.975327
H46	H	-3.929084	0.062250	-1.033083
H47	H	-3.897888	0.134203	-0.890639
H48	H	-3.749895	-0.245203	-0.782528
H49	H	-4.277091	-0.553204	-0.312705
N50	N	-3.721346	-0.756185	-0.253805
H51	H	-3.675875	-0.793376	-0.170750
H52	H	-3.594393	-0.677260	-0.254008
H53	H	-3.847687	-0.242373	-1.003819
H54	H	-4.324546	-0.052498	-0.989195
H55	H	-4.449845	-0.304211	-1.029001
H56	H	-4.375016	-0.774000	-0.310573
H57	H	-3.957867	-0.742960	-0.171595
N58	N	-4.514602	-0.820530	-0.516199
H59	H	-4.476098	-0.883017	-0.565640
H60	H	-4.556107	-0.756041	-0.573311
H61	H	-4.353905	-0.304877	-0.809000
H62	H	-4.191229	-0.807600	-0.603052
H63	H	-3.905367	-0.786810	-0.508115
H64	H	-3.755388	-0.066081	-0.974667
N65	N	-4.125234	-0.580370	-0.634849
H66	H	-4.204828	-0.523483	-0.614865
H67	H	-4.237147	-0.665215	-0.688897
H68	H	-3.658587	-0.068363	-0.754014
