data_functionalizedCrystal
_audit_creation_method	'MofGen! by Chris Wilmer'
_symmetry_space_group_name_H-M	'P1'
_symmetry_Int_Tables_number	1
_symmetry_cell_setting	triclinic
loop_
_symmetry_equiv_pos_as_xyz
  x,y,z
_cell_length_a	12.759401
_cell_length_b	17.077402
_cell_length_c	12.759401
_cell_angle_alpha	89.986418
_cell_angle_beta	90.000508
_cell_angle_gamma	89.976956
loop_
_atom_site_label
_atom_site_type_symbol
_atom_site_fract_x
_atom_site_fract_y
_atom_site_fract_z
Zn1	Zn	1.606009	0.312630	0.593950
Zn2	Zn	1.605933	0.443868	0.418258
Zn3	Zn	1.430366	0.312621	0.418290
Zn4	Zn	1.430275	0.443858	0.593899
O5	O	1.518146	0.378244	0.506099
O6	O	1.753020	0.330047	0.570652
O7	O	1.582651	0.426458	0.271241
O8	O	1.453736	0.202775	0.441626
O9	O	1.752965	0.426467	0.441572
O10	O	1.582780	0.202782	0.570683
O11	O	1.453662	0.330031	0.271264
O12	O	1.283333	0.330021	0.441577
O13	O	1.453579	0.426451	0.740927
O14	O	1.283266	0.426441	0.570596
O15	O	1.582691	0.330038	0.740964
O16	O	1.582562	0.553714	0.441522
O17	O	1.453506	0.553707	0.570565
C18	C	1.245178	0.378230	0.506085
C19	C	1.128402	0.378243	0.506104
C20	C	1.518044	0.582192	0.506057
C21	C	1.518097	0.669442	0.506074
C22	C	1.518133	0.378244	0.780132
C23	C	1.518128	0.378244	0.896909
C24	C	1.073532	0.428529	0.573173
C25	C	0.963808	0.428539	0.573184
C26	C	0.963833	0.327974	0.439048
C27	C	1.073555	0.327961	0.439043
C28	C	1.073517	0.486591	0.650612
C29	C	0.963793	0.486601	0.650624
C30	C	1.792179	0.378259	0.506114
C31	C	1.908956	0.378266	0.506120
C32	C	1.518276	0.173500	0.506164
C33	C	1.518332	0.086250	0.506192
C34	C	1.585365	0.710410	0.438954
C35	C	1.585417	0.792390	0.438981
C36	C	1.518194	0.833401	0.506123
C37	C	1.450923	0.792428	0.573251
C38	C	1.450878	0.710449	0.573229
C39	C	1.451020	0.963298	0.573291
C40	C	1.451064	1.045282	0.573312
C41	C	1.585559	1.045239	0.439043
C42	C	1.585514	0.963260	0.439021
C43	C	1.518241	0.922292	0.506147
C44	C	1.450918	0.428454	1.061478
C45	C	1.450909	0.428445	0.951754
C46	C	1.585352	0.328045	0.951794
C47	C	1.585355	0.328051	1.061516
C48	C	1.373302	0.486422	1.061454
C49	C	1.373293	0.486412	0.951730
C50	C	1.518146	0.378261	1.233132
C51	C	1.518139	0.378260	1.116355
H52	H	0.919163	0.287036	0.384451
H53	H	1.640192	0.825743	0.384324
H54	H	1.640084	0.287172	1.106193
O55	O	1.276325	0.466904	1.097124
C56	C	1.173134	0.376372	1.198768
C57	C	1.283015	0.398395	1.158461
H58	H	1.178502	0.320973	1.248349
H59	H	1.140642	0.426267	1.248448
H60	H	1.118891	0.365547	1.129271
H61	H	1.337338	0.409208	1.227894
H62	H	1.315421	0.348488	1.108749
H63	H	1.396243	0.929945	0.627957
H64	H	1.640101	0.677024	0.384274
H65	H	1.640338	1.078599	0.384389
O66	O	1.650861	0.923333	0.373944
C67	C	1.792700	0.830721	0.359917
C68	C	1.718743	0.875876	0.433731
H69	H	1.847615	0.792354	0.408226
H70	H	1.744542	0.792335	0.304951
H71	H	1.840743	0.874095	0.311919
H72	H	1.670683	0.832559	0.481797
H73	H	1.766960	0.914274	0.488628
O74	O	1.385477	0.832176	0.638425
C75	C	1.206733	0.857383	0.689240
C76	C	1.280735	0.812309	0.615382
H77	H	1.122032	0.841350	0.670621
H78	H	1.225017	0.841210	0.773984
H79	H	1.218369	0.923010	0.677746
H80	H	1.269140	0.746673	0.626783
H81	H	1.262432	0.828547	0.530665
H82	H	1.402414	0.544174	1.095462
H83	H	1.396103	0.677094	0.627887
H84	H	1.640075	0.287165	0.907130
H85	H	1.118226	0.287008	0.384436
H86	H	1.296006	0.464634	0.917711
H87	H	1.396345	1.078672	0.628006
H88	H	0.929775	0.464923	0.727978
H89	H	1.395104	0.547196	0.921925
H90	H	1.107529	0.544302	0.621322
O91	O	1.108885	0.467230	0.747774
C92	C	1.063088	0.432068	0.924851
C93	C	1.022892	0.453967	0.814863
H94	H	0.993584	0.421355	0.979129
H95	H	1.112703	0.376667	0.919742
H96	H	1.112748	0.482030	0.957125
H97	H	0.973190	0.404056	0.782525
H98	H	0.973334	0.509393	0.820038
H99	H	0.933993	0.547375	0.628685
