data_functionalizedCrystal
_audit_creation_method	'MofGen! by Chris Wilmer'
_symmetry_space_group_name_H-M	'P1'
_symmetry_Int_Tables_number	1
_symmetry_cell_setting	triclinic
loop_
_symmetry_equiv_pos_as_xyz
  x,y,z
_cell_length_a	6.817900
_cell_length_b	10.943632
_cell_length_c	10.943624
_cell_angle_alpha	91.771060
_cell_angle_beta	108.838799
_cell_angle_gamma	108.838880
loop_
_atom_site_label
_atom_site_type_symbol
_atom_site_fract_x
_atom_site_fract_y
_atom_site_fract_z
V1	V	-4.115495	-0.178596	-0.402520
O2	O	-4.073204	0.008617	-0.394890
O3	O	-4.093445	-0.354159	-0.399737
O4	O	-4.093458	-0.175834	-0.578087
O5	O	-4.073192	-0.170943	-0.215305
V6	V	-4.592293	-0.156205	-0.380131
O7	O	-4.391506	-0.227713	-0.451632
O8	O	-4.766479	-0.107088	-0.331020
O9	O	-4.391136	0.019358	-0.382915
O10	O	-4.751980	-0.343418	-0.387762
O11	O	-4.751993	-0.163858	-0.567347
O12	O	-4.391123	-0.158967	-0.204564
C13	C	-3.944003	-0.396958	-0.393379
C14	C	-4.007438	-0.540484	-0.392273
C15	C	-3.944018	-0.169484	-0.620881
C16	C	-4.007457	-0.168388	-0.764408
C17	C	-3.852284	-0.617637	-0.384920
C18	C	-3.931120	-0.690292	-0.280695
C19	C	-4.041658	-0.723567	-0.494542
C20	C	-4.085393	-0.611235	-0.287974
C21	C	-4.195950	-0.644516	-0.501916
C22	C	-4.274895	-0.717134	-0.397670
C23	C	-3.852287	-0.161001	-0.841556
C24	C	-4.041646	-0.270645	-0.947527
C25	C	-3.931164	-0.056801	-0.914178
C26	C	-4.196026	-0.278134	-0.868502
C27	C	-4.085465	-0.064194	-0.835129
C28	C	-4.274960	-0.173869	-0.941070
C29	C	-4.203920	0.062151	-0.389269
C30	C	-4.119726	0.205675	-0.390383
C31	C	-4.203905	-0.165321	-0.161764
C32	C	-4.119703	-0.166411	-0.018236
H33	H	-3.819813	-0.711058	-0.187152
C34	C	-4.346188	-0.616402	-0.628280
H35	H	-4.329857	-0.655128	-0.701577
H36	H	-4.496047	-0.652017	-0.633576
H37	H	-4.305301	-0.524702	-0.627660
H38	H	-4.454151	-0.760358	-0.403023
H39	H	-4.307409	-0.371779	-0.847941
C40	C	-4.109472	-0.545373	-0.169915
H41	H	-4.068631	-0.453946	-0.171294
H42	H	-4.258842	-0.580241	-0.174146
H43	H	-4.015746	-0.561280	-0.091465
C44	C	-4.017539	-0.388551	-1.013643
H45	H	-4.157295	-0.441716	-1.075085
H46	H	-3.914937	-0.358531	-1.057282
H47	H	-3.965534	-0.438161	-0.949338
H48	H	-3.673087	-0.155706	-0.798109
C49	C	-4.517185	-0.181242	-0.999497
H50	H	-4.522587	-0.105635	-1.038815
H51	H	-4.600504	-0.256882	-1.063532
H52	H	-4.577890	-0.185737	-0.932176
H53	H	-4.103242	0.023090	-0.786160
C54	C	-3.780750	0.069572	-0.942186
H55	H	-3.868426	0.117126	-0.987940
H56	H	-3.676315	0.121364	-0.862074
H57	H	-3.704730	0.048180	-0.993849
C58	C	-3.610054	-0.558863	-0.377466
H59	H	-3.515736	-0.574011	-0.298780
H60	H	-3.593460	-0.598765	-0.450018
H61	H	-3.571515	-0.467532	-0.378971
H62	H	-4.023738	-0.772480	-0.581812
