data_functionalizedCrystal
_audit_creation_method	'MofGen! by Chris Wilmer'
_symmetry_space_group_name_H-M	'P1'
_symmetry_Int_Tables_number	1
_symmetry_cell_setting	triclinic
loop_
_symmetry_equiv_pos_as_xyz
  x,y,z
_cell_length_a	10.489741
_cell_length_b	19.188930
_cell_length_c	8.965430
_cell_angle_alpha	89.995304
_cell_angle_beta	89.998843
_cell_angle_gamma	83.841978
loop_
_atom_site_label
_atom_site_type_symbol
_atom_site_fract_x
_atom_site_fract_y
_atom_site_fract_z
O1	O	1.691851	0.098497	-0.123966
O2	O	1.320449	0.107743	-0.123991
O3	O	1.516868	0.001536	-0.123949
O4	O	1.495432	0.204704	-0.124008
O5	O	1.516851	0.001543	0.124130
O6	O	1.320432	0.107750	0.124088
O7	O	1.691834	0.098504	0.124113
Cu8	Cu	1.506132	0.103128	0.146752
Cu9	Cu	1.506151	0.103120	-0.146630
O10	O	1.495415	0.204711	0.124070
C11	C	1.272924	0.107048	0.000046
C12	C	1.131341	0.104959	0.000037
C13	C	1.516165	-0.024476	0.000095
C14	C	1.514081	-0.101994	0.000108
C15	C	1.064712	0.037383	0.000071
C16	C	0.971880	0.069302	-0.122251
C17	C	0.971897	0.069325	0.122336
C18	C	1.040374	0.136906	-0.122386
C19	C	1.040401	0.136919	0.122310
C20	C	0.947595	0.168887	-0.000041
C21	C	1.629334	-0.146146	0.000123
C22	C	1.627376	-0.218983	0.000099
C23	C	1.510159	-0.247665	0.000090
C24	C	1.394892	-0.203503	0.000066
C25	C	1.396853	-0.130668	0.000075
N26	N	1.420556	-0.356268	0.084510
N27	N	1.418701	-0.425459	0.084504
C28	C	1.504244	-0.467113	0.000059
N29	N	1.591732	-0.436964	-0.084362
N30	N	1.593591	-0.367767	-0.084350
C31	C	1.508020	-0.326642	0.000079
C32	C	1.617382	-0.590244	0.000046
C33	C	1.615419	-0.663081	0.000012
C34	C	1.382932	-0.647600	-0.000005
C35	C	1.384898	-0.574764	0.000013
C36	C	1.502126	-0.546090	0.000046
C37	C	1.739359	0.099199	0.000073
C38	C	1.880941	0.101288	0.000071
C39	C	1.496118	0.230723	0.000023
C40	C	1.498202	0.308242	0.000001
N41	N	1.506127	0.103133	0.353101
N42	N	1.506166	0.103109	-0.352979
C43	C	1.415262	0.152234	0.450387
C44	C	1.530443	0.166361	0.549804
C45	C	1.390995	0.089012	0.549812
C46	C	1.621366	0.117292	0.450329
C47	C	1.481842	0.039916	0.450328
C48	C	1.597106	0.054016	0.549700
H49	H	1.115644	-0.018169	-0.000065
H50	H	1.070570	0.165474	-0.225917
O51	O	0.935726	0.035078	-0.245493
C52	C	0.995978	-0.034230	-0.245064
H53	H	1.023775	-0.050291	-0.126031
H54	H	1.085706	-0.037443	-0.317561
C55	C	0.868897	-0.064177	-0.453654
C56	C	0.903028	-0.083906	-0.307454
H57	H	0.811564	-0.094820	-0.492145
H58	H	0.828306	-0.017482	-0.453948
H59	H	0.943679	-0.066855	-0.514051
H60	H	0.828249	-0.081220	-0.247056
H61	H	0.943604	-0.130602	-0.307151
H62	H	1.709275	-0.699030	0.000016
O63	O	1.739455	-0.261782	0.000184
C64	C	1.843341	-0.220855	0.000170
H65	H	1.810662	-0.166668	0.047133
H66	H	1.879310	-0.215485	-0.118838
C67	C	1.992516	-0.323155	0.039797
C68	C	1.952381	-0.256603	0.097490
H69	H	2.059779	-0.345207	0.099821
H70	H	1.922526	-0.350729	0.039800
H71	H	2.022481	-0.318671	-0.059376
H72	H	1.922401	-0.261089	0.196653
H73	H	2.022368	-0.229030	0.097505
H74	H	1.461239	-0.013519	0.406599
H75	H	1.724790	-0.122805	0.000144
O76	O	0.887281	0.235260	0.000064
C77	C	0.923757	0.271047	0.127894
H78	H	1.020033	0.245346	0.170114
H79	H	0.848165	0.268617	0.218569
C80	C	0.817410	0.379707	0.036154
C81	C	0.935664	0.348143	0.088001
H82	H	0.824749	0.427264	0.011550
H83	H	0.792831	0.355596	-0.049965
H84	H	0.754429	0.377675	0.111726
H85	H	0.998638	0.350168	0.012424
H86	H	0.960254	0.372256	0.174107
H87	H	1.070801	0.165492	0.225715
H88	H	1.338490	0.193796	0.406782
H89	H	1.712836	-0.566896	0.000065
O90	O	1.554765	0.230173	0.601875
C91	C	1.458745	0.281805	0.551256
H92	H	1.368389	0.256317	0.523363
H93	H	1.493890	0.308071	0.447219
C94	C	1.539413	0.368461	0.708437
C95	C	1.428433	0.337156	0.674190
H96	H	1.520718	0.402606	0.784264
H97	H	1.604107	0.333677	0.742537
H98	H	1.568689	0.390343	0.621729
H99	H	1.399168	0.315267	0.760892
H100	H	1.363733	0.371938	0.640108
O101	O	1.269145	-0.675534	-0.000217
C102	C	1.261051	-0.717177	-0.128729
H103	H	1.361684	-0.734806	-0.171554
H104	H	1.204455	-0.685279	-0.218697
C105	C	1.069124	-0.760287	-0.037126
C106	C	1.192724	-0.781945	-0.089717
H107	H	1.026971	-0.800238	-0.013066
H108	H	1.074573	-0.732230	0.049453
H109	H	1.021977	-0.733705	-0.112109
H110	H	1.239873	-0.808519	-0.014728
H111	H	1.187280	-0.810008	-0.176283
H112	H	0.941552	0.040722	0.225750
O113	O	1.272823	-0.531971	0.000084
C114	C	1.168941	-0.572902	0.000034
H115	H	1.201617	-0.627094	0.046993
H116	H	1.132997	-0.578259	-0.118985
C117	C	1.019748	-0.470611	0.039644
C118	C	1.059879	-0.537168	0.097333
H119	H	0.952470	-0.448568	0.099657
H120	H	1.089734	-0.443034	0.039673
H121	H	0.989804	-0.475085	-0.059537
H122	H	1.089837	-0.532693	0.196505
H123	H	0.989895	-0.564744	0.097323
H124	H	1.299453	-0.226861	0.000056
O125	O	1.737571	0.131718	0.398649
C126	C	1.763151	0.198163	0.450580
H127	H	1.704538	0.212009	0.555569
H128	H	1.736005	0.239173	0.360828
C129	C	1.978928	0.179635	0.357778
C130	C	1.906947	0.196639	0.486734
H131	H	2.067629	0.178697	0.380073
H132	H	1.961694	0.134871	0.322785
H133	H	1.956292	0.213813	0.282997
H134	H	1.929572	0.162456	0.561506
H135	H	1.924188	0.241397	0.521740
H136	H	1.674048	0.012481	0.593031
H137	H	1.293614	0.077080	0.593514
H138	H	1.302998	-0.094719	0.000064
