data_functionalizedCrystal
_audit_creation_method	'MofGen! by Chris Wilmer'
_symmetry_space_group_name_H-M	'P1'
_symmetry_Int_Tables_number	1
_symmetry_cell_setting	triclinic
loop_
_symmetry_equiv_pos_as_xyz
  x,y,z
_cell_length_a	10.654555
_cell_length_b	10.654551
_cell_length_c	9.730223
_cell_angle_alpha	89.999958
_cell_angle_beta	89.996111
_cell_angle_gamma	95.513783
loop_
_atom_site_label
_atom_site_type_symbol
_atom_site_fract_x
_atom_site_fract_y
_atom_site_fract_z
O1	O	-1.667836	0.176427	0.114309
O2	O	-1.302358	0.193226	0.114305
O3	O	-1.493499	0.002088	0.114308
O4	O	-1.476695	0.367566	0.114306
O5	O	-1.493487	0.002088	-0.114272
O6	O	-1.302346	0.193227	-0.114275
O7	O	-1.667824	0.176428	-0.114271
Zn8	Zn	-1.485083	0.184827	-0.150565
Zn9	Zn	-1.485099	0.184826	0.150599
O10	O	-1.476683	0.367566	-0.114274
C11	C	-1.255554	0.191992	0.000015
C12	C	-1.116111	0.188297	0.000013
C13	C	-0.919588	0.183097	0.124622
C14	C	-1.050610	0.186562	0.124617
C15	C	-1.050585	0.186555	-0.124594
C16	C	-0.919566	0.183082	-0.124587
C17	C	-0.919602	0.183107	0.268501
C18	C	-1.050625	0.186571	0.268497
C19	C	-1.492259	-0.044710	0.000021
C20	C	-1.488567	-0.184153	0.000030
C21	C	-1.486841	-0.249666	0.124627
C22	C	-1.483361	-0.380686	0.124620
C23	C	-1.483337	-0.380671	-0.124590
C24	C	-1.486809	-0.249652	-0.124582
C25	C	-1.486860	-0.249676	0.268507
C26	C	-1.483380	-0.380697	0.268500
C27	C	-0.714627	0.177663	0.000021
C28	C	-0.854070	0.181360	0.000024
C29	C	-1.477923	0.414364	0.000016
C30	C	-1.481615	0.553807	0.000016
N31	N	-1.485081	0.184827	-0.356101
C32	C	-1.569756	0.100212	-0.571910
C33	C	-1.569745	0.100219	-0.428027
C34	C	-1.400431	0.269441	-0.428066
C35	C	-1.400449	0.269439	-0.571946
C36	C	-1.667505	0.002509	-0.571886
C37	C	-1.667494	0.002516	-0.428003
N38	N	-1.485110	0.184817	0.356136
H39	H	-1.102333	0.097124	0.313143
C40	C	-0.849748	0.303937	0.328818
N41	N	-0.797134	0.394948	0.374247
C42	C	-1.790685	0.043819	-0.367685
N43	N	-1.883471	0.074929	-0.322252
C44	C	-1.369613	-0.187149	0.343134
N45	N	-1.281303	-0.140054	0.399338
H46	H	-1.075461	0.275254	0.323725
H47	H	-1.391786	-0.410266	0.313156
C48	C	-1.488688	-0.177591	-0.261648
N49	N	-1.490102	-0.123314	-0.364891
C50	C	-1.600639	-0.443238	0.343115
N51	N	-1.688957	-0.490344	0.399311
C52	C	-0.886064	0.063307	0.343125
N53	N	-0.860803	-0.026926	0.399326
C54	C	-1.481406	-0.452732	-0.261656
N55	N	-1.479952	-0.507007	-0.364898
C56	C	-1.610606	-0.209725	0.328820
N57	N	-1.703814	-0.179633	0.374246
H58	H	-1.646036	-0.094015	-0.388957
H59	H	-1.331504	0.338339	-0.369494
C60	C	-0.847501	0.181173	-0.261654
N61	N	-0.793221	0.179742	-0.364898
H62	H	-1.103928	0.187957	-0.226048
C63	C	-1.307340	0.362518	-0.651091
N64	N	-1.237204	0.432628	-0.710703
H65	H	-1.764024	0.024018	-0.610911
H66	H	-1.636987	-0.088703	-0.616520
