data_functionalizedCrystal
_audit_creation_method	'MofGen! by Chris Wilmer'
_symmetry_space_group_name_H-M	'P1'
_symmetry_Int_Tables_number	1
_symmetry_cell_setting	triclinic
loop_
_symmetry_equiv_pos_as_xyz
  x,y,z
_cell_length_a	13.033293
_cell_length_b	15.299816
_cell_length_c	13.032268
_cell_angle_alpha	72.095154
_cell_angle_beta	90.920818
_cell_angle_gamma	88.701182
loop_
_atom_site_label
_atom_site_type_symbol
_atom_site_fract_x
_atom_site_fract_y
_atom_site_fract_z
Zn1	Zn	1.547015	-0.282160	0.844279
Zn2	Zn	2.047015	0.217840	1.344279
Zn3	Zn	1.591185	-0.412492	0.701313
Zn4	Zn	2.091185	0.087508	1.201313
Zn5	Zn	1.396051	-0.277371	0.649389
Zn6	Zn	1.896051	0.222629	1.149389
Zn7	Zn	1.403941	-0.450299	0.859767
Zn8	Zn	1.903941	0.049701	1.359767
O9	O	1.484548	-0.355580	0.763687
O10	O	1.984548	0.144420	1.263687
O11	O	1.694415	-0.285631	0.840563
O12	O	2.194415	0.214369	1.340563
O13	O	1.580483	-0.376741	0.546549
O14	O	2.080483	0.123259	1.046549
O15	O	1.394290	-0.151091	0.647030
O16	O	1.894290	0.348909	1.147030
O17	O	1.726867	-0.381385	0.735526
O18	O	2.226867	0.118615	1.235526
O19	O	1.505202	-0.154609	0.790215
O20	O	2.005202	0.345391	1.290215
O21	O	1.437119	-0.277468	0.508401
O22	O	1.937119	0.222532	1.008401
O23	O	1.255557	-0.314128	0.662048
O24	O	1.755557	0.185872	1.162048
O25	O	1.407737	-0.445822	1.005588
O26	O	1.907737	0.054178	1.505588
O27	O	1.261354	-0.441178	0.816611
O28	O	1.761354	0.058822	1.316611
O29	O	1.512853	-0.322291	0.994210
O30	O	2.012853	0.177709	1.494210
O31	O	1.588134	-0.544422	0.750544
O32	O	2.088134	-0.044422	1.250544
O33	O	1.450567	-0.572199	0.866959
O34	O	1.950567	-0.072199	1.366959
C35	C	1.221755	-0.381237	0.735376
C36	C	1.721755	0.118763	1.235376
C37	C	1.109333	-0.392237	0.723295
C38	C	1.609333	0.107763	1.223295
C39	C	1.043159	-0.349862	0.769997
C40	C	1.543159	0.150138	1.269997
C41	C	0.926964	-0.361231	0.757512
C42	C	1.426964	0.138769	1.257512
C43	C	1.525025	-0.591219	0.816092
C44	C	2.025025	-0.091219	1.316092
C45	C	1.542429	-0.692021	0.838557
C46	C	2.042429	-0.192021	1.338557
C47	C	1.360779	-0.969092	0.603559
C48	C	1.860779	-0.469092	1.103559
C49	C	1.344421	-0.874385	0.582455
C50	C	1.844421	-0.374385	1.082455
C51	C	1.393922	-0.828789	0.646478
C52	C	1.893922	-0.328789	1.146478
C53	C	1.459783	-0.877911	0.731610
C54	C	1.959783	-0.377911	1.231610
C55	C	1.476137	-0.972629	0.752722
C56	C	1.976137	-0.472629	1.252722
C57	C	1.509280	-0.832325	0.795641
C58	C	2.009280	-0.332325	1.295641
C59	C	1.575141	-0.881447	0.880774
C60	C	2.075141	-0.381447	1.380774
C61	C	1.591492	-0.976156	0.901881
C62	C	2.091492	-0.476156	1.401881
C63	C	1.541991	-1.021752	0.837858
C64	C	2.041991	-0.521752	1.337858
C65	C	1.492926	-0.737607	0.774529
C66	C	1.992926	-0.237607	1.274529
C67	C	1.608284	-0.741144	0.923692
C68	C	2.108284	-0.241144	1.423692
C69	C	1.624642	-0.835851	0.944797
C70	C	2.124642	-0.335851	1.444797
C71	C	1.748367	-0.329825	0.792109
C72	C	2.248367	0.170175	1.292109
C73	C	1.860791	-0.318849	0.804221
C74	C	2.360791	0.181151	1.304221
C75	C	1.456248	-0.388808	1.039314
C76	C	1.956248	0.111192	1.539314
C77	C	1.444188	-0.402967	1.156769
C78	C	1.944188	0.097033	1.656769
C79	C	1.443939	-0.119022	0.711103
C80	C	1.943939	0.380978	1.211103
C81	C	1.426634	-0.018215	0.688695
C82	C	1.926634	0.481785	1.188695
C83	C	1.512785	-0.322411	0.489124
C84	C	2.012785	0.177589	0.989124
C85	C	1.524997	-0.307977	0.371633
C86	C	2.024997	0.192023	0.871633
C87	C	1.490821	-0.348159	1.203505
C88	C	1.990821	0.151841	1.703505
C89	C	1.478358	-0.362793	1.324901
C90	C	1.978358	0.137207	1.824901
H91	H	0.897600	-0.405927	0.708279
H92	H	1.397600	0.094073	1.208279
H93	H	1.574145	-0.250212	1.321775
H94	H	2.074145	0.249788	1.821775
H95	H	0.890153	-0.274145	0.853445
H96	H	1.390153	0.225855	1.353445
H97	H	1.395030	-0.460718	1.206629
H98	H	1.895030	0.039282	1.706629
H99	H	1.079964	-0.436931	0.674065
H100	H	1.579964	0.063069	1.174065
H101	H	1.439301	-0.697621	0.705214
H102	H	1.939301	-0.197621	1.205214
H103	H	1.380600	-0.751673	0.629288
H104	H	1.880600	-0.251673	1.129288
N105	N	1.273399	-0.821402	0.490635
N106	N	1.773399	-0.321402	0.990635
H107	H	1.202294	-0.846967	0.502881
H108	H	1.702294	-0.346967	1.002881
H109	H	1.299856	-0.827275	0.420565
H110	H	1.799856	-0.327275	0.920565
N111	N	1.082048	-0.290673	0.835229
N112	N	1.582048	0.209327	1.335229
H113	H	1.159542	-0.290952	0.834914
H114	H	1.659542	0.209048	1.334914
H115	H	1.058337	-0.315794	0.911867
H116	H	1.558337	0.184206	1.411867
N117	N	1.307401	-1.018271	0.534512
N118	N	1.807401	-0.518271	1.034512
H119	H	1.263199	-0.972783	0.477374
H120	H	1.763199	-0.472783	0.977374
H121	H	1.262938	-1.067344	0.581210
H122	H	1.762938	-0.567344	1.081210
N123	N	1.559629	-1.123903	0.860609
N124	N	2.059629	-0.623903	1.360609
H125	H	1.492185	-1.155876	0.877588
H126	H	1.992185	-0.655876	1.377588
H127	H	1.608890	-1.148037	0.924236
H128	H	2.108890	-0.648037	1.424236
H129	H	1.645117	-1.016149	0.971206
H130	H	2.145117	-0.516149	1.471206
N131	N	1.695672	-0.888829	1.036623
N132	N	2.195672	-0.388829	1.536623
H133	H	1.753763	-0.918351	1.007524
H134	H	2.253763	-0.418351	1.507524
H135	H	1.656214	-0.938011	1.089857
H136	H	2.156214	-0.438011	1.589857
N137	N	1.661674	-0.691980	0.992760
N138	N	2.161674	-0.191980	1.492760
H139	H	1.641323	-0.624525	0.966467
H140	H	2.141323	-0.124525	1.466467
H141	H	1.738456	-0.699451	0.987838
H142	H	2.238456	-0.199451	1.487838
H143	H	1.539967	-0.290400	1.153642
H144	H	2.039967	0.209600	1.653642
H145	H	1.429196	-0.420548	1.374757
H146	H	1.929196	0.079452	1.874757
