data_functionalizedCrystal
_audit_creation_method	'MofGen! by Chris Wilmer'
_symmetry_space_group_name_H-M	'P1'
_symmetry_Int_Tables_number	1
_symmetry_cell_setting	triclinic
loop_
_symmetry_equiv_pos_as_xyz
  x,y,z
_cell_length_a	12.827893
_cell_length_b	12.759400
_cell_length_c	12.759393
_cell_angle_alpha	89.970908
_cell_angle_beta	89.980782
_cell_angle_gamma	90.013136
loop_
_atom_site_label
_atom_site_type_symbol
_atom_site_fract_x
_atom_site_fract_y
_atom_site_fract_z
Zn1	Zn	1.597687	-0.418219	-0.594018
Zn2	Zn	2.097687	0.081781	-0.094018
Zn3	Zn	1.597588	-0.593934	-0.418342
Zn4	Zn	2.097588	-0.093934	0.081658
Zn5	Zn	1.422928	-0.418269	-0.418354
Zn6	Zn	1.922928	0.081731	0.081646
Zn7	Zn	1.422921	-0.593857	-0.593980
Zn8	Zn	1.922921	-0.093857	-0.093980
O9	O	1.510281	-0.506070	-0.506173
O10	O	2.010281	-0.006070	-0.006173
O11	O	1.743910	-0.441539	-0.570725
O12	O	2.243910	0.058461	-0.070725
O13	O	1.574380	-0.570685	-0.271322
O14	O	2.074380	-0.070685	0.228678
O15	O	1.446155	-0.271242	-0.441678
O16	O	1.946155	0.228758	0.058322
O17	O	1.743837	-0.570636	-0.441656
O18	O	2.243837	-0.070636	0.058344
O19	O	1.574550	-0.271205	-0.570737
O20	O	2.074550	0.228795	-0.070737
O21	O	1.446059	-0.441625	-0.271331
O22	O	1.946059	0.058375	0.228669
O23	O	1.276691	-0.441550	-0.441641
O24	O	1.776691	0.058450	0.058359
O25	O	1.446142	-0.570504	-0.741006
O26	O	1.946142	-0.070504	-0.241006
O27	O	1.276686	-0.570553	-0.570672
O28	O	1.776686	-0.070553	-0.070672
O29	O	1.574543	-0.441464	-0.741034
O30	O	2.074543	0.058536	-0.241034
O31	O	1.574373	-0.740945	-0.441619
O32	O	2.074373	-0.240945	0.058381
O33	O	1.446046	-0.740888	-0.570660
O34	O	1.946046	-0.240888	-0.070660
C35	C	1.238771	-0.506050	-0.506154
C36	C	1.738771	-0.006050	-0.006154
C37	C	1.122618	-0.506066	-0.506171
C38	C	1.622618	-0.006066	-0.006171
C39	C	1.070797	-0.569849	-0.442219
C40	C	1.570797	-0.069849	0.057781
C41	C	0.950747	-0.569868	-0.442235
C42	C	1.450747	-0.069868	0.057765
C43	C	1.510226	-0.779037	-0.506157
C44	C	2.010226	-0.279037	-0.006157
C45	C	1.510298	-0.895814	-0.506185
C46	C	2.010298	-0.395814	-0.006185
C47	C	1.577120	-0.950577	-0.573441
C48	C	2.077120	-0.450577	-0.073441
C49	C	1.577169	-1.060301	-0.573467
C50	C	2.077169	-0.560301	-0.073467
C51	C	1.443571	-1.060489	-0.438971
C52	C	1.943571	-0.560489	0.061029
C53	C	1.443518	-0.950767	-0.438951
C54	C	1.943518	-0.450767	0.061049
C55	C	1.643900	-0.895624	-0.640675
C56	C	2.143900	-0.395624	-0.140675
C57	C	1.710728	-0.950387	-0.707936
C58	C	2.210728	-0.450387	-0.207936
C59	C	1.710777	-1.060111	-0.707961
C60	C	2.210777	-0.560111	-0.207961
C61	C	1.643998	-1.115072	-0.640726
C62	C	2.143998	-0.615072	-0.140726
C63	C	1.782851	-0.506091	-0.506193
C64	C	2.282851	-0.006091	-0.006193
C65	C	1.899004	-0.506100	-0.506202
C66	C	2.399004	-0.006100	-0.006202
C67	C	1.510353	-0.505970	-0.780207
C68	C	2.010353	-0.005970	-0.280207
C69	C	1.510383	-0.505928	-0.896984
C70	C	2.010383	-0.005928	-0.396984
C71	C	1.510364	-0.232036	-0.506213
C72	C	2.010364	0.267964	-0.006213
C73	C	1.510400	-0.115260	-0.506230
C74	C	2.010400	0.384740	-0.006230
C75	C	1.577238	-0.573053	-1.061570
C76	C	2.077238	-0.073053	-0.561570
C77	C	1.577207	-0.573100	-0.951846
C78	C	2.077207	-0.073100	-0.451846
C79	C	1.443579	-0.438711	-0.951852
C80	C	1.943579	0.061289	-0.451852
C81	C	1.443606	-0.438670	-1.061574
C82	C	1.943606	0.061330	-0.561574
C83	C	1.644074	-0.640223	-1.116426
C84	C	2.144074	-0.140223	-0.616426
C85	C	1.710878	-0.707441	-1.061566
C86	C	2.210878	-0.207441	-0.561566
C87	C	1.710846	-0.707488	-0.951842
C88	C	2.210846	-0.207488	-0.451842
C89	C	1.644012	-0.640317	-0.896978
C90	C	2.144012	-0.140317	-0.396978
C91	C	1.510270	-0.506093	-0.233206
C92	C	2.010270	-0.006093	0.266794
C93	C	1.510441	-0.505840	-0.116430
C94	C	2.010441	-0.005840	0.383570
H95	H	1.078107	-0.451477	-0.560938
H96	H	1.578107	0.048523	-0.060938
Cl97	Cl	1.359515	-0.881917	-0.354395
Cl98	Cl	1.859515	-0.381917	0.145605
Cl99	Cl	1.794883	-0.791889	-1.130535
Cl100	Cl	2.294883	-0.291889	-0.630535
Cl101	Cl	1.359628	-1.129584	-0.354451
Cl102	Cl	1.859628	-0.629584	0.145549
H103	H	1.765092	-0.905632	-0.762683
H104	H	2.265092	-0.405632	-0.262683
Cl105	Cl	0.967795	-0.421778	-0.590736
Cl106	Cl	1.467795	0.078222	-0.090736
H107	H	1.643871	-0.806281	-0.640659
H108	H	2.143871	-0.306281	-0.140659
Cl109	Cl	1.794818	-0.791997	-0.882877
Cl110	Cl	2.294818	-0.291997	-0.382877
Cl111	Cl	1.643960	-0.640393	-0.759037
Cl112	Cl	2.143960	-0.140393	-0.259037
Cl113	Cl	0.881949	-0.654176	-0.357692
Cl114	Cl	1.381949	-0.154176	0.142308
Cl115	Cl	1.644122	-0.640164	-1.254364
Cl116	Cl	2.144122	-0.140164	-0.754364
H117	H	1.389167	-0.384022	-0.907173
H118	H	1.889167	0.115978	-0.407173
H119	H	1.389217	-0.383936	-1.106242
H120	H	1.889217	0.116064	-0.606242
Cl121	Cl	1.644219	-1.253012	-0.640602
Cl122	Cl	2.144219	-0.753012	-0.140602
Cl123	Cl	1.139510	-0.654146	-0.357669
Cl124	Cl	1.639510	-0.154146	0.142331
Cl125	Cl	1.794775	-1.128953	-0.792527
Cl126	Cl	2.294775	-0.628953	-0.292527
