data_functionalizedCrystal
_audit_creation_method	'MofGen! by Chris Wilmer'
_symmetry_space_group_name_H-M	'P1'
_symmetry_Int_Tables_number	1
_symmetry_cell_setting	triclinic
loop_
_symmetry_equiv_pos_as_xyz
  x,y,z
_cell_length_a	19.805407
_cell_length_b	14.908178
_cell_length_c	14.908308
_cell_angle_alpha	89.778379
_cell_angle_beta	93.278986
_cell_angle_gamma	93.311253
loop_
_atom_site_label
_atom_site_type_symbol
_atom_site_fract_x
_atom_site_fract_y
_atom_site_fract_z
Zn1	Zn	0.996888	-0.387380	-0.487701
Zn2	Zn	1.496888	0.112620	0.012299
Zn3	Zn	0.997571	-0.529090	-0.328662
Zn4	Zn	1.497571	-0.029090	0.171338
Zn5	Zn	0.890587	-0.378733	-0.337361
Zn6	Zn	1.390587	0.121267	0.162639
Zn7	Zn	0.877553	-0.537698	-0.478975
Zn8	Zn	1.377553	-0.037698	0.021025
O9	O	0.940650	-0.458225	-0.408175
O10	O	1.440650	0.041775	0.091825
O11	O	1.091694	-0.406194	-0.466615
O12	O	1.591694	0.093806	0.033385
O13	O	0.989120	-0.501923	-0.203991
O14	O	1.489120	-0.001923	0.296009
O15	O	0.909856	-0.254046	-0.364596
O16	O	1.409856	0.245954	0.135404
O17	O	1.092196	-0.510308	-0.349770
O18	O	1.592196	-0.010308	0.150230
O19	O	0.987955	-0.260399	-0.475050
O20	O	1.487955	0.239601	0.024950
O21	O	0.910519	-0.391456	-0.210383
O22	O	1.410519	0.108544	0.289617
O23	O	0.794142	-0.399804	-0.356135
O24	O	1.294142	0.100196	0.143865
O25	O	0.887643	-0.524980	-0.605957
O26	O	1.387643	-0.024980	-0.105957
O27	O	0.784567	-0.516595	-0.460178
O28	O	1.284567	-0.016595	0.039822
O29	O	0.975317	-0.414542	-0.612368
O30	O	1.475317	0.085458	-0.112368
O31	O	0.976482	-0.656065	-0.341308
O32	O	1.476482	-0.156065	0.158692
O33	O	0.888305	-0.662390	-0.451743
O34	O	1.388305	-0.162390	0.048257
C35	C	0.764796	-0.458196	-0.408154
C36	C	1.264796	0.041804	0.091846
C37	C	0.689563	-0.458206	-0.408166
C38	C	1.189563	0.041794	0.091834
C39	C	0.653950	-0.404101	-0.469089
C40	C	1.153950	0.095899	0.030911
C41	C	0.583261	-0.404106	-0.469092
C42	C	1.083261	0.095894	0.030908
C43	C	0.548186	-0.458221	-0.408176
C44	C	1.048186	0.041779	0.091824
C45	C	0.583804	-0.512329	-0.347246
C46	C	1.083804	-0.012329	0.152754
C47	C	0.654492	-0.512318	-0.347239
C48	C	1.154492	-0.012318	0.152761
C49	C	0.298728	-0.512371	-0.347271
C50	C	0.798728	-0.012371	0.152729
C51	C	0.228035	-0.512379	-0.347285
C52	C	0.728035	-0.012379	0.152715
C53	C	0.227497	-0.404158	-0.469124
C54	C	0.727497	0.095842	0.030876
C55	C	0.298185	-0.404148	-0.469117
C56	C	0.798185	0.095852	0.030883
C57	C	0.333797	-0.458251	-0.408185
C58	C	0.833797	0.041749	0.091815
C59	C	0.410446	-0.458244	-0.408181
C60	C	0.910446	0.041756	0.091819
C61	C	0.471538	-0.458234	-0.408183
C62	C	0.971538	0.041766	0.091817
C63	C	0.931071	-0.691856	-0.394654
C64	C	1.431071	-0.191856	0.105346
C65	C	0.927033	-0.791806	-0.388901
C66	C	1.427033	-0.291806	0.111099
C67	C	1.000700	-0.986095	-0.493227
C68	C	1.500700	-0.486095	0.006773
C69	C	0.996909	-1.080008	-0.487824
C70	C	1.496909	-0.580008	0.012176
C71	C	0.915656	-1.073545	-0.372696
C72	C	1.415656	-0.573545	0.127304
C73	C	0.919447	-0.979632	-0.378099
C74	C	1.419447	-0.479632	0.121901
C75	C	0.961972	-0.935911	-0.438366
C76	C	1.461972	-0.435911	0.061634
C77	C	0.965766	-0.841997	-0.443764
C78	C	1.465766	-0.341997	0.056236
C79	C	0.884510	-0.835536	-0.328641
C80	C	1.384510	-0.335536	0.171359
C81	C	0.880719	-0.929448	-0.323238
C82	C	1.380719	-0.429448	0.176762
C83	C	1.117190	-0.458256	-0.408195
C84	C	1.617190	0.041744	0.091805
C85	C	1.192421	-0.458268	-0.408204
C86	C	1.692421	0.041732	0.091796
C87	C	0.929950	-0.471686	-0.642699
C88	C	1.429950	0.028314	-0.142699
C89	C	0.925390	-0.477422	-0.742640
C90	C	1.425390	0.022578	-0.242640
C91	C	0.950284	-0.223683	-0.421767
C92	C	1.450284	0.276317	0.078233
C93	C	0.954389	-0.123735	-0.427559
C94	C	1.454389	0.376265	0.072441
C95	C	1.008117	-0.373180	-0.937117
C96	C	1.508117	0.126820	-0.437117
C97	C	1.003835	-0.378566	-1.031020
C98	C	1.503835	0.121434	-0.531020
C99	C	0.912542	-0.493576	-1.024351
C100	C	1.412542	0.006424	-0.524351
C101	C	0.916824	-0.488189	-0.930448
C102	C	1.416824	0.011811	-0.430448
C103	C	0.964614	-0.427990	-0.886834
C104	C	1.464614	0.072010	-0.386834
C105	C	0.968898	-0.422609	-0.792929
C106	C	1.468898	0.077391	-0.292929
C107	C	0.877602	-0.537613	-0.786262
C108	C	1.377602	-0.037613	-0.286262
C109	C	0.873321	-0.543000	-0.880165
C110	C	1.373321	-0.043000	-0.380165
C111	C	0.951349	-0.444752	-0.174566
C112	C	1.451349	0.055248	0.325434
C113	C	0.956050	-0.438763	-0.074641
C114	C	1.456050	0.061237	0.425359
H115	H	1.000393	-0.806400	-0.492834
H116	H	1.500393	-0.306400	0.007166
H117	H	0.198493	-0.360101	-0.518735
H118	H	0.698493	0.139899	-0.018735
O119	O	0.691775	-0.345730	-0.534795
O120	O	1.191775	0.154270	-0.034795
H121	H	0.746912	-0.354816	-0.524563
H122	H	1.246912	0.145184	-0.024563
H123	H	1.007812	-0.373593	-0.757420
H124	H	1.507812	0.126407	-0.257420
H125	H	1.035330	-0.950497	-0.542293
H126	H	1.535330	-0.450497	-0.042293
H127	H	0.683487	-0.556376	-0.297629
H128	H	1.183487	-0.056376	0.202371
H129	H	0.842180	-0.582246	-0.745312
H130	H	1.342180	-0.082246	-0.245312
H131	H	1.028442	-1.120865	-0.532503
H132	H	1.528442	-0.620865	-0.032503
H133	H	0.554268	-0.360050	-0.518703
H134	H	1.054268	0.139950	-0.018703
H135	H	0.873634	-0.542586	-1.059878
H136	H	1.373634	-0.042586	-0.559878
O137	O	0.336018	-0.345773	-0.534811
O138	O	0.836018	0.154227	-0.034811
H139	H	0.299379	-0.308140	-0.577168
H140	H	0.799379	0.191860	-0.077168
H141	H	1.039259	-0.333932	-1.071957
H142	H	1.539259	0.166068	-0.571957
H143	H	0.881032	-1.109159	-0.323634
H144	H	1.381032	-0.609159	0.176366
O145	O	0.190201	-0.570737	-0.281570
O146	O	0.690201	-0.070737	0.218430
H147	H	0.226840	-0.608349	-0.239190
H148	H	0.726840	-0.108349	0.260810
H149	H	0.834410	-0.592010	-0.915689
H150	H	1.334410	-0.092010	-0.415689
H151	H	0.327715	-0.556426	-0.297658
H152	H	0.827715	-0.056426	0.202342
H153	H	1.047033	-0.324168	-0.901606
H154	H	1.547033	0.175832	-0.401606
H155	H	0.846096	-0.965059	-0.274172
H156	H	1.346096	-0.465059	0.225828
H157	H	0.852977	-0.794665	-0.283966
H158	H	1.352977	-0.294665	0.216034
H159	H	0.555241	-0.556386	-0.297643
H160	H	1.055241	-0.056386	0.202357
