data_functionalizedCrystal
_audit_creation_method	'MofGen! by Chris Wilmer'
_symmetry_space_group_name_H-M	'P1'
_symmetry_Int_Tables_number	1
_symmetry_cell_setting	triclinic
loop_
_symmetry_equiv_pos_as_xyz
  x,y,z
_cell_length_a	17.038272
_cell_length_b	27.731996
_cell_length_c	16.098538
_cell_angle_alpha	92.693548
_cell_angle_beta	87.069734
_cell_angle_gamma	86.866472
loop_
_atom_site_label
_atom_site_type_symbol
_atom_site_fract_x
_atom_site_fract_y
_atom_site_fract_z
O1	O	1.039633	0.102901	-0.069170
O2	O	0.812024	0.101234	-0.069195
O3	O	0.932918	0.031994	-0.069164
O4	O	0.918739	0.172141	-0.069201
O5	O	0.925856	0.036021	0.069347
O6	O	0.804962	0.105262	0.069316
O7	O	1.032572	0.106928	0.069341
Zn8	Zn	0.917646	0.106734	0.091320
Zn9	Zn	0.926950	0.101428	-0.091174
O10	O	0.911677	0.176169	0.069310
C11	C	0.779383	0.101733	0.000058
C12	C	0.692645	0.097212	0.000050
C13	C	0.929096	0.015987	0.000095
C14	C	0.928218	-0.037709	0.000103
C15	C	0.642035	0.138715	0.000039
C16	C	0.560534	0.134465	0.000052
C17	C	0.529646	0.088711	0.000069
C18	C	0.580262	0.047205	0.000082
C19	C	0.661761	0.051456	0.000075
C20	C	0.284066	0.073695	0.000095
C21	C	0.202561	0.069447	0.000099
C22	C	0.182839	0.156707	0.000071
C23	C	0.264340	0.160954	0.000059
C24	C	0.314949	0.119448	0.000077
C25	C	0.446340	0.084366	0.000079
C26	C	0.398253	0.123794	0.000072
C27	C	0.926549	-0.372875	-0.075441
C28	C	0.923218	-0.574686	-0.075456
O29	O	0.926027	-0.602645	-0.139668
N30	N	0.918955	-0.597726	0.000046
C31	C	0.915519	-0.570311	0.075557
O32	O	0.911808	-0.594539	0.139775
C33	C	0.918844	-0.368500	0.075571
C34	C	0.923116	-0.345463	0.000064
C35	C	0.930819	-0.349837	-0.150941
C36	C	0.931656	-0.299387	-0.150937
C37	C	0.928223	-0.271976	-0.075432
C38	C	0.923953	-0.295013	0.000069
C39	C	0.915403	-0.341086	0.151081
C40	C	0.916233	-0.290630	0.151078
C41	C	0.920504	-0.267592	0.075571
C42	C	0.921357	-0.217152	0.075578
N43	N	0.925620	-0.194111	0.000077
C44	C	0.929053	-0.221523	-0.075428
C45	C	0.913775	-0.676264	0.075544
C46	C	0.912945	-0.726717	0.075541
C47	C	0.920642	-0.731088	-0.075472
C48	C	0.921478	-0.680635	-0.075468
C49	C	0.918038	-0.653224	0.000042
C50	C	0.930811	-0.115575	-0.075413
C51	C	0.931651	-0.065121	-0.075402
C52	C	0.923949	-0.060754	0.075610
C53	C	0.923113	-0.111204	0.075600
C54	C	0.926542	-0.138613	0.000081
O55	O	0.918541	-0.189162	0.139757
O56	O	0.932746	-0.197286	-0.139637
C57	C	0.925712	-0.423324	-0.075445
C58	C	0.921442	-0.446362	0.000055
C59	C	0.918009	-0.418950	0.075560
C60	C	0.920612	-0.496815	0.000052
C61	C	0.924045	-0.524226	-0.075453
C62	C	0.928308	-0.501186	-0.150955
C63	C	0.929145	-0.450736	-0.150950
C64	C	0.913745	-0.441991	0.151062
C65	C	0.912910	-0.492441	0.151051
C66	C	0.916343	-0.519853	0.075546
C67	C	1.065213	0.106430	0.000086
C68	C	1.151951	0.110950	0.000089
C69	C	0.915500	0.192175	0.000050
C70	C	0.916378	0.245871	0.000036
N71	N	0.911301	0.110356	0.215868
N72	N	0.933300	0.097803	-0.215722
C73	C	0.962632	0.080980	0.259466
C74	C	0.958201	0.083518	0.346654
C75	C	0.902443	0.115436	0.390242
C76	C	0.851107	0.144813	0.346638
C77	C	0.855534	0.142272	0.259451
C78	C	0.886392	0.124639	0.653488
C79	C	0.881970	0.127179	0.740680
C80	C	0.989064	0.065883	0.740690
C81	C	0.993490	0.063347	0.653502
C82	C	0.942151	0.092722	0.609906
C83	C	0.897914	0.118032	0.479362
C84	C	0.946676	0.090123	0.520787
H85	H	0.667177	0.175972	0.000025
N86	N	0.546957	-0.002146	0.000096
H87	H	0.562843	-0.018986	0.051448
H88	H	0.487655	0.001495	0.000064
H89	H	0.910977	-0.653950	0.137037
H90	H	0.702967	0.017660	0.000083
N91	N	0.338652	0.028932	0.000099
H92	H	0.370295	0.030242	0.051443
H93	H	0.306668	-0.000675	0.000073
N94	N	0.505942	0.179231	0.000135
H95	H	0.537875	0.208861	0.000148
H96	H	0.474261	0.177910	-0.051179
H97	H	0.421180	0.047114	0.000117
H98	H	0.933612	-0.372151	-0.212430
H99	H	0.999998	0.059597	0.382151
H100	H	0.921158	-0.038426	0.137084
N101	N	0.932026	-0.530761	-0.232389
H102	H	0.982319	-0.524869	-0.265385
H103	H	0.930820	-0.566204	-0.220847
N104	N	0.924347	-0.760659	-0.156912
H105	H	0.923172	-0.796115	-0.145449
H106	H	0.877708	-0.750869	-0.189884
N107	N	0.910051	-0.412433	0.232507
H108	H	0.958688	-0.393334	0.235879
H109	H	0.861738	-0.389500	0.235833
N110	N	0.908344	-0.751560	0.156981
H111	H	0.908339	-0.787682	0.145530
H112	H	0.955270	-0.743711	0.189957
H113	H	1.038893	0.037357	0.618015
N114	N	0.837787	0.152460	0.526385
H115	H	0.847134	0.186681	0.511200
H116	H	0.783189	0.144117	0.511212
N117	N	0.933728	-0.425901	-0.232399
H118	H	0.885780	-0.403142	-0.235768
H119	H	0.982731	-0.407019	-0.235737
N120	N	0.431567	0.173140	0.000043
H121	H	0.387142	0.198790	0.000033
H122	H	0.462343	0.178300	0.051386
H123	H	0.935131	-0.046367	-0.136891
H124	H	0.177416	0.032187	0.000113
N125	N	0.934531	-0.145135	-0.156863
H126	H	0.937372	-0.122879	-0.204685
H127	H	0.982821	-0.168086	-0.160134
H128	H	0.935131	-0.280635	-0.212422
H129	H	0.924955	-0.661882	-0.136952
H130	H	0.911926	-0.359834	0.212566
H131	H	0.913420	-0.268313	0.212569
H132	H	1.030861	0.041966	0.776195
N133	N	0.918520	-0.136056	0.157036
H134	H	0.916476	-0.111033	0.204868
H135	H	0.869541	-0.154961	0.160319
H136	H	0.836562	0.153172	0.776166
H137	H	0.844591	0.148559	0.617998
H138	H	1.008040	0.054991	0.223982
N139	N	0.297655	0.210302	0.000025
H140	H	0.253226	0.235950	0.000016
H141	H	0.328435	0.215465	0.051364
N142	N	0.128255	0.201472	0.000054
H143	H	0.071939	0.191839	0.000061
H144	H	0.135585	0.222760	0.051395
N145	N	0.908300	-0.517287	0.232494
H146	H	0.956238	-0.540052	0.235874
H147	H	0.906223	-0.492232	0.280276
H148	H	0.805703	0.170799	0.382132
N149	N	0.800167	0.173954	0.212423
H150	H	0.764172	0.194559	0.253264
H151	H	0.831650	0.195499	0.176232
H152	H	0.992072	0.064134	0.485295
