data_functionalizedCrystal
_audit_creation_method	'MofGen! by Chris Wilmer'
_symmetry_space_group_name_H-M	'P1'
_symmetry_Int_Tables_number	1
_symmetry_cell_setting	triclinic
loop_
_symmetry_equiv_pos_as_xyz
  x,y,z
_cell_length_a	6.817900
_cell_length_b	11.102210
_cell_length_c	10.773894
_cell_angle_alpha	95.422156
_cell_angle_beta	96.645922
_cell_angle_gamma	108.604261
loop_
_atom_site_label
_atom_site_type_symbol
_atom_site_fract_x
_atom_site_fract_y
_atom_site_fract_z
V1	V	-3.974352	-0.171168	-0.388941
O2	O	-3.936005	0.013031	-0.381540
O3	O	-3.952059	-0.344020	-0.386279
O4	O	-3.891309	-0.166427	-0.558573
O5	O	-3.997176	-0.165792	-0.208053
V6	V	-4.459086	-0.149385	-0.367306
O7	O	-4.232954	-0.218952	-0.436400
O8	O	-4.650682	-0.101602	-0.319847
O9	O	-4.258173	0.023467	-0.369969
O10	O	-4.614831	-0.333584	-0.374707
O11	O	-4.553660	-0.154762	-0.548195
O12	O	-4.318923	-0.154127	-0.197674
C13	C	-3.804532	-0.386223	-0.380142
C14	C	-3.867361	-0.527518	-0.379096
C15	C	-3.936057	-0.709901	-0.263402
C16	C	-3.877004	-0.577137	-0.264371
C17	C	-3.916756	-0.610671	-0.492858
C18	C	-3.975793	-0.743432	-0.491888
C19	C	-3.727038	-0.159684	-0.599920
C20	C	-3.740598	-0.156951	-0.738595
C21	C	-3.919388	-0.161687	-0.806457
C22	C	-3.933406	-0.158863	-0.949785
C23	C	-4.069044	0.065663	-0.376102
C24	C	-3.985452	0.206957	-0.377156
C25	C	-4.146538	-0.160874	-0.156321
C26	C	-4.112216	-0.163600	-0.017645
H27	H	-4.016008	-0.811130	-0.584526
C28	C	-3.740591	-0.150507	-1.014626
N29	N	-3.595360	-0.144197	-1.063463
H30	H	-3.597903	-0.150796	-0.786604
C31	C	-3.946655	-0.764468	-0.137194
N32	N	-3.954626	-0.805563	-0.042129
C33	C	-4.305011	-0.171907	-0.952799
N34	N	-4.450222	-0.178166	-0.903957
C35	C	-3.906143	-0.556085	-0.619057
N36	N	-3.898158	-0.514973	-0.714113
C37	C	-3.822670	-0.485685	-0.139232
N38	N	-3.781744	-0.416804	-0.044972
C39	C	-4.112162	-0.169984	-0.741602
N40	N	-4.257365	-0.176232	-0.692755
