data_functionalizedCrystal
_audit_creation_method	'MofGen! by Chris Wilmer'
_symmetry_space_group_name_H-M	'P1'
_symmetry_Int_Tables_number	1
_symmetry_cell_setting	triclinic
loop_
_symmetry_equiv_pos_as_xyz
  x,y,z
_cell_length_a	13.033293
_cell_length_b	12.759400
_cell_length_c	13.032268
_cell_angle_alpha	97.151488
_cell_angle_beta	89.079182
_cell_angle_gamma	97.183247
loop_
_atom_site_label
_atom_site_type_symbol
_atom_site_fract_x
_atom_site_fract_y
_atom_site_fract_z
Zn1	Zn	1.498485	-0.326864	-0.781500
Zn2	Zn	1.520239	-0.477844	-0.609535
Zn3	Zn	1.348345	-0.321315	-0.587675
Zn4	Zn	1.326493	-0.521641	-0.759577
O5	O	1.423390	-0.411916	-0.684572
O6	O	1.645289	-0.330884	-0.777011
O7	O	1.515686	-0.436429	-0.462725
O8	O	1.368303	-0.175028	-0.613413
O9	O	1.661271	-0.441809	-0.650669
O10	O	1.478610	-0.179105	-0.755815
O11	O	1.389396	-0.321428	-0.446665
O12	O	1.201529	-0.363896	-0.592155
O13	O	1.331059	-0.516455	-0.906395
O14	O	1.185474	-0.511075	-0.718451
O15	O	1.457421	-0.373352	-0.922501
O16	O	1.494496	-0.630677	-0.629412
O17	O	1.352152	-0.662854	-0.739647
C18	C	1.156185	-0.441637	-0.650553
C19	C	1.041870	-0.454381	-0.636023
C20	C	0.982985	-0.405292	-0.692154
C21	C	0.864834	-0.418461	-0.677139
C22	C	1.423339	-0.684887	-0.684548
C23	C	1.423406	-0.801660	-0.684585
C24	C	1.480803	-0.858576	-0.758783
C25	C	1.480848	-0.968298	-0.758815
C26	C	1.366096	-0.964178	-0.610440
C27	C	1.366047	-0.854459	-0.610414
C28	C	1.538163	-0.805777	-0.832955
C29	C	1.595566	-0.862693	-0.907158
C30	C	1.595610	-0.972416	-0.907189
C31	C	1.538252	-1.025222	-0.833017
C32	C	1.691639	-0.382080	-0.718724
C33	C	1.805951	-0.369366	-0.733278
C34	C	1.389376	-0.450408	-0.952805
C35	C	1.374880	-0.466811	-1.067111
C36	C	1.423468	-0.137879	-0.684621
C37	C	1.423501	-0.021101	-0.684642
C38	C	1.430940	-0.403319	-1.126041
C39	C	1.415960	-0.420271	-1.244181
C40	C	1.457332	-0.373492	-0.417389
C41	C	1.472026	-0.356771	-0.303110
H42	H	1.004814	-0.506155	-0.576850
C43	C	1.509578	-0.314045	-1.076548
C44	C	1.459136	-0.244410	-1.007453
C45	C	1.531548	-0.162167	-0.961834
H46	H	1.542849	-0.276289	-1.128723
H47	H	1.559640	-0.343253	-1.040278
H48	H	1.409092	-0.215205	-1.043722
H49	H	1.425870	-0.282134	-0.955259
H50	H	1.581610	-0.191374	-0.925563
H51	H	1.564815	-0.124419	-1.014016
H52	H	1.497335	-0.114915	-0.914941
C53	C	1.032342	-0.336066	-0.770927
C54	C	1.009128	-0.231769	-0.745411
C55	C	1.054584	-0.167966	-0.817949
H56	H	1.006079	-0.363270	-0.837826
H57	H	1.105198	-0.336316	-0.770528
H58	H	0.936287	-0.231523	-0.745821
H59	H	1.035392	-0.204533	-0.678524
H60	H	1.127440	-0.168216	-0.817549
H61	H	1.028318	-0.195179	-0.884843
H62	H	1.038848	-0.097191	-0.800641
C63	C	0.815516	-0.487347	-0.598069
C64	C	0.854431	-0.446819	-0.499638
C65	C	0.809011	-0.510239	-0.426774
H66	H	0.831146	-0.558185	-0.615077
H67	H	0.742670	-0.487004	-0.598394
H68	H	0.927261	-0.447174	-0.499316
H69	H	0.838802	-0.375989	-0.482598
H70	H	0.736166	-0.509896	-0.427099
H71	H	0.824645	-0.581074	-0.443791
H72	H	0.835402	-0.482745	-0.359979
C73	C	0.855189	-0.300418	-0.812335
C74	C	0.816233	-0.340919	-0.910757
C75	C	0.861556	-0.277426	-0.983606
H76	H	0.928032	-0.300691	-0.812084
H77	H	0.839497	-0.229598	-0.795245
H78	H	0.831933	-0.411720	-0.927843
H79	H	0.743395	-0.340644	-0.911041
H80	H	0.845863	-0.206606	-0.966516
H81	H	0.934397	-0.277703	-0.983346
H82	H	0.835124	-0.304890	-1.050392
C83	C	1.296006	-0.556054	-1.116249
C84	C	1.247173	-0.611328	-1.038984
C85	C	1.174497	-0.693539	-1.084207
H86	H	1.329944	-0.603530	-1.163147
H87	H	1.245878	-0.526843	-1.152427
H88	H	1.297293	-0.640539	-1.002823
H89	H	1.213215	-0.563882	-0.992081
H90	H	1.124369	-0.664328	-1.120385
H91	H	1.208444	-0.741007	-1.131104
H92	H	1.141349	-0.731046	-1.031789
C93	C	1.303940	-1.021688	-0.529962
C94	C	1.316292	-1.129952	-0.545849
C95	C	1.259062	-1.182959	-0.471721
H96	H	1.232883	-1.013721	-0.536082
H97	H	1.327813	-0.992179	-0.462775
H98	H	1.292414	-1.159452	-0.613019
H99	H	1.387336	-1.137951	-0.539720
H100	H	1.282935	-1.153450	-0.404535
H101	H	1.188009	-1.174984	-0.477847
H102	H	1.267442	-1.256419	-0.482485
H103	H	1.538135	-0.716435	-0.832936
H104	H	1.356864	-0.487176	-1.281187
C105	C	1.303700	-0.792835	-0.529743
C106	C	1.253503	-0.862549	-0.464773
C107	C	1.196063	-0.805818	-0.390443
H108	H	1.253782	-0.760679	-0.563211
H109	H	1.348715	-0.739224	-0.489909
H110	H	1.208492	-0.916140	-0.504601
H111	H	1.303397	-0.894707	-0.431280
H112	H	1.241077	-0.752207	-0.350610
H113	H	1.146150	-0.773665	-0.423921
H114	H	1.162005	-0.853108	-0.346346
C115	C	1.657809	-0.805166	-0.987571
C116	C	1.645509	-0.696890	-0.971649
C117	C	1.702842	-0.643864	-1.045698
H118	H	1.634010	-0.834599	-1.054788
H119	H	1.728854	-0.813197	-0.981371
H120	H	1.574479	-0.688866	-0.977858
H121	H	1.669314	-0.667427	-0.904447
H122	H	1.773888	-0.651895	-1.039499
H123	H	1.679038	-0.673305	-1.112910
H124	H	1.694513	-0.570392	-1.034900
C125	C	1.657845	-1.034110	-0.987911
C126	C	1.622481	-1.024475	-1.086777
C127	C	1.679802	-1.081278	-1.161163
H128	H	1.649708	-1.107046	-0.977458
H129	H	1.728861	-1.006224	-0.981769
H130	H	1.551483	-1.052365	-1.092916
H131	H	1.630621	-0.951552	-1.097264
H132	H	1.750818	-1.053392	-1.155021
H133	H	1.671660	-1.154211	-1.150700
H134	H	1.655822	-1.074740	-1.228252
H135	H	1.538280	-1.114568	-0.833059
H136	H	1.531110	-0.289854	-1.266104
