data_functionalizedCrystal
_audit_creation_method	'MofGen! by Chris Wilmer'
_symmetry_space_group_name_H-M	'P1'
_symmetry_Int_Tables_number	1
_symmetry_cell_setting	triclinic
loop_
_symmetry_equiv_pos_as_xyz
  x,y,z
_cell_length_a	14.971506
_cell_length_b	10.540510
_cell_length_c	14.048226
_cell_angle_alpha	89.996066
_cell_angle_beta	89.993237
_cell_angle_gamma	84.067849
loop_
_atom_site_label
_atom_site_type_symbol
_atom_site_fract_x
_atom_site_fract_y
_atom_site_fract_z
O1	O	1.187856	0.165548	-0.079162
O2	O	0.927568	0.185331	-0.079162
O3	O	1.063664	-0.009337	-0.079162
O4	O	1.051760	0.360215	-0.079162
O5	O	1.063648	-0.009348	0.079160
O6	O	0.927552	0.185319	0.079159
O7	O	1.187840	0.165536	0.079159
Zn8	Zn	1.057693	0.175426	0.104296
Zn9	Zn	1.057715	0.175441	-0.104299
O10	O	1.051743	0.360204	0.079159
C11	C	0.894231	0.184436	-0.000001
C12	C	0.794920	0.181771	-0.000001
C13	C	1.062769	-0.056636	-0.000003
C14	C	1.060115	-0.197556	-0.000009
C15	C	0.357217	0.285964	-0.000011
C16	C	0.450531	0.288458	-0.000015
C17	C	0.507115	0.174083	-0.000011
C18	C	0.470380	0.057207	-0.000012
C19	C	0.377068	0.054714	-0.000015
C20	C	0.664872	0.062411	-0.000004
C21	C	0.758191	0.064903	0.000000
C22	C	0.738335	0.296155	-0.000005
C23	C	0.645023	0.293662	-0.000007
C24	C	0.608295	0.176785	-0.000007
C25	C	1.154660	-0.416075	0.000354
C26	C	1.157491	-0.269511	-0.000008
C27	C	1.010277	-0.241748	-0.090416
C28	C	1.008136	-0.388484	-0.090487
C29	C	1.006089	-0.388283	0.089554
C30	C	1.010708	-0.241994	0.090744
C31	C	1.221177	0.166431	-0.000003
C32	C	1.320488	0.169096	-0.000010
C33	C	1.052639	0.407503	-0.000002
C34	C	1.055293	0.548423	-0.000002
N35	N	1.057685	0.175415	0.246657
N36	N	1.057730	0.175442	-0.246660
C37	C	1.117967	0.089252	0.296475
C38	C	1.117973	0.089251	0.396133
C39	C	1.057700	0.175420	0.445971
C40	C	0.997411	0.261588	0.396145
C41	C	0.997402	0.261581	0.296490
C42	C	0.997437	0.261597	0.603860
C43	C	0.997448	0.261605	0.703522
C44	C	1.118009	0.089267	0.703503
C45	C	1.117999	0.089260	0.603847
C46	C	1.057711	0.175429	0.554029
H47	H	0.480430	0.383623	-0.000026
N48	N	1.209130	-0.231240	0.085849
H49	H	1.272377	-0.274992	0.083511
H50	H	1.211009	-0.135735	0.085743
N51	N	1.209458	-0.232470	-0.086007
H52	H	1.179012	-0.259257	-0.145812
H53	H	1.211511	-0.137001	-0.086523
H54	H	1.192385	-0.460000	-0.064115
N55	N	1.058732	-0.204638	0.179344
H56	H	1.112269	-0.159116	0.160784
H57	H	1.016313	-0.146138	0.219452
H58	H	1.044901	-0.211275	-0.157697
H59	H	0.948341	0.331761	0.563301
H60	H	1.192590	-0.458461	0.065190
N61	N	0.819222	-0.058456	0.000002
H62	H	0.807336	-0.109430	-0.058693
H63	H	0.883881	-0.039029	0.000044
H64	H	1.167052	0.019088	0.255904
H65	H	1.167059	0.019090	0.436694
N66	N	1.053281	-0.442266	-0.179995
H67	H	1.106504	-0.504682	-0.162464
H68	H	1.009145	-0.487460	-0.218413
H69	H	0.598953	0.386796	-0.000005
N70	N	1.183009	-0.003680	0.550098
H71	H	1.148473	-0.059969	0.508763
H72	H	1.222895	0.045018	0.508792
H73	H	1.037027	-0.430818	0.158083
N74	N	0.916522	-0.175988	0.097964
H75	H	0.904492	-0.116074	0.042260
H76	H	0.872090	-0.241848	0.097183
N77	N	0.909245	-0.416526	0.090369
H78	H	0.897263	-0.470051	0.033040
H79	H	0.896996	-0.464564	0.150387
N80	N	0.932408	0.354536	0.449897
H81	H	0.894217	0.409118	0.403212
H82	H	0.892567	0.305846	0.491262
N83	N	0.932378	0.354507	0.242752
H84	H	0.894197	0.409097	0.289444
H85	H	0.966963	0.410710	0.201387
N86	N	0.911669	-0.417874	-0.095935
H87	H	0.870722	-0.335539	-0.098284
H88	H	0.902875	-0.469382	-0.155195
N89	N	1.183038	-0.003673	0.757228
H90	H	1.173898	0.009400	0.827922
H91	H	1.172145	-0.093753	0.739817
N92	N	0.932448	0.354538	0.757291
H93	H	0.943307	0.444659	0.739938
H94	H	0.868899	0.339651	0.739958
N95	N	0.296190	0.409326	0.000014
H96	H	0.333620	0.483739	0.000018
H97	H	0.257038	0.413351	-0.058671
N98	N	0.777941	0.422218	-0.000001
H99	H	0.845640	0.406446	-0.000003
H100	H	0.757301	0.472280	-0.058691
H101	H	0.516459	-0.035919	-0.000014
N102	N	0.625256	-0.063646	-0.000009
H103	H	0.675259	-0.135725	-0.000003
H104	H	0.586964	-0.069716	0.058681
H105	H	0.938590	-0.193552	-0.093778
H106	H	0.347166	-0.040451	-0.000015
