data_functionalizedCrystal
_audit_creation_method	'MofGen! by Chris Wilmer'
_symmetry_space_group_name_H-M	'P1'
_symmetry_Int_Tables_number	1
_symmetry_cell_setting	triclinic
loop_
_symmetry_equiv_pos_as_xyz
  x,y,z
_cell_length_a	21.295417
_cell_length_b	16.625548
_cell_length_c	16.625539
_cell_angle_alpha	90.020568
_cell_angle_beta	89.966627
_cell_angle_gamma	89.968425
loop_
_atom_site_label
_atom_site_type_symbol
_atom_site_fract_x
_atom_site_fract_y
_atom_site_fract_z
Zn1	Zn	-0.250590	-1.232635	-0.455881
Zn2	Zn	0.249410	-0.732635	0.044119
Zn3	Zn	-0.355864	-1.232520	-0.321036
Zn4	Zn	0.144136	-0.732520	0.178964
Zn5	Zn	-0.250614	-1.097797	-0.321061
Zn6	Zn	0.249386	-0.597797	0.178939
Zn7	Zn	-0.355827	-1.097749	-0.455826
Zn8	Zn	0.144173	-0.597749	0.044174
O9	O	-0.303224	-1.165175	-0.388451
O10	O	0.196776	-0.665175	0.111549
O11	O	-0.264560	-1.345452	-0.438006
O12	O	0.235440	-0.845452	0.061994
O13	O	-0.341927	-1.214620	-0.208207
O14	O	0.158073	-0.714620	0.291793
O15	O	-0.162522	-1.115753	-0.338979
O16	O	0.337478	-0.615753	0.161021
O17	O	-0.341904	-1.345367	-0.338936
O18	O	0.158096	-0.845367	0.161064
O19	O	-0.162504	-1.214818	-0.438030
O20	O	0.337496	-0.714818	0.061970
O21	O	-0.264601	-1.115640	-0.208226
O22	O	0.235399	-0.615640	0.291774
O23	O	-0.264566	-0.984958	-0.338926
O24	O	0.235434	-0.484958	0.161074
O25	O	-0.341842	-1.115670	-0.568666
O26	O	0.158158	-0.615670	-0.068666
O27	O	-0.341866	-0.984923	-0.437937
O28	O	0.158134	-0.484923	0.062063
O29	O	-0.264525	-1.214771	-0.568706
O30	O	0.235475	-0.714771	-0.068706
O31	O	-0.443948	-1.214573	-0.338883
O32	O	0.056052	-0.714573	0.161117
O33	O	-0.443922	-1.115558	-0.437912
O34	O	0.056078	-0.615558	0.062088
C35	C	-0.303215	-0.955684	-0.388429
C36	C	0.196785	-0.455684	0.111571
C37	C	-0.303226	-0.866063	-0.388438
C38	C	0.196774	-0.366063	0.111562
C39	C	-0.466775	-1.165070	-0.388407
C40	C	0.033225	-0.665070	0.111593
C41	C	-0.536744	-1.165098	-0.388414
C42	C	-0.036744	-0.665098	0.111586
C43	C	-0.303177	-1.165228	-0.598760
C44	C	0.196823	-0.665228	-0.098760
C45	C	-0.303157	-1.165250	-0.688381
C46	C	0.196843	-0.665250	-0.188381
C47	C	-0.569603	-1.216701	-0.336903
C48	C	-0.069603	-0.716701	0.163097
C49	C	-0.635346	-1.216739	-0.336921
C50	C	-0.135346	-0.716739	0.163079
C51	C	-0.668226	-1.165159	-0.388442
C52	C	-0.168226	-0.665159	0.111558
C53	C	-0.635359	-1.113552	-0.439964
C54	C	-0.135359	-0.613552	0.060036
C55	C	-0.569617	-1.113522	-0.439950
C56	C	-0.069617	-0.613522	0.060050
N57	N	-0.771493	-1.094624	-0.394581
N58	N	-0.271493	-0.594624	0.105419
N59	N	-0.833944	-1.094656	-0.394590
N60	N	-0.333944	-0.594656	0.105410
C61	C	-0.866301	-1.165250	-0.388488
C62	C	-0.366301	-0.665250	0.111512
N63	N	-0.833847	-1.235813	-0.382362
N64	N	-0.333847	-0.735813	0.117638
N65	N	-0.771389	-1.235780	-0.382350
N66	N	-0.271389	-0.735780	0.117650
C67	C	-0.739511	-1.165187	-0.388463
C68	C	-0.239511	-0.665187	0.111537
C69	C	-0.970446	-1.216898	-0.336994
C70	C	-0.470446	-0.716898	0.163006
C71	C	-1.036189	-1.216937	-0.337017
C72	C	-0.536189	-0.716937	0.162983
C73	C	-1.036201	-1.113743	-0.440056
C74	C	-0.536201	-0.613743	0.059944
C75	C	-0.970459	-1.113711	-0.440037
C76	C	-0.470459	-0.613711	0.059963
C77	C	-0.937585	-1.165288	-0.388501
C78	C	-0.437585	-0.665288	0.111499
C79	C	-0.139033	-1.165303	-0.388514
C80	C	0.360967	-0.665303	0.111486
C81	C	-0.069065	-1.165358	-0.388540
C82	C	0.430935	-0.665358	0.111460
C83	C	-0.303233	-1.375484	-0.388474
C84	C	0.196767	-0.875484	0.111526
C85	C	-0.303237	-1.465105	-0.388484
C86	C	0.196763	-0.965105	0.111516
C87	C	-0.303230	-0.537888	-0.388473
C88	C	0.196770	-0.037888	0.111527
C89	C	-0.303227	-0.629196	-0.388460
C90	C	0.196773	-0.129196	0.111540
C91	C	-0.303229	-0.701973	-0.388455
C92	C	0.196771	-0.201973	0.111545
C93	C	-0.303225	-0.793287	-0.388444
C94	C	0.196775	-0.293287	0.111556
C95	C	-0.303086	-1.165287	-1.016557
C96	C	0.196914	-0.665287	-0.516557
C97	C	-0.303108	-1.165275	-0.925249
C98	C	0.196892	-0.665275	-0.425249
C99	C	-0.303122	-1.165269	-0.852472
C100	C	0.196878	-0.665269	-0.352472
C101	C	-0.303143	-1.165256	-0.761158
C102	C	0.196857	-0.665256	-0.261158
C103	C	-0.303225	-1.165169	-0.178960
C104	C	0.196775	-0.665169	0.321040
C105	C	-0.303068	-1.165303	-0.089340
C106	C	0.196932	-0.665303	0.410660
H107	H	-0.542839	-1.258700	-0.294941
H108	H	-0.042839	-0.758700	0.205059
N109	N	-0.670798	-1.272400	-0.281361
N110	N	-0.170798	-0.772400	0.218639
H111	H	-0.639997	-1.305069	-0.248713
H112	H	-0.139997	-0.805069	0.251287
H113	H	-0.698119	-1.239606	-0.244027
H114	H	-0.198119	-0.739606	0.255973
H115	H	-1.062972	-1.071750	-0.482010
H116	H	-0.562972	-0.571750	0.017990
N117	N	-1.071637	-1.272598	-0.281458
N118	N	-0.571637	-0.772598	0.218542
H119	H	-1.060146	-1.330196	-0.294024
H120	H	-0.560146	-0.830196	0.205976
H121	H	-1.060228	-1.260026	-0.223856
H122	H	-0.560228	-0.760026	0.276144
N123	N	-0.534177	-1.057852	-0.495507
N124	N	-0.034177	-0.557852	0.004493
H125	H	-0.506949	-1.020492	-0.462696
H126	H	-0.006949	-0.520492	0.037304
H127	H	-0.506889	-1.090639	-0.532886
H128	H	-0.006889	-0.590639	-0.032886
N129	N	-0.934979	-1.272526	-0.281421
N130	N	-0.434979	-0.772526	0.218579
H131	H	-0.946464	-1.260045	-0.223801
H132	H	-0.446464	-0.760045	0.276199
H133	H	-0.946380	-1.330114	-0.294069
H134	H	-0.446380	-0.830114	0.205931
N135	N	-0.670818	-1.057921	-0.495537
N136	N	-0.170818	-0.557921	0.004463
H137	H	-0.717451	-1.065769	-0.487728
H138	H	-0.217451	-0.565769	0.012272
H139	H	-0.659373	-1.000338	-0.482933
H140	H	-0.159373	-0.500338	0.017067
N141	N	-0.935012	-1.058047	-0.495591
N142	N	-0.435012	-0.558047	0.004409
H143	H	-0.965816	-1.025375	-0.528232
H144	H	-0.465816	-0.525375	-0.028232
H145	H	-0.907783	-1.020740	-0.462726
H146	H	-0.407783	-0.520740	0.037274
