data_functionalizedCrystal
_audit_creation_method	'MofGen! by Chris Wilmer'
_symmetry_space_group_name_H-M	'P1'
_symmetry_Int_Tables_number	1
_symmetry_cell_setting	triclinic
loop_
_symmetry_equiv_pos_as_xyz
  x,y,z
_cell_length_a	16.109301
_cell_length_b	11.792241
_cell_length_c	15.186229
_cell_angle_alpha	89.996105
_cell_angle_beta	89.999362
_cell_angle_gamma	83.827448
loop_
_atom_site_label
_atom_site_type_symbol
_atom_site_fract_x
_atom_site_fract_y
_atom_site_fract_z
O1	O	1.103817	0.145885	-0.073173
O2	O	1.603817	0.645885	0.426827
O3	O	0.861841	0.164040	-0.073187
O4	O	1.361841	0.664040	0.426813
O5	O	0.988701	-0.010259	-0.073174
O6	O	1.488701	0.489741	0.426826
O7	O	0.976957	0.320185	-0.073187
O8	O	1.476957	0.820185	0.426813
O9	O	0.988692	-0.010262	0.073284
O10	O	1.488692	0.489738	0.573284
O11	O	0.861832	0.164038	0.073270
O12	O	1.361832	0.664038	0.573270
O13	O	1.103809	0.145883	0.073284
O14	O	1.603809	0.645883	0.573284
Zn15	Zn	0.982819	0.154960	0.096530
Zn16	Zn	1.482819	0.654960	0.596530
Zn17	Zn	0.982830	0.154963	-0.096433
Zn18	Zn	1.482830	0.654963	0.403567
O19	O	0.976948	0.320182	0.073271
O20	O	1.476948	0.820182	0.573271
C21	C	0.830858	0.163304	0.000040
C22	C	1.330858	0.663304	0.500040
C23	C	0.738552	0.161099	0.000034
C24	C	1.238552	0.661099	0.500034
C25	C	0.987959	-0.052545	0.000055
C26	C	1.487959	0.447455	0.500055
C27	C	0.985751	-0.178539	0.000054
C28	C	1.485751	0.321461	0.500054
C29	C	0.516743	0.259398	0.000041
C30	C	1.016743	0.759398	0.500041
C31	C	0.430012	0.257318	0.000047
C32	C	0.930012	0.757318	0.500047
C33	C	0.448914	0.050517	0.000051
C34	C	0.948914	0.550517	0.500051
C35	C	0.535642	0.052599	0.000052
C36	C	1.035642	0.552599	0.500052
C37	C	0.569554	0.157043	0.000042
C38	C	1.069554	0.657043	0.500042
C39	C	0.396095	0.152880	0.000047
C40	C	0.896095	0.652880	0.500047
C41	C	0.302059	0.150624	0.000053
C42	C	0.802059	0.650624	0.500053
C43	C	0.663597	0.159300	0.000037
C44	C	1.163597	0.659300	0.500037
C45	C	0.981691	-0.409216	0.000039
C46	C	1.481691	0.090784	0.500039
C47	C	0.983947	-0.280850	0.000047
C48	C	1.483947	0.219150	0.500047
C49	C	1.134791	0.146619	0.000055
C50	C	1.634791	0.646619	0.500055
C51	C	1.227097	0.148824	0.000055
C52	C	1.727097	0.648824	0.500055
C53	C	0.977690	0.362468	0.000040
C54	C	1.477690	0.862468	0.500040
C55	C	0.979898	0.488462	0.000035
C56	C	1.479898	0.988462	0.500035
N57	N	0.982817	0.154957	0.228223
N58	N	1.482817	0.654957	0.728223
N59	N	0.982838	0.154957	-0.228126
N60	N	1.482838	0.654957	0.271874
C61	C	1.039011	0.077803	0.453952
C62	C	1.539011	0.577803	0.953952
C63	C	1.039013	0.077800	0.546141
C64	C	1.539013	0.577800	1.046141
C65	C	0.926639	0.232115	0.546139
C66	C	1.426639	0.732115	1.046139
C67	C	0.926633	0.232111	0.453951
C68	C	1.426633	0.732111	0.953951
C69	C	0.982824	0.154957	0.407860
C70	C	1.482824	0.654957	0.907860
C71	C	0.982832	0.154958	0.592237
C72	C	1.482832	0.654958	1.092237
C73	C	0.982835	0.154955	0.692193
C74	C	1.482835	0.654955	1.192193
C75	C	0.982820	0.154957	0.307897
C76	C	1.482820	0.654957	0.807897
H77	H	0.544351	0.344443	0.000040
H78	H	1.044351	0.844443	0.500040
H79	H	0.421291	-0.034518	0.000064
H80	H	0.921291	0.465482	0.500064
H81	H	1.084763	0.014978	0.416427
H82	H	1.584763	0.514978	0.916427
O83	O	0.866029	0.315324	0.404221
O84	O	1.366029	0.815324	0.904221
H85	H	0.877021	0.403812	0.421892
H86	H	1.377021	0.903812	0.921892
H87	H	0.387016	0.340666	0.000047
H88	H	0.887016	0.840666	0.500047
O89	O	0.592613	-0.057803	0.000055
O90	O	1.092613	0.442197	0.500055
H91	H	0.554463	-0.130779	0.000049
H92	H	1.054463	0.369221	0.500049
O93	O	1.099625	-0.005400	0.595859
O94	O	1.599625	0.494600	1.095859
H95	H	1.138700	-0.059038	0.548318
H96	H	1.638700	0.440962	1.048318
O97	O	0.866045	0.315343	0.595849
O98	O	1.366045	0.815343	1.095849
H99	H	0.875494	0.302395	0.667698
H100	H	1.375494	0.802395	1.167698
