data_functionalizedCrystal
_audit_creation_method	'MofGen! by Chris Wilmer'
_symmetry_space_group_name_H-M	'P1'
_symmetry_Int_Tables_number	1
_symmetry_cell_setting	triclinic
loop_
_symmetry_equiv_pos_as_xyz
  x,y,z
_cell_length_a	10.654550
_cell_length_b	15.944551
_cell_length_c	9.730223
_cell_angle_alpha	89.994648
_cell_angle_beta	89.999957
_cell_angle_gamma	83.991834
loop_
_atom_site_label
_atom_site_type_symbol
_atom_site_fract_x
_atom_site_fract_y
_atom_site_fract_z
O1	O	1.666313	0.117976	-0.114191
O2	O	1.300689	0.129216	-0.114216
O3	O	1.493485	0.001379	-0.114190
O4	O	1.473516	0.245813	-0.114216
O5	O	1.493473	0.001376	0.114390
O6	O	1.300676	0.129213	0.114364
O7	O	1.666300	0.117973	0.114389
Zn8	Zn	1.483486	0.123592	0.150669
Zn9	Zn	1.483503	0.123597	-0.150495
O10	O	1.473504	0.245810	0.114363
C11	C	1.253895	0.128389	0.000071
C12	C	1.114484	0.125920	0.000061
C13	C	1.034024	0.201189	0.000057
C14	C	0.903034	0.198863	0.000081
C15	C	0.932975	0.045995	0.000108
C16	C	1.063963	0.048321	0.000094
C17	C	1.492650	-0.029921	0.000100
C18	C	1.490165	-0.123182	0.000100
C19	C	1.364720	-0.338764	0.000073
C20	C	1.422966	-0.399446	0.112781
C21	C	1.485668	-0.293933	0.000090
C22	C	1.423007	-0.399426	-0.112581
C23	C	1.481317	-0.458871	0.000073
C24	C	1.543948	-0.353387	0.112890
C25	C	1.543972	-0.353360	-0.112573
C26	C	1.602306	-0.414024	0.000163
C27	C	1.488172	-0.198917	0.000100
C28	C	1.478822	-0.553887	0.000072
C29	C	1.713094	0.118800	0.000099
C30	C	1.852505	0.121269	0.000100
C31	C	1.474339	0.277110	0.000070
C32	C	1.476824	0.370371	0.000061
N33	N	1.483484	0.123589	0.356205
N34	N	1.483514	0.123594	-0.356032
C35	C	1.568883	0.067007	0.428142
C36	C	1.568896	0.067007	0.572025
C37	C	1.398106	0.180179	0.572021
C38	C	1.398089	0.180174	0.428140
H39	H	0.837528	0.260155	0.000081
H40	H	1.371805	-0.419852	0.208059
C41	C	1.596041	-0.047179	0.266439
C42	C	1.662707	0.004764	0.349103
H43	H	1.653957	-0.085615	0.217652
H44	H	1.543754	-0.077673	0.322611
H45	H	1.545217	-0.013473	0.202975
H46	H	1.713525	-0.028942	0.412573
H47	H	1.715017	0.035260	0.292926
C48	C	1.596177	-0.047141	0.733839
C49	C	1.662771	0.004810	0.651097
H50	H	1.654136	-0.085544	0.782646
H51	H	1.545341	-0.013442	0.797272
H52	H	1.543906	-0.077680	0.677707
H53	H	1.715036	0.035354	0.707231
H54	H	1.713630	-0.028892	0.587658
C55	C	1.229555	-0.388578	-0.240992
C56	C	1.353937	-0.426938	-0.241216
H57	H	1.186914	-0.405556	-0.320407
H58	H	1.187415	-0.405128	-0.160977
H59	H	1.229986	-0.329031	-0.241465
H60	H	1.353506	-0.486485	-0.240734
H61	H	1.396088	-0.410393	-0.321253
C62	C	1.614581	-0.238316	0.240543
C63	C	1.612936	-0.326011	0.241672
H64	H	1.657162	-0.221415	0.320052
H65	H	1.657262	-0.222179	0.160624
H66	H	1.530432	-0.211881	0.240211
H67	H	1.697086	-0.352445	0.241993
H68	H	1.570258	-0.342156	0.321612
H69	H	1.075154	0.264375	0.000041
C70	C	0.745472	-0.025448	0.000128
C71	C	0.877437	-0.039299	0.000126
H72	H	0.711191	-0.078108	0.000127
H73	H	0.717868	0.005568	0.079832
H74	H	0.717863	0.005578	-0.079591
H75	H	0.905047	-0.070320	0.079849
H76	H	0.905053	-0.070329	-0.079587
C77	C	1.227234	0.197346	0.733864
C78	C	1.304254	0.242379	0.651104
H79	H	1.169301	0.235750	0.782690
H80	H	1.182057	0.162108	0.677752
H81	H	1.278115	0.163651	0.797292
H82	H	1.253374	0.276070	0.587669
H83	H	1.349435	0.277633	0.707221
C84	C	1.232909	-0.207057	-0.001019
C85	C	1.229198	-0.294579	0.000195
H86	H	1.149245	-0.179781	-0.000950
H87	H	1.276283	-0.190637	0.078234
H88	H	1.275700	-0.191397	-0.081182
H89	H	1.186415	-0.310240	0.080363
H90	H	1.185805	-0.311006	-0.079066
H91	H	1.129477	-0.012976	0.000101
C92	C	1.229274	0.292051	0.442577
C93	C	1.304214	0.242376	0.349056
H94	H	1.171327	0.330451	0.393750
H95	H	1.184112	0.256809	0.498709
H96	H	1.281563	0.322594	0.498681
H97	H	1.251925	0.211829	0.292958
H98	H	1.349379	0.277623	0.292900
H99	H	1.595089	-0.332933	-0.207856
C100	C	1.800950	-0.434778	0.118359
C101	C	1.737944	-0.458013	0.000254
H102	H	1.884682	-0.461941	0.118422
H103	H	1.803251	-0.375390	0.119106
H104	H	1.757654	-0.451259	0.197648
H105	H	1.781235	-0.441527	-0.079035
H106	H	1.735650	-0.517414	-0.000505
