data_functionalizedCrystal
_audit_creation_method	'MofGen! by Chris Wilmer'
_symmetry_space_group_name_H-M	'P1'
_symmetry_Int_Tables_number	1
_symmetry_cell_setting	triclinic
loop_
_symmetry_equiv_pos_as_xyz
  x,y,z
_cell_length_a	9.065215
_cell_length_b	11.792241
_cell_length_c	7.540329
_cell_angle_alpha	89.996256
_cell_angle_beta	89.997574
_cell_angle_gamma	84.604057
loop_
_atom_site_label
_atom_site_type_symbol
_atom_site_fract_x
_atom_site_fract_y
_atom_site_fract_z
O1	O	1.958841	0.166414	-0.147463
O2	O	2.458841	0.666414	0.352537
O3	O	1.529428	0.180069	-0.147471
O4	O	2.029428	0.680069	0.352529
O5	O	1.754555	0.008129	-0.147454
O6	O	2.254555	0.508129	0.352546
O7	O	1.733714	0.338354	-0.147480
O8	O	2.233714	0.838354	0.352520
O9	O	1.754542	0.008127	0.147511
O10	O	2.254542	0.508127	0.647511
O11	O	1.529414	0.180067	0.147494
O12	O	2.029414	0.680067	0.647494
O13	O	1.958828	0.166412	0.147502
O14	O	2.458828	0.666412	0.647502
Cu15	Cu	1.744120	0.173239	0.174431
Cu16	Cu	2.244120	0.673239	0.674431
Cu17	Cu	1.744136	0.173242	-0.174400
Cu18	Cu	2.244136	0.673242	0.325600
O19	O	1.733700	0.338352	0.147486
O20	O	2.233700	0.838352	0.647486
C21	C	1.474447	0.178756	0.000011
C22	C	1.974447	0.678756	0.500011
C23	C	1.310640	0.174835	0.000008
C24	C	1.810640	0.674835	0.500008
C25	C	1.753239	-0.034171	0.000028
C26	C	2.253239	0.465829	0.500028
C27	C	1.749321	-0.160206	0.000026
C28	C	2.249321	0.339794	0.500026
C29	C	1.742116	-0.390958	-0.000004
C30	C	2.242116	0.109042	0.499996
C31	C	1.746119	-0.262551	0.000012
C32	C	2.246119	0.237449	0.500012
C33	C	2.013809	0.167725	0.000017
C34	C	2.513809	0.667725	0.500017
C35	C	2.177615	0.171646	0.000008
C36	C	2.677615	0.671646	0.500008
C37	C	1.735016	0.380652	-0.000000
C38	C	2.235016	0.880652	0.500000
C39	C	1.738935	0.506687	-0.000010
C40	C	2.238935	1.006687	0.499990
N41	N	1.744119	0.173237	0.419779
N42	N	2.244119	0.673237	0.919779
N43	N	1.744148	0.173235	-0.419748
N44	N	2.244148	0.673235	0.080252
