data_functionalizedCrystal
_audit_creation_method	'MofGen! by Chris Wilmer'
_symmetry_space_group_name_H-M	'P1'
_symmetry_Int_Tables_number	1
_symmetry_cell_setting	triclinic
loop_
_symmetry_equiv_pos_as_xyz
  x,y,z
_cell_length_a	16.992701
_cell_length_b	16.974813
_cell_length_c	15.186229
_cell_angle_alpha	86.341696
_cell_angle_beta	89.996535
_cell_angle_gamma	87.023742
loop_
_atom_site_label
_atom_site_type_symbol
_atom_site_fract_x
_atom_site_fract_y
_atom_site_fract_z
O1	O	1.040210	0.167638	-0.085179
O2	O	0.811926	0.165801	-0.085048
O3	O	0.932432	0.052019	-0.076936
O4	O	0.919704	0.281421	-0.093292
O5	O	0.932424	0.052016	0.069522
O6	O	0.811918	0.165799	0.061409
O7	O	1.040202	0.167636	0.061278
Zn8	Zn	0.926059	0.166717	0.084597
Zn9	Zn	0.926069	0.166720	-0.108367
O10	O	0.919696	0.281419	0.053166
C11	C	0.782712	0.163434	-0.011651
C12	C	0.695676	0.156376	-0.011148
C13	C	0.206767	0.108947	-0.007770
C14	C	0.288546	0.115585	-0.008238
C15	C	0.320009	0.190340	-0.013572
C16	C	0.269688	0.258460	-0.018429
C17	C	0.187910	0.251821	-0.017955
C18	C	0.563576	0.217857	-0.015531
C19	C	0.645361	0.224491	-0.016008
C20	C	0.664214	0.081615	-0.005815
C21	C	0.582434	0.074982	-0.005346
C22	C	0.532119	0.143103	-0.010199
N23	N	0.403600	0.197127	-0.014053
N24	N	0.448530	0.136315	-0.009711
C25	C	0.931944	0.022528	-0.001606
C26	C	0.930492	-0.065340	0.004653
C27	C	0.929816	-0.106615	-0.072240
C28	C	0.928446	-0.189177	-0.066356
C29	C	0.927758	-0.230462	0.016422
C30	C	0.928432	-0.189181	0.093320
C31	C	0.929796	-0.106621	0.087435
C32	C	0.923674	-0.477381	0.042583
C33	C	0.922312	-0.559947	0.048462
C34	C	0.922325	-0.559937	-0.111215
C35	C	0.923693	-0.477376	-0.117092
C36	C	0.924363	-0.436102	-0.040194
N37	N	0.926361	-0.314853	0.022438
N38	N	0.925755	-0.351711	-0.046211
C39	C	1.069416	0.170003	-0.012121
C40	C	1.156452	0.177062	-0.012629
C41	C	0.920184	0.310909	-0.022166
C42	C	0.921636	0.398778	-0.028431
N43	N	0.926057	0.166715	0.216290
N44	N	0.926077	0.166717	-0.240059
C45	C	0.979435	0.116351	0.445604
C46	C	0.979438	0.116350	0.537793
C47	C	0.872693	0.217082	0.530620
C48	C	0.872688	0.217080	0.438432
C49	C	0.926063	0.166715	0.395926
C50	C	0.926071	0.166716	0.580304
C51	C	0.926073	0.166715	0.680260
C52	C	0.926060	0.166715	0.295964
H53	H	0.329510	0.060118	-0.004277
H54	H	0.295311	0.319327	-0.022767
Cl55	Cl	0.805599	0.280398	0.584060
Cl56	Cl	0.921452	-0.611848	0.152533
Cl57	Cl	0.927558	-0.241082	0.197384
Cl58	Cl	0.805582	0.280395	0.375975
H59	H	0.181157	0.048074	-0.003432
Cl60	Cl	0.924503	-0.425504	0.139256
Cl61	Cl	0.542887	-0.018999	0.001328
Cl62	Cl	1.046533	0.053033	0.392172
Cl63	Cl	1.046535	0.053031	0.600243
Cl64	Cl	0.727470	-0.004016	0.000292
H65	H	0.670974	0.285368	-0.020339
H66	H	0.522620	0.273325	-0.019487
H67	H	0.146943	0.307288	-0.021909
H68	H	0.927899	-0.222779	-0.128970
Cl69	Cl	0.930685	-0.054722	-0.176309
H70	H	0.921778	-0.593551	-0.173821
Cl71	Cl	0.924560	-0.425480	-0.221160
H72	H	0.930335	-0.073015	0.150050
