data_functionalizedCrystal
_audit_creation_method	'MofGen! by Chris Wilmer'
_symmetry_space_group_name_H-M	'P1'
_symmetry_Int_Tables_number	1
_symmetry_cell_setting	triclinic
loop_
_symmetry_equiv_pos_as_xyz
  x,y,z
_cell_length_a	14.044191
_cell_length_b	14.044190
_cell_length_c	14.048226
_cell_angle_alpha	89.988942
_cell_angle_beta	89.996146
_cell_angle_gamma	93.191777
loop_
_atom_site_label
_atom_site_type_symbol
_atom_site_fract_x
_atom_site_fract_y
_atom_site_fract_z
O1	O	1.277181	0.230203	-0.079134
O2	O	1.777181	0.730203	0.420866
O3	O	1.000508	0.221890	-0.079146
O4	O	1.500508	0.721890	0.420854
O5	O	1.134688	0.087710	-0.079121
O6	O	1.634688	0.587710	0.420879
O7	O	1.143001	0.364383	-0.079159
O8	O	1.643001	0.864383	0.420841
O9	O	1.134670	0.087700	0.079200
O10	O	1.634670	0.587700	0.579200
O11	O	1.000490	0.221880	0.079176
O12	O	1.500490	0.721880	0.579176
O13	O	1.277163	0.230193	0.079187
O14	O	1.777163	0.730193	0.579187
Zn15	Zn	1.138823	0.226035	0.104318
Zn16	Zn	1.638823	0.726035	0.604318
Zn17	Zn	1.138848	0.226048	-0.104277
Zn18	Zn	1.638848	0.726048	0.395723
O19	O	1.142983	0.364373	0.079163
O20	O	1.642983	0.864373	0.579163
C21	C	0.964877	0.218249	0.000014
C22	C	1.464877	0.718249	0.500014
C23	C	0.858734	0.207401	0.000010
C24	C	1.358734	0.707401	0.500010
C25	C	0.613277	0.264502	0.000012
C26	C	1.113277	0.764502	0.500012
C27	C	0.664400	0.187585	0.000021
C28	C	1.164400	0.687585	0.500021
C29	C	0.772537	0.198614	0.000015
C30	C	1.272537	0.698614	0.500015
C31	C	0.505130	0.253475	0.000018
C32	C	1.005130	0.753475	0.500018
C33	C	1.131043	0.052083	0.000042
C34	C	1.631043	0.552083	0.500042
C35	C	1.120195	-0.054060	0.000050
C36	C	1.620195	0.445940	0.500050
C37	C	1.177296	-0.299517	0.000015
C38	C	1.677296	0.200483	0.500015
C39	C	1.100379	-0.248394	0.000018
C40	C	1.600379	0.251606	0.500018
C41	C	1.111408	-0.140257	0.000036
C42	C	1.611408	0.359743	0.500036
C43	C	1.166269	-0.407664	-0.000003
C44	C	1.666269	0.092336	0.499997
C45	C	1.312794	0.233834	0.000025
C46	C	1.812794	0.733834	0.500025
C47	C	1.418937	0.244682	0.000023
C48	C	1.918937	0.744682	0.500023
C49	C	1.146628	0.400000	-0.000003
C50	C	1.646628	0.900000	0.499997
C51	C	1.157476	0.506143	-0.000017
C52	C	1.657476	1.006143	0.499983
N53	N	1.138814	0.226026	0.246679
N54	N	1.638814	0.726026	0.746679
N55	N	1.138864	0.226050	-0.246638
N56	N	1.638864	0.726050	0.253362
C57	C	1.198251	0.166639	0.296508
C58	C	1.698251	0.666639	0.796508
C59	C	1.198258	0.166639	0.396165
C60	C	1.698258	0.666639	0.896165
C61	C	1.138831	0.226031	0.445992
C62	C	1.638831	0.726031	0.945992
C63	C	1.079387	0.285420	0.396157
C64	C	1.579387	0.785420	0.896157
C65	C	1.079376	0.285415	0.296501
C66	C	1.579376	0.785415	0.796501
C67	C	1.079415	0.285430	0.603871
C68	C	1.579415	0.785430	1.103871
C69	C	1.079427	0.285437	0.703534
C70	C	1.579427	0.785437	1.203534
C71	C	1.198297	0.166654	0.703535
C72	C	1.698297	0.666654	1.203535
C73	C	1.198286	0.166649	0.603880
C74	C	1.698286	0.666649	1.103880
C75	C	1.138843	0.226039	0.554051
C76	C	1.638843	0.726039	1.054051
H77	H	1.026247	-0.285839	0.000010
H78	H	1.526247	0.214161	0.500010
H79	H	1.031006	0.333788	0.563304
H80	H	1.531006	0.833788	1.063304
H81	H	1.246697	0.118297	0.744112
H82	H	1.746697	0.618297	1.244112
N83	N	0.662867	0.362695	-0.000007
N84	N	1.162867	0.862695	0.499993
H85	H	0.734206	0.356753	-0.000012
H86	H	1.234206	0.856753	0.499988
H87	H	0.643739	0.398505	-0.058707
H88	H	1.143739	0.898505	0.441293
N89	N	1.275489	-0.249927	0.000045
N90	N	1.775489	0.250073	0.500045
H91	H	1.269546	-0.178588	0.000064
H92	H	1.769546	0.321412	0.500064
H93	H	1.311277	-0.269083	0.058745
H94	H	1.811277	0.230917	0.558745
H95	H	1.246648	0.118280	0.255945
H96	H	1.746648	0.618280	0.755945
N97	N	1.015342	0.349503	0.757279
N98	N	1.515342	0.849503	1.257279
H99	H	0.977681	0.387124	0.710593
H100	H	1.477681	0.887124	1.210593
H101	H	0.970056	0.309364	0.798653
H102	H	1.470056	0.809364	1.298653
H103	H	1.246680	0.118292	0.563311
H104	H	1.746680	0.618292	1.063311
H105	H	1.246655	0.118282	0.436735
H106	H	1.746655	0.618282	0.936735
N107	N	0.614813	0.089384	0.000023
N108	N	1.114813	0.589384	0.500023
H109	H	0.633864	0.053511	0.058714
H110	H	1.133864	0.553511	0.558714
H111	H	0.543486	0.095398	-0.000014
H112	H	1.043486	0.595398	0.499986
N113	N	1.015287	0.349472	0.449901
N114	N	1.515287	0.849472	0.949901
H115	H	1.055347	0.394855	0.491229
H116	H	1.555347	0.894855	0.991229
H117	H	0.977639	0.387028	0.403153
H118	H	1.477639	0.887028	0.903153
H119	H	1.030975	0.333772	0.255931
H120	H	1.530975	0.833772	0.755931
