data_functionalizedCrystal
_audit_creation_method	'MofGen! by Chris Wilmer'
_symmetry_space_group_name_H-M	'P1'
_symmetry_Int_Tables_number	1
_symmetry_cell_setting	triclinic
loop_
_symmetry_equiv_pos_as_xyz
  x,y,z
_cell_length_a	12.759401
_cell_length_b	11.169416
_cell_length_c	12.759393
_cell_angle_alpha	90.029135
_cell_angle_beta	90.018496
_cell_angle_gamma	90.010310
loop_
_atom_site_label
_atom_site_type_symbol
_atom_site_fract_x
_atom_site_fract_y
_atom_site_fract_z
Zn1	Zn	1.606289	-0.477731	0.593999
Zn2	Zn	1.606197	-0.678464	0.418327
Zn3	Zn	1.430591	-0.477794	0.418339
Zn4	Zn	1.430593	-0.678372	0.593968
O5	O	1.518417	-0.578090	0.506158
O6	O	1.753297	-0.504371	0.570704
O7	O	1.582863	-0.651910	0.271307
O8	O	1.453935	-0.309836	0.441658
O9	O	1.753230	-0.651849	0.441638
O10	O	1.583019	-0.309790	0.570715
O11	O	1.453846	-0.504478	0.271316
O12	O	1.283570	-0.504389	0.441628
O13	O	1.453939	-0.651691	0.740993
O14	O	1.283572	-0.651752	0.570662
O15	O	1.583022	-0.504282	0.741016
O16	O	1.582865	-0.846401	0.441608
O17	O	1.453850	-0.846333	0.570651
C18	C	1.245450	-0.578068	0.506144
C19	C	1.128673	-0.578088	0.506163
C20	C	1.518377	-0.889915	0.506148
C21	C	1.518455	-1.023315	0.506178
C22	C	1.073840	-0.654943	0.573240
C23	C	0.964116	-0.654958	0.573251
C24	C	0.964068	-0.501260	0.439099
C25	C	1.073790	-0.501239	0.439094
C26	C	1.073866	-0.743683	0.650688
C27	C	0.964142	-0.743698	0.650699
C28	C	1.792451	-0.578113	0.506173
C29	C	1.909227	-0.578123	0.506179
C30	C	1.518491	-0.577969	0.780192
C31	C	1.518522	-0.577917	0.896968
C32	C	1.518487	-0.265048	0.506191
C33	C	1.518516	-0.131648	0.506206
C34	C	1.518404	-0.578124	0.233191
C35	C	1.518577	-0.577838	0.116415
C36	C	1.585745	-0.501154	0.951844
C37	C	1.585770	-0.501111	1.061568
C38	C	1.451347	-0.654605	1.061531
C39	C	1.451317	-0.654641	0.951809
C40	C	1.663356	-0.412539	0.951866
C41	C	1.663381	-0.412496	1.061590
H42	H	1.118432	-0.438649	0.384480
Br43	Br	0.889578	-0.396967	0.348086
H44	H	1.396574	-0.717145	0.907134
H45	H	1.396628	-0.717067	1.106196
Br46	Br	1.123556	-0.702374	0.786366
H47	H	1.107887	-0.831932	0.621407
Br48	Br	0.907461	-0.688396	0.779615
H49	H	0.934353	-0.836628	0.628771
H50	H	1.634261	-0.324182	1.095635
H51	H	1.641581	-0.319593	0.922107
H52	H	1.740630	-0.445860	0.917831
H53	H	1.744754	-0.437390	1.091369
