data_functionalizedCrystal
_audit_creation_method	'MofGen! by Chris Wilmer'
_symmetry_space_group_name_H-M	'P1'
_symmetry_Int_Tables_number	1
_symmetry_cell_setting	triclinic
loop_
_symmetry_equiv_pos_as_xyz
  x,y,z
_cell_length_a	21.395362
_cell_length_b	13.897448
_cell_length_c	21.395356
_cell_angle_alpha	89.977270
_cell_angle_beta	89.964230
_cell_angle_gamma	90.033571
loop_
_atom_site_label
_atom_site_type_symbol
_atom_site_fract_x
_atom_site_fract_y
_atom_site_fract_z
Zn1	Zn	0.957866	-0.383650	-0.354598
Zn2	Zn	0.957807	-0.544950	-0.249826
Zn3	Zn	0.853095	-0.383715	-0.249799
Zn4	Zn	0.853074	-0.544950	-0.354531
O5	O	0.905460	-0.464316	-0.302189
O6	O	1.045536	-0.405020	-0.340739
O7	O	0.943901	-0.523589	-0.162145
O8	O	0.867027	-0.248725	-0.263718
O9	O	1.045493	-0.523526	-0.263764
O10	O	0.944001	-0.248677	-0.340714
O11	O	0.866970	-0.405130	-0.162125
O12	O	0.765415	-0.405130	-0.263653
O13	O	0.866990	-0.523526	-0.442218
O14	O	0.765399	-0.523589	-0.340599
O15	O	0.943980	-0.405020	-0.442267
O16	O	0.943880	-0.679931	-0.263698
O17	O	0.866933	-0.679931	-0.340624
C18	C	0.742673	-0.464367	-0.302116
C19	C	0.673031	-0.464412	-0.302100
C20	C	0.640326	-0.526175	-0.342105
C21	C	0.574891	-0.526152	-0.342133
C22	C	0.542163	-0.464375	-0.302144
C23	C	0.574876	-0.402600	-0.262136
C24	C	0.640310	-0.402619	-0.262114
C25	C	0.438445	-0.456615	-0.245739
C26	C	0.373012	-0.456603	-0.245760
C27	C	0.340342	-0.464312	-0.302213
C28	C	0.373114	-0.472053	-0.358647
C29	C	0.438548	-0.472072	-0.358625
C30	C	0.471211	-0.464348	-0.302164
C31	C	0.236685	-0.526053	-0.342253
C32	C	0.171248	-0.526022	-0.342282
C33	C	0.171235	-0.402476	-0.262279
C34	C	0.236670	-0.402501	-0.262255
C35	C	0.269391	-0.464295	-0.302242
C36	C	0.905415	-0.714931	-0.302170
C37	C	0.905452	-0.822144	-0.302184
C38	C	0.905518	-1.018439	-0.302223
C39	C	0.905480	-0.909207	-0.302203
C40	C	1.068884	-0.464266	-0.302262
C41	C	1.138525	-0.464244	-0.302293
C42	C	0.905489	-0.464265	-0.465612
C43	C	0.905501	-0.464244	-0.535253
C44	C	0.905523	-0.212723	-0.302221
C45	C	0.905550	-0.105509	-0.302234
C46	C	0.945630	-0.525723	-1.037060
C47	C	0.945618	-0.525753	-0.971625
C48	C	0.905561	-0.464091	-0.938892
C49	C	0.865501	-0.402411	-0.971599
C50	C	0.865509	-0.402389	-1.037034
C51	C	0.900623	-0.377223	-0.835232
C52	C	0.900619	-0.377243	-0.769799
C53	C	0.905533	-0.464159	-0.737071
C54	C	0.910463	-0.551058	-0.769784
C55	C	0.910471	-0.551036	-0.835218
C56	C	0.905548	-0.464108	-0.867939
C57	C	0.945575	-0.525874	-0.633418
C58	C	0.945560	-0.525906	-0.567982
C59	C	0.865445	-0.402554	-0.567958
C60	C	0.865458	-0.402531	-0.633393
C61	C	0.905526	-0.464189	-0.666120
C62	C	0.905468	-0.464297	-0.139401
C63	C	0.905577	-0.464047	-0.069760
H64	H	0.263299	-0.352212	-0.229675
H65	H	0.263328	-0.576364	-0.374815
H66	H	0.832845	-0.352304	-0.660018
O67	O	0.341484	-0.479570	-0.413546
C68	C	0.384439	-0.486368	-0.463349
H69	H	0.431046	-0.514322	-0.445039
H70	H	0.391468	-0.412261	-0.485123
C71	C	0.301663	-0.521810	-0.535561
C72	C	0.358905	-0.556150	-0.513073
H73	H	0.285912	-0.564851	-0.566235
H74	H	0.272722	-0.517226	-0.502009
H75	H	0.307528	-0.460054	-0.553701
H76	H	0.353037	-0.617900	-0.494927
H77	H	0.387844	-0.560746	-0.546624
O78	O	0.984561	-0.585532	-0.939784
C79	C	1.025043	-0.530603	-0.901975
H80	H	1.002955	-0.457518	-0.892171
H81	H	1.071479	-0.519972	-0.927219
C82	C	1.063502	-0.673450	-0.851859
C83	C	1.036371	-0.583689	-0.839813
H84	H	1.070492	-0.706197	-0.813516
H85	H	1.036230	-0.710458	-0.877334
H86	H	1.102196	-0.664579	-0.872897
H87	H	0.997675	-0.592563	-0.818783
H88	H	1.063637	-0.546684	-0.814334
H89	H	0.144621	-0.576315	-0.374863
O90	O	0.341254	-0.449210	-0.190894
C91	C	0.357161	-0.527083	-0.151768
H92	H	0.404669	-0.556816	-0.166208
H93	H	0.320310	-0.585958	-0.156246
C94	C	0.301793	-0.455934	-0.065737
C95	C	0.360145	-0.492447	-0.083470
H96	H	0.303631	-0.434572	-0.023607
H97	H	0.291073	-0.403471	-0.092098
H98	H	0.271089	-0.505003	-0.069473
H99	H	0.390845	-0.443376	-0.079741
H100	H	0.370870	-0.544902	-0.057107
O101	O	0.984555	-0.585637	-0.665243
C102	C	1.025032	-0.530696	-0.703130
H103	H	1.028922	-0.454732	-0.683419
H104	H	1.005666	-0.527358	-0.752712
C105	C	1.085376	-0.671105	-0.728373
C106	C	1.090157	-0.577807	-0.704161
H107	H	1.125547	-0.700167	-0.729013
H108	H	1.058104	-0.708121	-0.702850
H109	H	1.069235	-0.668310	-0.769689
H110	H	1.106290	-0.580604	-0.662844
H111	H	1.117433	-0.540793	-0.729678
H112	H	0.832885	-0.352206	-0.944944
H113	H	0.896608	-0.306485	-0.743169
O114	O	0.826501	-0.342790	-0.536101
C115	C	0.786005	-0.397738	-0.498238
H116	H	0.808086	-0.470832	-0.488438
H117	H	0.739575	-0.408346	-0.523434
C118	C	0.747540	-0.254918	-0.448121
C119	C	0.774663	-0.344690	-0.436079
H120	H	0.740541	-0.222194	-0.409779
H121	H	0.774821	-0.217897	-0.473631
H122	H	0.708852	-0.263771	-0.469119
H123	H	0.813353	-0.335835	-0.415088
H124	H	0.747388	-0.381708	-0.410564
H125	H	0.914466	-0.621834	-0.743138
O126	O	0.984622	-0.585478	-1.068872
C127	C	1.025095	-0.530525	-1.106756
H128	H	1.028966	-0.454556	-1.087050
H129	H	1.005739	-0.527205	-1.156342
C130	C	1.085471	-0.670911	-1.131977
C131	C	1.090230	-0.577607	-1.107771
H132	H	1.125649	-0.699955	-1.132606
H133	H	1.058202	-0.707935	-1.106456
H134	H	1.069338	-0.668132	-1.173296
H135	H	1.106355	-0.580389	-1.066450
H136	H	1.117503	-0.540585	-1.133285
O137	O	0.470449	-0.479441	-0.413410
C138	C	0.508331	-0.397336	-0.421561
H139	H	0.518102	-0.363118	-0.374145
H140	H	0.483168	-0.343325	-0.452771
C141	C	0.558503	-0.468861	-0.510594
C142	C	0.570509	-0.426838	-0.452356
H143	H	0.596856	-0.487057	-0.529592
H144	H	0.532980	-0.524176	-0.505104
H145	H	0.537533	-0.423845	-0.536595
H146	H	0.591472	-0.471858	-0.426353
H147	H	0.596037	-0.371532	-0.457842
O148	O	0.543114	-0.342456	-0.223356
C149	C	0.559172	-0.246351	-0.237142
H150	H	0.577210	-0.241587	-0.287195
H151	H	0.597133	-0.221075	-0.203566
C152	C	0.478912	-0.187802	-0.168466
C153	C	0.501062	-0.181950	-0.229944
H154	H	0.443069	-0.148075	-0.164024
H155	H	0.468095	-0.252550	-0.159176
H156	H	0.510552	-0.166740	-0.140493
H157	H	0.469426	-0.203023	-0.257916
H158	H	0.511873	-0.117204	-0.239239
O159	O	0.672081	-0.586090	-0.381042
C160	C	0.656145	-0.565150	-0.443515
H161	H	0.638200	-0.488092	-0.446771
H162	H	0.618150	-0.616886	-0.459844
C163	C	0.736342	-0.671126	-0.481305
C164	C	0.714307	-0.576479	-0.485304
H165	H	0.772218	-0.678118	-0.507084
H166	H	0.747077	-0.685237	-0.439216
H167	H	0.704675	-0.714229	-0.494911
H168	H	0.745972	-0.533379	-0.471691
H169	H	0.703579	-0.562361	-0.527392
O170	O	0.470249	-0.449263	-0.190929
C171	C	0.508037	-0.531385	-0.182750
H172	H	0.517864	-0.565614	-0.230159
H173	H	0.482764	-0.585381	-0.151553
C174	C	0.558111	-0.459875	-0.093690
C175	C	0.570185	-0.501910	-0.151918
H176	H	0.596446	-0.441695	-0.074668
H177	H	0.532651	-0.404549	-0.099198
H178	H	0.537049	-0.504878	-0.067700
H179	H	0.591241	-0.456903	-0.177909
H180	H	0.595650	-0.557228	-0.146413
H181	H	0.832892	-0.352162	-1.063658
H182	H	0.896662	-0.306434	-0.861874
H183	H	0.666938	-0.352321	-0.229536
H184	H	0.914484	-0.621792	-0.861850
O185	O	0.984439	-0.585956	-0.536285
C186	C	0.970724	-0.682095	-0.552248
H187	H	0.946645	-0.684089	-0.599745
H188	H	0.938502	-0.714617	-0.515402
C189	C	1.061372	-0.738040	-0.496959
C190	C	1.031802	-0.740489	-0.555299
H191	H	1.099047	-0.774062	-0.498838
H192	H	1.070611	-0.673269	-0.486202
H193	H	1.034514	-0.765140	-0.466260
H194	H	1.058657	-0.713378	-0.585994
H195	H	1.022569	-0.805256	-0.566061
O196	O	0.543046	-0.586202	-0.380909
C197	C	0.505144	-0.648430	-0.345175
H198	H	0.495312	-0.614302	-0.297737
H199	H	0.530321	-0.719903	-0.338196
C200	C	0.455088	-0.707874	-0.437912
C201	C	0.443008	-0.665954	-0.379650
H202	H	0.416761	-0.718688	-0.459178
H203	H	0.480625	-0.665953	-0.461987
H204	H	0.476071	-0.767431	-0.432088
H205	H	0.422034	-0.606394	-0.385474
H206	H	0.417467	-0.707866	-0.355576
H207	H	0.144588	-0.352172	-0.229722
