data_functionalizedCrystal
_audit_creation_method	'MofGen! by Chris Wilmer'
_symmetry_space_group_name_H-M	'P1'
_symmetry_Int_Tables_number	1
_symmetry_cell_setting	triclinic
loop_
_symmetry_equiv_pos_as_xyz
  x,y,z
_cell_length_a	12.759401
_cell_length_b	12.759400
_cell_length_c	10.686551
_cell_angle_alpha	85.594162
_cell_angle_beta	85.605113
_cell_angle_gamma	90.014356
loop_
_atom_site_label
_atom_site_type_symbol
_atom_site_fract_x
_atom_site_fract_y
_atom_site_fract_z
Zn1	Zn	1.651854	-0.372626	-0.713440
Zn2	Zn	1.638263	-0.561828	-0.502438
Zn3	Zn	1.462672	-0.386161	-0.502457
Zn4	Zn	1.476142	-0.548266	-0.713390
O5	O	1.557233	-0.467220	-0.607931
O6	O	1.797073	-0.397735	-0.685463
O7	O	1.603645	-0.549865	-0.325859
O8	O	1.487818	-0.237343	-0.530474
O9	O	1.787088	-0.536741	-0.530440
O10	O	1.626810	-0.227399	-0.685482
O11	O	1.474639	-0.420804	-0.325874
O12	O	1.317437	-0.407653	-0.530426
O13	O	1.510776	-0.513627	-0.889978
O14	O	1.327333	-0.526751	-0.685397
O15	O	1.639871	-0.384585	-0.890015
O16	O	1.616706	-0.707052	-0.530392
O17	O	1.497597	-0.697088	-0.685378
C18	C	1.284264	-0.467200	-0.607909
C19	C	1.167489	-0.467215	-0.607929
C20	C	0.997698	-0.539519	-0.527123
C21	C	1.107421	-0.539499	-0.527101
C22	C	1.117828	-0.394938	-0.688775
C23	C	1.008106	-0.394954	-0.688789
C24	C	0.937636	-0.611815	-0.446299
C25	C	0.987290	-0.684091	-0.365451
C26	C	1.097012	-0.684071	-0.365429
C27	C	1.157082	-0.611776	-0.446255
C28	C	1.557169	-0.740189	-0.607905
C29	C	1.557240	-0.856964	-0.607936
C30	C	1.619341	-0.916973	-0.527324
C31	C	1.619408	-1.026695	-0.527363
C32	C	1.495265	-1.016387	-0.688629
C33	C	1.495204	-0.906668	-0.688596
C34	C	1.681377	-0.867270	-0.446664
C35	C	1.743481	-0.927280	-0.366045
C36	C	1.743548	-1.037001	-0.366084
C37	C	1.681511	-1.086713	-0.446742
C38	C	1.831267	-0.467241	-0.607955
C39	C	1.948045	-0.467250	-0.607965
C40	C	1.578342	-0.446083	-0.937062
C41	C	1.587338	-0.437076	-1.077318
C42	C	1.557327	-0.193183	-0.607985
C43	C	1.557368	-0.076405	-0.608008
C44	C	1.536266	-0.488199	-0.280081
C45	C	1.527473	-0.496910	-0.139826
H46	H	0.938374	-0.742946	-0.299639
O47	O	1.458100	-0.566339	-1.075867
C48	C	1.404230	-0.620145	-1.162139
H49	H	1.453216	-0.617812	-1.256127
H50	H	1.390585	-0.705348	-1.123949
H51	H	1.325331	-0.580786	-1.176103
H52	H	1.681326	-0.777930	-0.446620
O53	O	1.656552	-0.367619	-1.141533
C54	C	1.601595	-0.294933	-1.217803
H55	H	1.516326	-0.290968	-1.178006
H56	H	1.639721	-0.213977	-1.219440
H57	H	1.604300	-0.321078	-1.317634
O58	O	0.831040	-0.611947	-0.446118
C59	C	0.788674	-0.691270	-0.357473
H60	H	0.847157	-0.710619	-0.283705
H61	H	0.712195	-0.662593	-0.309668
H62	H	0.772412	-0.764739	-0.407362
H63	H	1.681579	-1.176055	-0.446777
O64	O	1.145082	-0.754373	-0.286855
C65	C	1.068536	-0.818164	-0.215502
H66	H	0.993647	-0.818559	-0.267195
H67	H	1.099354	-0.901795	-0.201870
H68	H	1.050710	-0.785722	-0.119745
H69	H	1.793997	-0.886799	-0.300383
H70	H	1.444756	-1.056872	-0.754296
H71	H	1.166745	-0.336080	-0.754580
O72	O	1.263659	-0.611930	-0.446117
C73	C	1.294607	-0.691199	-0.357405
H74	H	1.230225	-0.753710	-0.339612
H75	H	1.370448	-0.728667	-0.395392
H76	H	1.308172	-0.655322	-0.265479
H77	H	0.967678	-0.336102	-0.754612
H78	H	1.794125	-1.085858	-0.300449
H79	H	1.444637	-0.857807	-0.754239
