data_functionalizedCrystal
_audit_creation_method	'MofGen! by Chris Wilmer'
_symmetry_space_group_name_H-M	'P1'
_symmetry_Int_Tables_number	1
_symmetry_cell_setting	triclinic
loop_
_symmetry_equiv_pos_as_xyz
  x,y,z
_cell_length_a	19.121368
_cell_length_b	10.686220
_cell_length_c	10.685880
_cell_angle_alpha	89.641569
_cell_angle_beta	87.904476
_cell_angle_gamma	83.001813
loop_
_atom_site_label
_atom_site_type_symbol
_atom_site_fract_x
_atom_site_fract_y
_atom_site_fract_z
Zn1	Zn	0.219353	1.954357	-0.546982
Zn2	Zn	0.328623	1.929223	-0.329563
Zn3	Zn	0.220785	1.728370	-0.353204
Zn4	Zn	0.346484	1.734183	-0.554082
O5	O	0.278811	1.836533	-0.445958
O6	O	0.225774	2.127224	-0.505276
O7	O	0.307443	1.889628	-0.157641
O8	O	0.122260	1.766433	-0.385832
O9	O	0.306054	2.108759	-0.345539
O10	O	0.121207	1.932465	-0.528200
O11	O	0.228214	1.742062	-0.175010
O12	O	0.245534	1.552939	-0.392716
O13	O	0.336495	1.776341	-0.728199
O14	O	0.337884	1.557211	-0.540300
O15	O	0.243093	1.938102	-0.722983
O16	O	0.429328	1.895265	-0.352423
O17	O	0.442450	1.751970	-0.517376
C18	C	0.293803	1.509388	-0.469845
C19	C	0.300235	1.369434	-0.480092
C20	C	0.095523	1.851604	-0.458861
C21	C	0.017417	1.858026	-0.464360
C22	C	-0.018731	1.774604	-0.392822
C23	C	-0.092120	1.780637	-0.398002
C24	C	-0.129360	1.870099	-0.474713
C25	C	-0.093206	1.953524	-0.546259
C26	C	-0.019818	1.947484	-0.541085
C27	C	-0.350970	1.892655	-0.494047
C28	C	-0.424364	1.898691	-0.499212
C29	C	-0.423272	1.725802	-0.350957
C30	C	-0.349883	1.719775	-0.345784
C31	C	-0.313736	1.803196	-0.417335
C32	C	-0.204375	1.876270	-0.480006
C33	C	-0.238721	1.797017	-0.412048
C34	C	0.461386	1.821558	-0.433129
C35	C	0.539488	1.815269	-0.427675
C36	C	0.291627	1.860674	-0.772251
C37	C	0.297088	1.870961	-0.911297
C38	C	0.263762	2.164956	-0.421979
C39	C	0.257348	2.304910	-0.411760
C40	C	0.265992	1.812563	-0.120933
C41	C	0.260321	1.802536	0.018117
H42	H	0.215712	1.356737	-0.345417
F43	F	0.343700	1.957826	-0.971350
H44	H	-0.319568	1.646928	-0.283316
H45	H	0.011584	1.701759	-0.330351
H46	H	0.341878	1.317601	-0.546431
F47	F	-0.130587	1.691836	-0.321876
F48	F	-0.461747	1.637022	-0.274816
F49	F	-0.463996	1.993916	-0.580858
F50	F	-0.312508	1.981431	-0.570209
H51	H	-0.123531	2.026362	-0.608725
H52	H	0.009613	2.015406	-0.599349
F53	F	-0.199086	1.701803	-0.330417
H54	H	0.224668	1.736075	-0.935941
H55	H	-0.234702	1.949114	-0.542463
