data_functionalizedCrystal
_audit_creation_method	'MofGen! by Chris Wilmer'
_symmetry_space_group_name_H-M	'P1'
_symmetry_Int_Tables_number	1
_symmetry_cell_setting	triclinic
loop_
_symmetry_equiv_pos_as_xyz
  x,y,z
_cell_length_a	10.654550
_cell_length_b	17.699083
_cell_length_c	9.130313
_cell_angle_alpha	89.994594
_cell_angle_beta	89.999724
_cell_angle_gamma	83.883973
loop_
_atom_site_label
_atom_site_type_symbol
_atom_site_fract_x
_atom_site_fract_y
_atom_site_fract_z
O1	O	1.665979	0.106303	-0.121693
O2	O	1.300323	0.116430	-0.121721
O3	O	1.493481	0.001243	-0.121693
O4	O	1.472820	0.221490	-0.121721
O5	O	1.493468	0.001240	0.121906
O6	O	1.300310	0.116427	0.121878
O7	O	1.665966	0.106299	0.121906
Cu8	Cu	1.483136	0.111363	0.144134
Cu9	Cu	1.483152	0.111367	-0.143949
O10	O	1.472807	0.221487	0.121878
C11	C	1.253531	0.115685	0.000076
C12	C	1.114127	0.113460	0.000066
C13	C	1.033454	0.181281	0.000061
C14	C	0.902470	0.179186	0.000087
C15	C	0.932844	0.041444	0.000115
C16	C	1.063826	0.043539	0.000100
C17	C	1.492735	-0.026960	0.000106
C18	C	1.490514	-0.110993	0.000107
C19	C	1.603894	-0.158893	0.000117
C20	C	1.601799	-0.237849	0.000104
C21	C	1.486323	-0.268904	0.000091
C22	C	1.372935	-0.220998	0.000076
C23	C	1.375030	-0.142043	0.000079
C24	C	1.364481	-0.539415	0.000064
C25	C	1.362394	-0.618376	0.000065
C26	C	1.591249	-0.635221	0.000089
C27	C	1.593345	-0.556266	0.000092
C28	C	1.479957	-0.508367	0.000069
C29	C	1.482229	-0.422753	0.000080
C30	C	1.484050	-0.354516	0.000090
C31	C	1.712757	0.107045	0.000106
C32	C	1.852161	0.109269	0.000107
C33	C	1.473554	0.249690	0.000075
C34	C	1.475775	0.333722	0.000065
N35	N	1.483135	0.111360	0.346757
N36	N	1.483164	0.111364	-0.346572
C37	C	1.568694	0.060376	0.423421
C38	C	1.568706	0.060376	0.576758
C39	C	1.397596	0.162350	0.576753
C40	C	1.397579	0.162345	0.423419
H41	H	1.074405	0.238215	0.000044
H42	H	1.268354	-0.643657	0.000058
C43	C	1.799608	-0.148936	-0.125103
C44	C	1.730828	-0.124758	0.000124
H45	H	1.877969	-0.127859	-0.125105
H46	H	1.814584	-0.202807	-0.125091
H47	H	1.752920	-0.132525	-0.210041
H48	H	1.777512	-0.141174	0.085062
H49	H	1.715855	-0.070875	0.000125
C50	C	1.323417	0.292961	0.376165
C51	C	1.303529	0.218393	0.339138
H52	H	1.265359	0.327558	0.324125
H53	H	1.311178	0.300257	0.478443
H54	H	1.407200	0.301640	0.351012
H55	H	1.219748	0.209712	0.364300
H56	H	1.315757	0.211093	0.236837
H57	H	0.836791	0.234412	0.000087
C58	C	0.803163	-0.040821	-0.125088
C59	C	0.877549	-0.035411	0.000133
H60	H	0.769036	-0.088271	-0.125082
H61	H	0.736376	-0.000734	-0.125078
H62	H	0.853639	-0.037138	-0.210030
H63	H	0.827071	-0.039088	0.085075
H64	H	0.944345	-0.075509	0.000136
H65	H	1.129514	-0.011692	0.000108
H66	H	1.272153	-0.500424	0.000046
C67	C	1.737848	-0.040412	0.561350
C68	C	1.662761	0.004337	0.661027
H69	H	1.795919	-0.075006	0.613377
H70	H	1.685661	-0.067931	0.501563
H71	H	1.782904	-0.008643	0.501527
H72	H	1.617697	-0.027431	0.720843
H73	H	1.714955	0.031859	0.720839
H74	H	1.687377	-0.530986	0.000109
C75	C	1.180070	0.205566	0.624002
C76	C	1.303561	0.218392	0.661032
H77	H	1.122019	0.240163	0.676039
H78	H	1.167820	0.212865	0.521723
H79	H	1.166618	0.154974	0.649154
H80	H	1.317016	0.268983	0.635869
H81	H	1.315816	0.211100	0.763333
H82	H	1.278912	-0.246289	0.000056
H83	H	1.694125	-0.276847	0.000116
H84	H	1.683575	-0.674231	0.000100
C85	C	1.148599	-0.133317	0.000065
C86	C	1.250400	-0.089388	0.000071
H87	H	1.071656	-0.100809	0.000063
H88	H	1.152548	-0.164458	-0.084877
H89	H	1.152543	-0.164468	0.085021
H90	H	1.246461	-0.058241	-0.084891
H91	H	1.246448	-0.058234	0.085021
H92	H	1.638357	0.018859	0.361006
