data_functionalizedCrystal
_audit_creation_method	'MofGen! by Chris Wilmer'
_symmetry_space_group_name_H-M	'P1'
_symmetry_Int_Tables_number	1
_symmetry_cell_setting	triclinic
loop_
_symmetry_equiv_pos_as_xyz
  x,y,z
_cell_length_a	23.096457
_cell_length_b	27.440280
_cell_length_c	23.096457
_cell_angle_alpha	90.016954
_cell_angle_beta	60.007119
_cell_angle_gamma	60.002725
loop_
_atom_site_label
_atom_site_type_symbol
_atom_site_fract_x
_atom_site_fract_y
_atom_site_fract_z
Zr1	Zr	0.633643	0.469540	-0.075890
O2	O	0.754438	0.391712	-0.168347
O3	O	0.512858	0.493391	-0.047549
O4	O	0.633642	0.493377	-0.168336
O5	O	0.633652	0.391745	0.047722
O6	O	0.633631	0.573580	-0.168324
O7	O	0.633654	0.391726	-0.047560
O8	O	0.417570	0.573605	0.047741
O9	O	0.849712	0.391721	-0.168344
O10	O	0.562527	0.563426	-0.035450
O11	O	0.562534	0.503586	0.035649
O12	O	0.704742	0.503570	-0.106562
O13	O	0.704749	0.443729	-0.035463
Zr14	Zr	0.633623	0.597484	0.076093
Zr15	Zr	0.633626	0.597454	-0.075871
Zr16	Zr	0.633641	0.469570	0.076074
Zr17	Zr	0.785596	0.469553	-0.075884
Zr18	Zr	0.481671	0.597472	0.076088
O19	O	0.754409	0.573633	0.047753
O20	O	0.754412	0.573590	-0.168320
O21	O	0.754434	0.391756	0.047726
O22	O	0.512829	0.675312	0.168551
O23	O	0.512833	0.675268	-0.047522
O24	O	0.512854	0.493434	0.168524
O25	O	0.633614	0.675279	-0.047518
O26	O	0.633625	0.573647	0.168540
O27	O	0.633636	0.493444	0.168528
O28	O	0.633613	0.675298	0.047764
O29	O	0.849698	0.493395	-0.168328
O30	O	0.417568	0.573629	0.168532
O31	O	0.417554	0.675304	0.168547
O32	O	0.417556	0.675279	0.047756
O33	O	0.849710	0.391745	-0.047553
O34	O	0.849696	0.493419	-0.047538
O35	O	0.562525	0.563455	0.106766
O36	O	0.562518	0.623295	0.035667
O37	O	0.704732	0.563438	-0.035445
O38	O	0.704739	0.503598	0.035654
C39	C	0.443564	0.533496	0.000095
C40	C	0.379057	0.533491	0.000093
C41	C	0.296264	0.577686	0.052586
C42	C	0.235643	0.577690	0.052593
C43	C	0.257818	0.533503	0.000095
C44	C	0.340625	0.489300	-0.052403
C45	C	0.401244	0.489294	-0.052404
N46	N	0.201711	0.520125	-0.062153
N47	N	0.144122	0.520135	-0.062150
C48	C	0.075179	0.533519	0.000096
N49	N	0.065993	0.546905	0.062342
N50	N	0.123586	0.546898	0.062338
C51	C	0.192093	0.533505	0.000091
C52	C	-0.073350	0.577721	0.052601
C53	C	-0.133970	0.577721	0.052609
C54	C	-0.028986	0.489334	-0.052393
C55	C	0.031633	0.489331	-0.052395
C56	C	0.009445	0.533528	0.000102
C57	C	0.633656	0.373511	0.000078
C58	C	0.633663	0.319208	0.000070
C59	C	0.559385	0.013755	0.037241
C60	C	0.559381	-0.037264	0.037247
O61	O	0.496247	-0.037079	0.068838
N62	N	0.633614	-0.094025	0.000127
C63	C	0.707857	-0.099767	-0.036996
O64	O	0.770999	-0.152732	-0.068569
C65	C	0.707861	-0.048749	-0.036998
C66	C	0.633623	0.008012	0.000119
C67	C	0.485153	0.070513	0.074355
C68	C	0.485158	0.121528	0.074348
C69	C	0.559395	0.115784	0.037226
C70	C	0.633627	0.059026	0.000111
C71	C	0.782103	-0.054492	-0.074116
C72	C	0.782101	-0.003468	-0.074115
C73	C	0.707862	0.053293	-0.036998
C74	C	0.707870	0.104298	-0.037018
N75	N	0.633636	0.161059	0.000102
C76	C	0.559399	0.166802	0.037224
C77	C	0.707844	-0.206906	-0.036989
C78	C	0.707841	-0.257923	-0.036992
C79	C	0.559364	-0.195416	0.037253
C80	C	0.559368	-0.144398	0.037251
C81	C	0.633610	-0.150144	0.000132
C82	C	0.559414	0.273935	0.037205
C83	C	0.559426	0.324951	0.037192
C84	C	0.707902	0.262440	-0.037049
C85	C	0.707891	0.211428	-0.037040
C86	C	0.633641	0.217179	0.000093
O87	O	0.770971	0.104159	-0.068590
O88	O	0.496268	0.219769	0.068799
C89	C	0.823702	0.533528	0.000109
C90	C	0.888210	0.533534	0.000111
C91	C	0.633637	0.533474	-0.189982
C92	C	0.633638	0.533461	-0.254494
C93	C	0.633611	0.693513	0.000126
C94	C	0.633603	0.747816	0.000134
C95	C	0.707870	0.502220	-0.321917
C96	C	0.707871	0.502235	-0.382534
C97	C	0.633636	0.533484	-0.375723
C98	C	0.559394	0.564732	-0.308288
C99	C	0.559395	0.564721	-0.247673
N100	N	0.578382	0.529167	-0.443281
N101	N	0.578386	0.529175	-0.500865
C102	C	0.633628	0.533520	-0.558348
N103	N	0.688879	0.537847	-0.556079
N104	N	0.688877	0.537836	-0.498492
C105	C	0.633626	0.533499	-0.441445
C106	C	0.707867	0.502294	-0.691502
C107	C	0.707865	0.502313	-0.752118
C108	C	0.559386	0.564806	-0.677869
C109	C	0.559390	0.564791	-0.617255
C110	C	0.633633	0.533531	-0.624076
C111	C	0.633630	0.533550	0.190185
C112	C	0.633629	0.533563	0.254698
C113	C	0.443542	0.693497	0.000119
C114	C	0.379027	0.747795	0.000125
C115	C	0.443561	0.533534	0.190179
C116	C	0.379052	0.533541	0.254689
C117	C	0.443539	0.693535	0.190202
C118	C	0.379022	0.747846	0.254721
C119	C	0.823728	0.373489	-0.189999
C120	C	0.888244	0.319179	-0.254517
C121	C	0.823725	0.373527	0.000085
C122	C	0.888240	0.319230	0.000079
C123	C	0.823706	0.533490	-0.189975
C124	C	0.888214	0.533483	-0.254485
C125	C	0.348735	0.742042	-0.037001
C126	C	0.288124	0.793056	-0.037010
C127	C	0.257803	0.849821	0.000112
C128	C	0.288101	0.855572	0.037239
C129	C	0.348714	0.804559	0.037243
C130	C	0.348753	0.564796	0.322112
C131	C	0.288149	0.564801	0.382732
C132	C	0.257841	0.533554	0.375928
C133	C	0.288146	0.502296	0.308497
C134	C	0.348753	0.502288	0.247879
C135	C	0.348721	0.804592	0.247906
C136	C	0.288110	0.855627	0.308523
C137	C	0.257796	0.849915	0.375952
C138	C	0.288104	0.793163	0.382765
C139	C	0.348718	0.742129	0.322150
C140	C	0.918553	0.262433	-0.247703
C141	C	0.979183	0.211397	-0.308319
C142	C	1.009500	0.217109	-0.375749
C143	C	0.979188	0.273861	-0.382562
C144	C	0.918563	0.324895	-0.321946
C145	C	0.918538	0.324982	0.037198
C146	C	0.979166	0.273968	0.037190
C147	C	1.009489	0.217203	0.000067
C148	C	0.979188	0.211452	-0.037058
C149	C	0.918566	0.262465	-0.037053
C150	C	0.918504	0.564735	-0.247658
C151	C	0.979108	0.564740	-0.308266
C152	C	1.009427	0.533488	-0.375702
C153	C	0.979132	0.502235	-0.382528
C154	C	0.918524	0.502234	-0.321920
H155	H	0.358677	0.453322	-0.095146
H156	H	0.893887	0.371099	-0.327503
H157	H	0.893853	0.371198	0.067434
H158	H	0.373370	0.809251	0.067479
H159	H	0.893872	0.257770	-0.192804
Br160	Br	0.389831	0.665118	0.331411
H161	H	0.263463	0.788362	-0.067243
Br162	Br	1.020273	0.281787	0.087579
H163	H	0.893869	0.476782	-0.327489
H164	H	0.498916	-0.098184	0.067482
Br165	Br	0.458645	0.281748	0.087599
Br166	Br	0.389862	0.459869	0.156378
Br167	Br	0.266151	0.637663	0.123836
H168	H	0.168221	0.613680	0.095341
H169	H	0.263459	0.476856	0.302967
Br170	Br	1.091763	0.147977	0.000068
Br171	Br	0.808622	0.459886	-0.700754
H172	H	0.768324	0.476768	-0.327478
H173	H	0.893827	0.590184	-0.192754
H174	H	0.424697	0.075200	0.104588
Br175	Br	0.384400	0.198555	0.124728
Br176	Br	0.513614	0.429309	-0.123650
H177	H	1.003827	0.476790	-0.437442
Br178	Br	0.389869	0.607210	0.331367
Br179	Br	0.175540	0.919047	0.000099
Br180	Br	-0.246340	0.637701	0.123863
H181	H	0.263482	0.590257	0.437631
H182	H	-0.091416	0.613706	0.095351
Br183	Br	0.808618	0.459915	-0.843627
H184	H	0.498942	0.590228	-0.562355
Br185	Br	0.001118	0.429360	-0.123637
H186	H	0.768344	0.257774	-0.067276
Br187	Br	0.175587	0.533571	0.458204
Br188	Br	1.020213	0.607156	-0.298986
Br189	Br	0.389852	0.812360	0.156402
Br190	Br	1.020348	0.134409	-0.087434
Br191	Br	0.144001	0.429349	-0.123640
Br192	Br	1.020305	0.134385	-0.299056
H193	H	0.842559	-0.008154	-0.104333
Br194	Br	0.458612	-0.187631	0.087633
Br195	Br	0.808598	-0.334951	-0.087379
Br196	Br	0.246989	0.932640	0.299260
Br197	Br	1.091683	0.533495	-0.457949
H198	H	0.768322	0.476793	-0.437440
H199	H	0.498944	0.590162	-0.192772
Br200	Br	1.091778	0.147842	-0.458007
Br201	Br	0.808644	0.134394	-0.087430
H202	H	0.498969	0.371168	0.067419
Br203	Br	0.808612	-0.214714	-0.087376
Br204	Br	0.882862	-0.131514	-0.124487
Br205	Br	0.458645	0.607146	-0.299042
H206	H	0.263404	0.901797	0.067462
H207	H	1.003880	0.278505	-0.437470
H208	H	0.208440	0.891475	0.425304
H209	H	0.498942	0.590250	-0.672322
H210	H	0.373422	0.695826	-0.067239
Br211	Br	0.877450	0.254648	-0.087431
Br212	Br	0.246956	0.785421	0.474283
