data_functionalizedCrystal
_audit_creation_method	'MofGen! by Chris Wilmer'
_symmetry_space_group_name_H-M	'P1'
_symmetry_Int_Tables_number	1
_symmetry_cell_setting	triclinic
loop_
_symmetry_equiv_pos_as_xyz
  x,y,z
_cell_length_a	15.944551
_cell_length_b	11.295471
_cell_length_c	12.837938
_cell_angle_alpha	94.530277
_cell_angle_beta	90.836311
_cell_angle_gamma	94.104829
loop_
_atom_site_label
_atom_site_type_symbol
_atom_site_fract_x
_atom_site_fract_y
_atom_site_fract_z
O1	O	1.130316	0.098892	-0.126729
O2	O	0.887086	0.098921	-0.143210
O3	O	1.003308	0.098908	0.015934
O4	O	1.014094	0.098905	-0.285873
O5	O	0.993089	-0.099142	0.001986
O6	O	0.876867	-0.099129	-0.157158
O7	O	1.120097	-0.099158	-0.140677
Cu8	Cu	0.997549	-0.117227	-0.150191
Cu9	Cu	1.009634	0.116990	-0.133696
O10	O	1.003875	-0.099145	-0.299821
C11	C	0.850628	-0.000101	-0.149500
C12	C	0.757219	-0.000089	-0.147447
N13	N	0.989055	-0.281963	-0.161793
C14	C	0.927972	-0.468978	-0.245412
C15	C	0.934375	-0.344315	-0.236629
C16	C	1.037335	-0.344283	-0.095733
C17	C	1.030933	-0.468946	-0.104516
C18	C	0.976251	-0.531289	-0.179359
C19	C	0.969853	-0.655955	-0.188146
C20	C	1.072809	-0.655920	-0.047246
C21	C	1.079211	-0.531257	-0.038463
C22	C	0.534078	-0.000112	-0.043900
C23	C	0.481942	0.097537	-0.085107
C24	C	0.586195	-0.000103	-0.143737
C25	C	0.471892	-0.097725	-0.098883
C26	C	0.420994	-0.000122	-0.140146
C27	C	0.535294	0.097626	-0.184966
C28	C	0.525244	-0.097724	-0.198734
C29	C	0.473134	-0.000051	-0.240012
C30	C	0.681363	-0.000092	-0.145803
C31	C	0.325828	-0.000126	-0.138087
C32	C	1.156555	-0.000134	-0.134387
C33	C	1.249965	-0.000138	-0.136439
C34	C	0.994555	-0.000114	0.047581
C35	C	0.983688	-0.000105	0.162659
N36	N	1.018133	0.281725	-0.122086
C37	C	1.114342	-0.000083	0.403610
C38	C	1.104135	-0.000074	0.511737
C39	C	0.953068	-0.000070	0.487044
C40	C	0.963275	-0.000079	0.378916
C41	C	1.043914	-0.000087	0.337204
C42	C	1.054120	-0.000105	0.229074
C43	C	0.903054	-0.000092	0.204383
C44	C	0.892848	-0.000083	0.312510
C45	C	1.012629	-0.000107	0.668533
C46	C	1.023501	-0.000069	0.553458
H47	H	0.925331	-0.706714	-0.249090
H48	H	1.081850	-0.293507	-0.034790
H49	H	0.887416	-0.000050	0.521026
H50	H	1.123731	-0.480483	0.022476
H51	H	1.112123	-0.706668	0.006536
H52	H	0.883454	-0.519739	-0.306359
H53	H	1.161485	-0.000067	0.565803
H54	H	0.562921	0.180270	-0.221341
H55	H	0.446613	0.000003	-0.322951
H56	H	0.895061	-0.293585	-0.290415
H57	H	0.560789	0.000010	0.038966
H58	H	0.462714	0.180093	-0.037066
H59	H	0.544491	-0.180283	-0.246741
H60	H	1.119780	-0.000116	0.195114
H61	H	0.444167	-0.180276	-0.062451
H62	H	1.180001	-0.000102	0.369647
H63	H	0.827194	-0.000071	0.346488
H64	H	0.845707	-0.000104	0.150302
