data_functionalizedCrystal
_audit_creation_method	'MofGen! by Chris Wilmer'
_symmetry_space_group_name_H-M	'P1'
_symmetry_Int_Tables_number	1
_symmetry_cell_setting	triclinic
loop_
_symmetry_equiv_pos_as_xyz
  x,y,z
_cell_length_a	18.050589
_cell_length_b	19.077142
_cell_length_c	19.076919
_cell_angle_alpha	89.925643
_cell_angle_beta	92.275255
_cell_angle_gamma	92.276109
loop_
_atom_site_label
_atom_site_type_symbol
_atom_site_fract_x
_atom_site_fract_y
_atom_site_fract_z
Zn1	Zn	-0.359299	-1.058246	-0.440474
Zn2	Zn	-0.025966	-0.724912	-0.107140
Zn3	Zn	0.307368	-0.391579	0.226193
Zn4	Zn	-0.478707	-1.062878	-0.322974
Zn5	Zn	-0.145374	-0.729545	0.010360
Zn6	Zn	0.187959	-0.396211	0.343693
Zn7	Zn	-0.349349	-0.945464	-0.318263
Zn8	Zn	-0.016015	-0.612131	0.015071
Zn9	Zn	0.317318	-0.278798	0.348404
Zn10	Zn	-0.478257	-0.940700	-0.435722
Zn11	Zn	-0.144924	-0.607366	-0.102389
Zn12	Zn	0.188409	-0.274033	0.230944
O13	O	-0.416403	-1.001822	-0.379358
O14	O	-0.083070	-0.668489	-0.046025
O15	O	0.250264	-0.335155	0.287309
O16	O	-0.379491	-1.157192	-0.428847
O17	O	-0.046158	-0.823858	-0.095514
O18	O	0.287175	-0.490525	0.237820
O19	O	-0.457572	-1.051235	-0.224017
O20	O	-0.124238	-0.717902	0.109316
O21	O	0.209095	-0.384569	0.442649
O22	O	-0.246747	-0.960480	-0.334491
O23	O	0.086586	-0.627147	-0.001158
O24	O	0.419920	-0.293814	0.332176
O25	O	-0.467220	-1.160595	-0.342520
O26	O	-0.133887	-0.827261	-0.009187
O27	O	0.199447	-0.493928	0.324146
O28	O	-0.254058	-1.043340	-0.424279
O29	O	0.079276	-0.710007	-0.090945
O30	O	0.412609	-0.376674	0.242388
O31	O	-0.362532	-0.964972	-0.220556
O32	O	-0.029199	-0.631639	0.112777
O33	O	0.304134	-0.298305	0.446110
O34	O	-0.362096	-0.846501	-0.329884
O35	O	-0.028763	-0.513168	0.003449
O36	O	0.304571	-0.179834	0.336783
O37	O	-0.466453	-0.952360	-0.534684
O38	O	-0.133120	-0.619027	-0.201351
O39	O	0.200213	-0.285693	0.131983
O40	O	-0.456805	-0.843000	-0.416181
O41	O	-0.123471	-0.509667	-0.082848
O42	O	0.209862	-0.176334	0.250486
O43	O	-0.379055	-1.038720	-0.538175
O44	O	-0.045722	-0.705387	-0.204841
O45	O	0.287612	-0.372054	0.128492
O46	O	-0.582569	-1.046615	-0.337913
O47	O	-0.249236	-0.713282	-0.004580
O48	O	0.084098	-0.379949	0.328753
O49	O	-0.582239	-0.956852	-0.420749
O50	O	-0.248905	-0.623518	-0.087416
O51	O	0.084428	-0.290185	0.245917
C52	C	-0.408322	-0.819254	-0.372006
C53	C	-0.074989	-0.485921	-0.038673
C54	C	0.258344	-0.152588	0.294661
C55	C	-0.404884	-0.741151	-0.368877
C56	C	-0.071550	-0.407817	-0.035544
C57	C	0.261783	-0.074484	0.297789
C58	C	-0.452647	-0.702656	-0.412267
C59	C	-0.119314	-0.369323	-0.078934
C60	C	0.214020	-0.035989	0.254399
C61	C	-0.449407	-0.629269	-0.409331
C62	C	-0.116073	-0.295936	-0.075998
C63	C	0.217260	0.037398	0.257336
C64	C	-0.398406	-0.594378	-0.363001
C65	C	-0.065073	-0.261045	-0.029668
C66	C	0.268261	0.072289	0.303666
C67	C	-0.350638	-0.632878	-0.319609
C68	C	-0.017304	-0.299545	0.013724
C69	C	0.316029	0.033789	0.347057
C70	C	-0.353875	-0.706263	-0.322550
C71	C	-0.020542	-0.372930	0.010784
C72	C	0.312791	-0.039597	0.344117
C73	C	-0.383425	-0.375092	-0.349400
C74	C	-0.050092	-0.041759	-0.016067
C75	C	0.283241	0.291575	0.317267
C76	C	-0.380193	-0.301701	-0.346462
C77	C	-0.046860	0.031632	-0.013128
C78	C	0.286474	0.364965	0.320205
C79	C	-0.478961	-0.298097	-0.436185
C80	C	-0.145628	0.035236	-0.102851
C81	C	0.187705	0.368569	0.230482
C82	C	-0.482197	-0.371485	-0.439118
C83	C	-0.148864	-0.038151	-0.105784
C84	C	0.184470	0.295182	0.227549
C85	C	-0.434426	-0.409978	-0.395729
C86	C	-0.101093	-0.076645	-0.062396
C87	C	0.232240	0.256689	0.270938
N88	N	-0.395094	-0.519365	-0.359997
N89	N	-0.061761	-0.186032	-0.026664
N90	N	0.271572	0.147302	0.306670
N91	N	-0.437735	-0.484990	-0.398737
N92	N	-0.104402	-0.151656	-0.065404
N93	N	0.228932	0.181677	0.267930
C94	C	-0.609351	-1.001738	-0.379343
C95	C	-0.276018	-0.668404	-0.046010
C96	C	0.057316	-0.335071	0.287324
C97	C	-0.691899	-1.001765	-0.379363
C98	C	-0.358565	-0.668432	-0.046029
C99	C	-0.025232	-0.335098	0.287304
C100	C	-0.891198	-0.952998	-0.424394
C101	C	-0.557865	-0.619665	-0.091061
C102	C	-0.224531	-0.286331	0.242272
C103	C	-0.937272	-0.938448	-0.359587
C104	C	-0.603938	-0.605115	-0.026253
C105	C	-0.270605	-0.271781	0.307080
C106	C	-0.843032	-1.001834	-0.379375
C107	C	-0.509699	-0.668500	-0.046041
C108	C	-0.176366	-0.335167	0.287292
C109	C	-0.944042	-1.016418	-0.444191
C110	C	-0.610709	-0.683084	-0.110857
C111	C	-0.277376	-0.349751	0.222476
C112	C	-0.989021	-1.001898	-0.379392
C113	C	-0.655688	-0.668565	-0.046058
C114	C	-0.322354	-0.335232	0.287275
C115	C	-0.888016	-0.987251	-0.314532
C116	C	-0.554683	-0.653918	0.018801
C117	C	-0.221349	-0.320585	0.352135
C118	C	-0.894786	-1.065249	-0.399180
C119	C	-0.561452	-0.731915	-0.065847
C120	C	-0.228119	-0.398582	0.267486
C121	C	-0.940836	-1.050725	-0.334330
C122	C	-0.607503	-0.717392	-0.000996
C123	C	-0.274169	-0.384058	0.332337
C124	C	-0.758932	-1.001794	-0.379366
C125	C	-0.425599	-0.668461	-0.046032
C126	C	-0.092266	-0.335128	0.287301
C127	C	-1.073119	-1.001938	-0.379393
C128	C	-0.739786	-0.668604	-0.046060
C129	C	-0.406453	-0.335271	0.287273
C130	C	-0.222703	-1.001925	-0.379389
C131	C	0.110630	-0.668592	-0.046056
C132	C	0.443964	-0.335258	0.287277
C133	C	-0.140160	-1.001969	-0.379403
C134	C	0.193174	-0.668636	-0.046069
C135	C	0.526507	-0.335302	0.287264
C136	C	-0.423814	-0.994492	-0.562638
C137	C	-0.090481	-0.661159	-0.229305
C138	C	0.242853	-0.327825	0.104028
C139	C	-0.426972	-0.991368	-0.640742
C140	C	-0.093639	-0.658035	-0.307408
C141	C	0.239695	-0.324702	0.025925
C142	C	-0.424512	-0.185103	-0.386731
C143	C	-0.091178	0.148231	-0.053398
C144	C	0.242155	0.481564	0.279936
C145	C	-0.427956	-0.263207	-0.389851
C146	C	-0.094623	0.070127	-0.056518
C147	C	0.238710	0.403460	0.276815
C148	C	-0.382954	-1.034862	-0.679253
C149	C	-0.049621	-0.701529	-0.345920
C150	C	0.283712	-0.368195	-0.012586
C151	C	-0.385918	-1.031918	-0.752639
C152	C	-0.052585	-0.698585	-0.419306
C153	C	0.280748	-0.365252	-0.085972
C154	C	-0.432905	-0.985485	-0.787512
C155	C	-0.099571	-0.652151	-0.454179
C156	C	0.233762	-0.318818	-0.120845
C157	C	-0.476924	-0.941986	-0.748995
C158	C	-0.143591	-0.608653	-0.415662
C159	C	0.189742	-0.275320	-0.082329
C160	C	-0.473956	-0.944927	-0.675611
C161	C	-0.140622	-0.611593	-0.342277
C162	C	0.192711	-0.278260	-0.008944
C163	C	-0.446659	-0.971866	-1.006794
C164	C	-0.113325	-0.638532	-0.673460
C165	C	0.220008	-0.305199	-0.340127
C166	C	-0.449626	-0.968930	-1.080184
C167	C	-0.116292	-0.635597	-0.746850
C168	C	0.217041	-0.302263	-0.413517
C169	C	-0.358618	-1.058862	-1.083822
C170	C	-0.025285	-0.725528	-0.750489
C171	C	0.308048	-0.392195	-0.417156
C172	C	-0.355657	-1.061801	-1.010436
C173	C	-0.022324	-0.728468	-0.677103
C174	C	0.311009	-0.395134	-0.343769
C175	C	-0.399674	-1.018300	-0.971926
C176	C	-0.066340	-0.684967	-0.638592
C177	C	0.266993	-0.351633	-0.305259
N178	N	-0.435938	-0.982476	-0.862524
N179	N	-0.102604	-0.649143	-0.529191
N180	N	0.230729	-0.315810	-0.195858
N181	N	-0.396637	-1.021305	-0.896915
N182	N	-0.063303	-0.687972	-0.563581
N183	N	0.270030	-0.354639	-0.230248
C184	C	-0.408969	-1.009164	-0.196792
C185	C	-0.075636	-0.675830	0.136541
C186	C	0.257698	-0.342497	0.469874
C187	C	-0.405608	-1.012424	-0.118695
C188	C	-0.072274	-0.679090	0.214638
C189	C	0.261059	-0.345757	0.547972
H190	H	-0.344532	-0.406425	-0.314064
H191	H	-0.011199	-0.073092	0.019269
H192	H	0.322134	0.260242	0.352602
Br193	Br	-0.281415	-0.585527	-0.256738
Br194	Br	0.051918	-0.252193	0.076595
Br195	Br	0.385252	0.081140	0.409928
H196	H	-0.494179	-0.731059	-0.449992
H197	H	-0.160846	-0.397725	-0.116659
H198	H	0.172487	-0.064392	0.216675
Br199	Br	-0.289047	-0.758507	-0.263665
Br200	Br	0.044286	-0.425174	0.069668
Br201	Br	0.377619	-0.091841	0.403002
H202	H	-0.869403	-0.911643	-0.462407
H203	H	-0.536069	-0.578310	-0.129074
H204	H	-0.202736	-0.244977	0.204259
H205	H	-0.875993	-1.118833	-0.415947
H206	H	-0.542660	-0.785500	-0.082614
H207	H	-0.209327	-0.452167	0.250719
Br208	Br	-0.543792	-0.245853	-0.495064
Br209	Br	-0.210459	0.087480	-0.161730
Br210	Br	0.122874	0.420813	0.171603
Br211	Br	-0.298884	-1.117894	-1.136090
Br212	Br	0.034450	-0.784561	-0.802756
Br213	Br	0.367783	-0.451227	-0.469423
H214	H	-0.487889	-0.931116	-1.108575
H215	H	-0.154556	-0.597782	-0.775242
H216	H	0.178777	-0.264449	-0.441908
H217	H	-0.488301	-0.597930	-0.444663
H218	H	-0.154968	-0.264596	-0.111330
H219	H	0.178366	0.068737	0.222004
Br220	Br	-0.319190	-1.097888	-0.631933
Br221	Br	0.014144	-0.764555	-0.298599
Br222	Br	0.347477	-0.431221	0.034734
Br223	Br	-0.976927	-1.119612	-0.270815
Br224	Br	-0.643593	-0.786278	0.062518
Br225	Br	-0.310260	-0.452945	0.395852
Br226	Br	-0.968566	-0.849111	-0.331668
Br227	Br	-0.635233	-0.515778	0.001666
Br228	Br	-0.301900	-0.182445	0.334999
H229	H	-0.863604	-0.974879	-0.259707
H230	H	-0.530271	-0.641546	0.073626
H231	H	-0.196938	-0.308213	0.406960
H232	H	-0.968540	-1.028727	-0.498998
H233	H	-0.635207	-0.695394	-0.165665
H234	H	-0.301874	-0.362061	0.167668
H235	H	-0.350076	-1.067337	-0.783992
H236	H	-0.016743	-0.734004	-0.450659
H237	H	0.316590	-0.400671	-0.117325
H238	H	-0.317398	-1.099614	-0.982048
H239	H	0.015935	-0.766281	-0.648714
H240	H	0.349269	-0.432948	-0.315381
H241	H	-0.482511	-0.936454	-0.975447
H242	H	-0.149178	-0.603121	-0.642114
H243	H	0.184155	-0.269788	-0.308781
Br244	Br	-0.540688	-0.878964	-0.796322
Br245	Br	-0.207354	-0.545630	-0.462989
Br246	Br	0.125979	-0.212297	-0.129655
Br247	Br	-0.533692	-0.885893	-0.623344
Br248	Br	-0.200358	-0.552560	-0.290010
Br249	Br	0.132975	-0.219226	0.043323
H250	H	-0.523729	-0.399888	-0.476843
H251	H	-0.190395	-0.066554	-0.143510
H252	H	0.142938	0.266779	0.189823
Br253	Br	-0.310981	-0.254350	-0.283573
Br254	Br	0.022352	0.078983	0.049760
Br255	Br	0.355685	0.412317	0.383094
