data_functionalizedCrystal
_audit_creation_method	'MofGen! by Chris Wilmer'
_symmetry_space_group_name_H-M	'P1'
_symmetry_Int_Tables_number	1
_symmetry_cell_setting	triclinic
loop_
_symmetry_equiv_pos_as_xyz
  x,y,z
_cell_length_a	6.817900
_cell_length_b	16.418049
_cell_length_c	10.773894
_cell_angle_alpha	96.344867
_cell_angle_beta	96.645922
_cell_angle_gamma	103.389670
loop_
_atom_site_label
_atom_site_type_symbol
_atom_site_fract_x
_atom_site_fract_y
_atom_site_fract_z
V1	V	-3.948413	-0.112805	-0.389372
O2	O	-3.937980	0.008588	-0.381508
O3	O	-3.899926	-0.226719	-0.387143
O4	O	-3.866089	-0.109680	-0.558992
O5	O	-3.972051	-0.109261	-0.208470
V6	V	-4.436448	-0.098449	-0.367682
O7	O	-4.199774	-0.144295	-0.436951
O8	O	-4.635285	-0.066958	-0.320102
O9	O	-4.261729	0.015465	-0.369910
O10	O	-4.564279	-0.219842	-0.375546
O11	O	-4.530207	-0.101992	-0.548584
O12	O	-4.295567	-0.101574	-0.198061
C13	C	-3.746003	-0.254532	-0.381113
C14	C	-3.787420	-0.347649	-0.380422
C15	C	-4.063518	-0.566102	-0.385095
C16	C	-4.102420	-0.653596	-0.384456
C17	C	-3.740700	-0.645151	-0.371967
C18	C	-3.701803	-0.557659	-0.372614
C19	C	-3.863218	-0.518136	-0.379172
C20	C	-3.941017	-0.693123	-0.377886
C21	C	-3.983194	-0.787988	-0.377193
C22	C	-3.821038	-0.423265	-0.379867
C23	C	-3.702840	-0.105236	-0.600321
C24	C	-3.716813	-0.103435	-0.738989
C25	C	-3.894885	-0.106557	-0.806864
C26	C	-3.909332	-0.104695	-0.950184
C27	C	-4.078994	0.043274	-0.375937
C28	C	-4.016814	0.136390	-0.376636
C29	C	-4.122159	-0.106020	-0.156726
C30	C	-4.087424	-0.107817	-0.018056
H31	H	-4.265521	-0.692647	-0.389281
O32	O	-3.584138	-0.683673	-0.365536
C33	C	-3.661420	-0.771184	-0.366262
H34	H	-3.816145	-0.782923	-0.331851
H35	H	-3.679138	-0.805543	-0.466360
C36	C	-3.322862	-0.790087	-0.320586
C37	C	-3.512890	-0.804504	-0.278311
H38	H	-3.231239	-0.810643	-0.266339
H39	H	-3.270793	-0.731130	-0.320101
H40	H	-3.337654	-0.818721	-0.404001
H41	H	-3.498100	-0.775862	-0.194904
H42	H	-3.564953	-0.863458	-0.278780
H43	H	-3.538688	-0.518604	-0.367796
O44	O	-3.740100	-0.099972	-1.007309
C45	C	-3.661321	-0.170623	-0.988918
H46	H	-3.714496	-0.197276	-0.901818
H47	H	-3.718061	-0.221181	-1.075165
C48	C	-3.361478	-0.110761	-1.076959
C49	C	-3.426775	-0.143493	-0.969975
H50	H	-3.216800	-0.094029	-1.065280
H51	H	-3.414555	-0.063164	-1.089354
H52	H	-3.408779	-0.152899	-1.148821
H53	H	-3.379495	-0.101353	-0.898119
H54	H	-3.373684	-0.191083	-0.957568
O55	O	-4.220170	-0.527632	-0.391639
C56	C	-4.224994	-0.487797	-0.500982
H57	H	-4.067629	-0.474520	-0.531853
H58	H	-4.340759	-0.530956	-0.579848
C59	C	-4.479737	-0.420221	-0.434268
C60	C	-4.286453	-0.403909	-0.472179
H61	H	-4.517657	-0.368477	-0.416505
H62	H	-4.476494	-0.447062	-0.360604
H63	H	-4.576184	-0.456189	-0.499997
H64	H	-4.190006	-0.367950	-0.406446
H65	H	-4.289682	-0.377060	-0.545832
H66	H	-3.575051	-0.099379	-0.786983
H67	H	-4.036642	-0.110602	-0.758867
H68	H	-4.229200	-0.111871	-0.970069
