data_functionalizedCrystal
_audit_creation_method	'MofGen! by Chris Wilmer'
_symmetry_space_group_name_H-M	'P1'
_symmetry_Int_Tables_number	1
_symmetry_cell_setting	triclinic
loop_
_symmetry_equiv_pos_as_xyz
  x,y,z
_cell_length_a	19.288864
_cell_length_b	15.072220
_cell_length_c	19.288865
_cell_angle_alpha	89.998082
_cell_angle_beta	96.863755
_cell_angle_gamma	90.019619
loop_
_atom_site_label
_atom_site_type_symbol
_atom_site_fract_x
_atom_site_fract_y
_atom_site_fract_z
O1	O	0.921351	0.074077	-0.086639
O2	O	1.421351	0.574077	0.413361
O3	O	0.719090	0.074018	-0.098328
O4	O	1.219090	0.574018	0.401672
O5	O	0.826065	0.074032	0.008647
O6	O	1.326065	0.574032	0.508647
O7	O	0.814376	0.074063	-0.193614
O8	O	1.314376	0.574063	0.306386
O9	O	0.826051	-0.073534	0.008633
O10	O	1.326051	0.426466	0.508633
O11	O	0.719076	-0.073547	-0.098341
O12	O	1.219076	0.426453	0.401659
O13	O	0.921337	-0.073488	-0.086653
O14	O	1.421337	0.426512	0.413347
Zn15	Zn	0.820204	-0.096947	-0.092499
Zn16	Zn	1.320204	0.403053	0.407501
Zn17	Zn	0.820222	0.097477	-0.092481
Zn18	Zn	1.320222	0.597477	0.407519
O19	O	0.814362	-0.073502	-0.193627
O20	O	1.314362	0.426498	0.306373
C21	C	0.693207	0.000227	-0.097959
C22	C	1.193207	0.500227	0.402041
C23	C	0.616103	0.000204	-0.096830
C24	C	1.116103	0.500204	0.403170
C25	C	0.571407	0.000228	-0.159598
C26	C	1.071407	0.500228	0.340402
C27	C	0.498960	0.000237	-0.158537
C28	C	0.998960	0.500237	0.341463
C29	C	0.471212	0.000241	-0.094705
C30	C	0.971212	0.500241	0.405295
C31	C	0.515918	0.000212	-0.031929
C32	C	1.015918	0.500212	0.468071
C33	C	0.588364	0.000194	-0.032991
C34	C	1.088364	0.500194	0.467009
C35	C	0.362955	0.051962	-0.044521
C36	C	0.862955	0.551962	0.455479
C37	C	0.290510	0.051986	-0.043461
C38	C	0.790510	0.551986	0.456539
C39	C	0.247767	0.000294	-0.091425
C40	C	0.747767	0.500294	0.408575
C41	C	0.277474	-0.051410	-0.140461
C42	C	0.777474	0.448590	0.359539
C43	C	0.349920	-0.051428	-0.141523
C44	C	0.849920	0.448572	0.358477
C45	C	0.392658	0.000261	-0.093546
C46	C	0.892658	0.500261	0.406454
C47	C	0.124514	0.000327	-0.153047
C48	C	0.624514	0.500327	0.346953
C49	C	0.052066	0.000331	-0.151984
C50	C	0.552066	0.500331	0.348016
C51	C	0.069026	0.000315	-0.025374
C52	C	0.569026	0.500315	0.474626
C53	C	0.141473	0.000302	-0.026439
C54	C	0.641473	0.500302	0.473561
C55	C	0.169212	0.000312	-0.090277
C56	C	0.669212	0.500312	0.409723
N57	N	0.820197	-0.229636	-0.092511
N58	N	1.320197	0.270364	0.407489
C59	C	0.820210	-0.410633	-0.092495
C60	C	1.320210	0.089367	0.407505
C61	C	0.762961	-0.448309	-0.149714
C62	C	1.262961	0.051691	0.350286
C63	C	0.762766	-0.551135	-0.149559
C64	C	1.262766	-0.051135	0.350441
C65	C	0.820222	-0.588837	-0.092480
C66	C	1.320222	-0.088837	0.407520
C67	C	0.804916	-0.551512	-0.019967
C68	C	1.304916	-0.051512	0.480033
C69	C	0.804498	-0.448655	-0.020311
C70	C	1.304498	0.051345	0.479689
C71	C	0.892943	-0.448497	-0.107134
C72	C	1.392943	0.051503	0.392866
C73	C	0.892457	-0.551362	-0.108774
C74	C	1.392457	-0.051362	0.391226
C75	C	0.820231	-0.689550	-0.092467
C76	C	1.320231	-0.189550	0.407533
C77	C	0.820200	-0.309920	-0.092503
C78	C	1.320200	0.190080	0.407497
C79	C	0.947220	0.000304	-0.087022
C80	C	1.447220	0.500304	0.412978
C81	C	1.024324	0.000334	-0.088151
C82	C	1.524324	0.500334	0.411849
C83	C	0.825682	0.000246	0.034516
C84	C	1.325682	0.500246	0.534516
C85	C	0.824553	0.000238	0.111620
C86	C	1.324553	0.500238	0.611620
N87	N	0.820235	0.230165	-0.092464
N88	N	1.320235	0.730165	0.407536
C89	C	0.814745	0.000285	-0.219497
C90	C	1.314745	0.500285	0.280503
C91	C	0.815874	0.000299	-0.296601
C92	C	1.315874	0.500299	0.203399
C93	C	0.887321	0.000252	0.156316
C94	C	1.387321	0.500252	0.656316
C95	C	0.886260	0.000266	0.228763
C96	C	1.386260	0.500266	0.728763
C97	C	0.822428	0.000248	0.256511
C98	C	1.322428	0.500248	0.756511
C99	C	0.759652	0.000239	0.211805
C100	C	1.259652	0.500239	0.711805
C101	C	0.760714	0.000234	0.139359
C102	C	1.260714	0.500234	0.639359
C103	C	0.772243	-0.051456	0.364794
C104	C	1.272243	0.448544	0.864794
C105	C	0.771184	-0.051456	0.437238
C106	C	1.271184	0.448544	0.937238
C107	C	0.819148	0.000267	0.479956
C108	C	1.319148	0.500267	0.979956
C109	C	0.868184	0.051979	0.450223
C110	C	1.368184	0.551979	0.950223
C111	C	0.869247	0.051974	0.377778
C112	C	1.369247	0.551974	0.877778
C113	C	0.821269	0.000254	0.335065
C114	C	1.321269	0.500254	0.835065
C115	C	0.880770	0.000297	0.603209
C116	C	1.380770	0.500297	1.103209
C117	C	0.879707	0.000316	0.675657
C118	C	1.379707	0.500316	1.175657
C119	C	0.753097	0.000280	0.658697
C120	C	1.253097	0.500280	1.158697
C121	C	0.754162	0.000270	0.586250
C122	C	1.254162	0.500270	1.086250
C123	C	0.818001	0.000274	0.558511
C124	C	1.318001	0.500274	1.058511
H125	H	0.266328	0.094090	-0.003536
H126	H	0.766328	0.594090	0.496464
H127	H	0.703049	0.000253	0.549857
H128	H	1.203049	0.500253	1.049857
O129	O	0.912587	-0.414141	-0.175693
O130	O	1.412587	0.085859	0.324307
H131	H	0.915708	-0.340629	-0.173855
H132	H	1.415708	0.159371	0.326145
H133	H	0.907241	0.094097	0.485003
H134	H	1.407241	0.594097	0.985003
H135	H	0.397752	0.094060	-0.005461
H136	H	0.897752	0.594060	0.494539
O137	O	0.189689	0.000284	0.041261
O138	O	0.689689	0.500284	0.541261
H139	H	0.158225	0.000294	0.085827
H140	H	0.658225	0.500294	0.585827
H141	H	0.909172	0.094082	0.353572
H142	H	1.409172	0.594082	0.853572
O143	O	0.485997	0.000217	0.036921
O144	O	0.985997	0.500217	0.536921
H145	H	0.428112	0.000242	0.027116
H146	H	0.928112	0.500242	0.527116
O147	O	0.858706	-0.583859	0.037809
O148	O	1.358706	-0.083859	0.537809
H149	H	0.897010	-0.626987	0.015399
H150	H	1.397010	-0.126987	0.515399
H151	H	0.242673	-0.093502	-0.179517
H152	H	0.742673	0.406498	0.320483
H153	H	0.707679	0.000226	0.234401
H154	H	1.207679	0.500226	0.734401
H155	H	0.046435	0.000373	0.026600
H156	H	0.546435	0.500373	0.526600
O157	O	0.636579	0.000172	0.034711
O158	O	1.136579	0.500172	0.534711
H159	H	0.605117	0.000179	0.079278
H160	H	1.105117	0.500179	0.579278
H161	H	0.751470	-0.424698	-0.007419
H162	H	1.251470	0.075302	0.492581
H163	H	0.147101	0.000323	-0.205028
H164	H	0.647101	0.500323	0.294972
H165	H	0.930822	0.000332	0.712049
H166	H	1.430822	0.500332	1.212049
O167	O	0.381976	-0.107195	-0.194396
O168	O	0.881976	0.392805	0.305604
H169	H	0.418728	-0.155739	-0.166765
H170	H	0.918728	0.344261	0.333235
H171	H	0.932751	0.000304	0.580622
H172	H	1.432751	0.500304	1.080622
O173	O	0.774748	-0.584577	-0.220951
O174	O	1.274748	-0.084577	0.279049
H175	H	0.780729	-0.527282	-0.255900
H176	H	1.280729	-0.027282	0.244100
H177	H	0.904077	-0.575742	-0.162124
H178	H	1.404077	-0.075742	0.337876
H179	H	0.771841	-0.423573	-0.203799
H180	H	1.271841	0.076427	0.296201
O181	O	0.720507	-0.107250	0.318724
O182	O	1.220507	0.392750	0.818724
H183	H	0.749094	-0.155786	0.289483
H184	H	1.249094	0.344214	0.789483
H185	H	0.701123	0.000270	0.681288
H186	H	1.201123	0.500270	1.181288
O187	O	0.003857	0.000350	-0.219690
O188	O	0.503857	0.500350	0.280310
H189	H	-0.051180	0.000349	-0.208228
H190	H	0.448820	0.500349	0.291772
O191	O	0.718300	-0.107230	0.469308
O192	O	1.218300	0.392770	0.969308
H193	H	0.685117	-0.143184	0.427433
H194	H	1.185117	0.356816	0.927433
O195	O	0.693008	0.000207	0.091150
O196	O	1.193008	0.500207	0.591150
H197	H	0.690464	0.060349	0.057735
H198	H	1.190464	0.560349	0.557735
O199	O	0.691848	-0.414143	-0.137492
O200	O	1.191848	0.085857	0.362508
H201	H	0.697100	-0.370444	-0.090841
H202	H	1.197100	0.129556	0.409159
O203	O	0.601317	0.000224	-0.228454
O204	O	1.101317	0.500224	0.271546
H205	H	0.633940	0.060362	-0.231970
H206	H	1.133940	0.560362	0.268030
H207	H	0.708787	-0.575777	-0.140195
H208	H	1.208787	-0.075777	0.359805
O209	O	0.857658	-0.415634	0.037793
O210	O	1.357658	0.084366	0.537793
H211	H	0.883444	-0.473136	0.066098
H212	H	1.383444	0.026864	0.566098
H213	H	0.752505	-0.577313	-0.006753
H214	H	1.252505	-0.077313	0.493247
O215	O	0.951493	-0.585350	-0.057153
O216	O	1.451493	-0.085350	0.442847
H217	H	0.942933	-0.564460	-0.003656
H218	H	1.442933	-0.064460	0.496344
O219	O	0.949374	-0.416215	-0.051870
O220	O	1.449374	0.083785	0.448130
H221	H	0.925779	-0.373410	-0.014155
H222	H	1.425779	0.126590	0.485845
H223	H	0.939303	0.000259	0.133736
H224	H	1.439303	0.500259	0.633736
H225	H	0.462561	0.000254	-0.209652
H226	H	0.962561	0.500254	0.290348
O227	O	0.953961	0.000269	0.276986
O228	O	1.453961	0.500269	0.776986
H229	H	0.998530	0.000264	0.245525
H230	H	1.498530	0.500264	0.745525
