data_functionalizedCrystal
_audit_creation_method	'MofGen! by Chris Wilmer'
_symmetry_space_group_name_H-M	'P1'
_symmetry_Int_Tables_number	1
_symmetry_cell_setting	triclinic
loop_
_symmetry_equiv_pos_as_xyz
  x,y,z
_cell_length_a	17.077404
_cell_length_b	19.077432
_cell_length_c	17.077396
_cell_angle_alpha	92.327207
_cell_angle_beta	90.018362
_cell_angle_gamma	87.725003
loop_
_atom_site_label
_atom_site_type_symbol
_atom_site_fract_x
_atom_site_fract_y
_atom_site_fract_z
Zn1	Zn	1.212591	-0.280236	0.431266
Zn2	Zn	1.712591	0.219764	0.931266
Zn3	Zn	1.217764	-0.397938	0.294728
Zn4	Zn	1.717764	0.102062	0.794728
Zn5	Zn	1.081324	-0.280256	0.300016
Zn6	Zn	1.581324	0.219744	0.800016
Zn7	Zn	1.086555	-0.397891	0.425956
Zn8	Zn	1.586555	0.102109	0.925956
O9	O	1.149558	-0.339080	0.362992
O10	O	1.649558	0.160920	0.862992
O11	O	1.323125	-0.295860	0.413163
O12	O	1.823125	0.204140	0.913163
O13	O	1.199641	-0.382355	0.185581
O14	O	1.699641	0.117645	0.685581
O15	O	1.094383	-0.181763	0.321862
O16	O	1.594383	0.318237	0.821862
O17	O	1.326925	-0.382335	0.312849
O18	O	1.826925	0.117665	0.812849
O19	O	1.190825	-0.181749	0.418291
O20	O	1.690825	0.318251	0.918291
O21	O	1.099399	-0.295894	0.189466
O22	O	1.599399	0.204106	0.689466
O23	O	0.972170	-0.295849	0.316713
O24	O	1.472170	0.204151	0.816713
O25	O	1.103298	-0.382256	0.536509
O26	O	1.603298	0.117744	1.036509
O27	O	0.976013	-0.382276	0.409241
O28	O	1.476013	0.117724	0.909241
O29	O	1.195897	-0.295815	0.540410
O30	O	1.695897	0.204185	1.040410
O31	O	1.204713	-0.496421	0.307700
O32	O	1.704713	0.003579	0.807700
O33	O	1.108314	-0.496387	0.404113
O34	O	1.608314	0.003613	0.904113
C35	C	0.945610	-0.339060	0.362975
C36	C	1.445610	0.160940	0.862975
C37	C	0.858360	-0.339069	0.362986
C38	C	1.358360	0.160931	0.862986
C39	C	0.815396	-0.294121	0.415292
C40	C	1.315396	0.205879	0.915292
C41	C	0.733415	-0.294126	0.415296
C42	C	1.233415	0.205874	0.915296
C43	C	0.694402	-0.339082	0.362996
C44	C	1.194402	0.160918	0.862996
C45	C	0.737372	-0.384031	0.310683
C46	C	1.237372	0.115969	0.810683
C47	C	0.819351	-0.384023	0.310677
C48	C	1.319351	0.115977	0.810677
C49	C	0.566503	-0.384047	0.310702
C50	C	1.066503	0.115953	0.810702
C51	C	0.484518	-0.384057	0.310710
C52	C	0.984518	0.115943	0.810710
C53	C	0.480568	-0.294150	0.415321
C54	C	0.980568	0.205850	0.915321
C55	C	0.562546	-0.294141	0.415314
C56	C	1.062546	0.205859	0.915314
C57	C	0.605511	-0.339092	0.363003
C58	C	1.105511	0.160908	0.863003
C59	C	1.157663	-0.521942	0.354774
C60	C	1.657663	-0.021942	0.854774
C61	C	1.161202	-0.600170	0.351285
C62	C	1.661202	-0.100170	0.851285
C63	C	1.112641	-0.636930	0.399801
C64	C	1.612641	-0.136930	0.899801
C65	C	1.115970	-0.710435	0.396519
C66	C	1.615970	-0.210435	0.896519
C67	C	1.167864	-0.747178	0.344725
C68	C	1.667864	-0.247178	0.844725
C69	C	1.216428	-0.710413	0.296203
C70	C	1.716428	-0.210413	0.796203
C71	C	1.213095	-0.636910	0.299481
C72	C	1.713095	-0.136910	0.799481
C73	C	1.183216	-0.967008	0.329538
C74	C	1.683216	-0.467008	0.829538
C75	C	1.186547	-1.040516	0.326265
C76	C	1.686547	-0.540516	0.826265
C77	C	1.086087	-1.040533	0.426581
C78	C	1.586087	-0.540533	0.926581
C79	C	1.082762	-0.967028	0.429858
C80	C	1.582762	-0.467028	0.929858
C81	C	1.131322	-0.930270	0.381333
C82	C	1.631322	-0.430270	0.881333
N83	N	1.171270	-0.822311	0.341371
N84	N	1.671270	-0.322311	0.841371
N85	N	1.127912	-0.855138	0.384684
N86	N	1.627912	-0.355138	0.884684
C87	C	1.354304	-0.339101	0.363009
C88	C	1.854304	0.160899	0.863009
C89	C	1.441554	-0.339109	0.363016
C90	C	1.941554	0.160891	0.863016
C91	C	1.149604	-0.339028	0.567738
C92	C	1.649604	0.160972	1.067738
C93	C	1.149623	-0.339006	0.654989
C94	C	1.649623	0.160994	1.154989
C95	C	1.141443	-0.155505	0.371258
C96	C	1.641443	0.344495	0.871258
C97	C	1.137985	-0.077276	0.374781
C98	C	1.637985	0.422724	0.874781
C99	C	1.149556	-0.339081	0.159044
C100	C	1.649556	0.160919	0.659044
C101	C	1.149680	-0.338905	0.071802
C102	C	1.649680	0.161095	0.571802
C103	C	1.197841	-0.293993	0.698012
C104	C	1.697841	0.206007	1.198012
C105	C	1.197849	-0.293969	0.779994
C106	C	1.697849	0.206031	1.279994
C107	C	1.149643	-0.338963	0.818951
C108	C	1.649643	0.161037	1.318951
C109	C	1.101420	-0.383979	0.775922
C110	C	1.601420	0.116021	1.275922
C111	C	1.101408	-0.383998	0.693942
C112	C	1.601408	0.116002	1.193942
C113	C	1.101450	-0.383937	0.946794
C114	C	1.601450	0.116063	1.446794
C115	C	1.101463	-0.383918	1.028779
C116	C	1.601463	0.116082	1.528779
C117	C	1.197891	-0.293907	1.032846
C118	C	1.697891	0.206093	1.532846
C119	C	1.197879	-0.293927	0.950866
C120	C	1.697879	0.206073	1.450866
C121	C	1.149656	-0.338944	0.907842
C122	C	1.649656	0.161056	1.407842
H123	H	0.601482	-0.420649	0.268103
H124	H	1.101482	0.079351	0.768103
H125	H	1.062136	-0.420646	0.658914
H126	H	1.562136	0.079354	1.158914
Cl127	Cl	1.040815	-0.440541	0.824896
Cl128	Cl	1.540815	0.059459	1.324896
Cl129	Cl	1.274141	-0.590697	0.238482
Cl130	Cl	1.774141	-0.090697	0.738482
Cl131	Cl	0.435474	-0.440591	0.244978
Cl132	Cl	0.935474	0.059409	0.744978
H133	H	1.222757	-0.937084	0.290029
H134	H	1.722757	-0.437084	0.790029
Cl135	Cl	1.281667	-0.756604	0.231089
Cl136	Cl	1.781667	-0.256604	0.731089
Cl137	Cl	0.426555	-0.237639	0.481082
Cl138	Cl	0.926555	0.262361	0.981082
H139	H	0.705600	-0.420632	0.268096
H140	H	1.205600	0.079368	0.768096
H141	H	0.847155	-0.257514	0.457883
H142	H	1.347155	0.242486	0.957883
H143	H	0.854332	-0.420623	0.268083
H144	H	1.354332	0.079377	0.768083
H145	H	1.237098	-0.257355	0.666299
H146	H	1.737098	0.242645	1.166299
H147	H	1.070386	-0.607019	0.441981
H148	H	1.570386	-0.107019	0.941981
Cl149	Cl	1.040851	-0.440476	1.077753
Cl150	Cl	1.540851	0.059524	1.577753
H151	H	1.228810	-1.070430	0.284088
H152	H	1.728810	-0.570430	0.784088
Cl153	Cl	1.258505	-0.237409	0.834075
Cl154	Cl	1.758505	0.262591	1.334075
H155	H	1.076419	-0.740362	0.436019
H156	H	1.576419	-0.240362	0.936019
H157	H	0.698437	-0.257526	0.457890
H158	H	1.198437	0.242474	0.957890
H159	H	1.040505	-0.937114	0.472033
H160	H	1.540505	-0.437114	0.972033
H161	H	1.237137	-0.257292	0.919149
H162	H	1.737137	0.242708	1.419149
Cl163	Cl	1.258514	-0.237316	1.086931
Cl164	Cl	1.758514	0.262684	1.586931
H165	H	0.594309	-0.257538	0.457906
H166	H	1.094309	0.242462	0.957906
Cl167	Cl	1.025041	-1.086748	0.487576
Cl168	Cl	1.525041	-0.586748	0.987576
Cl169	Cl	1.040825	-0.440529	0.892709
Cl170	Cl	1.540825	0.059471	1.392709
