data_functionalizedCrystal
_audit_creation_method	'MofGen! by Chris Wilmer'
_symmetry_space_group_name_H-M	'P1'
_symmetry_Int_Tables_number	1
_symmetry_cell_setting	triclinic
loop_
_symmetry_equiv_pos_as_xyz
  x,y,z
_cell_length_a	12.784890
_cell_length_b	12.837942
_cell_length_c	16.176319
_cell_angle_alpha	89.994101
_cell_angle_beta	89.993372
_cell_angle_gamma	83.967749
loop_
_atom_site_label
_atom_site_type_symbol
_atom_site_fract_x
_atom_site_fract_y
_atom_site_fract_z
O1	O	1.410974	0.006429	-0.068721
O2	O	1.910974	0.506429	0.431279
O3	O	1.105974	0.050423	-0.068728
O4	O	1.605974	0.550423	0.431272
O5	O	1.251711	-0.121867	-0.068720
O6	O	1.751711	0.378133	0.431280
O7	O	1.265237	0.178719	-0.068730
O8	O	1.765237	0.678719	0.431270
O9	O	1.251688	-0.121875	0.068773
O10	O	1.751688	0.378125	0.568773
O11	O	1.105951	0.050415	0.068765
O12	O	1.605951	0.550415	0.568765
O13	O	1.410950	0.006421	0.068772
O14	O	1.910950	0.506421	0.568772
Cu15	Cu	1.258448	0.028417	0.081323
Cu16	Cu	1.758448	0.528417	0.581323
Cu17	Cu	1.258476	0.028427	-0.081279
Cu18	Cu	1.758476	0.528427	0.418721
O19	O	1.265214	0.178711	0.068764
O20	O	1.765214	0.678711	0.568764
C21	C	1.066653	0.053280	0.000018
C22	C	1.566653	0.553280	0.500018
C23	C	0.949521	0.061794	0.000015
C24	C	1.449521	0.561794	0.500015
C25	C	0.781351	0.168495	0.000010
C26	C	1.281351	0.668495	0.500010
C27	C	0.891407	0.160502	0.000011
C28	C	1.391407	0.660502	0.500011
C29	C	0.897572	-0.028928	0.000017
C30	C	1.397572	0.471072	0.500017
C31	C	0.787516	-0.020935	0.000016
C32	C	1.287516	0.479065	0.500016
C33	C	0.729410	0.077780	0.000014
C34	C	1.229410	0.577780	0.500014
C35	C	0.619353	0.085771	0.000020
C36	C	1.119353	0.585771	0.500020
C37	C	0.625519	-0.103657	0.000020
C38	C	1.125519	0.396343	0.500020
C39	C	0.735575	-0.111650	0.000020
C40	C	1.235575	0.388350	0.500020
C41	C	1.247130	-0.160080	0.000026
C42	C	1.747130	0.339920	0.500026
C43	C	1.233502	-0.273929	0.000025
C44	C	1.733502	0.226071	0.500025
C45	C	1.397334	-0.529655	0.000011
C46	C	1.897334	-0.029655	0.500011
C47	C	1.384534	-0.636627	0.000009
C48	C	1.884534	-0.136627	0.500009
C49	C	1.195104	-0.594847	0.000014
C50	C	1.695104	-0.094847	0.500014
C51	C	1.207904	-0.487875	0.000015
C52	C	1.707904	0.012125	0.500015
C53	C	1.309022	-0.455284	0.000015
C54	C	1.809022	0.044716	0.500015
C55	C	1.321820	-0.348309	0.000023
C56	C	1.821820	0.151691	0.500023
C57	C	1.132391	-0.306531	0.000021
C58	C	1.632391	0.193469	0.500021
C59	C	1.119592	-0.413503	0.000020
C60	C	1.619592	0.086497	0.500020
C61	C	1.450272	0.003563	0.000025
C62	C	1.950272	0.503563	0.500025
C63	C	1.567404	-0.004950	0.000022
C64	C	2.067404	0.495050	0.500022
C65	C	1.269795	0.216924	0.000016
C66	C	1.769795	0.716924	0.500016
C67	C	1.283422	0.330772	0.000012
C68	C	1.783422	0.830772	0.500012
N69	N	1.258437	0.028409	0.195688
N70	N	1.758437	0.528409	0.695688
N71	N	1.258495	0.028426	-0.195644
N72	N	1.758495	0.528426	0.304356
C73	C	1.322993	-0.047854	0.238956
C74	C	1.822993	0.452146	0.738956
C75	C	1.322999	-0.047856	0.325503
C76	C	1.822999	0.452144	0.825503
C77	C	1.258452	0.028411	0.368781
C78	C	1.758452	0.528411	0.868781
C79	C	1.193888	0.104679	0.325507
C80	C	1.693888	0.604679	0.825507
C81	C	1.193878	0.104675	0.238961
C82	C	1.693878	0.604675	0.738961
C83	C	1.193926	0.104695	0.674535
C84	C	1.693926	0.604695	1.174535
C85	C	1.193943	0.104695	0.761086
C86	C	1.693943	0.604695	1.261086
C87	C	1.323047	-0.047836	0.761077
C88	C	1.823047	0.452164	1.261077
C89	C	1.323037	-0.047840	0.674531
C90	C	1.823037	0.452160	1.174531
C91	C	1.258469	0.028424	0.631265
C92	C	1.758469	0.528424	1.131265
C93	C	1.258463	0.028423	0.537421
C94	C	1.758463	0.528423	1.037421
C95	C	1.258463	0.028417	0.462623
C96	C	1.758463	0.528417	0.962623
H97	H	0.782900	-0.192020	0.000019
H98	H	1.282900	0.307980	0.500019
N99	N	1.086051	-0.630013	0.000010
N100	N	1.586051	-0.130013	0.500010
H101	H	1.032042	-0.566668	0.000011
H102	H	1.532042	-0.066668	0.500011
H103	H	1.076630	-0.673474	-0.050966
H104	H	1.576630	-0.173474	0.449034
N105	N	0.718681	0.274962	0.000022
N106	N	1.218681	0.774962	0.500022
H107	H	0.736491	0.314990	-0.050945
H108	H	1.236491	0.814990	0.449055
H109	H	0.641100	0.266177	0.000055
H110	H	1.141100	0.766177	0.500055
H111	H	0.572044	0.166150	0.000023
H112	H	1.072044	0.666150	0.500023
N113	N	1.392619	-0.130110	0.192281
N114	N	1.892619	0.369890	0.692281
H115	H	1.433514	-0.178423	0.232827
H116	H	1.933514	0.321577	0.732827
H117	H	1.347696	-0.171914	0.156384
H118	H	1.847696	0.328086	0.656384
H119	H	0.583217	-0.177525	-0.000042
H120	H	1.083217	0.322475	0.499958
N121	N	1.506391	-0.494498	0.000023
N122	N	2.006391	0.005502	0.500023
H123	H	1.501098	-0.415446	0.000029
H124	H	2.001098	0.084554	0.500029
H125	H	1.545491	-0.522328	0.050999
H126	H	2.045491	-0.022328	0.550999
H127	H	1.404156	-0.321777	0.000026
H128	H	1.904156	0.178223	0.500026
N129	N	0.947432	0.258344	-0.000001
N130	N	1.447432	0.758344	0.499999
H131	H	0.893918	0.322087	-0.000004
H132	H	1.393918	0.822087	0.499996
H133	H	0.992955	0.259155	0.050968
H134	H	1.492955	0.759155	0.550968
N135	N	1.392667	-0.130079	0.372172
N136	N	1.892667	0.369921	0.872172
H137	H	1.433574	-0.178379	0.331623
H138	H	1.933574	0.321621	0.831623
H139	H	1.443200	-0.094875	0.408052
H140	H	1.943200	0.405125	0.908052
H141	H	0.944901	-0.109296	0.000012
H142	H	1.444901	0.390704	0.500012
N143	N	1.010531	-0.448652	0.000022
N144	N	1.510531	0.051348	0.500022
H145	H	1.000998	-0.492095	-0.050947
H146	H	1.500998	0.007905	0.449053
H147	H	1.001064	-0.492066	0.051024
H148	H	1.501064	0.007934	0.551024
N149	N	1.479783	-0.716845	0.000003
N150	N	1.979783	-0.216845	0.500003
H151	H	1.545780	-0.679962	0.000003
H152	H	2.045780	-0.179962	0.500003
H153	H	1.478594	-0.762145	0.050973
H154	H	1.978594	-0.262145	0.550973
H155	H	1.060481	-0.245964	0.000031
H156	H	1.560481	0.254036	0.500031
H157	H	1.375600	-0.109941	0.639297
H158	H	1.875600	0.390059	1.139297
N159	N	1.392689	-0.130097	0.807742
N160	N	1.892689	0.369903	1.307742
H161	H	1.382902	-0.118529	0.869136
H162	H	1.882902	0.381471	1.369136
H163	H	1.373149	-0.201884	0.792623
H164	H	1.873149	0.298116	1.292623
N165	N	1.124315	0.186952	0.807768
N166	N	1.624315	0.686952	1.307768
H167	H	1.083405	0.235262	0.767227
H168	H	1.583405	0.735262	1.267227
H169	H	1.073785	0.151782	0.843688
H170	H	1.573785	0.651782	1.343688
H171	H	1.141355	0.166793	0.639314
H172	H	1.641355	0.666793	1.139314
N173	N	1.124260	0.186934	0.372180
N174	N	1.624260	0.686934	0.872180
H175	H	1.134063	0.175367	0.433572
H176	H	1.634063	0.675367	0.933572
H177	H	1.143799	0.258720	0.357039
H178	H	1.643799	0.758720	0.857039
H179	H	1.141308	0.166775	0.203733
H180	H	1.641308	0.666775	0.703733
