data_functionalizedCrystal
_audit_creation_method	'MofGen! by Chris Wilmer'
_symmetry_space_group_name_H-M	'P1'
_symmetry_Int_Tables_number	1
_symmetry_cell_setting	triclinic
loop_
_symmetry_equiv_pos_as_xyz
  x,y,z
_cell_length_a	19.077068
_cell_length_b	12.759393
_cell_length_c	12.759401
_cell_angle_alpha	89.981425
_cell_angle_beta	92.327351
_cell_angle_gamma	92.261180
loop_
_atom_site_label
_atom_site_type_symbol
_atom_site_fract_x
_atom_site_fract_y
_atom_site_fract_z
Zn1	Zn	-0.280150	-0.610736	1.589361
Zn2	Zn	0.053183	-0.277403	1.922695
Zn3	Zn	0.386516	0.055930	2.256028
Zn4	Zn	-0.397866	-0.442095	1.582157
Zn5	Zn	-0.064533	-0.108762	1.915491
Zn6	Zn	0.268801	0.224572	2.248824
Zn7	Zn	-0.280188	-0.435078	1.413661
Zn8	Zn	0.053146	-0.101744	1.746994
Zn9	Zn	0.386479	0.231589	2.080328
Zn10	Zn	-0.397812	-0.617733	1.406557
Zn11	Zn	-0.064479	-0.284400	1.739890
Zn12	Zn	0.268854	0.048934	2.073223
O13	O	-0.339004	-0.526410	1.497934
O14	O	-0.005671	-0.193077	1.831267
O15	O	0.327663	0.140256	2.164601
O16	O	-0.295772	-0.588374	1.735426
O17	O	0.037561	-0.255041	2.068760
O18	O	0.370894	0.078292	2.402093
O19	O	-0.382294	-0.294145	1.559764
O20	O	-0.048961	0.039188	1.893097
O21	O	0.284373	0.372521	2.226431
O22	O	-0.181692	-0.452514	1.442956
O23	O	0.151641	-0.119181	1.776290
O24	O	0.484974	0.214153	2.109623
O25	O	-0.382258	-0.464474	1.730133
O26	O	-0.048924	-0.131141	2.063467
O27	O	0.284409	0.202192	2.396800
O28	O	-0.181665	-0.581570	1.572042
O29	O	0.151669	-0.248236	1.905376
O30	O	0.485002	0.085097	2.238709
O31	O	-0.295836	-0.288990	1.435971
O32	O	0.037497	0.044344	1.769304
O33	O	0.370830	0.377677	2.102637
O34	O	-0.295784	-0.459298	1.265698
O35	O	0.037549	-0.125965	1.599031
O36	O	0.370883	0.207368	1.932365
O37	O	-0.382166	-0.763824	1.430848
O38	O	-0.048833	-0.430490	1.764181
O39	O	0.284501	-0.097157	2.097514
O40	O	-0.382202	-0.593495	1.260478
O41	O	-0.048869	-0.260161	1.593812
O42	O	0.284464	0.073172	1.927145
O43	O	-0.295720	-0.758683	1.565153
O44	O	0.037613	-0.425350	1.898487
O45	O	0.370946	-0.092017	2.231820
O46	O	-0.496350	-0.471259	1.552875
O47	O	-0.163016	-0.137926	1.886209
O48	O	0.170317	0.195408	2.219542
O49	O	-0.496310	-0.600299	1.423862
O50	O	-0.162977	-0.266966	1.757196
O51	O	0.170357	0.066367	2.090529
C52	C	-0.338992	-0.526395	1.224967
C53	C	-0.005659	-0.193062	1.558301
C54	C	0.327675	0.140272	1.891634
C55	C	-0.339004	-0.526414	1.108190
C56	C	-0.005670	-0.193081	1.441523
C57	C	0.327663	0.140252	1.774857
C58	C	-0.521867	-0.537323	1.486845
C59	C	-0.188534	-0.203989	1.820178
C60	C	0.144799	0.129344	2.153511
C61	C	-0.600097	-0.542026	1.482197
C62	C	-0.266764	-0.208693	1.815530
C63	C	0.066570	0.124640	2.148863
C64	C	-0.338933	-0.800440	1.498012
C65	C	-0.005600	-0.467106	1.831345
C66	C	0.327734	-0.133773	2.164678
C67	C	-0.338903	-0.917215	1.498045
C68	C	-0.005569	-0.583881	1.831378
C69	C	0.327764	-0.250548	2.164711
C70	C	-0.636847	-0.477107	1.547235
C71	C	-0.303513	-0.143774	1.880569
C72	C	0.029820	0.189559	2.213902
C73	C	-0.710352	-0.481537	1.542870
C74	C	-0.377018	-0.148204	1.876203
C75	C	-0.043685	0.185129	2.209536
C76	C	-0.747106	-0.550882	1.473460
C77	C	-0.413772	-0.217548	1.806793
C78	C	-0.080439	0.115785	2.140126
C79	C	-0.710351	-0.615808	1.408418
C80	C	-0.377018	-0.282474	1.741752
C81	C	-0.043684	0.050859	2.075085
C82	C	-0.636847	-0.611382	1.412790
C83	C	-0.303514	-0.278049	1.746123
C84	C	0.029819	0.055284	2.079456
C85	C	-0.966939	-0.571321	1.453182
C86	C	-0.633605	-0.237987	1.786515
C87	C	-0.300272	0.095346	2.119849
C88	C	-1.040447	-0.575739	1.448813
C89	C	-0.707114	-0.242406	1.782146
C90	C	-0.373781	0.090928	2.115480
C91	C	-1.040443	-0.441469	1.583267
C92	C	-0.707110	-0.108136	1.916600
C93	C	-0.373776	0.225197	2.249933
C94	C	-0.966938	-0.437046	1.587627
C95	C	-0.633605	-0.103712	1.920961
C96	C	-0.300271	0.229621	2.254294
C97	C	-0.930190	-0.501975	1.522590
C98	C	-0.596856	-0.168642	1.855923
C99	C	-0.263523	0.164691	2.189257
N100	N	-0.822240	-0.555409	1.468993
N101	N	-0.488906	-0.222076	1.802327
N102	N	-0.155573	0.111257	2.135660
N103	N	-0.855057	-0.497452	1.527062
N104	N	-0.521724	-0.164119	1.860396
N105	N	-0.188390	0.169214	2.193729
C106	C	-0.155427	-0.515479	1.509095
C107	C	0.177907	-0.182145	1.842429
C108	C	0.511240	0.151188	2.175762
C109	C	-0.077197	-0.510820	1.513852
C110	C	0.256136	-0.177487	1.847185
C111	C	0.589470	0.155847	2.180518
C112	C	-0.293876	-0.969391	1.433610
C113	C	0.039457	-0.636058	1.766944
C114	C	0.372791	-0.302724	2.100277
C115	C	-0.293854	-1.079114	1.433636
C116	C	0.039479	-0.745780	1.766969
C117	C	0.372812	-0.412447	2.100303
C118	C	-0.383888	-1.084474	1.562540
C119	C	-0.050555	-0.751141	1.895873
C120	C	0.282779	-0.417808	2.229206
C121	C	-0.383913	-0.974754	1.562508
C122	C	-0.050579	-0.641420	1.895841
C123	C	0.282754	-0.308087	2.229174
C124	C	-0.339024	-0.253444	1.497920
C125	C	-0.005691	0.079889	1.831254
C126	C	0.327642	0.413222	2.164587
C127	C	-0.338856	-0.136658	1.498103
C128	C	-0.005523	0.196675	1.831436
C129	C	0.327810	0.530009	2.164769
C130	C	-0.294052	-0.591037	1.056080
C131	C	0.039281	-0.257704	1.389413
C132	C	0.372614	0.075629	1.722746
C133	C	-0.294059	-0.591045	0.946355
C134	C	0.039274	-0.257711	1.279689
C135	C	0.372607	0.075622	1.613022
C136	C	-0.383976	-0.461803	0.940861
C137	C	-0.050642	-0.128470	1.274194
C138	C	0.282691	0.204863	1.607527
C139	C	-0.383964	-0.461791	1.050583
C140	C	-0.050631	-0.128458	1.383917
C141	C	0.282702	0.204876	1.717250
C142	C	-0.339017	-0.526427	1.771967
C143	C	-0.005683	-0.193093	2.105300
C144	C	0.327650	0.140240	2.438633
C145	C	-0.339022	-0.526434	1.888743
C146	C	-0.005689	-0.193100	2.222076
C147	C	0.327645	0.140233	2.555409
H148	H	-0.606926	-0.420635	1.603752
H149	H	-0.273593	-0.087302	1.937085
H150	H	0.059740	0.246032	2.270418
Br151	Br	-0.232756	-1.149922	1.346166
Br152	Br	0.100577	-0.816588	1.679500
Br153	Br	0.433911	-0.483255	2.012833
H154	H	-0.420582	-0.932271	1.614981
H155	H	-0.087248	-0.598938	1.948314
H156	H	0.246085	-0.265604	2.281647
H157	H	-0.257440	-0.643654	1.102980
H158	H	0.075893	-0.310321	1.436314
H159	H	0.409226	0.023012	1.769647
Br160	Br	-0.232793	-0.891305	1.346123
Br161	Br	0.100541	-0.557972	1.679456
Br162	Br	0.433874	-0.224639	2.012790
H163	H	-0.420570	-0.409162	1.093012
H164	H	-0.087237	-0.075828	1.426346
H165	H	0.246097	0.257505	1.759679
Br166	Br	-0.233048	-0.678747	0.875638
Br167	Br	0.100285	-0.345414	1.208971
Br168	Br	0.433618	-0.012081	1.542305
Br169	Br	-0.444992	-0.374106	0.862674
Br170	Br	-0.111658	-0.040773	1.196007
Br171	Br	0.221675	0.292560	1.529341
H172	H	-0.740282	-0.672274	1.351908
H173	H	-0.406949	-0.338941	1.685241
H174	H	-0.073615	-0.005607	2.018574
Br175	Br	-0.444970	-1.162569	1.650022
Br176	Br	-0.111636	-0.829236	1.983355
Br177	Br	0.221697	-0.495903	2.316688
H178	H	-0.606926	-0.664248	1.359830
H179	H	-0.273593	-0.330914	1.693163
H180	H	0.059740	0.002419	2.026496
H181	H	-0.740270	-0.428673	1.595830
H182	H	-0.406937	-0.095339	1.929164
H183	H	-0.073603	0.237994	2.262497
H184	H	-1.070372	-0.388609	1.636218
H185	H	-0.737038	-0.055275	1.969551
H186	H	-0.403705	0.278058	2.302884
Br187	Br	-0.917062	-0.342945	1.681844
Br188	Br	-0.583729	-0.009612	2.015177
Br189	Br	-0.250396	0.323721	2.348511
H190	H	-0.937024	-0.624187	1.400224
H191	H	-0.603691	-0.290854	1.733557
H192	H	-0.270357	0.042479	2.066891
Br193	Br	-1.090328	-0.669838	1.354589
Br194	Br	-0.756995	-0.336504	1.687923
Br195	Br	-0.423661	-0.003171	2.021256
