data_functionalizedCrystal
_audit_creation_method	'MofGen! by Chris Wilmer'
_symmetry_space_group_name_H-M	'P1'
_symmetry_Int_Tables_number	1
_symmetry_cell_setting	triclinic
loop_
_symmetry_equiv_pos_as_xyz
  x,y,z
_cell_length_a	14.044191
_cell_length_b	13.101039
_cell_length_c	10.654551
_cell_angle_alpha	86.603408
_cell_angle_beta	88.838603
_cell_angle_gamma	93.662449
loop_
_atom_site_label
_atom_site_type_symbol
_atom_site_fract_x
_atom_site_fract_y
_atom_site_fract_z
O1	O	1.264871	0.085157	0.296681
O2	O	1.764871	0.585157	0.796681
O3	O	0.988830	0.085170	0.285737
O4	O	1.488830	0.585170	0.785737
O5	O	1.133196	0.085161	0.109108
O6	O	1.633196	0.585161	0.609108
O7	O	1.120504	0.085166	0.473310
O8	O	1.620504	0.585166	0.973310
O9	O	1.122838	-0.085268	0.121804
O10	O	1.622838	0.414732	0.621804
O11	O	0.978472	-0.085259	0.298433
O12	O	1.478472	0.414741	0.798433
O13	O	1.254513	-0.085272	0.309377
O14	O	1.754513	0.414728	0.809377
Zn15	Zn	1.114848	-0.112325	0.305921
Zn16	Zn	1.614848	0.387675	0.805921
Zn17	Zn	1.128495	0.112223	0.289193
Zn18	Zn	1.628495	0.612223	0.789193
O19	O	1.110146	-0.085263	0.486006
O20	O	1.610146	0.414737	0.986006
C21	C	0.948305	-0.000042	0.287298
C22	C	1.448305	0.499958	0.787298
C23	C	0.842986	-0.000037	0.273019
C24	C	1.342986	0.499963	0.773019
N25	N	1.105541	-0.265573	0.317337
N26	N	1.605541	0.234427	0.817337
C27	C	0.593193	-0.000046	0.348185
C28	C	1.093193	0.499954	0.848185
C29	C	0.650156	-0.000046	0.246934
C30	C	1.150156	0.499954	0.746934
C31	C	0.757456	-0.000041	0.261451
C32	C	1.257456	0.499959	0.761451
C33	C	0.485883	-0.000051	0.333670
C34	C	0.985883	0.499949	0.833670
C35	C	1.092879	-0.474614	0.332880
C36	C	1.592879	0.025386	0.832880
C37	C	1.150468	-0.525494	0.262229
C38	C	1.650468	-0.025494	0.762229
C39	C	1.143423	-0.641812	0.270877
C40	C	1.643423	-0.141812	0.770877
C41	C	1.099923	-0.358286	0.324233
C42	C	1.599923	0.141714	0.824233
C43	C	1.295038	-0.000057	0.307816
C44	C	1.795038	0.499943	0.807816
C45	C	1.400358	-0.000055	0.322095
C46	C	1.900358	0.499945	0.822095
C47	C	1.127085	-0.000052	0.068564
C48	C	1.627085	0.499948	0.568564
C49	C	1.124297	-0.000047	-0.071160
C50	C	1.624297	0.499953	0.428840
N51	N	1.137809	0.265471	0.277768
N52	N	1.637809	0.765471	0.777768
C53	C	1.128634	0.092855	-0.143716
C54	C	1.628634	0.592855	0.356284
C55	C	1.126006	0.092856	-0.275000
C56	C	1.626006	0.592856	0.225000
C57	C	1.114706	-0.092955	-0.261161
C58	C	1.614706	0.407045	0.238839
C59	C	1.117328	-0.092955	-0.129878
C60	C	1.617328	0.407045	0.370122
C61	C	1.116258	-0.000048	0.526550
C62	C	1.616258	0.499952	1.026550
C63	C	1.119047	-0.000046	0.666273
C64	C	1.619047	0.499954	1.166273
H65	H	0.618343	0.000025	0.149343
H66	H	1.118343	0.500025	0.649343
H67	H	1.205064	-0.481695	0.195248
H68	H	1.705064	0.018305	0.695248
H69	H	0.625009	-0.000042	0.445762
H70	H	1.125009	0.499958	0.945762
H71	H	1.038288	-0.518408	0.399858
H72	H	1.538288	-0.018408	0.899858
C73	C	1.136289	0.195051	-0.079122
C74	C	1.636289	0.695051	0.420878
C75	C	1.222809	0.271694	-0.107932
C76	C	1.722809	0.771694	0.392068
C77	C	1.230461	0.373892	-0.043342
C78	C	1.730461	0.873892	0.456658
C79	C	1.151594	0.399448	0.050058
C80	C	1.651594	0.899448	0.550058
C81	C	1.065068	0.322803	0.078872
C82	C	1.565068	0.822803	0.578872
C83	C	1.057416	0.220604	0.014283
C84	C	1.557416	0.720604	0.514283
H85	H	1.281197	0.252778	-0.177076
H86	H	1.781197	0.752778	0.322924
H87	H	1.294514	0.430630	-0.064673
H88	H	1.794514	0.930630	0.435327
H89	H	1.157259	0.475101	0.097871
H90	H	1.657259	0.975101	0.597871
H91	H	1.006681	0.341719	0.148017
H92	H	1.506681	0.841719	0.648017
H93	H	0.993363	0.163867	0.035613
H94	H	1.493363	0.663867	0.535613
H95	H	1.129535	0.168506	-0.334070
H96	H	1.629535	0.668506	0.165930
C97	C	1.107034	-0.195155	-0.325743
C98	C	1.607034	0.304845	0.174257
C99	C	1.184945	-0.271822	-0.307022
C100	C	1.684945	0.228178	0.192978
C101	C	1.177267	-0.374028	-0.371594
C102	C	1.677267	0.125972	0.128406
C103	C	1.091680	-0.399567	-0.454887
C104	C	1.591680	0.100433	0.045113
C105	C	1.013763	-0.322899	-0.473612
C106	C	1.513763	0.177101	0.026388
C107	C	1.021440	-0.220693	-0.409040
C108	C	1.521440	0.279307	0.090960
H109	H	1.248307	-0.252918	-0.245360
H110	H	1.748307	0.247082	0.254640
H111	H	1.234947	-0.430782	-0.357732
H112	H	1.734947	0.069218	0.142268
H113	H	1.085997	-0.475226	-0.502687
H114	H	1.585997	0.024774	-0.002687
H115	H	0.950401	-0.341803	-0.535274
H116	H	1.450401	0.158197	-0.035274
H117	H	0.963761	-0.163938	-0.422901
H118	H	1.463761	0.336062	0.077099
H119	H	1.113790	-0.168611	-0.070800
H120	H	1.613790	0.331389	0.429200
