data_functionalizedCrystal
_audit_creation_method	'MofGen! by Chris Wilmer'
_symmetry_space_group_name_H-M	'P1'
_symmetry_Int_Tables_number	1
_symmetry_cell_setting	triclinic
loop_
_symmetry_equiv_pos_as_xyz
  x,y,z
_cell_length_a	12.645331
_cell_length_b	12.645329
_cell_length_c	16.120256
_cell_angle_alpha	92.877118
_cell_angle_beta	92.885071
_cell_angle_gamma	90.017213
loop_
_atom_site_label
_atom_site_type_symbol
_atom_site_fract_x
_atom_site_fract_y
_atom_site_fract_z
Zn1	Zn	1.590317	-0.452491	-0.471258
Zn2	Zn	1.599194	-0.620775	-0.331853
Zn3	Zn	1.422027	-0.443525	-0.331877
Zn4	Zn	1.413014	-0.629709	-0.471237
O5	O	1.506138	-0.536625	-0.401556
O6	O	1.739842	-0.474827	-0.452765
O7	O	1.583180	-0.589771	-0.215192
O8	O	1.444408	-0.296368	-0.350385
O9	O	1.746364	-0.598465	-0.350344
O10	O	1.568050	-0.302956	-0.452788
O11	O	1.453015	-0.459546	-0.215209
O12	O	1.272484	-0.468209	-0.350364
O13	O	1.429047	-0.613692	-0.587904
O14	O	1.265863	-0.604998	-0.452751
O15	O	1.559311	-0.483491	-0.587920
O16	O	1.574441	-0.770306	-0.350324
O17	O	1.437655	-0.776870	-0.452728
C18	C	1.230708	-0.536601	-0.401558
C19	C	1.112877	-0.536618	-0.401579
C20	C	0.941205	-0.623099	-0.465655
C21	C	1.063747	-0.622850	-0.465923
C22	C	1.066850	-0.426513	-0.425584
C23	C	0.944223	-0.427045	-0.426035
C24	C	0.951328	-0.559329	-0.313295
C25	C	1.073904	-0.561801	-0.313771
C26	C	1.506061	-0.812054	-0.401539
C27	C	1.506123	-0.929885	-0.401560
C28	C	1.420035	-0.978938	-0.465945
C29	C	1.420356	-1.101516	-0.466225
C30	C	1.616519	-1.099182	-0.425226
C31	C	1.615918	-0.976613	-0.425667
C32	C	1.483004	-0.969481	-0.313403
C33	C	1.480605	-1.092121	-0.313899
C34	C	1.782644	-0.536650	-0.401554
C35	C	1.900474	-0.536660	-0.401554
C36	C	1.492184	-0.550588	-0.619007
C37	C	1.486237	-0.556538	-0.711672
C38	C	1.506244	-0.260122	-0.401591
C39	C	1.506289	-0.142293	-0.401606
C40	C	1.537147	-0.505568	-0.922627
C41	C	1.475344	-0.567358	-0.881326
C42	C	1.481407	-0.561336	-0.786922
C43	C	1.531086	-0.511589	-1.017040
C44	C	1.520100	-0.522640	-0.184951
C45	C	1.526252	-0.516391	-0.092287
H46	H	0.921814	-0.637950	-0.291476
H47	H	1.435315	-1.134990	-0.531553
C48	C	0.916283	-0.474184	-0.248770
N49	N	0.889880	-0.410052	-0.200176
H50	H	1.088876	-0.608300	-0.531319
H51	H	1.417874	-0.624774	-0.916868
C52	C	1.309700	-1.141012	-0.446294
N53	N	1.226347	-1.170756	-0.431287
H54	H	0.906218	-0.608766	-0.530671
H55	H	1.594608	-0.448151	-0.887088
C56	C	1.643237	-0.943495	-0.512719
N57	N	1.663811	-0.918556	-0.578289
C58	C	1.102785	-0.398984	-0.511808
N59	N	1.129849	-0.378255	-0.576755
C60	C	1.105687	-0.733397	-0.445603
N61	N	1.137270	-0.816666	-0.430301
C62	C	1.644539	-1.146110	-0.511341
N63	N	1.665637	-1.181453	-0.576205
C64	C	0.908015	-0.337496	-0.365720
N65	N	0.880747	-0.270045	-0.320295
H66	H	0.912673	-0.705210	-0.450776
H67	H	0.911485	-0.407150	-0.490556
C68	C	1.114795	-0.671206	-0.289300
N69	N	1.145615	-0.753603	-0.270864
H70	H	1.098902	-0.360607	-0.380354
C71	C	1.119636	-0.482293	-0.245787
N72	N	1.154078	-0.422396	-0.194584
H73	H	1.434704	-0.952255	-0.530896
C74	C	1.705154	-0.932563	-0.365070
N75	N	1.772376	-0.899390	-0.319438
C76	C	1.705274	-1.134543	-0.363842
N77	N	1.772123	-1.161180	-0.317606
C78	C	1.308950	-0.937965	-0.446233
N79	N	1.225279	-0.907094	-0.431386
H80	H	1.539205	-1.119472	-0.263390
H81	H	1.399510	-1.120159	-0.296082
C82	C	1.376592	-0.925977	-0.284287
N83	N	1.296437	-0.893211	-0.262366
C84	C	1.567799	-0.926062	-0.248599
N85	N	1.631669	-0.893352	-0.199794
