data_functionalizedCrystal
_audit_creation_method	'MofGen! by Chris Wilmer'
_symmetry_space_group_name_H-M	'P1'
_symmetry_Int_Tables_number	1
_symmetry_cell_setting	triclinic
loop_
_symmetry_equiv_pos_as_xyz
  x,y,z
_cell_length_a	23.532361
_cell_length_b	11.792241
_cell_length_c	10.868271
_cell_angle_alpha	90.005281
_cell_angle_beta	89.999961
_cell_angle_gamma	96.488458
loop_
_atom_site_label
_atom_site_type_symbol
_atom_site_fract_x
_atom_site_fract_y
_atom_site_fract_z
O1	O	0.756092	-0.137520	-0.102200
O2	O	1.089425	0.195814	0.231134
O3	O	1.422758	0.529147	0.564467
O4	O	0.590343	-0.157509	-0.102229
O5	O	0.923676	0.175824	0.231104
O6	O	1.257010	0.509157	0.564438
O7	O	0.677239	0.017752	-0.102205
O8	O	1.010573	0.351085	0.231128
O9	O	1.343906	0.684419	0.564462
O10	O	0.669195	-0.312781	-0.102224
O11	O	1.002528	0.020552	0.231110
O12	O	1.335862	0.353886	0.564443
O13	O	0.677232	0.017759	0.102440
O14	O	1.010566	0.351092	0.435773
O15	O	1.343899	0.684425	0.769106
O16	O	0.590336	-0.157503	0.102416
O17	O	0.923669	0.175831	0.435749
O18	O	1.257002	0.509164	0.769082
O19	O	0.756084	-0.137513	0.102445
O20	O	1.089418	0.195820	0.435778
O21	O	1.422751	0.529154	0.769112
Zn22	Zn	0.673209	-0.147507	0.134922
Zn23	Zn	1.006542	0.185827	0.468255
Zn24	Zn	1.339876	0.519160	0.801589
Zn25	Zn	0.673218	-0.147515	-0.134706
Zn26	Zn	1.006552	0.185818	0.198627
Zn27	Zn	1.339885	0.519151	0.531961
O28	O	0.669188	-0.312774	0.102421
O29	O	1.002521	0.020559	0.435754
O30	O	1.335854	0.353892	0.769088
C31	C	0.569120	-0.157005	0.000090
C32	C	0.902453	0.176328	0.333423
C33	C	1.235786	0.509661	0.666756
C34	C	0.505892	-0.155500	0.000078
C35	C	0.839226	0.177833	0.333412
C36	C	1.172559	0.511166	0.666745
C37	C	0.232614	-0.148921	-0.111466
C38	C	0.565947	0.184413	0.221868
C39	C	0.899280	0.517746	0.555201
C40	C	0.292022	-0.150346	-0.111469
C41	C	0.625355	0.182988	0.221865
C42	C	0.958688	0.516321	0.555198
O43	O	0.322755	-0.151046	-0.206337
O44	O	0.656088	0.182287	0.126996
O45	O	0.989422	0.515621	0.460330
N46	N	0.321728	-0.151062	0.000084
N47	N	0.655061	0.182272	0.333417
N48	N	0.988394	0.515605	0.666750
C49	C	0.292023	-0.150341	0.111646
C50	C	0.625357	0.182992	0.444980
C51	C	0.958690	0.516325	0.778313
O52	O	0.322746	-0.151080	0.206530
O53	O	0.656079	0.182253	0.539863
O54	O	0.989412	0.515587	0.873196
C55	C	0.232617	-0.148908	0.111648
C56	C	0.565950	0.184425	0.444981
C57	C	0.899283	0.517758	0.778315
C58	C	0.202913	-0.148204	0.000088
C59	C	0.536246	0.185129	0.333422
C60	C	0.869580	0.518463	0.666755
C61	C	0.202910	-0.148215	-0.223016
C62	C	0.536243	0.185118	0.110317
C63	C	0.869577	0.518452	0.443651
C64	C	0.143506	-0.146793	-0.223012
C65	C	0.476839	0.186541	0.110321
C66	C	0.810172	0.519874	0.443654
C67	C	0.113805	-0.146076	-0.111458
C68	C	0.447138	0.187257	0.221875
C69	C	0.780472	0.520591	0.555208
C70	C	0.143509	-0.146782	0.000092
C71	C	0.476842	0.186552	0.333425
C72	C	0.810175	0.519885	0.666759
C73	C	0.202914	-0.148180	0.223209
C74	C	0.536247	0.185153	0.556543
C75	C	0.869580	0.518487	0.889876
C76	C	0.143503	-0.146746	0.223202
C77	C	0.476836	0.186587	0.556535
C78	C	0.810170	0.519921	0.889868
C79	C	0.113799	-0.146042	0.111642
C80	C	0.447133	0.187292	0.444975
C81	C	0.780466	0.520625	0.778309
C82	C	0.054404	-0.144642	0.111650
C83	C	0.387737	0.188691	0.444983
C84	C	0.721071	0.522024	0.778316
N85	N	0.024698	-0.143926	0.000097
N86	N	0.358031	0.189407	0.333431
N87	N	0.691365	0.522740	0.666764
C88	C	0.054398	-0.144643	-0.111457
C89	C	0.387732	0.188690	0.221877
C90	C	0.721065	0.522024	0.555210
C91	C	0.416781	-0.153348	0.111634
C92	C	0.750115	0.179985	0.444967
C93	C	1.083448	0.513318	0.778300
C94	C	0.476186	-0.154789	0.111633
C95	C	0.809520	0.178544	0.444967
C96	C	1.142853	0.511877	0.778300
C97	C	0.476181	-0.154791	-0.111482
C98	C	0.809514	0.178542	0.221851
C99	C	1.142847	0.511875	0.555185
C100	C	0.416774	-0.153358	-0.111480
C101	C	0.750108	0.179975	0.221853
C102	C	1.083441	0.513308	0.555186
C103	C	0.387075	-0.152632	0.000082
C104	C	0.720409	0.180701	0.333415
C105	C	1.053742	0.514034	0.666748
C106	C	-0.070355	-0.141657	-0.111441
C107	C	0.262979	0.191677	0.221893
C108	C	0.596312	0.525010	0.555226
C109	C	-0.129765	-0.140239	-0.111427
C110	C	0.203569	0.193095	0.221906
C111	C	0.536902	0.526428	0.555239
C112	C	-0.129754	-0.140231	0.111687
C113	C	0.203580	0.193102	0.445021
C114	C	0.536913	0.526436	0.778354
C115	C	-0.070349	-0.141655	0.111675
C116	C	0.262984	0.191679	0.445008
C117	C	0.596317	0.525012	0.778341
C118	C	-0.040651	-0.142364	0.000101
C119	C	0.292682	0.190970	0.333434
C120	C	0.626016	0.524303	0.666767
O121	O	0.023633	-0.143936	0.206470
O122	O	0.356966	0.189397	0.539803
O123	O	0.690300	0.522731	0.873136
O124	O	0.023670	-0.143889	-0.206324
O125	O	0.357003	0.189444	0.127009
O126	O	0.690336	0.522778	0.460342
C127	C	0.676731	0.060034	0.000117
C128	C	1.010064	0.393368	0.333450
C129	C	1.343397	0.726701	0.666784
C130	C	0.675218	0.186012	0.000115
C131	C	1.008551	0.519345	0.333449
C132	C	1.341885	0.852679	0.666782
C133	C	0.777307	-0.138017	0.000124
C134	C	1.110641	0.195316	0.333457
C135	C	1.443974	0.528650	0.666790
C136	C	0.840535	-0.139522	0.000127
C137	C	1.173868	0.193811	0.333460
C138	C	1.507202	0.527145	0.666793
C139	C	0.669697	-0.355057	0.000096
C140	C	1.003030	-0.021723	0.333430
C141	C	1.336363	0.311610	0.666763
C142	C	0.671209	-0.481034	0.000090
C143	C	1.004542	-0.147701	0.333423
C144	C	1.337876	0.185633	0.666757
N145	N	0.673207	-0.147500	0.318936
N146	N	1.006540	0.185833	0.652270
N147	N	1.339873	0.519167	0.985603
C148	C	0.672437	0.416658	0.000094
C149	C	1.005770	0.749991	0.333428
C150	C	1.339104	1.083324	0.666761
C151	C	0.673982	0.288309	0.000106
C152	C	1.007316	0.621643	0.333439
C153	C	1.340649	0.954976	0.666772
N154	N	0.673225	-0.147513	-0.318720
N155	N	1.006558	0.185820	0.014613
N156	N	1.339892	0.519153	0.347947
C157	C	0.673215	-0.147513	0.569942
C158	C	1.006549	0.185820	0.903276
C159	C	1.339882	0.519153	1.236609
C160	C	0.673209	-0.147509	0.430265
C161	C	1.006542	0.185824	0.763598
C162	C	1.339875	0.519157	1.096931
H163	H	0.119327	-0.146214	-0.313856
H164	H	0.452660	0.187120	0.019478
H165	H	0.785993	0.520453	0.352811
N166	N	0.506525	-0.155484	-0.225440
N167	N	0.839858	0.177849	0.107894
N168	N	1.173192	0.511182	0.441227
N169	N	0.504896	-0.075304	-0.300113
N170	N	0.838230	0.258030	0.033220
N171	N	1.171563	0.591363	0.366553
H172	H	0.526327	-0.075789	-0.380593
H173	H	0.859661	0.257544	-0.047259
H174	H	1.192994	0.590877	0.286074
H175	H	0.227086	-0.148795	-0.313862
H176	H	0.560419	0.184538	0.019472
H177	H	0.893753	0.517872	0.352805
N178	N	0.386444	-0.152640	-0.225445
N179	N	0.719777	0.180693	0.107888
N180	N	1.053111	0.514027	0.441221
N181	N	0.412976	-0.153286	-0.325033
N182	N	0.746310	0.180047	0.008300
N183	N	1.079643	0.513381	0.341634
H184	H	0.391559	-0.152777	-0.405527
H185	H	0.724892	0.180556	-0.072194
H186	H	1.058226	0.513890	0.261139
H187	H	-0.046182	-0.142236	-0.202295
H188	H	0.287152	0.191098	0.131039
H189	H	0.620485	0.524431	0.464372
H190	H	0.227088	-0.148750	0.314053
H191	H	0.560422	0.184583	0.647387
H192	H	0.893755	0.517917	0.980720
H193	H	0.119325	-0.146165	0.314051
H194	H	0.452658	0.187169	0.647384
H195	H	0.785991	0.520502	0.980717
H196	H	0.500365	-0.155381	0.202476
H197	H	0.833698	0.177952	0.535810
H198	H	1.167031	0.511285	0.869143
N199	N	0.386455	-0.152613	0.225611
N200	N	0.719789	0.180721	0.558944
N201	N	1.053122	0.514054	0.892277
N202	N	0.412991	-0.153252	0.325195
N203	N	0.746324	0.180082	0.658528
N204	N	1.079658	0.513415	0.991861
H205	H	0.391577	-0.152730	0.405692
H206	H	0.724910	0.180603	0.739025
H207	H	1.058243	0.513937	1.072359
N208	N	-0.040017	-0.142433	0.225638
N209	N	0.293316	0.190900	0.558971
N210	N	0.626650	0.524233	0.892304
N211	N	-0.066547	-0.141827	0.325231
N212	N	0.266786	0.191506	0.658564
N213	N	0.600119	0.524839	0.991897
H214	H	-0.045130	-0.142383	0.405721
H215	H	0.288204	0.190950	0.739054
H216	H	0.621537	0.524283	1.072387
N217	N	-0.160095	-0.139503	-0.225400
N218	N	0.173239	0.193830	0.107933
N219	N	0.506572	0.527164	0.441267
N220	N	-0.148450	-0.059650	-0.300084
N221	N	0.184883	0.273683	0.033249
N222	N	0.518217	0.607017	0.366583
H223	H	-0.169868	-0.059127	-0.380577
H224	H	0.163465	0.274206	-0.047243
H225	H	0.496799	0.607539	0.286090
N226	N	-0.160107	-0.139504	0.225621
N227	N	0.173226	0.193830	0.558954
N228	N	0.506559	0.527163	0.892288
N229	N	-0.213149	-0.138227	0.225594
N230	N	0.120185	0.195107	0.558927
N231	N	0.453518	0.528440	0.892260
H232	H	-0.234588	-0.137706	0.306060
H233	H	0.098745	0.195628	0.639393
H234	H	0.432079	0.528961	0.972726
