data_functionalizedCrystal
_audit_creation_method	'MofGen! by Chris Wilmer'
_symmetry_space_group_name_H-M	'P1'
_symmetry_Int_Tables_number	1
_symmetry_cell_setting	triclinic
loop_
_symmetry_equiv_pos_as_xyz
  x,y,z
_cell_length_a	17.699083
_cell_length_b	12.837932
_cell_length_c	16.176319
_cell_angle_alpha	89.996832
_cell_angle_beta	89.998611
_cell_angle_gamma	89.056359
loop_
_atom_site_label
_atom_site_type_symbol
_atom_site_fract_x
_atom_site_fract_y
_atom_site_fract_z
O1	O	1.013708	0.131067	-0.068624
O2	O	1.513708	0.631067	0.431376
O3	O	0.794583	0.148120	-0.068650
O4	O	1.294583	0.648120	0.431350
O5	O	0.899286	-0.011297	-0.068639
O6	O	1.399286	0.488703	0.431361
O7	O	0.909005	0.290484	-0.068636
O8	O	1.409005	0.790484	0.431364
O9	O	0.899269	-0.011307	0.068855
O10	O	1.399269	0.488693	0.568855
O11	O	0.794566	0.148109	0.068843
O12	O	1.294566	0.648109	0.568843
O13	O	1.013691	0.131057	0.068869
O14	O	1.513691	0.631057	0.568869
Cu15	Cu	0.904127	0.139582	0.081410
Cu16	Cu	1.404127	0.639582	0.581410
Cu17	Cu	0.904147	0.139594	-0.081192
Cu18	Cu	1.404147	0.639594	0.418808
O19	O	0.908988	0.290474	0.068857
O20	O	1.408988	0.790474	0.568857
C21	C	0.766332	0.147503	0.000093
C22	C	1.266332	0.647503	0.500093
C23	C	0.682180	0.145670	0.000082
C24	C	1.182180	0.645670	0.500082
C25	C	0.640433	0.239245	0.000083
C26	C	1.140433	0.739245	0.500083
C27	C	0.561363	0.237516	0.000094
C28	C	1.061363	0.737516	0.500094
C29	C	0.524040	0.142212	0.000098
C30	C	1.024040	0.642212	0.500098
C31	C	0.565792	0.048631	0.000099
C32	C	1.065792	0.548631	0.500099
C33	C	0.644861	0.050360	0.000095
C34	C	1.144861	0.550360	0.500095
C35	C	0.246917	0.041654	0.000120
C36	C	0.746917	0.541654	0.500120
C37	C	0.167842	0.039931	0.000122
C38	C	0.667842	0.539931	0.500122
C39	C	0.163419	0.228809	0.000119
C40	C	0.663419	0.728809	0.500119
C41	C	0.242487	0.230539	0.000114
C42	C	0.742487	0.730539	0.500114
C43	C	0.284232	0.136958	0.000120
C44	C	0.784232	0.636958	0.500120
C45	C	0.369969	0.138833	0.000110
C46	C	0.869969	0.638833	0.500110
C47	C	0.438305	0.140336	0.000102
C48	C	0.938305	0.640336	0.500102
C49	C	0.895994	-0.049915	0.000106
C50	C	1.395994	0.450085	0.500106
C51	C	0.886203	-0.164967	0.000099
C52	C	1.386203	0.335033	0.500099
C53	C	0.804365	-0.314604	0.000090
C54	C	1.304365	0.185396	0.500090
C55	C	0.813560	-0.206501	0.000090
C56	C	1.313560	0.293499	0.500090
C57	C	0.949656	-0.231545	0.000106
C58	C	1.449656	0.268455	0.500106
C59	C	0.940460	-0.339648	0.000106
C60	C	1.440460	0.160352	0.500106
C61	C	0.867813	-0.381173	0.000099
C62	C	1.367813	0.118827	0.500099
C63	C	0.858619	-0.489278	0.000106
C64	C	1.358619	0.010722	0.500106
C65	C	0.994713	-0.514320	0.000115
C66	C	1.494713	-0.014320	0.500115
C67	C	1.003908	-0.406217	0.000115
C68	C	1.503908	0.093783	0.500115
C69	C	1.041942	0.131673	0.000124
C70	C	1.541942	0.631673	0.500124
C71	C	1.126094	0.133506	0.000129
C72	C	1.626094	0.633506	0.500129
C73	C	0.912280	0.329091	0.000111
C74	C	1.412280	0.829091	0.500111
C75	C	0.922071	0.444144	0.000112
C76	C	1.422071	0.944144	0.500112
N77	N	0.904119	0.139573	0.195775
N78	N	1.404119	0.639573	0.695775
N79	N	0.904161	0.139595	-0.195557
N80	N	1.404161	0.639595	0.304443
C81	C	0.950499	0.069012	0.239045
C82	C	1.450499	0.569012	0.739045
C83	C	0.950503	0.069011	0.325592
C84	C	1.450503	0.569011	0.825592
C85	C	0.904130	0.139577	0.368868
C86	C	1.404130	0.639577	0.868868
C87	C	0.857744	0.210141	0.325592
C88	C	1.357744	0.710141	0.825592
C89	C	0.857737	0.210137	0.239047
C90	C	1.357737	0.710137	0.739047
C91	C	0.857772	0.210161	0.674621
C92	C	1.357772	0.710161	1.174621
C93	C	0.857784	0.210162	0.761172
C94	C	1.357784	0.710162	1.261172
C95	C	0.950537	0.069035	0.761166
C96	C	1.450537	0.569035	1.261166
C97	C	0.950530	0.069031	0.674620
C98	C	1.450530	0.569031	1.174620
C99	C	0.904142	0.139591	0.631352
C100	C	1.404142	0.639591	1.131352
C101	C	0.904137	0.139590	0.537508
C102	C	1.404137	0.639590	1.037508
C103	C	0.904138	0.139584	0.462710
C104	C	1.404138	0.639584	0.962710
H105	H	0.678850	-0.025837	0.000093
H106	H	1.178850	0.474163	0.500093
Cl107	Cl	0.120923	-0.079889	0.000127
Cl108	Cl	0.620923	0.420111	0.500127
H109	H	0.820019	0.267627	0.796406
H110	H	1.320019	0.767627	1.296406
H111	H	0.799465	-0.523086	0.000108
H112	H	1.299465	-0.023086	0.500108
Cl113	Cl	0.713040	-0.366811	0.000096
Cl114	Cl	1.213040	0.133189	0.500096
H115	H	1.063056	-0.372392	0.000124
H116	H	1.563056	0.127608	0.500124
Cl117	Cl	1.008804	-0.019700	0.184650
Cl118	Cl	1.508804	0.480300	0.684650
Cl119	Cl	0.110934	0.346456	0.000116
Cl120	Cl	0.610934	0.846456	0.500116
H121	H	0.988306	0.011578	0.796404
H122	H	1.488306	0.511578	1.296404
H123	H	0.988268	0.011555	0.360821
H124	H	1.488268	0.511555	0.860821
Cl125	Cl	1.040976	-0.179323	0.000099
Cl126	Cl	1.540976	0.320677	0.500099
H127	H	0.820002	0.267615	0.639399
H128	H	1.320002	0.767615	1.139399
Cl129	Cl	1.008832	-0.019680	0.620219
Cl130	Cl	1.508832	0.480320	1.120219
Cl131	Cl	0.799442	0.298849	0.379995
Cl132	Cl	1.299442	0.798849	0.879995
Cl133	Cl	0.799425	0.298842	0.184652
Cl134	Cl	1.299425	0.798842	0.684652
H135	H	0.280896	-0.034546	0.000125
H136	H	0.780896	0.465454	0.500125
Cl137	Cl	0.518872	-0.071181	0.000109
Cl138	Cl	1.018872	0.428819	0.500109
Cl139	Cl	0.733793	-0.122816	0.000075
Cl140	Cl	1.233793	0.377184	0.500075
H141	H	0.670816	0.316852	0.000080
H142	H	1.170816	0.816852	0.500080
H143	H	0.527377	0.313714	0.000094
H144	H	1.027377	0.813714	0.500094
H145	H	1.046377	-0.568534	0.000124
H146	H	1.546377	-0.068534	0.500124
Cl147	Cl	0.289403	0.350354	0.000105
Cl148	Cl	0.789403	0.850354	0.500105
