data_functionalizedCrystal
_audit_creation_method	'MofGen! by Chris Wilmer'
_symmetry_space_group_name_H-M	'P1'
_symmetry_Int_Tables_number	1
_symmetry_cell_setting	triclinic
loop_
_symmetry_equiv_pos_as_xyz
  x,y,z
_cell_length_a	19.188930
_cell_length_b	19.188924
_cell_length_c	11.892095
_cell_angle_alpha	93.873774
_cell_angle_beta	86.100356
_cell_angle_gamma	83.143372
loop_
_atom_site_label
_atom_site_type_symbol
_atom_site_fract_x
_atom_site_fract_y
_atom_site_fract_z
O1	O	0.930638	0.082673	-0.094373
O2	O	1.430638	0.582673	0.405627
O3	O	0.727323	0.094411	-0.094296
O4	O	1.227323	0.594411	0.405704
O5	O	0.834850	-0.013113	-0.094324
O6	O	1.334850	0.486887	0.405676
O7	O	0.823112	0.190197	-0.094346
O8	O	1.323112	0.690197	0.405654
O9	O	0.825884	-0.004162	0.093686
O10	O	1.325884	0.495838	0.593686
O11	O	0.718358	0.103362	0.093713
O12	O	1.218358	0.603362	0.593713
O13	O	0.921673	0.091624	0.093636
O14	O	1.421673	0.591624	0.593636
Zn15	Zn	0.818592	0.098915	0.123525
Zn16	Zn	1.318592	0.598915	0.623525
Zn17	Zn	0.830404	0.087121	-0.124185
Zn18	Zn	1.330404	0.587121	0.375815
O19	O	0.814146	0.199149	0.093664
O20	O	1.314146	0.699149	0.593664
C21	C	0.696829	0.098507	-0.000282
C22	C	1.196829	0.598507	0.499718
C23	C	0.619323	0.097368	-0.000252
C24	C	1.119323	0.597368	0.499748
C25	C	0.574399	0.160458	-0.000276
C26	C	1.074399	0.660458	0.499724
C27	C	0.501575	0.159385	-0.000289
C28	C	1.001575	0.659385	0.499711
C29	C	0.473681	0.095219	-0.000299
C30	C	0.973681	0.595219	0.499701
C31	C	0.518615	0.032121	-0.000268
C32	C	1.018615	0.532121	0.499732
C33	C	0.591436	0.033195	-0.000244
C34	C	1.091436	0.533195	0.499756
N35	N	0.368755	0.043123	-0.064327
N36	N	0.868755	0.543123	0.435673
N37	N	0.299578	0.042106	-0.064352
N38	N	0.799578	0.542106	0.435648
C39	C	0.254276	0.091977	-0.000368
C40	C	0.754276	0.591977	0.499632
N41	N	0.280764	0.142913	0.063628
N42	N	0.780764	0.642913	0.563628
N43	N	0.349947	0.143932	0.063648
N44	N	0.849947	0.643932	0.563648
C45	C	0.394720	0.094046	-0.000324
C46	C	0.894720	0.594046	0.499676
C47	C	0.130387	0.153909	-0.000404
C48	C	0.630387	0.653909	0.499596
C49	C	0.057563	0.152834	-0.000410
C50	C	0.557563	0.652834	0.499590
C51	C	0.074605	0.025567	-0.000400
C52	C	0.574605	0.525567	0.499600
C53	C	0.147427	0.026644	-0.000384
C54	C	0.647427	0.526644	0.499616
C55	C	0.175314	0.090817	-0.000391
C56	C	0.675314	0.590817	0.499609
C57	C	0.829988	-0.034649	-0.000318
C58	C	1.329988	0.465351	0.499682
C59	C	0.828849	-0.112153	-0.000314
C60	C	1.328849	0.387847	0.499686
C61	C	0.833204	-0.153432	-0.102798
C62	C	1.333204	0.346568	0.397202
C63	C	0.832125	-0.226255	-0.102807
C64	C	1.332125	0.273745	0.397193
C65	C	0.826703	-0.257798	-0.000325
C66	C	1.326703	0.242202	0.499675
C67	C	0.822343	-0.216510	0.102173
C68	C	1.322343	0.283490	0.602173
C69	C	0.823416	-0.143688	0.102178
C70	C	1.323416	0.356312	0.602178
N71	N	0.861115	-0.373831	0.075935
N72	N	1.361115	0.126169	0.575935
N73	N	0.860098	-0.443010	0.075924
N74	N	1.360098	0.056990	0.575924
C75	C	0.823470	-0.477208	-0.000334
C76	C	1.323470	0.022792	0.499666
N77	N	0.787907	-0.439616	-0.076597
N78	N	1.287907	0.060384	0.423403
N79	N	0.788928	-0.370432	-0.076589
N80	N	1.288928	0.129568	0.423411
C81	C	0.825539	-0.336762	-0.000319
C82	C	1.325539	0.163238	0.499681
C83	C	0.826654	-0.597450	-0.102835
C84	C	1.326654	-0.097450	0.397165
C85	C	0.825570	-0.670273	-0.102838
C86	C	1.325570	-0.170273	0.397162
C87	C	0.815796	-0.660528	0.102144
C88	C	1.315796	-0.160528	0.602144
C89	C	0.816873	-0.587705	0.102145
C90	C	1.316873	-0.087705	0.602145
C91	C	0.822306	-0.556171	-0.000347
C92	C	1.322306	-0.056171	0.499653
C93	C	0.952167	0.087528	-0.000381
C94	C	1.452167	0.587528	0.499619
C95	C	1.029673	0.088667	-0.000418
C96	C	1.529673	0.588667	0.499582
C97	C	0.819008	0.220684	-0.000345
C98	C	1.319008	0.720684	0.499655
C99	C	0.820148	0.298188	-0.000356
C100	C	1.320148	0.798188	0.499644
N101	N	0.810535	0.106963	0.292582
N102	N	1.310535	0.606963	0.792582
N103	N	0.838466	0.079067	-0.293242
N104	N	1.338466	0.579067	0.206758
C105	C	0.894526	0.023021	0.529208
C106	C	1.394526	0.523021	1.029208
C107	C	0.888900	0.028652	0.647551
C108	C	1.388900	0.528652	1.147551
C109	C	0.793654	0.123852	0.647614
C110	C	1.293654	0.623852	1.147614
C111	C	0.799280	0.118221	0.529270
C112	C	1.299280	0.618221	1.029270
C113	C	0.849719	0.067805	0.470072
C114	C	1.349719	0.567805	0.970072
C115	C	0.855348	0.062178	0.351726
C116	C	1.355348	0.562178	0.851726
C117	C	0.760098	0.157374	0.351791
C118	C	1.260098	0.657374	0.851791
C119	C	0.754472	0.163005	0.470134
C120	C	1.254472	0.663005	0.970134
H121	H	0.184006	-0.024731	-0.000370
H122	H	0.684006	0.475269	0.499630
H123	H	0.935600	-0.018026	0.481008
H124	H	1.435600	0.481974	0.981008
H125	H	0.837626	-0.127761	-0.186256
H126	H	1.337626	0.372239	0.313744
C127	C	0.161066	0.224495	-0.000401
C128	C	0.661066	0.724495	0.499599
H129	H	0.123877	0.261917	-0.000401
H130	H	0.623877	0.761917	0.499599
H131	H	0.192261	0.224438	-0.065958
H132	H	0.692261	0.724438	0.434042
H133	H	0.185977	0.230680	0.065177
H134	H	0.685977	0.730680	0.565177
H135	H	0.811376	-0.686209	0.185587
H136	H	1.311376	-0.186209	0.685587
H137	H	0.831074	-0.571773	-0.186290
H138	H	1.331074	-0.071773	0.313710
C139	C	0.816379	-0.251201	0.214903
C140	C	1.316379	0.248799	0.714903
H141	H	0.813933	-0.216184	0.275942
H142	H	1.313933	0.283816	0.775942
H143	H	0.856464	-0.284858	0.219151
H144	H	1.356464	0.215142	0.719151
H145	H	0.775045	-0.273955	0.219171
H146	H	1.275045	0.226045	0.719171
H147	H	0.020985	0.204212	-0.000423
H148	H	0.520985	0.704212	0.499577
H149	H	0.819866	-0.110078	0.185636
H150	H	1.319866	0.389922	0.685636
C151	C	0.698974	0.218441	0.535253
C152	C	1.198974	0.718441	1.035253
H153	H	0.673086	0.244297	0.483081
H154	H	1.173086	0.744297	0.983081
H155	H	0.721784	0.249645	0.581419
H156	H	1.221784	0.749645	1.081419
H157	H	0.667797	0.195570	0.581421
H158	H	1.167797	0.695570	1.081421
C159	C	0.836944	-0.271673	-0.215543
C160	C	1.336944	0.228327	0.284457
H161	H	0.840344	-0.242464	-0.276582
H162	H	1.340344	0.257536	0.223418
H163	H	0.796032	-0.294848	-0.219822
H164	H	1.296032	0.205152	0.280178
H165	H	0.877448	-0.305723	-0.219783
H166	H	1.377448	0.194277	0.280217
C167	C	0.830358	-0.715680	-0.215577
C168	C	1.330358	-0.215680	0.284423
H169	H	0.833753	-0.686467	-0.276612
H170	H	1.333753	-0.186467	0.223388
H171	H	0.789435	-0.738837	-0.219830
H172	H	1.289435	-0.238837	0.280170
H173	H	0.870853	-0.749743	-0.219849
H174	H	1.370853	-0.249743	0.280151
C175	C	0.812094	-0.542298	0.214879
C176	C	1.312094	-0.042298	0.714879
H177	H	0.808716	-0.571513	0.275914
H178	H	1.308716	-0.071513	0.775914
H179	H	0.771604	-0.508235	0.219161
H180	H	1.271604	-0.008235	0.719161
H181	H	0.853023	-0.519142	0.219121
H182	H	1.353023	-0.019142	0.719121
H183	H	0.925386	-0.007816	0.695697
H184	H	1.425386	0.492184	1.195697
H185	H	0.051897	-0.026682	-0.000479
H186	H	0.551897	0.473318	0.499521
H187	H	0.495899	-0.020125	-0.000292
H188	H	0.995899	0.479875	0.499708
C189	C	0.910825	0.006720	0.286609
C190	C	1.410825	0.506720	0.786609
H191	H	0.936699	-0.019150	0.338783
H192	H	1.436699	0.480850	0.838783
H193	H	0.942009	0.029561	0.240417
H194	H	1.442009	0.529561	0.740417
H195	H	0.887986	-0.024478	0.240468
H196	H	1.387986	0.475522	0.740468
H197	H	0.752583	0.164896	0.695829
H198	H	1.252583	0.664896	1.195829
H199	H	0.723615	0.193842	0.303628
H200	H	1.223615	0.693842	0.803628
H201	H	0.597099	0.212712	-0.000285
H202	H	1.097099	0.712712	0.499715
C203	C	0.640858	-0.036205	-0.000226
C204	C	1.140858	0.463795	0.499774
H205	H	0.688222	-0.026374	-0.000207
H206	H	1.188222	0.473626	0.499793
H207	H	0.635567	-0.065649	-0.065788
H208	H	1.135567	0.434351	0.434212
H209	H	0.629283	-0.059402	0.065347
H210	H	1.129283	0.440598	0.565347
C211	C	0.452151	0.228786	-0.000333
C212	C	0.952151	0.728786	0.499667
H213	H	0.479190	0.267157	-0.000344
H214	H	0.979190	0.767157	0.499656
H215	H	0.420239	0.234141	0.065214
H216	H	0.920239	0.734141	0.565214
H217	H	0.426541	0.227878	-0.065921
H218	H	0.926541	0.727878	0.434079
