data_functionalizedCrystal
_audit_creation_method	'MofGen! by Chris Wilmer'
_symmetry_space_group_name_H-M	'P1'
_symmetry_Int_Tables_number	1
_symmetry_cell_setting	triclinic
loop_
_symmetry_equiv_pos_as_xyz
  x,y,z
_cell_length_a	14.560438
_cell_length_b	20.875641
_cell_length_c	14.560438
_cell_angle_alpha	89.999936
_cell_angle_beta	59.996693
_cell_angle_gamma	57.590953
loop_
_atom_site_label
_atom_site_type_symbol
_atom_site_fract_x
_atom_site_fract_y
_atom_site_fract_z
Zr1	Zr	0.937907	0.641480	-0.086899
O2	O	1.140690	0.535154	-0.239144
O3	O	0.742873	0.674073	-0.040219
O4	O	0.934484	0.674071	-0.231836
O5	O	0.949076	0.535160	0.103614
O6	O	0.922969	0.783651	-0.226080
O7	O	0.949079	0.535157	-0.047527
O8	O	0.580211	0.783656	0.116687
O9	O	1.291834	0.535155	-0.239154
O10	O	0.811629	0.769754	-0.016026
O11	O	0.820220	0.687977	0.092474
O12	O	1.045818	0.687974	-0.133130
O13	O	1.054410	0.606197	-0.024630
Zr14	Zr	0.919537	0.816252	0.163333
Zr15	Zr	0.919541	0.816248	-0.077720
Zr16	Zr	0.937902	0.641484	0.154154
Zr17	Zr	1.178963	0.641481	-0.086914
Zr18	Zr	0.678480	0.816251	0.163348
O19	O	1.114571	0.783659	0.116653
O20	O	1.114577	0.783652	-0.226092
O21	O	1.140684	0.535161	0.103601
O22	O	0.716753	0.922577	0.315578
O23	O	0.716759	0.922571	-0.027167
O24	O	0.742866	0.674080	0.302527
O25	O	0.908367	0.922572	-0.027179
O26	O	0.922959	0.783661	0.308270
O27	O	0.934474	0.674081	0.302514
O28	O	0.908365	0.922575	0.123961
O29	O	1.277236	0.674073	-0.231858
O30	O	0.580207	0.783659	0.308292
O31	O	0.565609	0.922577	0.315588
O32	O	0.565613	0.922573	0.123983
O33	O	1.291830	0.535159	-0.047549
O34	O	1.277232	0.674076	-0.040253
O35	O	0.811625	0.769758	0.209564
O36	O	0.803033	0.851534	0.101064
O37	O	1.037223	0.769755	-0.016040
O38	O	1.045814	0.687978	0.092460
C39	C	0.627196	0.728864	0.038236
C40	C	0.524861	0.728864	0.038243
C41	C	0.566421	0.668492	-0.048210
C42	C	0.470281	0.668495	-0.048239
C43	C	0.291022	0.789246	0.124649
C44	C	0.387161	0.789245	0.124672
C45	C	0.951694	0.510257	0.026735
C46	C	0.959490	0.436064	0.022838
C47	C	0.840912	0.443893	0.082129
C48	C	0.848246	0.374178	0.078465
C49	C	0.974159	0.296633	0.015503
C50	C	1.092747	0.288805	-0.043789
C51	C	1.085412	0.358520	-0.040118
C52	C	1.009205	0.083555	-0.002025
C53	C	1.016531	0.013838	-0.005695
C54	C	0.772029	0.099216	0.116562
C55	C	0.764705	0.168928	0.120222
C56	C	0.883293	0.161094	0.060934
N57	N	0.981658	0.225372	0.011753
N58	N	0.875792	0.232355	0.064691
C59	C	1.230247	0.728867	0.038198
C60	C	1.332582	0.728868	0.038191
C61	C	0.928727	0.728860	-0.263303
C62	C	0.928729	0.728858	-0.365636
C63	C	0.905749	0.947474	0.049699
C64	C	0.897953	1.021668	0.053596
C65	C	1.050971	0.686171	-0.474839
C66	C	1.050964	0.686181	-0.570988
C67	C	0.806462	0.771566	-0.448715
C68	C	0.806470	0.771561	-0.352569
C69	C	0.928716	0.728871	0.339737
C70	C	0.928714	0.728873	0.442070
C71	C	0.604224	0.947473	0.049718
C72	C	0.494092	1.021666	0.053622
C73	C	0.627191	0.728870	0.339756
C74	C	0.524854	0.728871	0.442096
C75	C	0.604218	0.947478	0.351238
C76	C	0.494085	1.021673	0.457474
C77	C	1.253225	0.510254	-0.274804
C78	C	1.363358	0.436059	-0.381040
C79	C	1.253219	0.510259	0.026716
C80	C	1.363351	0.436066	0.022813
C81	C	1.230253	0.728862	-0.263322
C82	C	1.332589	0.728861	-0.365662
C83	C	0.446860	1.013819	-0.005675
C84	C	0.343394	1.083525	-0.002031
C85	C	0.287155	1.161076	0.060918
C86	C	0.334397	1.168922	0.120217
C87	C	0.437868	1.099217	0.116565
C88	C	0.437880	1.099210	0.450729
C89	C	0.334410	1.168931	0.550540
C90	C	0.287141	1.161113	0.657096
C91	C	0.343357	1.083568	0.663839
C92	C	0.446831	1.013849	0.564029
C93	C	1.419575	0.358522	-0.374295
C94	C	1.523074	0.288801	-0.474106
C95	C	1.570348	0.296619	-0.580662
C96	C	1.514126	0.374164	-0.587405
C97	C	1.410636	0.443883	-0.487595
C98	C	1.410593	0.443913	0.082099
C99	C	1.514086	0.374207	0.078428
C100	C	1.570328	0.296655	0.015476
C101	C	1.523082	0.288810	-0.043818
C102	C	1.419597	0.358515	-0.040153
C103	C	0.472287	0.771560	0.551295
C104	C	0.376141	0.771552	0.647449
C105	C	0.385133	0.686165	0.525192
C106	C	0.481284	0.686169	0.429040
H107	H	0.178898	0.838406	0.195018
H108	H	1.181971	0.352140	-0.088385
H109	H	0.476350	1.105591	0.363975
Cl110	Cl	0.652781	0.825227	-0.215273
Cl111	Cl	0.263754	1.266405	0.542037
Cl112	Cl	1.339966	0.541355	-0.496095
Cl113	Cl	1.339915	0.541398	0.161242
H114	H	1.568890	0.225658	-0.095073
Cl115	Cl	0.283916	1.073754	0.797805
Cl116	Cl	0.497223	1.109096	0.191127
H117	H	0.675482	0.105584	0.164831
H118	H	1.119070	-0.049304	-0.056971
H119	H	1.552536	0.380611	0.126717
H120	H	1.195268	0.225662	-0.095048
Cl121	Cl	1.360167	0.348672	-0.240351
H122	H	0.202885	1.217889	0.738359
H123	H	1.381137	0.352115	-0.088429
Cl124	Cl	0.310064	0.825217	0.784728
Cl125	Cl	0.739526	0.592587	-0.156868
Cl126	Cl	0.522536	0.592597	-0.156929
H127	H	0.492581	0.950718	0.569537
Cl128	Cl	0.334910	0.865150	0.233362
H129	H	0.349645	0.651400	0.514576
Cl130	Cl	1.700451	0.208963	-0.706129
H131	H	1.654591	0.239904	0.012501
Cl132	Cl	0.527060	0.825240	0.567711
H133	H	0.524089	0.651403	0.340118
H134	H	0.738379	0.507030	0.133405
H135	H	1.568834	0.225668	-0.468594
H136	H	0.288592	1.232073	0.171468
Cl137	Cl	0.699168	0.384026	0.153018
H138	H	0.662173	0.232065	0.171470
H139	H	1.552630	0.380519	-0.674175
H140	H	1.150523	0.651401	-0.485485
Cl141	Cl	1.158288	0.073697	-0.076563
Cl142	Cl	1.204648	0.632516	-0.708272
H143	H	0.492649	0.950679	-0.056949
Cl144	Cl	0.284021	1.073643	-0.076578
Cl145	Cl	0.652775	0.825238	-0.432300
H146	H	0.202902	1.217828	0.063883
