data_functionalizedCrystal
_audit_creation_method	'MofGen! by Chris Wilmer'
_symmetry_space_group_name_H-M	'P1'
_symmetry_Int_Tables_number	1
_symmetry_cell_setting	triclinic
loop_
_symmetry_equiv_pos_as_xyz
  x,y,z
_cell_length_a	16.992694
_cell_length_b	14.472311
_cell_length_c	16.992695
_cell_angle_alpha	90.009954
_cell_angle_beta	90.668223
_cell_angle_gamma	89.998131
loop_
_atom_site_label
_atom_site_type_symbol
_atom_site_fract_x
_atom_site_fract_y
_atom_site_fract_z
O1	O	1.050850	0.076726	0.166922
O2	O	0.822450	0.076753	0.165091
O3	O	0.935734	0.076732	0.051807
O4	O	0.937565	0.076747	0.280207
O5	O	0.935725	-0.076950	0.051791
O6	O	0.822441	-0.076929	0.165075
O7	O	1.050841	-0.076956	0.166907
Cu8	Cu	0.936640	-0.090975	0.165990
Cu9	Cu	0.936651	0.090772	0.166008
O10	O	0.937556	-0.076935	0.280191
C11	C	0.793085	-0.000084	0.162727
C12	C	0.705600	-0.000074	0.155699
N13	N	0.936638	-0.218806	0.165976
C14	C	0.659610	-0.000071	0.223517
C15	C	0.577409	-0.000084	0.216908
C16	C	0.541201	-0.000094	0.142480
C17	C	0.587198	-0.000100	0.074657
C18	C	0.669397	-0.000094	0.081267
C19	C	0.295886	-0.000120	0.115086
C20	C	0.213681	-0.000124	0.108481
C21	C	0.203898	-0.000109	0.250732
C22	C	0.286099	-0.000097	0.257335
C23	C	0.332089	-0.000108	0.189512
N24	N	0.457178	-0.000104	0.135723
N25	N	0.416110	-0.000105	0.196270
C26	C	0.936651	-0.592897	0.166002
C27	C	0.997491	-0.553713	0.105615
C28	C	0.997307	-0.446625	0.105367
C29	C	0.936645	-0.407306	0.165989
C30	C	0.853392	-0.446188	0.142904
C31	C	0.853748	-0.553310	0.142473
C32	C	0.958336	-0.553399	0.249618
C33	C	0.960166	-0.446271	0.249182
C34	C	0.936637	-0.302418	0.165983
C35	C	0.936654	-0.697785	0.166006
C36	C	1.080205	-0.000116	0.169270
C37	C	1.167690	-0.000121	0.176299
C38	C	0.933374	-0.000108	0.022439
C39	C	0.926345	-0.000107	-0.065046
N40	N	0.936659	0.218603	0.166015
C41	C	0.994163	-0.000116	-0.111037
C42	C	0.987554	-0.000107	-0.193238
C43	C	0.913127	-0.000095	-0.229446
C44	C	0.845303	-0.000083	-0.183449
C45	C	0.851913	-0.000086	-0.101250
C46	C	0.885732	-0.000079	-0.474760
C47	C	0.879127	-0.000079	-0.556966
C48	C	1.021379	-0.000101	-0.566749
C49	C	1.027982	-0.000109	-0.484547
C50	C	0.960159	-0.000092	-0.438558
N51	N	0.906369	-0.000088	-0.313468
N52	N	0.966917	-0.000093	-0.354537
C53	C	0.939917	-0.000093	0.309559
C54	C	0.946945	-0.000088	0.397044
H55	H	0.689084	-0.000062	0.284124
Cl56	Cl	0.541678	-0.000119	-0.018910
H57	H	1.018025	-0.580414	0.270532
Cl58	Cl	0.785554	-0.000069	-0.602483
Cl59	Cl	0.353691	-0.000133	0.029821
Cl60	Cl	1.092594	-0.406033	0.127777
Cl61	Cl	0.519595	-0.000074	0.302169
H62	H	1.076596	-0.000112	-0.604202
Cl63	Cl	1.087734	-0.000141	-0.065526
Cl64	Cl	0.800468	-0.000055	-0.416955
H65	H	0.706842	-0.000096	0.026042
Cl66	Cl	1.054758	-0.407027	0.276052
H67	H	0.315574	-0.000078	0.317942
Cl68	Cl	1.072816	-0.000121	-0.251052
H69	H	0.919120	-0.419503	0.296622
H70	H	0.806849	-0.579230	0.184516
H71	H	0.784703	-0.000067	-0.212936
Cl72	Cl	0.766652	-0.000071	-0.043432
H73	H	0.914031	-0.578743	0.294618
H74	H	0.983278	-0.580646	0.044027
H75	H	0.166444	-0.000102	0.305950
Cl76	Cl	0.168163	-0.000158	0.014908
Cl77	Cl	1.093085	-0.593479	0.127768
Cl78	Cl	1.121552	-0.000094	-0.439035
H79	H	0.982918	-0.421011	0.043422
Cl80	Cl	0.825456	-0.591907	0.048081
H81	H	0.834752	-0.419371	0.082430
Cl82	Cl	0.781475	-0.406868	0.208666
