data_functionalizedCrystal
_audit_creation_method	'MofGen! by Chris Wilmer'
_symmetry_space_group_name_H-M	'P1'
_symmetry_Int_Tables_number	1
_symmetry_cell_setting	triclinic
loop_
_symmetry_equiv_pos_as_xyz
  x,y,z
_cell_length_a	12.759401
_cell_length_b	12.594516
_cell_length_c	12.759393
_cell_angle_alpha	89.970876
_cell_angle_beta	89.981504
_cell_angle_gamma	90.016214
loop_
_atom_site_label
_atom_site_type_symbol
_atom_site_fract_x
_atom_site_fract_y
_atom_site_fract_z
Zn1	Zn	1.606246	-0.423675	-0.593999
Zn2	Zn	1.606136	-0.601694	-0.418327
Zn3	Zn	1.430547	-0.423730	-0.418339
Zn4	Zn	1.430532	-0.601612	-0.593968
O5	O	1.518365	-0.512678	-0.506158
O6	O	1.753252	-0.447300	-0.570704
O7	O	1.582804	-0.578144	-0.271307
O8	O	1.453907	-0.274777	-0.441658
O9	O	1.753171	-0.578090	-0.441638
O10	O	1.582991	-0.274736	-0.570715
O11	O	1.453800	-0.447395	-0.271316
O12	O	1.283524	-0.447316	-0.441628
O13	O	1.453880	-0.577951	-0.740993
O14	O	1.283513	-0.578005	-0.570663
O15	O	1.582976	-0.447221	-0.741016
O16	O	1.582789	-0.750629	-0.441608
O17	O	1.453774	-0.750569	-0.570651
C18	C	1.245398	-0.512658	-0.506144
C19	C	1.128621	-0.512676	-0.506163
C20	C	1.073781	-0.580834	-0.573240
C21	C	0.964057	-0.580848	-0.573251
C22	C	0.964023	-0.444541	-0.439099
C23	C	1.073745	-0.444523	-0.439094
C24	C	1.128657	-0.648987	-0.640308
C25	C	1.073816	-0.717152	-0.707390
C26	C	0.964092	-0.717165	-0.707402
C27	C	0.909209	-0.649014	-0.640331
C28	C	1.518296	-0.789219	-0.506148
C29	C	1.518363	-0.907524	-0.506179
C30	C	1.448185	-0.976783	-0.576316
C31	C	1.422585	-1.047654	-0.480449
C32	C	1.544058	-1.047453	-0.602062
C33	C	1.492713	-0.976836	-0.410261
C34	C	1.614230	-0.976629	-0.531938
C35	C	1.588667	-1.047468	-0.436006
C36	C	1.792398	-0.512698	-0.506173
C37	C	1.909175	-0.512707	-0.506179
C38	C	1.518439	-0.512570	-0.780192
C39	C	1.518470	-0.512525	-0.896968
C40	C	1.518463	-0.235057	-0.506192
C41	C	1.518505	-0.116752	-0.506206
C42	C	1.585700	-0.444447	-0.951844
C43	C	1.585725	-0.444409	-1.061568
C44	C	1.451288	-0.580534	-1.061531
C45	C	1.451258	-0.580567	-0.951809
C46	C	1.652912	-0.376405	-0.897003
C47	C	1.720147	-0.308323	-0.951879
C48	C	1.720172	-0.308284	-1.061603
C49	C	1.652962	-0.376328	-1.116451
C50	C	1.518352	-0.512708	-0.233191
C51	C	1.518525	-0.512454	-0.116415
H52	H	0.919328	-0.389056	-0.384493
H53	H	1.388731	-0.945746	-0.635542
C54	C	1.134190	-0.792113	-0.781165
N55	N	1.179662	-0.848576	-0.836733
H56	H	0.819864	-0.649021	-0.640355
C57	C	1.377362	-0.655379	-1.121869
N58	N	1.321682	-0.711754	-1.167315
C59	C	1.134073	-0.369548	-0.365302
N60	N	1.179512	-0.313074	-0.309722
C61	C	0.903771	-0.792151	-0.781188
N62	N	0.858339	-0.848639	-0.836760
H63	H	1.341578	-1.078874	-0.458684
C64	C	1.463298	-0.935108	-0.300701
N65	N	1.441138	-0.903675	-0.218184
C66	C	1.573343	-1.089359	-0.711591
N67	N	1.595392	-1.120917	-0.794091
C68	C	1.377307	-0.655461	-0.891443
N69	N	1.321605	-0.711873	-0.845974
H70	H	1.648075	-1.078309	-0.376636
C71	C	1.652887	-0.376438	-0.776304
N72	N	1.652867	-0.376463	-0.685394
C73	C	1.249355	-0.649004	-0.640276
N74	N	1.340265	-0.649027	-0.640241
C75	C	1.723634	-0.934433	-0.561414
N76	N	1.806034	-0.902643	-0.583630
C77	C	1.652988	-0.376277	-1.237152
N78	N	1.653012	-0.376240	-1.328062
C79	C	1.794128	-0.233390	-1.121963
N80	N	1.849839	-0.176981	-1.167424
C81	C	1.794070	-0.233474	-0.891544
N82	N	1.849750	-0.177096	-0.846100
