data_functionalizedCrystal
_audit_creation_method	'MofGen! by Chris Wilmer'
_symmetry_space_group_name_H-M	'P1'
_symmetry_Int_Tables_number	1
_symmetry_cell_setting	triclinic
loop_
_symmetry_equiv_pos_as_xyz
  x,y,z
_cell_length_a	16.120484
_cell_length_b	18.215407
_cell_length_c	18.215399
_cell_angle_alpha	90.017777
_cell_angle_beta	92.869789
_cell_angle_gamma	87.078910
loop_
_atom_site_label
_atom_site_type_symbol
_atom_site_fract_x
_atom_site_fract_y
_atom_site_fract_z
Zn1	Zn	-0.332012	-1.110208	-0.430925
Zn2	Zn	-0.082012	-0.860208	-0.180925
Zn3	Zn	0.167988	-0.610208	0.069075
Zn4	Zn	0.417988	-0.360208	0.319075
Zn5	Zn	-0.471433	-1.103874	-0.314094
Zn6	Zn	-0.221433	-0.853874	-0.064094
Zn7	Zn	0.028567	-0.603874	0.185906
Zn8	Zn	0.278567	-0.353874	0.435906
Zn9	Zn	-0.332028	-0.987140	-0.307877
Zn10	Zn	-0.082028	-0.737140	-0.057877
Zn11	Zn	0.167972	-0.487140	0.192123
Zn12	Zn	0.417972	-0.237140	0.442123
Zn13	Zn	-0.471375	-0.980867	-0.437121
Zn14	Zn	-0.221375	-0.730867	-0.187121
Zn15	Zn	0.028625	-0.480867	0.062879
Zn16	Zn	0.278625	-0.230867	0.312879
O17	O	-0.401712	-1.045522	-0.372504
O18	O	-0.151712	-0.795522	-0.122504
O19	O	0.098288	-0.545522	0.127496
O20	O	0.348288	-0.295522	0.377496
O21	O	-0.350525	-1.212351	-0.415436
O22	O	-0.100525	-0.962351	-0.165436
O23	O	0.149475	-0.712351	0.084564
O24	O	0.399475	-0.462351	0.334564
O25	O	-0.452972	-1.088364	-0.210286
O26	O	-0.202972	-0.838364	0.039714
O27	O	0.047028	-0.588364	0.289714
O28	O	0.297028	-0.338364	0.539714
O29	O	-0.215360	-1.008741	-0.319005
O30	O	0.034640	-0.758741	-0.069005
O31	O	0.284640	-0.508741	0.180995
O32	O	0.534640	-0.258741	0.430995
O33	O	-0.452957	-1.207698	-0.329601
O34	O	-0.202957	-0.957698	-0.079601
O35	O	0.047043	-0.707698	0.170399
O36	O	0.297043	-0.457698	0.420399
O37	O	-0.215349	-1.099158	-0.409407
O38	O	0.034651	-0.849158	-0.159407
O39	O	0.284651	-0.599158	0.090593
O40	O	0.534651	-0.349158	0.340593
O41	O	-0.350551	-1.002599	-0.205719
O42	O	-0.100551	-0.752599	0.044281
O43	O	0.149449	-0.502599	0.294281
O44	O	0.399449	-0.252599	0.544281
O45	O	-0.350495	-0.883324	-0.325013
O46	O	-0.100495	-0.633324	-0.075013
O47	O	0.149505	-0.383324	0.174987
O48	O	0.399505	-0.133324	0.424987
O49	O	-0.452858	-0.998050	-0.539282
O50	O	-0.202858	-0.748050	-0.289282
O51	O	0.047142	-0.498050	-0.039282
O52	O	0.297142	-0.248050	0.210718
O53	O	-0.452873	-0.878716	-0.419968
O54	O	-0.202873	-0.628716	-0.169968
O55	O	0.047127	-0.378716	0.080032
O56	O	0.297127	-0.128716	0.330032
O57	O	-0.350468	-1.093076	-0.534730
O58	O	-0.100468	-0.843076	-0.284730
O59	O	0.149532	-0.593076	-0.034730
O60	O	0.399532	-0.343076	0.215270
O61	O	-0.588091	-1.082281	-0.335609
O62	O	-0.338091	-0.832281	-0.085609
O63	O	-0.088091	-0.582281	0.164391
O64	O	0.161909	-0.332281	0.414391
O65	O	-0.588048	-0.991908	-0.425996
O66	O	-0.338048	-0.741908	-0.175996
O67	O	-0.088048	-0.491908	0.074004
O68	O	0.161952	-0.241908	0.324004
C69	C	-0.401680	-0.854317	-0.372488
C70	C	-0.151680	-0.604317	-0.122488
C71	C	0.098320	-0.354317	0.127512
C72	C	0.348320	-0.104317	0.377512
C73	C	-0.401686	-0.772518	-0.372500
C74	C	-0.151686	-0.522518	-0.122500
C75	C	0.098314	-0.272518	0.127500
C76	C	0.348314	-0.022518	0.377500
C77	C	-0.348453	-0.586742	-0.417272
C78	C	-0.098453	-0.336742	-0.167272
C79	C	0.151547	-0.086742	0.082728
C80	C	0.401547	0.163258	0.332728
C81	C	-0.348457	-0.509883	-0.417274
C82	C	-0.098457	-0.259883	-0.167274
C83	C	0.151543	-0.009883	0.082726
C84	C	0.401543	0.240117	0.332726
C85	C	-0.454959	-0.505055	-0.327742
C86	C	-0.204959	-0.255055	-0.077742
C87	C	0.045041	-0.005055	0.172258
C88	C	0.295041	0.244945	0.422258
C89	C	-0.454950	-0.581913	-0.327736
C90	C	-0.204950	-0.331913	-0.077736
C91	C	0.045050	-0.081913	0.172264
C92	C	0.295050	0.168087	0.422264
C93	C	-0.401698	-0.622754	-0.372506
C94	C	-0.151698	-0.372754	-0.122506
C95	C	0.098302	-0.122754	0.127494
C96	C	0.348302	0.127246	0.377494
C97	C	-0.401712	-0.469037	-0.372513
C98	C	-0.151712	-0.219037	-0.122513
C99	C	0.098288	0.030963	0.127487
C100	C	0.348288	0.280963	0.377487
C101	C	-0.401717	-0.385704	-0.372515
C102	C	-0.151717	-0.135704	-0.122515
C103	C	0.098283	0.114296	0.127485
C104	C	0.348283	0.364296	0.377485
C105	C	-0.401692	-0.706093	-0.372503
C106	C	-0.151692	-0.456093	-0.122503
C107	C	0.098308	-0.206093	0.127497
C108	C	0.348308	0.043907	0.377497
C109	C	-0.618320	-1.035747	-0.382165
C110	C	-0.368320	-0.785747	-0.132165
C111	C	-0.118320	-0.535747	0.117835
C112	C	0.131680	-0.285747	0.367835
C113	C	-0.710985	-1.031632	-0.386323
C114	C	-0.460985	-0.781632	-0.136323
C115	C	-0.210985	-0.531632	0.113677
C116	C	0.039015	-0.281632	0.363677
C117	C	-0.880647	-1.024125	-0.393929
C118	C	-0.630647	-0.774125	-0.143929
C119	C	-0.380647	-0.524125	0.106071
C120	C	-0.130647	-0.274125	0.356071
C121	C	-0.921937	-1.067052	-0.351092
C122	C	-0.671937	-0.817052	-0.101092
C123	C	-0.421937	-0.567052	0.148908
C124	C	-0.171937	-0.317052	0.398908
C125	C	-1.016343	-1.062874	-0.355324
C126	C	-0.766343	-0.812874	-0.105324
C127	C	-0.516343	-0.562874	0.144676
C128	C	-0.266343	-0.312874	0.394676
C129	C	-0.786233	-1.028301	-0.389698
C130	C	-0.536233	-0.778301	-0.139698
C131	C	-0.286233	-0.528301	0.110302
C132	C	-0.036233	-0.278301	0.360302
C133	C	-0.184259	-1.055356	-0.362822
C134	C	0.065741	-0.805356	-0.112822
C135	C	0.315741	-0.555356	0.137178
C136	C	0.565741	-0.305356	0.387178
C137	C	-0.091593	-1.059546	-0.358695
C138	C	0.158407	-0.809546	-0.108695
C139	C	0.408407	-0.559546	0.141305
C140	C	0.658407	-0.309546	0.391305
C141	C	-0.401655	-1.045570	-0.564455
C142	C	-0.151655	-0.795570	-0.314455
C143	C	0.098345	-0.545570	-0.064455
C144	C	0.348345	-0.295570	0.185545
C145	C	-0.401630	-1.045590	-0.646252
C146	C	-0.151630	-0.795590	-0.396252
C147	C	0.098370	-0.545590	-0.146252
C148	C	0.348370	-0.295590	0.103748
C149	C	-0.401736	-0.237474	-0.372518
C150	C	-0.151736	0.012526	-0.122518
C151	C	0.098264	0.262526	0.127482
C152	C	0.348264	0.512526	0.377482
C153	C	-0.401724	-0.319273	-0.372519
C154	C	-0.151724	-0.069273	-0.122519
C155	C	0.098276	0.180727	0.127481
C156	C	0.348276	0.430727	0.377481
C157	C	-0.348266	-1.095089	-0.832075
C158	C	-0.098266	-0.845089	-0.582075
C159	C	0.151734	-0.595089	-0.332075
C160	C	0.401734	-0.345089	-0.082075
C161	C	-0.348242	-1.095099	-0.908933
C162	C	-0.098242	-0.845099	-0.658933
C163	C	0.151758	-0.595099	-0.408933
C164	C	0.401758	-0.345099	-0.158933
C165	C	-0.454865	-0.996148	-0.913662
C166	C	-0.204865	-0.746148	-0.663662
C167	C	0.045135	-0.496148	-0.413662
C168	C	0.295135	-0.246148	-0.163662
C169	C	-0.454885	-0.996136	-0.836805
C170	C	-0.204885	-0.746136	-0.586805
C171	C	0.045115	-0.496136	-0.336805
C172	C	0.295115	-0.246136	-0.086805
C173	C	-0.401587	-1.045610	-0.796014
C174	C	-0.151587	-0.795610	-0.546014
C175	C	0.098413	-0.545610	-0.296014
C176	C	0.348413	-0.295610	-0.046014
C177	C	-0.401543	-1.045633	-0.949728
C178	C	-0.151543	-0.795633	-0.699728
C179	C	0.098457	-0.545633	-0.449728
C180	C	0.348457	-0.295633	-0.199728
C181	C	-0.401517	-1.045643	-1.033061
C182	C	-0.151517	-0.795643	-0.783061
C183	C	0.098483	-0.545643	-0.533061
C184	C	0.348483	-0.295643	-0.283061
C185	C	-0.401611	-1.045599	-0.712676
C186	C	-0.151611	-0.795599	-0.462676
C187	C	0.098389	-0.545599	-0.212676
C188	C	0.348389	-0.295599	0.037324
C189	C	-0.401709	-1.045520	-0.181298
C190	C	-0.151709	-0.795520	0.068702
C191	C	0.098291	-0.545520	0.318702
C192	C	0.348291	-0.295520	0.568702
C193	C	-0.401499	-1.045653	-0.099490
C194	C	-0.151499	-0.795653	0.150510
C195	C	0.098501	-0.545653	0.400510
C196	C	0.348501	-0.295653	0.650510
H197	H	-0.305098	-0.480565	-0.453726
H198	H	-0.055098	-0.230565	-0.203726
H199	H	0.194902	0.019435	0.046274
H200	H	0.444902	0.269435	0.296274
H201	H	-0.304865	-1.135372	-0.798865
H202	H	-0.054865	-0.885372	-0.548865
H203	H	0.195135	-0.635372	-0.298865
H204	H	0.445135	-0.385372	-0.048865
H205	H	-0.498316	-0.471793	-0.291293
H206	H	-0.248316	-0.221793	-0.041293
H207	H	0.001684	0.028207	0.208707
H208	H	0.251684	0.278207	0.458707
H209	H	-0.305089	-0.619992	-0.453724
H210	H	-0.055089	-0.369992	-0.203724
H211	H	0.194911	-0.119992	0.046276
H212	H	0.444911	0.130008	0.296276
C213	C	-0.513526	-0.621530	-0.278493
C214	C	-0.263526	-0.371530	-0.028493
C215	C	-0.013526	-0.121530	0.221507
C216	C	0.236474	0.128470	0.471507
H217	H	-0.545251	-0.586199	-0.251839
H218	H	-0.295251	-0.336199	-0.001839
H219	H	-0.045251	-0.086199	0.248161
H220	H	0.204749	0.163801	0.498161
H221	H	-0.481586	-0.652938	-0.245047
H222	H	-0.231586	-0.402938	0.004953
H223	H	0.018414	-0.152938	0.254953
H224	H	0.268414	0.097062	0.504953
H225	H	-0.549888	-0.649885	-0.308220
H226	H	-0.299888	-0.399885	-0.058220
H227	H	-0.049888	-0.149885	0.191780
H228	H	0.200112	0.100115	0.441780
H229	H	-0.498304	-0.955839	-0.807444
H230	H	-0.248304	-0.705839	-0.557444
H231	H	0.001696	-0.455839	-0.307444
H232	H	0.251696	-0.205839	-0.057444
H233	H	-0.304822	-1.135389	-0.938290
H234	H	-0.054822	-0.885389	-0.688290
H235	H	0.195178	-0.635389	-0.438290
H236	H	0.445178	-0.385389	-0.188290
H237	H	-0.886387	-1.106939	-0.311239
H238	H	-0.636387	-0.856939	-0.061239
H239	H	-0.386387	-0.606939	0.188761
H240	H	-0.136387	-0.356939	0.438761
H241	H	-0.498261	-0.955870	-0.946884
H242	H	-0.248261	-0.705870	-0.696884
H243	H	0.001739	-0.455870	-0.446884
H244	H	0.251739	-0.205870	-0.196884
H245	H	-0.916195	-0.984239	-0.433777
H246	H	-0.666195	-0.734239	-0.183777
H247	H	-0.416195	-0.484239	0.066223
H248	H	-0.166195	-0.234239	0.316223
