data_functionalizedCrystal
_audit_creation_method	'MofGen! by Chris Wilmer'
_symmetry_space_group_name_H-M	'P1'
_symmetry_Int_Tables_number	1
_symmetry_cell_setting	triclinic
loop_
_symmetry_equiv_pos_as_xyz
  x,y,z
_cell_length_a	6.817900
_cell_length_b	17.458011
_cell_length_c	17.078481
_cell_angle_alpha	95.903756
_cell_angle_beta	99.306161
_cell_angle_gamma	106.367272
loop_
_atom_site_label
_atom_site_type_symbol
_atom_site_fract_x
_atom_site_fract_y
_atom_site_fract_z
V1	V	-3.994431	-0.110379	-0.248072
O2	O	-3.967309	0.005496	-0.242617
O3	O	-3.960837	-0.219047	-0.247080
O4	O	-3.925238	-0.108597	-0.355944
O5	O	-4.003154	-0.105719	-0.133000
V6	V	-4.478835	-0.096529	-0.234223
O7	O	-4.253757	-0.140760	-0.278451
O8	O	-4.669706	-0.066148	-0.203844
O9	O	-4.289222	0.012140	-0.235215
O10	O	-4.623354	-0.212404	-0.239678
O11	O	-4.587508	-0.101189	-0.349295
O12	O	-4.324821	-0.098311	-0.126352
C13	C	-3.810113	-0.245541	-0.243349
C14	C	-3.863794	-0.334379	-0.243256
C15	C	-4.185523	-0.834863	-0.243076
C16	C	-4.135073	-0.751392	-0.243173
C17	C	-3.927945	-0.705595	-0.239242
C18	C	-3.771256	-0.743272	-0.235206
C19	C	-3.821706	-0.826740	-0.235103
C20	C	-3.757554	-0.455524	-0.239117
C21	C	-3.707116	-0.372050	-0.239223
C22	C	-4.070936	-0.380176	-0.247189
C23	C	-4.121372	-0.463646	-0.247090
C24	C	-3.964678	-0.501315	-0.243050
N25	N	-3.876373	-0.620275	-0.239344
N26	N	-4.016249	-0.586633	-0.242942
C27	C	-3.764701	-0.104649	-0.382214
C28	C	-3.789510	-0.103911	-0.470404
C29	C	-3.983040	-0.107554	-0.515903
C30	C	-4.006339	-0.106860	-0.598767
C31	C	-3.836107	-0.102529	-0.636131
C32	C	-3.642559	-0.098884	-0.590625
C33	C	-3.619260	-0.099572	-0.507762
C34	C	-3.886284	-0.100038	-0.883518
C35	C	-3.909600	-0.099353	-0.966387
C36	C	-4.273377	-0.107327	-0.974523
C37	C	-4.250064	-0.108020	-0.891659
C38	C	-4.056517	-0.104370	-0.846160
N39	N	-3.859919	-0.101822	-0.720831
N40	N	-4.032704	-0.105071	-0.761460
C41	C	-4.103289	0.038629	-0.238945
C42	C	-4.028845	0.127466	-0.239042
C43	C	-4.148701	-0.102261	-0.100078
C44	C	-4.103131	-0.102995	-0.011887
H45	H	-4.354186	-0.872146	-0.246281
Br46	Br	-4.402481	-0.525794	-0.252426
Br47	Br	-3.544886	-0.506633	-0.233618
Br48	Br	-4.347708	-0.700264	-0.248617
Br49	Br	-3.623629	-0.095107	-0.821783
Br50	Br	-3.678557	-0.093478	-1.017096
Br51	Br	-4.214091	-0.113440	-0.465205
H52	H	-3.503953	-0.095353	-0.621052
H53	H	-3.461656	-0.096586	-0.470714
H54	H	-3.602604	-0.705976	-0.232000
H55	H	-4.163925	-0.109821	-0.635808
Br56	Br	-3.426001	-0.309898	-0.233895
Br57	Br	-4.283576	-0.329049	-0.252669
H58	H	-4.388688	-0.111545	-0.861243
H59	H	-4.430957	-0.110297	-1.011577
Br60	Br	-3.609061	-0.877866	-0.229624
