data_functionalizedCrystal
_audit_creation_method	'MofGen! by Chris Wilmer'
_symmetry_space_group_name_H-M	'P1'
_symmetry_Int_Tables_number	1
_symmetry_cell_setting	triclinic
loop_
_symmetry_equiv_pos_as_xyz
  x,y,z
_cell_length_a	12.759401
_cell_length_b	18.050589
_cell_length_c	12.759393
_cell_angle_alpha	90.030621
_cell_angle_beta	90.018496
_cell_angle_gamma	90.028382
loop_
_atom_site_label
_atom_site_type_symbol
_atom_site_fract_x
_atom_site_fract_y
_atom_site_fract_z
Zn1	Zn	1.606157	-0.295612	0.593988
Zn2	Zn	2.106157	0.204388	1.093988
Zn3	Zn	1.606010	-0.419823	0.418311
Zn4	Zn	2.106010	0.080177	0.918311
Zn5	Zn	1.430459	-0.295651	0.418328
Zn6	Zn	1.930459	0.204349	0.918328
Zn7	Zn	1.430406	-0.419766	0.593953
Zn8	Zn	1.930406	0.080234	1.093953
O9	O	1.518258	-0.357713	0.506145
O10	O	2.018258	0.142287	1.006145
O11	O	1.753158	-0.312097	0.570692
O12	O	2.253158	0.187903	1.070692
O13	O	1.582683	-0.403391	0.271292
O14	O	2.082683	0.096609	0.771292
O15	O	1.453849	-0.191722	0.441651
O16	O	1.953849	0.308278	0.941651
O17	O	1.753050	-0.403354	0.441623
O18	O	2.253050	0.096646	0.941623
O19	O	1.582934	-0.191693	0.570708
O20	O	2.082934	0.308307	1.070708
O21	O	1.453706	-0.312163	0.271304
O22	O	1.953706	0.187837	0.771304
O23	O	1.283431	-0.312108	0.441617
O24	O	1.783431	0.187892	0.941617
O25	O	1.453759	-0.403256	0.740979
O26	O	1.953759	0.096744	1.240979
O27	O	1.283392	-0.403294	0.570648
O28	O	1.783392	0.096706	1.070648
O29	O	1.582882	-0.312041	0.741005
O30	O	2.082882	0.187959	1.241005
O31	O	1.582632	-0.523740	0.441589
O32	O	2.082632	-0.023740	0.941589
O33	O	1.453616	-0.523698	0.570632
O34	O	1.953616	-0.023698	1.070632
C35	C	1.245290	-0.357699	0.506131
C36	C	1.745290	0.142301	1.006131
C37	C	1.128514	-0.357711	0.506149
C38	C	1.628514	0.142289	1.006149
C39	C	1.073659	-0.405268	0.573225
C40	C	1.573659	0.094732	1.073225
C41	C	0.963935	-0.405277	0.573236
C42	C	1.463935	0.094723	1.073236
C43	C	0.963930	-0.310171	0.439088
C44	C	1.463930	0.189829	0.939088
C45	C	1.073652	-0.310159	0.439083
C46	C	1.573652	0.189841	0.939083
C47	C	1.128521	-0.452820	0.640292
C48	C	1.628521	0.047180	1.140292
C49	C	1.073666	-0.500382	0.707372
C50	C	1.573666	-0.000382	1.207372
C51	C	0.963942	-0.500391	0.707383
C52	C	1.463942	-0.000391	1.207383
C53	C	0.909072	-0.452839	0.640314
C54	C	1.409072	0.047161	1.140314
C55	C	1.518131	-0.550665	0.506127
C56	C	2.018131	-0.050665	1.006127
C57	C	1.518173	-0.633211	0.506155
C58	C	2.018173	-0.133211	1.006155
C59	C	1.448083	-0.832666	0.576304
C60	C	1.948083	-0.332666	1.076304
C61	C	1.422469	-0.882114	0.480436
C62	C	1.922469	-0.382114	0.980436
C63	C	1.518276	-0.784341	0.506169
C64	C	2.018276	-0.284341	1.006169
C65	C	1.543942	-0.881974	0.602048
C66	C	2.043942	-0.381974	1.102048
C67	C	1.518374	-0.930326	0.506191
C68	C	2.018374	-0.430326	1.006191
C69	C	1.492611	-0.832703	0.410250
C70	C	1.992611	-0.332703	0.910250
C71	C	1.614129	-0.832558	0.531927
C72	C	2.114129	-0.332558	1.031927
C73	C	1.588551	-0.881985	0.435992
C74	C	2.088551	-0.381985	0.935992
C75	C	1.518217	-0.700243	0.506158
C76	C	2.018217	-0.200243	1.006158
C77	C	1.518433	-1.014423	0.506191
C78	C	2.018433	-0.514423	1.006191
C79	C	1.792291	-0.357727	0.506160
C80	C	2.292291	0.142273	1.006160
C81	C	1.909068	-0.357733	0.506166
C82	C	2.409068	0.142267	1.006166
C83	C	1.518331	-0.357638	0.780178
C84	C	2.018331	0.142362	1.280178
C85	C	1.518363	-0.357606	0.896955
C86	C	2.018363	0.142394	1.396955
C87	C	1.518414	-0.164007	0.506185
C88	C	2.018414	0.335993	1.006185
C89	C	1.518480	-0.081462	0.506203
C90	C	2.018480	0.418538	1.006203
C91	C	1.518245	-0.357734	0.233178
C92	C	2.018245	0.142266	0.733178
C93	C	1.518417	-0.357557	0.116401
C94	C	2.018417	0.142443	0.616401
C95	C	1.585606	-0.310106	0.951832
C96	C	2.085606	0.189894	1.451832
C97	C	1.585631	-0.310079	1.061557
C98	C	2.085631	0.189921	1.561557
C99	C	1.451166	-0.405059	1.061516
C100	C	1.951166	0.094941	1.561516
C101	C	1.451136	-0.405081	0.951794
C102	C	1.951136	0.094919	1.451794
C103	C	1.652833	-0.262631	0.896993
C104	C	2.152833	0.237369	1.396993
C105	C	1.720083	-0.215128	0.951871
C106	C	2.220083	0.284872	1.451871
C107	C	1.720108	-0.215101	1.061595
C108	C	2.220108	0.284899	1.561595
C109	C	1.652883	-0.262577	1.116442
C110	C	2.152883	0.237423	1.616442
H111	H	0.819728	-0.452844	0.640338
H112	H	1.319728	0.047156	1.140338
Cl113	Cl	1.804573	-0.155435	0.882923
Cl114	Cl	2.304573	0.344565	1.382923
Cl115	Cl	1.804652	-0.155386	1.130581
Cl116	Cl	2.304652	0.344614	1.630581
Cl117	Cl	1.459013	-0.799430	0.285039
Cl118	Cl	1.959013	-0.299430	0.785039
Cl119	Cl	1.142642	-0.560153	0.791687
Cl120	Cl	1.642642	-0.060153	1.291687
Cl121	Cl	1.366665	-0.464742	1.130467
Cl122	Cl	1.866665	0.035258	1.630467
H123	H	0.919247	-0.271458	0.384483
H124	H	1.419247	0.228542	0.884483
H125	H	1.652896	-0.262543	1.205786
H126	H	2.152896	0.237457	1.705786
Cl127	Cl	1.366598	-0.464796	0.882800
Cl128	Cl	1.866598	0.035204	1.382800
Cl129	Cl	1.577397	-0.915393	0.727220
Cl130	Cl	2.077397	-0.415393	1.227220
Cl131	Cl	1.652809	-0.262664	0.759055
Cl132	Cl	2.152809	0.237336	1.259055
Cl133	Cl	1.739180	-0.798925	0.565603
Cl134	Cl	2.239180	-0.298925	1.065603
H135	H	1.118316	-0.271429	0.384472
H136	H	1.618316	0.228571	0.884472
H137	H	0.919282	-0.539112	0.762010
H138	H	1.419282	-0.039112	1.262010
Cl139	Cl	1.680265	-0.915210	0.344334
Cl140	Cl	2.180265	-0.415210	0.844334
Cl141	Cl	1.266459	-0.452814	0.640278
Cl142	Cl	1.766459	0.047186	1.140278
H143	H	1.388636	-0.811010	0.635531
H144	H	1.888636	-0.311010	1.135531
H145	H	1.341455	-0.903898	0.458669
H146	H	1.841455	-0.403898	0.958669
