data_functionalizedCrystal
_audit_creation_method	'MofGen! by Chris Wilmer'
_symmetry_space_group_name_H-M	'P1'
_symmetry_Int_Tables_number	1
_symmetry_cell_setting	triclinic
loop_
_symmetry_equiv_pos_as_xyz
  x,y,z
_cell_length_a	17.699083
_cell_length_b	13.930277
_cell_length_c	17.699083
_cell_angle_alpha	90.005450
_cell_angle_beta	83.283015
_cell_angle_gamma	90.001186
loop_
_atom_site_label
_atom_site_type_symbol
_atom_site_fract_x
_atom_site_fract_y
_atom_site_fract_z
O1	O	1.004079	0.079698	0.095711
O2	O	0.783700	0.079730	0.108163
O3	O	0.900116	0.079705	-0.008252
O4	O	0.887663	0.079723	0.212126
O5	O	0.900100	-0.079957	-0.008255
O6	O	0.783684	-0.079932	0.108161
O7	O	1.004063	-0.079964	0.095708
Zn8	Zn	0.893871	-0.105298	0.101934
Zn9	Zn	0.893892	0.105064	0.101937
O10	O	0.887647	-0.079938	0.212124
C11	C	0.755495	-0.000097	0.107716
C12	C	0.671477	-0.000085	0.106377
N13	N	0.893862	-0.248864	0.101931
C14	C	0.622856	-0.000080	0.174710
C15	C	0.543913	-0.000092	0.173448
C16	C	0.513592	-0.000103	0.103852
C17	C	0.562219	-0.000112	0.035513
C18	C	0.641161	-0.000106	0.036776
C19	C	0.243856	-0.000136	0.030418
C20	C	0.164908	-0.000139	0.029160
C21	C	0.146608	-0.000122	0.167090
C22	C	0.225550	-0.000116	0.168353
C23	C	0.274170	-0.000130	0.100015
C24	C	0.359769	-0.000118	0.101384
C25	C	0.427995	-0.000108	0.102481
C26	C	0.842342	-0.701122	0.153466
C27	C	0.945464	-0.701113	0.050403
C28	C	0.945455	-0.600618	0.050400
C29	C	0.893889	-0.550369	0.101932
C30	C	0.842332	-0.600617	0.153467
C31	C	0.997016	-0.550363	-0.001128
C32	C	0.997009	-0.449861	-0.001132
C33	C	0.945439	-0.399611	0.050397
C34	C	0.893880	-0.449864	0.101933
C35	C	0.842314	-0.399616	0.153465
C36	C	0.790751	-0.449868	0.204998
C37	C	0.790763	-0.550367	0.204995
C38	C	0.945428	-0.299112	0.050399
C39	C	0.842305	-0.299111	0.153466
C40	C	1.032268	-0.000135	0.096156
C41	C	1.116286	-0.000140	0.097494
C42	C	0.899662	-0.000126	-0.036451
C43	C	0.898323	-0.000127	-0.120469
N44	N	0.893907	0.248630	0.101934
C45	C	0.966656	-0.000138	-0.169090
C46	C	0.965394	-0.000129	-0.248033
C47	C	0.895798	-0.000116	-0.278354
C48	C	0.827459	-0.000102	-0.229727
C49	C	0.828722	-0.000104	-0.150785
C50	C	0.822364	-0.000093	-0.548090
C51	C	0.821106	-0.000095	-0.627038
C52	C	0.959036	-0.000119	-0.645338
C53	C	0.960299	-0.000120	-0.566396
C54	C	0.891961	-0.000101	-0.517776
C55	C	0.893330	-0.000109	-0.432177
C56	C	0.894427	-0.000115	-0.363951
C57	C	0.888102	-0.000105	0.240322
C58	C	0.889440	-0.000099	0.324340
H59	H	0.504328	-0.000087	0.229092
C60	C	1.035939	-0.000084	-0.533624
C61	C	1.095514	-0.000065	-0.593102
C62	C	1.165205	-0.000015	-0.562943
H63	H	1.039402	-0.055747	-0.503224
H64	H	1.039343	0.055616	-0.503227
H65	H	1.092112	-0.055760	-0.623486
H66	H	1.092076	0.055593	-0.623507
H67	H	1.168609	0.055685	-0.532546
H68	H	1.168661	-0.055679	-0.532543
H69	H	1.205635	0.000007	-0.603293
H70	H	0.283434	-0.000148	-0.025228
C71	C	0.748110	0.000064	-0.495401
C72	C	0.706193	0.082197	-0.509095
C73	C	0.637778	0.082366	-0.460578
H74	H	0.758713	0.000113	-0.444016
H75	H	0.719523	-0.055583	-0.504598
H76	H	0.734774	0.137830	-0.499893
H77	H	0.695570	0.082166	-0.560471
H78	H	0.609192	0.026719	-0.469775
H79	H	0.648389	0.082412	-0.409196
H80	H	0.609326	0.138087	-0.469868
H81	H	0.537526	-0.000135	-0.021154
C82	C	0.693917	0.000091	-0.037439
C83	C	0.680250	0.082241	-0.079344
C84	C	0.728841	0.082458	-0.147712
H85	H	0.684787	-0.055525	-0.066074
H86	H	0.745285	0.000146	-0.026750
H87	H	0.628894	0.082177	-0.090035
H88	H	0.689385	0.137870	-0.050732
H89	H	0.780209	0.082513	-0.137023
H90	H	0.719707	0.026838	-0.176341
H91	H	0.719579	0.138199	-0.176150
H92	H	0.773078	-0.000094	-0.111198
H93	H	0.647537	-0.000070	0.231384
H94	H	1.014680	-0.000129	-0.684934
H95	H	0.250232	-0.000103	0.225025
H96	H	0.770792	-0.000085	-0.254420
C97	C	1.001510	-0.244516	-0.005412
C98	C	1.047764	-0.186838	0.034866
C99	C	1.099453	-0.136547	-0.016521
H100	H	0.974453	-0.205234	-0.036919
H101	H	1.032267	-0.288817	-0.036079
H102	H	1.017011	-0.142542	0.065520
H103	H	1.074838	-0.226096	0.066370
H104	H	1.130210	-0.180848	-0.047188
H105	H	1.072390	-0.097271	-0.048026
H106	H	1.130847	-0.097414	0.010800
H107	H	0.107012	-0.000116	0.222734
H108	H	0.140225	-0.000149	-0.027517
H109	H	1.038994	-0.408952	-0.043093
C110	C	1.053114	-0.604856	-0.056999
C111	C	1.127464	-0.580425	-0.044815
C112	C	1.179159	-0.630615	-0.096272
H113	H	1.045082	-0.588421	-0.107531
H114	H	1.045785	-0.671917	-0.049626
H115	H	1.134789	-0.513379	-0.052194
H116	H	1.135519	-0.596863	0.005706
H117	H	1.171831	-0.697676	-0.088899
H118	H	1.171121	-0.614176	-0.146800
H119	H	1.229611	-0.614052	-0.088007
H120	H	0.800311	-0.258205	0.195427
H121	H	0.748769	-0.408944	0.246959
H122	H	0.764429	-0.000086	-0.651721
C123	C	0.734874	-0.605099	0.260913
C124	C	0.745938	-0.703866	0.249898
C125	C	0.694477	-0.754319	0.301403
H126	H	0.684342	-0.588761	0.252810
H127	H	0.743005	-0.588674	0.311432
H128	H	0.737801	-0.720285	0.199391
H129	H	0.796459	-0.720233	0.258007
H130	H	0.702608	-0.737894	0.351922
H131	H	0.643948	-0.737974	0.293295
H132	H	0.701981	-0.821337	0.293941
H133	H	1.023330	-0.000154	-0.144409
H134	H	0.800357	-0.742039	0.195421
H135	H	0.987451	-0.742029	0.008451
C136	C	1.039668	-0.000198	-0.300696
C137	C	1.100887	-0.000243	-0.257246
C138	C	1.169322	-0.000320	-0.305732
H139	H	1.042162	0.055465	-0.331885
H140	H	1.042073	-0.055897	-0.331865
H141	H	1.098482	0.055451	-0.226090
H142	H	1.098417	-0.055902	-0.226059
H143	H	1.171727	-0.056020	-0.336901
H144	H	1.171808	0.055344	-0.336919
H145	H	1.210867	-0.000360	-0.276259
