data_functionalizedCrystal
_audit_creation_method	'MofGen! by Chris Wilmer'
_symmetry_space_group_name_H-M	'P1'
_symmetry_Int_Tables_number	1
_symmetry_cell_setting	triclinic
loop_
_symmetry_equiv_pos_as_xyz
  x,y,z
_cell_length_a	17.077404
_cell_length_b	18.215404
_cell_length_c	17.077396
_cell_angle_alpha	90.029389
_cell_angle_beta	89.983895
_cell_angle_gamma	89.978207
loop_
_atom_site_label
_atom_site_type_symbol
_atom_site_fract_x
_atom_site_fract_y
_atom_site_fract_z
Zn1	Zn	1.200032	0.293018	-0.443818
Zn2	Zn	1.199942	0.416093	-0.312552
Zn3	Zn	1.068769	0.293041	-0.312569
Zn4	Zn	1.068730	0.416043	-0.443778
O5	O	1.134368	0.354549	-0.378180
O6	O	1.309867	0.309356	-0.426415
O7	O	1.182521	0.399801	-0.202708
O8	O	1.086235	0.190054	-0.330003
O9	O	1.309801	0.399779	-0.329975
O10	O	1.182674	0.190037	-0.426432
O11	O	1.086148	0.309395	-0.202720
O12	O	0.958917	0.309346	-0.329964
O13	O	1.086168	0.399693	-0.553631
O14	O	0.958888	0.399715	-0.426364
O15	O	1.182636	0.309307	-0.553660
O16	O	1.182482	0.519071	-0.329936
O17	O	1.086081	0.519034	-0.426347
C18	C	0.930420	0.354528	-0.378162
C19	C	0.843171	0.354537	-0.378173
C20	C	0.802216	0.307537	-0.428466
C21	C	0.720235	0.307542	-0.428470
C22	C	0.679211	0.354551	-0.378184
C23	C	0.720172	0.401552	-0.327885
C24	C	0.802151	0.401543	-0.327878
C25	C	0.549302	0.401569	-0.327904
C26	C	0.467317	0.401579	-0.327912
C27	C	0.467386	0.307568	-0.428496
C28	C	0.549365	0.307559	-0.428489
C29	C	0.590320	0.354561	-0.378191
C30	C	1.134289	0.545755	-0.378153
C31	C	1.134327	0.627554	-0.378167
C32	C	1.184645	0.815743	-0.328069
C33	C	1.184681	0.892601	-0.328092
C34	C	1.084212	0.892603	-0.428403
C35	C	1.084180	0.815746	-0.428383
C36	C	1.134395	0.777317	-0.378212
C37	C	1.134464	0.931034	-0.378255
C38	C	1.134503	1.014367	-0.378281
C39	C	1.134357	0.693979	-0.378187
C40	C	1.339112	0.354570	-0.378198
C41	C	1.426362	0.354579	-0.378205
C42	C	1.134474	1.162596	-0.378238
C43	C	1.134532	1.080797	-0.378299
C44	C	1.134408	0.354492	-0.582924
C45	C	1.134424	0.354468	-0.670174
C46	C	1.084259	0.307387	-0.711170
C47	C	1.084271	0.307371	-0.793150
C48	C	1.134455	0.354431	-0.834133
C49	C	1.184623	0.401516	-0.793132
C50	C	1.184605	0.401536	-0.711153
C51	C	1.184657	0.401470	-0.964002
C52	C	1.184675	0.401450	-1.045986
C53	C	1.084323	0.307305	-1.045999
C54	C	1.084305	0.307325	-0.964020
C55	C	1.134475	0.354409	-0.923024
C56	C	1.134374	0.354553	-0.174232
C57	C	1.134509	0.354370	-0.086982
H58	H	0.686893	0.269272	-0.469425
H59	H	1.225534	0.784456	-0.287217
H60	H	1.225601	0.923884	-0.287262
H61	H	1.043418	0.269036	-0.826526
H62	H	1.225517	0.439805	-0.930625
H63	H	1.043474	0.268966	-1.079382
Br64	Br	0.664498	0.465344	-0.259632
Br65	Br	0.604883	0.465363	-0.259646
Br66	Br	1.016065	0.944760	-0.496489
Br67	Br	0.857734	0.465329	-0.259619
Br68	Br	1.015985	0.763592	-0.496446
Br69	Br	0.605040	0.243769	-0.496745
Br70	Br	1.252722	0.465391	-0.848750
Br71	Br	1.252684	0.465439	-0.655514
H72	H	0.835611	0.269259	-0.469417
H73	H	1.043398	0.269061	-0.677807
Br74	Br	1.252789	0.465311	-1.101606
Br75	Br	0.411806	0.243778	-0.496758
Br76	Br	0.411642	0.465398	-0.259688
H77	H	1.043445	0.269001	-0.930654
