data_functionalizedCrystal
_audit_creation_method	'MofGen! by Chris Wilmer'
_symmetry_space_group_name_H-M	'P1'
_symmetry_Int_Tables_number	1
_symmetry_cell_setting	triclinic
loop_
_symmetry_equiv_pos_as_xyz
  x,y,z
_cell_length_a	19.188930
_cell_length_b	14.044220
_cell_length_c	13.101039
_cell_angle_alpha	86.332523
_cell_angle_beta	93.360061
_cell_angle_gamma	88.166828
loop_
_atom_site_label
_atom_site_type_symbol
_atom_site_fract_x
_atom_site_fract_y
_atom_site_fract_z
O1	O	-0.937307	-0.113041	-0.085551
O2	O	-0.437307	0.386959	0.414449
O3	O	-0.735021	-0.128972	-0.085481
O4	O	-0.235021	0.371028	0.414519
O5	O	-0.833127	0.016965	-0.085505
O6	O	-0.333127	0.516965	0.414495
O7	O	-0.839201	-0.258978	-0.085527
O8	O	-0.339201	0.241022	0.414473
O9	O	-0.826089	0.006477	0.084927
O10	O	-0.326089	0.506477	0.584927
O11	O	-0.727983	-0.139460	0.084950
O12	O	-0.227983	0.360540	0.584950
O13	O	-0.930269	-0.123529	0.084881
O14	O	-0.430269	0.376471	0.584881
Zn15	Zn	-0.828009	-0.133160	0.111975
Zn16	Zn	-0.328009	0.366840	0.611975
Zn17	Zn	-0.837282	-0.119341	-0.112576
Zn18	Zn	-0.337282	0.380659	0.387424
O19	O	-0.832163	-0.269466	0.084904
O20	O	-0.332163	0.230534	0.584904
C21	C	-0.705457	-0.133701	-0.000256
C22	C	-0.205457	0.366299	0.499744
C23	C	-0.627852	-0.132154	-0.000229
C24	C	-0.127852	0.367846	0.499771
C25	C	-0.826950	0.047024	-0.000288
C26	C	-0.326950	0.547024	0.499712
C27	C	-0.819021	0.152217	-0.000284
C28	C	-0.319021	0.652217	0.499716
C29	C	-0.959833	-0.118800	-0.000346
C30	C	-0.459833	0.381200	0.499654
C31	C	-1.037439	-0.120346	-0.000380
C32	C	-0.537439	0.379654	0.499620
C33	C	-0.588454	-0.217783	-0.000252
C34	C	-0.088454	0.282217	0.499748
C35	C	-0.515537	-0.216328	-0.000263
C36	C	-0.015537	0.283672	0.499737
C37	C	-0.482021	-0.129238	-0.000272
C38	C	0.017979	0.370762	0.499728
C39	C	-0.521427	-0.043598	-0.000243
C40	C	-0.021427	0.456402	0.499757
C41	C	-0.594343	-0.045056	-0.000222
C42	C	-0.094343	0.454944	0.499778
N43	N	-0.372142	-0.059097	-0.058313
N44	N	0.127858	0.440903	0.441687
N45	N	-0.302875	-0.057717	-0.058336
N46	N	0.197125	0.442283	0.441664
C47	C	-0.262331	-0.124839	-0.000335
C48	C	0.237669	0.375161	0.499665
N49	N	-0.293671	-0.193406	0.057677
N50	N	0.206329	0.306594	0.557677
N51	N	-0.362944	-0.194788	0.057695
N52	N	0.137056	0.305212	0.557695
C53	C	-0.402957	-0.127647	-0.000295
C54	C	0.097043	0.372353	0.499705
C55	C	-0.143869	-0.208896	-0.000368
C56	C	0.356131	0.291104	0.499632
C57	C	-0.070950	-0.207437	-0.000373
C58	C	0.429050	0.292563	0.499627
C59	C	-0.076842	-0.034705	-0.000363
C60	C	0.423158	0.465295	0.499637
C61	C	-0.149759	-0.036166	-0.000348
C62	C	0.350241	0.463834	0.499652
C63	C	-0.183268	-0.123264	-0.000355
C64	C	0.316732	0.376736	0.499645
N65	N	-0.821685	-0.142590	0.265225
N66	N	-0.321685	0.357410	0.765225
C67	C	-0.838340	-0.299525	-0.000315
C68	C	-0.338340	0.200475	0.499685
C69	C	-0.846269	-0.404717	-0.000326
C70	C	-0.346269	0.095283	0.499674
C71	C	-0.804526	0.344819	-0.000293
C72	C	-0.304526	0.844819	0.499707
C73	C	-0.860762	0.402686	-0.000316
C74	C	-0.360762	0.902686	0.499684
C75	C	-0.852696	0.509857	-0.000321
C76	C	-0.352696	1.009857	0.499679
C77	C	-0.812590	0.237638	-0.000288
C78	C	-0.312590	0.737638	0.499712
N79	N	-0.843610	-0.109904	-0.265826
N80	N	-0.343610	0.390096	0.234174
C81	C	-0.813083	-0.155429	0.474270
C82	C	-0.313083	0.344571	0.974270
C83	C	-0.852211	-0.097068	0.525136
C84	C	-0.352211	0.402932	1.025136
C85	C	-0.847424	-0.104212	0.641456
C86	C	-0.347424	0.395788	1.141456
C87	C	-0.817868	-0.148286	0.357940
C88	C	-0.317868	0.351714	0.857940
H89	H	-0.483454	-0.286059	-0.000279
H90	H	0.016546	0.213941	0.499721
H91	H	-0.049557	0.036210	-0.000434
H92	H	0.450443	0.536210	0.499566
N93	N	-0.901347	-0.023777	0.467115
N94	N	-0.401347	0.476223	0.967115
H95	H	-0.897848	-0.028997	0.391040
H96	H	-0.397848	0.471003	0.891040
H97	H	-0.950805	-0.035574	0.485779
H98	H	-0.450805	0.464426	0.985779
N99	N	-0.932562	0.361713	-0.000328
N100	N	-0.432562	0.861713	0.499672
H101	H	-0.941025	0.325083	-0.063503
H102	H	-0.441025	0.825083	0.436497
H103	H	-0.935750	0.317372	0.062897
H104	H	-0.435750	0.817372	0.562897
N105	N	-0.763950	-0.228715	0.532291
N106	N	-0.263950	0.271285	1.032291
H107	H	-0.767455	-0.223493	0.608365
H108	H	-0.267455	0.276507	1.108365
H109	H	-0.777043	-0.294752	0.513595
H110	H	-0.277043	0.205248	1.013595
H111	H	-0.750328	0.375762	-0.000277
H112	H	-0.250328	0.875762	0.499723
H113	H	-0.626420	0.024675	-0.000204
H114	H	-0.126420	0.524675	0.499796
N115	N	-0.624588	-0.311726	-0.000262
N116	N	-0.124588	0.188274	0.499738
H117	H	-0.607981	-0.353120	0.062908
H118	H	-0.107981	0.146880	0.562908
H119	H	-0.676751	-0.299586	-0.000286
H120	H	-0.176751	0.200414	0.499714
N121	N	-0.485282	0.050335	-0.000241
N122	N	0.014718	0.550335	0.499759
H123	H	-0.433112	0.038267	-0.000259
H124	H	0.066888	0.538267	0.499741
H125	H	-0.501941	0.091687	-0.063411
H126	H	-0.001941	0.591687	0.436589
N127	N	-0.180017	-0.302830	-0.000371
N128	N	0.319983	0.197170	0.499629
H129	H	-0.143991	-0.356858	-0.000379
H130	H	0.356009	0.143142	0.499621
H131	H	-0.207518	-0.311084	0.062816
H132	H	0.292482	0.188916	0.562816
N133	N	-0.028474	-0.299821	-0.000337
N134	N	0.471526	0.200179	0.499663
H135	H	-0.042496	-0.333967	-0.063502
H136	H	0.457504	0.166033	0.436498
H137	H	0.022796	-0.285640	-0.000286
H138	H	0.522796	0.214360	0.499714
N139	N	-0.192257	0.056191	-0.000323
N140	N	0.307743	0.556191	0.499677
H141	H	-0.159963	0.111585	-0.000329
H142	H	0.340037	0.611585	0.499671
H143	H	-0.225268	0.063239	-0.063493
H144	H	0.274732	0.563239	0.436507
