data_functionalizedCrystal
_audit_creation_method	'MofGen! by Chris Wilmer'
_symmetry_space_group_name_H-M	'P1'
_symmetry_Int_Tables_number	1
_symmetry_cell_setting	triclinic
loop_
_symmetry_equiv_pos_as_xyz
  x,y,z
_cell_length_a	19.121241
_cell_length_b	19.121111
_cell_length_c	19.120904
_cell_angle_alpha	85.256407
_cell_angle_beta	89.875472
_cell_angle_gamma	84.995459
loop_
_atom_site_label
_atom_site_type_symbol
_atom_site_fract_x
_atom_site_fract_y
_atom_site_fract_z
Zn1	Zn	1.043551	0.254511	-0.452560
Zn2	Zn	1.376884	0.587844	-0.119226
Zn3	Zn	1.710217	0.921178	0.214107
Zn4	Zn	1.043461	0.367162	-0.339911
Zn5	Zn	1.376794	0.700495	-0.006578
Zn6	Zn	1.710128	1.033828	0.326756
Zn7	Zn	0.931336	0.254093	-0.330312
Zn8	Zn	1.264669	0.587426	0.003021
Zn9	Zn	1.598002	0.920759	0.336354
Zn10	Zn	0.920826	0.377148	-0.452504
Zn11	Zn	1.254159	0.710482	-0.119171
Zn12	Zn	1.587492	1.043815	0.214162
O13	O	0.984793	0.313228	-0.393822
O14	O	1.318127	0.646562	-0.060488
O15	O	1.651460	0.979895	0.272845
O16	O	1.141824	0.265450	-0.441657
O17	O	1.475158	0.598783	-0.108324
O18	O	1.808491	0.932117	0.225010
O19	O	1.032948	0.347809	-0.240356
O20	O	1.366282	0.681142	0.092977
O21	O	1.699615	1.014475	0.426311
O22	O	0.950657	0.155504	-0.342535
O23	O	1.283991	0.488837	-0.009202
O24	O	1.617324	0.822171	0.324132
O25	O	1.141758	0.348214	-0.358894
O26	O	1.475092	0.681548	-0.025561
O27	O	1.808425	1.014881	0.307772
O28	O	1.033101	0.155812	-0.432350
O29	O	1.366435	0.489145	-0.099016
O30	O	1.699768	0.822478	0.234317
O31	O	0.950570	0.264737	-0.233304
O32	O	1.283904	0.598070	0.100029
O33	O	1.617237	0.931404	0.433363
O34	O	0.831656	0.274420	-0.342481
O35	O	1.164989	0.607754	-0.009148
O36	O	1.498323	0.941087	0.324186
O37	O	0.932744	0.365235	-0.550793
O38	O	1.266078	0.698568	-0.217460
O39	O	1.599411	1.031901	0.115873
O40	O	0.823934	0.364829	-0.432255
O41	O	1.157268	0.698162	-0.098922
O42	O	1.490601	1.031496	0.234412
O43	O	1.022910	0.275134	-0.550834
O44	O	1.356243	0.608467	-0.217501
O45	O	1.689577	0.941800	0.115833
O46	O	1.022757	0.467131	-0.358840
O47	O	1.356090	0.800464	-0.025507
O48	O	1.689424	1.133797	0.307826
O49	O	0.932657	0.474467	-0.441562
O50	O	1.265991	0.807801	-0.108229
O51	O	1.599324	1.141134	0.225104
C52	C	0.802311	0.320663	-0.386321
C53	C	1.135644	0.653997	-0.052988
C54	C	1.468977	0.987330	0.280346
C55	C	0.724242	0.323862	-0.383129
C56	C	1.057576	0.657195	-0.049796
C57	C	1.390909	0.990529	0.283537
C58	C	0.687594	0.282348	-0.424792
C59	C	1.020928	0.615682	-0.091458
C60	C	1.354261	0.949015	0.241875
C61	C	0.614241	0.285350	-0.421787
C62	C	0.947575	0.618683	-0.088453
C63	C	1.280908	0.952017	0.244880
C64	C	0.577537	0.329869	-0.377123
C65	C	0.910871	0.663203	-0.043789
C66	C	1.244204	0.996536	0.289544
C67	C	0.614190	0.371385	-0.335456
C68	C	0.947524	0.704718	-0.002122
C69	C	1.280857	1.038051	0.331211
C70	C	0.687542	0.368379	-0.338458
C71	C	1.020876	0.701712	-0.005124
C72	C	1.354209	1.035045	0.328209
C73	C	0.356060	0.341094	-0.365896
C74	C	0.689394	0.674427	-0.032563
C75	C	1.022727	1.007760	0.300770
C76	C	0.282703	0.344098	-0.362899
C77	C	0.616036	0.677431	-0.029566
C78	C	0.949370	1.010765	0.303767
C79	C	0.282759	0.258062	-0.449230
C80	C	0.616092	0.591395	-0.115896
C81	C	0.949426	0.924729	0.217437
C82	C	0.356112	0.255063	-0.452230
C83	C	0.689446	0.588397	-0.118897
C84	C	1.022779	0.921730	0.214436
C85	C	0.392759	0.296576	-0.410561
C86	C	0.726093	0.629909	-0.077228
C87	C	1.059426	0.963242	0.256106
C88	C	0.502558	0.332940	-0.374052
C89	C	0.835892	0.666274	-0.040718
C90	C	1.169225	0.999607	0.292615
C91	C	0.467737	0.293501	-0.413629
C92	C	0.801070	0.626834	-0.080295
C93	C	1.134404	0.960167	0.253038
C94	C	0.976575	0.496376	-0.401253
C95	C	1.309909	0.829709	-0.067920
C96	C	1.643242	1.163043	0.265414
C97	C	0.973123	0.574726	-0.404458
C98	C	1.306456	0.908059	-0.071125
C99	C	1.639790	1.241393	0.262208
C100	C	1.018444	0.607692	-0.362934
C101	C	1.351778	0.941025	-0.029600
C102	C	1.685111	1.274358	0.303733
C103	C	1.015201	0.681310	-0.365953
C104	C	1.348534	1.014643	-0.032619
C105	C	1.681868	1.347977	0.300714
C106	C	0.966633	0.721961	-0.410493
C107	C	1.299966	1.055294	-0.077159
C108	C	1.633300	1.388628	0.256174
C109	C	0.921310	0.688990	-0.452022
C110	C	1.254643	1.022324	-0.118688
C111	C	1.587976	1.355657	0.214645
C112	C	0.924557	0.615373	-0.449006
C113	C	1.257890	0.948707	-0.115673
C114	C	1.591223	1.282040	0.217661
C115	C	0.954484	0.944429	-0.421754
C116	C	1.287817	1.277762	-0.088420
C117	C	1.621150	1.611096	0.244913
C118	C	0.951239	1.018051	-0.424765
C119	C	1.284572	1.351384	-0.091431
C120	C	1.617906	1.684717	0.241902
C121	C	1.045132	1.010365	-0.338696
C122	C	1.378465	1.343699	-0.005363
C123	C	1.711798	1.677032	0.327970
C124	C	1.048371	0.936747	-0.335682
C125	C	1.381705	1.270081	-0.002348
C126	C	1.715038	1.603414	0.330985
C127	C	1.003051	0.903783	-0.377213
C128	C	1.336384	1.237116	-0.043880
C129	C	1.669717	1.570450	0.289453
C130	C	0.963315	0.797211	-0.413578
C131	C	1.296649	1.130544	-0.080244
C132	C	1.629982	1.463878	0.253089
C133	C	1.006372	0.828534	-0.374131
C134	C	1.339706	1.161868	-0.040798
C135	C	1.673039	1.495201	0.292535
C136	C	1.167988	0.305765	-0.401352
C137	C	1.501322	0.639098	-0.068019
C138	C	1.834655	0.972432	0.265314
C139	C	1.246055	0.302584	-0.404561
C140	C	1.579388	0.635918	-0.071228
C141	C	1.912722	0.969251	0.262105
C142	C	0.976665	0.321345	-0.577010
C143	C	1.309998	0.654678	-0.243676
C144	C	1.643331	0.988011	0.089657
C145	C	0.973201	0.324803	-0.655073
C146	C	1.306534	0.658137	-0.321740
C147	C	1.639868	0.991470	0.011593
C148	C	0.993055	1.129366	-0.386386
C149	C	1.326389	1.462699	-0.053053
C150	C	1.659722	1.796033	0.280280
C151	C	0.996560	1.051017	-0.383240
C152	C	1.329894	1.384350	-0.049907
C153	C	1.663227	1.717683	0.283426
C154	C	1.018516	0.279520	-0.691770
C155	C	1.351849	0.612853	-0.358437
C156	C	1.685182	0.946186	-0.025103
C157	C	1.015252	0.282767	-0.765119
C158	C	1.348586	0.616100	-0.431785
C159	C	1.681919	0.949434	-0.098452
C160	C	0.966678	0.331302	-0.801770
C161	C	1.300011	0.664635	-0.468436
C162	C	1.633344	0.997969	-0.135103
C163	C	0.921358	0.376588	-0.765068
C164	C	1.254692	0.709921	-0.431734
C165	C	1.588025	1.043255	-0.098401
C166	C	0.924618	0.373336	-0.691720
C167	C	1.257952	0.706670	-0.358387
C168	C	1.591285	1.040003	-0.025053
C169	C	0.954482	0.343463	-1.023231
C170	C	1.287816	0.676796	-0.689897
C171	C	1.621149	1.010129	-0.356564
C172	C	0.951227	0.346712	-1.096584
C173	C	1.284560	0.680046	-0.763250
C174	C	1.617894	1.013379	-0.429917
C175	C	1.045121	0.252890	-1.096630
C176	C	1.378454	0.586223	-0.763296
C177	C	1.711787	0.919557	-0.429963
C178	C	1.048379	0.249646	-1.023281
C179	C	1.381713	0.582979	-0.689948
C180	C	1.715046	0.916313	-0.356614
C181	C	1.003058	0.294929	-0.986585
C182	C	1.336391	0.628262	-0.653252
C183	C	1.669724	0.961596	-0.319918
C184	C	0.963343	0.334624	-0.876744
C185	C	1.296676	0.667958	-0.543411
C186	C	1.630009	1.001291	-0.210077
C187	C	1.006390	0.291603	-0.911612
C188	C	1.339723	0.624936	-0.578279
C189	C	1.673056	0.958270	-0.244945
C190	C	0.992933	0.305091	-0.211346
C191	C	1.326266	0.638425	0.121987
C192	C	1.659599	0.971758	0.455320
C193	C	0.996542	0.301428	-0.133280
C194	C	1.329875	0.634762	0.200053
C195	C	1.663208	0.968095	0.533386
H196	H	0.252820	0.380354	-0.326528
H197	H	0.586154	0.713688	0.006805
H198	H	0.919487	1.047021	0.340138
H199	H	1.045936	0.252083	-0.881767
H200	H	1.379270	0.585417	-0.548434
H201	H	1.712603	0.918750	-0.215101
O202	O	1.064135	0.233929	-0.804698
O203	O	1.397468	0.567263	-0.471364
O204	O	1.730801	0.900596	-0.138031
H205	H	1.032832	0.200818	-0.835363
H206	H	1.366165	0.534151	-0.502030
H207	H	1.699498	0.867484	-0.168697
H208	H	0.881805	0.416104	-0.794914
H209	H	1.215138	0.749437	-0.461581
H210	H	1.548472	1.082770	-0.128248
O211	O	0.727182	0.234326	-0.472961
O212	O	1.060516	0.567660	-0.139627
O213	O	1.393849	0.900993	0.193706
H214	H	0.689373	0.205957	-0.501419
H215	H	1.022706	0.539291	-0.168086
H216	H	1.356039	0.872624	0.165248
O217	O	0.395703	0.207047	-0.500403
O218	O	0.729036	0.540380	-0.167070
O219	O	1.062370	0.873714	0.166264
H220	H	0.432121	0.168382	-0.468936
H221	H	0.765455	0.501715	-0.135602
H222	H	1.098788	0.835048	0.197731
O223	O	0.243234	0.213286	-0.494167
O224	O	0.576567	0.546619	-0.160834
O225	O	0.909900	0.879952	0.172499
H226	H	0.260325	0.156838	-0.480543
H227	H	0.593659	0.490171	-0.147209
H228	H	0.926992	0.823505	0.186124
H229	H	1.082030	1.037213	-0.304885
H230	H	1.415364	1.370546	0.028449
H231	H	1.748697	1.703880	0.361782
H232	H	0.923796	0.374145	-0.906593
H233	H	1.257129	0.707478	-0.573260
H234	H	1.590462	1.040811	-0.239927
H235	H	0.385889	0.374897	-0.331967
H236	H	0.719223	0.708230	0.001367
H237	H	1.052556	1.041563	0.334700
O238	O	0.898822	0.399056	-1.136112
O239	O	1.232155	0.732389	-0.802779
O240	O	1.565488	1.065722	-0.469445
H241	H	0.904174	0.393710	-1.193280
H242	H	1.237508	0.727043	-0.859947
H243	H	1.570841	1.060377	-0.526614
H244	H	0.584300	0.407630	-0.299086
H245	H	0.917634	0.740963	0.034247
H246	H	1.250967	1.074296	0.367581
O247	O	0.574711	0.240575	-0.466721
O248	O	0.908045	0.573908	-0.133388
O249	O	1.241378	0.907241	0.199946
H250	H	0.612557	0.209119	-0.498288
H251	H	0.945890	0.542452	-0.164955
H252	H	1.279223	0.875785	0.168378
H253	H	1.082018	0.216022	-1.126515
H254	H	1.415352	0.549356	-0.793182
H255	H	1.748685	0.882689	-0.459849
O256	O	0.898857	1.061901	-0.472812
O257	O	1.232191	1.395234	-0.139478
O258	O	1.565524	1.728567	0.193855
H259	H	0.867893	1.026611	-0.501191
H260	H	1.201227	1.359945	-0.167858
H261	H	1.534560	1.693278	0.165476
O262	O	1.100769	0.197295	-0.983752
O263	O	1.434103	0.530628	-0.650418
O264	O	1.767436	0.863961	-0.317085
H265	H	1.136570	0.225913	-0.953089
H266	H	1.469904	0.559246	-0.619756
H267	H	1.803237	0.892580	-0.286422
O268	O	1.064080	0.716864	-0.321158
O269	O	1.397413	1.050197	0.012175
O270	O	1.730746	1.383531	0.345508
H271	H	1.096924	0.750291	-0.355458
H272	H	1.430257	1.083625	-0.022124
H273	H	1.763590	1.416958	0.311209
H274	H	0.917581	0.917595	-0.455569
H275	H	1.250914	1.250929	-0.122236
H276	H	1.584247	1.584262	0.211097
H277	H	0.917588	0.380346	-0.993363
H278	H	1.250921	0.713679	-0.660029
H279	H	1.584254	1.047012	-0.326696
H280	H	0.887712	0.410205	-0.661842
H281	H	1.221045	0.743538	-0.328508
H282	H	1.554378	1.076871	0.004825
O283	O	1.058756	0.784690	-0.326096
O284	O	1.392089	1.118023	0.007237
O285	O	1.725423	1.451356	0.340571
H286	H	1.089732	0.819977	-0.297727
H287	H	1.423065	1.153311	0.035606
H288	H	1.756398	1.486644	0.368940
O289	O	0.868918	0.732837	-0.500053
O290	O	1.202252	1.066170	-0.166720
O291	O	1.535585	1.399503	0.166614
H292	H	0.897255	0.766647	-0.538470
H293	H	1.230589	1.099981	-0.205136
H294	H	1.563922	1.433314	0.128197
O295	O	0.727076	0.413154	-0.293524
O296	O	1.060409	0.746487	0.039810
O297	O	1.393742	1.079821	0.373143
H298	H	0.689231	0.444621	-0.261966
H299	H	1.022564	0.777954	0.071368
H300	H	1.355897	1.111288	0.404701
H301	H	0.497625	0.257250	-0.449991
H302	H	0.830958	0.590584	-0.116658
H303	H	1.164292	0.923917	0.216676
O304	O	0.462967	0.380956	-0.325879
O305	O	0.796300	0.714290	0.007454
O306	O	1.129633	1.047623	0.340787
H307	H	0.474038	0.436254	-0.340653
H308	H	0.807371	0.769587	-0.007319
H309	H	1.140704	1.102920	0.326014
O310	O	1.070832	0.563847	-0.314897
O311	O	1.404165	0.897181	0.018436
O312	O	1.737498	1.230514	0.351770
H313	H	1.101806	0.599142	-0.286536
H314	H	1.435140	0.932475	0.046797
H315	H	1.768473	1.265808	0.380130
H316	H	1.087920	0.903650	-0.299414
H317	H	1.421253	1.236984	0.033920
H318	H	1.754586	1.570317	0.367253
O319	O	0.875667	0.579812	-0.493784
O320	O	1.209001	0.913145	-0.160451
O321	O	1.542334	1.246478	0.172883
H322	H	0.841342	0.620445	-0.525255
H323	H	1.174676	0.953778	-0.191922
H324	H	1.508009	1.287112	0.141411
O325	O	0.910921	0.841062	-0.461601
O326	O	1.244254	1.174396	-0.128268
O327	O	1.577588	1.507729	0.205065
H328	H	0.939259	0.874871	-0.500019
H329	H	1.272593	1.208204	-0.166685
H330	H	1.605926	1.541538	0.166648
O331	O	1.070907	0.227171	-0.652240
O332	O	1.404241	0.560504	-0.318907
O333	O	1.737574	0.893837	0.014427
H334	H	1.101864	0.196224	-0.690083
H335	H	1.435198	0.529557	-0.356750
H336	H	1.768531	0.862890	-0.023417
