data_functionalizedCrystal
_audit_creation_method	'MofGen! by Chris Wilmer'
_symmetry_space_group_name_H-M	'P1'
_symmetry_Int_Tables_number	1
_symmetry_cell_setting	triclinic
loop_
_symmetry_equiv_pos_as_xyz
  x,y,z
_cell_length_a	10.685980
_cell_length_b	16.625545
_cell_length_c	10.685880
_cell_angle_alpha	94.337694
_cell_angle_beta	80.918858
_cell_angle_gamma	94.392107
loop_
_atom_site_label
_atom_site_type_symbol
_atom_site_fract_x
_atom_site_fract_y
_atom_site_fract_z
Zn1	Zn	1.995660	-0.265673	-0.866651
Zn2	Zn	2.328993	0.067660	-0.533318
Zn3	Zn	2.662326	0.400993	-0.199984
Zn4	Zn	1.979212	-0.390941	-0.654384
Zn5	Zn	2.312545	-0.057607	-0.321051
Zn6	Zn	2.645879	0.275726	0.012283
Zn7	Zn	1.767100	-0.265716	-0.638123
Zn8	Zn	2.100433	0.067617	-0.304790
Zn9	Zn	2.433766	0.400951	0.028543
Zn10	Zn	1.783319	-0.410064	-0.850286
Zn11	Zn	2.116652	-0.076730	-0.516953
Zn12	Zn	2.449985	0.256603	-0.183619
O13	O	1.881322	-0.333098	-0.752361
O14	O	2.214656	0.000235	-0.419028
O15	O	2.547989	0.333568	-0.085694
O16	O	2.171113	-0.274269	-0.852147
O17	O	2.504446	0.059064	-0.518814
O18	O	2.837779	0.392397	-0.185481
O19	O	1.937404	-0.366344	-0.474602
O20	O	2.270737	-0.033011	-0.141269
O21	O	2.604070	0.300322	0.192065
O22	O	1.797514	-0.152875	-0.668482
O23	O	2.130848	0.180458	-0.335148
O24	O	2.464181	0.513791	-0.001815
O25	O	2.159029	-0.366303	-0.696196
O26	O	2.492362	-0.032970	-0.362862
O27	O	2.825696	0.300364	-0.029529
O28	O	1.965436	-0.152844	-0.836380
O29	O	2.298770	0.180489	-0.503046
O30	O	2.632103	0.513823	-0.169713
O31	O	1.781566	-0.274342	-0.462655
O32	O	2.114899	0.058991	-0.129322
O33	O	2.448232	0.392325	0.204011
O34	O	1.591616	-0.292885	-0.652613
O35	O	1.924949	0.040448	-0.319280
O36	O	2.258283	0.373782	0.014053
O37	O	1.825157	-0.398895	-1.030082
O38	O	2.158491	-0.065562	-0.696749
O39	O	2.491824	0.267771	-0.363415
O40	O	1.603532	-0.398937	-0.808488
O41	O	1.936865	-0.065603	-0.475155
O42	O	2.270199	0.267730	-0.141821
O43	O	1.981163	-0.292812	-1.042105
O44	O	2.314496	0.040521	-0.708772
O45	O	2.647830	0.373855	-0.375439
O46	O	1.953131	-0.506312	-0.680327
O47	O	2.286464	-0.172979	-0.346994
O48	O	2.619797	0.160354	-0.013661
O49	O	1.809209	-0.520362	-0.824256
O50	O	2.142542	-0.187029	-0.490922
O51	O	2.475875	0.146305	-0.157589
C52	C	1.551515	-0.347991	-0.727011
C53	C	1.884849	-0.014658	-0.393678
C54	C	2.218182	0.318676	-0.060344
C55	C	1.410425	-0.354383	-0.716196
C56	C	1.743758	-0.021050	-0.382863
C57	C	2.077091	0.312284	-0.049530
C58	C	1.881181	-0.542594	-0.752311
C59	C	2.214515	-0.209260	-0.418977
C60	C	2.547848	0.124073	-0.085644
C61	C	1.881241	-0.632213	-0.752340
C62	C	2.214574	-0.298880	-0.419007
C63	C	2.547907	0.034453	-0.085674
C64	C	1.881292	-0.704995	-0.752369
C65	C	2.214625	-0.371661	-0.419036
C66	C	2.547958	-0.038328	-0.085703
C67	C	1.881368	-0.796301	-0.752403
C68	C	2.214701	-0.462968	-0.419070
C69	C	2.548035	-0.129634	-0.085736
C70	C	1.881435	-0.869075	-0.752424
C71	C	2.214768	-0.535742	-0.419091
C72	C	2.548102	-0.202409	-0.085757
C73	C	1.881510	-0.960387	-0.752456
C74	C	2.214843	-0.627054	-0.419122
C75	C	2.548176	-0.293721	-0.085789
C76	C	2.212417	-0.318148	-0.777811
C77	C	2.545751	0.015185	-0.444477
C78	C	2.879084	0.348518	-0.111144
C79	C	2.353510	-0.311777	-0.788656
C80	C	2.686844	0.021556	-0.455323
C81	C	3.020177	0.354889	-0.121989
C82	C	1.906804	-0.347982	-1.083438
C83	C	2.240137	-0.014649	-0.750104
C84	C	2.573471	0.318685	-0.416771
C85	C	1.917663	-0.354325	-1.224523
C86	C	2.250996	-0.020991	-0.891189
C87	C	2.584330	0.312342	-0.557856
C88	C	1.881501	-0.122785	-0.752442
C89	C	2.214834	0.210549	-0.419109
C90	C	2.548167	0.543882	-0.085776
C91	C	1.881577	-0.033162	-0.752477
C92	C	2.214910	0.300172	-0.419144
C93	C	2.548243	0.633505	-0.085810
C94	C	1.856013	-0.318211	-0.422578
C95	C	2.189346	0.015122	-0.089245
C96	C	2.522680	0.348455	0.244088
C97	C	1.845400	-0.311631	-0.281513
C98	C	2.178734	0.021703	0.051821
C99	C	2.512067	0.355036	0.385154
H100	H	1.412722	-0.270406	-0.858963
H101	H	1.746055	0.062928	-0.525630
H102	H	2.079389	0.396261	-0.192297
H103	H	1.351206	-0.395752	-0.645876
H104	H	1.684539	-0.062418	-0.312543
H105	H	2.017872	0.270915	0.020790
H106	H	1.775216	-0.270228	-1.222369
H107	H	2.108549	0.063105	-0.889036
H108	H	2.441882	0.396438	-0.555703
H109	H	1.987847	-0.395733	-1.283672
H110	H	2.321180	-0.062400	-0.950339
H111	H	2.654513	0.270934	-0.617006
