data_functionalizedCrystal
_audit_creation_method	'MofGen! by Chris Wilmer'
_symmetry_space_group_name_H-M	'P1'
_symmetry_Int_Tables_number	1
_symmetry_cell_setting	triclinic
loop_
_symmetry_equiv_pos_as_xyz
  x,y,z
_cell_length_a	17.639051
_cell_length_b	17.640280
_cell_length_c	17.639477
_cell_angle_alpha	109.653959
_cell_angle_beta	109.619910
_cell_angle_gamma	109.624162
loop_
_atom_site_label
_atom_site_type_symbol
_atom_site_fract_x
_atom_site_fract_y
_atom_site_fract_z
Zn1	Zn	1.308982	0.565648	-0.067859
Zn2	Zn	1.808982	1.065648	0.432141
Zn3	Zn	1.383530	0.750216	0.116676
Zn4	Zn	1.883530	1.250216	0.616676
Zn5	Zn	1.199040	0.565669	0.042067
Zn6	Zn	1.699040	1.065669	0.542067
Zn7	Zn	1.199016	0.675540	-0.067877
Zn8	Zn	1.699016	1.175540	0.432123
O9	O	1.272642	0.639268	0.005752
O10	O	1.772642	1.139268	0.505752
O11	O	1.442102	0.621375	-0.012149
O12	O	1.942102	1.121375	0.487851
O13	O	1.390266	0.756997	0.230019
O14	O	1.890266	1.256997	0.730019
O15	O	1.182435	0.442443	-0.003732
O16	O	1.682435	0.942443	0.496268
O17	O	1.496872	0.756976	0.123428
O18	O	1.996872	1.256976	0.623428
O19	O	1.263209	0.442427	-0.084494
O20	O	1.763209	0.942427	0.415506
O21	O	1.254721	0.621411	0.175205
O22	O	1.754721	1.121411	0.675205
O23	O	1.075806	0.549000	-0.003749
O24	O	1.575806	1.049000	0.496251
O25	O	1.182395	0.629701	-0.191115
O26	O	1.682395	1.129701	0.308885
O27	O	1.075788	0.629722	-0.084524
O28	O	1.575788	1.129722	0.415476
O29	O	1.263186	0.548964	-0.191102
O30	O	1.763186	1.048964	0.308898
O31	O	1.390243	0.863534	0.123411
O32	O	1.890243	1.363534	0.623411
O33	O	1.254681	0.808669	-0.012179
O34	O	1.754681	1.308669	0.487821
C35	C	1.043845	0.581261	-0.052235
C36	C	1.543845	1.081261	0.447765
C37	C	0.945964	0.556460	-0.077057
C38	C	1.445964	1.056460	0.422943
C39	C	1.330568	0.868053	0.063697
C40	C	1.830568	1.368053	0.563697
C41	C	1.355422	0.965941	0.088477
C42	C	1.855422	1.465941	0.588477
C43	C	1.214472	0.581000	-0.223957
C44	C	1.714472	1.081000	0.276043
C45	C	1.189684	0.556170	-0.321845
C46	C	1.689684	1.056170	0.178155
C47	C	1.502333	0.697503	0.063964
C48	C	2.002333	1.197503	0.563964
C49	C	1.600213	0.722319	0.088771
C50	C	2.100213	1.222319	0.588771
C51	C	1.766686	0.827890	0.194317
C52	C	2.266686	1.327890	0.694317
C53	C	1.674709	0.804563	0.170999
C54	C	2.174709	1.304563	0.670999
C55	C	1.617672	0.663366	0.029831
C56	C	2.117672	1.163366	0.529831
C57	C	1.709646	0.686679	0.053140
C58	C	2.209646	1.186679	0.553140
C59	C	1.784147	0.768942	0.135383
C60	C	2.284147	1.268942	0.635383
C61	C	1.727106	0.627731	-0.005794
C62	C	2.227106	1.127731	0.494206
C63	C	1.819072	0.651045	0.017511
C64	C	2.319072	1.151045	0.517511
C65	C	1.893578	0.733306	0.099749
C66	C	2.393578	1.233306	0.599749
C67	C	1.876113	0.792256	0.158688
C68	C	2.376113	1.292256	0.658688
C69	C	1.652604	0.545472	-0.088040
C70	C	2.152604	1.045472	0.411960
C71	C	1.670065	0.486524	-0.146974
C72	C	2.170065	0.986524	0.353026
C73	C	1.762032	0.509834	-0.123667
C74	C	2.262032	1.009834	0.376333
C75	C	1.836537	0.592095	-0.041428
C76	C	2.336537	1.092095	0.458572
C77	C	1.779497	0.450884	-0.182606
C78	C	2.279497	0.950884	0.317394
C79	C	1.871463	0.474197	-0.159301
C80	C	2.371463	0.974197	0.340699
C81	C	1.928503	0.615408	-0.018124
C82	C	2.428503	1.115408	0.481876
C83	C	1.214509	0.409591	-0.052433
C84	C	1.714509	0.909591	0.447567
C85	C	1.189736	0.311716	-0.077228
C86	C	1.689736	0.811716	0.422772
C87	C	1.084109	1.145218	-0.182730
C88	C	1.584109	1.645218	0.317270
C89	C	1.107472	1.237207	-0.159416
C90	C	1.607472	1.737207	0.340584
C91	C	1.248673	1.294260	-0.018323
C92	C	1.748673	1.794260	0.481677
C93	C	1.225324	1.202275	-0.041626
C94	C	1.725324	1.702275	0.458374
C95	C	1.143040	1.127760	-0.123831
C96	C	1.643040	1.627760	0.376169
C97	C	1.284256	1.184817	0.017273
C98	C	1.784256	1.684817	0.517273
C99	C	1.260906	1.092839	-0.006027
C100	C	1.760906	1.592839	0.493973
C101	C	1.178625	1.018320	-0.088226
C102	C	1.678625	1.518320	0.411774
C103	C	1.119691	1.035783	-0.147130
C104	C	1.619691	1.535783	0.352870
C105	C	1.366536	1.259333	0.099480
C106	C	1.866536	1.759333	0.599480
C107	C	1.425468	1.241875	0.158379
C108	C	1.925468	1.741875	0.658379
C109	C	1.402122	1.149896	0.135077
C110	C	1.902122	1.649896	0.635077
C111	C	1.319840	1.075377	0.052878
C112	C	1.819840	1.575377	0.552878
C113	C	1.461056	1.132434	0.193981
C114	C	1.961056	1.632434	0.693981
C115	C	1.437706	1.040456	0.170681
C116	C	1.937706	1.540456	0.670681
C117	C	1.296490	0.983400	0.029578
C118	C	1.796490	1.483400	0.529578
C119	C	1.461024	0.827474	-0.501064
C120	C	1.961024	1.327474	-0.001064
C121	C	1.437718	0.804129	-0.593050
C122	C	1.937718	1.304129	-0.093050
C123	C	1.296585	0.662953	-0.650124
C124	C	1.796585	1.162953	-0.150124
C125	C	1.319877	0.686288	-0.558141
C126	C	1.819877	1.186288	-0.058141
C127	C	1.402099	0.768549	-0.483617
C128	C	1.902099	1.268549	0.016383
C129	C	1.260952	0.627363	-0.540694
C130	C	1.760952	1.127363	-0.040694
C131	C	1.284245	0.650694	-0.448719
C132	C	1.784245	1.150694	0.051281
C133	C	1.366464	0.732950	-0.374190
C134	C	1.866464	1.232950	0.125810
C135	C	1.425392	0.791880	-0.391641
C136	C	1.925392	1.291880	0.108359
C137	C	1.178734	0.545099	-0.615219
C138	C	1.678734	1.045099	-0.115219
C139	C	1.119808	0.486174	-0.597772
C140	C	1.619808	0.986174	-0.097772
C141	C	1.143098	0.509508	-0.505796
C142	C	1.643098	1.009508	-0.005796
C143	C	1.225316	0.591764	-0.431267
C144	C	1.725316	1.091764	0.068733
C145	C	1.084169	0.450578	-0.488345
C146	C	1.584169	0.950578	0.011655
C147	C	1.107462	0.473909	-0.396369
C148	C	1.607462	0.973909	0.103631
C149	C	1.248610	0.615095	-0.339292
C150	C	1.748610	1.115095	0.160708
C151	C	1.330620	0.697259	0.234563
C152	C	1.830620	1.197259	0.734563
C153	C	1.355516	0.721884	0.332432
C154	C	1.855516	1.221884	0.832432
H155	H	1.989168	0.682391	0.048851
H156	H	2.489168	1.182391	0.548851
Br157	Br	1.517676	1.016758	0.250625
Br158	Br	2.017676	1.516758	0.750625
Br159	Br	1.147098	0.893491	-0.120017
Br160	Br	1.647098	1.393491	0.379983
Br161	Br	1.027496	0.393936	-0.372686
Br162	Br	1.527496	0.893936	0.127314
H163	H	1.968461	0.752280	0.118727
H164	H	2.468461	1.252280	0.618727
Br165	Br	0.972445	1.044082	-0.294303
Br166	Br	1.472445	1.544082	0.205697
Br167	Br	1.360186	0.726747	-0.238144
Br168	Br	1.860186	1.226747	0.261856
Br169	Br	1.536968	0.903532	-0.290493
Br170	Br	2.036968	1.403532	0.209507
Br171	Br	1.008026	0.934647	-0.258703
Br172	Br	1.508026	1.434647	0.241297
H173	H	1.385429	0.751942	-0.299299
H174	H	1.885429	1.251942	0.200701
Br175	Br	1.572601	0.939126	-0.399915
Br176	Br	2.072601	1.439126	0.100085
Br177	Br	1.678381	0.339256	-0.294228
Br178	Br	2.178381	0.839256	0.205772
Br179	Br	1.516558	0.551732	-0.081786
Br180	Br	2.016558	1.051732	0.418214
Br181	Br	1.517706	0.884100	-0.616722
Br182	Br	2.017706	1.384100	-0.116722
Br183	Br	1.027473	1.260895	-0.239351
Br184	Br	1.527473	1.760895	0.260649
H185	H	1.609395	0.419547	-0.213939
H186	H	2.109395	0.919547	0.286061
H187	H	1.229642	0.595974	-0.710813
H188	H	1.729642	1.095974	-0.210813
Br189	Br	1.895165	0.394199	-0.239285
Br190	Br	2.395165	0.894199	0.260715
Br191	Br	1.360341	1.395393	0.093236
Br192	Br	1.860341	1.895393	0.593236
H193	H	1.385546	1.334225	0.118446
H194	H	1.885546	1.834225	0.618446
Br195	Br	1.537135	1.343008	0.269938
Br196	Br	2.037135	1.843008	0.769938
H197	H	1.528046	1.193116	0.260916
H198	H	2.028046	1.693116	0.760916
H199	H	1.577721	0.526495	-0.107014
H200	H	2.077721	1.026495	0.392986
Br201	Br	1.147127	0.513429	-0.740045
Br202	Br	1.647127	1.013429	-0.240045
H203	H	1.052865	0.419196	-0.658461
H204	H	1.552865	0.919196	-0.158461
Br205	Br	0.972597	0.338934	-0.589492
Br206	Br	1.472597	0.838934	-0.089492
Br207	Br	1.867803	0.939536	0.305933
Br208	Br	2.367803	1.439536	0.805933
H209	H	1.936778	0.859239	0.225663
H210	H	2.436778	1.359239	0.725663
H211	H	1.229491	0.922724	-0.037366
H212	H	1.729491	1.422724	0.462634
H213	H	1.660501	0.852573	0.218994
H214	H	2.160501	1.352573	0.718994
