data_functionalizedCrystal
_audit_creation_method	'MofGen! by Chris Wilmer'
_symmetry_space_group_name_H-M	'P1'
_symmetry_Int_Tables_number	1
_symmetry_cell_setting	triclinic
loop_
_symmetry_equiv_pos_as_xyz
  x,y,z
_cell_length_a	16.109317
_cell_length_b	13.339070
_cell_length_c	15.186229
_cell_angle_alpha	89.988518
_cell_angle_beta	89.998505
_cell_angle_gamma	80.451245
loop_
_atom_site_label
_atom_site_type_symbol
_atom_site_fract_x
_atom_site_fract_y
_atom_site_fract_z
O1	O	-1.133165	0.130117	-0.073129
O2	O	-0.894837	0.146281	-0.073151
O3	O	-0.986649	-0.009057	-0.073140
O4	O	-1.041353	0.285456	-0.073140
O5	O	-0.986636	-0.009090	0.073317
O6	O	-0.894824	0.146248	0.073306
O7	O	-1.133152	0.130085	0.073328
Zn8	Zn	-1.013986	0.138161	0.096571
Zn9	Zn	-1.014003	0.138204	-0.096393
O10	O	-1.041341	0.285423	0.073317
C11	C	-0.863704	0.145607	0.000075
C12	C	-0.770954	0.143635	0.000066
C13	C	-0.470417	0.137285	-0.079757
C14	C	-0.557564	0.139131	-0.079761
C15	C	-0.557566	0.139081	0.079915
C16	C	-0.470419	0.137228	0.079917
C17	C	-0.426848	0.136335	0.000079
C18	C	-0.601142	0.140034	0.000072
C19	C	-0.695631	0.142036	0.000069
C20	C	-0.332352	0.134332	0.000082
C21	C	-0.977402	-0.046761	0.000087
C22	C	-0.949857	-0.159055	0.000081
C23	C	-1.164027	-0.523903	0.000101
C24	C	-1.189909	-0.418397	0.000111
C25	C	-1.129898	-0.353557	0.000103
C26	C	-1.044001	-0.394232	0.000085
C27	C	-1.018117	-0.499749	0.000082
C28	C	-0.983988	-0.329402	0.000084
C29	C	-0.898091	-0.370078	0.000066
C30	C	-0.872211	-0.475584	0.000062
C31	C	-0.932222	-0.540425	0.000070
C32	C	-1.009872	-0.223886	0.000088
C33	C	-0.863962	-0.199731	0.000069
C34	C	-0.838080	-0.305237	0.000058
C35	C	-0.164285	0.130760	0.000096
C36	C	-0.257035	0.132734	0.000084
C37	C	-1.050588	0.323126	0.000089
C38	C	-1.078132	0.435421	0.000089
N39	N	-1.014013	0.138226	-0.228086
C40	C	-1.078491	0.199680	-0.546029
C41	C	-1.078498	0.199695	-0.453839
C42	C	-0.949499	0.076670	-0.453801
C43	C	-0.949496	0.076651	-0.545989
C44	C	-1.013992	0.138162	-0.592100
C45	C	-1.014002	0.138196	-0.407723
C46	C	-1.014009	0.138211	-0.307766
C47	C	-1.013986	0.138145	-0.692063
N48	N	-1.013981	0.138131	0.228263
H49	H	-0.593034	0.139903	-0.144772
C50	C	-0.878551	0.009023	-0.403069
N51	N	-0.825109	-0.041926	-0.364859
H52	H	-0.593053	0.139811	0.144916
H53	H	-0.896971	0.026550	-0.583501
H54	H	-1.079810	-0.190778	0.000103
H55	H	-0.434943	0.136556	-0.144767
C56	C	-1.158372	-0.237497	0.000109
N57	N	-1.179822	-0.150077	0.000108
C58	C	-0.422491	0.136192	0.167748
N59	N	-0.386392	0.135412	0.233899
C60	C	-1.149443	0.267334	-0.596748
N61	N	-1.202889	0.318290	-0.634947
H62	H	-1.259846	-0.385287	0.000127
C63	C	-1.230028	-0.595233	0.000115
N64	N	-1.279745	-0.648961	0.000127
H65	H	-0.911153	-0.626337	0.000058
H66	H	-1.131021	0.249788	-0.416331
C67	C	-0.777722	-0.520324	0.000051
N68	N	-0.706552	-0.554020	0.000042
C69	C	-0.743595	-0.349995	0.000051
N70	N	-0.672428	-0.383707	0.000049
H71	H	-0.815096	-0.146937	0.000067
