data_functionalizedCrystal
_audit_creation_method	'MofGen! by Chris Wilmer'
_symmetry_space_group_name_H-M	'P1'
_symmetry_Int_Tables_number	1
_symmetry_cell_setting	triclinic
loop_
_symmetry_equiv_pos_as_xyz
  x,y,z
_cell_length_a	17.038278
_cell_length_b	17.038272
_cell_length_c	16.098524
_cell_angle_alpha	92.876406
_cell_angle_beta	92.876348
_cell_angle_gamma	91.111028
loop_
_atom_site_label
_atom_site_type_symbol
_atom_site_fract_x
_atom_site_fract_y
_atom_site_fract_z
O1	O	1.052098	0.173870	0.069265
O2	O	1.552098	0.673870	0.569265
O3	O	0.824286	0.171165	0.069265
O4	O	1.324286	0.671165	0.569265
O5	O	0.936838	0.058611	0.069258
O6	O	1.436838	0.558611	0.569258
O7	O	0.939546	0.286424	0.069272
O8	O	1.439546	0.786424	0.569272
O9	O	0.930140	0.051921	-0.069255
O10	O	1.430140	0.551921	0.430745
O11	O	0.817589	0.164474	-0.069249
O12	O	1.317589	0.664474	0.430751
O13	O	1.045400	0.167180	-0.069249
O14	O	1.545400	0.667180	0.430751
Zn15	Zn	0.930431	0.164765	-0.091241
Zn16	Zn	1.430431	0.664765	0.408759
Zn17	Zn	0.939255	0.173580	0.091257
Zn18	Zn	1.439255	0.673580	0.591257
O19	O	0.932849	0.279733	-0.069242
O20	O	1.432849	0.779733	0.430758
C21	C	0.791645	0.165357	0.000008
C22	C	1.291645	0.665357	0.500008
C23	C	0.704361	0.158010	0.000008
C24	C	1.204361	0.658010	0.500008
C25	C	0.210936	0.112872	0.000009
C26	C	0.710936	0.612872	0.500009
C27	C	0.292947	0.119781	0.000004
C28	C	0.792947	0.619781	0.500004
C29	C	0.329347	0.194155	0.000012
C30	C	0.829347	0.694155	0.500012
C31	C	0.283731	0.261624	0.000016
C32	C	0.783731	0.761624	0.500016
C33	C	0.201721	0.254713	0.000015
C34	C	0.701721	0.754713	0.500015
C35	C	0.576735	0.218568	0.000011
C36	C	1.076735	0.718568	0.500011
C37	C	0.658751	0.225473	0.000015
C38	C	1.158751	0.725473	0.500015
C39	C	0.667962	0.083630	0.000001
C40	C	1.167962	0.583630	0.500001
C41	C	0.585950	0.076726	0.000005
C42	C	1.085950	0.576726	0.500005
C43	C	0.540340	0.144195	0.000005
C44	C	1.040340	0.644195	0.500005
C45	C	0.413176	0.201220	0.000010
C46	C	0.913176	0.701220	0.500010
C47	C	0.456513	0.137129	0.000001
C48	C	0.956513	0.637129	0.500001
C49	C	0.931026	0.025974	0.000002
C50	C	1.431026	0.525974	0.500002
C51	C	0.923678	-0.061310	0.000002
C52	C	1.423678	0.438690	0.500002
C53	C	0.991142	-0.106920	0.000001
C54	C	1.491142	0.393080	0.500001
C55	C	0.984233	-0.188931	0.000009
C56	C	1.484233	0.311069	0.500009
C57	C	0.909860	-0.225332	0.000012
C58	C	1.409860	0.274668	0.500012
C59	C	0.842392	-0.179715	0.000015
C60	C	1.342392	0.320285	0.500015
C61	C	0.849301	-0.097705	0.000013
C62	C	1.349301	0.402295	0.500013
C63	C	0.885450	-0.472719	0.000023
C64	C	1.385450	0.027281	0.500023
C65	C	0.878545	-0.554735	0.000023
C66	C	1.378545	-0.054735	0.500023
C67	C	1.020388	-0.563945	0.000018
C68	C	1.520388	-0.063945	0.500018
C69	C	1.027291	-0.481933	0.000011
C70	C	1.527291	0.018067	0.500011
C71	C	0.959822	-0.436324	0.000019
C72	C	1.459822	0.063676	0.500019
C73	C	0.902796	-0.309160	0.000017
C74	C	1.402796	0.190840	0.500017
C75	C	0.966887	-0.352496	0.000019
C76	C	1.466887	0.147504	0.500019
C77	C	1.078042	0.172988	0.000010
C78	C	1.578042	0.672988	0.500010
C79	C	1.165326	0.180336	0.000015
C80	C	1.665326	0.680336	0.500015
C81	C	0.938661	0.312371	0.000017
C82	C	1.438661	0.812371	0.500017
C83	C	0.946009	0.399655	0.000022
C84	C	1.446009	0.899655	0.500022
N85	N	0.924415	0.158749	-0.215791
N86	N	1.424415	0.658749	0.284209
C87	C	0.973108	0.207473	-0.259370
C88	C	1.473108	0.707473	0.240630
C89	C	0.968909	0.203260	-0.346559
C90	C	1.468909	0.703260	0.153441
C91	C	0.916013	0.150327	-0.390168
C92	C	1.416013	0.650327	0.109832
C93	C	0.867319	0.101598	-0.346583
C94	C	1.367319	0.601598	0.153417
C95	C	0.871522	0.105808	-0.259395
C96	C	1.371522	0.605808	0.240605
C97	C	0.900786	0.135071	-0.653420
C98	C	1.400786	0.635071	-0.153420
C99	C	0.896585	0.130866	-0.740614
C100	C	1.396585	0.630866	-0.240614
C101	C	0.998177	0.232527	-0.740584
C102	C	1.498177	0.732527	-0.240584
C103	C	1.002372	0.236735	-0.653394
C104	C	1.502372	0.736735	-0.153394
C105	C	0.953680	0.188004	-0.609817
C106	C	1.453680	0.688004	-0.109817
C107	C	0.911719	0.146021	-0.479290
C108	C	1.411719	0.646021	0.020710
C109	C	0.957979	0.192306	-0.520697
C110	C	1.457979	0.692306	-0.020697
N111	N	0.945278	0.179590	0.215807
N112	N	1.445278	0.679590	0.715807
H113	H	0.330080	0.064845	-0.000005
H114	H	0.830080	0.564845	0.499995
H115	H	1.016177	0.250581	-0.223869
H116	H	1.516177	0.750581	0.276131
F117	F	0.840284	0.074525	-0.787024
F118	F	1.340284	0.574525	-0.287024
H119	H	0.688385	0.286040	0.000009
H120	H	1.188385	0.786040	0.500009
H121	H	0.442823	0.261775	0.000019
H122	H	0.942823	0.761775	0.500019
H123	H	0.313374	0.322181	0.000018
H124	H	0.813374	0.822181	0.500018
H125	H	0.164586	0.309650	0.000018
H126	H	0.664586	0.809650	0.500018
H127	H	0.868650	0.102923	-0.514806
H128	H	1.368650	0.602923	-0.014806
H129	H	0.426872	0.076575	0.000004
H130	H	0.926872	0.576575	0.500004
F131	F	0.848940	0.083228	-0.607053
F132	F	1.348940	0.583228	-0.107053
H133	H	1.051704	-0.077289	-0.000006
H134	H	1.551704	0.422711	0.499994
F135	F	0.799384	-0.593473	0.000022
F136	F	1.299384	-0.093473	0.500022
F137	F	0.813643	-0.424188	0.000034
F138	F	1.313643	0.075812	0.500034
F139	F	1.058646	0.293098	-0.606989
F140	F	1.558646	0.793098	-0.106989
F141	F	1.106450	-0.443198	0.000029
F142	F	1.606450	0.056802	0.500029
F143	F	0.716508	0.011830	-0.000003
F144	F	1.216508	0.511830	0.499997
F145	F	0.528205	0.290375	0.000020
F146	F	1.028205	0.790375	0.500020
H147	H	0.842241	-0.338807	0.000018
H148	H	1.342241	0.161193	0.500018
H149	H	1.039169	-0.226064	0.000006
H150	H	1.539169	0.273936	0.500006
H151	H	0.181305	0.052309	0.000007
H152	H	0.681305	0.552309	0.500007
H153	H	1.075316	-0.601089	0.000013
H154	H	1.575316	-0.101089	0.500013
H155	H	0.781835	-0.209359	0.000023
H156	H	1.281835	0.290641	0.500023
H157	H	1.027442	-0.322855	0.000035
H158	H	1.527442	0.177145	0.500035
H159	H	0.824253	0.058496	-0.382097
H160	H	1.324253	0.558496	0.117903
F161	F	1.020734	0.255119	-0.392935
F162	F	1.520734	0.755119	0.107065
H163	H	0.794365	-0.060570	0.000014
H164	H	1.294365	0.439430	0.500014
F165	F	1.049995	0.284386	-0.786968
F166	F	1.549995	0.784386	-0.286968
H167	H	0.831870	0.066132	-0.223914
H168	H	1.331870	0.566132	0.276086
F169	F	0.547217	-0.002431	0.000020
F170	F	1.047217	0.497569	0.500020
H171	H	1.001049	0.235401	-0.485187
H172	H	1.501049	0.735401	0.014813
