data_functionalizedCrystal
_audit_creation_method	'MofGen! by Chris Wilmer'
_symmetry_space_group_name_H-M	'P1'
_symmetry_Int_Tables_number	1
_symmetry_cell_setting	triclinic
loop_
_symmetry_equiv_pos_as_xyz
  x,y,z
_cell_length_a	17.038272
_cell_length_b	15.500215
_cell_length_c	17.699083
_cell_angle_alpha	93.188936
_cell_angle_beta	87.197286
_cell_angle_gamma	92.981713
loop_
_atom_site_label
_atom_site_type_symbol
_atom_site_fract_x
_atom_site_fract_y
_atom_site_fract_z
O1	O	1.040330	0.071839	0.167677
O2	O	0.812705	0.071865	0.165069
O3	O	0.932948	0.071844	0.056609
O4	O	0.920087	0.071860	0.276137
O5	O	0.926466	-0.072045	0.049912
O6	O	0.806223	-0.072024	0.158371
O7	O	1.033848	-0.072050	0.160980
Cu8	Cu	0.919444	-0.085175	0.159064
Cu9	Cu	0.927110	0.084990	0.166984
O10	O	0.913605	-0.072028	0.269440
C11	C	0.780340	-0.000076	0.159347
C12	C	0.693559	-0.000067	0.152266
N13	N	0.914058	-0.204860	0.153493
C14	C	0.643339	-0.000063	0.217277
C15	C	0.561799	-0.000075	0.210619
C16	C	0.530480	-0.000086	0.138949
C17	C	0.580706	-0.000093	0.073934
C18	C	0.662245	-0.000086	0.080593
C19	C	0.284759	-0.000111	0.115425
C20	C	0.203215	-0.000114	0.108772
C21	C	0.184312	-0.000099	0.245457
C22	C	0.265854	-0.000087	0.252110
C23	C	0.316072	-0.000099	0.187094
C24	C	0.447133	-0.000096	0.132142
C25	C	0.399417	-0.000095	0.193902
C26	C	0.959344	-0.250135	0.200366
C27	C	0.955281	-0.340708	0.196149
C28	C	0.905927	-0.386005	0.145062
C29	C	0.860639	-0.340723	0.098184
C30	C	0.864706	-0.250152	0.102398
C31	C	0.891281	-0.659472	0.129885
C32	C	0.887215	-0.750050	0.125676
C33	C	0.981859	-0.750028	0.223641
C34	C	0.985919	-0.659455	0.227853
C35	C	0.940634	-0.614182	0.180973
C36	C	0.901771	-0.478585	0.140752
C37	C	0.944795	-0.521603	0.185279
C38	C	1.066214	-0.000106	0.166702
C39	C	1.152995	-0.000110	0.173782
C40	C	0.929246	-0.000101	0.025033
C41	C	0.927864	-0.000101	-0.059077
N42	N	0.932502	0.204675	0.172549
C43	C	0.998444	-0.000110	-0.103028
C44	C	0.997141	-0.000102	-0.182057
C45	C	0.925256	-0.000092	-0.217134
C46	C	0.854670	-0.000080	-0.173177
C47	C	0.855975	-0.000081	-0.094149
C48	C	0.849407	-0.000072	-0.491888
C49	C	0.848108	-0.000073	-0.570922
C50	C	0.990574	-0.000093	-0.579796
C51	C	0.991878	-0.000095	-0.500768
C52	C	0.921293	-0.000078	-0.456818
C53	C	0.922707	-0.000085	-0.371125
C54	C	0.923840	-0.000091	-0.302825
C55	C	0.917307	-0.000082	0.301016
C56	C	0.918690	-0.000076	0.385126
H57	H	0.668831	-0.000054	0.275638
Cl58	Cl	0.760672	-0.000050	-0.436646
H59	H	0.789567	-0.000066	-0.599479
H60	H	0.827829	-0.213290	0.064229
Cl61	Cl	0.541334	-0.000111	-0.016165
Cl62	Cl	0.764300	-0.000056	-0.217273
H63	H	0.798501	-0.000074	-0.058365
H64	H	1.018728	-0.786899	0.261808
H65	H	0.520912	-0.000071	0.263558
H66	H	0.291347	-0.000069	0.310471
H67	H	0.854407	-0.622621	0.091711
Cl68	Cl	0.725379	-0.000096	-0.001139
H69	H	1.048048	-0.000102	-0.615590
H70	H	1.056981	-0.000124	-0.074475
H71	H	1.054614	-0.000112	-0.217839
H72	H	1.050414	-0.000108	-0.472213
Cl73	Cl	0.347881	-0.000124	0.033690
Cl74	Cl	0.121176	-0.000088	0.327185
Cl75	Cl	0.438791	-0.000084	0.283997
Cl76	Cl	0.163844	-0.000147	0.018666
Cl77	Cl	1.021392	-0.193200	0.264594
Cl78	Cl	0.407754	-0.000105	0.042046
H79	H	0.847021	-0.786928	0.084075
Cl80	Cl	1.012214	-0.397621	0.255080
H81	H	0.820457	-0.377611	0.056584
H82	H	1.026111	-0.622581	0.269452
H83	H	0.984982	-0.484719	0.226872
Cl84	Cl	0.839721	-0.535536	0.076536
