data_functionalizedCrystal
_audit_creation_method	'MofGen! by Chris Wilmer'
_symmetry_space_group_name_H-M	'P1'
_symmetry_Int_Tables_number	1
_symmetry_cell_setting	triclinic
loop_
_symmetry_equiv_pos_as_xyz
  x,y,z
_cell_length_a	16.625546
_cell_length_b	17.077404
_cell_length_c	17.077396
_cell_angle_alpha	89.983895
_cell_angle_beta	89.968950
_cell_angle_gamma	90.020438
loop_
_atom_site_label
_atom_site_type_symbol
_atom_site_fract_x
_atom_site_fract_y
_atom_site_fract_z
Zn1	Zn	-0.321039	1.200039	-0.443809
Zn2	Zn	-0.455883	1.199953	-0.312539
Zn3	Zn	-0.321064	1.068776	-0.312560
Zn4	Zn	-0.455828	1.068740	-0.443766
O5	O	-0.388453	1.134377	-0.378169
O6	O	-0.338939	1.309875	-0.426406
O7	O	-0.438033	1.182531	-0.202695
O8	O	-0.208228	1.086240	-0.329997
O9	O	-0.438009	1.309811	-0.329962
O10	O	-0.208210	1.182679	-0.426426
O11	O	-0.338981	1.086156	-0.202710
O12	O	-0.338928	0.958925	-0.329955
O13	O	-0.437915	1.086178	-0.553618
O14	O	-0.437939	0.958898	-0.426351
O15	O	-0.338885	1.182643	-0.553651
O16	O	-0.568708	1.182496	-0.329920
O17	O	-0.568668	1.086094	-0.426331
C18	C	-0.388431	0.930429	-0.378151
C19	C	-0.388440	0.843179	-0.378162
C20	C	-0.336946	0.802223	-0.428457
C21	C	-0.336952	0.720243	-0.428460
C22	C	-0.388455	0.679220	-0.378173
C23	C	-0.439951	0.720182	-0.327872
C24	C	-0.439942	0.802161	-0.327865
C25	C	-0.439970	0.549312	-0.327892
C26	C	-0.439981	0.467327	-0.327900
C27	C	-0.336980	0.467394	-0.428487
C28	C	-0.336970	0.549373	-0.428480
C29	C	-0.388467	0.590329	-0.378180
C30	C	-0.597944	1.134303	-0.378136
C31	C	-0.687565	1.134343	-0.378148
C32	C	-1.015741	1.134480	-0.378230
C33	C	-0.924433	1.134439	-0.378209
C34	C	-0.851656	1.134411	-0.378188
C35	C	-0.760342	1.134371	-0.378169
C36	C	-0.178145	1.134473	-0.378219
C37	C	-0.088523	1.134514	-0.378240
C38	C	-0.388391	1.134417	-0.582913
C39	C	-0.388364	1.134433	-0.670163
C40	C	-0.388477	1.339121	-0.378187
C41	C	-0.388487	1.426371	-0.378194
C42	C	-0.336782	1.084266	-0.711160
C43	C	-0.336764	1.084279	-0.793141
C44	C	-0.388324	1.134464	-0.834122
C45	C	-0.439912	1.184633	-0.793119
C46	C	-0.439934	1.184615	-0.711140
C47	C	-0.439862	1.184667	-0.963989
C48	C	-0.439839	1.184685	-1.045974
C49	C	-0.336692	1.084331	-1.045990
C50	C	-0.336713	1.084313	-0.964011
C51	C	-0.388301	1.134484	-0.923013
C52	C	-0.388458	1.134383	-0.174221
C53	C	-0.388257	1.134518	-0.086971
H54	H	-0.295036	0.582771	-0.469433
N55	N	-0.281396	0.676068	-0.482691
H56	H	-0.248766	0.714495	-0.514546
H57	H	-0.314254	0.642049	-0.518966
H58	H	-0.481902	0.582656	-0.286931
N59	N	-0.495477	0.846339	-0.273615
H60	H	-0.528107	0.807914	-0.241759
H61	H	-0.532829	0.880359	-0.305496
N62	N	-0.495469	1.238794	-1.090176
H63	H	-0.487626	1.231189	-1.148330
H64	H	-0.482948	1.294864	-1.075860
N65	N	-0.281108	1.030179	-0.837345
H66	H	-0.243740	1.062113	-0.871366
H67	H	-0.313900	0.993791	-0.871305
N68	N	-0.281437	0.423226	-0.482742
H69	H	-0.289254	0.365068	-0.475116
H70	H	-0.223833	0.437567	-0.470630
H71	H	-0.481920	0.433929	-0.286951
H72	H	-0.481863	1.225528	-0.930612
H73	H	-0.294791	1.043405	-0.677799
H74	H	-0.481898	1.225490	-0.826493
N75	N	-0.281042	1.030225	-1.090202
H76	H	-0.288850	1.037848	-1.148354
H77	H	-0.293577	0.974151	-1.075866
H78	H	-0.481932	1.225472	-0.677761
N79	N	-0.281400	0.846467	-0.482702
H80	H	-0.248780	0.808078	-0.514562
H81	H	-0.244041	0.880478	-0.450813
N82	N	-0.495494	0.675933	-0.273629
H83	H	-0.532906	0.641923	-0.305467
H84	H	-0.528060	0.714366	-0.241773
H85	H	-0.294725	1.043452	-0.930646
