data_functionalizedCrystal
_audit_creation_method	'MofGen! by Chris Wilmer'
_symmetry_space_group_name_H-M	'P1'
_symmetry_Int_Tables_number	1
_symmetry_cell_setting	triclinic
loop_
_symmetry_equiv_pos_as_xyz
  x,y,z
_cell_length_a	14.908571
_cell_length_b	29.839131
_cell_length_c	14.908662
_cell_angle_alpha	86.733404
_cell_angle_beta	96.407568
_cell_angle_gamma	86.737317
loop_
_atom_site_label
_atom_site_type_symbol
_atom_site_fract_x
_atom_site_fract_y
_atom_site_fract_z
Zn1	Zn	1.413165	-0.236515	0.591462
Zn2	Zn	1.404280	-0.307041	0.440082
Zn3	Zn	1.253073	-0.227325	0.431398
Zn4	Zn	1.261712	-0.307008	0.582681
O5	O	1.333057	-0.269472	0.511406
O6	O	1.538650	-0.249731	0.578690
O7	O	1.376888	-0.292635	0.312265
O8	O	1.274413	-0.165681	0.452672
O9	O	1.532122	-0.301546	0.467472
O10	O	1.392032	-0.172433	0.570270
O11	O	1.265798	-0.234067	0.305885
O12	O	1.127555	-0.234035	0.444157
O13	O	1.289136	-0.301489	0.710511
O14	O	1.133902	-0.292577	0.555304
O15	O	1.400408	-0.249698	0.716962
O16	O	1.385264	-0.369900	0.458958
O17	O	1.280520	-0.369875	0.563724
C18	C	1.097886	-0.262306	0.497836
C19	C	0.997280	-0.259251	0.492052
C20	C	0.814878	-0.314556	0.596765
C21	C	0.720350	-0.311688	0.591334
C22	C	0.713694	-0.250644	0.475764
C23	C	0.808222	-0.253512	0.481195
C24	C	0.858811	-0.285470	0.541697
C25	C	0.953341	-0.288340	0.547123
C26	C	0.946683	-0.227295	0.431558
C27	C	0.852155	-0.224426	0.426127
C28	C	1.332891	-0.386188	0.511351
C29	C	1.332905	-0.436124	0.511363
C30	C	1.387708	-0.745779	0.456944
C31	C	1.387821	-0.933456	0.456986
O32	O	1.434285	-0.957726	0.410675
N33	N	1.333249	-0.956922	0.511485
C34	C	1.278649	-0.933466	0.565982
O35	O	1.232241	-0.957732	0.612344
C36	C	1.278540	-0.745790	0.565944
C37	C	1.333109	-0.722326	0.511435
C38	C	1.442273	-0.722315	0.402440
C39	C	1.442241	-0.675398	0.402427
C40	C	1.387642	-0.651945	0.456917
C41	C	1.333077	-0.675409	0.511421
C42	C	1.223945	-0.722335	0.620445
C43	C	1.223925	-0.675413	0.620433
C44	C	1.278494	-0.651949	0.565924
C45	C	1.278446	-0.605039	0.565899
N46	N	1.333018	-0.581573	0.511400
C47	C	1.387617	-0.605026	0.456909
C48	C	1.278708	-1.031999	0.565996
C49	C	1.278734	-1.078917	0.566004
C50	C	1.387908	-1.078904	0.457010
C51	C	1.387877	-1.031984	0.456997
C52	C	1.333280	-1.008533	0.511497
C53	C	1.387543	-0.506498	0.456884
C54	C	1.387503	-0.459576	0.456873
C55	C	1.278333	-0.459594	0.565871
C56	C	1.278369	-0.506511	0.565879
C57	C	1.332981	-0.529961	0.511383
O58	O	1.232014	-0.580741	0.612193
O59	O	1.434032	-0.580753	0.410568
C60	C	1.387740	-0.792695	0.456958
C61	C	1.333175	-0.816159	0.511462
C62	C	1.278577	-0.792706	0.565953
C63	C	1.333201	-0.863078	0.511470
C64	C	1.387799	-0.886531	0.456980
C65	C	1.442371	-0.863065	0.402481
C66	C	1.442339	-0.816148	0.402467
C67	C	1.224004	-0.816172	0.620452
C68	C	1.224040	-0.863089	0.620460
C69	C	1.278639	-0.886542	0.565969
C70	C	1.569147	-0.276667	0.525029
C71	C	1.669754	-0.279733	0.530835
C72	C	1.346726	-0.276615	0.747498
C73	C	1.352551	-0.279658	0.848106
C74	C	1.333250	-0.152301	0.511482
C75	C	1.333332	-0.102370	0.511514
C76	C	1.319493	-0.262327	0.276235
C77	C	1.313844	-0.259162	0.175638
C78	C	1.418589	-0.314437	0.993233
C79	C	1.413123	-0.311580	0.898703
C80	C	1.297440	-0.250592	0.892045
C81	C	1.302907	-0.253450	0.986576
C82	C	1.363484	-0.285373	1.037166
C83	C	1.368955	-0.288228	1.131698
C84	C	1.253268	-0.227242	1.125039
C85	C	1.247802	-0.224385	1.030509
H86	H	0.982462	-0.203611	0.386715
H87	H	1.179505	-0.741431	0.664828
H88	H	1.486774	-0.797047	0.358081
C89	C	1.218337	-0.532321	0.625838
N90	N	1.173127	-0.551759	0.671008
C91	C	0.658030	-0.215489	0.409227
N92	N	0.616104	-0.189010	0.359111
H93	H	1.432312	-1.012883	0.412612
H94	H	1.432016	-0.525586	0.412511
C95	C	1.230822	-0.215475	0.836381
N96	N	1.180650	-0.189021	0.794453
H97	H	1.486678	-0.656296	0.358044
H98	H	1.233876	-0.440491	0.610233
C99	C	1.435588	-0.323345	1.187346
N100	N	1.485776	-0.349797	1.229258
C101	C	1.163863	-0.649619	0.680389
N102	N	1.118623	-0.630192	0.725547
H103	H	0.856068	-0.340580	0.646023
H104	H	1.467921	-0.340427	1.034425
C105	C	1.473755	-0.343548	0.850381
N106	N	1.519430	-0.367626	0.813985
C107	C	1.181180	-0.189267	0.974849
N108	N	1.131005	-0.162813	0.932928
C109	C	1.447531	-0.433769	0.396901
N110	N	1.492743	-0.414332	0.351731
C111	C	1.008987	-0.323493	0.613677
N112	N	1.050898	-0.349970	0.663811
H113	H	1.432364	-1.098008	0.412642
H114	H	0.810952	-0.198406	0.376870
C115	C	1.502336	-0.748105	0.342486
N116	N	1.547572	-0.767527	0.297317
C117	C	1.192648	-0.195270	1.173373
N118	N	1.146991	-0.171188	1.209779
H119	H	0.684584	-0.335372	0.636179
C120	C	1.218694	-1.104722	0.625960
N121	N	1.173474	-1.124157	0.671124
H122	H	1.234247	-1.012907	0.610378
H123	H	1.486824	-0.882168	0.358110
C124	C	1.164004	-0.888894	0.680427
N125	N	1.118792	-0.908329	0.725600
H126	H	1.179545	-0.797081	0.664826
