data_functionalizedCrystal
_audit_creation_method	'MofGen! by Chris Wilmer'
_symmetry_space_group_name_H-M	'P1'
_symmetry_Int_Tables_number	1
_symmetry_cell_setting	triclinic
loop_
_symmetry_equiv_pos_as_xyz
  x,y,z
_cell_length_a	12.594516
_cell_length_b	11.169417
_cell_length_c	11.169409
_cell_angle_alpha	89.980176
_cell_angle_beta	90.033030
_cell_angle_gamma	89.987306
loop_
_atom_site_label
_atom_site_type_symbol
_atom_site_fract_x
_atom_site_fract_y
_atom_site_fract_z
Zn1	Zn	-0.423631	-1.834950	0.678537
Zn2	Zn	0.076369	-1.334950	1.178537
Zn3	Zn	-0.601657	-1.834834	0.477851
Zn4	Zn	-0.101657	-1.334834	0.977851
Zn5	Zn	-0.423696	-1.634236	0.477871
Zn6	Zn	0.076304	-1.134236	0.977871
Zn7	Zn	-0.601571	-1.634238	0.678496
Zn8	Zn	-0.101571	-1.134238	1.178496
O9	O	-0.512639	-1.734565	0.578189
O10	O	-0.012639	-1.234565	1.078189
O11	O	-0.447256	-2.002884	0.651924
O12	O	0.052744	-1.502884	1.151924
O13	O	-0.578114	-1.808175	0.309904
O14	O	-0.078114	-1.308175	0.809904
O15	O	-0.274741	-1.660909	0.504515
O16	O	0.225259	-1.160909	1.004515
O17	O	-0.578051	-2.002799	0.504482
O18	O	-0.078051	-1.502799	1.004482
O19	O	-0.274694	-1.808372	0.651944
O20	O	0.225306	-1.308372	1.151944
O21	O	-0.447366	-1.660796	0.309919
O22	O	0.052634	-1.160796	0.809919
O23	O	-0.447282	-1.466287	0.504476
O24	O	0.052718	-0.966287	1.004476
O25	O	-0.577903	-1.660912	0.846452
O26	O	-0.077903	-1.160912	1.346452
O27	O	-0.577966	-1.466288	0.651874
O28	O	-0.077966	-0.966288	1.151874
O29	O	-0.447172	-1.808375	0.846481
O30	O	0.052828	-1.308375	1.346481
O31	O	-0.750591	-1.808177	0.504442
O32	O	-0.250591	-1.308177	1.004442
O33	O	-0.750528	-1.660800	0.651855
O34	O	-0.250528	-1.160800	1.151855
C35	C	-0.512623	-1.422740	0.578174
C36	C	-0.012623	-0.922740	1.078174
C37	C	-0.512641	-1.289340	0.578195
C38	C	-0.012641	-0.789340	1.078195
C39	C	-0.789180	-1.734509	0.578168
C40	C	-0.289180	-1.234509	1.078168
C41	C	-0.907485	-1.734595	0.578199
C42	C	-0.407485	-1.234595	1.078199
C43	C	-0.512520	-1.734657	0.891232
C44	C	-0.012520	-1.234657	1.391232
C45	C	-0.512470	-1.734696	1.024632
C46	C	-0.012470	-1.234696	1.524632
C47	C	-0.976734	-1.814846	0.498107
C48	C	-0.476734	-1.314846	0.998107
C49	C	-1.047421	-1.844180	0.607650
C50	C	-0.547421	-1.344180	1.107650
C51	C	-1.047597	-1.705412	0.468726
C52	C	-0.547597	-1.205412	0.968726
C53	C	-0.976614	-1.763984	0.687800
C54	C	-0.476614	-1.263984	1.187800
C55	C	-0.976783	-1.625165	0.548802
C56	C	-0.476783	-1.125165	1.048802
C57	C	-1.047438	-1.654457	0.658421
C58	C	-0.547438	-1.154457	1.158421
C59	C	-0.235018	-1.734653	0.578236
C60	C	0.264982	-1.234653	1.078236
C61	C	-0.116712	-1.734691	0.578256
C62	C	0.383288	-1.234691	1.078256
C63	C	-0.512656	-2.047607	0.578205
C64	C	-0.012656	-1.547607	1.078205
C65	C	-0.512663	-2.181007	0.578212
C66	C	-0.012663	-1.681007	1.078212
C67	C	-0.512680	-1.734542	0.266364
C68	C	-0.012680	-1.234542	0.766364
C69	C	-0.512430	-1.734735	0.132965
C70	C	-0.012430	-1.234735	0.632965
H71	H	-0.945688	-1.882723	0.430437
H72	H	-0.445688	-1.382723	0.930437
H73	H	-1.078453	-1.936763	0.632546
H74	H	-0.578453	-1.436763	1.132546
H75	H	-0.945568	-1.788616	0.780483
H76	H	-0.445568	-1.288616	1.280483
H77	H	-1.078288	-1.586632	0.726255
H78	H	-0.578288	-1.086632	1.226255
C79	C	-0.934815	-1.500131	0.515117
C80	C	-0.434815	-1.000131	1.015117
N81	N	-0.903200	-1.405956	0.489730
N82	N	-0.403200	-0.905956	0.989730
H83	H	-1.078774	-1.680689	0.376123
H84	H	-0.578774	-1.180689	0.876123
