data_functionalizedCrystal
_audit_creation_method	'MofGen! by Chris Wilmer'
_symmetry_space_group_name_H-M	'P1'
_symmetry_Int_Tables_number	1
_symmetry_cell_setting	triclinic
loop_
_symmetry_equiv_pos_as_xyz
  x,y,z
_cell_length_a	10.654549
_cell_length_b	23.532357
_cell_length_c	9.130307
_cell_angle_alpha	89.991197
_cell_angle_beta	89.997449
_cell_angle_gamma	83.657605
loop_
_atom_site_label
_atom_site_type_symbol
_atom_site_fract_x
_atom_site_fract_y
_atom_site_fract_z
O1	O	1.665267	0.079999	-0.121855
O2	O	1.299545	0.087617	-0.121852
O3	O	1.493467	0.000946	-0.121823
O4	O	1.471345	0.166669	-0.121883
O5	O	1.493461	0.000945	0.121776
O6	O	1.299539	0.087616	0.121747
O7	O	1.665261	0.079998	0.121744
Cu8	Cu	1.482399	0.083807	0.143988
Cu9	Cu	1.482407	0.083808	-0.144096
O10	O	1.471339	0.166668	0.121716
C11	C	1.252762	0.087056	-0.000052
C12	C	1.113373	0.085381	-0.000049
C13	C	0.820164	0.185874	-0.000127
C14	C	0.870014	0.238482	-0.000140
C15	C	1.000981	0.240058	-0.000121
C16	C	1.082104	0.189021	-0.000094
C17	C	1.032255	0.136413	-0.000081
C18	C	0.901282	0.134843	-0.000095
C19	C	1.063523	0.032773	-0.000036
C20	C	0.932556	0.031196	-0.000044
C21	C	1.144646	-0.018264	-0.000009
C22	C	1.094797	-0.070873	0.000015
C23	C	0.963821	-0.072447	-0.000002
C24	C	0.882706	-0.021411	-0.000031
C25	C	1.492911	-0.020274	-0.000019
C26	C	1.491247	-0.083504	-0.000006
C27	C	1.480806	-0.475583	-0.132870
C28	C	1.479225	-0.534993	-0.132879
O29	O	1.478367	-0.565714	-0.245808
N30	N	1.478437	-0.564709	-0.000095
C31	C	1.479218	-0.535013	0.132706
O32	O	1.478402	-0.565744	0.245649
C33	C	1.480791	-0.475603	0.132713
C34	C	1.481591	-0.445890	-0.000080
C35	C	1.481605	-0.445870	-0.265652
C36	C	1.483189	-0.386464	-0.265643
C37	C	1.483974	-0.356772	-0.132853
C38	C	1.483175	-0.386485	-0.000071
C39	C	1.481563	-0.445907	0.265513
C40	C	1.483134	-0.386494	0.265508
C41	C	1.483935	-0.356781	0.132715
C42	C	1.485543	-0.297387	0.132729
N43	N	1.486331	-0.267670	-0.000055
C44	C	1.485546	-0.297363	-0.132846
C45	C	1.475914	-0.659776	0.132682
C46	C	1.474350	-0.719184	0.132677
C47	C	1.474355	-0.719160	-0.132909
C48	C	1.475927	-0.659751	-0.132902
C49	C	1.476701	-0.630059	-0.000102
C50	C	1.488873	-0.172607	-0.132817
C51	C	1.490462	-0.113196	-0.132796
C52	C	1.490451	-0.113225	0.132788
C53	C	1.488869	-0.172631	0.132769
C54	C	1.488076	-0.202320	-0.000046
O55	O	1.486397	-0.266627	0.245600
O56	O	1.486346	-0.266623	-0.245769
C57	C	1.712044	0.080558	-0.000060
C58	C	1.851433	0.082234	-0.000072
C59	C	1.471895	0.187889	-0.000092
C60	C	1.473559	0.251119	-0.000115
N61	N	1.482403	0.083806	0.346611
N62	N	1.482413	0.083804	-0.346719
C63	C	1.654190	0.007082	0.346626
C64	C	1.740092	-0.031279	0.423300
C65	C	1.740105	-0.031279	0.576634
C66	C	1.654204	0.007084	0.653296
C67	C	1.568302	0.045444	0.576622
C68	C	1.568301	0.045442	0.423285
C69	C	1.396511	0.122165	0.576607
C70	C	1.396502	0.122169	0.423273
C71	C	1.310610	0.160528	0.653270
C72	C	1.224712	0.198892	0.576595
C73	C	1.224704	0.198891	0.423252
C74	C	1.310600	0.160529	0.346599
H75	H	1.041567	0.282896	-0.000130
H76	H	1.310606	0.160527	0.221747
C77	C	1.130202	0.241072	0.660916
H78	H	1.079029	0.263915	0.593296
H79	H	1.175030	0.264974	0.720745
H80	H	1.078211	0.220344	0.720718
H81	H	1.473718	-0.743373	0.240810
C82	C	1.654197	0.007078	0.821959
H83	H	1.590732	0.035415	0.856634
H84	H	1.734347	0.015211	0.856652
H85	H	1.637479	-0.029398	0.856644
C86	C	1.483987	-0.353834	0.411588
H87	H	1.485033	-0.314195	0.392585
H88	H	1.556960	-0.367632	0.466155
H89	H	1.410474	-0.359518	0.466135
C90	C	1.834588	-0.073474	0.660986
H91	H	1.822282	-0.067980	0.763284
H92	H	1.918311	-0.066934	0.635847
H93	H	1.821442	-0.111543	0.635881
C94	C	1.184023	-0.127007	0.000032
H95	H	1.135581	-0.158565	0.000032
H96	H	1.235765	-0.128548	0.084978
H97	H	1.235762	-0.128545	-0.084930
H98	H	0.803950	0.280035	-0.000167
H99	H	1.251285	-0.016977	-0.000001
H100	H	1.310618	0.160524	0.778122
C101	C	1.834576	-0.073475	0.338970
H102	H	1.822277	-0.067979	0.236669
H103	H	1.821444	-0.111541	0.364119
H104	H	1.918302	-0.066928	0.364086
H105	H	1.154748	0.230127	0.360832
C106	C	1.480755	-0.478523	-0.411735
H107	H	1.481467	-0.452311	-0.490801
H108	H	1.406909	-0.497646	-0.417287
H109	H	1.553396	-0.505750	-0.417257
H110	H	1.480913	-0.470089	0.373647
H111	H	1.483836	-0.362277	-0.373777
C112	C	0.676103	0.184143	-0.000144
H113	H	0.634930	0.222072	-0.000172
H114	H	0.652236	0.164647	0.084804
H115	H	0.652265	0.164651	-0.085103
H116	H	1.476577	-0.635562	-0.241034
H117	H	1.488229	-0.196825	0.240899
H118	H	1.488221	-0.196772	-0.240967
H119	H	1.491096	-0.089039	0.240903
H120	H	1.188743	0.190308	-0.000096
H121	H	0.923243	-0.115286	-0.000000
H122	H	1.654199	0.007083	0.221774
H123	H	0.776064	-0.022688	-0.000032
H124	H	1.491117	-0.089007	-0.240937
H125	H	1.473711	-0.743346	-0.241035
C126	C	1.476789	-0.627121	0.278771
H127	H	1.476107	-0.653332	0.357842
H128	H	1.404168	-0.599889	0.284312
H129	H	1.550654	-0.608005	0.284295
