data_functionalizedCrystal
_audit_creation_method	'MofGen! by Chris Wilmer'
_symmetry_space_group_name_H-M	'P1'
_symmetry_Int_Tables_number	1
_symmetry_cell_setting	triclinic
loop_
_symmetry_equiv_pos_as_xyz
  x,y,z
_cell_length_a	19.805407
_cell_length_b	19.805405
_cell_length_c	19.805398
_cell_angle_alpha	89.970920
_cell_angle_beta	90.011351
_cell_angle_gamma	89.969510
loop_
_atom_site_label
_atom_site_type_symbol
_atom_site_fract_x
_atom_site_fract_y
_atom_site_fract_z
Zn1	Zn	1.034661	0.269521	0.382685
Zn2	Zn	1.367994	0.602854	0.716019
Zn3	Zn	1.701327	0.936187	1.049352
Zn4	Zn	1.034575	0.382711	0.269496
Zn5	Zn	1.367908	0.716044	0.602830
Zn6	Zn	1.701242	1.049378	0.936163
Zn7	Zn	0.921488	0.269536	0.269514
Zn8	Zn	1.254821	0.602869	0.602847
Zn9	Zn	1.588155	0.936203	0.936180
Zn10	Zn	0.921426	0.382668	0.382646
Zn11	Zn	1.254759	0.716001	0.715980
Zn12	Zn	1.588092	1.049334	1.049313
O13	O	0.978037	0.326109	0.326085
O14	O	1.311371	0.659442	0.659419
O15	O	1.644704	0.992775	0.992752
O16	O	1.129366	0.284547	0.367680
O17	O	1.462699	0.617880	0.701013
O18	O	1.796033	0.951214	1.034346
O19	O	1.019564	0.367723	0.174782
O20	O	1.352897	0.701056	0.508115
O21	O	1.686231	1.034389	0.841449
O22	O	0.936563	0.174817	0.284550
O23	O	1.269896	0.508151	0.617883
O24	O	1.603229	0.841484	0.951216
O25	O	1.129303	0.367708	0.284520
O26	O	1.462636	0.701041	0.617853
O27	O	1.795970	1.034374	0.951187
O28	O	1.019710	0.174806	0.367696
O29	O	1.353044	0.508139	0.701030
O30	O	1.686377	0.841473	1.034363
O31	O	0.936480	0.284573	0.174795
O32	O	1.269813	0.617907	0.508128
O33	O	1.603146	0.951240	0.841461
O34	O	0.826763	0.284531	0.284512
O35	O	1.160097	0.617865	0.617845
O36	O	1.493430	0.951198	0.951178
O37	O	0.936456	0.367634	0.477368
O38	O	1.269789	0.700967	0.810702
O39	O	1.603123	1.034301	1.144035
O40	O	0.826717	0.367649	0.367630
O41	O	1.160051	0.700982	0.700963
O42	O	1.493384	1.034315	1.034297
O43	O	1.019650	0.284505	0.477397
O44	O	1.352983	0.617839	0.810730
O45	O	1.686316	0.951172	1.144064
O46	O	1.019503	0.477422	0.284482
O47	O	1.352837	0.810755	0.617816
O48	O	1.686170	1.144088	0.951149
O49	O	0.936373	0.477390	0.367613
O50	O	1.269706	0.810723	0.700947
O51	O	1.603040	1.144057	1.034280
C52	C	0.802181	0.326088	0.326069
C53	C	1.135515	0.659421	0.659402
C54	C	1.468848	0.992754	0.992736
C55	C	0.726949	0.326095	0.326078
C56	C	1.060283	0.659428	0.659411
C57	C	1.393616	0.992761	0.992745
C58	C	0.691639	0.282870	0.369445
C59	C	1.024972	0.616203	0.702778
C60	C	1.358305	0.949536	1.036112
C61	C	0.620950	0.282873	0.369448
C62	C	0.954284	0.616207	0.702781
C63	C	1.287617	0.949540	1.036114
C64	C	0.585574	0.326106	0.326086
C65	C	0.918907	0.659439	0.659419
C66	C	1.252240	0.992772	0.992753
C67	C	0.620889	0.369333	0.282714
C68	C	0.954223	0.702666	0.616048
C69	C	1.287556	1.035999	0.949381
C70	C	0.691577	0.369325	0.282709
C71	C	1.024910	0.702659	0.616042
C72	C	1.358243	1.035992	0.949375
C73	C	0.335816	0.369363	0.282735
C74	C	0.669149	0.702697	0.616068
C75	C	1.002483	1.036030	0.949402
C76	C	0.265124	0.369369	0.282745
C77	C	0.598457	0.702702	0.616079
C78	C	0.931791	1.036035	0.949412
C79	C	0.265190	0.282911	0.369474
C80	C	0.598523	0.616244	0.702807
C81	C	0.931856	0.949578	1.036141
C82	C	0.335877	0.282904	0.369468
C83	C	0.669210	0.616237	0.702802
C84	C	1.002544	0.949570	1.036135
C85	C	0.371186	0.326128	0.326094
C86	C	0.704520	0.659461	0.659428
C87	C	1.037853	0.992794	0.992761
C88	C	0.447835	0.326123	0.326091
C89	C	0.781168	0.659456	0.659424
C90	C	1.114501	0.992789	0.992758
C91	C	0.508927	0.326115	0.326092
C92	C	0.842260	0.659448	0.659426
C93	C	1.175593	0.992782	0.992759
C94	C	0.977940	0.501965	0.326056
C95	C	1.311274	0.835298	0.659390
C96	C	1.644607	1.168631	0.992723
C97	C	0.977961	0.577197	0.326067
C98	C	1.311294	0.910530	0.659400
C99	C	1.644628	1.243863	0.992733
C100	C	1.021226	0.612477	0.369394
C101	C	1.354559	0.945810	0.702728
C102	C	1.687893	1.279143	1.036061
C103	C	1.021243	0.683165	0.369405
C104	C	1.354576	1.016499	0.702739
C105	C	1.687909	1.349832	1.036072
C106	C	0.977997	0.718572	0.326084
C107	C	1.311330	1.051906	0.659418
C108	C	1.644663	1.385239	0.992751
C109	C	0.934727	0.683287	0.282755
C110	C	1.268060	1.016621	0.616088
C111	C	1.601393	1.349954	0.949422
C112	C	0.934707	0.612600	0.282748
C113	C	1.268041	0.945934	0.616081
C114	C	1.601374	1.279267	0.949415
C115	C	0.934803	0.968361	0.282782
C116	C	1.268137	1.301694	0.616116
C117	C	1.601470	1.635027	0.949449
C118	C	0.934827	1.039053	0.282791
C119	C	1.268161	1.372386	0.616125
C120	C	1.601494	1.705719	0.949458
C121	C	1.021339	1.038926	0.369440
C122	C	1.354672	1.372259	0.702773
C123	C	1.688005	1.705592	1.036106
C124	C	1.021319	0.968239	0.369433
C125	C	1.354653	1.301572	0.702766
C126	C	1.687986	1.634905	1.036099
C127	C	0.978047	0.932960	0.326106
C128	C	1.311380	1.266293	0.659439
C129	C	1.644714	1.599626	0.992773
C130	C	0.978029	0.856311	0.326096
C131	C	1.311362	1.189645	0.659429
C132	C	1.644695	1.522978	0.992762
C133	C	0.978018	0.795219	0.326091
C134	C	1.311351	1.128553	0.659424
C135	C	1.644685	1.461886	0.992757
C136	C	1.154580	0.326131	0.326102
C137	C	1.487913	0.659464	0.659436
C138	C	1.821247	0.992797	0.992769
C139	C	1.229812	0.326140	0.326110
C140	C	1.563145	0.659473	0.659443
C141	C	1.896479	0.992806	0.992776
C142	C	0.978055	0.326063	0.502628
C143	C	1.311389	0.659396	0.835962
C144	C	1.644722	0.992730	1.169295
C145	C	0.978063	0.326043	0.577860
C146	C	1.311396	0.659377	0.911194
C147	C	1.644730	0.992710	1.244527
C148	C	0.978125	1.149566	0.326123
C149	C	1.311458	1.482899	0.659456
C150	C	1.644791	1.816233	0.992790
C151	C	0.978090	1.074334	0.326123
C152	C	1.311423	1.407667	0.659456
C153	C	1.644757	1.741001	0.992789
C154	C	0.978058	0.326106	0.150229
C155	C	1.311392	0.659439	0.483563
C156	C	1.644725	0.992772	0.816896
C157	C	0.978182	0.325934	0.074998
C158	C	1.311515	0.659268	0.408331
C159	C	1.644848	0.992601	0.741664
C160	C	1.021432	0.369232	1.039642
C161	C	1.354765	0.702565	1.372976
C162	C	1.688099	1.035898	1.706309
C163	C	1.021413	0.369250	0.968954
C164	C	1.354747	0.702583	1.302287
C165	C	1.688080	1.035917	1.635621
C166	C	0.978147	0.325967	0.933622
C167	C	1.311481	0.659300	1.266955
C168	C	1.644814	0.992634	1.600289
C169	C	0.934892	0.282668	0.968982
C170	C	1.268226	0.616001	1.302316
C171	C	1.601559	0.949335	1.635649
C172	C	0.934908	0.282654	1.039670
C173	C	1.268241	0.615987	1.373003
C174	C	1.601575	0.949320	1.706336
C175	C	0.934827	0.282726	0.683909
C176	C	1.268160	0.616059	1.017242
C177	C	1.601494	0.949393	1.350576
C178	C	0.934816	0.282742	0.613217
C179	C	1.268149	0.616076	0.946550
C180	C	1.601483	0.949409	1.279884
C181	C	1.021332	0.369322	0.613193
C182	C	1.354665	0.702656	0.946527
C183	C	1.687999	1.035989	1.279860
C184	C	1.021348	0.369308	0.683880
C185	C	1.354681	0.702641	1.017214
C186	C	1.688015	1.035975	1.350547
C187	C	0.978091	0.326012	0.719235
C188	C	1.311424	0.659345	1.052568
C189	C	1.644757	0.992678	1.385901
C190	C	0.978111	0.325993	0.795883
C191	C	1.311444	0.659326	1.129216
C192	C	1.644777	0.992660	1.462550
C193	C	0.978130	0.325982	0.856975
C194	C	1.311464	0.659315	1.190308
C195	C	1.644797	0.992648	1.523642
H196	H	0.236322	0.404576	0.247433
H197	H	0.569656	0.737909	0.580766
H198	H	0.902989	1.071242	0.914099
H199	H	0.364557	0.404560	0.247418
H200	H	0.697890	0.737893	0.580751
H201	H	1.031223	1.071226	0.914085
N202	N	1.067964	0.930049	0.416155
N203	N	1.401297	1.263383	0.749488
N204	N	1.734631	1.596716	1.082822
H205	H	1.095375	0.963126	0.443607
H206	H	1.428708	1.296459	0.776940
H207	H	1.762041	1.629793	1.110274
H208	H	1.040379	0.900725	0.447449
H209	H	1.373713	1.234058	0.780782
H210	H	1.707046	1.567392	1.114115
N211	N	1.067995	1.076979	0.416188
N212	N	1.401329	1.410312	0.749522
N213	N	1.734662	1.743645	1.082855
H214	H	1.095387	1.043821	0.443630
H215	H	1.428720	1.377154	0.776963
H216	H	1.762054	1.710488	1.110297
H217	H	1.099348	1.106305	0.388677
H218	H	1.432681	1.439638	0.722010
H219	H	1.766015	1.772971	1.055343
N220	N	0.888180	1.077240	0.236063
N221	N	1.221513	1.410574	0.569396
N222	N	1.554847	1.743907	0.902730
H223	H	0.839808	1.064976	0.246534
H224	H	1.173141	1.398310	0.579867
H225	H	1.506475	1.731643	0.913200
H226	H	0.894820	1.127361	0.242662
H227	H	1.228153	1.460694	0.575995
H228	H	1.561487	1.794028	0.909328
H229	H	0.899690	0.247396	1.068455
H230	H	1.233023	0.580729	1.401788
H231	H	1.566357	0.914062	1.735122
H232	H	0.592080	0.404530	0.247405
H233	H	0.925414	0.737864	0.580739
H234	H	1.258747	1.071197	0.914072
N235	N	1.068098	0.415922	1.077740
N236	N	1.401431	0.749255	1.411074
N237	N	1.734764	1.082589	1.744407
H238	H	1.040576	0.447278	1.107059
H239	H	1.373909	0.780612	1.440392
H240	H	1.707242	1.113945	1.773726
H241	H	1.099484	0.388371	1.107038
H242	H	1.432817	0.721704	1.440371
H243	H	1.766151	1.055037	1.773704
N244	N	1.068059	0.415950	0.930818
N245	N	1.401392	0.749283	1.264151
N246	N	1.734725	1.082617	1.597484
H247	H	1.095473	0.443365	0.963925
H248	H	1.428807	0.776699	1.297258
H249	H	1.762140	1.110032	1.630591
H250	H	1.099390	0.388407	0.901495
H251	H	1.432724	0.721740	1.234828
H252	H	1.766057	1.055074	1.568161
H253	H	1.056582	0.404551	0.712644
H254	H	1.389915	0.737884	1.045978
H255	H	1.723249	1.071218	1.379311
H256	H	0.899512	0.712121	0.247485
H257	H	1.232846	1.045455	0.580818
H258	H	1.566179	1.378788	0.914152
N259	N	0.374028	0.236272	0.416238
N260	N	0.707361	0.569606	0.749572
N261	N	1.040694	0.902939	1.082905
H262	H	0.403362	0.204869	0.388785
H263	H	0.736696	0.538202	0.722118
H264	H	1.070029	0.871535	1.055452
H265	H	0.403313	0.263864	0.447544
H266	H	0.736647	0.597197	0.780878
H267	H	1.069980	0.930531	1.114211
H268	H	0.899571	0.939642	0.247503
H269	H	1.232904	1.272975	0.580836
H270	H	1.566238	1.606309	0.914170
H271	H	0.899603	0.247472	0.712686
H272	H	1.232937	0.580806	1.046019
H273	H	1.566270	0.914139	1.379353
N274	N	0.888041	0.574545	0.236019
N275	N	1.221374	0.907878	0.569352
N276	N	1.554707	1.241211	0.902685
H277	H	0.860648	0.607700	0.208575
H278	H	1.193981	0.941033	0.541908
H279	H	1.527315	1.274366	0.875242
H280	H	0.915605	0.545211	0.204717
H281	H	1.248938	0.878544	0.538051
H282	H	1.582271	1.211878	0.871384
N283	N	1.067988	0.416024	0.575061
N284	N	1.401322	0.749357	0.908394
N285	N	1.734655	1.082690	1.241727
H286	H	1.061349	0.409533	0.524919
H287	H	1.394682	0.742867	0.858253
H288	H	1.728015	1.076200	1.191586
H289	H	1.057489	0.464356	0.587473
H290	H	1.390822	0.797689	0.920806
H291	H	1.724155	1.131022	1.254139
N292	N	0.729665	0.415943	0.235931
N293	N	1.062999	0.749276	0.569265
N294	N	1.396332	1.082610	0.902598
H295	H	0.696530	0.443332	0.208463
H296	H	1.029863	0.776666	0.541796
H297	H	1.363196	1.109999	0.875129
H298	H	0.758990	0.447299	0.263421
H299	H	1.092324	0.780632	0.596754
H300	H	1.425657	1.113966	0.930088
N301	N	0.888152	0.236053	0.575106
N302	N	1.221486	0.569386	0.908440
N303	N	1.554819	0.902719	1.241773
H304	H	0.860751	0.208622	0.608229
H305	H	1.194085	0.541955	0.941562
H306	H	1.527418	0.875288	1.274895
H307	H	0.856809	0.263606	0.545766
H308	H	1.190142	0.596939	0.879099
H309	H	1.523475	0.930273	1.212432
H310	H	0.236432	0.247714	0.404789
H311	H	0.569766	0.581047	0.738122
H312	H	0.903099	0.914380	1.071455
N313	N	1.067874	0.574290	0.416116
N314	N	1.401207	0.907623	0.749449
N315	N	1.734541	1.240957	1.082782
H316	H	1.095283	0.607369	0.443566
H317	H	1.428617	0.940702	0.776899
H318	H	1.761950	1.274036	1.110233
H319	H	1.040292	0.544964	0.447411
H320	H	1.373626	0.878298	0.780744
H321	H	1.706959	1.211631	1.114078
H322	H	1.056479	0.711887	0.404682
H323	H	1.389812	1.045220	0.738015
H324	H	1.723145	1.378554	1.071348
N325	N	0.888224	0.235982	0.930882
N326	N	1.221557	0.569316	1.264216
N327	N	1.554890	0.902649	1.597549
H328	H	0.856833	0.263490	0.901544
H329	H	1.190167	0.596823	1.234878
H330	H	1.523500	0.930156	1.568211
H331	H	0.915792	0.204632	0.901604
H332	H	1.249125	0.537965	1.234937
H333	H	1.582458	0.871299	1.568271
N334	N	0.729792	0.236244	0.416218
N335	N	1.063126	0.569578	0.749552
N336	N	1.396459	0.902911	1.082885
H337	H	0.696694	0.208861	0.443691
H338	H	1.030027	0.542195	0.777024
H339	H	1.363361	0.875528	1.110357
H340	H	0.759128	0.204882	0.388722
H341	H	1.092461	0.538215	0.722056
H342	H	1.425794	0.871549	1.055389
H343	H	0.592203	0.247676	0.404763
H344	H	0.925537	0.581010	0.738096
H345	H	1.258870	0.914343	1.071429
