data_functionalizedCrystal
_audit_creation_method	'MofGen! by Chris Wilmer'
_symmetry_space_group_name_H-M	'P1'
_symmetry_Int_Tables_number	1
_symmetry_cell_setting	triclinic
loop_
_symmetry_equiv_pos_as_xyz
  x,y,z
_cell_length_a	6.817900
_cell_length_b	17.078472
_cell_length_c	17.078481
_cell_angle_alpha	96.872237
_cell_angle_beta	99.306161
_cell_angle_gamma	99.306020
loop_
_atom_site_label
_atom_site_type_symbol
_atom_site_fract_x
_atom_site_fract_y
_atom_site_fract_z
V1	V	-3.958854	-0.109582	-0.247282
O2	O	-3.969080	0.005456	-0.242657
O3	O	-3.890234	-0.217466	-0.245512
O4	O	-3.890235	-0.107813	-0.355166
O5	O	-3.969079	-0.104956	-0.132243
V6	V	-4.447722	-0.095832	-0.233532
O7	O	-4.208388	-0.139744	-0.277444
O8	O	-4.648385	-0.065670	-0.203370
O9	O	-4.293135	0.012052	-0.235302
O10	O	-4.554892	-0.210871	-0.238157
O11	O	-4.554893	-0.100458	-0.348571
O12	O	-4.293134	-0.097601	-0.125648
C13	C	-3.730970	-0.243769	-0.241591
C14	C	-3.756017	-0.331965	-0.240863
C15	C	-3.948372	-0.377437	-0.244475
C16	C	-3.971897	-0.460307	-0.243795
C17	C	-3.803061	-0.497703	-0.239498
C18	C	-3.610692	-0.452224	-0.235888
C19	C	-3.587172	-0.369357	-0.236573
C20	C	-3.854040	-0.745108	-0.237030
C21	C	-3.877575	-0.827982	-0.236342
C22	C	-4.238780	-0.836060	-0.244251
C23	C	-4.215241	-0.753189	-0.244932
C24	C	-4.022876	-0.707719	-0.241326
N25	N	-3.827102	-0.582409	-0.238801
N26	N	-3.998840	-0.623015	-0.242029
C27	C	-3.730971	-0.103894	-0.381465
C28	C	-3.756017	-0.103161	-0.469660
C29	C	-3.948374	-0.106777	-0.515133
C30	C	-3.971895	-0.106088	-0.598002
C31	C	-3.803060	-0.101789	-0.635397
C32	C	-3.610687	-0.098170	-0.589917
C33	C	-3.587166	-0.098853	-0.507049
C34	C	-3.854039	-0.099316	-0.882802
C35	C	-3.877577	-0.098635	-0.965676
C36	C	-4.238784	-0.106552	-0.973755
C37	C	-4.215247	-0.107240	-0.890886
C38	C	-4.022876	-0.103617	-0.845413
N39	N	-3.827099	-0.101087	-0.720102
N40	N	-3.998837	-0.104313	-0.760708
C41	C	-4.115740	0.038350	-0.239221
C42	C	-4.069930	0.126546	-0.239955
C43	C	-4.115740	-0.101523	-0.099345
C44	C	-4.069933	-0.102251	-0.011149
H45	H	-4.395397	-0.873090	-0.247187
H46	H	-3.473227	-0.482679	-0.232394
H47	H	-3.473218	-0.094665	-0.620370
O48	O	-3.667030	-0.701058	-0.233481
C49	C	-3.523071	-0.751840	-0.229558
H50	H	-3.584364	-0.808177	-0.204996
H51	H	-3.491402	-0.769338	-0.292204
C52	C	-3.250519	-0.638377	-0.203991
C53	C	-3.325794	-0.707568	-0.173818
H54	H	-3.128826	-0.611068	-0.169612
H55	H	-3.347506	-0.604164	-0.206638
H56	H	-3.224145	-0.652969	-0.256197
H57	H	-3.352191	-0.692975	-0.121619
H58	H	-3.228806	-0.741778	-0.171162
O59	O	-3.400161	-0.325295	-0.233021
C60	C	-3.256189	-0.376071	-0.229099
H61	H	-3.317469	-0.432410	-0.204538
H62	H	-3.224521	-0.393566	-0.291747
C63	C	-2.983657	-0.262601	-0.203534
C64	C	-3.058916	-0.331795	-0.173361
H65	H	-2.861966	-0.235289	-0.169155
H66	H	-3.080652	-0.228391	-0.206178
H67	H	-2.957283	-0.277190	-0.255739
H68	H	-3.085312	-0.317204	-0.121161
H69	H	-2.961920	-0.366001	-0.170706
O70	O	-3.400309	-0.095208	-0.462816
C71	C	-3.352859	-0.026357	-0.403914
H72	H	-3.446307	0.019849	-0.423695
H73	H	-3.388777	-0.043543	-0.344620
C74	C	-3.011498	-0.047100	-0.368656
C75	C	-3.126261	0.009654	-0.392954
H76	H	-2.871721	-0.024888	-0.361891
H77	H	-3.043467	-0.093488	-0.408337
H78	H	-3.041453	-0.061417	-0.319246
H79	H	-3.096323	0.023962	-0.442367
H80	H	-3.094282	0.056045	-0.353280
O81	O	-4.158902	-0.109631	-0.642059
C82	C	-4.302868	-0.113550	-0.591280
H83	H	-4.241596	-0.138122	-0.534947
H84	H	-4.334509	-0.050900	-0.573775
C85	C	-4.575407	-0.139087	-0.704746
C86	C	-4.500160	-0.169274	-0.635560
H87	H	-4.697110	-0.173457	-0.732060
H88	H	-4.478416	-0.136444	-0.738957
H89	H	-4.601759	-0.086880	-0.690148
H90	H	-4.473786	-0.221476	-0.650159
H91	H	-4.597151	-0.171927	-0.601352
H92	H	-4.085864	-0.110284	-0.484694
O93	O	-4.379128	-0.716789	-0.249216
C94	C	-4.399398	-0.679826	-0.318881
H95	H	-4.246756	-0.667482	-0.338559
H96	H	-4.513740	-0.721254	-0.368901
C97	C	-4.660757	-0.615321	-0.276658
C98	C	-4.473275	-0.600154	-0.300823
H99	H	-4.706336	-0.566178	-0.265522
H100	H	-4.647107	-0.640226	-0.229725
H101	H	-4.756018	-0.649847	-0.318346
H102	H	-4.378012	-0.565637	-0.259132
H103	H	-4.486910	-0.575242	-0.347749
H104	H	-3.740079	-0.095132	-0.996120
O105	O	-4.425726	-0.110214	-1.017919
C106	C	-4.552905	-0.181803	-1.010822
H107	H	-4.456873	-0.227913	-0.993158
H108	H	-4.646659	-0.169062	-0.962822
C109	C	-4.812856	-0.158291	-1.113466
C110	C	-4.694908	-0.214927	-1.091777
H111	H	-4.900457	-0.178722	-1.163401
H112	H	-4.727178	-0.110059	-1.118246
H113	H	-4.890966	-0.147679	-1.073460
H114	H	-4.616782	-0.225530	-1.131778
H115	H	-4.780577	-0.263161	-1.087006
O116	O	-3.667252	-0.095748	-0.838555
C117	C	-3.619659	-0.026938	-0.779601
H118	H	-3.712867	0.019349	-0.799360
H119	H	-3.655770	-0.044149	-0.720340
C120	C	-3.278505	-0.047899	-0.744293
C121	C	-3.392972	0.008954	-0.768565
H122	H	-3.138672	-0.025760	-0.737483
H123	H	-3.310569	-0.094260	-0.784009
H124	H	-3.308620	-0.062237	-0.694912
H125	H	-3.362874	0.023284	-0.817950
H126	H	-3.360897	0.055319	-0.728857
H127	H	-4.085858	-0.346995	-0.247967
H128	H	-4.128529	-0.497328	-0.246738
H129	H	-4.352735	-0.110740	-0.860445
H130	H	-3.740085	-0.858429	-0.232861
