data_functionalizedCrystal
_audit_creation_method	'MofGen! by Chris Wilmer'
_symmetry_space_group_name_H-M	'P1'
_symmetry_Int_Tables_number	1
_symmetry_cell_setting	triclinic
loop_
_symmetry_equiv_pos_as_xyz
  x,y,z
_cell_length_a	17.699104
_cell_length_b	16.776229
_cell_length_c	10.654550
_cell_angle_alpha	90.006473
_cell_angle_beta	83.888224
_cell_angle_gamma	90.008029
loop_
_atom_site_label
_atom_site_type_symbol
_atom_site_fract_x
_atom_site_fract_y
_atom_site_fract_z
O1	O	1.005079	0.066304	0.158933
O2	O	0.784834	0.066302	0.179567
O3	O	0.900020	0.066298	-0.013577
O4	O	0.889893	0.066308	0.352078
O5	O	0.900005	-0.066278	-0.013589
O6	O	0.784818	-0.066274	0.179555
O7	O	1.005063	-0.066272	0.158921
Zn8	Zn	0.894939	-0.087323	0.169237
Zn9	Zn	0.894959	0.087353	0.169252
O10	O	0.889877	-0.066268	0.352066
C11	C	0.756625	0.000014	0.178818
C12	C	0.672593	0.000013	0.176586
N13	N	0.894930	-0.206534	0.169225
C14	C	0.148363	0.000024	0.277373
C15	C	0.227320	0.000026	0.279463
C16	C	0.275217	0.000023	0.166080
C17	C	0.244153	0.000025	0.050600
C18	C	0.165197	0.000029	0.048512
C19	C	0.562572	0.000013	0.059017
C20	C	0.641533	0.000007	0.061114
C21	C	0.624695	0.000010	0.289968
C22	C	0.545740	0.000014	0.287880
C23	C	0.514683	0.000020	0.172401
C24	C	0.429068	0.000019	0.170137
C25	C	0.360830	0.000018	0.168342
C26	C	0.945950	-0.248253	0.083736
C27	C	0.945955	-0.331705	0.083735
C28	C	0.894942	-0.373437	0.169230
C29	C	0.843916	-0.331712	0.254723
C30	C	0.843908	-0.248261	0.254717
C31	C	0.843943	-0.668259	0.254748
C32	C	0.843956	-0.751716	0.254750
C33	C	0.945989	-0.751703	0.083765
C34	C	0.945982	-0.668252	0.083760
C35	C	0.894954	-0.626535	0.169248
C36	C	0.894949	-0.536046	0.169246
C37	C	0.894950	-0.463924	0.169239
C38	C	1.033273	0.000018	0.159671
C39	C	1.117304	0.000024	0.161903
N40	N	0.894973	0.206564	0.169254
C41	C	0.899269	0.000010	-0.060368
C42	C	0.897044	0.000012	-0.199772
C43	C	0.964864	0.000012	-0.280437
C44	C	0.962769	0.000022	-0.411421
C45	C	0.825028	0.000027	-0.381064
C46	C	0.827124	0.000023	-0.250082
C47	C	0.890628	0.000021	0.398857
C48	C	0.892853	0.000025	0.538261
H49	H	0.109370	0.000021	0.369704
C50	C	1.046836	-0.676624	-0.085268
C51	C	1.002055	-0.622382	-0.010223
H52	H	1.081448	-0.648304	-0.143297
H53	H	1.074337	-0.709157	-0.033047
H54	H	1.015092	-0.709188	-0.130371
H55	H	1.033798	-0.589820	0.034887
H56	H	0.974552	-0.589835	-0.062451
C57	C	1.047128	-0.068147	-0.150774
C58	C	1.041720	0.000009	-0.225138
H59	H	1.094580	-0.068148	-0.116646
H60	H	1.007044	-0.068144	-0.083988
H61	H	1.043441	-0.114372	-0.201264
H62	H	1.045401	0.046234	-0.174645
H63	H	1.081815	0.000013	-0.291933
C64	C	0.417230	0.000022	0.386294
C65	C	0.493091	0.000020	0.412513
H66	H	0.384730	0.000024	0.463241
H67	H	0.407763	0.046249	0.338943
H68	H	0.407748	-0.046216	0.338934
H69	H	0.502575	0.046261	0.459865
H70	H	0.502562	-0.046212	0.459884
C71	C	1.046805	-0.256631	-0.085288
C72	C	1.002025	-0.202385	-0.010247
H73	H	1.081419	-0.228314	-0.143317
H74	H	1.074303	-0.289165	-0.033065
H75	H	1.015059	-0.289194	-0.130391
H76	H	1.033770	-0.169825	0.034862
H77	H	0.974525	-0.169838	-0.062477
C78	C	0.961512	-0.425553	-0.087218
C79	C	1.002043	-0.377556	-0.010237
H80	H	0.996142	-0.453853	-0.145240
H81	H	0.931140	-0.462350	-0.036310
H82	H	0.929774	-0.393001	-0.132328
H83	H	1.033777	-0.410109	0.034880
H84	H	1.032428	-0.340754	-0.061152
C85	C	0.800601	-0.222549	0.472208
C86	C	0.787829	-0.202399	0.348694
H87	H	0.765980	-0.194231	0.530222
H88	H	0.793302	-0.278214	0.484441
H89	H	0.851182	-0.208854	0.485731
H90	H	0.737250	-0.216099	0.335168
H91	H	0.795122	-0.146721	0.336456
C92	C	0.202746	0.000013	0.505470
C93	C	0.261460	0.000019	0.406392
H94	H	0.223824	0.000003	0.583833
H95	H	0.172309	0.046243	0.499907
H96	H	0.172293	-0.046222	0.499872
H97	H	0.291909	0.046257	0.411985
H98	H	0.291910	-0.046216	0.411957
H99	H	1.017995	0.000025	-0.477094
H100	H	0.680530	0.000007	-0.031222
C101	C	0.483581	0.068176	-0.076112
C102	C	0.528446	0.000018	-0.067920
H103	H	0.462517	0.068180	-0.154487
H104	H	0.443755	0.068174	-0.008903
H105	H	0.514050	0.114400	-0.070524
H106	H	0.497975	-0.046206	-0.073499
H107	H	0.568277	0.000013	-0.135148
C108	C	0.961533	-0.845556	-0.087191
C109	C	1.002074	-0.797562	-0.010222
H110	H	0.996158	-0.873862	-0.145215
H111	H	0.931160	-0.882349	-0.036276
H112	H	0.929796	-0.813003	-0.132299
H113	H	1.033807	-0.830116	0.034894
H114	H	1.032460	-0.760765	-0.061144
H115	H	0.768102	0.000034	-0.422043
H116	H	0.802412	-0.785693	0.324373
C117	C	0.738251	0.000023	0.394807
C118	C	0.658835	0.000018	0.416908
H119	H	0.759325	0.000032	0.473174
H120	H	0.754641	-0.046208	0.348140
H121	H	0.754647	0.046257	0.348135
H122	H	0.642439	-0.046219	0.463573
H123	H	0.642439	0.046254	0.463595
C124	C	0.372661	0.000010	-0.047821
C125	C	0.296800	0.000019	-0.074035
H126	H	0.405160	-0.000001	-0.124769
H127	H	0.382149	0.046240	-0.000469
H128	H	0.382125	-0.046225	-0.000463
H129	H	0.287334	0.046257	-0.121385
H130	H	0.287308	-0.046216	-0.121407
H131	H	0.139911	0.000030	-0.045516
C132	C	0.743093	-0.676666	0.423772
C133	C	0.787860	-0.622411	0.348726
H134	H	0.708472	-0.648357	0.481797
H135	H	0.715603	-0.709226	0.371552
H136	H	0.774845	-0.709203	0.468879
H137	H	0.756108	-0.589878	0.303611
H138	H	0.815352	-0.589837	0.400952
H139	H	0.802376	-0.365695	0.324331
H140	H	0.771893	0.000024	-0.184401
