data_functionalizedCrystal
_audit_creation_method	'MofGen! by Chris Wilmer'
_symmetry_space_group_name_H-M	'P1'
_symmetry_Int_Tables_number	1
_symmetry_cell_setting	triclinic
loop_
_symmetry_equiv_pos_as_xyz
  x,y,z
_cell_length_a	10.489741
_cell_length_b	15.624803
_cell_length_c	14.750779
_cell_angle_alpha	85.131014
_cell_angle_beta	77.226586
_cell_angle_gamma	84.375333
loop_
_atom_site_label
_atom_site_type_symbol
_atom_site_fract_x
_atom_site_fract_y
_atom_site_fract_z
O1	O	0.325005	1.086135	-0.458003
O2	O	0.825005	1.586135	0.041997
O3	O	0.315703	0.844226	-0.373775
O4	O	0.815703	1.344226	0.126225
O5	O	0.135350	0.970687	-0.417800
O6	O	0.635350	1.470687	0.082200
O7	O	0.505357	0.959675	-0.413978
O8	O	1.005357	1.459675	0.086022
O9	O	0.084373	1.006435	-0.270595
O10	O	0.584373	1.506435	0.229405
O11	O	0.264725	0.879975	-0.226570
O12	O	0.764725	1.379975	0.273430
O13	O	0.274028	1.121884	-0.310798
O14	O	0.774028	1.621884	0.189202
Zn15	Zn	0.261283	1.006605	-0.245312
Zn16	Zn	0.761283	1.506605	0.254688
Zn17	Zn	0.328448	0.959505	-0.439261
Zn18	Zn	0.828448	1.459505	0.060739
O19	O	0.454380	0.995424	-0.266773
O20	O	0.954380	1.495424	0.233227
C21	C	0.285584	0.831124	-0.289387
C22	C	0.785584	1.331124	0.210613
C23	C	0.271772	0.738824	-0.257250
C24	C	0.771772	1.238824	0.242750
C25	C	0.365245	0.337900	-0.552851
C26	C	0.865245	0.837900	-0.052851
C27	C	0.352241	0.251172	-0.522653
C28	C	0.852241	0.751172	-0.022653
C29	C	0.296665	0.290123	-0.362169
C30	C	0.796665	0.790123	0.137831
C31	C	0.309658	0.376856	-0.392354
C32	C	0.809658	0.876856	0.107646
C33	C	0.343950	0.400737	-0.487696
C34	C	0.843950	0.900737	0.012304
C35	C	0.288362	0.439693	-0.327199
C36	C	0.788362	0.939693	0.172801
C37	C	0.301361	0.526418	-0.357382
C38	C	0.801361	1.026418	0.142618
C39	C	0.335656	0.550306	-0.452720
C40	C	0.835656	1.050306	0.047280
C41	C	0.356949	0.487462	-0.517879
C42	C	0.856949	0.987462	-0.017879
C43	C	0.254080	0.415810	-0.231857
C44	C	0.754080	0.915810	0.268143
C45	C	0.232784	0.478647	-0.166701
C46	C	0.732784	0.978647	0.333299
C47	C	0.245774	0.565374	-0.196884
C48	C	0.745774	1.065374	0.303116
C49	C	0.280068	0.589262	-0.292223
C50	C	0.780068	1.089262	0.207777
C51	C	0.224481	0.628219	-0.131725
C52	C	0.724481	1.128219	0.368275
C53	C	0.237480	0.714944	-0.161908
C54	C	0.737480	1.214944	0.338092
C55	C	0.293067	0.675987	-0.322406
C56	C	0.793067	1.175987	0.177594
C57	C	0.062240	0.987729	-0.343909
C58	C	0.562240	1.487729	0.156091
C59	C	-0.079658	0.985241	-0.343044
C60	C	0.420342	1.485241	0.156956
C61	C	-0.156509	0.904778	-0.315036
C62	C	0.343491	1.404778	0.184964
C63	C	-0.269650	0.960413	-0.255690
C64	C	0.230350	1.460413	0.244310
C65	C	-0.219363	0.925187	-0.400829
C66	C	0.280637	1.425187	0.099171
C67	C	-0.190951	1.040925	-0.283650
C68	C	0.309049	1.540925	0.216350
C69	C	-0.140633	1.005671	-0.428851
C70	C	0.359367	1.505671	0.071149
C71	C	-0.253747	1.061369	-0.369508
C72	C	0.246253	1.561369	0.130492
C73	C	0.527491	0.978381	-0.340666
C74	C	1.027491	1.478381	0.159334
C75	C	0.669391	0.980867	-0.341537
C76	C	1.169391	1.480867	0.158463
C77	C	0.304147	1.134986	-0.395188
C78	C	0.804147	1.634986	0.104812
C79	C	0.317961	1.227284	-0.427330
C80	C	0.817961	1.727284	0.072670
N81	N	0.215444	1.038756	-0.112949
N82	N	0.715444	1.538756	0.387051
N83	N	0.374277	0.927361	-0.571626
N84	N	0.874277	1.427361	-0.071626
C85	C	0.502240	0.837567	0.308910
C86	C	1.002240	1.337567	0.808910
C87	C	0.470129	0.860103	0.401563
C88	C	0.970129	1.360103	0.901563
C89	C	0.310493	0.972107	0.362534
C90	C	0.810493	1.472107	0.862534
C91	C	0.342587	0.949578	0.269876
C92	C	0.842587	1.449578	0.769876
C93	C	0.438462	0.882308	0.243072
C94	C	0.938462	1.382308	0.743072
C95	C	0.278809	0.994319	0.204038
C96	C	0.778809	1.494319	0.704038
C97	C	0.310905	0.971794	0.111387
C98	C	0.810905	1.471794	0.611387
C99	C	0.406779	0.904529	0.084574
C100	C	0.906779	1.404529	0.584574
C101	C	0.470558	0.859784	0.150421
C102	C	0.970558	1.359784	0.650421
C103	C	0.182941	1.061592	0.230842
C104	C	0.682941	1.561592	0.730842
C105	C	0.119163	1.106333	0.165004
C106	C	0.619163	1.606333	0.665004
C107	C	0.151252	1.083805	0.072353
C108	C	0.651252	1.583805	0.572353
C109	C	0.247126	1.016540	0.045540
C110	C	0.747126	1.516540	0.545540
C111	C	0.087473	1.128551	0.006506
C112	C	0.587473	1.628551	0.506506
C113	C	0.119569	1.106026	-0.086145
C114	C	0.619569	1.606026	0.413855
C115	C	0.279222	0.994015	-0.047111
C116	C	0.779222	1.494015	0.452889
H117	H	0.384868	0.506906	-0.595517
H118	H	0.884868	1.006906	-0.095517
F119	F	0.188004	0.602789	-0.030258
F120	F	0.688004	1.102789	0.469742
F121	F	-0.067462	1.030656	-0.524539
F122	F	0.432538	1.530656	-0.024539
F123	F	0.572588	0.788179	0.121895
F124	F	1.072588	1.288179	0.621895
F125	F	-0.236911	0.861193	-0.465527
F126	F	0.263089	1.361193	0.034473
H127	H	0.580301	0.782783	0.287088
H128	H	1.080301	1.282783	0.787088
F129	F	-0.173648	1.104887	-0.218840
F130	F	0.326352	1.604887	0.281160
F131	F	0.538024	0.812477	0.471630
F132	F	1.038024	1.312477	0.971630
F133	F	-0.308996	1.147928	-0.399592
F134	F	0.191004	1.647928	0.100408
F135	F	0.208462	1.043701	0.391069
F136	F	0.708462	1.543701	0.891069
H137	H	0.357284	0.939232	-0.068932
H138	H	0.857284	1.439232	0.431068
H139	H	-0.114047	0.838640	-0.291929
H140	H	0.385953	1.338640	0.208071
F141	F	-0.342778	0.935393	-0.159993
F142	F	0.157222	1.435393	0.340007
F143	F	0.148792	1.085565	0.329451
F144	F	0.648792	1.585565	0.829451
F145	F	0.440943	0.880561	-0.014036
F146	F	0.940943	1.380561	0.485964
F147	F	0.017131	1.177927	0.193539
F148	F	0.517131	1.677927	0.693539
H149	H	0.009420	1.183328	0.028341
H150	H	0.509420	1.683328	0.528341
H151	H	0.067635	1.142460	-0.139753
H152	H	0.567635	1.642460	0.360247
H153	H	0.204868	0.459190	-0.089073
H154	H	0.704868	0.959190	0.410927
F155	F	0.240253	0.323507	-0.199735
F156	F	0.740253	0.823507	0.300265
F157	F	0.260176	0.264697	-0.260701
F158	F	0.760176	0.764697	0.239299
H159	H	0.320987	0.695432	-0.400043
H160	H	0.820987	1.195432	0.099957
H161	H	0.393165	0.357344	-0.630489
H162	H	0.893165	0.857344	-0.130489
F163	F	0.349496	0.642607	-0.484844
F164	F	0.849496	1.142607	0.015156
F165	F	0.374915	0.184296	-0.592008
F166	F	0.874915	0.684296	-0.092008
H167	H	0.220146	0.766108	-0.108852
H168	H	0.720146	1.266108	0.391148
