data_functionalizedCrystal
_audit_creation_method	'MofGen! by Chris Wilmer'
_symmetry_space_group_name_H-M	'P1'
_symmetry_Int_Tables_number	1
_symmetry_cell_setting	triclinic
loop_
_symmetry_equiv_pos_as_xyz
  x,y,z
_cell_length_a	16.974885
_cell_length_b	10.723024
_cell_length_c	16.053802
_cell_angle_alpha	92.591250
_cell_angle_beta	91.069328
_cell_angle_gamma	83.929208
loop_
_atom_site_label
_atom_site_type_symbol
_atom_site_fract_x
_atom_site_fract_y
_atom_site_fract_z
O1	O	1.049928	0.159103	0.001448
O2	O	1.383261	0.492436	0.334782
O3	O	1.716594	0.825769	0.668115
O4	O	0.820572	0.178197	-0.014036
O5	O	1.153905	0.511530	0.319298
O6	O	1.487238	0.844863	0.652631
O7	O	0.940540	-0.012980	-0.005933
O8	O	1.273873	0.320353	0.327400
O9	O	1.607207	0.653686	0.660733
O10	O	0.929959	0.350280	-0.006654
O11	O	1.263293	0.683613	0.326679
O12	O	1.596626	1.016946	0.660013
O13	O	0.933936	-0.002501	0.132479
O14	O	1.267270	0.330832	0.465813
O15	O	1.600603	0.664166	0.799146
O16	O	0.813968	0.188676	0.124377
O17	O	1.147301	0.522009	0.457710
O18	O	1.480635	0.855343	0.791044
O19	O	1.043324	0.169582	0.139861
O20	O	1.376658	0.502915	0.473195
O21	O	1.709991	0.836249	0.806528
Zn22	Zn	0.927598	0.180793	0.154095
Zn23	Zn	1.260931	0.514126	0.487429
Zn24	Zn	1.594264	0.847460	0.820762
Zn25	Zn	0.936298	0.166986	-0.028270
Zn26	Zn	1.269632	0.500319	0.305064
Zn27	Zn	1.602965	0.833652	0.638397
O28	O	0.923356	0.360759	0.131759
O29	O	1.256689	0.694092	0.465092
O30	O	1.590022	1.027426	0.798426
C31	C	0.787902	0.182517	0.053188
C32	C	1.121235	0.515850	0.386521
C33	C	1.454569	0.849184	0.719855
C34	C	0.700395	0.179762	0.047280
C35	C	1.033729	0.513096	0.380614
C36	C	1.367062	0.846429	0.713947
C37	C	0.208218	0.163598	0.005870
C38	C	0.541551	0.496931	0.339203
C39	C	0.874884	0.830264	0.672537
C40	C	0.290439	0.166187	0.011432
C41	C	0.623772	0.499520	0.344766
C42	C	0.957106	0.832854	0.678099
C43	C	0.327941	0.173203	0.089663
C44	C	0.661275	0.506537	0.422996
C45	C	0.994608	0.839870	0.756330
C46	C	0.283219	0.177618	0.162336
C47	C	0.616552	0.510951	0.495670
C48	C	0.949885	0.844284	0.829003
C49	C	0.201000	0.175020	0.156773
C50	C	0.534333	0.508353	0.490107
C51	C	0.867666	0.841686	0.823440
C52	C	0.573454	0.181579	0.114391
C53	C	0.906787	0.514912	0.447724
C54	C	1.240120	0.848245	0.781057
C55	C	0.655678	0.184180	0.119948
C56	C	0.989012	0.517514	0.453281
C57	C	1.322345	0.850847	0.786615
C58	C	0.662893	0.172747	-0.030957
C59	C	0.996227	0.506080	0.302377
C60	C	1.329560	0.839414	0.635710
C61	C	0.580672	0.170157	-0.036513
C62	C	0.914005	0.503490	0.296821
C63	C	1.247338	0.836824	0.630154
C64	C	0.535957	0.174565	0.036161
C65	C	0.869290	0.507898	0.369494
C66	C	1.202623	0.841232	0.702827
N67	N	0.411984	0.175854	0.095350
N68	N	0.745318	0.509187	0.428684
N69	N	1.078651	0.842521	0.762017
N70	N	0.451916	0.171905	0.030473
N71	N	0.785249	0.505239	0.363806
N72	N	1.118583	0.838572	0.697139
C73	C	0.936468	-0.054232	0.063220
C74	C	1.269802	0.279101	0.396553
C75	C	1.603135	0.612434	0.729887
C76	C	0.934165	-0.192763	0.063062
C77	C	1.267498	0.140570	0.396395
C78	C	1.600831	0.473903	0.729728
C79	C	1.001293	-0.268431	0.067592
C80	C	1.334626	0.064902	0.400926
C81	C	1.667959	0.398235	0.734259
C82	C	0.998913	-0.411611	0.067429
C83	C	1.332247	-0.078277	0.400762
C84	C	1.665580	0.255056	0.734095
C85	C	1.075994	0.165262	0.072636
C86	C	1.409327	0.498595	0.405969
C87	C	1.742661	0.831928	0.739302
C88	C	1.163501	0.168016	0.078538
C89	C	1.496834	0.501349	0.411871
C90	C	1.830168	0.834683	0.745205
C91	C	0.927428	0.402011	0.062604
C92	C	1.260761	0.735344	0.395937
C93	C	1.594094	1.068678	0.729270
C94	C	0.929732	0.540542	0.062757
C95	C	1.263065	0.873875	0.396090
C96	C	1.596398	1.207208	0.729423
N97	N	0.921665	0.190215	0.278555
N98	N	1.254999	0.523549	0.611888
N99	N	1.588332	0.856882	0.945222
N100	N	0.942237	0.157554	-0.152729
N101	N	1.275570	0.490887	0.180604
N102	N	1.608903	0.824220	0.513938
C103	C	0.972731	0.108898	0.325698
C104	C	1.306064	0.442231	0.659031
C105	C	1.639398	0.775565	0.992364
C106	C	0.968589	0.115501	0.412825
C107	C	1.301922	0.448834	0.746158
C108	C	1.635256	0.782168	1.079491
C109	C	0.913384	0.203428	0.452808
C110	C	1.246718	0.536761	0.786141
C111	C	1.580051	0.870094	1.119474
C112	C	0.862313	0.284748	0.405658
C113	C	1.195647	0.618082	0.738992
C114	C	1.528980	0.951415	1.072325
C115	C	0.866452	0.278139	0.318533
C116	C	1.199785	0.611472	0.651866
C117	C	1.533119	0.944805	0.985199
C118	C	0.895304	0.232265	0.712996
C119	C	1.228638	0.565598	1.046329
C120	C	1.561971	0.898931	1.379663
C121	C	0.891171	0.238871	0.800128
C122	C	1.224504	0.572204	1.133462
C123	C	1.557837	0.905537	1.466795
C124	C	0.997446	0.069621	0.807289
C125	C	1.330779	0.402954	1.140622
C126	C	1.664113	0.736288	1.473955
C127	C	1.001583	0.063024	0.720161
C128	C	1.334917	0.396357	1.053494
C129	C	1.668250	0.729691	1.386828
C130	C	0.950510	0.144340	0.673019
C131	C	1.283843	0.477673	1.006353
C132	C	1.617176	0.811007	1.339686
N133	N	0.909151	0.210182	0.541865
N134	N	1.242484	0.543515	0.875199
N135	N	1.575817	0.876848	1.208532
N136	N	0.954740	0.137579	0.583963
N137	N	1.288073	0.470913	0.917296
N138	N	1.621407	0.804246	1.250630
H139	H	0.326845	0.162582	-0.047742
H140	H	0.660178	0.495915	0.285592
H141	H	0.993511	0.829248	0.618925
Cl142	Cl	0.144785	0.180563	0.248131
Cl143	Cl	0.478118	0.513896	0.581465
Cl144	Cl	0.811451	0.847229	0.914798
H145	H	1.039027	0.003416	0.845679
H146	H	1.372361	0.336749	1.179013
H147	H	1.705694	0.670082	1.512346
H148	H	1.060525	-0.227213	0.071596
H149	H	1.393858	0.106120	0.404930
H150	H	1.727192	0.439454	0.738263
H151	H	0.824868	0.344354	0.280149
H152	H	1.158201	0.677687	0.613483
H153	H	1.491535	1.011021	0.946816
H154	H	0.853719	0.298478	0.674620
H155	H	1.187053	0.631811	1.007953
H156	H	1.520386	0.965144	1.341287
Cl157	Cl	1.087643	-0.511988	0.073424
Cl158	Cl	1.420976	-0.178655	0.406757
Cl159	Cl	1.754309	0.154678	0.740091
Cl160	Cl	1.042139	-0.001639	0.275443
Cl161	Cl	1.375472	0.331695	0.608777
Cl162	Cl	1.708806	0.665028	0.942110
H163	H	0.872261	-0.394446	0.058883
H164	H	1.205594	-0.061113	0.392217
H165	H	1.538928	0.272220	0.725550
Cl166	Cl	1.070985	-0.047512	0.669897
Cl167	Cl	1.404318	0.285821	1.003230
Cl168	Cl	1.737652	0.619155	1.336564
H169	H	0.817360	0.356336	0.438217
H170	H	1.150694	0.689670	0.771550
H171	H	1.484027	1.023003	1.104884
H172	H	0.550143	0.164442	-0.100216
H173	H	0.883477	0.497775	0.233117
H174	H	1.216810	0.831109	0.566450
H175	H	0.699309	0.169157	-0.090123
H176	H	1.032642	0.502490	0.243210
H177	H	1.365976	0.835823	0.576544
H178	H	0.874933	-0.233981	0.059057
H179	H	1.208266	0.099352	0.392391
H180	H	1.541599	0.432685	0.725724
Cl181	Cl	0.517249	0.187154	0.205752
Cl182	Cl	0.850582	0.520488	0.539086
Cl183	Cl	1.183915	0.853821	0.872419
Cl184	Cl	1.032786	0.013271	0.472091
Cl185	Cl	1.366119	0.346604	0.805425
Cl186	Cl	1.699453	0.679938	1.138758
H187	H	0.313760	0.183323	0.226033
H188	H	0.647094	0.516656	0.559367
H189	H	0.980427	0.849989	0.892700
Cl190	Cl	0.821765	0.349420	0.850386
Cl191	Cl	1.155098	0.682754	1.183720
Cl192	Cl	1.488432	1.016087	1.517053
H193	H	0.686209	0.189903	0.183656
H194	H	1.019543	0.523236	0.516990
H195	H	1.352876	0.856569	0.850323
H196	H	0.177689	0.157893	-0.057834
H197	H	0.511022	0.491227	0.275499
H198	H	0.844356	0.824560	0.608833
