data_functionalizedCrystal
_audit_creation_method	'MofGen! by Chris Wilmer'
_symmetry_space_group_name_H-M	'P1'
_symmetry_Int_Tables_number	1
_symmetry_cell_setting	triclinic
loop_
_symmetry_equiv_pos_as_xyz
  x,y,z
_cell_length_a	10.540539
_cell_length_b	15.995350
_cell_length_c	9.616153
_cell_angle_alpha	89.999971
_cell_angle_beta	89.995174
_cell_angle_gamma	84.008933
loop_
_atom_site_label
_atom_site_type_symbol
_atom_site_fract_x
_atom_site_fract_y
_atom_site_fract_z
O1	O	1.684270	0.117994	-0.115573
O2	O	1.314705	0.129112	-0.115589
O3	O	1.509590	0.001726	-0.115579
O4	O	1.489385	0.245380	-0.115583
O5	O	1.509563	0.001729	0.115712
O6	O	1.314678	0.129115	0.115702
O7	O	1.684244	0.117997	0.115719
Zn8	Zn	1.499457	0.123556	0.152433
Zn9	Zn	1.499492	0.123553	-0.152303
O10	O	1.489359	0.245383	0.115709
C11	C	1.267400	0.128280	0.000055
C12	C	1.126486	0.125785	0.000048
C13	C	0.944373	0.030202	0.000589
C14	C	1.090956	0.032730	0.000054
C15	C	1.064213	0.170565	-0.132026
C16	C	0.917712	0.167390	-0.132122
C17	C	0.917167	0.169286	0.130899
C18	C	1.064138	0.170143	0.132630
C19	C	1.508741	-0.029472	0.000064
C20	C	1.506237	-0.122438	0.000056
C21	C	1.497244	-0.460239	0.000060
C22	C	1.358450	-0.413635	-0.000465
C23	C	1.360955	-0.316930	0.000057
C24	C	1.501705	-0.292652	0.000057
C25	C	1.570147	-0.333318	0.132137
C26	C	1.566661	-0.429975	0.132247
C27	C	1.569558	-0.430319	-0.130774
C28	C	1.569525	-0.333374	-0.132520
C29	C	1.504233	-0.197939	0.000060
C30	C	1.494719	-0.554952	0.000067
C31	C	1.731549	0.118829	0.000072
C32	C	1.872462	0.121324	0.000070
C33	C	1.490207	0.276581	0.000063
C34	C	1.492711	0.369547	0.000062
N35	N	1.499442	0.123558	0.360408
N36	N	1.499517	0.123544	-0.360278
C37	C	1.394879	0.191473	0.580772
C38	C	1.395104	0.191727	0.419605
C39	C	1.631892	0.143433	0.418863
C40	C	1.631321	0.143914	0.580081
C41	C	1.472879	0.035546	0.580319
C42	C	1.469825	0.036116	0.419092
H43	H	0.886024	0.139172	0.231011
H44	H	1.516730	-0.448574	0.230978
H45	H	1.107240	0.139456	-0.230318
N46	N	0.907142	-0.018489	0.126050
H47	H	0.867758	-0.070203	0.094536
H48	H	0.985461	-0.035874	0.183860
H49	H	1.711608	0.095309	0.380514
H50	H	1.302987	-0.432500	-0.095181
N51	N	0.905016	-0.018306	-0.124142
H52	H	0.840811	0.018488	-0.180986
H53	H	0.982486	-0.036113	-0.183037
N54	N	1.146913	-0.014274	-0.125573
H55	H	1.109087	0.013084	-0.212952
H56	H	1.242472	-0.012820	-0.126322
H57	H	1.711616	0.096432	0.619073
N58	N	1.701630	-0.471892	0.140195
H59	H	1.763125	-0.427558	0.143619
H60	H	1.711778	-0.507716	0.226766
H61	H	1.411654	0.256390	0.621271
H62	H	1.378403	0.016630	0.621052
N63	N	1.264051	0.175882	0.632174
H64	H	1.225698	0.226328	0.686579
H65	H	1.207563	0.166214	0.550141
N66	N	1.509477	-0.457886	-0.263385
H67	H	1.434765	-0.490055	-0.239988
H68	H	1.478907	-0.406814	-0.320699
H69	H	1.105538	0.137429	0.230339
N70	N	1.564215	-0.034063	0.365747
H71	H	1.627799	-0.010062	0.302501
H72	H	1.610582	-0.063427	0.446860
N73	N	0.880949	0.123546	-0.262889
H74	H	0.959875	0.106459	-0.319927
H75	H	0.838574	0.071903	-0.237171
H76	H	1.549186	-0.015013	0.618439
H77	H	1.519485	-0.306426	-0.230229
N78	N	1.707113	-0.313781	0.138665
H79	H	1.749244	-0.340537	0.224377
H80	H	1.754027	-0.336821	0.053052
H81	H	1.087430	0.237986	0.140604
H82	H	0.869017	0.236498	0.131791
N83	N	1.417379	0.278282	0.368647
H84	H	1.502319	0.293253	0.404119
H85	H	1.417491	0.278858	0.263624
N86	N	1.507176	-0.296094	0.262339
H87	H	1.434326	-0.252900	0.236069
H88	H	1.473475	-0.342156	0.318954
N89	N	1.289688	-0.279700	-0.125350
H90	H	1.256358	-0.326107	-0.181469
H91	H	1.215872	-0.238785	-0.093696
N92	N	1.289202	-0.280442	0.125689
H93	H	1.290530	-0.217399	0.126550
H94	H	1.198016	-0.294400	0.121552
N95	N	1.092588	0.261082	-0.138558
H96	H	1.140622	0.270710	-0.227033
H97	H	1.009896	0.299158	-0.137197
H98	H	1.672167	-0.317398	-0.140494
H99	H	1.671890	-0.461468	-0.131661
H100	H	1.134043	-0.002504	0.094731
H101	H	0.868824	0.234313	-0.138118
H102	H	1.303211	-0.433558	0.093720
H103	H	1.654793	0.208115	0.617669
N104	N	1.264688	0.175894	0.367261
H105	H	1.199079	0.221528	0.402444
H106	H	1.264691	0.176013	0.262234
N107	N	1.663731	0.227511	0.365367
H108	H	1.592554	0.252841	0.303281
H109	H	1.674128	0.266321	0.446481
H110	H	1.372394	0.021051	0.380888
