data_functionalizedCrystal
_audit_creation_method	'MofGen! by Chris Wilmer'
_symmetry_space_group_name_H-M	'P1'
_symmetry_Int_Tables_number	1
_symmetry_cell_setting	triclinic
loop_
_symmetry_equiv_pos_as_xyz
  x,y,z
_cell_length_a	12.827892
_cell_length_b	12.759395
_cell_length_c	12.827885
_cell_angle_alpha	89.980613
_cell_angle_beta	89.970214
_cell_angle_gamma	90.016153
loop_
_atom_site_label
_atom_site_type_symbol
_atom_site_fract_x
_atom_site_fract_y
_atom_site_fract_z
Zn1	Zn	-0.415961	1.606247	-0.590852
Zn2	Zn	-0.590739	1.606140	-0.416112
Zn3	Zn	-0.416014	1.430550	-0.416125
Zn4	Zn	-0.590663	1.430535	-0.590812
O5	O	-0.503344	1.518368	-0.503475
O6	O	-0.439155	1.753254	-0.567684
O7	O	-0.567615	1.582809	-0.269878
O8	O	-0.269771	1.453907	-0.439325
O9	O	-0.567563	1.753175	-0.439303
O10	O	-0.269732	1.582991	-0.567696
O11	O	-0.439246	1.453804	-0.269887
O12	O	-0.439173	1.283527	-0.439286
O13	O	-0.567435	1.453882	-0.737053
O14	O	-0.567486	1.283516	-0.567628
O15	O	-0.439082	1.582976	-0.737083
O16	O	-0.736965	1.582795	-0.439264
O17	O	-0.736909	1.453779	-0.567615
C18	C	-0.503328	1.245400	-0.503455
C19	C	-0.503346	1.128624	-0.503471
C20	C	-0.369874	0.909270	-0.637404
C21	C	-0.303115	0.964177	-0.704341
C22	C	-0.303097	1.073899	-0.704323
C23	C	-0.369847	1.128716	-0.637363
C24	C	-0.436606	1.073809	-0.570426
C25	C	-0.436614	0.964085	-0.570449
C26	C	-0.570105	1.073717	-0.436534
C27	C	-0.570119	0.963995	-0.436545
C28	C	-0.636855	1.128534	-0.369574
C29	C	-0.703609	1.073627	-0.302630
C30	C	-0.703624	0.963899	-0.302650
C31	C	-0.636877	0.909088	-0.369608
C32	C	-0.774854	1.518302	-0.503457
C33	C	-0.891007	1.518370	-0.503484
C34	C	-0.942785	1.582287	-0.440042
C35	C	-1.062835	1.582359	-0.440069
C36	C	-0.230774	1.518463	-0.503517
C37	C	-0.114621	1.518503	-0.503534
C38	C	-0.503244	1.518439	-0.776046
C39	C	-0.503201	1.518470	-0.892199
C40	C	-0.503362	1.792401	-0.503496
C41	C	-0.503369	1.909178	-0.503505
C42	C	-0.439676	1.582357	-0.943998
C43	C	-0.439630	1.582390	-1.064049
C44	C	-0.503369	1.518357	-0.231965
C45	C	-0.503117	1.518530	-0.115813
H46	H	-0.248738	1.118604	-0.758830
H47	H	-1.070101	1.463774	-0.557848
H48	H	-0.557547	1.463792	-0.936728
O49	O	-0.367675	1.654777	-0.885021
H50	H	-0.321128	1.701576	-0.941226
O51	O	-0.369843	1.247059	-0.637345
H52	H	-0.348632	1.275951	-0.558555
H53	H	-0.636842	1.217875	-0.369570
H54	H	-0.757957	1.118268	-0.248122
O55	O	-0.775623	0.904677	-0.230448
H56	H	-0.822023	0.961232	-0.183883
O57	O	-0.636893	0.790745	-0.369623
H58	H	-0.658117	0.761853	-0.448411
O59	O	-0.883792	1.654731	-0.368086
H60	H	-0.798757	1.643313	-0.379363
H61	H	-0.935555	1.463706	-0.557822
O62	O	-1.121803	1.654870	-0.368134
H63	H	-1.206841	1.643562	-0.379457
H64	H	-0.385247	1.637089	-1.108595
O65	O	-0.575148	1.446046	-1.056831
H66	H	-0.657183	1.464008	-1.077699
O67	O	-0.369890	0.790928	-0.637416
H68	H	-0.312266	0.762034	-0.695223
H69	H	-0.248771	0.919533	-0.758861
