data_functionalizedCrystal
_audit_creation_method	'MofGen! by Chris Wilmer'
_symmetry_space_group_name_H-M	'P1'
_symmetry_Int_Tables_number	1
_symmetry_cell_setting	triclinic
loop_
_symmetry_equiv_pos_as_xyz
  x,y,z
_cell_length_a	17.699083
_cell_length_b	14.971486
_cell_length_c	16.776229
_cell_angle_alpha	90.003623
_cell_angle_beta	89.999727
_cell_angle_gamma	83.448572
loop_
_atom_site_label
_atom_site_type_symbol
_atom_site_fract_x
_atom_site_fract_y
_atom_site_fract_z
O1	O	-1.004356	-0.113109	-0.066177
O2	O	-0.784014	-0.127825	-0.066203
O3	O	-0.900090	0.009754	-0.066184
O4	O	-0.888279	-0.250687	-0.066196
O5	O	-0.900077	0.009754	0.066393
O6	O	-0.784000	-0.127824	0.066374
O7	O	-1.004343	-0.113108	0.066400
Zn8	Zn	-0.894169	-0.120466	0.087436
Zn9	Zn	-0.894187	-0.120467	-0.087239
O10	O	-0.888266	-0.250687	0.066380
C11	C	-0.755809	-0.127297	0.000082
C12	C	-0.671787	-0.125715	0.000072
C13	C	-0.899556	0.043077	0.000104
C14	C	-0.897973	0.142368	0.000104
C15	C	-1.032547	-0.113636	0.000113
C16	C	-1.116569	-0.115218	0.000118
C17	C	-0.623365	-0.206471	0.000068
C18	C	-0.544418	-0.204979	0.000079
C19	C	-0.513894	-0.122731	0.000087
C20	C	-0.562323	-0.041969	0.000093
C21	C	-0.641268	-0.043462	0.000089
C22	C	-0.243945	-0.035947	0.000113
C23	C	-0.164993	-0.034461	0.000116
C24	C	-0.147094	-0.197465	0.000103
C25	C	-0.226040	-0.198958	0.000099
C26	C	-0.274461	-0.118196	0.000109
C27	C	-0.360064	-0.119815	0.000099
C28	C	-0.428293	-0.121111	0.000091
C29	C	-0.888801	-0.284010	0.000091
C30	C	-0.890383	-0.383301	0.000086
N31	N	-0.894163	-0.120465	0.206647
C32	C	-0.966165	0.199828	0.000112
C33	C	-0.964673	0.293123	0.000104
C34	C	-0.894988	0.328955	0.000093
C35	C	-0.826791	0.271488	0.000082
C36	C	-0.828284	0.178196	0.000084
C37	C	-0.823685	0.465940	0.000079
C38	C	-0.822192	0.559239	0.000078
C39	C	-0.960074	0.580867	0.000098
C40	C	-0.961566	0.487574	0.000101
C41	C	-0.893369	0.430114	0.000091
N42	N	-0.894199	-0.120460	-0.206451
C43	C	-0.940111	-0.174649	0.248364
C44	C	-0.940120	-0.174645	0.331816
C45	C	-0.894175	-0.120463	0.373550
C46	C	-0.848225	-0.066273	0.331828
C47	C	-0.848221	-0.066272	0.248377
C48	C	-0.848240	-0.066274	0.668375
C49	C	-0.848246	-0.066281	0.751831
C50	C	-0.940139	-0.174647	0.751814
C51	C	-0.940135	-0.174646	0.668363
C52	C	-0.894188	-0.120454	0.626648
C53	C	-0.894181	-0.120457	0.536160
C54	C	-0.894178	-0.120464	0.464037
H55	H	-0.648210	-0.273447	0.000061
H56	H	-0.768151	0.419157	0.000069
Br57	Br	-0.785874	0.007265	0.388466
Br58	Br	-0.785871	0.007278	0.191760
Br59	Br	-0.309650	0.073658	0.000129
H60	H	-0.977537	-0.218765	0.365778
H61	H	-0.770052	0.300671	0.000068
H62	H	-0.250887	-0.265933	0.000088
H63	H	-0.977545	-0.218771	0.634387
H64	H	-0.977553	-0.218771	0.785788
H65	H	-0.504995	-0.270739	0.000075
Br66	Br	-0.081375	-0.307072	0.000090
H67	H	-0.140145	0.032519	0.000124
H68	H	-0.810831	-0.022156	0.785809
H69	H	-0.537465	0.024999	0.000112
H70	H	-1.018310	0.458403	0.000116
Br71	Br	-0.727619	0.607869	0.000066
H72	H	-0.810828	-0.022147	0.634420
Br73	Br	-1.060742	0.151208	0.000139
H74	H	-0.680693	0.022298	0.000091
H75	H	-1.015603	0.627656	0.000104
Br76	Br	-1.057223	0.371101	0.000116
H77	H	-0.772754	0.131412	0.000077
H78	H	-0.977520	-0.218776	0.214390
