data_functionalizedCrystal
_audit_creation_method	'MofGen! by Chris Wilmer'
_symmetry_space_group_name_H-M	'P1'
_symmetry_Int_Tables_number	1
_symmetry_cell_setting	triclinic
loop_
_symmetry_equiv_pos_as_xyz
  x,y,z
_cell_length_a	15.944493
_cell_length_b	15.944493
_cell_length_c	9.016244
_cell_angle_alpha	90.003635
_cell_angle_beta	89.993227
_cell_angle_gamma	83.475044
loop_
_atom_site_label
_atom_site_type_symbol
_atom_site_fract_x
_atom_site_fract_y
_atom_site_fract_z
O1	O	1.114536	0.108100	-0.123301
O2	O	0.869977	0.121507	-0.123306
O3	O	0.998960	-0.007476	-0.123316
O4	O	0.985553	0.237083	-0.123291
O5	O	0.998941	-0.007473	0.123365
O6	O	0.869958	0.121510	0.123375
O7	O	1.114517	0.108103	0.123380
Cu8	Cu	0.992236	0.114807	0.145901
Cu9	Cu	0.992258	0.114803	-0.145827
O10	O	0.985534	0.237086	0.123390
C11	C	0.838673	0.120961	0.000034
C12	C	0.745424	0.119318	0.000031
C13	C	0.509649	0.195240	0.000037
C14	C	0.459090	0.154300	0.121666
C15	C	0.574704	0.116273	0.000033
C16	C	0.459113	0.154278	-0.121542
C17	C	0.409795	0.113339	0.000029
C18	C	0.525373	0.075354	0.121762
C19	C	0.525400	0.075344	-0.121555
C20	C	0.474873	0.034346	0.000104
C21	C	0.669704	0.117966	0.000037
C22	C	0.314798	0.111640	0.000036
C23	C	0.998403	-0.038769	0.000018
C24	C	0.996760	-0.132018	-0.000001
C25	C	1.072682	-0.367793	0.000029
C26	C	1.031749	-0.418354	-0.121597
C27	C	0.993716	-0.302738	0.000018
C28	C	1.031712	-0.418328	0.121610
C29	C	0.990781	-0.467647	0.000042
C30	C	0.952804	-0.352071	-0.121709
C31	C	0.952779	-0.352041	0.121608
C32	C	0.911788	-0.402569	-0.000048
C33	C	0.995408	-0.207739	0.000003
C34	C	0.989082	-0.562644	0.000046
C35	C	1.145821	0.108649	0.000037
C36	C	1.239069	0.110292	0.000030
C37	C	0.986091	0.268379	0.000052
C38	C	0.987734	0.361627	0.000061
N39	N	0.992226	0.114809	0.351087
N40	N	0.992274	0.114794	-0.351014
C41	C	0.923021	0.183579	0.586125
C42	C	0.923170	0.183832	0.414234
C43	C	1.079871	0.133940	0.413430
C44	C	1.079492	0.134426	0.585375
C45	C	0.974661	0.026676	0.585622
C46	C	0.972641	0.027267	0.413667
H47	H	0.554200	0.042027	0.224692
N48	N	0.454401	-0.055821	0.000172
H49	H	0.478747	-0.085536	0.092074
H50	H	0.391128	-0.056391	-0.000752
N51	N	1.075924	-0.456717	-0.257801
H52	H	1.097598	-0.410756	-0.319162
H53	H	1.124822	-0.498900	-0.226649
N54	N	0.420735	0.198479	0.257870
H55	H	0.357640	0.196545	0.257354
H56	H	0.445840	0.169251	0.349656
N57	N	0.563771	0.031216	-0.257782
H58	H	0.626991	0.032195	-0.256258
H59	H	0.550424	-0.029204	-0.258691
H60	H	0.843715	-0.418021	-0.000116
H61	H	0.919451	-0.323072	0.224438
N62	N	0.420686	0.198493	-0.257634
H63	H	0.433015	0.259241	-0.257481
H64	H	0.445691	0.169281	-0.349527
N65	N	1.162781	-0.347111	-0.000126
H66	H	1.172892	-0.312705	-0.091116
H67	H	1.173229	-0.313644	0.091825
N68	N	1.035115	-0.043711	0.356757
H69	H	1.004158	-0.085184	0.299665
H70	H	1.077168	-0.019947	0.289367
H71	H	1.095015	0.198689	0.625471
N72	N	1.041550	-0.041125	0.639492
H73	H	1.014126	-0.084510	0.698352
H74	H	1.072254	-0.069286	0.551542
H75	H	0.919482	-0.323245	-0.224645
H76	H	1.065070	-0.447264	0.224430
N77	N	0.836877	0.168740	0.358390
H78	H	0.798397	0.161863	0.445471
H79	H	0.812728	0.218442	0.296340
H80	H	0.857667	0.172368	0.627516
H81	H	0.934112	0.248602	0.629325
N82	N	0.938016	0.270497	0.359898
H83	H	0.991090	0.266168	0.297887
H84	H	0.888364	0.294765	0.297844
N85	N	1.149773	0.070563	0.640467
H86	H	1.180868	0.042225	0.553053
H87	H	1.190246	0.100054	0.702563
N88	N	1.149762	0.069346	0.359262
H89	H	1.125224	0.026961	0.293628
H90	H	1.192041	0.098607	0.300941
N91	N	0.887242	0.008002	0.359743
H92	H	0.849254	0.001417	0.447625
H93	H	0.861387	0.055791	0.295001
H94	H	1.095760	0.197472	0.370359
H95	H	0.525258	0.263261	0.000158
H96	H	0.912144	0.008276	0.629066
