data_functionalizedCrystal
_audit_creation_method	'MofGen! by Chris Wilmer'
_symmetry_space_group_name_H-M	'P1'
_symmetry_Int_Tables_number	1
_symmetry_cell_setting	triclinic
loop_
_symmetry_equiv_pos_as_xyz
  x,y,z
_cell_length_a	12.759401
_cell_length_b	12.759400
_cell_length_c	18.215399
_cell_angle_alpha	89.975454
_cell_angle_beta	89.982533
_cell_angle_gamma	90.014356
loop_
_atom_site_label
_atom_site_type_symbol
_atom_site_fract_x
_atom_site_fract_y
_atom_site_fract_z
Zn1	Zn	1.606235	-0.418286	-0.416087
Zn2	Zn	1.606135	-0.593984	-0.293028
Zn3	Zn	1.430543	-0.418318	-0.293039
Zn4	Zn	1.430525	-0.593923	-0.416058
O5	O	1.518360	-0.506128	-0.354553
O6	O	1.753243	-0.441605	-0.399770
O7	O	1.582808	-0.570720	-0.190045
O8	O	1.453898	-0.271293	-0.309379
O9	O	1.753169	-0.570689	-0.309359
O10	O	1.582978	-0.271269	-0.399781
O11	O	1.453801	-0.441660	-0.190053
O12	O	1.283520	-0.441601	-0.309351
O13	O	1.453868	-0.570585	-0.519046
O14	O	1.283507	-0.570616	-0.399732
O15	O	1.582961	-0.441546	-0.519067
O16	O	1.582791	-0.740997	-0.309331
O17	O	1.453772	-0.740952	-0.399721
C18	C	1.245392	-0.506106	-0.354540
C19	C	1.128616	-0.506122	-0.354552
C20	C	0.963992	-0.573255	-0.307424
C21	C	1.073716	-0.573234	-0.307412
C22	C	1.073785	-0.439020	-0.401702
C23	C	0.964063	-0.439036	-0.401710
C24	C	0.909099	-0.640378	-0.260287
C25	C	0.963921	-0.707480	-0.213135
C26	C	1.073646	-0.707458	-0.213123
C27	C	1.128547	-0.640336	-0.260262
C28	C	1.518297	-0.779095	-0.354538
C29	C	1.518367	-0.895872	-0.354556
C30	C	1.585622	-0.950722	-0.307542
C31	C	1.585686	-1.060446	-0.307565
C32	C	1.451232	-1.060460	-0.401617
C33	C	1.451173	-0.950738	-0.401597
C34	C	1.652815	-0.895856	-0.260500
C35	C	1.720075	-0.950707	-0.213482
C36	C	1.720140	-1.060431	-0.213505
C37	C	1.652944	-1.115304	-0.260545
C38	C	1.792393	-0.506150	-0.354567
C39	C	1.909169	-0.506160	-0.354572
C40	C	1.518424	-0.506055	-0.546506
C41	C	1.518451	-0.506024	-0.628305
C42	C	1.518451	-0.232094	-0.354584
C43	C	1.518490	-0.115318	-0.354598
C44	C	1.585694	-0.438771	-0.816511
C45	C	1.585706	-0.438740	-0.893370
C46	C	1.451282	-0.573116	-0.893337
C47	C	1.451265	-0.573140	-0.816479
C48	C	1.518477	-0.505969	-0.778068
C49	C	1.518506	-0.505914	-0.931785
C50	C	1.518520	-0.505881	-1.015118
C51	C	1.518463	-0.506000	-0.694729
C52	C	1.518356	-0.506124	-0.163347
C53	C	1.518533	-0.505859	-0.081548
H54	H	1.118279	-0.762088	-0.174725
H55	H	1.640419	-0.384073	-0.785239
H56	H	1.396524	-1.105146	-0.439915
H57	H	0.919214	-0.762123	-0.174753
C58	C	1.249241	-0.640314	-0.260247
H59	H	1.274031	-0.689890	-0.225418
H60	H	1.274063	-0.572489	-0.247602
H61	H	1.274087	-0.658574	-0.307717
H62	H	1.640439	-0.384019	-0.924667
C63	C	1.377365	-0.647007	-0.935591
H64	H	1.387009	-0.637377	-0.986870
H65	H	1.306775	-0.631636	-0.922991
H66	H	1.392727	-0.717604	-0.922984
C67	C	1.793990	-0.890356	-0.161743
H68	H	1.834062	-0.938741	-0.133752
H69	H	1.753804	-0.847618	-0.129644
H70	H	1.839724	-0.847489	-0.189919
H71	H	1.774913	-1.105087	-0.175225
H72	H	1.396522	-0.627860	-0.785178
C73	C	0.903749	-0.365236	-0.453571
H74	H	0.830541	-0.374853	-0.446817
H75	H	0.921754	-0.380693	-0.502999
H76	H	0.921731	-0.294620	-0.442876
C77	C	1.652751	-0.775164	-0.260476
H78	H	1.702405	-0.750342	-0.225731
H79	H	1.584948	-0.750409	-0.247709
H80	H	1.670880	-0.750283	-0.307975
C81	C	1.653017	-1.235998	-0.260576
H82	H	1.603369	-1.260820	-0.295325
H83	H	1.634905	-1.260887	-0.213080
H84	H	1.720824	-1.260746	-0.273355
C85	C	1.134174	-0.365203	-0.453556
H86	H	1.207372	-0.374811	-0.446804
H87	H	1.116197	-0.294593	-0.442877
H88	H	1.116218	-0.380684	-0.502988
C89	C	0.788407	-0.640401	-0.260296
H90	H	0.763564	-0.689980	-0.225468
H91	H	0.763613	-0.658653	-0.307769
H92	H	0.763584	-0.572581	-0.247645
C93	C	1.377199	-0.890398	-0.453315
H94	H	1.337181	-0.938787	-0.481328
H95	H	1.417349	-0.847536	-0.485393
H96	H	1.331417	-0.847656	-0.425127
