data_functionalizedCrystal
_audit_creation_method	'MofGen! by Chris Wilmer'
_symmetry_space_group_name_H-M	'P1'
_symmetry_Int_Tables_number	1
_symmetry_cell_setting	triclinic
loop_
_symmetry_equiv_pos_as_xyz
  x,y,z
_cell_length_a	14.044220
_cell_length_b	14.044220
_cell_length_c	13.930277
_cell_angle_alpha	90.002434
_cell_angle_beta	89.996044
_cell_angle_gamma	93.188878
loop_
_atom_site_label
_atom_site_type_symbol
_atom_site_fract_x
_atom_site_fract_y
_atom_site_fract_z
O1	O	-0.230154	-1.277171	-0.079733
O2	O	-0.221849	-1.000500	-0.079757
O3	O	-0.087666	-1.134683	-0.079736
O4	O	-0.364337	-1.142988	-0.079754
O5	O	-0.087686	-1.134663	0.079926
O6	O	-0.221869	-1.000480	0.079905
O7	O	-0.230175	-1.277152	0.079929
Zn8	Zn	-0.226025	-1.138813	0.105267
Zn9	Zn	-0.225998	-1.138839	-0.105094
O10	O	-0.364358	-1.142969	0.079908
C11	C	-0.052054	-1.131037	0.000095
C12	C	0.054088	-1.120193	0.000096
C13	C	-0.218223	-0.964868	0.000071
C14	C	-0.207379	-0.858725	0.000062
C15	C	-0.399969	-1.146614	0.000075
C16	C	-0.506112	-1.157459	0.000068
C17	C	0.248426	-1.100366	0.000080
C18	C	0.299556	-1.177281	0.000084
C19	C	0.407692	-1.166249	0.000075
C20	C	0.140280	-1.111397	0.000089
C21	C	-0.233800	-1.312783	0.000099
C22	C	-0.244645	-1.418926	0.000102
N23	N	-0.226044	-1.138802	0.248833
C24	C	-0.187553	-0.664388	0.000083
C25	C	-0.264467	-0.613258	0.000082
C26	C	-0.253435	-0.505122	0.000093
C27	C	-0.198583	-0.772534	0.000071
N28	N	-0.225973	-1.138856	-0.248660
C29	C	-0.288815	-1.201648	0.701094
C30	C	-0.163145	-1.076055	0.701080
C31	C	-0.163159	-1.076042	0.600585
C32	C	-0.226001	-1.138834	0.550339
C33	C	-0.288829	-1.201639	0.600588
C34	C	-0.100326	-1.013245	0.550328
C35	C	-0.100337	-1.013230	0.449826
C36	C	-0.163185	-1.076018	0.399578
C37	C	-0.226016	-1.138825	0.449834
C38	C	-0.288858	-1.201616	0.399588
C39	C	-0.351694	-1.264419	0.449842
C40	C	-0.351677	-1.264427	0.550341
C41	C	-0.163202	-1.076010	0.299079
C42	C	-0.288872	-1.201607	0.299083
H43	H	0.262117	-1.251414	0.000026
C44	C	-0.037811	-0.640315	-0.081995
C45	C	-0.087478	-0.613855	0.000084
H46	H	0.023971	-0.609114	-0.081993
H47	H	-0.071513	-0.622369	-0.137659
H48	H	-0.032195	-0.707410	-0.081988
H49	H	-0.093101	-0.546761	0.000074
H50	H	-0.053768	-0.631796	0.055762
H51	H	-0.338600	-0.650697	0.000072
H52	H	0.285863	-1.026239	0.000071
H53	H	-0.340050	-1.252736	0.258179
H54	H	-0.049156	-0.962131	0.591245
H55	H	-0.402856	-1.315548	0.408918
H56	H	-0.339977	-1.252778	0.742015
C57	C	-0.407442	-1.320214	0.704403
C58	C	-0.420734	-1.333462	0.605582
H59	H	-0.450070	-1.362839	0.738506
H60	H	-0.419621	-1.256401	0.720881
H61	H	-0.343622	-1.332434	0.720841
H62	H	-0.484553	-1.321235	0.589142
H63	H	-0.408563	-1.397290	0.589097
C64	C	0.023880	-0.889078	0.459919
C65	C	-0.031278	-0.944190	0.394591
H66	H	0.066507	-0.846451	0.425816
H67	H	0.059269	-0.929713	0.499096
H68	H	-0.016731	-0.853682	0.499138
H69	H	0.009333	-0.979593	0.355376
H70	H	-0.066670	-0.903551	0.355398
C71	C	-0.034301	-1.059199	0.186037
C72	C	-0.094135	-1.006987	0.243842
H73	H	0.008344	-1.016582	0.151943
H74	H	-0.071732	-1.096578	0.141733
H75	H	0.001078	-1.099835	0.225239
H76	H	-0.129519	-0.966356	0.204640
H77	H	-0.056699	-0.969592	0.288152
H78	H	-0.111976	-1.024939	0.741997
