data_functionalizedCrystal
_audit_creation_method	'MofGen! by Chris Wilmer'
_symmetry_space_group_name_H-M	'P1'
_symmetry_Int_Tables_number	1
_symmetry_cell_setting	triclinic
loop_
_symmetry_equiv_pos_as_xyz
  x,y,z
_cell_length_a	19.077068
_cell_length_b	18.215407
_cell_length_c	18.215399
_cell_angle_alpha	89.980167
_cell_angle_beta	92.268164
_cell_angle_gamma	92.327501
loop_
_atom_site_label
_atom_site_type_symbol
_atom_site_fract_x
_atom_site_fract_y
_atom_site_fract_z
Zn1	Zn	-0.280200	1.113288	-0.427869
Zn2	Zn	0.219800	1.613288	0.072131
Zn3	Zn	-0.397902	1.108246	-0.309739
Zn4	Zn	0.102098	1.608246	0.190261
Zn5	Zn	-0.280223	0.990220	-0.304817
Zn6	Zn	0.219777	1.490220	0.195183
Zn7	Zn	-0.397863	0.985238	-0.432763
Zn8	Zn	0.102137	1.485238	0.067237
O9	O	-0.339047	1.049248	-0.368797
O10	O	0.160953	1.549248	0.131203
O11	O	-0.295821	1.215603	-0.412210
O12	O	0.204179	1.715603	0.087790
O13	O	-0.382318	1.092565	-0.206103
O14	O	0.117682	1.592565	0.293897
O15	O	-0.181729	1.010740	-0.317032
O16	O	0.318271	1.510740	0.182968
O17	O	-0.382295	1.211899	-0.325421
O18	O	0.117705	1.711899	0.174579
O19	O	-0.181712	1.101157	-0.407437
O20	O	0.318288	1.601157	0.092563
O21	O	-0.295860	1.005851	-0.202487
O22	O	0.204140	1.505851	0.297513
O23	O	-0.295822	0.886575	-0.321777
O24	O	0.204178	1.386575	0.178223
O25	O	-0.382229	1.002249	-0.535097
O26	O	0.117771	1.502249	-0.035097
O27	O	-0.382251	0.882915	-0.415778
O28	O	0.117749	1.382915	0.084222
O29	O	-0.295783	1.096327	-0.531501
O30	O	0.204217	1.596327	-0.031501
O31	O	-0.496388	1.087734	-0.330167
O32	O	0.003612	1.587734	0.169833
O33	O	-0.496359	0.997361	-0.420551
O34	O	0.003641	1.497361	0.079449
C35	C	-0.339035	0.858042	-0.368775
C36	C	0.160965	1.358042	0.131225
C37	C	-0.339047	0.776243	-0.368784
C38	C	0.160953	1.276243	0.131216
C39	C	-0.384121	0.586159	-0.417674
C40	C	0.115879	1.086159	0.082326
C41	C	-0.384124	0.509301	-0.417684
C42	C	0.115876	1.009301	0.082316
C43	C	-0.293986	0.513088	-0.319936
C44	C	0.206014	1.013088	0.180064
C45	C	-0.293980	0.589945	-0.319931
C46	C	0.206020	1.089945	0.180069
C47	C	-0.339052	0.626479	-0.368799
C48	C	0.160948	1.126479	0.131201
C49	C	-0.339060	0.472763	-0.368814
C50	C	0.160940	0.972763	0.131186
C51	C	-0.339062	0.389429	-0.368823
C52	C	0.160938	0.889429	0.131177
C53	C	-0.339050	0.709818	-0.368791
C54	C	0.160950	1.209818	0.131209
C55	C	-0.521911	1.041480	-0.376440
C56	C	-0.021911	1.541480	0.123560
C57	C	-0.600141	1.038224	-0.379735
C58	C	-0.100141	1.538224	0.120265
C59	C	-0.636886	1.083783	-0.334263
C60	C	-0.136886	1.583783	0.165737
C61	C	-0.710391	1.080725	-0.337366
C62	C	-0.210391	1.580725	0.162634
C63	C	-0.747151	1.032104	-0.385937
C64	C	-0.247151	1.532104	0.114063
C65	C	-0.710401	0.986542	-0.431414
C66	C	-0.210401	1.486542	0.068586
C67	C	-0.636897	0.989604	-0.428314
C68	C	-0.136897	1.489604	0.071686
C69	C	-0.966985	1.017899	-0.400254
C70	C	-0.466985	1.517899	0.099746
C71	C	-1.040495	1.014839	-0.403348
C72	C	-0.540495	1.514839	0.096652
C73	C	-1.040479	1.109023	-0.309301
C74	C	-0.540479	1.609023	0.190699
C75	C	-0.966974	1.112078	-0.306202
C76	C	-0.466974	1.612078	0.193798
C77	C	-0.930231	1.066520	-0.351682
C78	C	-0.430231	1.566520	0.148318
N79	N	-0.822285	1.028975	-0.389109
N80	N	-0.322285	1.528975	0.110891
N81	N	-0.855098	1.069652	-0.348514
N82	N	-0.355098	1.569652	0.151486
C83	C	-0.155469	1.057067	-0.361140
C84	C	0.344531	1.557067	0.138860
C85	C	-0.077239	1.060398	-0.357877
C86	C	0.422761	1.560398	0.142123
C87	C	-0.338999	1.049295	-0.560748
C88	C	0.161001	1.549295	-0.060748
C89	C	-0.338978	1.049315	-0.642546
C90	C	0.161022	1.549315	-0.142546
C91	C	-0.339060	1.241200	-0.368819
C92	C	0.160940	1.741200	0.131181
C93	C	-0.339065	1.322999	-0.368828
C94	C	0.160935	1.822999	0.131172
C95	C	-0.293923	1.098320	-0.828867
C96	C	0.206077	1.598320	-0.328867
C97	C	-0.293903	1.098329	-0.905725
C98	C	0.206097	1.598329	-0.405725
C99	C	-0.383924	1.000366	-0.909458
C100	C	0.116076	1.500366	-0.409458
C101	C	-0.383940	1.000354	-0.832601
C102	C	0.116060	1.500354	-0.332601
C103	C	-0.338941	1.049335	-0.792308
C104	C	0.161059	1.549335	-0.292308
C105	C	-0.338904	1.049357	-0.946023
C106	C	0.161096	1.549357	-0.446023
C107	C	-0.338882	1.049367	-1.029355
C108	C	0.161118	1.549367	-0.529355
C109	C	-0.338962	1.049324	-0.708970
C110	C	0.161038	1.549324	-0.208970
C111	C	-0.339045	1.049246	-0.177591
C112	C	0.160955	1.549246	0.322409
C113	C	-0.338867	1.049377	-0.095785
C114	C	0.161133	1.549377	0.404215
H115	H	-0.606961	1.123373	-0.294708
H116	H	-0.106961	1.623373	0.205292
C117	C	-0.432869	0.947314	-0.953251
C118	C	0.067131	1.447314	-0.453251
C119	C	-0.477985	0.987072	-0.999246
C120	C	0.022015	1.487072	-0.499246
C121	C	-0.523091	0.938225	-1.039590
C122	C	-0.023091	1.438225	-0.539590
H123	H	-0.406021	0.916381	-0.982169
H124	H	0.093979	1.416381	-0.482169
H125	H	-0.459723	0.918147	-0.920493
H126	H	0.040277	1.418147	-0.420493
H127	H	-0.451134	1.016226	-1.032000
H128	H	0.048866	1.516226	-0.532000
H129	H	-0.504849	1.018002	-0.970347
H130	H	-0.004849	1.518002	-0.470347
H131	H	-0.549945	0.909059	-1.006833
H132	H	-0.049945	1.409059	-0.506833
H133	H	-0.496237	0.907296	-1.068504
H134	H	0.003763	1.407296	-0.568504
H135	H	-0.553711	0.965194	-1.070798
H136	H	-0.053711	1.465194	-0.570798
C137	C	-0.244936	1.151395	-0.945450
C138	C	0.255064	1.651395	-0.445450
C139	C	-0.199798	1.111651	-0.987665
C140	C	0.300202	1.611651	-0.487665
C141	C	-0.154670	1.160510	-1.024261
C142	C	0.345330	1.660510	-0.524261
H143	H	-0.271768	1.182339	-0.976621
H144	H	0.228232	1.682339	-0.476621
H145	H	-0.218100	1.180549	-0.910463
H146	H	0.281900	1.680549	-0.410463
H147	H	-0.226632	1.082510	-1.022649
H148	H	0.273368	1.582510	-0.522649
H149	H	-0.172951	1.080710	-0.956513
H150	H	0.327049	1.580710	-0.456513
H151	H	-0.127834	1.189664	-0.989273
H152	H	0.372166	1.689664	-0.489273
H153	H	-0.181508	1.191451	-1.055427
H154	H	0.318492	1.691451	-0.555427
H155	H	-0.124035	1.133551	-1.052903
H156	H	0.375965	1.633551	-0.552903
H157	H	-0.420822	0.476476	-0.457484
H158	H	0.079178	0.976476	0.042516
C159	C	-0.927193	0.968462	-0.449744
C160	C	-0.427193	1.468462	0.050256
C161	C	-0.945029	0.983681	-0.523325
C162	C	-0.445029	1.483681	-0.023325
C163	C	-0.908392	0.938142	-0.568936
C164	C	-0.408392	1.438142	-0.068936
H165	H	-0.878140	0.977196	-0.441048
H166	H	-0.378140	1.477196	0.058952
H167	H	-0.939307	0.918508	-0.439474
H168	H	-0.439307	1.418508	0.060526
H169	H	-0.932911	1.033624	-0.533591
H170	H	-0.432911	1.533624	-0.033591
H171	H	-0.994076	0.974943	-0.532044
H172	H	-0.494076	1.474943	-0.032044
H173	H	-0.920506	0.888188	-0.558666
H174	H	-0.420506	1.388188	-0.058666
H175	H	-0.859341	0.946879	-0.560234
H176	H	-0.359341	1.446879	-0.060234
H177	H	-0.920494	0.948457	-0.618865
H178	H	-0.420494	1.448457	-0.118865
H179	H	-0.257291	0.483333	-0.280148
H180	H	0.242709	0.983333	0.219852
H181	H	-0.420598	0.960459	-0.802834
H182	H	0.079402	1.460459	-0.302834
C183	C	-0.244944	1.151405	-0.785154
C184	C	0.255056	1.651405	-0.285154
C185	C	-0.175304	1.138329	-0.800934
C186	C	0.324696	1.638329	-0.300934
C187	C	-0.130161	1.187210	-0.760675
C188	C	0.369839	1.687210	-0.260675
H189	H	-0.255147	1.200447	-0.798154
H190	H	0.244853	1.700447	-0.298154
H191	H	-0.251352	1.144381	-0.734135
H192	H	0.248648	1.644381	-0.234135
H193	H	-0.168899	1.145359	-0.851941
H194	H	0.331101	1.645359	-0.351941
H195	H	-0.165078	1.089297	-0.787931
H196	H	0.334922	1.589297	-0.287931
H197	H	-0.136568	1.180186	-0.709656
H198	H	0.363432	1.680186	-0.209656
H199	H	-0.140370	1.236248	-0.773678
H200	H	0.359630	1.736248	-0.273678
H201	H	-0.082905	1.178339	-0.771370
H202	H	0.417095	1.678339	-0.271370
H203	H	-0.740305	1.117824	-0.300338
H204	H	-0.240305	1.617824	0.199662
H205	H	-0.420820	0.615903	-0.457468
H206	H	0.079180	1.115903	0.042532
C207	C	-0.245019	0.633596	-0.266780
C208	C	0.254981	1.133596	0.233220
C209	C	-0.205566	0.585152	-0.223967
C210	C	0.294434	1.085152	0.276033
C211	C	-0.160463	0.625335	-0.174995
C212	C	0.339537	1.125335	0.325005
H213	H	-0.214323	0.664894	-0.293618
H214	H	0.285677	1.164894	0.206382
H215	H	-0.271888	0.662409	-0.235753
H216	H	0.228112	1.162409	0.264247
H217	H	-0.178699	0.556351	-0.254990
H218	H	0.321301	1.056351	0.245010
H219	H	-0.236243	0.553852	-0.197113
H220	H	0.263757	1.053852	0.302887
H221	H	-0.187331	0.654149	-0.143968
H222	H	0.312669	1.154149	0.356032
H223	H	-0.129771	0.656633	-0.201839
H224	H	0.370229	1.156633	0.298161
H225	H	-0.133693	0.592473	-0.145936
H226	H	0.366307	1.092473	0.354064
C227	C	-0.927192	1.164951	-0.253452
C228	C	-0.427192	1.664951	0.246548
C229	C	-0.975105	1.204213	-0.214308
C230	C	-0.475105	1.704213	0.285692
C231	C	-0.938483	1.252933	-0.165714
C232	C	-0.438483	1.752933	0.334286
H233	H	-0.898557	1.138097	-0.220086
H234	H	-0.398557	1.638097	0.279914
H235	H	-0.898491	1.198233	-0.280412
H236	H	-0.398491	1.698233	0.219588
H237	H	-1.003793	1.170935	-0.187349
H238	H	-0.503793	1.670935	0.312651
H239	H	-1.003741	1.231082	-0.247654
H240	H	-0.503741	1.731082	0.252346
H241	H	-0.909783	1.286215	-0.192675
H242	H	-0.409783	1.786215	0.307325
H243	H	-0.909849	1.226073	-0.132354
H244	H	-0.409849	1.726073	0.367646
H245	H	-0.970986	1.279583	-0.139155
H246	H	-0.470986	1.779583	0.360845
C247	C	-1.080499	1.158463	-0.260023
C248	C	-0.580499	1.658463	0.239977
C249	C	-1.152739	1.145394	-0.273146
C250	C	-0.652739	1.645394	0.226854
C251	C	-1.189626	1.190937	-0.227775
C252	C	-0.689626	1.690937	0.272225
H253	H	-1.068582	1.148272	-0.210031
H254	H	-0.568582	1.648272	0.289969
H255	H	-1.068443	1.208419	-0.270346
H256	H	-0.568443	1.708419	0.229654
H257	H	-1.164790	1.095449	-0.262818
H258	H	-0.664790	1.595449	0.237182
H259	H	-1.164677	1.155589	-0.323129
H260	H	-0.664677	1.655589	0.176871
H261	H	-1.177570	1.240893	-0.238098
H262	H	-0.677570	1.740893	0.261902
H263	H	-1.177704	1.180743	-0.177786
H264	H	-0.677704	1.680743	0.322214
H265	H	-1.238644	1.182081	-0.236678
H266	H	-0.738644	1.682081	0.263322
H267	H	-0.606981	0.952506	-0.465343
H268	H	-0.106981	1.452506	0.034657
C269	C	-1.080500	0.962164	-0.456134
C270	C	-0.580500	1.462164	0.043866
C271	C	-1.122652	1.002054	-0.505098
C272	C	-0.622652	1.502054	-0.005098
C273	C	-1.159523	0.953557	-0.553722
C274	C	-0.659523	1.453557	-0.053722
H275	H	-1.048173	0.935448	-0.482852
H276	H	-0.548173	1.435448	0.017148
H277	H	-1.109256	0.928929	-0.429182
H278	H	-0.609256	1.428929	0.070818
H279	H	-1.093899	1.035277	-0.532047
H280	H	-0.593899	1.535277	-0.032047
H281	H	-1.154992	1.028769	-0.478400
H282	H	-0.654992	1.528769	0.021600
H283	H	-1.188280	0.920322	-0.526770
H284	H	-0.688280	1.420322	-0.026770
H285	H	-1.127192	0.926843	-0.580434
H286	H	-0.627192	1.426843	-0.080434
H287	H	-1.188133	0.980615	-0.586945
H288	H	-0.688133	1.480615	-0.086945
H289	H	-0.740337	0.946956	-0.470965
H290	H	-0.240337	1.446956	0.029035
