data_functionalizedCrystal
_audit_creation_method	'MofGen! by Chris Wilmer'
_symmetry_space_group_name_H-M	'P1'
_symmetry_Int_Tables_number	1
_symmetry_cell_setting	triclinic
loop_
_symmetry_equiv_pos_as_xyz
  x,y,z
_cell_length_a	10.654550
_cell_length_b	14.853559
_cell_length_c	9.730223
_cell_angle_alpha	89.997790
_cell_angle_beta	89.999957
_cell_angle_gamma	84.058192
loop_
_atom_site_label
_atom_site_type_symbol
_atom_site_fract_x
_atom_site_fract_y
_atom_site_fract_z
O1	O	1.666518	0.126626	-0.114180
O2	O	1.300914	0.138691	-0.114205
O3	O	1.493487	0.001480	-0.114190
O4	O	1.473945	0.263836	-0.114194
O5	O	1.493475	0.001477	0.114390
O6	O	1.300901	0.138687	0.114375
O7	O	1.666506	0.126623	0.114400
Zn8	Zn	1.483702	0.132654	0.150680
Zn9	Zn	1.483718	0.132659	-0.150484
O10	O	1.473932	0.263833	0.114386
C11	C	1.254119	0.137803	0.000082
C12	C	1.114703	0.135153	0.000073
C13	C	1.492598	-0.032115	0.000097
C14	C	1.489950	-0.132213	0.000089
C15	C	1.034375	0.215940	0.000075
C16	C	0.903380	0.213444	0.000099
C17	C	0.933055	0.049367	0.000112
C18	C	1.064047	0.051864	0.000098
C19	C	1.478724	-0.555446	-0.124511
C20	C	1.478710	-0.555445	0.124696
C21	C	1.481208	-0.461399	0.124697
C22	C	1.482463	-0.414371	0.000093
C23	C	1.481218	-0.461391	-0.124513
C24	C	1.482440	-0.414371	0.249301
C25	C	1.484937	-0.320318	0.249307
C26	C	1.486200	-0.273290	0.124701
C27	C	1.484957	-0.320316	0.000090
C28	C	1.486211	-0.273288	-0.124514
C29	C	1.484977	-0.320313	-0.249127
C30	C	1.482482	-0.414363	-0.249119
C31	C	1.488696	-0.179240	0.124694
C32	C	1.488706	-0.179233	-0.124517
C33	C	1.713301	0.127510	0.000110
C34	C	1.852716	0.130161	0.000111
C35	C	1.474822	0.297428	0.000095
C36	C	1.477470	0.397526	0.000094
N37	N	1.483700	0.132650	0.356216
N38	N	1.483730	0.132656	-0.356021
C39	C	1.569000	0.071919	0.428148
C40	C	1.569013	0.071920	0.572031
C41	C	1.398420	0.193389	0.572037
C42	C	1.398403	0.193384	0.428157
H43	H	0.837981	0.279229	0.000104
H44	H	1.485989	-0.282010	-0.350580
H45	H	1.638470	0.022466	0.630595
H46	H	1.489672	-0.140955	0.226151
C47	C	1.481158	-0.466089	-0.386180
H48	H	1.482287	-0.424616	-0.460393
H49	H	1.407020	-0.496369	-0.391391
H50	H	1.553381	-0.509189	-0.391320
H51	H	1.638452	0.022465	0.369578
H52	H	0.891794	-0.018444	0.000141
C53	C	1.477361	-0.607167	-0.261574
H54	H	1.475690	-0.669915	-0.243734
H55	H	1.550946	-0.598168	-0.312769
H56	H	1.404585	-0.585332	-0.312770
H57	H	1.129454	-0.013927	0.000100
C58	C	1.304571	0.260193	0.349026
H59	H	1.253786	0.296374	0.412475
H60	H	1.252241	0.227409	0.292910
H61	H	1.349808	0.298025	0.292887
H62	H	1.489733	-0.140950	-0.225986
H63	H	1.485946	-0.282040	0.350774
H64	H	1.328975	0.242839	0.630625
C65	C	1.090100	0.307550	0.000058
H66	H	1.179619	0.297470	0.000036
H67	H	1.062544	0.340850	0.079769
H68	H	1.062526	0.340846	-0.079663
C69	C	1.477336	-0.607173	0.261749
H70	H	1.475680	-0.669921	0.243904
H71	H	1.404572	-0.585341	0.312951
H72	H	1.550932	-0.598182	0.312941
H73	H	1.481412	-0.452667	0.350747
