data_functionalizedCrystal
_audit_creation_method	'MofGen! by Chris Wilmer'
_symmetry_space_group_name_H-M	'P1'
_symmetry_Int_Tables_number	1
_symmetry_cell_setting	triclinic
loop_
_symmetry_equiv_pos_as_xyz
  x,y,z
_cell_length_a	10.489741
_cell_length_b	10.489741
_cell_length_c	9.565339
_cell_angle_alpha	89.999484
_cell_angle_beta	89.999100
_cell_angle_gamma	95.460826
loop_
_atom_site_label
_atom_site_type_symbol
_atom_site_fract_x
_atom_site_fract_y
_atom_site_fract_z
O1	O	1.694053	-0.179959	-0.116173
O2	O	1.322857	-0.196852	-0.116194
O3	O	1.516901	-0.002807	-0.116175
O4	O	1.500009	-0.374003	-0.116192
O5	O	1.516886	-0.002819	0.116345
O6	O	1.322842	-0.196864	0.116326
O7	O	1.694038	-0.179971	0.116347
Zn8	Zn	1.508437	-0.188419	0.153254
Zn9	Zn	1.508458	-0.188403	-0.153101
O10	O	1.499993	-0.374015	0.116328
C11	C	1.275318	-0.195582	0.000063
C12	C	1.133688	-0.191765	0.000055
C13	C	1.065548	-0.068300	0.000074
C14	C	0.973429	-0.126617	-0.114571
C15	C	0.973448	-0.126659	0.114676
C16	C	1.043435	-0.250133	-0.114684
C17	C	1.043463	-0.250157	0.114665
C18	C	0.951371	-0.308564	-0.000007
C19	C	1.515618	0.044718	0.000084
C20	C	1.511801	0.186348	0.000082
C21	C	1.741577	-0.181241	0.000087
C22	C	1.883206	-0.185058	0.000086
C23	C	1.501277	-0.421541	0.000066
C24	C	1.505094	-0.563170	0.000059
N25	N	1.508433	-0.188429	0.362334
C26	C	1.388336	0.254488	0.000064
C27	C	1.446652	0.346604	0.114712
C28	C	1.446696	0.346591	-0.114534
C29	C	1.570168	0.276599	0.114824
C30	C	1.570195	0.276576	-0.114525
C31	C	1.628600	0.368665	0.000150
N32	N	1.508472	-0.188383	-0.362180
C33	C	1.418666	-0.278138	0.453528
C34	C	1.534163	-0.303949	0.546712
C35	C	1.392986	-0.162629	0.546704
C36	C	1.623988	-0.214298	0.453466
C37	C	1.482735	-0.072928	0.453451
C38	C	1.598314	-0.098690	0.546593
H39	H	1.074503	-0.302360	0.211590
H40	H	1.286824	0.204837	0.000174
O41	O	1.749881	0.427457	0.000043
C42	C	1.815246	0.390149	-0.119777
H43	H	1.768243	0.294467	-0.159349
H44	H	1.919506	0.380007	-0.092108
H45	H	1.810847	0.465803	-0.204762
H46	H	0.942463	-0.074401	0.211599
O47	O	1.384124	0.383520	0.230234
C48	C	1.257495	0.324816	0.229842
H49	H	1.228150	0.297382	0.118276
H50	H	1.190311	0.394442	0.273144
H51	H	1.251626	0.235158	0.297788
H52	H	1.622356	0.245762	0.211859
O53	O	1.632287	0.239570	-0.230295
C54	C	1.566890	0.274879	-0.350942
H55	H	1.462798	0.286101	-0.323480
H56	H	1.570719	0.197516	-0.434134
H57	H	1.614271	0.369568	-0.392770
H58	H	1.394447	0.377560	-0.211470
O59	O	1.080072	-0.312269	-0.230597
C60	C	1.043593	-0.247422	-0.351129
H61	H	0.960985	-0.188539	-0.324411
H62	H	1.011892	-0.320124	-0.435783
H63	H	1.128401	-0.181168	-0.390658
O64	O	1.328326	-0.368888	0.404827
C65	C	1.355919	-0.490486	0.452379
H66	H	1.462169	-0.487862	0.478506
H67	H	1.331010	-0.564666	0.367155
H68	H	1.296893	-0.517259	0.549923
O69	O	1.124999	0.052711	0.000015
C70	C	1.258805	0.047468	0.001209
H71	H	1.281890	-0.048402	0.045962
H72	H	1.305414	0.128527	0.068695
H73	H	1.297312	0.058040	-0.110059
H74	H	0.901947	-0.410168	-0.000074
O75	O	1.559947	-0.420445	0.595764
C76	C	1.456926	-0.472706	0.678899
H77	H	1.401248	-0.392270	0.719756
H78	H	1.495421	-0.526617	0.770832
H79	H	1.390808	-0.541489	0.613336
H80	H	0.942421	-0.074372	-0.211491
H81	H	1.721659	-0.236217	0.412683
H82	H	1.674328	-0.022802	0.587199
H83	H	1.460936	0.024699	0.412454
O84	O	1.276438	-0.136533	0.595326
C85	C	1.194315	-0.119485	0.481546
H86	H	1.253881	-0.091293	0.384771
H87	H	1.130410	-0.040655	0.507358
H88	H	1.132248	-0.212718	0.460503
