data_functionalizedCrystal
_audit_creation_method	'MofGen! by Chris Wilmer'
_symmetry_space_group_name_H-M	'P1'
_symmetry_Int_Tables_number	1
_symmetry_cell_setting	triclinic
loop_
_symmetry_equiv_pos_as_xyz
  x,y,z
_cell_length_a	10.654550
_cell_length_b	12.503572
_cell_length_c	10.654550
_cell_angle_alpha	93.557511
_cell_angle_beta	95.515069
_cell_angle_gamma	93.549232
loop_
_atom_site_label
_atom_site_type_symbol
_atom_site_fract_x
_atom_site_fract_y
_atom_site_fract_z
O1	O	1.675014	0.089240	-0.169203
O2	O	1.309537	0.089259	-0.186007
O3	O	1.500678	0.089242	0.005133
O4	O	1.483873	0.089257	-0.360344
O5	O	1.486303	-0.089398	-0.009266
O6	O	1.295162	-0.089381	-0.200406
O7	O	1.660639	-0.089401	-0.183602
Cu8	Cu	1.476588	-0.105702	-0.193319
Cu9	Cu	1.493588	0.105561	-0.176291
O10	O	1.469498	-0.089384	-0.374743
C11	C	1.255552	-0.000058	-0.191973
C12	C	1.116109	-0.000051	-0.188280
N13	N	1.464640	-0.254294	-0.205295
C14	C	1.036624	-0.000050	-0.300822
C15	C	0.905601	-0.000068	-0.297347
C16	C	0.933563	-0.000086	-0.068779
C17	C	1.064582	-0.000074	-0.072256
C18	C	1.447065	-0.473407	-0.222923
C19	C	1.523117	-0.526741	-0.146681
C20	C	1.513337	-0.648663	-0.156489
C21	C	1.456843	-0.351474	-0.213116
C22	C	1.714624	-0.000081	-0.177636
C23	C	1.854068	-0.000081	-0.181328
C24	C	1.492256	-0.000077	0.044732
C25	C	1.488565	-0.000075	0.184175
N26	N	1.505545	0.254152	-0.164304
C27	C	1.477920	-0.000062	-0.414341
C28	C	1.481612	-0.000057	-0.553784
C29	C	1.601106	-0.000081	0.263661
C30	C	1.597630	-0.000068	0.394682
C31	C	1.369063	-0.000048	0.366721
C32	C	1.372540	-0.000053	0.235702
H33	H	1.078571	-0.000039	-0.395297
F34	F	1.352370	-0.533404	-0.317866
H35	H	1.595571	-0.480835	-0.074042
F36	F	1.724589	-0.000103	0.208826
H37	H	0.840888	-0.000070	-0.388990
H38	H	0.891593	-0.000111	0.025684
H39	H	1.689273	-0.000070	0.459395
H40	H	1.274599	-0.000032	0.408690
H41	H	1.280890	-0.000045	0.170982
H42	H	1.129303	-0.000079	0.019395
