data_functionalizedCrystal
_audit_creation_method	'MofGen! by Chris Wilmer'
_symmetry_space_group_name_H-M	'P1'
_symmetry_Int_Tables_number	1
_symmetry_cell_setting	triclinic
loop_
_symmetry_equiv_pos_as_xyz
  x,y,z
_cell_length_a	13.185407
_cell_length_b	16.109301
_cell_length_c	14.586319
_cell_angle_alpha	90.000787
_cell_angle_beta	89.996541
_cell_angle_gamma	112.282518
loop_
_atom_site_label
_atom_site_type_symbol
_atom_site_fract_x
_atom_site_fract_y
_atom_site_fract_z
O1	O	0.140183	-1.071794	-0.076182
O2	O	0.640183	-0.571794	0.423818
O3	O	0.157628	-0.825832	-0.076196
O4	O	0.657628	-0.325832	0.423804
O5	O	-0.009858	-0.990953	-0.076183
O6	O	0.490142	-0.490953	0.423817
O7	O	0.307669	-0.906672	-0.076195
O8	O	0.807669	-0.406672	0.423805
O9	O	-0.009861	-0.990945	0.076298
O10	O	0.490139	-0.490945	0.576298
O11	O	0.157626	-0.825824	0.076285
O12	O	0.657626	-0.325824	0.576285
O13	O	0.140180	-1.071785	0.076299
O14	O	0.640180	-0.571785	0.576299
Cu15	Cu	0.148903	-0.948804	0.090215
Cu16	Cu	0.648903	-0.448804	0.590215
Cu17	Cu	0.148906	-0.948814	-0.090112
Cu18	Cu	0.648906	-0.448814	0.409888
O19	O	0.307667	-0.906664	0.076286
O20	O	0.807667	-0.406664	0.576286
C21	C	0.156920	-0.795011	0.000042
C22	C	0.656920	-0.295011	0.500042
C23	C	0.154802	-0.703189	0.000037
C24	C	0.654802	-0.203189	0.500037
C25	C	-0.050491	-0.999493	0.000057
C26	C	0.449509	-0.499493	0.500057
C27	C	-0.171560	-1.024943	0.000055
C28	C	0.328440	-0.524943	0.500055
C29	C	0.140888	-1.102606	0.000058
C30	C	0.640888	-0.602606	0.500058
C31	C	0.143007	-1.194428	0.000058
C32	C	0.643007	-0.694428	0.500058
C33	C	-0.460729	-0.782062	0.000032
C34	C	0.039271	-0.282062	0.500032
C35	C	-0.346978	-0.758149	0.000025
C36	C	0.153022	-0.258149	0.500025
C37	C	-0.303118	-0.824845	0.000032
C38	C	0.196882	-0.324845	0.500032
C39	C	-0.373020	-0.915459	0.000047
C40	C	0.126980	-0.415459	0.500047
C41	C	-0.486783	-0.939375	0.000047
C42	C	0.013217	-0.439375	0.500047
C43	C	-0.329171	-0.982158	0.000048
C44	C	0.170829	-0.482158	0.500048
C45	C	-0.399074	-1.072772	0.000062
C46	C	0.100926	-0.572772	0.500062
C47	C	-0.512825	-1.096684	0.000063
C48	C	-0.012825	-0.596684	0.500063
C49	C	-0.556685	-1.029988	0.000055
C50	C	-0.056685	-0.529988	0.500055
C51	C	-0.215409	-0.958242	0.000047
C52	C	0.284591	-0.458242	0.500047
C53	C	-0.241463	-1.115555	0.000063
C54	C	0.258537	-0.615555	0.500063
C55	C	-0.355214	-1.139469	0.000070
C56	C	0.144786	-0.639469	0.500070
C57	C	0.348300	-0.898124	0.000044
C58	C	0.848300	-0.398124	0.500044
C59	C	0.469369	-0.872675	0.000040
C60	C	0.969369	-0.372675	0.500040
N61	N	0.148900	-0.948803	0.217046
N62	N	0.648900	-0.448803	0.717046
C63	C	0.249259	-0.459801	0.000044
C64	C	0.749259	0.040199	0.500044
C65	C	0.247259	-0.373528	0.000050
C66	C	0.747259	0.126472	0.500050
C67	C	0.048542	-0.437824	0.000053
C68	C	0.548542	0.062176	0.500053
C69	C	0.050543	-0.524096	0.000054
C70	C	0.550543	-0.024096	0.500054
C71	C	0.150904	-0.535081	0.000045
C72	C	0.650904	-0.035081	0.500045
C73	C	0.146904	-0.362536	0.000050
C74	C	0.646904	0.137464	0.500050
C75	C	0.144736	-0.268995	0.000057
C76	C	0.644736	0.231005	0.500057
C77	C	0.153073	-0.628628	0.000040
C78	C	0.653073	-0.128628	0.500040
N79	N	0.148900	-0.948823	-0.216943
N80	N	0.648900	-0.448823	0.283057
C81	C	0.074762	-1.021932	0.452058
C82	C	0.574762	-0.521932	0.952058
C83	C	0.074759	-1.021935	0.548040
C84	C	0.574759	-0.521935	1.048040
C85	C	0.223041	-0.875687	0.548038
C86	C	0.723041	-0.375687	1.048038
C87	C	0.223038	-0.875682	0.452058
C88	C	0.723038	-0.375682	0.952058
C89	C	0.148900	-0.948809	0.404071
C90	C	0.648900	-0.448809	0.904071
C91	C	0.148900	-0.948817	0.596032
C92	C	0.648900	-0.448817	1.096032
C93	C	0.148898	-0.948820	0.700099
C94	C	0.648898	-0.448820	1.200099
C95	C	0.148900	-0.948806	0.299997
C96	C	0.648900	-0.448806	0.799997
H97	H	-0.158505	-0.884463	0.000036
H98	H	0.341495	-0.384463	0.500036
H99	H	-0.496451	-0.727768	0.000018
H100	H	0.003549	-0.227768	0.500018
H101	H	-0.029554	-0.585395	0.000057
H102	H	0.470446	-0.085395	0.500057
H103	H	-0.649309	-1.049454	0.000072
H104	H	-0.149309	-0.549454	0.500072
O105	O	-0.588225	-1.194416	0.000081
O106	O	-0.088225	-0.694416	0.500081
H107	H	-0.538620	-1.236777	0.000097
H108	H	-0.038620	-0.736777	0.500097
O109	O	0.353346	-0.292336	0.000047
O110	O	0.853346	0.207664	0.500047
H111	H	0.357192	-0.251500	0.062203
H112	H	0.857192	0.248500	0.562203
H113	H	-0.412144	-1.213248	0.000082
H114	H	0.087856	-0.713248	0.500082
H115	H	-0.033168	-0.428869	0.000067
H116	H	0.466832	0.071131	0.500067
O117	O	-0.194175	-1.187503	0.000075
O118	O	0.305825	-0.687503	0.500075
H119	H	-0.103330	-1.155650	0.000084
H120	H	0.396670	-0.655650	0.500084
H121	H	0.014392	-1.081475	0.412990
H122	H	0.514392	-0.581475	0.912990
O123	O	-0.005189	-1.100810	0.599801
O124	O	0.494811	-0.600810	1.099801
H125	H	-0.056730	-1.151659	0.550305
H126	H	0.443270	-0.651659	1.050305
O127	O	0.357499	-0.471656	0.000053
O128	O	0.857499	0.028344	0.500053
H129	H	0.425554	-0.404812	0.000066
H130	H	0.925554	0.095188	0.500066
H131	H	0.283405	-0.816150	0.587118
H132	H	0.783405	-0.316150	1.087118
O133	O	-0.180429	-0.799053	0.000044
O134	O	0.319571	-0.299053	0.500044
H135	H	-0.144798	-0.758792	-0.062103
H136	H	0.355202	-0.258792	0.437897
O137	O	-0.271583	-0.660423	0.000026
O138	O	0.228417	-0.160423	0.500026
H139	H	-0.321189	-0.618062	0.000034
H140	H	0.178811	-0.118062	0.500034
O141	O	0.303008	-0.796812	0.400289
O142	O	0.803008	-0.296812	0.900289
H143	H	0.354573	-0.745970	0.449781
H144	H	0.854573	-0.245970	0.949781
