data_functionalizedCrystal
_audit_creation_method	'MofGen! by Chris Wilmer'
_symmetry_space_group_name_H-M	'P1'
_symmetry_Int_Tables_number	1
_symmetry_cell_setting	triclinic
loop_
_symmetry_equiv_pos_as_xyz
  x,y,z
_cell_length_a	16.992694
_cell_length_b	11.026607
_cell_length_c	15.455313
_cell_angle_alpha	93.255562
_cell_angle_beta	87.142206
_cell_angle_gamma	99.627120
loop_
_atom_site_label
_atom_site_type_symbol
_atom_site_fract_x
_atom_site_fract_y
_atom_site_fract_z
O1	O	1.079936	0.255850	-0.072014
O2	O	1.579936	0.755850	0.427986
O3	O	0.851247	0.252986	-0.072040
O4	O	1.351247	0.752986	0.427960
O5	O	0.946638	0.075927	-0.072026
O6	O	1.446638	0.575927	0.427974
O7	O	0.984545	0.432909	-0.072028
O8	O	1.484545	0.932909	0.427972
O9	O	0.941177	0.086007	0.072235
O10	O	1.441177	0.586007	0.572235
O11	O	0.845786	0.263067	0.072221
O12	O	1.345786	0.763067	0.572221
O13	O	1.074474	0.265931	0.072247
O14	O	1.574474	0.765931	0.572247
Cu15	Cu	0.959632	0.265419	0.085406
Cu16	Cu	1.459632	0.765419	0.585406
Cu17	Cu	0.966090	0.253498	-0.085199
Cu18	Cu	1.466090	0.753498	0.414801
O19	O	0.979084	0.442990	0.072233
O20	O	1.479084	0.942990	0.572233
C21	C	0.818785	0.254344	0.000087
C22	C	1.318785	0.754344	0.500087
C23	C	0.730190	0.243358	0.000077
C24	C	1.230190	0.743358	0.500077
C25	C	0.694911	0.349355	0.000078
C26	C	1.194911	0.849355	0.500078
C27	C	0.611666	0.339026	0.000090
C28	C	1.111666	0.839026	0.500090
C29	C	0.563702	0.222699	0.000095
C30	C	1.063702	0.722699	0.500095
C31	C	0.598986	0.116694	0.000098
C32	C	1.098986	0.616694	0.500098
C33	C	0.682229	0.127024	0.000092
C34	C	1.182229	0.627024	0.500092
C35	C	0.314060	0.179884	0.000119
C36	C	0.814060	0.679884	0.500119
C37	C	0.230811	0.169561	0.000122
C38	C	0.730811	0.669561	0.500122
C39	C	0.243497	0.391895	0.000115
C40	C	0.743497	0.891895	0.500115
C41	C	0.326741	0.402215	0.000104
C42	C	0.826741	0.902215	0.500104
C43	C	0.362018	0.296210	0.000111
C44	C	0.862018	0.796210	0.500111
N45	N	0.478612	0.212138	0.000105
N46	N	0.978612	0.712138	0.500105
N47	N	0.447106	0.306772	0.000108
N48	N	0.947106	0.806772	0.500108
C49	C	0.936914	0.035078	0.000103
C50	C	1.436914	0.535078	0.500103
C51	C	0.916067	-0.101658	0.000097
C52	C	1.416067	0.398342	0.500097
C53	C	0.973629	-0.169881	0.000103
C54	C	1.473629	0.330119	0.500103
C55	C	0.952084	-0.311205	0.000097
C56	C	1.452084	0.188795	0.500097
C57	C	1.106937	0.264572	0.000118
C58	C	1.606937	0.764572	0.500118
C59	C	1.195532	0.275558	0.000122
C60	C	1.695532	0.775558	0.500122
C61	C	0.988808	0.483838	0.000102
C62	C	1.488808	0.983838	0.500102
C63	C	1.009655	0.620574	0.000102
C64	C	1.509655	1.120574	0.500102
N65	N	0.955095	0.273804	0.205401
N66	N	1.455095	0.773804	0.705401
N67	N	0.970632	0.245104	-0.205194
N68	N	1.470632	0.745104	0.294806
C69	C	0.995642	0.198614	0.250801
C70	C	1.495642	0.698614	0.750801
C71	C	0.992220	0.204967	0.341609
C72	C	1.492220	0.704967	0.841609
C73	C	0.948255	0.286517	0.387014
C74	C	1.448255	0.786517	0.887014
C75	C	0.907702	0.361709	0.341608
C76	C	1.407702	0.861709	0.841608
C77	C	0.911120	0.355349	0.250802
C78	C	1.411120	0.855349	0.750802
C79	C	0.933497	0.313936	0.658594
C80	C	1.433497	0.813936	1.158594
C81	C	0.930084	0.320293	0.749406
C82	C	1.430084	0.820293	1.249406
C83	C	1.014601	0.163549	0.749400
C84	C	1.514601	0.663549	1.249400
C85	C	1.018019	0.157201	0.658593
C86	C	1.518019	0.657201	1.158593
C87	C	0.977463	0.232389	0.613194
C88	C	1.477463	0.732389	1.113194
N89	N	0.944758	0.293015	0.479834
N90	N	1.444758	0.793015	0.979834
N91	N	0.980956	0.225883	0.520376
N92	N	1.480956	0.725883	1.020376
H93	H	0.214765	0.478198	0.000111
H94	H	0.714765	0.978198	0.500111
H95	H	0.582946	0.425341	0.000089
H96	H	1.082946	0.925341	0.500089
Cl97	Cl	0.860140	0.449874	0.193729
Cl98	Cl	1.360140	0.949874	0.693729
H99	H	1.025236	0.143741	0.378573
H100	H	1.525236	0.643741	0.878573
Cl101	Cl	0.170512	0.023311	0.000149
Cl102	Cl	0.670512	0.523311	0.500149
H103	H	0.342772	0.093566	0.000125
H104	H	0.842772	0.593566	0.500125
H105	H	0.850837	-0.147876	0.000084
H106	H	1.350837	0.352124	0.500084
Cl107	Cl	1.110374	-0.308089	0.000109
Cl108	Cl	1.610374	0.191911	0.500109
H109	H	0.871900	0.428105	0.378583
H110	H	1.371900	0.928105	0.878583
Cl111	Cl	0.726580	-0.006236	0.000096
Cl112	Cl	1.226580	0.493764	0.500096
Cl113	Cl	0.851366	-0.382547	0.000077
Cl114	Cl	1.351366	0.117453	0.500077
Cl115	Cl	1.065579	0.069027	0.806476
Cl116	Cl	1.565579	0.569027	1.306476
Cl117	Cl	0.755202	0.495603	0.000065
Cl118	Cl	1.255202	0.995603	0.500065
H119	H	1.031448	0.132213	0.213838
H120	H	1.531448	0.632213	0.713838
H121	H	0.559926	0.021978	0.000115
H122	H	1.059926	0.521978	0.500115
H123	H	1.053819	0.090797	0.621625
H124	H	1.553819	0.590797	1.121625
Cl125	Cl	1.074344	-0.098536	0.000108
Cl126	Cl	1.574344	0.401464	0.500108
Cl127	Cl	0.882518	0.408461	0.601527
Cl128	Cl	1.382518	0.908461	1.101527
Cl129	Cl	0.387034	0.548461	0.000091
Cl130	Cl	0.887034	1.048461	0.500091
Cl131	Cl	0.874810	0.422826	0.806481
Cl132	Cl	1.374810	0.922826	1.306481
