data_functionalizedCrystal
_audit_creation_method	'MofGen! by Chris Wilmer'
_symmetry_space_group_name_H-M	'P1'
_symmetry_Int_Tables_number	1
_symmetry_cell_setting	triclinic
loop_
_symmetry_equiv_pos_as_xyz
  x,y,z
_cell_length_a	16.109301
_cell_length_b	10.967829
_cell_length_c	15.186229
_cell_angle_alpha	77.868373
_cell_angle_beta	89.999362
_cell_angle_gamma	84.100403
loop_
_atom_site_label
_atom_site_type_symbol
_atom_site_fract_x
_atom_site_fract_y
_atom_site_fract_z
O1	O	1.104076	0.160392	-0.097510
O2	O	0.862131	0.180353	-0.100553
O3	O	0.988683	-0.011279	-0.071462
O4	O	0.977524	0.352025	-0.126601
O5	O	0.988674	-0.011282	0.074995
O6	O	0.862123	0.180350	0.045905
O7	O	1.104067	0.160390	0.048948
Zn8	Zn	0.983093	0.170370	0.070680
Zn9	Zn	0.983105	0.170373	-0.122285
O10	O	0.977515	0.352022	0.019857
C11	C	0.831147	0.179543	-0.027203
C12	C	0.738838	0.177119	-0.026840
C13	C	0.517202	0.285194	-0.043232
C14	C	0.430468	0.282906	-0.042880
C15	C	0.449003	0.055541	-0.008376
C16	C	0.535735	0.057829	-0.008723
C17	C	0.569832	0.172659	-0.026156
C18	C	0.396366	0.168083	-0.025457
C19	C	0.302325	0.165602	-0.025074
C20	C	0.663879	0.175141	-0.026537
C21	C	0.987866	-0.057770	0.008820
C22	C	0.985435	-0.196294	0.029838
C23	C	0.984355	-0.258044	-0.036662
C24	C	0.981843	-0.401216	-0.014941
C25	C	1.135051	0.161200	-0.024404
C26	C	1.227360	0.163624	-0.024772
C27	C	0.978332	0.398513	-0.060427
C28	C	0.980763	0.537037	-0.081451
N29	N	0.983092	0.170366	0.202373
N30	N	0.983113	0.170367	-0.253976
C31	C	1.039148	0.085540	0.440973
C32	C	1.039151	0.085537	0.533163
C33	C	0.927050	0.255197	0.507417
C34	C	0.927044	0.255193	0.415229
C35	C	0.983098	0.170366	0.382009
C36	C	0.983107	0.170367	0.566387
C37	C	0.983109	0.170364	0.666343
C38	C	0.983095	0.170367	0.282047
H39	H	0.578589	-0.033815	0.005186
H40	H	0.881414	0.324263	0.534474
F41	F	0.374458	0.402681	-0.061053
H42	H	0.985288	-0.204917	-0.109676
H43	H	0.881397	0.324269	0.367218
F44	F	1.098805	-0.004748	0.595914
F45	F	0.984205	-0.265727	0.125274
H46	H	0.544961	0.378696	-0.057421
H47	H	1.084789	0.016467	0.413928
H48	H	0.421230	-0.037950	0.005822
F49	F	0.980613	-0.470644	0.080500
F50	F	0.981960	-0.393531	-0.176894
