data_functionalizedCrystal
_audit_creation_method	'MofGen! by Chris Wilmer'
_symmetry_space_group_name_H-M	'P1'
_symmetry_Int_Tables_number	1
_symmetry_cell_setting	triclinic
loop_
_symmetry_equiv_pos_as_xyz
  x,y,z
_cell_length_a	15.995300
_cell_length_b	15.995350
_cell_length_c	14.048226
_cell_angle_alpha	89.995798
_cell_angle_beta	89.991953
_cell_angle_gamma	83.482091
loop_
_atom_site_label
_atom_site_type_symbol
_atom_site_fract_x
_atom_site_fract_y
_atom_site_fract_z
O1	O	1.111014	0.107728	-0.079191
O2	O	0.867233	0.121099	-0.079184
O3	O	0.995787	-0.007475	-0.079187
O4	O	0.982460	0.236302	-0.079188
O5	O	0.995772	-0.007483	0.079134
O6	O	0.867217	0.121092	0.079137
O7	O	1.110999	0.107720	0.079131
Zn8	Zn	0.989106	0.114405	0.104271
Zn9	Zn	0.989126	0.114415	-0.104324
O10	O	0.982444	0.236295	0.079133
C11	C	0.836030	0.120550	-0.000023
C12	C	0.743077	0.118915	-0.000021
C13	C	0.572894	0.115896	-0.000028
C14	C	0.525428	0.207443	-0.000026
C15	C	0.428740	0.205773	-0.000388
C16	C	0.405337	0.112924	-0.000034
C17	C	0.446479	0.067508	-0.090265
C18	C	0.543112	0.069825	-0.090338
C19	C	0.543374	0.068461	0.089709
C20	C	0.446429	0.068469	0.090893
C21	C	0.310642	0.111239	-0.000041
C22	C	0.667590	0.117577	-0.000028
C23	C	0.995229	-0.038674	-0.000028
C24	C	0.993577	-0.131624	-0.000033
C25	C	0.987644	-0.469370	-0.000030
C26	C	0.896090	-0.421920	-0.000383
C27	C	0.897743	-0.325230	-0.000026
C28	C	0.990587	-0.301810	-0.000032
C29	C	1.035736	-0.342900	0.090374
C30	C	1.033436	-0.439536	0.090450
C31	C	1.035345	-0.439885	-0.089591
C32	C	1.035323	-0.342940	-0.090786
C33	C	0.992255	-0.207113	-0.000030
C34	C	0.985979	-0.564068	-0.000025
C35	C	1.142202	0.108269	-0.000033
C36	C	1.235154	0.109904	-0.000041
C37	C	0.983003	0.267493	-0.000028
C38	C	0.984655	0.360443	-0.000029
N39	N	0.989098	0.114397	0.246631
N40	N	0.989140	0.114415	-0.246685
C41	C	1.046040	0.057488	0.296448
C42	C	1.046045	0.057488	0.396106
C43	C	0.989112	0.114401	0.445945
C44	C	0.932165	0.171313	0.396121
C45	C	0.932156	0.171309	0.296465
C46	C	0.932189	0.171319	0.603835
C47	C	0.932199	0.171325	0.703498
C48	C	1.046078	0.057498	0.703476
C49	C	1.046069	0.057494	0.603820
C50	C	0.989122	0.114407	0.554003
H51	H	0.400271	0.241459	0.064278
H52	H	0.575155	0.000964	0.090577
H53	H	0.400899	0.241312	-0.065447
C54	C	0.586719	-0.020983	-0.095540
H55	H	0.646018	-0.020184	-0.095615
H56	H	0.570163	-0.046953	-0.152246
H57	H	0.570886	-0.051831	-0.041957
C58	C	0.849787	-0.286815	-0.087563
H59	H	0.829115	-0.330298	-0.123661
H60	H	0.886685	-0.258529	-0.125819
H61	H	0.803957	-0.247929	-0.067206
C62	C	0.427429	-0.024653	-0.094466
H63	H	0.394132	-0.036278	-0.041103
H64	H	0.478727	-0.060949	-0.093484
H65	H	0.397656	-0.033584	-0.151401
C66	C	1.127879	-0.323832	0.094921
H67	H	1.139660	-0.290559	0.041598
H68	H	1.164186	-0.375125	0.094082
H69	H	1.136632	-0.294029	0.151886
H70	H	0.431091	0.000775	0.096608
C71	C	0.849462	-0.287572	0.087672
H72	H	0.850300	-0.228281	0.088184
H73	H	0.875421	-0.311061	0.143910
H74	H	0.792869	-0.300133	0.085015
H75	H	1.005418	-0.460416	-0.158114
H76	H	1.100653	-0.471796	0.094547
C77	C	0.993352	-0.304571	0.181268
H78	H	0.948149	-0.263538	0.164315
H79	H	1.033336	-0.278842	0.217848
H80	H	0.972402	-0.347694	0.217709
C81	C	1.108693	-0.005110	0.548999
H82	H	1.142604	-0.039011	0.592939
H83	H	1.143539	0.025023	0.510106
H84	H	1.078563	-0.039980	0.510140
C85	C	0.869521	0.233875	0.758319
H86	H	0.835581	0.267747	0.714379
H87	H	0.899589	0.268766	0.797212
H88	H	0.834697	0.203680	0.797179
C89	C	1.108712	-0.005112	0.758270
H90	H	1.100558	0.003032	0.824759
H91	H	1.164591	0.004003	0.741925
H92	H	1.099615	-0.061001	0.741943
C93	C	0.869552	0.233926	0.549038
H94	H	0.835652	0.267830	0.592992
H95	H	0.834695	0.203795	0.510173
H96	H	0.899675	0.268793	0.510153
H97	H	0.419083	0.101634	0.157647
C98	C	0.846655	-0.446948	-0.087955
H99	H	0.881403	-0.486564	-0.125086
H100	H	0.829820	-0.398368	-0.125185
H101	H	0.798246	-0.471376	-0.067614
H102	H	1.000500	-0.457834	0.158035
H103	H	0.885805	0.217650	0.436705
H104	H	0.561438	0.102562	-0.158043
H105	H	1.092404	0.011146	0.255876
C106	C	0.869523	0.233912	0.241666
H107	H	0.835622	0.267815	0.285620
H108	H	0.834668	0.203777	0.202804
H109	H	0.899642	0.268781	0.202778
H110	H	1.002314	-0.315682	-0.157666
H111	H	0.543913	0.244231	0.064668
H112	H	0.545043	0.243689	-0.064635
C113	C	0.408185	0.109608	-0.181323
H114	H	0.367135	0.154855	-0.164545
H115	H	0.382481	0.069505	-0.217751
H116	H	0.451319	0.130456	-0.217840
C117	C	1.126791	-0.322211	-0.098168
H118	H	1.138949	-0.288055	-0.045762
H119	H	1.133889	-0.292865	-0.155872
H120	H	1.163970	-0.372935	-0.097402
C121	C	1.126530	-0.482813	-0.090428
H122	H	1.135522	-0.518536	-0.036494
H123	H	1.164359	-0.441158	-0.088448
H124	H	1.135956	-0.515248	-0.146854
H125	H	0.563867	0.098597	0.158121
H126	H	0.859653	-0.441510	0.064090
H127	H	1.092411	0.011147	0.436667
