data_functionalizedCrystal
_audit_creation_method	'MofGen! by Chris Wilmer'
_symmetry_space_group_name_H-M	'P1'
_symmetry_Int_Tables_number	1
_symmetry_cell_setting	triclinic
loop_
_symmetry_equiv_pos_as_xyz
  x,y,z
_cell_length_a	9.065215
_cell_length_b	19.188924
_cell_length_c	8.140239
_cell_angle_alpha	90.005201
_cell_angle_beta	90.000939
_cell_angle_gamma	84.078331
loop_
_atom_site_label
_atom_site_type_symbol
_atom_site_fract_x
_atom_site_fract_y
_atom_site_fract_z
O1	O	1.956841	0.102360	0.136603
O2	O	1.527264	0.110759	0.136611
O3	O	1.754455	0.005000	0.136588
O4	O	1.729651	0.208119	0.136627
O5	O	1.754447	0.004999	-0.136639
O6	O	1.527257	0.110758	-0.136616
O7	O	1.956834	0.102359	-0.136624
Zn8	Zn	1.742044	0.106558	-0.180000
Zn9	Zn	1.742054	0.106559	0.179988
O10	O	1.729643	0.208118	-0.136600
C11	C	1.472302	0.109952	-0.000001
C12	C	1.308542	0.107540	0.000001
C13	C	1.753649	-0.021018	-0.000027
C14	C	1.751243	-0.098542	-0.000032
C15	C	1.750124	-0.134949	0.148905
C16	C	1.747843	-0.207789	0.148917
C17	C	1.746710	-0.244221	-0.000015
C18	C	1.747820	-0.207805	-0.148971
C19	C	1.750087	-0.134965	-0.148979
N20	N	1.827098	-0.363261	-0.110863
N21	N	1.824948	-0.432456	-0.110845
C22	C	1.739876	-0.463683	0.000001
N23	N	1.657055	-0.423103	0.110854
N24	N	1.659212	-0.353902	0.110840
C25	C	1.744251	-0.323204	-0.000023
C26	C	1.736281	-0.579072	0.148961
C27	C	1.733990	-0.651914	0.148968
C28	C	1.733983	-0.651929	-0.148925
C29	C	1.736259	-0.579088	-0.148927
C30	C	1.737415	-0.542665	0.000020
C31	C	2.011796	0.103166	-0.000007
C32	C	2.175556	0.105578	0.000001
C33	C	1.730449	0.234136	0.000018
C34	C	1.732855	0.311659	0.000034
N35	N	1.742049	0.106557	-0.425683
N36	N	1.742061	0.106555	0.425671
H37	H	1.751061	-0.105297	0.270190
Br38	Br	1.746318	-0.257210	0.351060
Br39	Br	1.746264	-0.257245	-0.351096
Br40	Br	1.732430	-0.701363	-0.351052
Br41	Br	1.737842	-0.529636	0.351099
Br42	Br	1.751599	-0.085551	-0.351124
H43	H	1.737182	-0.549446	-0.270208
Br44	Br	1.732455	-0.701324	0.351114
