data_functionalizedCrystal
_audit_creation_method	'MofGen! by Chris Wilmer'
_symmetry_space_group_name_H-M	'P1'
_symmetry_Int_Tables_number	1
_symmetry_cell_setting	triclinic
loop_
_symmetry_equiv_pos_as_xyz
  x,y,z
_cell_length_a	25.639242
_cell_length_b	11.169416
_cell_length_c	11.169409
_cell_angle_alpha	90.030874
_cell_angle_beta	89.968060
_cell_angle_gamma	89.994132
loop_
_atom_site_label
_atom_site_type_symbol
_atom_site_fract_x
_atom_site_fract_y
_atom_site_fract_z
Zn1	Zn	0.799379	0.477853	-0.678943
Zn2	Zn	1.299379	0.977853	-0.178943
Zn3	Zn	0.799330	0.678593	-0.478265
Zn4	Zn	1.299330	1.178593	0.021735
Zn5	Zn	0.711940	0.477907	-0.478235
Zn6	Zn	1.211940	0.977907	0.021765
Zn7	Zn	0.711943	0.678477	-0.678867
Zn8	Zn	1.211943	1.178477	-0.178867
O9	O	0.755648	0.578208	-0.578577
O10	O	1.255648	1.078208	-0.078577
O11	O	0.872537	0.504508	-0.652367
O12	O	1.372537	1.004508	-0.152367
O13	O	0.787716	0.652044	-0.310311
O14	O	1.287716	1.152044	0.189689
O15	O	0.723558	0.309950	-0.504878
O16	O	1.223558	0.809950	-0.004878
O17	O	0.872502	0.651991	-0.504929
O18	O	1.372502	1.151991	-0.004929
O19	O	0.787798	0.309910	-0.652338
O20	O	1.287798	0.809910	-0.152338
O21	O	0.723511	0.504600	-0.310289
O22	O	1.223511	1.004600	0.189711
O23	O	0.638775	0.504487	-0.504805
O24	O	1.138775	1.004487	-0.004805
O25	O	0.723563	0.651792	-0.846827
O26	O	1.223563	1.151792	-0.346827
O27	O	0.638778	0.651845	-0.652209
O28	O	1.138778	1.151845	-0.152209
O29	O	0.787802	0.504395	-0.846883
O30	O	1.287802	1.004395	-0.346883
O31	O	0.787719	0.846528	-0.504856
O32	O	1.287719	1.346528	-0.004856
O33	O	0.723517	0.846442	-0.652238
O34	O	1.223517	1.346442	-0.152238
C35	C	0.755627	0.890032	-0.578568
C36	C	1.255627	1.390032	-0.078568
C37	C	0.755666	1.023432	-0.578605
C38	C	1.255666	1.523432	-0.078605
C39	C	0.619805	0.578160	-0.578496
C40	C	1.119805	1.078160	-0.078496
C41	C	0.561691	0.578169	-0.578490
C42	C	1.061691	1.078169	-0.078490
C43	C	0.755688	0.578074	-0.891620
C44	C	1.255688	1.078074	-0.391620
C45	C	0.755705	0.578018	-1.025020
C46	C	1.255705	1.078018	-0.525020
C47	C	0.201339	0.655065	-0.655258
C48	C	0.701339	1.155065	-0.155258
C49	C	0.146734	0.655073	-0.655277
C50	C	0.646734	1.155073	-0.155277
O51	O	0.118506	0.720393	-0.720479
O52	O	0.618506	1.220393	-0.220479
N53	N	0.119409	0.578241	-0.578656
N54	N	0.619409	1.078241	-0.078656
C55	C	0.146691	0.501388	-0.502019
C56	C	0.646691	1.001388	-0.002019
O57	O	0.118435	0.436037	-0.436850
O58	O	0.618435	0.936037	0.063150
C59	C	0.201294	0.501376	-0.502007
C60	C	0.701294	1.001376	-0.002007
C61	C	0.228617	0.578221	-0.578625
C62	C	0.728617	1.078221	-0.078625
C63	C	0.228661	0.731903	-0.731870
C64	C	0.728661	1.231903	-0.231870
C65	C	0.283262	0.731897	-0.731849
C66	C	0.783262	1.231897	-0.231849
C67	C	0.310540	0.655053	-0.655216
C68	C	0.810540	1.155053	-0.155216
C69	C	0.283217	0.578215	-0.578604
C70	C	0.783217	1.078215	-0.078604
C71	C	0.228575	0.424518	-0.425378
C72	C	0.728575	0.924518	0.074622
C73	C	0.283182	0.424511	-0.425373
C74	C	0.783182	0.924511	0.074627
C75	C	0.310505	0.501357	-0.501991
C76	C	0.810505	1.001357	-0.001991
C77	C	0.365096	0.501365	-0.501950
C78	C	0.865096	1.001365	-0.001950
N79	N	0.392421	0.578196	-0.578571
N80	N	0.892421	1.078196	-0.078571
C81	C	0.365143	0.655041	-0.655204
C82	C	0.865143	1.155041	-0.155204
C83	C	0.032020	0.501419	-0.502052
C84	C	0.532020	1.001419	-0.002052
C85	C	-0.022582	0.501436	-0.502057
C86	C	0.477418	1.001436	-0.002057
C87	C	-0.022535	0.655119	-0.655316
C88	C	0.477465	1.155119	-0.155316
C89	C	0.032068	0.655107	-0.655304
C90	C	0.532068	1.155107	-0.155304
C91	C	0.059345	0.578250	-0.578673
C92	C	0.559345	1.078250	-0.078673
C93	C	0.479808	0.655023	-0.655154
C94	C	0.979808	1.155023	-0.155154
C95	C	0.534413	0.655013	-0.655123
C96	C	1.034413	1.155013	-0.155123
C97	C	0.534361	0.501326	-0.501868
C98	C	1.034361	1.001326	-0.001868
C99	C	0.479761	0.501340	-0.501895
C100	C	0.979761	1.001340	-0.001895
C101	C	0.452485	0.578192	-0.578547
C102	C	0.952485	1.078192	-0.078547
O103	O	0.393359	0.436073	-0.436785
O104	O	0.893359	0.936073	0.063215
O105	O	0.393406	0.720370	-0.720374
O106	O	0.893406	1.220370	-0.220374
C107	C	0.892021	0.578256	-0.578660
C108	C	1.392021	1.078256	-0.078660
C109	C	0.950135	0.578277	-0.578695
C110	C	1.450135	1.078277	-0.078695
C111	C	0.755683	0.265165	-0.578613
C112	C	1.255683	0.765165	-0.078613
C113	C	0.755698	0.131765	-0.578628
C114	C	1.255698	0.631765	-0.078628
C115	C	0.755638	0.578254	-0.266753
C116	C	1.255638	1.078254	0.233247
C117	C	0.755722	0.577973	-0.133353
C118	C	1.255722	1.077973	0.366647
H119	H	0.556657	0.717595	-0.717515
H120	H	1.056657	1.217595	-0.217515
H121	H	0.457607	0.717600	-0.717575
H122	H	0.957607	1.217600	-0.217575
Br123	Br	0.191509	0.320214	-0.321397
Br124	Br	0.691509	0.820214	0.178603
H125	H	-0.044755	0.717687	-0.717719
H126	H	0.455245	1.217687	-0.217719
H127	H	0.054311	0.717680	-0.717695
H128	H	0.554311	1.217680	-0.217695
Br129	Br	0.571392	0.397043	-0.397871
Br130	Br	1.071392	0.897043	0.102129
H131	H	0.206457	0.794480	-0.794281
H132	H	0.706457	1.294480	-0.294281
Br133	Br	0.320198	0.320196	-0.321371
Br134	Br	0.820198	0.820196	0.178629
H135	H	0.305503	0.794470	-0.794242
H136	H	0.805503	1.294470	-0.294242
Br137	Br	0.442679	0.397072	-0.397890
Br138	Br	0.942679	0.897072	0.102110
Br139	Br	-0.059656	0.397161	-0.398053
Br140	Br	0.440344	0.897161	0.101947
H141	H	0.054226	0.438834	-0.439641
H142	H	0.554226	0.938834	0.060359
