data_functionalizedCrystal
_audit_creation_method	'MofGen! by Chris Wilmer'
_symmetry_space_group_name_H-M	'P1'
_symmetry_Int_Tables_number	1
_symmetry_cell_setting	triclinic
loop_
_symmetry_equiv_pos_as_xyz
  x,y,z
_cell_length_a	27.732064
_cell_length_b	14.519709
_cell_length_c	13.596369
_cell_angle_alpha	89.999709
_cell_angle_beta	89.998103
_cell_angle_gamma	96.835216
loop_
_atom_site_label
_atom_site_type_symbol
_atom_site_fract_x
_atom_site_fract_y
_atom_site_fract_z
O1	O	0.063362	-1.222773	-0.081654
O2	O	0.070823	-0.954167	-0.081683
O3	O	-0.003264	-1.096805	-0.081672
O4	O	0.137449	-1.080136	-0.081666
O5	O	-0.003268	-1.096791	0.081911
O6	O	0.070819	-0.954153	0.081900
O7	O	0.063358	-1.222759	0.081929
Zn8	Zn	0.067088	-1.088454	0.107887
Zn9	Zn	0.067093	-1.088473	-0.107641
O10	O	0.137445	-1.080122	0.081917
C11	C	0.070473	-0.919807	0.000104
C12	C	0.069431	-0.817443	0.000093
C13	C	-0.021274	-1.096445	0.000117
C14	C	-0.074934	-1.095385	0.000107
C15	C	0.063707	-1.257120	0.000139
C16	C	0.064749	-1.359483	0.000144
C17	C	-0.452444	-1.003873	0.000094
C18	C	-0.250765	-1.007776	0.000093
O19	O	-0.219852	-0.936766	0.000046
N20	N	-0.231233	-1.092358	0.000102
C21	C	-0.262125	-1.175969	0.000105
O22	O	-0.240884	-1.248000	0.000102
C23	C	-0.463803	-1.172064	0.000099
C24	C	-0.483331	-1.087477	0.000099
C25	C	-0.471973	-0.919293	0.000094
C26	C	-0.522390	-0.918318	0.000099
C27	C	-0.553278	-1.001922	0.000105
C28	C	-0.533748	-1.086502	0.000105
C29	C	-0.494693	-1.255675	0.000094
C30	C	-0.545115	-1.254691	0.000090
C31	C	-0.564644	-1.170104	0.000091
C32	C	-0.615053	-1.169132	0.000116
N33	N	-0.634584	-1.084551	0.000107
C34	C	-0.603697	-1.000946	0.000102
C35	C	-0.156241	-1.178013	0.000110
C36	C	-0.105821	-1.178990	0.000113
C37	C	-0.094465	-1.010797	0.000100
C38	C	-0.144885	-1.009821	0.000103
C39	C	-0.175772	-1.093432	0.000101
C40	C	-0.709576	-0.998905	0.000114
C41	C	-0.759998	-0.997937	0.000124
C42	C	-0.771350	-1.166130	0.000132
C43	C	-0.720932	-1.167098	0.000128
C44	C	-0.690046	-1.083478	0.000115
O45	O	-0.645994	-1.240105	0.000152
O46	O	-0.624947	-0.928925	0.000082
C47	C	-0.402027	-1.004848	0.000088
C48	C	-0.382498	-1.089428	0.000088
C49	C	-0.413385	-1.173032	0.000094
C50	C	-0.332079	-1.090404	0.000092
C51	C	-0.301191	-1.006799	0.000086
C52	C	-0.320723	-0.922218	0.000077
C53	C	-0.371140	-0.921243	0.000082
C54	C	-0.393854	-1.257614	0.000103
C55	C	-0.343436	-1.258582	0.000099
C56	C	-0.312549	-1.174977	0.000093
C57	C	0.155455	-1.080481	0.000127
C58	C	0.209115	-1.081542	0.000130
N59	N	0.067084	-1.088448	0.254978
C60	C	0.065595	-0.442614	0.000138
C61	C	0.066661	-0.546903	0.000125
C62	C	0.067513	-0.630025	0.000114
C63	C	0.068579	-0.734321	0.000104
N64	N	0.067093	-1.088486	-0.254733
C65	C	0.067094	-1.088471	0.656269
C66	C	0.067093	-1.088462	0.544618
C67	C	0.067089	-1.088460	0.455627
C68	C	0.067087	-1.088450	0.343969
H69	H	-0.775895	-0.929053	0.000129
F70	F	-0.322659	-1.348617	0.000099
H71	H	-0.684434	-0.930813	0.000104
H72	H	-0.478802	-1.324554	0.000093
H73	H	-0.418998	-1.325697	0.000107
H74	H	-0.387035	-0.852364	0.000084
F75	F	-0.085043	-1.269018	0.000127
H76	H	-0.295565	-0.854144	0.000078
H77	H	-0.570262	-1.322779	0.000083
H78	H	-0.538285	-0.849438	0.000091
H79	H	-0.160782	-0.940943	0.000108
F80	F	-0.189108	-1.267009	0.000112
F81	F	-0.700148	-1.257124	0.000158
H82	H	-0.796507	-1.234198	0.000142
H83	H	-0.446829	-0.851208	0.000086
H84	H	-0.069308	-0.942722	0.000099
