data_functionalizedCrystal
_audit_creation_method	'MofGen! by Chris Wilmer'
_symmetry_space_group_name_H-M	'P1'
_symmetry_Int_Tables_number	1
_symmetry_cell_setting	triclinic
loop_
_symmetry_equiv_pos_as_xyz
  x,y,z
_cell_length_a	12.759395
_cell_length_b	12.827892
_cell_length_c	12.827885
_cell_angle_alpha	90.029786
_cell_angle_beta	89.981133
_cell_angle_gamma	89.983071
loop_
_atom_site_label
_atom_site_type_symbol
_atom_site_fract_x
_atom_site_fract_y
_atom_site_fract_z
Zn1	Zn	1.606247	0.415940	-0.590837
Zn2	Zn	2.106247	0.915940	-0.090837
Zn3	Zn	1.606140	0.590717	-0.416098
Zn4	Zn	2.106140	1.090717	0.083902
Zn5	Zn	1.430550	0.415995	-0.416112
Zn6	Zn	1.930550	0.915995	0.083888
Zn7	Zn	1.430535	0.590644	-0.590799
Zn8	Zn	1.930535	1.090644	-0.090799
O9	O	1.518368	0.503324	-0.503462
O10	O	2.018368	1.003324	-0.003462
O11	O	1.753254	0.439131	-0.567668
O12	O	2.253254	0.939131	-0.067668
O13	O	1.582809	0.567594	-0.269864
O14	O	2.082809	1.067594	0.230136
O15	O	1.453907	0.269752	-0.439312
O16	O	1.953907	0.769752	0.060688
O17	O	1.753175	0.567540	-0.439287
O18	O	2.253175	1.067540	0.060713
O19	O	1.582991	0.269711	-0.567682
O20	O	2.082991	0.769711	-0.067682
O21	O	1.453804	0.439226	-0.269874
O22	O	1.953804	0.939226	0.230126
O23	O	1.283527	0.439156	-0.439275
O24	O	1.783527	0.939156	0.060725
O25	O	1.453882	0.567415	-0.737040
O26	O	1.953882	1.067415	-0.237040
O27	O	1.283516	0.567469	-0.567616
O28	O	1.783516	1.067469	-0.067616
O29	O	1.582976	0.439061	-0.737068
O30	O	2.082976	0.939061	-0.237068
O31	O	1.582795	0.736943	-0.439250
O32	O	2.082795	1.236943	0.060750
O33	O	1.453779	0.736890	-0.567602
O34	O	1.953779	1.236890	-0.067602
C35	C	1.518302	0.774834	-0.503443
C36	C	2.018302	1.274834	-0.003443
C37	C	1.518370	0.890987	-0.503470
C38	C	2.018370	1.390987	-0.003470
C39	C	1.245400	0.503311	-0.503444
C40	C	1.745400	1.003311	-0.003444
C41	C	1.128624	0.503331	-0.503461
C42	C	1.628624	1.003331	-0.003461
C43	C	1.518439	0.503224	-0.776032
C44	C	2.018439	1.003224	-0.276032
C45	C	1.518470	0.503181	-0.892185
C46	C	2.018470	1.003181	-0.392185
C47	C	1.128651	0.637160	-0.636887
C48	C	1.628651	1.137160	-0.136887
C49	C	1.073804	0.704083	-0.703602
C50	C	1.573804	1.204083	-0.203602
C51	C	0.964082	0.704096	-0.703615
C52	C	1.464082	1.204096	-0.203615
C53	C	0.909205	0.637176	-0.636907
C54	C	1.409205	1.137176	-0.136907
C55	C	0.964052	0.570253	-0.570191
C56	C	1.464052	1.070253	-0.070191
C57	C	1.073777	0.570250	-0.570183
C58	C	1.573777	1.070250	-0.070183
C59	C	0.964025	0.436420	-0.436772
C60	C	1.464025	0.936420	0.063228
C61	C	1.073747	0.436411	-0.436753
C62	C	1.573747	0.936411	0.063247
C63	C	0.909148	0.369501	-0.370064
C64	C	1.409148	0.869501	0.129936
C65	C	0.963995	0.302582	-0.303341
C66	C	1.463995	0.802582	0.196659
C67	C	1.073724	0.302573	-0.303331
C68	C	1.573724	0.802573	0.196669
C69	C	1.128594	0.369489	-0.370037
C70	C	1.628594	0.869489	0.129963
C71	C	1.792401	0.503337	-0.503480
C72	C	2.292401	1.003337	-0.003480
C73	C	1.909178	0.503343	-0.503488
C74	C	2.409178	1.003343	-0.003488
C75	C	1.518463	0.230754	-0.503503
C76	C	2.018463	0.730754	-0.003503
C77	C	1.518503	0.114601	-0.503521
C78	C	2.018503	0.614601	-0.003521
C79	C	1.582287	0.942764	-0.440028
C80	C	2.082287	1.442764	0.059972
C81	C	1.582359	1.062814	-0.440054
C82	C	2.082359	1.562814	0.059946
C83	C	1.582357	0.439654	-0.943984
C84	C	2.082357	0.939654	-0.443984
C85	C	1.582390	0.439609	-1.064034
C86	C	2.082390	0.939609	-0.564034
C87	C	1.518357	0.503348	-0.231952
C88	C	2.018357	1.003348	0.268048
C89	C	1.518530	0.503097	-0.115799
C90	C	2.018530	1.003097	0.384201
H91	H	1.217992	0.637164	-0.636875
H92	H	1.717992	1.137164	-0.136875
O93	O	1.654716	0.883772	-0.368053
O94	O	2.154716	1.383772	0.131947
H95	H	1.737189	0.904581	-0.386050
H96	H	2.237189	1.404581	0.113950
O97	O	1.654781	0.367659	-0.885003
O98	O	2.154781	0.867659	-0.385003
H99	H	1.636813	0.285612	-0.905893
H100	H	2.136813	0.785612	-0.405893
H101	H	0.819864	0.637183	-0.636933
H102	H	1.319864	1.137183	-0.136933
O103	O	1.132983	0.776257	-0.775558
O104	O	1.632983	1.276257	-0.275558
H105	H	1.111956	0.758425	-0.857603
H106	H	1.611956	1.258425	-0.357603
H107	H	1.637089	0.385225	-1.108580
H108	H	2.137089	0.885225	-0.608580
O109	O	1.246937	0.369488	-0.370026
O110	O	1.746937	0.869488	0.129974
H111	H	1.275860	0.311717	-0.312424
H112	H	1.775860	0.811717	0.187576
O113	O	1.654852	1.121776	-0.368098
O114	O	2.154852	1.621776	0.131902
H115	H	1.737303	1.100788	-0.386070
H116	H	2.237303	1.600788	0.113930
H117	H	1.463835	0.557491	-1.071260
H118	H	1.963835	1.057491	-0.571260
H119	H	0.819807	0.369512	-0.370084
H120	H	1.319807	0.869512	0.129916
H121	H	1.463792	0.557527	-0.936715
H122	H	1.963792	1.057527	-0.436715
H123	H	1.463774	1.070082	-0.557835
H124	H	1.963774	1.570082	-0.057835
H125	H	0.919426	0.758585	-0.757946
H126	H	1.419426	1.258585	-0.257946
O127	O	0.904796	0.230435	-0.231385
O128	O	1.404796	0.730435	0.268615
H129	H	0.854827	0.177335	-0.278250
H130	H	1.354827	0.677335	0.221750
O131	O	1.132881	0.230402	-0.231361
O132	O	1.632881	0.730402	0.268639
H133	H	1.076284	0.183885	-0.184974
H134	H	1.576284	0.683885	0.315026
O135	O	1.445942	0.949989	-0.575437
O136	O	1.945942	1.449989	-0.075437
H137	H	1.493006	0.999646	-0.628607
H138	H	1.993006	1.499646	-0.128607
