data_functionalizedCrystal
_audit_creation_method	'MofGen! by Chris Wilmer'
_symmetry_space_group_name_H-M	'P1'
_symmetry_Int_Tables_number	1
_symmetry_cell_setting	triclinic
loop_
_symmetry_equiv_pos_as_xyz
  x,y,z
_cell_length_a	12.827893
_cell_length_b	12.827892
_cell_length_c	18.215399
_cell_angle_alpha	89.976162
_cell_angle_beta	89.982485
_cell_angle_gamma	90.015553
loop_
_atom_site_label
_atom_site_type_symbol
_atom_site_fract_x
_atom_site_fract_y
_atom_site_fract_z
Zn1	Zn	1.597653	-0.416039	-0.416091
Zn2	Zn	1.597552	-0.590799	-0.293034
Zn3	Zn	1.422900	-0.416073	-0.293044
Zn4	Zn	1.422880	-0.590739	-0.416064
O5	O	1.510246	-0.503412	-0.354558
O6	O	1.743876	-0.439232	-0.399775
O7	O	1.574350	-0.567659	-0.190051
O8	O	1.446132	-0.269832	-0.309382
O9	O	1.743802	-0.567627	-0.309365
O10	O	1.574522	-0.269808	-0.399784
O11	O	1.446034	-0.439289	-0.190058
O12	O	1.276661	-0.439232	-0.309355
O13	O	1.446098	-0.567526	-0.519052
O14	O	1.276647	-0.567559	-0.399738
O15	O	1.574504	-0.439175	-0.519072
O16	O	1.574331	-0.737027	-0.309338
O17	O	1.446000	-0.736983	-0.399728
C18	C	1.238736	-0.503393	-0.354545
C19	C	1.122583	-0.503410	-0.354557
C20	C	0.950775	-0.567026	-0.399223
C21	C	1.070825	-0.567010	-0.399212
C22	C	1.510181	-0.774922	-0.354545
C23	C	1.510249	-0.891075	-0.354564
C24	C	1.573826	-0.942847	-0.309886
C25	C	1.573898	-1.062897	-0.309905
C26	C	1.782816	-0.503433	-0.354572
C27	C	1.898970	-0.503441	-0.354578
C28	C	1.510310	-0.503340	-0.546511
C29	C	1.510337	-0.503310	-0.628310
C30	C	1.510340	-0.230842	-0.354587
C31	C	1.510381	-0.114689	-0.354600
C32	C	1.577222	-0.436415	-0.816516
C33	C	1.577234	-0.436384	-0.893375
C34	C	1.443526	-0.570043	-0.893342
C35	C	1.443509	-0.570068	-0.816485
C36	C	1.510363	-0.503255	-0.778074
C37	C	1.510392	-0.503200	-0.931790
C38	C	1.510405	-0.503167	-1.015124
C39	C	1.510349	-0.503286	-0.694735
C40	C	1.510243	-0.503409	-0.163352
C41	C	1.510418	-0.503145	-0.081553
H42	H	1.078039	-0.448966	-0.316336
N43	N	1.438211	-0.950071	-0.405255
H44	H	1.480717	-0.995289	-0.439365
H45	H	1.389889	-0.995366	-0.375244
N46	N	1.371440	-0.642116	-0.934774
H47	H	1.329081	-0.684462	-0.898757
H48	H	1.323098	-0.599571	-0.966666
N49	N	0.957937	-0.431302	-0.303944
H50	H	0.906872	-0.388868	-0.274153
H51	H	1.003200	-0.473806	-0.269858
N52	N	1.371373	-0.642142	-0.775016
H53	H	1.329024	-0.684463	-0.811010
H54	H	1.413872	-0.690518	-0.743116
N55	N	1.129835	-0.639123	-0.449840
H56	H	1.110876	-0.713786	-0.438332
H57	H	1.110908	-0.622923	-0.502436
N58	N	0.891807	-0.639146	-0.449870
H59	H	0.942873	-0.681576	-0.479663
H60	H	0.846495	-0.687419	-0.419833
N61	N	1.645870	-0.883845	-0.259203
H62	H	1.635609	-0.806448	-0.266376
H63	H	1.629679	-0.902927	-0.206623
N64	N	1.645991	-1.121870	-0.259232
H65	H	1.694379	-1.167090	-0.289204
H66	H	1.688300	-1.070746	-0.229410
H67	H	1.631655	-0.382008	-0.785244
N68	N	1.438276	-1.055723	-0.405270
H69	H	1.454456	-1.074600	-0.457877
H70	H	1.363642	-1.074761	-0.393746
H71	H	1.631676	-0.381954	-0.924671
