data_functionalizedCrystal
_audit_creation_method	'MofGen! by Chris Wilmer'
_symmetry_space_group_name_H-M	'P1'
_symmetry_Int_Tables_number	1
_symmetry_cell_setting	triclinic
loop_
_symmetry_equiv_pos_as_xyz
  x,y,z
_cell_length_a	6.817900
_cell_length_b	16.418055
_cell_length_c	10.943624
_cell_angle_alpha	93.817505
_cell_angle_beta	108.838799
_cell_angle_gamma	103.389726
loop_
_atom_site_label
_atom_site_type_symbol
_atom_site_fract_x
_atom_site_fract_y
_atom_site_fract_z
V1	V	-4.087786	-0.115863	-0.402999
O2	O	-4.074541	0.005590	-0.394867
O3	O	-4.038498	-0.229759	-0.400686
O4	O	-4.066177	-0.114071	-0.578559
O5	O	-4.046670	-0.110899	-0.215763
V6	V	-4.568058	-0.101337	-0.380550
O7	O	-4.356177	-0.147728	-0.452242
O8	O	-4.749864	-0.069473	-0.331307
O9	O	-4.394139	0.012559	-0.382863
O10	O	-4.698700	-0.222791	-0.388683
O11	O	-4.726571	-0.106302	-0.567787
O12	O	-4.366460	-0.103129	-0.204991
C13	C	-3.882416	-0.257525	-0.394443
C14	C	-3.923582	-0.350636	-0.393723
C15	C	-4.240036	-0.656622	-0.397916
C16	C	-4.201364	-0.569133	-0.398572
C17	C	-3.835169	-0.560589	-0.385634
C18	C	-3.873838	-0.648076	-0.384968
C19	C	-4.076280	-0.696091	-0.391116
C20	C	-3.998938	-0.521114	-0.392438
C21	C	-3.957007	-0.426254	-0.393150
C22	C	-4.118213	-0.790958	-0.390402
C23	C	-3.917722	-0.109952	-0.621335
C24	C	-3.981332	-0.109241	-0.764859
C25	C	-3.827308	-0.104449	-0.841988
C26	C	-3.999655	-0.175580	-0.948253
C27	C	-3.922352	-0.036850	-0.914330
C28	C	-4.152874	-0.180438	-0.869248
C29	C	-4.075505	-0.041646	-0.835301
C30	C	-4.247984	-0.112797	-0.941536
C31	C	-4.213563	0.040320	-0.389103
C32	C	-4.151636	0.133430	-0.389832
C33	C	-4.178256	-0.107251	-0.162207
C34	C	-4.093884	-0.107958	-0.018682
H35	H	-3.740476	-0.680212	-0.379429
H36	H	-4.426450	-0.116344	-0.984795
H37	H	-3.825512	0.023820	-0.934858
C38	C	-3.586330	-0.099811	-0.783259
N39	N	-3.404832	-0.096323	-0.739022
C40	C	-3.612488	-0.507764	-0.378869
N41	N	-3.444761	-0.467977	-0.373774
H42	H	-4.106825	0.014979	-0.786098
H43	H	-4.334713	-0.537001	-0.404106
C44	C	-3.957230	-0.252068	-1.014691
N45	N	-3.925259	-0.309675	-1.064729
C46	C	-4.283715	-0.262513	-0.841816
N47	N	-4.382254	-0.324333	-0.821150
C48	C	-4.462718	-0.709434	-0.404663
N49	N	-4.630445	-0.749210	-0.409740
