data_functionalizedCrystal
_audit_creation_method	'MofGen! by Chris Wilmer'
_symmetry_space_group_name_H-M	'P1'
_symmetry_Int_Tables_number	1
_symmetry_cell_setting	triclinic
loop_
_symmetry_equiv_pos_as_xyz
  x,y,z
_cell_length_a	14.044220
_cell_length_b	17.038272
_cell_length_c	13.101039
_cell_angle_alpha	93.604737
_cell_angle_beta	86.340132
_cell_angle_gamma	92.150217
loop_
_atom_site_label
_atom_site_type_symbol
_atom_site_fract_x
_atom_site_fract_y
_atom_site_fract_z
O1	O	1.277881	0.185592	-0.085106
O2	O	1.611214	0.518925	0.248227
O3	O	1.944547	0.852259	0.581560
O4	O	1.001361	0.178751	-0.085132
O5	O	1.334695	0.512084	0.248201
O6	O	1.668028	0.845417	0.581535
O7	O	1.137977	0.068241	-0.085111
O8	O	1.471310	0.401575	0.248222
O9	O	1.804644	0.734908	0.581555
O10	O	1.141265	0.296101	-0.085127
O11	O	1.474598	0.629435	0.248206
O12	O	1.807931	0.962768	0.581540
O13	O	1.128176	0.076185	0.085317
O14	O	1.461509	0.409518	0.418650
O15	O	1.794843	0.742851	0.751984
O16	O	0.991560	0.186694	0.085296
O17	O	1.324894	0.520027	0.418630
O18	O	1.658227	0.853360	0.751963
O19	O	1.268080	0.193535	0.085322
O20	O	1.601413	0.526869	0.418655
O21	O	1.934746	0.860202	0.751989
Zn22	Zn	1.128264	0.191376	0.112368
Zn23	Zn	1.461597	0.524709	0.445702
Zn24	Zn	1.794931	0.858042	0.779035
Zn25	Zn	1.141177	0.180910	-0.112178
Zn26	Zn	1.474510	0.514244	0.221155
Zn27	Zn	1.807844	0.847577	0.554488
O28	O	1.131464	0.304045	0.085301
O29	O	1.464797	0.637378	0.418635
O30	O	1.798131	0.970711	0.751968
C31	C	0.960905	0.179728	0.000079
C32	C	1.294238	0.513061	0.333412
C33	C	1.627572	0.846394	0.666745
C34	C	0.854960	0.170796	0.000069
C35	C	1.188293	0.504129	0.333402
C36	C	1.521626	0.837463	0.666736
C37	C	0.660980	0.154468	0.000091
C38	C	0.994314	0.487802	0.333424
C39	C	1.327647	0.821135	0.666757
C40	C	0.608455	0.217813	0.000090
C41	C	0.941789	0.551147	0.333424
C42	C	1.275122	0.884480	0.666757
C43	C	0.500518	0.208729	0.000102
C44	C	0.833852	0.542062	0.333436
C45	C	1.167185	0.875395	0.666769
C46	C	0.768927	0.163552	0.000079
C47	C	1.102260	0.496885	0.333412
C48	C	1.435594	0.830219	0.666745
C49	C	1.130087	0.042876	0.000103
C50	C	1.463420	0.376209	0.333436
C51	C	1.796754	0.709542	0.666769
C52	C	1.121168	-0.044541	0.000101
C53	C	1.454501	0.288792	0.333435
C54	C	1.787835	0.622125	0.666768
C55	C	1.203056	-0.088926	0.000110
C56	C	1.536389	0.244407	0.333444
C57	C	1.869722	0.577740	0.666777
C58	C	1.194670	-0.171064	0.000100
C59	C	1.528004	0.162269	0.333433
C60	C	1.861337	0.495603	0.666766
C61	C	1.104396	-0.208815	0.000088
C62	C	1.437729	0.124518	0.333421
C63	C	1.771062	0.457852	0.666754
C64	C	1.022502	-0.164424	0.000076
C65	C	1.355835	0.168909	0.333409
C66	C	1.689169	0.502243	0.666743
C67	C	1.030889	-0.082288	0.000079
C68	C	1.364222	0.251045	0.333412
C69	C	1.697555	0.584379	0.666746
C70	C	1.074767	-0.456646	0.000071
C71	C	1.408100	-0.123313	0.333404
C72	C	1.741433	0.210020	0.666738
C73	C	1.066386	-0.538788	0.000071
C74	C	1.399719	-0.205455	0.333404
C75	C	1.733052	0.127879	0.666738
C76	C	1.238555	-0.545423	0.000093
C77	C	1.571888	-0.212089	0.333426
C78	C	1.905222	0.121244	0.666759
C79	C	1.246934	-0.463285	0.000102
C80	C	1.580267	-0.129951	0.333435
C81	C	1.913600	0.203382	0.666769
C82	C	1.165040	-0.418901	0.000085
C83	C	1.498374	-0.085568	0.333418
C84	C	1.831707	0.247765	0.666751
C85	C	1.095822	-0.292773	0.000080
C86	C	1.429155	0.040561	0.333414
C87	C	1.762489	0.373894	0.666747
C88	C	1.173615	-0.334945	0.000085
C89	C	1.506948	-0.001612	0.333418
C90	C	1.840282	0.331721	0.666752
C91	C	1.308536	0.192558	0.000109
C92	C	1.641869	0.525891	0.333442
C93	C	1.975203	0.859225	0.666776
C94	C	1.414482	0.201490	0.000112
C95	C	1.747815	0.534823	0.333445
C96	C	2.081148	0.868156	0.666779
C97	C	1.139354	0.329410	0.000085
C98	C	1.472687	0.662744	0.333419
C99	C	1.806021	0.996077	0.666752
C100	C	1.148273	0.416827	0.000080
C101	C	1.481607	0.750160	0.333413
C102	C	1.814940	1.083493	0.666746
N103	N	1.119458	0.198518	0.265616
N104	N	1.452791	0.531852	0.598949
N105	N	1.786125	0.865185	0.932282
N106	N	1.149990	0.173762	-0.265426
N107	N	1.483323	0.507095	0.067908
N108	N	1.816657	0.840429	0.401241
C109	C	1.107478	0.208243	0.474656
C110	C	1.440811	0.541576	0.807990
C111	C	1.774144	0.874910	1.141323
C112	C	1.161967	0.164040	0.525540
C113	C	1.495301	0.497373	0.858874
C114	C	1.828634	0.830706	1.192207
C115	C	1.155301	0.169451	0.641858
C116	C	1.488635	0.502784	0.975191
C117	C	1.821968	0.836117	1.308524
C118	C	1.114143	0.202833	0.358328
C119	C	1.447476	0.536166	0.691662
C120	C	1.780809	0.869500	1.024995
H121	H	0.644550	0.278868	0.000081
H122	H	0.977884	0.612201	0.333415
H123	H	1.311217	0.945534	0.666748
H124	H	0.992869	-0.569521	0.000078
H125	H	1.326202	-0.236188	0.333411
H126	H	1.659535	0.097145	0.666744
Cl127	Cl	1.242109	0.099663	0.457931
Cl128	Cl	1.575443	0.432997	0.791264
Cl129	Cl	1.908776	0.766330	1.124598
H130	H	0.624887	0.093419	0.000100
H131	H	0.958221	0.426752	0.333434
H132	H	1.291554	0.760086	0.666767
Cl133	Cl	1.316549	-0.041476	0.000136
Cl134	Cl	1.649882	0.291857	0.333469
Cl135	Cl	1.983216	0.625191	0.666802
Cl136	Cl	1.297620	-0.226859	0.000114
Cl137	Cl	1.630954	0.106474	0.333447
Cl138	Cl	1.964287	0.439808	0.666780
H139	H	1.055826	0.250148	0.518445
H140	H	1.389159	0.583482	0.851779
H141	H	1.722492	0.916815	1.185112
H142	H	1.320445	-0.432554	0.000112
H143	H	1.653778	-0.099221	0.333445
H144	H	1.987111	0.234113	0.666779
H145	H	1.305228	-0.581568	0.000105
H146	H	1.638561	-0.248235	0.333438
H147	H	1.971894	0.085098	0.666771
H148	H	1.008083	-0.420519	0.000057
H149	H	1.341416	-0.087186	0.333391
H150	H	1.674749	0.246148	0.666724
H151	H	1.022320	-0.323518	0.000073
H152	H	1.355653	0.009815	0.333406
H153	H	1.688986	0.343148	0.666739
Cl154	Cl	0.909014	-0.211883	0.000048
Cl155	Cl	1.242347	0.121450	0.333382
Cl156	Cl	1.575680	0.454784	0.666715
H157	H	0.964207	-0.046151	0.000072
H158	H	1.297540	0.287183	0.333405
H159	H	1.630873	0.620516	0.666738
H160	H	1.247118	-0.304206	0.000072
H161	H	1.580451	0.029127	0.333405
H162	H	1.913784	0.362460	0.666739
