data_functionalizedCrystal
_audit_creation_method	'MofGen! by Chris Wilmer'
_symmetry_space_group_name_H-M	'P1'
_symmetry_Int_Tables_number	1
_symmetry_cell_setting	triclinic
loop_
_symmetry_equiv_pos_as_xyz
  x,y,z
_cell_length_a	16.974800
_cell_length_b	23.532357
_cell_length_c	15.455313
_cell_angle_alpha	92.642146
_cell_angle_beta	90.973911
_cell_angle_gamma	83.110074
loop_
_atom_site_label
_atom_site_type_symbol
_atom_site_fract_x
_atom_site_fract_y
_atom_site_fract_z
O1	O	1.048489	0.072598	0.001487
O2	O	0.818986	0.081295	-0.014633
O3	O	0.940678	-0.005947	-0.006068
O4	O	0.926797	0.159840	-0.007078
O5	O	0.933719	-0.000979	0.137705
O6	O	0.812027	0.086264	0.129140
O7	O	1.041530	0.077566	0.145259
Cu8	Cu	0.926143	0.082369	0.150327
Cu9	Cu	0.934373	0.076493	-0.019700
O10	O	0.919838	0.164809	0.136694
C11	C	0.786151	0.083358	0.055192
C12	C	0.698679	0.082094	0.049049
C13	C	0.653796	0.084207	0.124536
C14	C	0.571609	0.083011	0.118766
C15	C	0.534306	0.079705	0.037510
C16	C	0.579195	0.077590	-0.037982
C17	C	0.661381	0.078782	-0.032212
C18	C	0.288913	0.075845	0.011848
C19	C	0.206720	0.074654	0.006084
C20	C	0.199140	0.080074	0.162833
C21	C	0.281328	0.081270	0.168596
C22	C	0.326210	0.079151	0.093104
N23	N	0.450297	0.078484	0.031610
N24	N	0.410218	0.080368	0.099004
C25	C	0.936851	-0.024681	0.065797
C26	C	0.935807	-0.087905	0.065732
C27	C	0.933048	-0.482664	-0.013146
C28	C	0.932056	-0.542069	-0.013220
O29	O	0.934742	-0.575092	-0.079909
N30	N	0.927770	-0.569075	0.065114
C31	C	0.924469	-0.536671	0.143528
O32	O	0.920732	-0.565097	0.210151
C33	C	0.925456	-0.477267	0.143602
C34	C	0.929749	-0.450265	0.065262
C35	C	0.937340	-0.455662	-0.091478
C36	C	0.938334	-0.396261	-0.091403
C37	C	0.935035	-0.363862	-0.012995
C38	C	0.930743	-0.390864	0.065338
C39	C	0.922149	-0.444864	0.222014
C40	C	0.923135	-0.385455	0.222081
C41	C	0.927429	-0.358454	0.143742
C42	C	0.928438	-0.299064	0.143821
N43	N	0.932723	-0.272058	0.065486
C44	C	0.936022	-0.304457	-0.012922
C45	C	0.922396	-0.661425	0.143368
C46	C	0.921415	-0.720829	0.143296
C47	C	0.929000	-0.726223	-0.013453
C48	C	0.929987	-0.666818	-0.013379
C49	C	0.926681	-0.634420	0.065034
C50	C	0.938109	-0.179710	-0.012758
C51	C	0.939105	-0.120304	-0.012676
C52	C	0.931516	-0.114916	0.144072
C53	C	0.930523	-0.174317	0.143990
C54	C	0.933818	-0.206713	0.065568
O55	O	0.925751	-0.266005	0.210475
O56	O	0.939748	-0.276023	-0.079534
C57	C	1.074365	0.075504	0.075433
C58	C	1.161837	0.076768	0.081570
C59	C	0.923665	0.183543	0.064828
C60	C	0.924710	0.246767	0.064887
N61	N	0.920361	0.086501	0.269916
N62	N	0.940161	0.072356	-0.139288
C63	C	0.972077	0.049451	0.318950
C64	C	0.967712	0.052581	0.409450
C65	C	0.911632	0.092765	0.450915
C66	C	0.859910	0.129816	0.401875
C67	C	0.864273	0.126683	0.311375
C68	C	0.892802	0.106274	0.721172
C69	C	0.888445	0.109406	0.811677
C70	C	0.996246	0.032170	0.819247
C71	C	1.000606	0.029043	0.728746
C72	C	0.948882	0.066092	0.679713
N73	N	0.907170	0.095966	0.543422
N74	N	0.953341	0.062887	0.587208
H75	H	0.942603	-0.098323	-0.076472
O76	O	1.054989	-0.010176	0.688696
C77	C	1.041366	-0.065716	0.710248
H78	H	0.977019	-0.065112	0.730584
H79	H	1.053567	-0.096488	0.651569
H80	H	1.082495	-0.080459	0.766017
H81	H	0.941827	-0.374281	-0.155196
H82	H	0.548817	0.074895	-0.104143
O83	O	0.917935	-0.470990	0.298189
C84	C	0.915250	-0.429645	0.367399
H85	H	0.892123	-0.385774	0.342705
H86	H	0.874038	-0.441354	0.419502
H87	H	0.977414	-0.428374	0.395955
O88	O	0.842638	0.142349	0.673598
C89	C	0.853916	0.199515	0.696577
H90	H	0.915807	0.200777	0.725861
H91	H	0.847482	0.226023	0.636405
H92	H	0.807578	0.217970	0.746045
H93	H	1.009823	0.022412	0.449374
O94	O	0.805361	0.168865	0.442011
C95	C	0.760661	0.200902	0.379324
H96	H	0.763074	0.175317	0.314773
H97	H	0.696400	0.210365	0.401059
H98	H	0.786362	0.242929	0.371448
H99	H	0.176350	0.071964	-0.060089
H100	H	0.325447	0.074118	-0.049623
O101	O	0.940650	-0.487199	-0.167588
C102	C	1.008578	-0.528054	-0.167539
H103	H	1.027887	-0.536734	-0.097906
H104	H	0.994145	-0.569540	-0.201855
H105	H	1.058628	-0.510926	-0.202816
H106	H	0.920431	-0.359078	0.285935
H107	H	0.919707	-0.635050	0.207226
H108	H	0.927035	-0.196304	0.207781
H109	H	1.038357	0.002006	0.859178
H110	H	0.697924	0.077063	-0.093681
O111	O	0.833855	0.148379	0.851916
C112	C	0.756993	0.138198	0.824344
H113	H	0.758187	0.091740	0.799476
H114	H	0.714530	0.146720	0.881092
H115	H	0.736110	0.167902	0.770170
O116	O	0.934119	-0.640678	-0.089557
C117	C	0.936842	-0.682022	-0.158770
H118	H	0.910077	-0.721257	-0.137592
H119	H	0.901516	-0.663195	-0.216254
H120	H	1.001133	-0.695046	-0.178433
O121	O	0.317584	0.084576	0.247506
C122	C	0.355589	0.134696	0.254859
H123	H	0.326451	0.167245	0.208187
H124	H	0.350045	0.153643	0.324020
H125	H	0.421002	0.123730	0.238318
H126	H	0.917931	-0.742810	0.207089
H127	H	0.684162	0.086904	0.190703
H128	H	0.931684	-0.752613	-0.077297
H129	H	0.928834	-0.088526	0.207910
H130	H	0.162588	0.081797	0.224294
O131	O	0.941335	-0.211091	-0.089012
C132	C	0.945309	-0.174507	-0.158128
H133	H	0.969868	-0.133697	-0.133339
H134	H	0.985925	-0.197113	-0.210290
H135	H	0.883348	-0.163130	-0.186643
H136	H	1.017746	0.016732	0.285195
H137	H	0.822159	0.156852	0.271452
H138	H	0.535071	0.084722	0.180235
