data_functionalizedCrystal
_audit_creation_method	'MofGen! by Chris Wilmer'
_symmetry_space_group_name_H-M	'P1'
_symmetry_Int_Tables_number	1
_symmetry_cell_setting	triclinic
loop_
_symmetry_equiv_pos_as_xyz
  x,y,z
_cell_length_a	10.685661
_cell_length_b	13.032721
_cell_length_c	10.686551
_cell_angle_alpha	86.664748
_cell_angle_beta	99.072787
_cell_angle_gamma	93.385035
loop_
_atom_site_label
_atom_site_type_symbol
_atom_site_fract_x
_atom_site_fract_y
_atom_site_fract_z
Zn1	Zn	1.927423	-0.479092	0.934383
Zn2	Zn	1.884785	-0.662991	0.748304
Zn3	Zn	1.698851	-0.479140	0.705915
Zn4	Zn	1.692414	-0.638450	0.940772
O5	O	1.800868	-0.564918	0.832343
O6	O	2.097933	-0.513737	0.924766
O7	O	1.844970	-0.648893	0.566517
O8	O	1.749709	-0.335499	0.715808
O9	O	2.066607	-0.648847	0.788054
O10	O	1.917640	-0.335464	0.883663
O11	O	1.708365	-0.513818	0.535374
O12	O	1.521831	-0.490022	0.722002
O13	O	1.738738	-0.607021	1.116088
O14	O	1.517102	-0.607067	0.894551
O15	O	1.911398	-0.489941	1.111394
O16	O	1.838729	-0.803370	0.794248
O17	O	1.697394	-0.785340	0.935654
C18	C	1.473788	-0.545887	0.804371
C19	C	1.333861	-0.537769	0.792438
C20	C	1.762773	-0.831598	0.870274
C21	C	1.746594	-0.945689	0.886553
C22	C	1.809384	-1.005441	0.823909
C23	C	1.792664	-1.123360	0.840733
C24	C	2.129225	-0.584024	0.860426
C25	C	2.269151	-0.592166	0.872393
C26	C	1.829106	-0.545738	1.160696
C27	C	1.841140	-0.537565	1.300620
C28	C	1.839149	-0.297198	0.794295
C29	C	1.855462	-0.183111	0.778080
C30	C	1.772823	-0.583954	0.505264
C31	C	1.761074	-0.591852	0.365320
H32	H	1.875524	-0.969301	0.757827
C33	C	2.017767	-0.417801	1.282858
C34	C	1.946119	-0.466376	1.370345
H35	H	2.082579	-0.373859	1.325908
H36	H	1.964171	-0.378310	1.221308
H37	H	2.055160	-0.468295	1.242042
H38	H	1.908718	-0.415882	1.411155
H39	H	1.999724	-0.505870	1.431918
C40	C	1.251373	-0.712116	1.048705
C41	C	1.338868	-0.663430	0.977137
H42	H	1.294417	-0.756104	1.113372
H43	H	1.189761	-0.751574	0.995029
H44	H	1.210618	-0.661685	1.086267
H45	H	1.379617	-0.713861	0.939567
H46	H	1.400503	-0.623970	1.030821
C47	C	1.704093	-1.279509	0.929351
C48	C	1.703376	-1.172136	0.929955
H49	H	1.648965	-1.309620	0.984427
H50	H	1.787788	-1.300793	0.957550
H51	H	1.675991	-1.300935	0.845665
H52	H	1.731487	-1.150710	1.013640
H53	H	1.619663	-1.150844	0.901762
H54	H	1.282215	-0.484978	0.714862
H55	H	1.921606	-1.146974	0.711994
C56	C	1.602457	-0.916672	1.030486
C57	C	1.657315	-0.994468	0.975777
H58	H	1.547346	-0.946786	1.085576
H59	H	1.555505	-0.875316	0.965568
H60	H	1.667320	-0.875164	1.077435
H61	H	1.592452	-1.035971	0.928819
H62	H	1.704269	-1.035841	1.040704
C63	C	1.711270	-0.737441	1.235426
C64	C	1.656108	-0.663038	1.295592
H65	H	1.646465	-0.781383	1.192366
H66	H	1.764850	-0.776930	1.296994
H67	H	1.759888	-0.704464	1.176098
H68	H	1.607496	-0.696015	1.354927
H69	H	1.602506	-0.623544	1.234017
