data_functionalizedCrystal
_audit_creation_method	'MofGen! by Chris Wilmer'
_symmetry_space_group_name_H-M	'P1'
_symmetry_Int_Tables_number	1
_symmetry_cell_setting	triclinic
loop_
_symmetry_equiv_pos_as_xyz
  x,y,z
_cell_length_a	19.288864
_cell_length_b	16.109301
_cell_length_c	15.186229
_cell_angle_alpha	90.005167
_cell_angle_beta	90.017200
_cell_angle_gamma	83.298863
loop_
_atom_site_label
_atom_site_type_symbol
_atom_site_fract_x
_atom_site_fract_y
_atom_site_fract_z
O1	O	0.921595	0.103714	0.073514
O2	O	1.421595	0.603714	0.573514
O3	O	0.719368	0.117705	0.073454
O4	O	1.219368	0.617705	0.573454
O5	O	0.826037	-0.010341	0.073477
O6	O	1.326037	0.489659	0.573477
O7	O	0.814926	0.231759	0.073491
O8	O	1.314926	0.731759	0.573491
O9	O	0.826029	-0.010343	-0.072981
O10	O	1.326029	0.489657	0.427019
O11	O	0.719361	0.117703	-0.073003
O12	O	1.219361	0.617703	0.426997
O13	O	0.921588	0.103712	-0.072943
O14	O	1.421588	0.603712	0.427057
Zn15	Zn	0.820473	0.110707	-0.096227
Zn16	Zn	1.320473	0.610707	0.403773
Zn17	Zn	0.820482	0.110709	0.096737
Zn18	Zn	1.320482	0.610709	0.596737
O19	O	0.814919	0.231757	-0.072966
O20	O	1.314919	0.731757	0.427034
C21	C	0.693487	0.117254	0.000218
C22	C	1.193487	0.617254	0.500218
C23	C	0.616380	0.115902	0.000194
C24	C	1.116380	0.615902	0.500194
C25	C	0.571863	0.191034	0.000213
C26	C	1.071863	0.691034	0.500213
C27	C	0.499413	0.189764	0.000222
C28	C	0.999413	0.689764	0.500222
C29	C	0.471483	0.113359	0.000231
C30	C	0.971483	0.613359	0.500231
C31	C	0.516009	0.038218	0.000208
C32	C	1.016009	0.538218	0.500208
C33	C	0.588458	0.039489	0.000190
C34	C	1.088458	0.539489	0.500190
C35	C	0.363080	0.053296	0.051568
C36	C	0.863080	0.553296	0.551568
C37	C	0.290632	0.052028	0.051592
C38	C	0.790632	0.552028	0.551592
C39	C	0.248028	0.109433	0.000284
C40	C	0.748028	0.609433	0.500284
C41	C	0.277878	0.168121	-0.051035
C42	C	0.777878	0.668121	0.448965
C43	C	0.350327	0.169393	-0.051054
C44	C	0.850327	0.669393	0.448946
C45	C	0.392925	0.111971	0.000251
C46	C	0.892925	0.611971	0.500251
C47	C	0.124952	0.183193	0.000312
C48	C	0.624952	0.683193	0.500312
C49	C	0.052501	0.181920	0.000316
C50	C	0.552501	0.681920	0.500316
C51	C	0.069099	0.030372	0.000311
C52	C	0.569099	0.530372	0.500311
C53	C	0.141548	0.031647	0.000298
C54	C	0.641548	0.531647	0.500298
C55	C	0.169470	0.108060	0.000303
C56	C	0.669470	0.608060	0.500303
C57	C	0.825583	-0.041315	0.000247
C58	C	1.325583	0.458685	0.500247
C59	C	0.824234	-0.133606	0.000246
C60	C	1.324234	0.366394	0.500246
C61	C	0.884391	-0.356084	0.000277
C62	C	1.384391	0.143916	0.500277
C63	C	0.883118	-0.442800	0.000284
C64	C	1.383118	0.057200	0.500284
C65	C	0.756559	-0.422493	0.000243
C66	C	1.256559	0.077507	0.500243
C67	C	0.757833	-0.335778	0.000243
C68	C	1.257833	0.164222	0.500243
C69	C	0.821751	-0.302577	0.000255
C70	C	1.321751	0.197423	0.500255
C71	C	0.819204	-0.476007	0.000263
C72	C	1.319204	0.023993	0.500263
C73	C	0.817823	-0.570028	0.000270
C74	C	1.317823	-0.070028	0.500270
C75	C	0.823133	-0.208549	0.000250
C76	C	1.323133	0.291451	0.500250
C77	C	0.947469	0.104163	0.000295
C78	C	1.447469	0.604163	0.500295
C79	C	1.024576	0.105514	0.000324
C80	C	1.524576	0.605514	0.500324
C81	C	0.815372	0.262732	0.000265
C82	C	1.315372	0.762732	0.500265
C83	C	0.816722	0.355022	0.000273
C84	C	1.316722	0.855022	0.500273
N85	N	0.820472	0.110705	-0.227919
N86	N	1.320472	0.610705	0.272081
C87	C	0.867721	0.054025	-0.453632
C88	C	1.367721	0.554025	0.046368
C89	C	0.867723	0.054023	-0.545822
C90	C	1.367723	0.554023	-0.045822
C91	C	0.773235	0.167387	-0.545851
C92	C	1.273235	0.667387	-0.045851
C93	C	0.773230	0.167385	-0.453663
C94	C	1.273230	0.667385	0.046337
C95	C	0.820477	0.110705	-0.407556
C96	C	1.320477	0.610705	0.092444
C97	C	0.820484	0.110705	-0.591934
C98	C	1.320484	0.610705	-0.091934
C99	C	0.820486	0.110704	-0.691890
C100	C	1.320486	0.610704	-0.191890
C101	C	0.820474	0.110705	-0.307593
C102	C	1.320474	0.610705	0.192407
N103	N	0.820489	0.110705	0.228430
N104	N	1.320489	0.610705	0.728430
H105	H	0.147687	0.245413	0.000303
H106	H	0.647687	0.745413	0.500303
H107	H	0.046359	-0.031839	0.000373
H108	H	0.546359	0.468161	0.500373
H109	H	0.704519	-0.449537	0.000231
H110	H	1.204519	0.050463	0.500231
N111	N	0.953329	-0.320274	0.000292
N112	N	1.453329	0.179726	0.500292
H113	H	0.980773	-0.339796	0.054594
H114	H	1.480773	0.160204	0.554594
H115	H	0.944575	-0.257227	0.000251
H116	H	1.444575	0.242773	0.500251
H117	H	0.906191	0.007872	-0.416094
H118	H	1.406191	0.507872	0.083906
H119	H	0.934126	-0.486363	0.000304
H120	H	1.434126	0.013637	0.500304
N121	N	0.722265	0.228518	-0.403966
N122	N	1.222265	0.728518	0.096034
H123	H	0.730248	0.287505	-0.419994
H124	H	1.230248	0.787505	0.080006
H125	H	0.729453	0.219842	-0.338585
H126	H	1.229453	0.719842	0.161415
H127	H	0.706821	-0.292210	0.000227
H128	H	1.206821	0.207790	0.500227
N129	N	0.918688	-0.007097	-0.595519
N130	N	1.418688	0.492903	-0.095519
H131	H	0.948619	-0.042997	-0.552319
H132	H	1.448619	0.457003	-0.052319
H133	H	0.949381	0.024653	-0.633744
H134	H	1.449381	0.524653	-0.133744
H135	H	0.266334	0.004244	0.093383
H136	H	0.766334	0.504244	0.593383
H137	H	0.397763	0.006548	0.093354
H138	H	0.897763	0.506548	0.593354
H139	H	0.177795	-0.029534	0.000287
H140	H	0.677795	0.470466	0.500287
N141	N	0.722278	0.228518	-0.595581
N142	N	1.222278	0.728518	-0.095581
H143	H	0.729450	0.219922	-0.660974
H144	H	1.229450	0.719922	-0.160974
H145	H	0.730286	0.287475	-0.579454
H146	H	1.230286	0.787475	-0.079454
H147	H	0.463160	0.250947	0.000235
H148	H	0.963160	0.750947	0.500235
N149	N	0.601979	0.273446	0.000224
N150	N	1.101979	0.773446	0.500224
H151	H	0.562779	0.320850	0.000240
H152	H	1.062779	0.820850	0.500240
H153	H	0.631656	0.277283	-0.054074
H154	H	1.131656	0.777283	0.445926
H155	H	0.493264	-0.023992	0.000227
H156	H	0.993264	0.476008	0.500227
H157	H	0.243191	0.214866	-0.092815
H158	H	0.743191	0.714866	0.407185
N159	N	0.382529	0.232677	-0.106407
N160	N	0.882529	0.732677	0.393593
H161	H	0.363526	0.290957	-0.087251
H162	H	0.863526	0.790957	0.412749
H163	H	0.370738	0.224635	-0.170412
H164	H	0.870738	0.724635	0.329588
N165	N	0.004481	0.262959	0.000266
N166	N	0.504481	0.762959	0.500266
H167	H	0.033167	0.311555	0.000247
H168	H	0.533167	0.811555	0.500247
H169	H	-0.025945	0.265770	0.054544
H170	H	0.474055	0.765770	0.554544
H171	H	0.624704	-0.021694	0.000175
H172	H	1.124704	0.478306	0.500175
