data_functionalizedCrystal
_audit_creation_method	'MofGen! by Chris Wilmer'
_symmetry_space_group_name_H-M	'P1'
_symmetry_Int_Tables_number	1
_symmetry_cell_setting	triclinic
loop_
_symmetry_equiv_pos_as_xyz
  x,y,z
_cell_length_a	21.395362
_cell_length_b	11.169416
_cell_length_c	21.395355
_cell_angle_alpha	90.011418
_cell_angle_beta	90.043940
_cell_angle_gamma	90.026029
loop_
_atom_site_label
_atom_site_type_symbol
_atom_site_fract_x
_atom_site_fract_y
_atom_site_fract_z
Zn1	Zn	0.957949	-0.477437	0.354617
Zn2	Zn	0.957889	-0.678108	0.249852
Zn3	Zn	0.853164	-0.477493	0.249818
Zn4	Zn	0.853171	-0.678133	0.354557
O5	O	0.905543	-0.577793	0.302211
O6	O	1.045619	-0.504023	0.340759
O7	O	0.943969	-0.651509	0.162170
O8	O	0.867086	-0.309536	0.263730
O9	O	1.045575	-0.651455	0.263789
O10	O	0.944071	-0.309495	0.340725
O11	O	0.867028	-0.504118	0.162144
O12	O	0.765487	-0.504142	0.263672
O13	O	0.867098	-0.651497	0.442243
O14	O	0.765492	-0.651551	0.340624
O15	O	0.944078	-0.504047	0.442287
O16	O	0.943976	-0.846061	0.263731
O17	O	0.867040	-0.846079	0.340657
C18	C	0.742755	-0.577856	0.302138
C19	C	0.673114	-0.577912	0.302122
C20	C	0.905519	-0.889618	0.302205
C21	C	0.905566	-1.023018	0.302223
C22	C	0.640420	-0.654770	0.342130
C23	C	0.574985	-0.654741	0.342158
C24	C	0.542246	-0.577866	0.302167
C25	C	0.574948	-0.500994	0.262155
C26	C	0.640382	-0.501017	0.262133
C27	C	0.438519	-0.568198	0.245761
C28	C	0.373086	-0.568183	0.245782
C29	C	0.340425	-0.577788	0.302236
C30	C	0.373205	-0.587433	0.358670
C31	C	0.438639	-0.587456	0.358648
C32	C	0.471294	-0.577832	0.302187
C33	C	0.236779	-0.654618	0.342278
C34	C	0.171342	-0.654580	0.342307
C35	C	0.171306	-0.500839	0.262298
C36	C	0.236742	-0.500871	0.262275
C37	C	0.269474	-0.577766	0.302264
C38	C	1.068966	-0.577730	0.302284
C39	C	1.138608	-0.577703	0.302315
C40	C	0.905595	-0.577769	0.465634
C41	C	0.905617	-0.577758	0.535275
C42	C	0.905585	-0.264751	0.302231
C43	C	0.905602	-0.131351	0.302239
C44	C	0.905527	-0.577731	0.139423
C45	C	0.905627	-0.577403	0.069782
C46	C	0.945699	-0.500978	0.568012
C47	C	0.945698	-0.500926	0.633448
C48	C	0.905622	-0.577676	0.666144
C49	C	0.865533	-0.654462	0.633399
C50	C	0.865530	-0.654503	0.567965
C51	C	0.900666	-0.685744	0.769815
C52	C	0.900673	-0.685705	0.835248
C53	C	0.905626	-0.577550	0.867965
C54	C	0.910585	-0.469429	0.835241
C55	C	0.910583	-0.469470	0.769806
C56	C	0.905620	-0.577640	0.737096
C57	C	0.945709	-0.500707	0.971654
C58	C	0.945704	-0.500653	1.037091
C59	C	0.865541	-0.654200	1.037041
C60	C	0.865543	-0.654243	0.971605
C61	C	0.905631	-0.577498	0.938916
H62	H	0.667067	-0.717383	0.374694
H63	H	0.978336	-0.438396	0.660108
F64	F	0.675179	-0.419210	0.219549
H65	H	0.548360	-0.717327	0.374740
H66	H	0.263430	-0.717225	0.374843
F67	F	0.988361	-0.419294	0.533226
F68	F	0.136547	-0.736380	0.384895
F69	F	0.136468	-0.419017	0.219739
H70	H	0.263362	-0.438291	0.229692
F71	F	0.473523	-0.597715	0.418707
H72	H	0.346402	-0.560337	0.199830
H73	H	0.465107	-0.560371	0.199786
H74	H	0.832904	-0.716679	1.063661
H75	H	0.548288	-0.438400	0.229595
H76	H	0.346614	-0.595252	0.404640
F77	F	0.915857	-0.354404	0.734982
F78	F	0.822868	-0.736227	0.533123
H79	H	0.914619	-0.381359	0.861877
H80	H	0.896639	-0.773744	0.861887
F81	F	0.822879	-0.736142	0.668197
F82	F	0.988370	-0.419025	0.936862
F83	F	0.988374	-0.418942	1.071932
F84	F	0.822884	-0.735969	0.936763
H85	H	0.896466	-0.773795	0.743182
