data_functionalizedCrystal
_audit_creation_method	'MofGen! by Chris Wilmer'
_symmetry_space_group_name_H-M	'P1'
_symmetry_Int_Tables_number	1
_symmetry_cell_setting	triclinic
loop_
_symmetry_equiv_pos_as_xyz
  x,y,z
_cell_length_a	16.959455
_cell_length_b	12.645330
_cell_length_c	16.959447
_cell_angle_alpha	89.971796
_cell_angle_beta	89.985678
_cell_angle_gamma	90.009593
loop_
_atom_site_label
_atom_site_type_symbol
_atom_site_fract_x
_atom_site_fract_y
_atom_site_fract_z
Zn1	Zn	1.208425	-0.422105	-0.446920
Zn2	Zn	1.208364	-0.599396	-0.314747
Zn3	Zn	1.076253	-0.422138	-0.314758
Zn4	Zn	1.076235	-0.599317	-0.446885
O5	O	1.142319	-0.510739	-0.380828
O6	O	1.319027	-0.445642	-0.429397
O7	O	1.190822	-0.575930	-0.204137
O8	O	1.093819	-0.273786	-0.332309
O9	O	1.318983	-0.575898	-0.332290
O10	O	1.190925	-0.273762	-0.429408
O11	O	1.093760	-0.445699	-0.204145
O12	O	0.965640	-0.445622	-0.332275
O13	O	1.093788	-0.575763	-0.557501
O14	O	0.965626	-0.575795	-0.429348
O15	O	1.190907	-0.445565	-0.557527
O16	O	1.190804	-0.747733	-0.332256
O17	O	1.093729	-0.747675	-0.429337
C18	C	0.936953	-0.510704	-0.380809
C19	C	0.849096	-0.510715	-0.380820
C20	C	0.477603	-0.442903	-0.330387
C21	C	0.477638	-0.578663	-0.431313
C22	C	0.560184	-0.578648	-0.431308
C23	C	0.601443	-0.510760	-0.380841
C24	C	0.560157	-0.442888	-0.330379
C25	C	0.601477	-0.646526	-0.481764
C26	C	0.684028	-0.646515	-0.481761
C27	C	0.725289	-0.578621	-0.431297
C28	C	0.683997	-0.510745	-0.380833
C29	C	0.725256	-0.442857	-0.330366
C30	C	0.683966	-0.374975	-0.279906
C31	C	0.601418	-0.374994	-0.279915
C32	C	0.807837	-0.578602	-0.431288
C33	C	0.807810	-0.442842	-0.330358
C34	C	1.142280	-0.786169	-0.380809
C35	C	1.142335	-0.903999	-0.380827
C36	C	1.203307	-1.071555	-0.319629
C37	C	1.203505	-0.948995	-0.319779
C38	C	1.164917	-0.948380	-0.464146
C39	C	1.165401	-1.070978	-0.463821
C40	C	1.058757	-1.071321	-0.359528
C41	C	1.059158	-0.948717	-0.357659
C42	C	1.348487	-0.510775	-0.380846
C43	C	1.436344	-0.510790	-0.380854
C44	C	1.142352	-0.510651	-0.586996
C45	C	1.142366	-0.510614	-0.674852
C46	C	1.142380	-0.234234	-0.380864
C47	C	1.142407	-0.116404	-0.380879
C48	C	1.091895	-0.578290	-1.046317
C49	C	1.193026	-0.442715	-1.046339
C50	C	1.193005	-0.442737	-0.963793
C51	C	1.142429	-0.510538	-0.922506
C52	C	1.091874	-0.578317	-0.963764
C53	C	1.243565	-0.374967	-0.922529
C54	C	1.243546	-0.374988	-0.839978
C55	C	1.192966	-0.442784	-0.798689
C56	C	1.142408	-0.510565	-0.839952
C57	C	1.091832	-0.578366	-0.798664
C58	C	1.041270	-0.646142	-0.839926
C59	C	1.041293	-0.646113	-0.922475
C60	C	1.192942	-0.442813	-0.716140
C61	C	1.091811	-0.578393	-0.716111
C62	C	1.142332	-0.510750	-0.175461
C63	C	1.142471	-0.510489	-0.087605
H64	H	0.841452	-0.633874	-0.472369
N65	N	0.989636	-0.715333	-0.964610
N66	N	0.944469	-0.775850	-0.927740
H67	H	0.907980	-0.824729	-0.957500
N68	N	0.999151	-0.910328	-0.409514
N69	N	0.929070	-0.938003	-0.399708
H70	H	0.886691	-0.910893	-0.436336
H71	H	0.567877	-0.701804	-0.522846
H72	H	1.038220	-1.102330	-0.299830
H73	H	1.189377	-0.918993	-0.257999
N74	N	0.435420	-0.373565	-0.278855
N75	N	0.361716	-0.373577	-0.278870
H76	H	0.331922	-0.324607	-0.242476
H77	H	1.265462	-0.919591	-0.333901
H78	H	1.122987	-1.100641	-0.511029
N79	N	0.435497	-0.647991	-0.482872
N80	N	0.444738	-0.641072	-0.555817
H81	H	0.414974	-0.690037	-0.592235
N82	N	0.726188	-0.715859	-0.533306
N83	N	0.689339	-0.776468	-0.578360
H84	H	0.719115	-0.825442	-0.614766
H85	H	0.841397	-0.387553	-0.289266
H86	H	1.189356	-1.101109	-0.257669
H87	H	0.567792	-0.319729	-0.238832
H88	H	0.717570	-0.319706	-0.238812
N89	N	1.242098	-1.106780	-0.486507
N90	N	1.250220	-1.163360	-0.546375
H91	H	1.304389	-1.188642	-0.562396
N92	N	1.280611	-1.110117	-0.337151
N93	N	1.291046	-1.170485	-0.394552
H94	H	1.345642	-1.197722	-0.406930
H95	H	1.284717	-0.319800	-0.806390
N96	N	1.040249	-0.647504	-1.088472
N97	N	1.040266	-0.647470	-1.162175
H98	H	1.003790	-0.696352	-1.191949
H99	H	1.050618	-0.633596	-0.682500
H100	H	1.121910	-0.919230	-0.511004
H101	H	1.234111	-0.387634	-0.682549
N102	N	1.244688	-0.373479	-1.088522
N103	N	1.244704	-0.373472	-1.162226
H104	H	1.281193	-0.324572	-1.192022
N105	N	1.240749	-0.909757	-0.487225
N106	N	1.252232	-0.812501	-0.493753
H107	H	1.305789	-0.785223	-0.510051
N108	N	1.037806	-0.912343	-0.280736
N109	N	1.083633	-0.853701	-0.243074
H110	H	1.068557	-0.828008	-0.188746
N111	N	1.001840	-1.107710	-0.415495
N112	N	1.022684	-1.166588	-0.470887
H113	H	0.982492	-1.192293	-0.510417
H114	H	1.000094	-0.701350	-0.806299
N115	N	1.295227	-0.305734	-0.964714
N116	N	1.295236	-0.305723	-1.038418
H117	H	1.331725	-0.256825	-1.068215
