data_functionalizedCrystal
_audit_creation_method	'MofGen! by Chris Wilmer'
_symmetry_space_group_name_H-M	'P1'
_symmetry_Int_Tables_number	1
_symmetry_cell_setting	triclinic
loop_
_symmetry_equiv_pos_as_xyz
  x,y,z
_cell_length_a	17.699077
_cell_length_b	17.699104
_cell_length_c	16.176319
_cell_angle_alpha	90.011330
_cell_angle_beta	89.993140
_cell_angle_gamma	96.713953
loop_
_atom_site_label
_atom_site_type_symbol
_atom_site_fract_x
_atom_site_fract_y
_atom_site_fract_z
O1	O	1.004089	-0.095691	-0.068744
O2	O	0.783711	-0.108148	-0.068749
O3	O	0.900118	0.008269	-0.068731
O4	O	0.887682	-0.212107	-0.068761
O5	O	0.900102	0.008276	0.068762
O6	O	0.783695	-0.108140	0.068744
O7	O	1.004073	-0.095683	0.068749
Cu8	Cu	0.893882	-0.101911	0.081301
Cu9	Cu	0.893901	-0.101920	-0.081301
O10	O	0.887666	-0.212100	0.068732
C11	C	0.755506	-0.107698	-0.000003
C12	C	0.671487	-0.106362	-0.000004
C13	C	0.632011	-0.105728	0.074944
C14	C	0.553068	-0.104460	0.074945
C15	C	0.513603	-0.103831	-0.000003
C16	C	0.553085	-0.104463	-0.074957
C17	C	0.632027	-0.105725	-0.074957
C18	C	0.234721	-0.099369	-0.074958
C19	C	0.155773	-0.098109	-0.074952
C20	C	0.155763	-0.098104	0.074945
C21	C	0.234705	-0.099366	0.074945
C22	C	0.274180	-0.099994	-0.000009
C23	C	0.359779	-0.101368	-0.000009
C24	C	0.428005	-0.102463	-0.000004
C25	C	0.899661	0.036469	0.000017
C26	C	0.898317	0.120487	0.000023
C27	C	0.959061	0.645359	0.000037
C28	C	0.960320	0.566415	0.000039
C29	C	0.891984	0.517796	0.000036
C30	C	0.822385	0.548125	0.000040
C31	C	0.821127	0.627067	0.000044
C32	C	0.827458	0.229759	0.000025
C33	C	0.828722	0.150811	0.000019
C34	C	0.966651	0.169107	0.000020
C35	C	0.965393	0.248049	0.000024
C36	C	0.895794	0.278371	0.000032
C37	C	0.894430	0.363971	0.000032
C38	C	0.893348	0.432198	0.000031
C39	C	1.032278	-0.096133	0.000001
C40	C	1.116296	-0.097469	-0.000003
N41	N	0.893875	-0.101904	0.195666
C42	C	0.888122	0.759700	-0.000002
C43	C	0.889467	0.675682	0.000038
N44	N	0.893915	-0.101920	-0.195666
C45	C	0.945435	-0.050376	0.238938
C46	C	0.945439	-0.050375	0.325485
C47	C	0.893885	-0.101907	0.368759
C48	C	0.842319	-0.153438	0.325481
C49	C	0.842312	-0.153434	0.238935
C50	C	0.842345	-0.153452	0.674509
C51	C	0.842357	-0.153453	0.761061
C52	C	0.945472	-0.050393	0.761059
C53	C	0.945465	-0.050390	0.674514
C54	C	0.893896	-0.101917	0.631243
C55	C	0.893892	-0.101917	0.537399
C56	C	0.893893	-0.101912	0.462601
H57	H	0.520946	-0.103945	-0.135981
H58	H	0.764457	0.651754	0.000052
H59	H	0.664138	-0.106246	0.135976
O60	O	0.995502	-0.000222	0.367424
C61	C	0.983336	0.074690	0.346312
H62	H	0.954152	0.074564	0.283484
H63	H	1.040298	0.112025	0.343339
H64	H	0.945721	0.098057	0.395039
O65	O	0.273024	-0.099840	0.147771
C66	C	0.262406	-0.034014	0.193383
H67	H	0.246783	0.012126	0.149533
H68	H	0.317235	-0.012846	0.227382
H69	H	0.214614	-0.048092	0.240116
O70	O	0.117401	-0.097349	0.147736
C71	C	0.080417	-0.031103	0.152228
H72	H	0.110287	0.014312	0.109702
H73	H	0.082437	-0.009093	0.218521
H74	H	0.018624	-0.044957	0.132093
H75	H	0.987459	-0.008434	0.796299
H76	H	0.773072	0.111227	0.000018
O77	O	0.792303	-0.203595	0.196935
C78	C	0.804457	-0.278505	0.218073
H79	H	0.865052	-0.278801	0.241850
H80	H	0.795677	-0.316498	0.161148
H81	H	0.762472	-0.300791	0.268313
H82	H	0.770787	0.254436	0.000022
H83	H	1.016990	0.541730	0.000039
H84	H	0.123642	-0.097596	-0.135988
O85	O	0.272939	-0.100012	-0.147839
C86	C	0.221177	-0.099168	-0.213986
H87	H	0.161728	-0.122225	-0.192014
H88	H	0.239119	-0.136261	-0.266416
H89	H	0.220830	-0.038338	-0.237018
O90	O	0.670254	-0.106378	-0.147836
C91	C	0.618497	-0.105536	-0.213989
H92	H	0.559045	-0.128586	-0.192019
H93	H	0.636439	-0.142636	-0.266412
H94	H	0.618156	-0.044707	-0.237027
O95	O	1.031754	0.295307	-0.000120
C96	C	1.035154	0.341522	-0.071316
H97	H	0.996403	0.312536	-0.121090
H98	H	1.096139	0.350504	-0.095216
H99	H	1.015669	0.398896	-0.055215
O100	O	0.755954	0.500974	-0.000075
C101	C	0.713709	0.514681	-0.071294
H102	H	0.732407	0.574597	-0.095028
H103	H	0.650572	0.509016	-0.055283
H104	H	0.723986	0.471516	-0.121162
O105	O	1.025513	0.692476	0.000074
C106	C	1.087207	0.648779	0.000054
H107	H	1.067882	0.589829	0.026082
H108	H	1.135074	0.677989	0.039974
H109	H	1.108554	0.643186	-0.065908
O110	O	0.995396	-0.000256	0.196834
C111	C	0.954918	0.046397	0.146837
H112	H	0.895656	0.016150	0.133857
H113	H	0.986525	0.058463	0.085982
H114	H	0.949843	0.102304	0.180240
O115	O	1.034195	0.139526	0.000058
C116	C	1.020659	0.059424	0.000036
H117	H	0.961559	0.040784	0.026068
H118	H	1.065181	0.035272	0.039952
H119	H	1.024290	0.037446	-0.065927
H120	H	0.987447	-0.008430	0.639283
O121	O	0.792197	-0.203538	0.802970
C122	C	0.746690	-0.249028	0.746221
H123	H	0.745887	-0.217998	0.684536
H124	H	0.686232	-0.260643	0.771243
H125	H	0.771152	-0.305227	0.736996
H126	H	0.800358	-0.195409	0.639285
H127	H	0.800339	-0.195394	0.360719
H128	H	0.520932	-0.103931	0.135976
