data_functionalizedCrystal
_audit_creation_method	'MofGen! by Chris Wilmer'
_symmetry_space_group_name_H-M	'P1'
_symmetry_Int_Tables_number	1
_symmetry_cell_setting	triclinic
loop_
_symmetry_equiv_pos_as_xyz
  x,y,z
_cell_length_a	16.120530
_cell_length_b	16.120484
_cell_length_c	16.120297
_cell_angle_alpha	95.614431
_cell_angle_beta	89.871860
_cell_angle_gamma	89.832673
loop_
_atom_site_label
_atom_site_type_symbol
_atom_site_fract_x
_atom_site_fract_y
_atom_site_fract_z
Zn1	Zn	1.224987	0.422264	0.554813
Zn2	Zn	1.558320	0.755598	0.888147
Zn3	Zn	1.891654	1.088931	1.221480
Zn4	Zn	1.224883	0.554948	0.422118
Zn5	Zn	1.558216	0.888282	0.755452
Zn6	Zn	1.891549	1.221615	1.088785
Zn7	Zn	1.093726	0.408180	0.408056
Zn8	Zn	1.427060	0.741513	0.741389
Zn9	Zn	1.760393	1.074847	1.074723
Zn10	Zn	1.078880	0.554181	0.554051
Zn11	Zn	1.412213	0.887514	0.887384
Zn12	Zn	1.745547	1.220848	1.220717
O13	O	1.155619	0.484893	0.484760
O14	O	1.488952	0.818227	0.818093
O15	O	1.822286	1.151560	1.151426
O16	O	1.341009	0.446081	0.543415
O17	O	1.674342	0.779414	0.876749
O18	O	2.007676	1.112747	1.210082
O19	O	1.213654	0.529906	0.303620
O20	O	1.546987	0.863240	0.636953
O21	O	1.880321	1.196573	0.970287
O22	O	1.117395	0.293418	0.421958
O23	O	1.450729	0.626751	0.755291
O24	O	1.784062	0.960084	1.088624
O25	O	1.340932	0.543563	0.445925
O26	O	1.674266	0.876896	0.779258
O27	O	2.007599	1.210230	1.112591
O28	O	1.213832	0.303765	0.529780
O29	O	1.547166	0.637099	0.863113
O30	O	1.880499	0.970432	1.196446
O31	O	1.117294	0.422076	0.293289
O32	O	1.450627	0.755409	0.626622
O33	O	1.783961	1.088743	0.959955
O34	O	0.975721	0.421332	0.421218
O35	O	1.309055	0.754665	0.754552
O36	O	1.642388	1.087998	1.087885
O37	O	1.092092	0.542255	0.670785
O38	O	1.425425	0.875588	1.004118
O39	O	1.758758	1.208922	1.337451
O40	O	0.964814	0.528598	0.528480
O41	O	1.298147	0.861931	0.861813
O42	O	1.631480	1.195265	1.195147
O43	O	1.199436	0.445336	0.671345
O44	O	1.532769	0.778670	1.004678
O45	O	1.866103	1.112003	1.338011
O46	O	1.199258	0.671477	0.445185
O47	O	1.532591	1.004811	0.778519
O48	O	1.865925	1.338144	1.111852
O49	O	1.091990	0.670913	0.542116
O50	O	1.425324	1.004247	0.875449
O51	O	1.758657	1.337580	1.208782
C52	C	0.940181	0.473354	0.473241
C53	C	1.273514	0.806687	0.806574
C54	C	1.606847	1.140021	1.139908
C55	C	0.848013	0.468438	0.468334
C56	C	1.181346	0.801772	0.801667
C57	C	1.514680	1.135105	1.135001
C58	C	1.144023	0.701438	0.495113
C59	C	1.477357	1.034772	0.828446
C60	C	1.810690	1.368105	1.161780
C61	C	1.139137	0.794083	0.499574
C62	C	1.472470	1.127416	0.832907
C63	C	1.805804	1.460749	1.166241
C64	C	0.679262	0.459445	0.459381
C65	C	1.012595	0.792778	0.792715
C66	C	1.345928	1.126111	1.126048
C67	C	0.632810	0.510407	0.510202
C68	C	0.966144	0.843740	0.843535
C69	C	1.299477	1.177073	1.176868
C70	C	0.538911	0.505403	0.505220
C71	C	0.872245	0.838736	0.838554
C72	C	1.205578	1.172069	1.171887
C73	C	0.773169	0.464448	0.464361
C74	C	1.106503	0.797781	0.797695
C75	C	1.439836	1.131114	1.131028
C76	C	1.144119	0.495281	0.702152
C77	C	1.477453	0.828614	1.035485
C78	C	1.810786	1.161948	1.368818
C79	C	1.139219	0.499708	0.794791
C80	C	1.472552	0.833041	1.128125
C81	C	1.805886	1.166374	1.461458
C82	C	1.371899	0.496479	0.496324
C83	C	1.705232	0.829812	0.829657
C84	C	2.038565	1.163145	1.162990
C85	C	1.464064	0.501416	0.501252
C86	C	1.797398	0.834749	0.834585
C87	C	2.130731	1.168082	1.167918
C88	C	1.167282	0.267505	0.474385
C89	C	1.500615	0.600838	0.807718
C90	C	1.833948	0.934172	1.141052
C91	C	1.172251	0.174867	0.469964
C92	C	1.505585	0.508200	0.803297
C93	C	1.838918	0.841534	1.136631
C94	C	1.130220	0.963706	0.507736
C95	C	1.463553	1.297039	0.841070
C96	C	1.796887	1.630372	1.174403
C97	C	1.181166	1.005249	0.461804
C98	C	1.514499	1.338583	0.795138
C99	C	1.847833	1.671916	1.128471
C100	C	1.176204	1.099633	0.466346
C101	C	1.509538	1.432967	0.799679
C102	C	1.842871	1.766300	1.133012
C103	C	1.135180	0.869313	0.503196
C104	C	1.468514	1.202646	0.836529
C105	C	1.801847	1.535980	1.169863
C106	C	1.167125	0.474489	0.268213
C107	C	1.500458	0.807822	0.601546
C108	C	1.833791	1.141155	0.934879
C109	C	1.172198	0.469836	0.175571
C110	C	1.505532	0.803169	0.508904
C111	C	1.838865	1.136502	0.842237
C112	C	1.130243	0.507770	0.964403
C113	C	1.463576	0.841103	1.297736
C114	C	1.796909	1.174436	1.631069
C115	C	1.181172	0.461776	1.005965
C116	C	1.514505	0.795110	1.339298
C117	C	1.847839	1.128443	1.672632
C118	C	1.176177	0.466262	1.100342
C119	C	1.509511	0.799595	1.433676
C120	C	1.842844	1.132929	1.767009
C121	C	1.135236	0.503285	0.870017
C122	C	1.468569	0.836618	1.203350
C123	C	1.801903	1.169952	1.536683
H124	H	0.663563	0.557794	0.557453
H125	H	0.996896	0.891127	0.890786
H126	H	1.330230	1.224461	1.224119
H127	H	1.082881	0.999022	0.550467
H128	H	1.416214	1.332355	0.883800
H129	H	1.749547	1.665688	1.217134
H130	H	0.648511	0.412060	0.412135
H131	H	0.981844	0.745394	0.745468
H132	H	1.315178	1.078727	1.078801
O133	O	1.067521	0.564390	1.011147
O134	O	1.400854	0.897723	1.344480
O135	O	1.734187	1.231057	1.677814
H136	H	1.073399	0.559073	1.079013
H137	H	1.406733	0.892406	1.412346
H138	H	1.740066	1.225740	1.745680
H139	H	1.228508	0.969931	0.419069
H140	H	1.561841	1.303264	0.752402
H141	H	1.895175	1.636597	1.085736
O142	O	1.243909	0.405163	0.959221
O143	O	1.577242	0.738496	1.292555
O144	O	1.910576	1.071830	1.625888
H145	H	1.238045	0.410488	0.891355
H146	H	1.571379	0.743821	1.224689
H147	H	1.904712	1.077155	1.558022
