data_functionalizedCrystal
_audit_creation_method	'MofGen! by Chris Wilmer'
_symmetry_space_group_name_H-M	'P1'
_symmetry_Int_Tables_number	1
_symmetry_cell_setting	triclinic
loop_
_symmetry_equiv_pos_as_xyz
  x,y,z
_cell_length_a	12.759401
_cell_length_b	12.759400
_cell_length_c	12.759393
_cell_angle_alpha	89.968436
_cell_angle_beta	90.018567
_cell_angle_gamma	89.986272
loop_
_atom_site_label
_atom_site_type_symbol
_atom_site_fract_x
_atom_site_fract_y
_atom_site_fract_z
Zn1	Zn	1.606255	0.418231	0.593983
Zn2	Zn	2.106255	0.918231	1.093983
Zn3	Zn	1.606150	0.593950	0.418303
Zn4	Zn	2.106150	1.093950	0.918303
Zn5	Zn	1.430557	0.418283	0.418323
Zn6	Zn	1.930557	0.918283	0.918323
Zn7	Zn	1.430546	0.593866	0.593945
Zn8	Zn	1.930546	1.093866	1.093945
O9	O	1.518377	0.506082	0.506138
O10	O	2.018377	1.006082	1.006138
O11	O	1.753262	0.441554	0.570687
O12	O	2.253262	0.941554	1.070687
O13	O	1.582818	0.570704	0.271285
O14	O	2.082818	1.070704	0.771285
O15	O	1.453913	0.271255	0.441648
O16	O	1.953913	0.771255	0.941648
O17	O	1.753185	0.570654	0.441616
O18	O	2.253185	1.070654	0.941616
O19	O	1.582998	0.271217	0.570706
O20	O	2.082998	0.771217	1.070706
O21	O	1.453811	0.441642	0.271299
O22	O	1.953811	0.941642	0.771299
O23	O	1.283535	0.441560	0.441611
O24	O	1.783535	0.941560	0.941611
O25	O	1.453894	0.570511	0.740971
O26	O	1.953894	1.070511	1.240971
O27	O	1.283527	0.570561	0.570640
O28	O	1.783527	1.070561	1.070640
O29	O	1.582987	0.441473	0.740999
O30	O	2.082987	0.941473	1.240999
O31	O	1.582807	0.740960	0.441579
O32	O	2.082807	1.240960	0.941579
O33	O	1.453791	0.740898	0.570621
O34	O	1.953791	1.240898	1.070621
C35	C	1.245410	0.506058	0.506124
C36	C	1.745410	1.006058	1.006124
C37	C	1.128633	0.506072	0.506143
C38	C	1.628633	1.006072	1.006143
C39	C	1.073805	0.438977	0.573454
C40	C	1.573805	0.938977	1.073454
C41	C	0.964081	0.438997	0.573461
C42	C	1.464081	0.938997	1.073461
C43	C	0.964023	0.573217	0.438841
C44	C	1.464023	1.073217	0.938841
C45	C	1.073745	0.573191	0.438830
C46	C	1.573745	1.073191	0.938830
C47	C	1.128692	0.371858	0.640766
C48	C	1.628692	0.871858	1.140766
C49	C	1.073864	0.304758	0.708084
C50	C	1.573864	0.804758	1.208084
C51	C	0.964140	0.304778	0.708091
C52	C	1.464140	0.804778	1.208091
C53	C	0.909244	0.371899	0.640780
C54	C	1.409244	0.871899	1.140780
C55	C	1.518315	0.779050	0.506117
C56	C	2.018315	1.279050	1.006117
C57	C	1.518384	0.895826	0.506142
C58	C	2.018384	1.395826	1.006142
C59	C	1.518451	0.505976	0.780172
C60	C	2.018451	1.005976	1.280172
C61	C	1.518482	0.505931	0.896949
C62	C	2.018482	1.005931	1.396949
C63	C	1.792410	0.506108	0.506154
C64	C	2.292410	1.006108	1.006154
C65	C	1.909187	0.506119	0.506160
C66	C	2.409187	1.006119	1.006160
C67	C	1.518468	0.232049	0.506183
C68	C	2.018468	0.732049	1.006183
C69	C	1.518507	0.115272	0.506203
C70	C	2.018507	0.615272	1.006203
C71	C	1.585637	0.950686	0.439024
C72	C	2.085637	1.450686	0.939024
C73	C	1.585702	1.060410	0.439056
C74	C	2.085702	1.560410	0.939056
C75	C	1.451252	1.060405	0.573328
C76	C	1.951252	1.560405	1.073328
C77	C	1.451193	0.950683	0.573301
C78	C	1.951193	1.450683	1.073301
C79	C	1.652828	0.895829	0.371866
C80	C	2.152828	1.395829	0.871866
C81	C	1.720086	0.950688	0.304741
C82	C	2.220086	1.450688	0.804741
C83	C	1.720150	1.060412	0.304774
C84	C	2.220150	1.560412	0.804774
C85	C	1.652957	1.115277	0.371931
C86	C	2.152957	1.615277	0.871931
C87	C	1.518364	0.506112	0.233171
C88	C	2.018364	1.006112	0.733171
C89	C	1.518537	0.505861	0.116395
C90	C	2.018537	1.005861	0.616395
C91	C	1.585710	0.438735	0.951827
C92	C	2.085710	0.938735	1.451827
C93	C	1.585735	0.438697	1.061551
C94	C	2.085735	0.938697	1.561551
C95	C	1.451301	0.573061	1.061509
C96	C	1.951301	1.073061	1.561509
C97	C	1.451272	0.573093	0.951787
C98	C	1.951272	1.073093	1.451787
C99	C	1.652920	0.371573	0.896989
C100	C	2.152920	0.871573	1.396989
C101	C	1.720155	0.304372	0.951868
C102	C	2.220155	0.804372	1.451868
C103	C	1.720180	0.304334	1.061592
C104	C	2.220180	0.804334	1.561592
C105	C	1.652970	0.371497	1.116438
C106	C	2.152970	0.871497	1.616438
H107	H	1.218035	0.371834	0.640768
H108	H	1.718035	0.871834	1.140768
H109	H	1.774867	0.249684	0.907205
H110	H	2.274867	0.749684	1.407205
H111	H	1.652910	0.371599	0.807646
H112	H	2.152910	0.871599	1.307646
F113	F	1.132101	0.644609	0.367197
F114	F	1.632101	1.144609	0.867197
F115	F	0.905790	0.233359	0.779727
F116	F	1.405790	0.733359	1.279727
H117	H	1.118567	0.250105	0.762880
H118	H	1.618567	0.750105	1.262880
H119	H	1.652780	0.806486	0.371829
H120	H	2.152780	1.306486	0.871829
F121	F	1.379744	1.118800	0.644794
F122	F	1.879744	1.618800	1.144794
H123	H	1.774798	0.906012	0.250070
H124	H	2.274798	1.406012	0.750070
F125	F	1.791735	0.232815	1.119995
F126	F	2.291735	0.732815	1.619995
F127	F	1.379617	0.892295	0.644737
F128	F	1.879617	1.392295	1.144737
H129	H	1.652984	0.371449	1.205782
H130	H	2.152984	0.871449	1.705782
F131	F	1.652690	1.232055	0.371622
F132	F	2.152690	1.732055	0.871622
F133	F	0.905596	0.644648	0.367211
F134	F	1.405596	1.144648	0.867211
H135	H	1.774922	1.105076	0.250125
H136	H	2.274922	1.605076	0.750125
H137	H	1.396582	0.627741	1.106173
H138	H	1.896582	1.127741	1.606173
F139	F	1.379719	0.644610	0.893378
F140	F	1.879719	1.144610	1.393378
H141	H	0.819900	0.371887	0.640768
H142	H	1.319900	0.871887	1.140768
