data_functionalizedCrystal
_audit_creation_method	'MofGen! by Chris Wilmer'
_symmetry_space_group_name_H-M	'P1'
_symmetry_Int_Tables_number	1
_symmetry_cell_setting	triclinic
loop_
_symmetry_equiv_pos_as_xyz
  x,y,z
_cell_length_a	17.038272
_cell_length_b	15.500215
_cell_length_c	15.995343
_cell_angle_alpha	93.187659
_cell_angle_beta	87.300371
_cell_angle_gamma	92.981713
loop_
_atom_site_label
_atom_site_type_symbol
_atom_site_fract_x
_atom_site_fract_y
_atom_site_fract_z
O1	O	1.040645	0.071852	0.185522
O2	O	0.813014	0.071877	0.182636
O3	O	0.933054	0.071848	0.062633
O4	O	0.920605	0.071882	0.305524
O5	O	0.926560	-0.072041	0.055223
O6	O	0.806520	-0.072012	0.175226
O7	O	1.034150	-0.072037	0.178112
Cu8	Cu	0.919742	-0.085163	0.175992
Cu9	Cu	0.927423	0.085003	0.184755
O10	O	0.914110	-0.072008	0.298114
C11	C	0.780638	-0.000064	0.176305
C12	C	0.693844	-0.000055	0.168471
N13	N	0.914345	-0.204848	0.169829
C14	C	0.643746	-0.000046	0.240400
C15	C	0.562193	-0.000059	0.233033
C16	C	0.530741	-0.000075	0.153737
C17	C	0.580845	-0.000087	0.081802
C18	C	0.662396	-0.000080	0.089170
C19	C	0.284976	-0.000102	0.127709
C20	C	0.203419	-0.000106	0.120347
C21	C	0.184773	-0.000080	0.271579
C22	C	0.266326	-0.000068	0.278940
C23	C	0.316423	-0.000084	0.207005
C24	C	0.447381	-0.000086	0.146205
C25	C	0.399781	-0.000080	0.214537
C26	C	0.959720	-0.250120	0.221690
C27	C	0.955649	-0.340693	0.217024
C28	C	0.906199	-0.385993	0.160500
C29	C	0.860823	-0.340716	0.108633
C30	C	0.864898	-0.250144	0.113296
C31	C	0.891525	-0.659462	0.143708
C32	C	0.887451	-0.750040	0.139051
C33	C	0.982278	-0.750011	0.247441
C34	C	0.986346	-0.659438	0.252102
C35	C	0.940973	-0.614168	0.200232
C36	C	0.902035	-0.478574	0.155731
C37	C	0.945142	-0.521589	0.204998
C38	C	1.066526	-0.000094	0.184442
C39	C	1.153321	-0.000097	0.192277
C40	C	0.929293	-0.000099	0.027697
C41	C	0.927753	-0.000105	-0.065364
N42	N	0.932825	0.204689	0.190913
C43	C	0.924959	-0.000085	-0.235749
C44	C	0.838308	-0.000074	-0.265266
C45	C	0.836692	0.000262	-0.362043
C46	C	0.922206	-0.000067	-0.403504
C47	C	0.969477	0.081931	-0.367078
C48	C	0.970507	0.081990	-0.270210
C49	C	0.964390	-0.081645	-0.278650
C50	C	0.961143	-0.082713	-0.375428
C51	C	0.920655	-0.000053	-0.498312
C52	C	0.926512	-0.000093	-0.140940
C53	C	0.917871	-0.000059	0.333051
C54	C	0.919412	-0.000047	0.426112
H55	H	0.521406	-0.000051	0.291606
C56	C	0.168822	-0.000125	0.033118
H57	H	0.210337	-0.000141	-0.008670
H58	H	0.139656	0.050051	0.029684
H59	H	0.135136	-0.050310	0.024522
C60	C	0.340072	-0.000114	0.048584
H61	H	0.309658	-0.000115	0.000306
H62	H	0.370014	-0.050290	0.045728
H63	H	0.374531	0.050071	0.050896
C64	C	1.032191	-0.799809	0.304486
H65	H	1.022689	-0.860238	0.293611
H66	H	1.018332	-0.784958	0.361497
H67	H	1.086355	-0.784962	0.293527
H68	H	0.669348	-0.000032	0.304972
H69	H	0.802067	-0.058868	-0.242683
H70	H	0.854579	-0.622614	0.101471
C71	C	0.806416	-0.390540	0.046469
H72	H	0.779978	-0.350603	0.016249
H73	H	0.768846	-0.425861	0.076388
H74	H	0.836860	-0.425882	0.008410
C75	C	1.040745	-0.609609	0.314272
H76	H	1.036669	-0.549184	0.309625
H77	H	1.093571	-0.624451	0.301794
H78	H	1.025543	-0.624443	0.369758
C79	C	0.923656	-0.165638	-0.247444
H80	H	0.882216	-0.151748	-0.207953
H81	H	0.960807	-0.197882	-0.221568
H82	H	0.902792	-0.199094	-0.293565
H83	H	0.985407	-0.484702	0.251016
H84	H	0.942347	0.143195	-0.386138
H85	H	0.992599	-0.377549	0.259254
H86	H	0.827949	-0.213285	0.071065
H87	H	0.847179	-0.786921	0.093023
H88	H	0.861772	-0.515468	0.109710
C89	C	1.050500	-0.082737	-0.253636
H90	H	1.074016	-0.132161	-0.279757
H91	H	1.052045	-0.084857	-0.194501
H92	H	1.078565	-0.031861	-0.271232
C93	C	0.787031	-0.079121	-0.395118
H94	H	0.767661	-0.111865	-0.349393
H95	H	0.818719	-0.114013	-0.432318
H96	H	0.744060	-0.060456	-0.424034
C97	C	1.054681	0.085742	-0.403848
H98	H	1.062199	0.037245	-0.441835
H99	H	1.090064	0.084841	-0.359786
H100	H	1.064340	0.137489	-0.432626
C101	C	0.797247	0.079245	-0.225194
H102	H	0.832684	0.112357	-0.190557
H103	H	0.752352	0.060508	-0.192294
H104	H	0.781387	0.113813	-0.268011
H105	H	1.023318	-0.087918	-0.404199
C106	C	0.914601	-0.164667	-0.407803
H107	H	0.871620	-0.148593	-0.438305
H108	H	0.895367	-0.196878	-0.361670
H109	H	0.948109	-0.199083	-0.443431
H110	H	0.291929	-0.000045	0.343512
H111	H	0.555229	-0.000112	0.017237
C112	C	0.129665	-0.000073	0.350700
H113	H	0.076591	-0.000087	0.334958
H114	H	0.141455	0.050108	0.385562
H115	H	0.136944	-0.050253	0.380386
C116	C	0.717504	-0.000082	0.010048
H117	H	0.687094	-0.000083	-0.038233
H118	H	0.747450	-0.050255	0.007193
H119	H	0.751959	0.050106	0.012366
C120	C	0.434373	-0.000060	0.301760
H121	H	0.392859	-0.000058	0.343549
H122	H	0.468058	0.050120	0.310353
H123	H	0.463539	-0.050241	0.305194
H124	H	0.805419	0.059398	-0.379847
C125	C	0.933969	0.165112	-0.232601
H126	H	0.918633	0.198524	-0.276551
H127	H	0.971559	0.197824	-0.200307
H128	H	0.889157	0.150265	-0.197754
H129	H	0.999982	-0.213243	0.267722
C130	C	1.056557	0.086707	-0.244154
H131	H	1.057769	0.086771	-0.184831
H132	H	1.082477	0.138244	-0.263077
H133	H	1.082508	0.038007	-0.268474
H134	H	0.421762	-0.000123	0.081640
