data_functionalizedCrystal
_audit_creation_method	'MofGen! by Chris Wilmer'
_symmetry_space_group_name_H-M	'P1'
_symmetry_Int_Tables_number	1
_symmetry_cell_setting	triclinic
loop_
_symmetry_equiv_pos_as_xyz
  x,y,z
_cell_length_a	12.594517
_cell_length_b	25.639240
_cell_length_c	12.594509
_cell_angle_alpha	89.958690
_cell_angle_beta	89.978673
_cell_angle_gamma	90.032557
loop_
_atom_site_label
_atom_site_type_symbol
_atom_site_fract_x
_atom_site_fract_y
_atom_site_fract_z
Zn1	Zn	1.627143	-0.208138	-0.601763
Zn2	Zn	1.626982	-0.295580	-0.423744
Zn3	Zn	1.449147	-0.208160	-0.423792
Zn4	Zn	1.449078	-0.295544	-0.601674
O5	O	1.538088	-0.251855	-0.512743
O6	O	1.776068	-0.219743	-0.578166
O7	O	1.603354	-0.284008	-0.274805
O8	O	1.472855	-0.134992	-0.447458
O9	O	1.775949	-0.283987	-0.447376
O10	O	1.603628	-0.134976	-0.578212
O11	O	1.472699	-0.219781	-0.274840
O12	O	1.300192	-0.219746	-0.447371
O13	O	1.472737	-0.283925	-0.750632
O14	O	1.300141	-0.283946	-0.578060
O15	O	1.603561	-0.219708	-0.750697
O16	O	1.603286	-0.368740	-0.447289
O17	O	1.472580	-0.368714	-0.578014
C18	C	1.261547	-0.251845	-0.512712
C19	C	1.143241	-0.251853	-0.512724
C20	C	1.537937	-0.387698	-0.512660
C21	C	1.537970	-0.445812	-0.512660
C22	C	1.073985	-0.216887	-0.441778
C23	C	1.003146	-0.264579	-0.415576
C24	C	1.003282	-0.204184	-0.538944
C25	C	1.073960	-0.299570	-0.486471
C26	C	1.074102	-0.239144	-0.609885
C27	C	1.003295	-0.286869	-0.583720
C28	C	1.606215	-0.806128	-0.580950
C29	C	1.606246	-0.860732	-0.580972
O30	O	1.664091	-0.888929	-0.638949
N31	N	1.538235	-0.888094	-0.512846
C32	C	1.470181	-0.860849	-0.444702
O33	O	1.412334	-0.889137	-0.386759
C34	C	1.470145	-0.806246	-0.444687
C35	C	1.538168	-0.778887	-0.512809
C36	C	1.674232	-0.778769	-0.649068
C37	C	1.674201	-0.724168	-0.649045
C38	C	1.606154	-0.696927	-0.580904
C39	C	1.538138	-0.724286	-0.512786
C40	C	1.402086	-0.779002	-0.376549
C41	C	1.402055	-0.724395	-0.376540
C42	C	1.470078	-0.697036	-0.444662
C43	C	1.470060	-0.642445	-0.444622
N44	N	1.538071	-0.615083	-0.512747
C45	C	1.606118	-0.642324	-0.580888
C46	C	1.470260	-0.975520	-0.444741
C47	C	1.470301	-1.030122	-0.444751
C48	C	1.606365	-1.030002	-0.581022
C49	C	1.606329	-0.975398	-0.581006
C50	C	1.538271	-0.948158	-0.512867
C51	C	1.606050	-0.527659	-0.580833
C52	C	1.606017	-0.473053	-0.580801
C53	C	1.469949	-0.473179	-0.444534
C54	C	1.469986	-0.527780	-0.444562
C55	C	1.538040	-0.555018	-0.512720
O56	O	1.412242	-0.614213	-0.386677
O57	O	1.663945	-0.614029	-0.638832
C58	C	1.815708	-0.251866	-0.512775
C59	C	1.934014	-0.251871	-0.512789
C60	C	1.538159	-0.251810	-0.790364
C61	C	1.538189	-0.251790	-0.908670
C62	C	1.538268	-0.115482	-0.512850
C63	C	1.538344	-0.057368	-0.512896
C64	C	1.467056	-0.286698	-0.977888
C65	C	1.564169	-0.299473	-1.048672
C66	C	1.441152	-0.238984	-1.048685
C67	C	1.635353	-0.264590	-0.977896
C68	C	1.512270	-0.204079	-0.977903
C69	C	1.609450	-0.216836	-1.048655
C70	C	1.538078	-0.251863	-0.236202
C71	C	1.538254	-0.251736	-0.117898
H72	H	0.971980	-0.275340	-0.333436
C73	C	1.681211	-1.059974	-0.655982
H74	H	1.671477	-1.096411	-0.646237
H75	H	1.752731	-1.051005	-0.640476
H76	H	1.665579	-1.051003	-0.727484
H77	H	1.104878	-0.339902	-0.464230
H78	H	1.359062	-0.228175	-1.079780
C79	C	0.961615	-0.326868	-0.664803
H80	H	0.985946	-0.360706	-0.646026
H81	H	0.986984	-0.318123	-0.733592
H82	H	0.886190	-0.326460	-0.664794
C83	C	1.746295	-0.279231	-0.936075
H84	H	1.745589	-0.279171	-0.860646
H85	H	1.796850	-0.254557	-0.960887
H86	H	1.764882	-0.312998	-0.960879
C87	C	1.395484	-1.060214	-0.369812
H88	H	1.405245	-1.096637	-0.379572
H89	H	1.323958	-1.051285	-0.385321
H90	H	1.411103	-1.051290	-0.298305
C91	C	1.593861	-0.353948	-1.090642
H92	H	1.656695	-0.351567	-1.132127
H93	H	1.537608	-0.367052	-1.133198
H94	H	1.605620	-0.376832	-1.032471
C95	C	1.749096	-0.808726	-0.724023
H96	H	1.789598	-0.784604	-0.764577
H97	H	1.708386	-0.830027	-0.770377
H98	H	1.795518	-0.830020	-0.683348
C99	C	1.385859	-0.326636	-0.935903
H100	H	1.404476	-0.360500	-0.960136
H101	H	1.317078	-0.317890	-0.961181
H102	H	1.385950	-0.326162	-0.860480
C103	C	1.395099	-0.443207	-0.369590
H104	H	1.404820	-0.406769	-0.379348
H105	H	1.410708	-0.452176	-0.298088
H106	H	1.323578	-0.452178	-0.385119
C107	C	0.961343	-0.149717	-0.568876
H108	H	0.985561	-0.124912	-0.518374
H109	H	0.885926	-0.150189	-0.569323
H110	H	0.986693	-0.140443	-0.637391
C111	C	1.327251	-0.809086	-0.301621
H112	H	1.286716	-0.785034	-0.261054
H113	H	1.367988	-0.830391	-0.255279
H114	H	1.280859	-0.830385	-0.342312
C115	C	1.690839	-0.176927	-1.090379
H116	H	1.759731	-0.186090	-1.066009
H117	H	1.672993	-0.143156	-1.065076
H118	H	1.690018	-0.176924	-1.165804
H119	H	1.490284	-0.163765	-0.946793
H120	H	1.105024	-0.187346	-0.381707
H121	H	1.105293	-0.228368	-0.691999
H122	H	1.661414	-0.450779	-0.636274
H123	H	1.661459	-0.549830	-0.636342
H124	H	1.729588	-0.701895	-0.704519
C125	C	1.327192	-0.694434	-0.301582
H126	H	1.286695	-0.718552	-0.261013
H127	H	1.280781	-0.673134	-0.342245
H128	H	1.367923	-0.673138	-0.255226
C129	C	1.395165	-0.557876	-0.369628
H130	H	1.354632	-0.533829	-0.329047
H131	H	1.435909	-0.579185	-0.323299
H132	H	1.348772	-0.579172	-0.410323
C133	C	1.395406	-0.945560	-0.369769
H134	H	1.354918	-0.969680	-0.329196
H135	H	1.348987	-0.924261	-0.410424
H136	H	1.436141	-0.924264	-0.323418
C137	C	1.681135	-0.945308	-0.655958
H138	H	1.721655	-0.969357	-0.696547
H139	H	1.727525	-0.923999	-0.615298
H140	H	1.640363	-0.924011	-0.702296
