data_functionalizedCrystal
_audit_creation_method	'MofGen! by Chris Wilmer'
_symmetry_space_group_name_H-M	'P1'
_symmetry_Int_Tables_number	1
_symmetry_cell_setting	triclinic
loop_
_symmetry_equiv_pos_as_xyz
  x,y,z
_cell_length_a	11.169417
_cell_length_b	18.215405
_cell_length_c	11.169409
_cell_angle_alpha	90.038667
_cell_angle_beta	90.019824
_cell_angle_gamma	90.024699
loop_
_atom_site_label
_atom_site_type_symbol
_atom_site_fract_x
_atom_site_fract_y
_atom_site_fract_z
Zn1	Zn	1.834850	-0.292907	0.678490
Zn2	Zn	2.168183	0.040426	1.011823
Zn3	Zn	2.501517	0.373759	1.345157
Zn4	Zn	1.834692	-0.415999	0.477785
Zn5	Zn	2.168025	-0.082665	0.811118
Zn6	Zn	2.501359	0.250668	1.144451
Zn7	Zn	1.634136	-0.292952	0.477824
Zn8	Zn	1.967469	0.040381	0.811158
Zn9	Zn	2.300802	0.373714	1.144491
Zn10	Zn	1.634096	-0.415939	0.678430
Zn11	Zn	1.967429	-0.082605	1.011763
Zn12	Zn	2.300763	0.250728	1.345096
O13	O	1.734443	-0.354449	0.578132
O14	O	2.067777	-0.021116	0.911465
O15	O	2.401110	0.312217	1.244799
O16	O	2.002779	-0.309242	0.651875
O17	O	2.336112	0.024091	0.985208
O18	O	2.669445	0.357425	1.318541
O19	O	1.808038	-0.399720	0.309840
O20	O	2.141372	-0.066387	0.643173
O21	O	2.474705	0.266947	0.976507
O22	O	1.660844	-0.189962	0.504485
O23	O	1.994177	0.143371	0.837818
O24	O	2.327510	0.476705	1.171152
O25	O	2.002663	-0.399677	0.504417
O26	O	2.335996	-0.066343	0.837751
O27	O	2.669329	0.266990	1.171084
O28	O	1.808307	-0.189929	0.651913
O29	O	2.141641	0.143404	0.985246
O30	O	2.474974	0.476738	1.318580
O31	O	1.660691	-0.309318	0.309869
O32	O	1.994024	0.024015	0.643203
O33	O	2.327357	0.357348	0.976536
O34	O	1.466181	-0.309260	0.504426
O35	O	1.799514	0.024073	0.837760
O36	O	2.132847	0.357406	1.171093
O37	O	1.660776	-0.399574	0.846387
O38	O	1.994109	-0.066241	1.179721
O39	O	2.327443	0.267092	1.513054
O40	O	1.466152	-0.399618	0.651810
O41	O	1.799485	-0.066285	0.985143
O42	O	2.132818	0.267049	1.318477
O43	O	1.808269	-0.309184	0.846432
O44	O	2.141602	0.024149	1.179765
O45	O	2.474936	0.357483	1.513098
O46	O	1.808000	-0.518975	0.504359
O47	O	2.141333	-0.185642	0.837692
O48	O	2.474667	0.147692	1.171025
O49	O	1.660623	-0.518931	0.651772
O50	O	1.993956	-0.185598	0.985105
O51	O	2.327290	0.147736	1.318438
C52	C	1.422619	-0.354438	0.578117
C53	C	1.755952	-0.021105	0.911450
C54	C	2.089285	0.312229	1.244783
C55	C	1.289219	-0.354451	0.578139
C56	C	1.622552	-0.021118	0.911472
C57	C	1.955885	0.312216	1.244805
C58	C	1.734323	-0.545656	0.578081
C59	C	2.067656	-0.212322	0.911414
C60	C	2.400989	0.121011	1.244747
C61	C	1.734381	-0.627454	0.578099
C62	C	2.067714	-0.294121	0.911432
C63	C	2.401047	0.039212	1.244765
C64	C	1.811345	-0.892510	0.501503
C65	C	2.144678	-0.559177	0.834836
C66	C	2.478011	-0.225844	1.168169
C67	C	1.811295	-0.815652	0.501475
C68	C	2.144628	-0.482318	0.834809
C69	C	2.477962	-0.148985	1.168142
C70	C	1.657691	-0.815647	0.654843
C71	C	1.991024	-0.482313	0.988176
C72	C	2.324357	-0.148980	1.321509
C73	C	1.657735	-0.892504	0.654863
C74	C	1.991068	-0.559171	0.988197
C75	C	2.324402	-0.225837	1.321530
C76	C	1.734569	-0.930934	0.578195
C77	C	2.067902	-0.597601	0.911528
C78	C	2.401235	-0.264267	1.244862
C79	C	1.734475	-0.777218	0.578147
C80	C	2.067808	-0.443885	0.911480
C81	C	2.401142	-0.110551	1.244814
C82	C	1.734421	-0.693884	0.578118
C83	C	2.067754	-0.360551	0.911451
C84	C	2.401088	-0.027218	1.244784
C85	C	1.734622	-1.014273	0.578222
C86	C	2.067955	-0.680940	0.911556
C87	C	2.401288	-0.347606	1.244889
C88	C	2.047486	-0.354461	0.578148
C89	C	2.380819	-0.021128	0.911482
C90	C	2.714152	0.312206	1.244815
C91	C	2.180886	-0.354466	0.578155
C92	C	2.514219	-0.021133	0.911489
C93	C	2.847552	0.312201	1.244822
C94	C	1.734536	-0.354368	0.891175
C95	C	2.067869	-0.021034	1.224508
C96	C	2.401202	0.312299	1.557841
C97	C	1.734575	-0.354333	1.024575
C98	C	2.067908	-0.020999	1.357908
C99	C	2.401242	0.312334	1.691241
C100	C	1.734598	-0.162496	0.578210
C101	C	2.067931	0.170837	0.911543
C102	C	2.401264	0.504170	1.244877
C103	C	1.734663	-0.080697	0.578243
C104	C	2.067997	0.252636	0.911577
C105	C	2.401330	0.585969	1.244910
C106	C	1.734421	-0.354478	0.266307
C107	C	2.067754	-0.021144	0.599641
C108	C	2.401087	0.312189	0.932974
C109	C	1.734614	-0.354305	0.132908
C110	C	2.067947	-0.020972	0.466241
C111	C	2.401281	0.312362	0.799575
H112	H	1.873907	-0.923798	0.439074
H113	H	2.207240	-0.590464	0.772407
H114	H	2.540574	-0.257131	1.105741
H115	H	1.595136	-0.784350	0.717266
H116	H	1.928470	-0.451016	1.050599
H117	H	2.261803	-0.117683	1.383933
H118	H	1.873811	-0.784369	0.439024
H119	H	2.207145	-0.451036	0.772357
H120	H	2.540478	-0.117703	1.105691
C121	C	1.573270	-0.934772	0.739234
C122	C	1.906604	-0.601439	1.072567
C123	C	2.239937	-0.268106	1.405901
N124	N	1.509652	-0.966609	0.802777
N125	N	1.842985	-0.633276	1.136111
N126	N	2.176319	-0.299942	1.469444
