data_functionalizedCrystal
_audit_creation_method	'MofGen! by Chris Wilmer'
_symmetry_space_group_name_H-M	'P1'
_symmetry_Int_Tables_number	1
_symmetry_cell_setting	triclinic
loop_
_symmetry_equiv_pos_as_xyz
  x,y,z
_cell_length_a	14.044220
_cell_length_b	14.044220
_cell_length_c	13.101039
_cell_angle_alpha	86.326400
_cell_angle_beta	93.671687
_cell_angle_gamma	93.188878
loop_
_atom_site_label
_atom_site_type_symbol
_atom_site_fract_x
_atom_site_fract_y
_atom_site_fract_z
O1	O	-1.272352	-0.234979	0.085111
O2	O	-0.995679	-0.226675	0.085137
O3	O	-1.129863	-0.092490	0.085114
O4	O	-1.138168	-0.369163	0.085133
O5	O	-1.139494	-0.082850	-0.085318
O6	O	-1.005310	-0.217035	-0.085295
O7	O	-1.281983	-0.225339	-0.085321
Zn8	Zn	-1.145176	-0.219656	-0.112367
Zn9	Zn	-1.132486	-0.232357	0.112183
O10	O	-1.147799	-0.359523	-0.085298
C11	C	-0.964872	-0.218219	-0.000076
C12	C	-0.858729	-0.207375	-0.000066
C13	C	-1.131043	-0.052049	-0.000102
C14	C	-1.120198	0.054094	-0.000102
N15	N	-1.123826	-0.241019	0.265433
C16	C	-1.312789	-0.233794	-0.000106
C17	C	-1.418932	-0.244639	-0.000109
C18	C	-0.664393	-0.187548	-0.000088
C19	C	-0.613263	-0.264462	-0.000087
C20	C	-0.505127	-0.253430	-0.000099
C21	C	-0.772538	-0.198578	-0.000076
C22	C	-1.146619	-0.399965	-0.000080
C23	C	-1.157463	-0.506108	-0.000073
C24	C	-1.100371	0.248431	-0.000086
C25	C	-1.177286	0.299561	-0.000090
C26	C	-1.166254	0.407697	-0.000080
C27	C	-1.111402	0.140285	-0.000095
N28	N	-1.153843	-0.210988	-0.265617
C29	C	-1.112035	-0.252802	0.474478
C30	C	-1.165631	-0.199207	0.525345
C31	C	-1.159070	-0.205764	0.641664
C32	C	-1.118595	-0.246247	0.358148
H33	H	-0.650701	-0.338596	-0.000077
H34	H	-1.061226	-0.303606	0.518284
C35	C	-1.234269	-0.130560	0.466161
N36	N	-1.285961	-0.078854	0.421579
C37	C	-1.277439	0.248986	-0.000113
N38	N	-1.352872	0.210888	-0.000137
H39	H	-0.626956	-0.113419	-0.000099
C40	C	-1.000227	0.299008	-0.000090
N41	N	-0.924799	0.337114	-0.000101
