data_functionalizedCrystal
_audit_creation_method	'MofGen! by Chris Wilmer'
_symmetry_space_group_name_H-M	'P1'
_symmetry_Int_Tables_number	1
_symmetry_cell_setting	triclinic
loop_
_symmetry_equiv_pos_as_xyz
  x,y,z
_cell_length_a	17.077404
_cell_length_b	18.101395
_cell_length_c	18.101398
_cell_angle_alpha	90.017121
_cell_angle_beta	90.007689
_cell_angle_gamma	90.031329
loop_
_atom_site_label
_atom_site_type_symbol
_atom_site_fract_x
_atom_site_fract_y
_atom_site_fract_z
Zn1	Zn	1.199918	-0.294901	0.418740
Zn2	Zn	1.699918	0.205099	0.918740
Zn3	Zn	1.199834	-0.418727	0.294901
Zn4	Zn	1.699834	0.081273	0.794901
Zn5	Zn	1.068677	-0.294904	0.294912
Zn6	Zn	1.568677	0.205096	0.794912
Zn7	Zn	1.068599	-0.418706	0.418702
Zn8	Zn	1.568599	0.081294	0.918702
O9	O	1.134257	-0.356809	0.356814
O10	O	1.634257	0.143191	0.856814
O11	O	1.309754	-0.311334	0.402323
O12	O	1.809754	0.188666	0.902323
O13	O	1.182433	-0.402312	0.191270
O14	O	1.682433	0.097688	0.691270
O15	O	1.086155	-0.191271	0.311359
O16	O	1.586155	0.308729	0.811359
O17	O	1.309692	-0.402309	0.311340
O18	O	1.809692	0.097691	0.811340
O19	O	1.182577	-0.191268	0.402334
O20	O	1.682577	0.308732	0.902334
O21	O	1.086072	-0.311340	0.191278
O22	O	1.586072	0.188660	0.691278
O23	O	0.958820	-0.311319	0.311322
O24	O	1.458820	0.188681	0.811322
O25	O	1.086022	-0.402272	0.522340
O26	O	1.586022	0.097728	1.022340
O27	O	0.958763	-0.402276	0.402270
O28	O	1.458763	0.097724	0.902270
O29	O	1.182501	-0.311313	0.522367
O30	O	1.682501	0.188687	1.022367
O31	O	1.182357	-0.522357	0.311303
O32	O	1.682357	-0.022357	0.811303
O33	O	1.085940	-0.522341	0.402259
O34	O	1.585940	-0.022341	0.902259
C35	C	0.930309	-0.356796	0.356793
C36	C	1.430309	0.143204	0.856793
C37	C	0.843059	-0.356808	0.356802
C38	C	1.343059	0.143192	0.856802
C39	C	1.134152	-0.549220	0.356792
C40	C	1.634152	-0.049220	0.856792
C41	C	1.134179	-0.631534	0.356807
C42	C	1.634179	-0.131534	0.856807
C43	C	0.802060	-0.404240	0.404083
C44	C	1.302060	0.095760	0.904083
C45	C	0.720080	-0.404242	0.404094
C46	C	1.220080	0.095758	0.904094
C47	C	0.679100	-0.356815	0.356822
C48	C	1.179100	0.143185	0.856822
C49	C	0.720105	-0.309377	0.309539
C50	C	1.220105	0.190623	0.809539
C51	C	0.802084	-0.309372	0.309532
C52	C	1.302084	0.190628	0.809532
C53	C	0.549235	-0.309392	0.309557
C54	C	1.049235	0.190608	0.809557
C55	C	0.467250	-0.309397	0.309563
C56	C	0.967250	0.190603	0.809563
C57	C	0.467231	-0.404261	0.404120
C58	C	0.967231	0.095739	0.904120
C59	C	0.549209	-0.404257	0.404112
C60	C	1.049209	0.095743	0.904112
C61	C	0.590209	-0.356820	0.356829
C62	C	1.090209	0.143180	0.856829
C63	C	1.134351	-0.930625	0.356847
C64	C	1.634351	-0.430625	0.856847
C65	C	1.073829	-0.899321	0.414216
C66	C	1.573829	-0.399321	0.914216
C67	C	1.073541	-0.813703	0.414037
C68	C	1.573541	-0.313703	0.914037
C69	C	1.134266	-0.782243	0.356828
C70	C	1.634266	-0.282243	0.856828
C71	C	1.111886	-0.813380	0.278779
C72	C	1.611886	-0.313380	0.778779
C73	C	1.111496	-0.899025	0.279122
C74	C	1.611496	-0.399025	0.779122
C75	C	1.217386	-0.898972	0.376841
C76	C	1.717386	-0.398972	0.876841
C77	C	1.216898	-0.813321	0.378553
C78	C	1.716898	-0.313321	0.878553
C79	C	1.134219	-0.698383	0.356813
C80	C	1.634219	-0.198383	0.856813
C81	C	1.134396	-1.014484	0.356858
C82	C	1.634396	-0.514484	0.856858
C83	C	1.339001	-0.356823	0.356835
C84	C	1.839001	0.143177	0.856835
C85	C	1.426251	-0.356829	0.356844
C86	C	1.926251	0.143171	0.856844
C87	C	1.134262	-0.356790	0.549976
C88	C	1.634262	0.143210	1.049976
C89	C	1.134265	-0.356781	0.632290
C90	C	1.634265	0.143219	1.132290
C91	C	1.134384	-0.163648	0.356852
C92	C	1.634384	0.336352	0.856852
C93	C	1.134438	-0.081333	0.356868
C94	C	1.634438	0.418667	0.856868
C95	C	1.134266	-0.356795	0.782998
C96	C	1.634266	0.143205	1.282998
C97	C	1.194965	-0.299569	0.814369
C98	C	1.694965	0.200431	1.314369
C99	C	1.195203	-0.299745	0.899988
C100	C	1.695203	0.200255	1.399988
C101	C	1.134267	-0.356808	0.931381
C102	C	1.634267	0.143192	1.431381
C103	C	1.156400	-0.434912	0.900272
C104	C	1.656400	0.065088	1.400272
C105	C	1.156840	-0.434573	0.814628
C106	C	1.656840	0.065427	1.314628
C107	C	1.051281	-0.336603	0.814555
C108	C	1.551281	0.163397	1.314555
C109	C	1.051727	-0.334889	0.900206
C110	C	1.551727	0.165111	1.400206
C111	C	1.134266	-0.356820	1.015240
C112	C	1.634266	0.143180	1.515240
C113	C	1.134268	-0.356789	0.699139
C114	C	1.634268	0.143211	1.199139
C115	C	1.134252	-0.356838	1.164403
C116	C	1.634252	0.143162	1.664403
C117	C	1.134268	-0.356822	1.082089
C118	C	1.634268	0.143178	1.582089
H119	H	0.835420	-0.442864	0.442575
H120	H	1.335420	0.057136	0.942575
H121	H	0.686733	-0.270758	0.271052
H122	H	1.186733	0.229242	0.771052
Cl123	Cl	0.668541	-0.463874	0.463535
Cl124	Cl	1.168541	0.036126	0.963535
H125	H	1.256106	-0.312792	0.792856
H126	H	1.756106	0.187208	1.292856
Cl127	Cl	0.978515	-0.782162	0.393593
Cl128	Cl	1.478515	-0.282162	0.893593
Cl129	Cl	1.173589	-0.210403	0.932468
Cl130	Cl	1.673589	0.289597	1.432468
Cl131	Cl	1.250480	-0.460945	0.783792
Cl132	Cl	1.750480	0.039055	1.283792
H133	H	1.113544	-0.478719	0.920604
H134	H	1.613544	0.021281	1.420604
Cl135	Cl	0.979383	-0.932661	0.394043
Cl136	Cl	1.479383	-0.432661	0.894043
Cl137	Cl	1.017783	-0.929969	0.252975
Cl138	Cl	1.517783	-0.429969	0.752975
Cl139	Cl	1.173884	-0.209874	0.782610
Cl140	Cl	1.673884	0.290126	1.282610
H141	H	0.582614	-0.270757	0.271060
H142	H	1.082614	0.229243	0.771060
H143	H	1.153666	-0.919735	0.234920
H144	H	1.653666	-0.419735	0.734920
Cl145	Cl	0.853626	-0.249739	0.250093
Cl146	Cl	1.353626	0.250261	0.750093
H147	H	1.262477	-0.919214	0.335057
H148	H	1.762477	-0.419214	0.835057
H149	H	1.087541	-0.792649	0.471910
H150	H	1.587541	-0.292649	0.971910
Cl151	Cl	1.248894	-0.932253	0.463215
Cl152	Cl	1.748894	-0.432253	0.963215
H153	H	1.233775	-0.792968	0.435993
H154	H	1.733775	-0.292968	0.935993
H155	H	0.582573	-0.442880	0.442602
H156	H	1.082573	0.057120	0.942602
H157	H	1.154581	-0.793002	0.234869
H158	H	1.654581	-0.293002	0.734869
Cl159	Cl	1.091529	-0.502670	0.782579
Cl160	Cl	1.591529	-0.002670	1.282579
H161	H	1.031069	-0.280619	0.792960
H162	H	1.531069	0.219381	1.292960
H163	H	1.216374	-0.452302	0.921746
H164	H	1.716374	0.047698	1.421746
Cl165	Cl	1.290203	-0.780247	0.318748
Cl166	Cl	1.790203	-0.280247	0.818748
Cl167	Cl	1.290136	-0.320437	0.931638
Cl168	Cl	1.790136	0.179563	1.431638
Cl169	Cl	1.095223	-0.931063	0.503860
Cl170	Cl	1.595223	-0.431063	1.003860
H171	H	1.035030	-0.277410	0.920541
H172	H	1.535030	0.222590	1.420541
Cl173	Cl	0.978201	-0.394522	0.933194
Cl174	Cl	1.478201	0.105478	1.433194
Cl175	Cl	1.019163	-0.780366	0.252160
Cl176	Cl	1.519163	-0.280366	0.752160
H177	H	1.006060	-0.378282	0.794264
H178	H	1.506060	0.121718	1.294264
H179	H	0.433845	-0.442884	0.442622
H180	H	0.933845	0.057116	0.942622
H181	H	0.433887	-0.270769	0.271078
H182	H	0.933887	0.229231	0.771078
