data_functionalizedCrystal
_audit_creation_method	'MofGen! by Chris Wilmer'
_symmetry_space_group_name_H-M	'P1'
_symmetry_Int_Tables_number	1
_symmetry_cell_setting	triclinic
loop_
_symmetry_equiv_pos_as_xyz
  x,y,z
_cell_length_a	14.044220
_cell_length_b	14.853566
_cell_length_c	13.330367
_cell_angle_alpha	89.995295
_cell_angle_beta	90.003147
_cell_angle_gamma	91.588354
loop_
_atom_site_label
_atom_site_type_symbol
_atom_site_fract_x
_atom_site_fract_y
_atom_site_fract_z
O1	O	-0.123761	1.206175	-0.083355
O2	O	-0.138506	0.944883	-0.083371
O3	O	0.006856	1.071607	-0.083359
O4	O	-0.269123	1.079451	-0.083367
O5	O	0.006859	1.071587	0.083489
O6	O	-0.138503	0.944863	0.083476
O7	O	-0.123758	1.206155	0.083492
Cu8	Cu	-0.131130	1.075507	0.098719
Cu9	Cu	-0.131134	1.075531	-0.098597
O10	O	-0.269120	1.079431	0.083480
C11	C	-0.137836	0.911232	0.000051
C12	C	-0.135835	0.810989	0.000044
C13	C	-0.127371	0.387145	-0.090886
C14	C	-0.127369	0.387144	0.091017
C15	C	-0.129248	0.481327	0.091014
C16	C	-0.130191	0.528423	0.000059
C17	C	-0.129254	0.481336	-0.090892
C18	C	-0.130195	0.528420	0.181964
C19	C	-0.132075	0.622609	0.181964
C20	C	-0.133011	0.669707	0.091008
C21	C	-0.132073	0.622615	0.000053
C22	C	-0.133016	0.669711	-0.090901
C23	C	-0.132071	0.622620	-0.181857
C24	C	-0.130190	0.528435	-0.181848
C25	C	-0.134892	0.763893	0.090999
C26	C	-0.134898	0.763903	-0.090907
C27	C	-0.304441	1.082875	0.000056
C28	C	-0.409680	1.093116	0.000053
C29	C	-0.602366	1.111840	0.000058
C30	C	-0.659904	1.039202	0.000055
C31	C	-0.767121	1.049620	0.000058
C32	C	-0.495139	1.101423	0.000055
C33	C	0.042177	1.068163	0.000064
C34	C	0.147416	1.057922	0.000060
C35	C	-0.124427	1.239806	0.000069
C36	C	-0.126429	1.340049	0.000068
N37	N	-0.131127	1.075497	0.237500
N38	N	-0.131130	1.075548	-0.237379
C39	C	-0.195475	1.019413	0.710118
C40	C	-0.066785	1.131673	0.710097
C41	C	-0.066782	1.131662	0.605078
C42	C	-0.131128	1.075527	0.552575
C43	C	-0.195476	1.019403	0.605090
C44	C	-0.002442	1.187792	0.552556
C45	C	-0.002437	1.187785	0.447531
C46	C	-0.066779	1.131645	0.395025
C47	C	-0.131129	1.075517	0.447547
C48	C	-0.195474	1.019382	0.395043
C49	C	-0.259820	0.963249	0.447563
C50	C	-0.259817	0.963263	0.552584
C51	C	-0.066781	1.131631	0.290004
C52	C	-0.195475	1.019372	0.290015
H53	H	-0.129420	0.490085	-0.255899
N54	N	-0.126397	0.339036	-0.183783
N55	N	-0.124709	0.254942	-0.183772
H56	H	-0.124020	0.220963	-0.249380
H57	H	-0.135663	0.802242	-0.164974
N58	N	-0.133045	0.670746	-0.274754
N59	N	-0.134735	0.754840	-0.274736
H60	H	-0.135424	0.788833	-0.340342
H61	H	-0.628641	0.969189	0.000051
N62	N	-0.126414	0.339026	0.183911
N63	N	-0.124738	0.254932	0.183902
H64	H	-0.124061	0.220944	0.249511
N65	N	-0.135887	0.811979	0.183905
N66	N	-0.135069	0.769918	0.265106
H67	H	-0.135779	0.803877	0.330727
N68	N	-0.129234	0.480301	0.274856
N69	N	-0.127544	0.396207	0.274844
H70	H	-0.126862	0.362217	0.340452
N71	N	-0.641578	1.199665	0.000098
N72	N	-0.623129	1.252985	0.070443
H73	H	-0.650833	1.315011	0.070478
N74	N	-0.133036	0.670693	0.274877
N75	N	-0.132193	0.628631	0.356078
H76	H	-0.132868	0.662590	0.421700
H77	H	-0.247870	0.973657	0.247273
H78	H	-0.312215	0.917548	0.404802
N79	N	-0.325533	0.905934	0.606246
N80	N	-0.325523	0.905956	0.700016
H81	H	-0.371935	0.865470	0.737920
H82	H	-0.247862	0.973708	0.752882
N83	N	-0.001090	1.189027	0.763739
N84	N	-0.001113	1.189041	0.857508
H85	H	0.045282	1.229555	0.895398
N86	N	0.063236	1.245162	0.606200
N87	N	0.063206	1.245180	0.699969
H88	H	0.109582	1.285711	0.737861
H89	H	0.049957	1.233490	0.404776
H90	H	-0.014396	1.177338	0.247247
