data_functionalizedCrystal
_audit_creation_method	'MofGen! by Chris Wilmer'
_symmetry_space_group_name_H-M	'P1'
_symmetry_Int_Tables_number	1
_symmetry_cell_setting	triclinic
loop_
_symmetry_equiv_pos_as_xyz
  x,y,z
_cell_length_a	12.594516
_cell_length_b	16.120530
_cell_length_c	16.120297
_cell_angle_alpha	90.128140
_cell_angle_beta	87.122232
_cell_angle_gamma	92.888148
loop_
_atom_site_label
_atom_site_type_symbol
_atom_site_fract_x
_atom_site_fract_y
_atom_site_fract_z
Zn1	Zn	-0.539249	-1.247493	0.534603
Zn2	Zn	-0.708692	-1.254461	0.395557
Zn3	Zn	-0.521263	-1.115482	0.388519
Zn4	Zn	-0.707712	-1.108417	0.527526
O5	O	-0.619229	-1.181463	0.461551
O6	O	-0.569664	-1.364785	0.522065
O7	O	-0.676712	-1.241897	0.278258
O8	O	-0.374707	-1.133034	0.407914
O9	O	-0.694153	-1.369904	0.419909
O10	O	-0.387921	-1.230022	0.515241
O11	O	-0.539009	-1.139790	0.273087
O12	O	-0.538058	-0.998178	0.401052
O13	O	-0.692482	-1.120993	0.644831
O14	O	-0.675042	-0.992987	0.503180
O15	O	-0.568713	-1.223172	0.650030
O16	O	-0.857504	-1.235047	0.413047
O17	O	-0.856784	-1.127749	0.510004
C18	C	-0.895766	-1.181409	0.461540
C19	C	-1.014076	-1.181461	0.461567
C20	C	-0.604493	-0.965410	0.450585
C21	C	-0.598215	-0.872980	0.445913
C22	C	-0.632495	-1.170517	0.678446
C23	C	-0.638148	-1.165853	0.770874
C24	C	-1.082974	-1.123098	0.514263
C25	C	-1.147787	-1.106686	0.437359
C26	C	-1.160068	-1.197948	0.538488
C27	C	-1.077326	-1.165010	0.384621
C28	C	-1.089606	-1.256305	0.485803
C29	C	-1.154387	-1.239924	0.408848
C30	C	-0.341615	-1.181539	0.461582
C31	C	-0.223313	-1.181572	0.461595
C32	C	-0.634024	-1.398360	0.472561
C33	C	-0.640328	-1.490789	0.477253
C34	C	-0.586730	-0.703749	0.437391
C35	C	-0.651810	-0.660015	0.485772
C36	C	-0.645420	-0.565849	0.481031
C37	C	-0.593119	-0.797924	0.442132
C38	C	-0.605942	-1.192414	0.245502
C39	C	-0.600000	-1.197240	0.153083
C40	C	-0.648443	-1.157306	0.940100
C41	C	-0.589708	-1.205784	0.983863
C42	C	-0.595436	-1.201029	1.078026
C43	C	-0.642716	-1.162061	0.845928
H44	H	-1.173578	-1.043442	0.416881
H45	H	-1.063819	-1.319532	0.506317
O46	O	-0.514397	-0.664091	0.383816
C47	C	-0.410875	-0.684351	0.403149
H48	H	-0.411277	-0.704964	0.470769
H49	H	-0.354046	-0.627543	0.393229
H50	H	-0.383589	-0.736929	0.361083
O51	O	-0.524662	-1.259530	0.944071
C52	C	-0.533325	-1.252356	0.857549
H53	H	-0.612912	-1.225693	0.844399
H54	H	-0.528361	-1.316279	0.827631
H55	H	-0.465710	-1.209298	0.830652
O56	O	-0.713546	-1.103611	0.979893
C57	C	-0.704828	-1.110755	1.066412
H58	H	-0.675039	-1.174355	1.081432
H59	H	-0.786141	-1.103464	1.099211
H60	H	-0.646258	-1.060223	1.088555
O61	O	-1.203144	-1.214685	0.616062
C62	C	-1.172140	-1.292956	0.642011
H63	H	-1.150024	-1.331972	0.585261
H64	H	-1.240869	-1.325863	0.679558
H65	H	-1.100458	-1.284325	0.682196
O66	O	-0.723875	-0.699796	0.539480
C67	C	-0.670025	-0.747338	0.595766
H68	H	-0.588374	-0.761729	0.567187
H69	H	-0.718149	-0.807897	0.609868
H70	H	-0.660007	-0.710834	0.655758
O71	O	-1.045597	-1.064018	0.567241
C72	C	-1.075033	-0.985267	0.541401
H73	H	-1.090591	-0.987246	0.472351
H74	H	-1.007959	-0.937084	0.552815
H75	H	-1.150347	-0.967789	0.578143
H76	H	-1.041305	-1.151036	0.319560
H77	H	-1.185534	-1.289330	0.364243
