data_functionalizedCrystal
_audit_creation_method	'MofGen! by Chris Wilmer'
_symmetry_space_group_name_H-M	'P1'
_symmetry_Int_Tables_number	1
_symmetry_cell_setting	triclinic
loop_
_symmetry_equiv_pos_as_xyz
  x,y,z
_cell_length_a	18.050591
_cell_length_b	18.050589
_cell_length_c	18.050583
_cell_angle_alpha	90.027890
_cell_angle_beta	89.975765
_cell_angle_gamma	89.969296
loop_
_atom_site_label
_atom_site_type_symbol
_atom_site_fract_x
_atom_site_fract_y
_atom_site_fract_z
Zn1	Zn	1.135283	0.295713	-0.420055
Zn2	Zn	1.635283	0.795713	0.079945
Zn3	Zn	1.135173	0.419918	-0.295875
Zn4	Zn	1.635173	0.919918	0.204125
Zn5	Zn	1.011095	0.295738	-0.295866
Zn6	Zn	1.511095	0.795738	0.204134
Zn7	Zn	1.011037	0.419857	-0.420010
Zn8	Zn	1.511037	0.919857	0.079990
O9	O	1.073147	0.357807	-0.357952
O10	O	1.573147	0.857807	0.142048
O11	O	1.239193	0.312204	-0.403605
O12	O	1.739193	0.812204	0.096395
O13	O	1.118692	0.403481	-0.191949
O14	O	1.618692	0.903481	0.308051
O15	O	1.027640	0.191810	-0.312355
O16	O	1.527640	0.691810	0.187645
O17	O	1.239112	0.403457	-0.312370
O18	O	1.739112	0.903457	0.187630
O19	O	1.118880	0.191792	-0.403596
O20	O	1.618880	0.691792	0.096404
O21	O	1.027533	0.312246	-0.191943
O22	O	1.527533	0.812246	0.308057
O23	O	0.907163	0.312187	-0.312312
O24	O	1.407163	0.812187	0.187688
O25	O	1.027540	0.403354	-0.523941
O26	O	1.527540	0.903354	-0.023941
O27	O	0.907120	0.403377	-0.403520
O28	O	1.407120	0.903377	0.096480
O29	O	1.118823	0.312146	-0.523974
O30	O	1.618823	0.812146	-0.023974
O31	O	1.118635	0.523835	-0.312327
O32	O	1.618635	1.023835	0.187673
O33	O	1.027433	0.523790	-0.403529
O34	O	1.527433	1.023790	0.096471
C35	C	0.880195	0.357779	-0.357911
C36	C	1.380195	0.857779	0.142089
C37	C	0.797649	0.357785	-0.357911
C38	C	1.297649	0.857785	0.142089
C39	C	0.598201	0.308138	-0.308426
C40	C	1.098201	0.808138	0.191574
C41	C	0.548772	0.375877	-0.290155
C42	C	1.048772	0.875877	0.209845
C43	C	0.646519	0.357807	-0.357944
C44	C	1.146519	0.857807	0.142056
C45	C	0.548866	0.290092	-0.376213
C46	C	1.048866	0.790092	0.123787
C47	C	0.500534	0.357823	-0.357975
C48	C	1.000534	0.857823	0.142025
C49	C	0.598178	0.425582	-0.339638
C50	C	1.098178	0.925582	0.160362
C51	C	0.598275	0.339751	-0.425727
C52	C	1.098275	0.839751	0.074273
C53	C	0.548869	0.407537	-0.407482
C54	C	1.048869	0.907537	0.092518
C55	C	0.730617	0.357797	-0.357924
C56	C	1.230617	0.857797	0.142076
C57	C	0.416437	0.357841	-0.357995
C58	C	0.916437	0.857841	0.142005
C59	C	1.073036	0.550759	-0.357940
C60	C	1.573036	1.050759	0.142060
C61	C	1.073056	0.633304	-0.357960
C62	C	1.573056	1.133304	0.142040
C63	C	1.023486	0.832758	-0.407539
C64	C	1.523486	1.332758	0.092461
C65	C	1.005379	0.882202	-0.339770
C66	C	1.505379	1.382202	0.160230
C67	C	1.073112	0.784435	-0.357970
C68	C	1.573112	1.284435	0.142030
C69	C	1.091239	0.882072	-0.425747
C70	C	1.591239	1.382072	0.074253
C71	C	1.073164	0.930420	-0.357986
C72	C	1.573164	1.430420	0.142014
C73	C	1.054969	0.832792	-0.290165
C74	C	1.554969	1.332792	0.209835
C75	C	1.140861	0.832658	-0.376188
C76	C	1.640861	1.332658	0.123812
C77	C	1.122779	0.882080	-0.308373
C78	C	1.622779	1.382080	0.191627
C79	C	1.073080	0.700337	-0.357962
C80	C	1.573080	1.200337	0.142038
C81	C	1.073197	1.014516	-0.357986
C82	C	1.573197	1.514516	0.142014
C83	C	1.266853	0.357835	-0.357993
C84	C	1.766853	0.857835	0.142007
C85	C	1.349398	0.357847	-0.358011
C86	C	1.849398	0.857847	0.141989
C87	C	1.073251	1.164101	-0.357980
C88	C	1.573251	1.664101	0.142020
C89	C	1.073222	1.081555	-0.357995
C90	C	1.573222	1.581555	0.142005
C91	C	1.073187	0.357740	-0.551657
C92	C	1.573187	0.857740	-0.051657
C93	C	1.073205	0.357712	-0.634203
C94	C	1.573205	0.857712	-0.134203
C95	C	1.122891	0.308063	-0.883047
C96	C	1.622891	0.808063	-0.383047
C97	C	1.141005	0.375827	-0.833640
C98	C	1.641005	0.875827	-0.333640
C99	C	1.073252	0.357665	-0.931324
C100	C	1.573252	0.857665	-0.431324
C101	C	1.055150	0.289927	-0.833649
C102	C	1.555150	0.789927	-0.333649
C103	C	1.073231	0.357684	-0.785338
C104	C	1.573231	0.857684	-0.285338
C105	C	1.091402	0.425465	-0.883004
C106	C	1.591402	0.925465	-0.383004
C107	C	1.005515	0.339519	-0.883017
C108	C	1.505515	0.839519	-0.383017
C109	C	1.023603	0.407331	-0.833633
C110	C	1.523603	0.907331	-0.333633
C111	C	1.073267	0.357652	-1.015422
C112	C	1.573267	0.857652	-0.515422
C113	C	1.073216	0.357704	-0.701242
C114	C	1.573216	0.857704	-0.201242
C115	C	1.073150	0.357819	-0.164999
C116	C	1.573150	0.857819	0.335001
C117	C	1.073276	0.357638	-0.082454
C118	C	1.573276	0.857638	0.417546
H119	H	0.527345	0.449596	-0.449372
H120	H	1.027345	0.949596	0.050628
H121	H	1.106787	0.482770	-0.904594
H122	H	1.606787	0.982770	-0.404594
H123	H	1.164768	0.903599	-0.266412
H124	H	1.664768	1.403599	0.233588
H125	H	0.620036	0.324446	-0.483020
H126	H	1.120036	0.824446	0.016980
H127	H	1.198115	0.810881	-0.391616
H128	H	1.698115	1.310881	0.108384
H129	H	0.981616	0.449334	-0.812074
H130	H	1.481616	0.949334	-0.312074
H131	H	0.948257	0.324138	-0.904724
H132	H	1.448257	0.824138	-0.404724
H133	H	1.039591	0.811234	-0.232837
H134	H	1.539591	1.311234	0.267163
C135	C	0.475831	0.185298	-0.339232
C136	C	0.975831	0.685298	0.160768
C137	C	0.519624	0.212777	-0.397059
C138	C	1.019624	0.712777	0.102941
H139	H	0.457785	0.137565	-0.352096
H140	H	0.957785	0.637565	0.147904
H141	H	0.435249	0.217789	-0.330966
H142	H	0.935249	0.717789	0.169034
H143	H	0.504765	0.181895	-0.295417
H144	H	1.004765	0.681895	0.204583
H145	H	0.490688	0.216185	-0.440872
H146	H	0.990688	0.716185	0.059128
H147	H	0.560212	0.180278	-0.405333
H148	H	1.060212	0.680278	0.094667
C149	C	0.895879	0.828527	-0.444791
C150	C	1.395879	1.328527	0.055209
C151	C	0.966764	0.803512	-0.464046
C152	C	1.466764	1.303512	0.035954
H153	H	0.860862	0.810467	-0.479671
H154	H	1.360862	1.310467	0.020329
H155	H	0.895199	0.881143	-0.444875
H156	H	1.395199	1.381143	0.055125
H157	H	0.883500	0.810925	-0.396770
H158	H	1.383500	1.310925	0.103230
H159	H	0.979145	0.821119	-0.512064
H160	H	1.479145	1.321119	-0.012064
H161	H	0.967446	0.750886	-0.463969
H162	H	1.467446	1.250886	0.036031
C163	C	1.086555	0.160732	-0.829334
C164	C	1.586555	0.660732	-0.329334
C165	C	1.034484	0.212586	-0.804384
C166	C	1.534484	0.712586	-0.304384
H167	H	1.073797	0.112984	-0.811272
H168	H	1.573797	0.612984	-0.311272
H169	H	1.134320	0.173969	-0.811697
H170	H	1.634320	0.673969	-0.311697
H171	H	1.086853	0.160069	-0.881956
H172	H	1.586853	0.660069	-0.381956
H173	H	1.034190	0.213253	-0.751761
H174	H	1.534190	0.713253	-0.251761
H175	H	0.986707	0.199346	-0.822017
H176	H	1.486707	0.699346	-0.322017
C177	C	1.059842	0.886391	-0.554916
C178	C	1.559842	1.386391	-0.054916
C179	C	1.111916	0.911293	-0.503115
C180	C	1.611916	1.411293	-0.003115
H181	H	1.072606	0.904426	-0.602680
H182	H	1.572606	1.404426	-0.102680
H183	H	1.012081	0.904088	-0.541641
H184	H	1.512081	1.404088	-0.041641
H185	H	1.059532	0.833769	-0.555565
H186	H	1.559532	1.333769	-0.055565
H187	H	1.112221	0.963916	-0.502462
H188	H	1.612221	1.463916	-0.002462
H189	H	1.159689	0.893601	-0.516394
H190	H	1.659689	1.393601	-0.016394
C191	C	0.670548	0.530797	-0.376742
C192	C	1.170548	1.030797	0.123258
C193	C	0.627291	0.502921	-0.318702
C194	C	1.127291	1.002921	0.181298
H195	H	0.688525	0.578539	-0.363812
H196	H	1.188525	1.078539	0.136188
H197	H	0.641277	0.534279	-0.420317
H198	H	1.141277	1.034279	0.079683
H199	H	0.711186	0.498481	-0.385449
H200	H	1.211186	0.998481	0.114551
H201	H	0.586650	0.535234	-0.309999
H202	H	1.086650	1.035234	0.190001
H203	H	0.656564	0.499443	-0.275114
H204	H	1.156564	0.999443	0.224886
C205	C	0.929103	0.989151	-0.318545
C206	C	1.429103	1.489151	0.181455
C207	C	0.928069	0.911586	-0.318968
C208	C	1.428069	1.411586	0.181032
H209	H	0.881374	1.007287	-0.305703
H210	H	1.381374	1.507287	0.194297
H211	H	0.942299	1.006742	-0.366344
H212	H	1.442299	1.506742	0.133656
H213	H	0.964329	1.006025	-0.283291
H214	H	1.464329	1.506025	0.216709
H215	H	0.892846	0.894712	-0.354226
H216	H	1.392846	1.394712	0.145774
H217	H	0.914864	0.893987	-0.271162
H218	H	1.414864	1.393987	0.228838
C219	C	1.250499	0.270695	-0.887418
C220	C	1.750499	0.770695	-0.387418
C221	C	1.179611	0.251498	-0.912345
C222	C	1.679611	0.751498	-0.412345
H223	H	1.285515	0.235778	-0.905511
H224	H	1.785515	0.735778	-0.405511
H225	H	1.251190	0.270622	-0.834803
H226	H	1.751190	0.770622	-0.334803
H227	H	1.262871	0.318700	-0.905046
H228	H	1.762871	0.818700	-0.405046
H229	H	1.167236	0.203495	-0.894712
H230	H	1.667236	0.703495	-0.394712
H231	H	1.178917	0.251562	-0.964971
H232	H	1.678917	0.751562	-0.464971
C233	C	1.213299	0.461170	-0.761668
C234	C	1.713299	0.961170	-0.261668
C235	C	1.218322	0.396573	-0.804361
C236	C	1.718322	0.896573	-0.304361
H237	H	1.261033	0.473977	-0.743601
H238	H	1.761033	0.973977	-0.243601
H239	H	1.180807	0.452934	-0.721100
H240	H	1.680807	0.952934	-0.221100
H241	H	1.194660	0.500414	-0.791355
H242	H	1.694660	1.000414	-0.291355
H243	H	1.236956	0.357328	-0.774672
H244	H	1.736956	0.857328	-0.274672
H245	H	1.250826	0.404805	-0.844935
H246	H	1.750826	0.904805	-0.344935
C247	C	0.567618	0.217041	-0.216495
C248	C	1.067618	0.717041	0.283505
C249	C	0.627448	0.251495	-0.251839
C250	C	1.127448	0.751495	0.248161
H251	H	0.585676	0.182078	-0.181557
H252	H	1.085676	0.682078	0.318443
H253	H	0.537977	0.192369	-0.252282
H254	H	1.037977	0.692369	0.247718
H255	H	0.538632	0.253310	-0.191664
H256	H	1.038632	0.753310	0.308336
H257	H	0.656431	0.215227	-0.276674
H258	H	1.156431	0.715227	0.223326
H259	H	0.657102	0.276167	-0.216046
H260	H	1.157102	0.776167	0.283954
C261	C	0.441813	0.396853	-0.213851
C262	C	0.941813	0.896853	0.286149
C263	C	0.519377	0.396450	-0.212790
C264	C	1.019377	0.896450	0.287210
H265	H	0.423659	0.409535	-0.166088
H266	H	0.923659	0.909535	0.333912
H267	H	0.424241	0.349091	-0.227212
H268	H	0.924241	0.849091	0.272788
H269	H	0.424936	0.432215	-0.248968
H270	H	0.924936	0.932215	0.251032
H271	H	0.536255	0.361083	-0.177677
H272	H	1.036255	0.861083	0.322323
H273	H	0.536956	0.444218	-0.199420
H274	H	1.036956	0.944218	0.300580
