data_functionalizedCrystal
_audit_creation_method	'MofGen! by Chris Wilmer'
_symmetry_space_group_name_H-M	'P1'
_symmetry_Int_Tables_number	1
_symmetry_cell_setting	triclinic
loop_
_symmetry_equiv_pos_as_xyz
  x,y,z
_cell_length_a	15.944493
_cell_length_b	18.266242
_cell_length_c	15.944551
_cell_angle_alpha	90.007297
_cell_angle_beta	83.486891
_cell_angle_gamma	90.008470
loop_
_atom_site_label
_atom_site_type_symbol
_atom_site_fract_x
_atom_site_fract_y
_atom_site_fract_z
O1	O	1.114560	0.060873	0.108101
O2	O	1.614560	0.560873	0.608101
O3	O	0.870004	0.060877	0.121509
O4	O	1.370004	0.560877	0.621509
O5	O	0.998960	0.060868	-0.007471
O6	O	1.498960	0.560868	0.492529
O7	O	0.985603	0.060881	0.237081
O8	O	1.485603	0.560881	0.737081
O9	O	0.998938	-0.060894	-0.007478
O10	O	1.498938	0.439106	0.492522
O11	O	0.869982	-0.060885	0.121502
O12	O	1.369982	0.439115	0.621502
O13	O	1.114538	-0.060889	0.108095
O14	O	1.614538	0.439111	0.608095
Zn15	Zn	0.992256	-0.080220	0.114797
Zn16	Zn	1.492256	0.419780	0.614797
Zn17	Zn	0.992285	0.080207	0.114806
Zn18	Zn	1.492285	0.580207	0.614806
O19	O	0.985582	-0.060881	0.237075
O20	O	1.485582	0.439119	0.737075
C21	C	0.838698	-0.000004	0.120957
C22	C	1.338698	0.499996	0.620957
C23	C	0.745449	-0.000003	0.119314
C24	C	1.245449	0.499997	0.619314
N25	N	0.992243	-0.189707	0.114791
N26	N	1.492243	0.310293	0.614791
C27	C	0.509689	0.000002	0.195235
C28	C	1.009689	0.500002	0.695235
C29	C	0.459120	-0.060038	0.154291
C30	C	0.959120	0.439962	0.654291
C31	C	0.574728	-0.000004	0.116270
C32	C	1.074728	0.499996	0.616270
C33	C	0.459146	0.060009	0.154279
C34	C	0.959146	0.560009	0.654279
C35	C	0.409819	-0.000003	0.113336
C36	C	0.909819	0.499997	0.613336
C37	C	0.525387	-0.060094	0.075347
C38	C	1.025387	0.439906	0.575347
C39	C	0.525417	0.060007	0.075347
C40	C	1.025417	0.560007	0.575347
C41	C	0.474880	-0.000048	0.034345
C42	C	0.974880	0.499952	0.534345
C43	C	0.669728	-0.000006	0.117963
C44	C	1.169728	0.499994	0.617963
C45	C	0.314821	-0.000006	0.111637
C46	C	0.814821	0.499994	0.611637
C47	C	1.049363	-0.228019	0.057707
C48	C	1.549363	0.271981	0.557707
C49	C	1.049369	-0.304664	0.057703
C50	C	1.549369	0.195336	0.557703
C51	C	0.992262	-0.342993	0.114797
C52	C	1.492262	0.157007	0.614797
C53	C	0.935130	-0.304672	0.171886
C54	C	1.435130	0.195328	0.671886
C55	C	0.935121	-0.228028	0.171883
C56	C	1.435121	0.271972	0.671883
N57	N	0.981574	-0.463322	0.189123
N58	N	1.481574	0.036678	0.689123
N59	N	0.981588	-0.536130	0.189124
N60	N	1.481588	-0.036130	0.689124
C61	C	0.992285	-0.573916	0.114810
C62	C	1.492285	-0.073916	0.614810
N63	N	1.002984	-0.536143	0.040493
N64	N	1.502984	-0.036143	0.540493
N65	N	1.002975	-0.463329	0.040493
N66	N	1.502975	0.036671	0.540493
C67	C	0.992265	-0.426100	0.114807
C68	C	1.492265	0.073900	0.614807
C69	C	1.049415	-0.695336	0.057717
C70	C	1.549415	-0.195336	0.557717
C71	C	1.049414	-0.771982	0.057711
C72	C	1.549414	-0.271982	0.557711
C73	C	0.935180	-0.771988	0.171902
C74	C	1.435180	-0.271988	0.671902
C75	C	0.935176	-0.695343	0.171900
C76	C	1.435176	-0.195343	0.671900
C77	C	0.992298	-0.657022	0.114808
C78	C	1.492298	-0.157022	0.614808
C79	C	1.145844	-0.000007	0.108646
C80	C	1.645844	0.499993	0.608646
C81	C	1.239092	-0.000003	0.110289
C82	C	1.739092	0.499997	0.610289
C83	C	0.998395	-0.000013	-0.038768
C84	C	1.498395	0.499987	0.461232
C85	C	0.996732	-0.000013	-0.132014
C86	C	1.496732	0.499987	0.367986
N87	N	0.992305	0.189694	0.114806
N88	N	1.492305	0.689694	0.614806
C89	C	0.912826	-0.000002	-0.346853
C90	C	1.412826	0.499998	0.153147
C91	C	0.951778	-0.060039	-0.407882
C92	C	1.451778	0.439961	0.092118
C93	C	0.993725	-0.000008	-0.302739
C94	C	1.493725	0.499992	0.197261
C95	C	0.951819	0.060009	-0.407859
C96	C	1.451819	0.560009	0.092141
C97	C	0.990814	0.000001	-0.467651
C98	C	1.490814	0.500001	0.032349
C99	C	1.032700	-0.060094	-0.362540
C100	C	1.532700	0.439906	0.137460
C101	C	1.032729	0.060008	-0.362510
C102	C	1.532729	0.560008	0.137490
C103	C	1.071741	-0.000044	-0.423521
C104	C	1.571741	0.499956	0.076479
C105	C	0.995399	-0.000013	-0.207737
C106	C	1.495399	0.499987	0.292263
C107	C	0.989146	0.000001	-0.562652
C108	C	1.489146	0.500001	-0.062652
C109	C	0.986147	0.000002	0.268372
C110	C	1.486147	0.500002	0.768372
C111	C	0.987809	0.000007	0.361617
C112	C	1.487809	0.500007	0.861617
H113	H	0.430174	-0.110794	0.187636
H114	H	0.930174	0.389206	0.687636
H115	H	0.888666	-0.664147	0.218387
H116	H	1.388666	-0.164147	0.718387
N117	N	0.561546	-0.123833	0.033537
N118	N	1.061546	0.376167	0.533537
N119	N	0.639475	-0.134132	0.028097
N120	N	1.139475	0.365868	0.528097
H121	H	0.665014	-0.179147	-0.001429
H122	H	1.165014	0.320853	0.498571
H123	H	1.066879	-0.110906	-0.342559
H124	H	1.566879	0.389094	0.157441
H125	H	1.095885	-0.335864	0.011216
H126	H	1.595885	0.164136	0.511216
H127	H	0.845675	-0.000061	-0.313532
H128	H	1.345675	0.499939	0.186468
H129	H	0.888631	-0.335883	0.218372
H130	H	1.388631	0.164117	0.718372
H131	H	1.138950	-0.000079	-0.456694
H132	H	1.638950	0.499921	0.043306
H133	H	0.917552	-0.110794	-0.427986
H134	H	1.417552	0.389206	0.072014
N135	N	0.455486	-0.000099	-0.051051
N136	N	0.955486	0.499901	0.448949
N137	N	0.479889	-0.051693	-0.099257
N138	N	0.979889	0.448307	0.400743
H139	H	0.466191	-0.051733	-0.159568
H140	H	0.966191	0.448267	0.340432
H141	H	1.066926	0.110765	-0.342384
H142	H	1.566926	0.610765	0.157616
N143	N	0.908890	0.123674	-0.433062
N144	N	1.408890	0.623674	0.066938
N145	N	0.844556	0.117003	-0.470510
N146	N	1.344556	0.617003	0.029490
H147	H	0.814232	0.161963	-0.488309
H148	H	1.314232	0.661963	0.011691
N149	N	0.529296	-0.000074	0.280561
N150	N	1.029296	0.499926	0.780561
N151	N	0.505033	-0.051705	0.328765
N152	N	1.005033	0.448295	0.828765
H153	H	0.518883	-0.051763	0.389025
H154	H	1.018883	0.448237	0.889025
H155	H	0.554372	0.110765	0.042027
H156	H	1.054372	0.610765	0.542027
H157	H	1.095925	-0.664133	0.011226
H158	H	1.595925	-0.164133	0.511226
H159	H	0.888605	-0.196833	0.218368
H160	H	1.388605	0.303167	0.718368
H161	H	0.430217	0.110762	0.187645
H162	H	0.930217	0.610762	0.687645
H163	H	1.095874	-0.196820	0.011217
H164	H	1.595874	0.303180	0.511217
H165	H	0.888678	-0.803195	0.218387
H166	H	1.388678	-0.303195	0.718387
N167	N	1.107764	-0.811109	-0.000615
N168	N	1.607764	-0.311109	0.499385
N169	N	1.158755	-0.776880	-0.051583
N170	N	1.658755	-0.276880	0.448417
H171	H	1.199966	-0.804514	-0.092778
H172	H	1.699966	-0.304514	0.407222
