data_functionalizedCrystal
_audit_creation_method	'MofGen! by Chris Wilmer'
_symmetry_space_group_name_H-M	'P1'
_symmetry_Int_Tables_number	1
_symmetry_cell_setting	triclinic
loop_
_symmetry_equiv_pos_as_xyz
  x,y,z
_cell_length_a	10.654551
_cell_length_b	16.956995
_cell_length_c	9.130313
_cell_angle_alpha	89.996746
_cell_angle_beta	90.001552
_cell_angle_gamma	80.269917
loop_
_atom_site_label
_atom_site_type_symbol
_atom_site_fract_x
_atom_site_fract_y
_atom_site_fract_z
O1	O	0.052013	1.058320	-0.121897
O2	O	0.096075	0.826407	-0.121875
O3	O	-0.109322	0.947695	-0.121887
O4	O	0.257410	0.937032	-0.121885
O5	O	-0.109317	0.947694	0.121711
O6	O	0.096080	0.826405	0.121723
O7	O	0.052018	1.058319	0.121702
Cu8	Cu	0.074050	0.942362	0.143955
Cu9	Cu	0.074043	0.942364	-0.144129
O10	O	0.257415	0.937030	0.121714
C11	C	0.098333	0.796711	-0.000073
C12	C	0.105041	0.708227	-0.000065
C13	C	0.155218	0.209204	-0.000120
C14	C	0.148906	0.292345	-0.000119
C15	C	0.030427	0.342777	-0.000108
C16	C	-0.081747	0.310066	-0.000114
C17	C	-0.075434	0.226927	-0.000126
C18	C	-0.000820	0.592377	-0.000083
C19	C	-0.007125	0.675521	-0.000067
C20	C	0.223529	0.657794	-0.000074
C21	C	0.229831	0.574654	-0.000077
C22	C	0.117658	0.541950	-0.000090
N23	N	0.023972	0.427760	-0.000103
N24	N	0.124114	0.456969	-0.000107
C25	C	-0.156025	0.946911	-0.000091
C26	C	-0.295193	0.944568	-0.000101
C27	C	-0.360579	0.943470	-0.132884
C28	C	-0.491340	0.941262	-0.132877
C29	C	-0.491318	0.941253	0.132708
C30	C	-0.360558	0.943456	0.132699
C31	C	-0.360593	0.943478	-0.286218
C32	C	-0.491354	0.941270	-0.286211
C33	C	0.304118	0.937814	-0.000086
C34	C	0.443286	0.940157	-0.000086
C35	C	0.049759	1.088015	-0.000103
C36	C	0.043052	1.176498	-0.000121
N37	N	0.074053	0.942366	0.346578
N38	N	0.074030	0.942365	-0.346751
C39	C	-0.016870	0.996087	0.423224
C40	C	-0.016885	0.996085	0.576561
C41	C	0.164957	0.888639	0.576591
C42	C	0.164965	0.888638	0.423257
C43	C	-0.121851	1.058122	0.423208
C44	C	-0.121866	1.058120	0.576545
H45	H	-0.092160	0.565760	-0.000090
H46	H	0.238991	0.844888	0.360853
H47	H	-0.166771	0.200300	-0.000129
C48	C	-0.212074	0.365536	-0.000116
H49	H	-0.277972	0.334148	-0.000135
H50	H	-0.219334	0.398333	0.084834
H51	H	-0.219329	0.398340	-0.085073
C52	C	-0.242016	1.031965	0.640798
H53	H	-0.237921	1.032849	0.744715
H54	H	-0.315351	1.067616	0.608663
H55	H	-0.246879	0.979280	0.608674
C56	C	-0.522082	0.862756	-0.350488
H57	H	-0.445283	0.829321	-0.379126
H58	H	-0.564015	0.836130	-0.278605
H59	H	-0.575893	0.874381	-0.433407
C60	C	0.360155	0.519180	-0.000105
H61	H	0.347850	0.464982	-0.000102
H62	H	0.406496	0.529172	-0.085056
H63	H	0.406515	0.529156	0.084851
H64	H	-0.216784	1.044515	0.381589
H65	H	-0.098063	1.115983	0.375645
C66	C	0.272288	0.328318	-0.000099
H67	H	0.343753	0.286375	-0.000084
H68	H	0.274628	0.360389	-0.085040
H69	H	0.274615	0.360374	0.084867
C70	C	0.346908	0.693770	-0.000080
H71	H	0.326185	0.750508	-0.000085
H72	H	0.395341	0.676498	0.084859
H73	H	0.395312	0.676509	-0.085048
C74	C	0.264958	0.829548	0.660943
H75	H	0.251937	0.837244	0.763242
H76	H	0.256802	0.776288	0.635816
H77	H	0.347840	0.838668	0.635824
C78	C	-0.288636	0.944659	0.278760
H79	H	-0.346298	0.943689	0.357847
H80	H	-0.223232	0.899128	0.284275
H81	H	-0.252024	0.991916	0.284280
H82	H	-0.107545	1.119361	0.618156
H83	H	-0.103610	0.716583	-0.000066
C84	C	-0.289315	0.869086	-0.365744
H85	H	-0.200584	0.870590	-0.365759
H86	H	-0.304481	0.822188	-0.316710
H87	H	-0.318896	0.868597	-0.463843
C88	C	-0.563226	0.940035	0.278776
H89	H	-0.650468	0.938570	0.259766
H90	H	-0.527396	0.894005	0.333339
H91	H	-0.556190	0.986793	0.333330
H92	H	-0.544119	0.996343	-0.345089
C93	C	0.285546	0.153735	-0.000139
H94	H	0.351442	0.185125	-0.000154
H95	H	0.292819	0.120925	0.084801
H96	H	0.292790	0.120945	-0.085107
H97	H	-0.337859	1.001602	-0.333798
