data_functionalizedCrystal
_audit_creation_method	'MofGen! by Chris Wilmer'
_symmetry_space_group_name_H-M	'P1'
_symmetry_Int_Tables_number	1
_symmetry_cell_setting	triclinic
loop_
_symmetry_equiv_pos_as_xyz
  x,y,z
_cell_length_a	13.339070
_cell_length_b	11.792241
_cell_length_c	11.804365
_cell_angle_alpha	101.912841
_cell_angle_beta	74.875130
_cell_angle_gamma	99.911355
loop_
_atom_site_label
_atom_site_type_symbol
_atom_site_fract_x
_atom_site_fract_y
_atom_site_fract_z
O1	O	1.365765	0.553461	-0.099072
O2	O	1.070826	0.478649	-0.099065
O3	O	1.225451	0.353090	-0.099061
O4	O	1.211140	0.679019	-0.099077
O5	O	1.184744	0.386099	0.098994
O6	O	1.030119	0.511657	0.098990
O7	O	1.325058	0.586469	0.098982
Cu8	Cu	1.173871	0.552077	0.117070
Cu9	Cu	1.222012	0.513041	-0.117153
O10	O	1.170433	0.712028	0.098978
C11	C	1.012714	0.482516	-0.000037
C12	C	0.900205	0.444847	-0.000034
C13	C	0.537025	0.737736	-0.000067
C14	C	0.642733	0.773130	-0.000074
C15	C	0.707106	0.691063	-0.000063
C16	C	0.665761	0.573594	-0.000047
C17	C	0.560044	0.538195	-0.000050
C18	C	0.730125	0.491522	-0.000046
C19	C	0.688780	0.374054	-0.000030
C20	C	0.583073	0.338660	-0.000032
C21	C	0.518700	0.420728	-0.000042
C22	C	0.835842	0.526921	-0.000043
C23	C	0.858861	0.327380	-0.000026
C24	C	0.753153	0.291986	-0.000019
C25	C	1.204198	0.327026	-0.000034
C26	C	1.201507	0.200184	-0.000035
C27	C	1.196562	-0.032056	-0.000054
C28	C	1.199310	0.097178	-0.000044
C29	C	1.383171	0.582602	-0.000049
C30	C	1.495681	0.620269	-0.000060
C31	C	1.191686	0.738091	-0.000052
C32	C	1.194379	0.864933	-0.000059
N33	N	1.140019	0.579535	0.281810
N34	N	1.255873	0.485577	-0.281892
C35	C	1.337164	0.419619	0.655764
C36	C	1.362772	0.398842	0.531103
C37	C	1.307086	0.444013	0.468774
C38	C	1.225788	0.509965	0.531117
C39	C	1.200182	0.530752	0.655790
C40	C	1.170104	0.555146	0.468800
C41	C	1.088806	0.621099	0.531144
C42	C	1.063204	0.641881	0.655804
C43	C	1.118891	0.596710	0.718134
C44	C	1.195709	0.534359	0.344127
C45	C	1.058727	0.645493	0.344153
C46	C	1.033119	0.666270	0.468814
H47	H	0.793178	0.719887	-0.000072
H48	H	0.719476	0.196340	-0.000016
H49	H	0.966925	0.719970	0.519590
O50	O	0.467589	0.826233	-0.000078
H51	H	0.498943	0.867406	-0.080811
O52	O	0.687331	0.899817	-0.000089
H53	H	0.718358	0.934164	0.080629
O54	O	0.404682	0.382547	-0.000030
H55	H	0.366870	0.459351	-0.000038
O56	O	0.975538	0.713033	0.723069
H57	H	1.006859	0.791213	0.779836
H58	H	1.327940	0.427093	0.367269
O59	O	1.091279	0.619118	0.852595
H60	H	1.008730	0.582519	0.885486
H61	H	1.013384	0.682278	0.293405
O62	O	0.538485	0.211961	-0.000028
H63	H	0.454166	0.201132	-0.000044
O64	O	1.283372	0.463209	0.276881
H65	H	1.357540	0.506595	0.300784
H66	H	0.869493	0.622565	-0.000052
O67	O	1.450443	0.327701	0.463860
H68	H	1.484856	0.299770	0.528141
H69	H	0.911275	0.260553	-0.000023
O70	O	1.397224	0.370905	0.722985
H71	H	1.365757	0.396437	0.820145
