data_functionalizedCrystal
_audit_creation_method	'MofGen! by Chris Wilmer'
_symmetry_space_group_name_H-M	'P1'
_symmetry_Int_Tables_number	1
_symmetry_cell_setting	triclinic
loop_
_symmetry_equiv_pos_as_xyz
  x,y,z
_cell_length_a	18.215407
_cell_length_b	19.077068
_cell_length_c	18.215399
_cell_angle_alpha	92.265636
_cell_angle_beta	89.983176
_cell_angle_gamma	92.327501
loop_
_atom_site_label
_atom_site_type_symbol
_atom_site_fract_x
_atom_site_fract_y
_atom_site_fract_z
Zn1	Zn	1.113266	-0.280183	-0.427868
Zn2	Zn	1.613266	0.219817	0.072132
Zn3	Zn	1.108231	-0.397890	-0.309739
Zn4	Zn	1.608231	0.102110	0.190261
Zn5	Zn	0.990204	-0.280211	-0.304816
Zn6	Zn	1.490204	0.219789	0.195184
Zn7	Zn	0.985216	-0.397846	-0.432762
Zn8	Zn	1.485216	0.102154	0.067238
O9	O	1.049229	-0.339032	-0.368796
O10	O	1.549229	0.160968	0.131204
O11	O	1.215582	-0.295804	-0.412210
O12	O	1.715582	0.204196	0.087790
O13	O	1.092554	-0.382310	-0.206103
O14	O	1.592554	0.117690	0.293897
O15	O	1.010723	-0.181716	-0.317031
O16	O	1.510723	0.318284	0.182969
O17	O	1.211883	-0.382282	-0.325421
O18	O	1.711883	0.117718	0.174579
O19	O	1.101137	-0.181696	-0.407437
O20	O	1.601137	0.318304	0.092563
O21	O	1.005841	-0.295852	-0.202486
O22	O	1.505841	0.204148	0.297514
O23	O	0.886558	-0.295809	-0.321777
O24	O	1.386558	0.204191	0.178223
O25	O	1.002222	-0.382207	-0.535096
O26	O	1.502222	0.117793	-0.035096
O27	O	0.882894	-0.382234	-0.415778
O28	O	1.382894	0.117766	0.084222
O29	O	1.096300	-0.295761	-0.531500
O30	O	1.596300	0.204239	-0.031500
O31	O	1.087718	-0.496375	-0.330166
O32	O	1.587718	0.003625	0.169834
O33	O	0.997339	-0.496342	-0.420551
O34	O	1.497339	0.003658	0.079449
C35	C	0.858023	-0.339020	-0.368775
C36	C	1.358023	0.160980	0.131225
C37	C	0.776224	-0.339032	-0.368784
C38	C	1.276224	0.160968	0.131216
C39	C	0.586138	-0.384105	-0.417674
C40	C	1.086138	0.115895	0.082326
C41	C	0.509279	-0.384107	-0.417683
C42	C	1.009279	0.115893	0.082317
C43	C	0.513072	-0.293973	-0.319935
C44	C	1.013072	0.206027	0.180065
C45	C	0.589929	-0.293968	-0.319930
C46	C	1.089929	0.206032	0.180070
C47	C	0.626460	-0.339038	-0.368798
C48	C	1.126460	0.160962	0.131202
C49	C	0.472744	-0.339045	-0.368813
C50	C	0.972744	0.160955	0.131187
C51	C	0.389410	-0.339047	-0.368823
C52	C	0.889410	0.160953	0.131177
C53	C	0.709799	-0.339035	-0.368790
C54	C	1.209799	0.160965	0.131210
C55	C	1.041461	-0.521896	-0.376440
C56	C	1.541461	-0.021896	0.123560
C57	C	1.038205	-0.600126	-0.379734
C58	C	1.538205	-0.100126	0.120266
C59	C	1.083766	-0.636872	-0.334263
C60	C	1.583766	-0.136872	0.165737
C61	C	1.080708	-0.710377	-0.337365
C62	C	1.580708	-0.210377	0.162635
C63	C	1.032084	-0.747135	-0.385937
C64	C	1.532084	-0.247135	0.114063
C65	C	0.986520	-0.710384	-0.431413
C66	C	1.486520	-0.210384	0.068587
C67	C	0.989583	-0.636880	-0.428314
C68	C	1.489583	-0.136880	0.071686
C69	C	1.017879	-0.966969	-0.400253
C70	C	1.517879	-0.466969	0.099747
C71	C	1.014818	-1.040478	-0.403348
C72	C	1.514818	-0.540478	0.096652
C73	C	1.109008	-1.040467	-0.309300
C74	C	1.609008	-0.540467	0.190700
C75	C	1.112063	-0.966961	-0.306202
C76	C	1.612063	-0.466961	0.193798
C77	C	1.066502	-0.930217	-0.351681
C78	C	1.566502	-0.430217	0.148319
N79	N	1.028955	-0.822270	-0.389108
N80	N	1.528955	-0.322270	0.110892
N81	N	1.069635	-0.855084	-0.348513
N82	N	1.569635	-0.355084	0.151487
C83	C	1.241182	-0.339045	-0.368818
C84	C	1.741182	0.160955	0.131182
C85	C	1.322980	-0.339050	-0.368828
C86	C	1.822980	0.160950	0.131172
C87	C	1.049266	-0.338976	-0.560747
C88	C	1.549266	0.161024	-0.060747
C89	C	1.049282	-0.338952	-0.642545
C90	C	1.549282	0.161048	-0.142545
C91	C	1.057048	-0.155455	-0.361139
C92	C	1.557048	0.344545	0.138861
C93	C	1.060380	-0.077225	-0.357876
C94	C	1.560380	0.422775	0.142124
C95	C	1.004171	-0.293903	-0.828855
C96	C	1.504171	0.206097	-0.328855
C97	C	1.004185	-0.293889	-0.905714
C98	C	1.504185	0.206111	-0.405714
C99	C	1.094484	-0.383917	-0.909469
C100	C	1.594484	0.116083	-0.409469
C101	C	1.094467	-0.383934	-0.832612
C102	C	1.594467	0.116066	-0.332612
C103	C	1.049311	-0.338923	-0.792307
C104	C	1.549311	0.161077	-0.292307
C105	C	1.049343	-0.338892	-0.946022
C106	C	1.549343	0.161108	-0.446022
C107	C	1.049357	-0.338877	-1.029355
C108	C	1.549357	0.161123	-0.529355
C109	C	1.049295	-0.338939	-0.708969
C110	C	1.549295	0.161061	-0.208969
C111	C	1.049237	-0.339038	-0.177590
C112	C	1.549237	0.160962	0.322410
C113	C	1.049372	-0.338863	-0.095784
C114	C	1.549372	0.161137	0.404216
H115	H	0.483319	-0.257280	-0.280148
H116	H	0.983319	0.242720	0.219852
H117	H	0.476452	-0.420804	-0.457483
H118	H	0.976452	0.079196	0.042517
O119	O	1.143157	-0.432497	-0.793190
O120	O	1.643157	0.067503	-0.293190
H121	H	1.135550	-0.424953	-0.732976
H122	H	1.635550	0.075047	-0.232976
O123	O	1.136225	-0.597233	-0.281883
O124	O	1.636225	-0.097233	0.218117
H125	H	1.130701	-0.539946	-0.287364
H126	H	1.630701	-0.039946	0.212636
H127	H	0.967403	-0.257252	-0.796041
H128	H	1.467403	0.242748	-0.296041
H129	H	1.146102	-1.070392	-0.272275
H130	H	1.646102	-0.570392	0.227725
O131	O	0.934077	-0.750031	-0.483803
O132	O	1.434077	-0.250031	0.016197
H133	H	0.902915	-0.712127	-0.514907
H134	H	1.402915	-0.212127	-0.014907
O135	O	0.955504	-0.245327	-0.945136
O136	O	1.455504	0.254673	-0.445136
H137	H	0.924109	-0.214029	-0.904195
H138	H	1.424109	0.285971	-0.404195
O139	O	0.968738	-0.927335	-0.449295
O140	O	1.468738	-0.427335	0.050705
H141	H	0.932719	-0.893895	-0.414905
H142	H	1.432719	-0.393895	0.085095
O143	O	0.633420	-0.245364	-0.267199
O144	O	1.133420	0.254636	0.232801
H145	H	0.621014	-0.190139	-0.277595
H146	H	1.121014	0.309861	0.222405
H147	H	1.117809	-0.740293	-0.300337
H148	H	1.617809	-0.240293	0.199663
H149	H	0.975231	-1.070405	-0.442913
H150	H	1.475231	-0.570405	0.057087
O151	O	0.940433	-0.597241	-0.477349
O152	O	1.440433	-0.097241	0.022651
H153	H	0.906100	-0.635148	-0.511637
H154	H	1.406100	-0.135148	-0.011637
O155	O	1.143191	-0.432462	-0.952937
O156	O	1.643191	0.067538	-0.452937
H157	H	1.181988	-0.400954	-0.986638
H158	H	1.681988	0.099046	-0.486638
O159	O	0.625544	-0.432705	-0.470387
O160	O	1.125544	0.067295	0.029613
H161	H	0.584590	-0.464037	-0.504380
H162	H	1.084590	0.035963	-0.004380
O163	O	1.164514	-0.927315	-0.253821
O164	O	1.664514	-0.427315	0.246179
H165	H	1.195689	-0.965216	-0.222728
H166	H	1.695689	-0.465216	0.277272
