data_functionalizedCrystal
_audit_creation_method	'MofGen! by Chris Wilmer'
_symmetry_space_group_name_H-M	'P1'
_symmetry_Int_Tables_number	1
_symmetry_cell_setting	triclinic
loop_
_symmetry_equiv_pos_as_xyz
  x,y,z
_cell_length_a	21.295418
_cell_length_b	25.639239
_cell_length_c	21.295411
_cell_angle_alpha	90.019526
_cell_angle_beta	90.043738
_cell_angle_gamma	90.054499
loop_
_atom_site_label
_atom_site_type_symbol
_atom_site_fract_x
_atom_site_fract_y
_atom_site_fract_z
Zn1	Zn	0.962320	-0.207990	0.356243
Zn2	Zn	0.962207	-0.295410	0.250972
Zn3	Zn	0.857043	-0.208014	0.250953
Zn4	Zn	0.856998	-0.295420	0.356169
O5	O	0.909642	-0.251708	0.303584
O6	O	1.050395	-0.219572	0.342318
O7	O	0.948229	-0.283822	0.162880
O8	O	0.871075	-0.134846	0.264943
O9	O	1.050312	-0.283799	0.264976
O10	O	0.948421	-0.134828	0.342299
O11	O	0.870965	-0.219613	0.162866
O12	O	0.768948	-0.219623	0.264871
O13	O	0.870997	-0.283816	0.444268
O14	O	0.768914	-0.283840	0.342172
O15	O	0.948377	-0.219582	0.444322
O16	O	0.948185	-0.368576	0.264904
O17	O	0.870888	-0.368584	0.342191
C18	C	0.746090	-0.251736	0.303512
C19	C	0.676122	-0.251760	0.303496
C20	C	0.643255	-0.285242	0.343686
C21	C	0.577512	-0.285229	0.343715
C22	C	0.544640	-0.251740	0.303541
C23	C	0.577515	-0.218252	0.263347
C24	C	0.643257	-0.218262	0.263325
N25	N	0.441365	-0.247648	0.248483
N26	N	0.378913	-0.247641	0.248506
C27	C	0.346565	-0.251707	0.303608
N28	N	0.379028	-0.255789	0.358686
N29	N	0.441485	-0.255799	0.358662
C30	C	0.473354	-0.251725	0.303561
C31	C	0.242412	-0.285176	0.343832
C32	C	0.176668	-0.285160	0.343862
C33	C	0.176673	-0.218185	0.263489
C34	C	0.242415	-0.218199	0.263465
C35	C	0.275281	-0.251697	0.303636
C36	C	0.909536	-0.387551	0.303555
C37	C	0.909548	-0.445665	0.303564
C38	C	0.949996	-0.806011	0.263409
C39	C	0.950020	-0.860616	0.263418
O40	O	0.984300	-0.888838	0.229245
N41	N	0.909753	-0.887947	0.303626
C42	C	0.869463	-0.860672	0.343833
O43	O	0.835215	-0.888934	0.378034
C44	C	0.869442	-0.806069	0.343827
C45	C	0.909708	-0.778740	0.303612
C46	C	0.990259	-0.778683	0.223198
C47	C	0.990233	-0.724082	0.223188
C48	C	0.949945	-0.696810	0.263391
C49	C	0.909682	-0.724139	0.303603
C50	C	0.829156	-0.778794	0.384037
C51	C	0.829139	-0.724187	0.384028
C52	C	0.869404	-0.696858	0.343812
C53	C	0.869369	-0.642267	0.343796
N54	N	0.909636	-0.614935	0.303588
C55	C	0.949924	-0.642207	0.263385
C56	C	0.869510	-0.975343	0.343842
C57	C	0.869527	-1.029945	0.343845
C58	C	0.950086	-1.029885	0.263431
C59	C	0.950065	-0.975282	0.263425
C60	C	0.909778	-0.948011	0.303634
C61	C	0.949868	-0.527542	0.263369
C62	C	0.949837	-0.472937	0.263361
C63	C	0.869281	-0.473001	0.343778
C64	C	0.869309	-0.527602	0.343783
C65	C	0.909607	-0.554871	0.303577
O66	O	0.835108	-0.614010	0.377953
O67	O	0.984172	-0.613939	0.229195
C68	C	1.073832	-0.251681	0.303657
C69	C	1.143801	-0.251670	0.303688
C70	C	0.909694	-0.251697	0.467774
C71	C	0.909717	-0.251693	0.537743
C72	C	0.909766	-0.115335	0.303627
C73	C	0.909818	-0.057221	0.303645
C74	C	0.909626	-0.251682	0.140032
C75	C	0.909726	-0.251539	0.070065
C76	C	0.950007	-0.218244	0.570639
C77	C	0.950006	-0.218221	0.636381
C78	C	0.909721	-0.251657	0.669225
C79	C	0.869424	-0.285108	0.636321
C80	C	0.869421	-0.285126	0.570580
N81	N	0.904857	-0.297396	0.772441
N82	N	0.904863	-0.297377	0.834892
C83	C	0.909725	-0.251604	0.867300
N84	N	0.914594	-0.205848	0.834897
N85	N	0.914591	-0.205867	0.772440
C86	C	0.909719	-0.251641	0.740511
C87	C	0.950017	-0.218128	0.971482
C88	C	0.950011	-0.218104	1.037225
C89	C	0.869433	-0.284995	1.037164
C90	C	0.869435	-0.285014	0.971422
C91	C	0.909730	-0.251581	0.938584
H92	H	0.269176	-0.190937	0.230734
H93	H	0.550747	-0.190983	0.230639
C94	C	0.784753	-0.292312	0.897429
C95	C	0.825151	-0.321786	0.935257
H96	H	0.757410	-0.315015	0.875106
H97	H	0.808747	-0.272407	0.868466
H98	H	0.760697	-0.269531	0.923065
H99	H	0.849211	-0.344564	0.909620
H100	H	0.801155	-0.341699	0.964224
H101	H	0.836477	-0.450788	0.376509
H102	H	0.982893	-1.052099	0.230698
H103	H	0.796364	-0.801036	0.416781
C104	C	0.749519	-0.729735	0.463524
C105	C	0.784853	-0.694212	0.428229
H106	H	0.722178	-0.711230	0.490808
H107	H	0.776947	-0.750992	0.487635
H108	H	0.725463	-0.751070	0.436064
H109	H	0.808913	-0.672880	0.455688
H110	H	0.757422	-0.672946	0.404116
C111	C	0.636656	-0.152061	0.183880
C112	C	0.679389	-0.181460	0.219138
H113	H	0.658965	-0.129345	0.156598
H114	H	0.611077	-0.132090	0.211360
H115	H	0.610952	-0.174812	0.159764
H116	H	0.705090	-0.158709	0.243258
H117	H	0.704978	-0.201433	0.191655
H118	H	0.269173	-0.312450	0.376545
H119	H	0.836626	-0.312213	1.063905
C120	C	1.029654	-0.152124	0.577308
C121	C	0.994292	-0.181489	0.534545
H122	H	1.056989	-0.129430	0.555023
H123	H	1.053713	-0.174893	0.602963
H124	H	1.002239	-0.132124	0.602933
H125	H	1.021706	-0.201492	0.508923
H126	H	0.970231	-0.158717	0.508879
C127	C	0.789682	-0.522174	0.423272
C128	C	0.825049	-0.557645	0.387988
H129	H	0.762365	-0.540719	0.450569
H130	H	0.765604	-0.500920	0.395811
H131	H	0.817094	-0.500831	0.447375
H132	H	0.797637	-0.578985	0.363882
H133	H	0.849129	-0.578908	0.415453
C134	C	0.958831	-0.147874	0.710327
C135	C	0.994299	-0.181455	0.672551
H136	H	0.986177	-0.125175	0.732653
H137	H	0.934840	-0.167783	0.739289
H138	H	0.931428	-0.127882	0.684656
H139	H	1.021698	-0.201450	0.698223
H140	H	1.018300	-0.161544	0.643586
C141	C	0.156377	-0.192589	0.156954
C142	C	0.140559	-0.181371	0.219320
H143	H	0.134086	-0.169857	0.129685
H144	H	0.145536	-0.227700	0.147675
H145	H	0.200238	-0.187809	0.151205
H146	H	0.096699	-0.186155	0.225070
H147	H	0.151396	-0.146251	0.228602
C148	C	0.636642	-0.351443	0.423133
C149	C	0.679380	-0.322058	0.387848
H150	H	0.658946	-0.374168	0.450399
H151	H	0.610946	-0.371404	0.395670
H152	H	0.611055	-0.328683	0.447268
H153	H	0.704963	-0.344818	0.363709
H154	H	0.705086	-0.302096	0.415314
H155	H	0.836733	-1.052191	0.376587
C156	C	0.503656	-0.292589	0.428394
C157	C	0.541371	-0.322035	0.387893
H158	H	0.481348	-0.315311	0.455669
H159	H	0.474679	-0.272643	0.404470
H160	H	0.529367	-0.269848	0.452517
H161	H	0.515659	-0.344773	0.363767
H162	H	0.570351	-0.341990	0.411819
C163	C	0.860622	-0.355424	0.710239
C164	C	0.825144	-0.321863	0.672419
H165	H	0.833283	-0.378117	0.732520
H166	H	0.884611	-0.335499	0.739240
H167	H	0.888027	-0.375423	0.684603
H168	H	0.797742	-0.301862	0.698055
H169	H	0.801145	-0.341790	0.643414
H170	H	0.836698	-0.953141	0.376584
H171	H	0.982626	-0.450687	0.230611
H172	H	0.836609	-0.312363	0.543796
H173	H	0.982684	-0.549738	0.230630
H174	H	0.149909	-0.312424	0.376594
C175	C	1.029659	-0.152003	0.978143
C176	C	0.994300	-0.181373	0.935382
H177	H	1.056994	-0.129310	0.955856
H178	H	1.053718	-0.174770	1.003801
H179	H	1.002242	-0.132003	1.003765
H180	H	1.021717	-0.201376	0.909763
H181	H	0.970239	-0.158604	0.909712
H182	H	0.982819	-0.190863	1.064008
H183	H	1.023023	-0.701834	0.190444
C184	C	1.069873	-0.773124	0.143706
C185	C	1.034545	-0.808654	0.178998
H186	H	1.097210	-0.791625	0.116412
H187	H	1.093930	-0.751796	0.171163
H188	H	1.042438	-0.751862	0.119601
H189	H	1.061980	-0.829914	0.203107
H190	H	1.010487	-0.829991	0.151537
C191	C	1.029692	-0.980720	0.183940
C192	C	0.994330	-0.945245	0.219224
H193	H	1.057023	-0.962177	0.156654
H194	H	1.002283	-1.002052	0.159832
H195	H	1.053762	-1.001984	0.211407
H196	H	0.970256	-0.923983	0.191756
H197	H	1.021743	-0.923904	0.243334
