data_functionalizedCrystal
_audit_creation_method	'MofGen! by Chris Wilmer'
_symmetry_space_group_name_H-M	'P1'
_symmetry_Int_Tables_number	1
_symmetry_cell_setting	triclinic
loop_
_symmetry_equiv_pos_as_xyz
  x,y,z
_cell_length_a	16.994737
_cell_length_b	12.759401
_cell_length_c	12.759399
_cell_angle_alpha	90.016641
_cell_angle_beta	90.028012
_cell_angle_gamma	90.010352
loop_
_atom_site_label
_atom_site_type_symbol
_atom_site_fract_x
_atom_site_fract_y
_atom_site_fract_z
Zn1	Zn	-0.445979	-1.606154	0.418203
Zn2	Zn	-0.314080	-1.606076	0.593909
Zn3	Zn	-0.314093	-1.430485	0.418250
Zn4	Zn	-0.445946	-1.430443	0.593845
O5	O	-0.380025	-1.518289	0.506052
O6	O	-0.428491	-1.753164	0.441518
O7	O	-0.203701	-1.582768	0.570654
O8	O	-0.331607	-1.453838	0.271222
O9	O	-0.331586	-1.753107	0.570609
O10	O	-0.428503	-1.582901	0.271188
O11	O	-0.203710	-1.453762	0.441598
O12	O	-0.331575	-1.283458	0.441536
O13	O	-0.556332	-1.453766	0.570499
O14	O	-0.428447	-1.283427	0.570545
O15	O	-0.556356	-1.582860	0.441455
O16	O	-0.331554	-1.582728	0.740922
O17	O	-0.428435	-1.453691	0.740875
C18	C	-0.380009	-1.245322	0.506039
C19	C	-0.380021	-1.128545	0.506059
C20	C	-0.675085	-1.518352	0.505940
C21	C	-0.585763	-1.518324	0.505974
Zn22	Zn	-0.945944	-1.606467	0.593437
Zn23	Zn	-0.945982	-1.430544	0.418110
Zn24	Zn	-0.814103	-1.430738	0.593843
Zn25	Zn	-0.814071	-1.606115	0.417868
O26	O	-0.880025	-1.518466	0.505815
O27	O	-1.056330	-1.583197	0.570111
O28	O	-0.928518	-1.283549	0.441693
O29	O	-0.831590	-1.454277	0.740810
O30	O	-1.056358	-1.453947	0.441299
O31	O	-0.928452	-1.583385	0.740511
O32	O	-0.831627	-1.283691	0.570803
O33	O	-0.703718	-1.453936	0.570568
O34	O	-0.831534	-1.753183	0.440887
O35	O	-0.703694	-1.582785	0.441281
O36	O	-0.928421	-1.753441	0.569876
O37	O	-0.928486	-1.453605	0.271057
O38	O	-0.831571	-1.582597	0.270880
C39	C	-0.175085	-1.518319	0.506055
C40	C	-0.085763	-1.518515	0.505790
C41	C	-0.380007	-1.518225	0.779019
C42	C	-0.380025	-1.518293	0.895796
C43	C	-0.380041	-1.792323	0.506065
C44	C	-0.380048	-1.909099	0.506071
C45	C	-0.430383	-1.073695	0.573336
C46	C	-0.430399	-0.963971	0.573340
C47	C	-0.329683	-0.963957	0.438787
C48	C	-0.329672	-1.073679	0.438778
C49	C	-0.380060	-1.518383	0.232018
C50	C	-0.380075	-1.518422	0.115242
C51	C	-0.329637	-1.585560	0.950647
C52	C	-0.329663	-1.585627	1.060371
C53	C	-0.430469	-1.451153	1.060382
C54	C	-0.430446	-1.451092	0.950660
C55	C	-0.880030	-1.518037	0.232848
C56	C	-0.880053	-1.517820	0.116071
C57	C	-0.879969	-1.792499	0.505309
C58	C	-0.879946	-1.909275	0.505094
C59	C	-0.879974	-1.518954	0.779847
C60	C	-0.879832	-1.519322	0.896623
C61	C	-0.880124	-1.245499	0.506392
C62	C	-0.880296	-1.128724	0.506897
C63	C	-0.930561	-1.450617	0.061337
C64	C	-0.930586	-1.450427	-0.048387
C65	C	-0.829588	-1.584644	-0.048632
C66	C	-0.829567	-1.584839	0.061090
C67	C	-0.930378	-1.964274	0.572144
C68	C	-0.930351	-2.073998	0.571939
C69	C	-0.829457	-2.073715	0.437624
C70	C	-0.829481	-1.963993	0.437835
H71	H	-0.471382	-1.118363	0.628117
H72	H	-0.788482	-1.639208	-0.093409
Cl73	Cl	-0.493849	-1.366673	1.129362
Cl74	Cl	-0.993817	-1.895489	0.656701
Cl75	Cl	-0.266390	-0.894976	0.354213
H76	H	-0.471409	-0.919316	0.628122
H77	H	-0.788409	-1.919213	0.383233
Cl78	Cl	-0.266360	-1.142640	0.354187
Cl79	Cl	-0.266253	-1.670044	0.881678
H80	H	-0.788372	-2.118280	0.382863
Cl81	Cl	-0.766070	-1.669335	0.129904
H82	H	-0.971716	-1.395706	-0.092949
Cl83	Cl	-0.266316	-1.670197	1.129323
H84	H	-0.471482	-1.396316	0.905997
H85	H	-0.971675	-1.396053	0.106100
Cl86	Cl	-0.993753	-2.143134	0.656238
