data_functionalizedCrystal
_audit_creation_method	'MofGen! by Chris Wilmer'
_symmetry_space_group_name_H-M	'P1'
_symmetry_Int_Tables_number	1
_symmetry_cell_setting	triclinic
loop_
_symmetry_equiv_pos_as_xyz
  x,y,z
_cell_length_a	15.944551
_cell_length_b	15.944551
_cell_length_c	14.421503
_cell_angle_alpha	90.003340
_cell_angle_beta	89.996859
_cell_angle_gamma	83.498738
loop_
_atom_site_label
_atom_site_type_symbol
_atom_site_fract_x
_atom_site_fract_y
_atom_site_fract_z
O1	O	1.114529	0.108320	-0.077017
O2	O	0.869980	0.121677	-0.077040
O3	O	0.998933	-0.007276	-0.077020
O4	O	0.985576	0.237273	-0.077038
O5	O	0.998911	-0.007257	0.077204
O6	O	0.869958	0.121696	0.077183
O7	O	1.114508	0.108340	0.077206
Cu8	Cu	0.992231	0.115020	0.091277
Cu9	Cu	0.992256	0.114997	-0.091110
O10	O	0.985555	0.237293	0.077186
C11	C	0.838675	0.121132	0.000069
C12	C	0.745429	0.119470	0.000060
C13	C	0.998367	-0.038561	0.000092
C14	C	0.996705	-0.131807	0.000093
C15	C	0.530572	0.035565	0.000084
C16	C	0.469563	0.074518	-0.075959
C17	C	0.574703	0.116462	0.000071
C18	C	0.469564	0.074556	0.076093
C19	C	0.409790	0.113551	0.000086
C20	C	0.514922	0.155437	-0.076035
C21	C	0.514929	0.155464	0.076086
C22	C	0.453937	0.194476	0.000024
C23	C	0.669705	0.118137	0.000062
C24	C	0.314789	0.111883	0.000089
C25	C	0.912801	-0.346663	0.000072
C26	C	0.951753	-0.407671	0.076117
C27	C	0.993698	-0.302533	0.000085
C28	C	0.951793	-0.407674	-0.075935
C29	C	0.990787	-0.467445	0.000074
C30	C	1.032672	-0.362312	0.076193
C31	C	1.032701	-0.362308	-0.075927
C32	C	1.071711	-0.423298	0.000136
C33	C	0.995372	-0.207530	0.000092
C34	C	0.989119	-0.562446	0.000073
C35	C	1.145813	0.108885	0.000096
C36	C	1.239059	0.110547	0.000098
C37	C	0.986120	0.268577	0.000072
C38	C	0.987782	0.361823	0.000066
N39	N	0.992219	0.115035	0.219558
N40	N	0.992275	0.114975	-0.219392
C41	C	0.932581	0.174636	0.469202
C42	C	1.008481	0.190943	0.531011
C43	C	0.992240	0.115015	0.408719
C44	C	0.916359	0.098727	0.531005
C45	C	0.992253	0.114997	0.591441
C46	C	1.068178	0.131360	0.469167
C47	C	0.976007	0.039111	0.469156
C48	C	1.051961	0.055386	0.530936
C49	C	0.992231	0.115027	0.303458
C50	C	0.992270	0.114985	0.696700
H51	H	0.563905	-0.031573	-0.000005
O52	O	0.538923	0.196136	0.152871
C53	C	0.516060	0.153286	0.232893
H54	H	0.509296	0.084803	0.214680
H55	H	0.566982	0.155344	0.288071
H56	H	0.453418	0.185060	0.260637
O57	O	1.073506	-0.338154	-0.152547
C58	C	1.075142	-0.249937	-0.151022
H59	H	1.067617	-0.226159	-0.076604
H60	H	1.137906	-0.233940	-0.180054
H61	H	1.021230	-0.218379	-0.195173
H62	H	0.917527	-0.427771	0.140401
O63	O	1.024995	0.267506	0.563327
C64	C	1.104429	0.285135	0.530492
H65	H	1.121171	0.246928	0.464925
H66	H	1.101981	0.355327	0.514177
H67	H	1.154366	0.267405	0.585820
O68	O	0.538859	0.196293	-0.152723
C69	C	0.578893	0.266830	-0.125596
H70	H	0.604642	0.256735	-0.052213
H71	H	0.633055	0.274925	-0.175211
H72	H	0.531355	0.325866	-0.127429
O73	O	0.839763	0.082245	0.563251
C74	C	0.785789	0.071506	0.487783
H75	H	0.825190	0.052578	0.423597
H76	H	0.744177	0.019979	0.504903
H77	H	0.744355	0.133276	0.473823
H78	H	0.917575	-0.427758	-0.140230
O79	O	1.144806	0.147750	0.436927
C80	C	1.207657	0.085206	0.469108
H81	H	1.177780	0.025555	0.486840
H82	H	1.257329	0.070415	0.412813
H83	H	1.238685	0.109073	0.533691
O84	O	0.414237	0.274596	0.000012
C85	C	0.326122	0.272156	0.000750
H86	H	0.311327	0.209201	0.030385
H87	H	0.295037	0.325859	0.045525
H88	H	0.300748	0.279437	-0.073062
H89	H	0.449461	0.040294	-0.140243
O90	O	0.445702	0.033620	0.152761
C91	C	0.485095	-0.050134	0.152461
H92	H	0.544501	-0.054165	0.107948
H93	H	0.502792	-0.070262	0.226413
H94	H	0.439847	-0.093699	0.122780
H95	H	0.845652	-0.313356	0.000141
H96	H	1.066850	-0.342314	0.140554
H97	H	1.102474	0.004956	0.557872
O98	O	1.151880	-0.462878	0.000010
C99	C	1.164713	-0.513224	-0.080228
H100	H	1.117798	-0.488205	-0.136061
H101	H	1.231794	-0.511003	-0.106708
H102	H	1.154925	-0.581175	-0.062798
O103	O	0.872469	0.234765	0.436697
C104	C	0.872788	0.233477	0.338941
H105	H	0.901511	0.168785	0.313662
H106	H	0.805291	0.246689	0.312238
H107	H	0.911818	0.283914	0.311876
H108	H	0.962240	-0.025051	0.441965
