data_functionalizedCrystal
_audit_creation_method	'MofGen! by Chris Wilmer'
_symmetry_space_group_name_H-M	'P1'
_symmetry_Int_Tables_number	1
_symmetry_cell_setting	triclinic
loop_
_symmetry_equiv_pos_as_xyz
  x,y,z
_cell_length_a	16.120490
_cell_length_b	12.594516
_cell_length_c	16.120704
_cell_angle_alpha	92.898296
_cell_angle_beta	89.858135
_cell_angle_gamma	92.880665
loop_
_atom_site_label
_atom_site_type_symbol
_atom_site_fract_x
_atom_site_fract_y
_atom_site_fract_z
Zn1	Zn	1.247318	0.539579	0.534563
Zn2	Zn	1.254287	0.708956	0.395516
Zn3	Zn	1.115336	0.521516	0.388484
Zn4	Zn	1.108217	0.708028	0.527487
O5	O	1.181290	0.619520	0.461512
O6	O	1.364608	0.569996	0.522021
O7	O	1.241752	0.676921	0.278217
O8	O	1.132907	0.374972	0.407879
O9	O	1.369728	0.694436	0.419864
O10	O	1.229872	0.388243	0.515203
O11	O	1.139665	0.539210	0.273051
O12	O	0.998027	0.538309	0.401019
O13	O	1.120773	0.692853	0.644791
O14	O	0.992796	0.675338	0.503144
O15	O	1.222969	0.569095	0.649989
O16	O	1.234849	0.857774	0.413004
O17	O	1.127532	0.857091	0.509963
C18	C	0.965239	0.604763	0.450551
C19	C	0.872811	0.598477	0.445882
C20	C	0.659839	0.652118	0.485735
C21	C	0.703589	0.587011	0.437356
C22	C	0.797753	0.593393	0.442101
C23	C	0.565666	0.645737	0.480990
C24	C	1.181195	0.896054	0.461498
C25	C	1.181230	1.014363	0.461524
C26	C	1.122847	1.083280	0.514220
C27	C	1.106440	1.148056	0.437316
C28	C	1.197681	1.160390	0.538442
C29	C	1.164785	1.077575	0.384578
C30	C	1.256059	1.089909	0.485756
C31	C	1.239684	1.154651	0.408802
C32	C	1.398184	0.634335	0.472516
C33	C	1.490611	0.640648	0.477206
C34	C	1.170300	0.632886	0.678406
C35	C	1.165616	0.638581	0.770833
C36	C	1.181370	1.341906	0.461543
C37	C	1.181310	1.223597	0.461548
C38	C	1.205517	0.590219	0.983811
C39	C	1.157038	0.648934	0.940052
C40	C	1.161813	0.643172	0.845890
C41	C	1.200743	0.595980	1.077982
C42	C	1.192236	0.606240	1.245462
C43	C	1.196936	0.600575	1.153036
H44	H	0.670324	0.526477	0.392373
F45	F	1.146546	1.030457	0.299538
H46	H	0.693101	0.712647	0.530713
F47	F	1.058227	1.042320	0.572375
F48	F	1.023773	1.181714	0.410531
F49	F	1.264439	0.518852	0.940347
F50	F	1.098103	0.720296	0.983517
H51	H	1.289094	1.185781	0.364195
F52	F	1.338702	1.056219	0.512567
F53	F	1.215827	1.207677	0.623451
