data_functionalizedCrystal
_audit_creation_method	'MofGen! by Chris Wilmer'
_symmetry_space_group_name_H-M	'P1'
_symmetry_Int_Tables_number	1
_symmetry_cell_setting	triclinic
loop_
_symmetry_equiv_pos_as_xyz
  x,y,z
_cell_length_a	10.654550
_cell_length_b	9.065218
_cell_length_c	8.140239
_cell_angle_alpha	90.001686
_cell_angle_beta	89.999482
_cell_angle_gamma	84.750408
loop_
_atom_site_label
_atom_site_type_symbol
_atom_site_fract_x
_atom_site_fract_y
_atom_site_fract_z
O1	O	-1.668659	-0.207233	-0.136484
O2	O	-1.168659	0.292767	0.363516
O3	O	-1.303259	-0.226977	-0.136513
O4	O	-0.803259	0.273023	0.363487
O5	O	-1.493512	-0.002421	-0.136494
O6	O	-0.993512	0.497579	0.363506
O7	O	-1.478406	-0.431789	-0.136502
O8	O	-0.978406	0.068211	0.363498
O9	O	-1.493501	-0.002419	0.136733
O10	O	-0.993501	0.497581	0.636733
O11	O	-1.303248	-0.226974	0.136714
O12	O	-0.803248	0.273026	0.636714
O13	O	-1.668648	-0.207230	0.136744
O14	O	-1.168648	0.292770	0.636744
Zn15	Zn	-1.485946	-0.217102	0.180109
Zn16	Zn	-0.985946	0.282898	0.680109
Zn17	Zn	-1.485960	-0.217105	-0.179879
Zn18	Zn	-0.985960	0.282895	0.320121
O19	O	-1.478395	-0.431786	0.136725
O20	O	-0.978395	0.068214	0.636725
C21	C	-1.256450	-0.225526	0.000097
C22	C	-0.756450	0.274474	0.500097
C23	C	-1.116989	-0.221188	0.000085
C24	C	-0.616989	0.278812	0.500085
C25	C	-1.492055	0.052559	0.000116
C26	C	-0.992055	0.552559	0.500116
C27	C	-1.487714	0.216378	0.000108
C28	C	-0.987714	0.716378	0.500108
C29	C	-1.715457	-0.208681	0.000130
C30	C	-1.215457	0.291319	0.500130
C31	C	-1.854918	-0.213019	0.000131
C32	C	-1.354918	0.286981	0.500131
C33	C	-1.038027	-0.353403	0.000088
C34	C	-0.538027	0.146597	0.500088
C35	C	-0.906990	-0.349319	0.000116
C36	C	-0.406990	0.150681	0.500116
C37	C	-0.933890	-0.080794	0.000133
C38	C	-0.433890	0.419206	0.500133
C39	C	-1.064924	-0.084879	0.000117
C40	C	-0.564924	0.415121	0.500117
C41	C	-0.711763	-0.505036	0.095858
C42	C	-0.211763	-0.005036	0.595858
C43	C	-0.632796	-0.637258	0.095832
C44	C	-0.132796	-0.137258	0.595832
C45	C	-0.663442	-0.757121	0.000077
C46	C	-0.163442	-0.257121	0.500077
C47	C	-0.773052	-0.744768	-0.095692
C48	C	-0.273052	-0.244768	0.404308
C49	C	-0.852012	-0.612544	-0.095680
C50	C	-0.352012	-0.112544	0.404320
C51	C	-0.821368	-0.492686	0.000113
C52	C	-0.321368	0.007314	0.500113
C53	C	-1.260153	0.070828	-0.095639
C54	C	-0.760153	0.570828	0.404361
C55	C	-1.339116	0.203054	-0.095639
C56	C	-0.839116	0.703054	0.404361
C57	C	-1.308474	0.322930	0.000106
C58	C	-0.808474	0.822930	0.500106
C59	C	-1.198861	0.310592	0.095850
C60	C	-0.698861	0.810592	0.595850
C61	C	-1.119898	0.178366	0.095850
C62	C	-0.619898	0.678366	0.595850
C63	C	-1.150549	0.058489	0.000108
C64	C	-0.650549	0.558489	0.500108
C65	C	-1.479852	-0.486766	0.000110
C66	C	-0.979852	0.013234	0.500110
C67	C	-1.484193	-0.650585	0.000108
C68	C	-0.984193	-0.150585	0.500108
N69	N	-1.485946	-0.217099	0.425792
N70	N	-0.985946	0.282901	0.925792
N71	N	-1.485971	-0.217097	-0.425562
N72	N	-0.985971	0.282903	0.074438
H73	H	-1.080414	-0.464395	0.000074
H74	H	-0.580414	0.035605	0.500074
F75	F	-1.455772	0.216185	-0.197552
F76	F	-0.955772	0.716185	0.302448
H77	H	-1.285117	-0.026785	-0.173599
H78	H	-0.785117	0.473215	0.326401
H79	H	-0.941246	-0.602480	-0.173671
H80	H	-0.441246	-0.102480	0.326329
F81	F	-0.805648	-0.872340	-0.197627
F82	F	-0.305648	-0.372340	0.302373
H83	H	-1.030646	0.168326	0.173818
H84	H	-0.530646	0.668326	0.673818
F85	F	-0.516143	-0.650398	0.197753
F86	F	-0.016143	-0.150398	0.697753
F87	F	-0.679149	-0.377476	0.197799
F88	F	-0.179149	0.122524	0.697799
F89	F	-0.878467	0.064268	0.000160
F90	F	-0.378467	0.564268	0.500160
H91	H	-0.599138	-0.864779	0.000059
H92	H	-0.099138	-0.364779	0.500059
H93	H	-1.173909	0.408207	0.173807
H94	H	-0.673909	0.908207	0.673807
H95	H	-1.372770	0.430600	0.000079
H96	H	-0.872770	0.930600	0.500079
