data_functionalizedCrystal
_audit_creation_method	'MofGen! by Chris Wilmer'
_symmetry_space_group_name_H-M	'P1'
_symmetry_Int_Tables_number	1
_symmetry_cell_setting	triclinic
loop_
_symmetry_equiv_pos_as_xyz
  x,y,z
_cell_length_a	27.732048
_cell_length_b	27.732048
_cell_length_c	13.596369
_cell_angle_alpha	89.989067
_cell_angle_beta	90.000164
_cell_angle_gamma	82.642655
loop_
_atom_site_label
_atom_site_type_symbol
_atom_site_fract_x
_atom_site_fract_y
_atom_site_fract_z
O1	O	0.640928	0.057518	-0.081675
O2	O	0.890928	0.307518	0.168325
O3	O	1.140928	0.557518	0.418325
O4	O	1.390928	0.807518	0.668325
O5	O	0.500134	0.066263	-0.081706
O6	O	0.750134	0.316263	0.168294
O7	O	1.000134	0.566263	0.418294
O8	O	1.250134	0.816263	0.668294
O9	O	0.574904	-0.008506	-0.081671
O10	O	0.824904	0.241494	0.168329
O11	O	1.074904	0.491494	0.418329
O12	O	1.324904	0.741494	0.668329
O13	O	0.566158	0.132287	-0.081710
O14	O	0.816158	0.382287	0.168290
O15	O	1.066158	0.632287	0.418290
O16	O	1.316158	0.882287	0.668290
O17	O	0.574896	-0.008510	0.081912
O18	O	0.824896	0.241490	0.331912
O19	O	1.074896	0.491490	0.581912
O20	O	1.324896	0.741490	0.831912
O21	O	0.500127	0.066259	0.081877
O22	O	0.750127	0.316259	0.331877
O23	O	1.000127	0.566259	0.581877
O24	O	1.250127	0.816259	0.831877
O25	O	0.640920	0.057514	0.081908
O26	O	0.890920	0.307514	0.331908
O27	O	1.140920	0.557514	0.581908
O28	O	1.390920	0.807514	0.831908
Zn29	Zn	0.570522	0.061886	0.107864
Zn30	Zn	0.820522	0.311886	0.357864
Zn31	Zn	1.070522	0.561886	0.607864
Zn32	Zn	1.320522	0.811886	0.857864
Zn33	Zn	0.570532	0.061891	-0.107663
Zn34	Zn	0.820532	0.311891	0.142337
Zn35	Zn	1.070532	0.561891	0.392337
Zn36	Zn	1.320532	0.811891	0.642337
O37	O	0.566151	0.132283	0.081872
O38	O	0.816151	0.382283	0.331872
O39	O	1.066151	0.632283	0.581872
O40	O	1.316151	0.882283	0.831872
C41	C	0.482124	0.066078	0.000081
C42	C	0.732124	0.316078	0.250081
C43	C	0.982124	0.566078	0.500081
C44	C	1.232124	0.816078	0.750081
C45	C	0.428469	0.065525	0.000070
C46	C	0.678469	0.315525	0.250070
C47	C	0.928469	0.565525	0.500070
C48	C	1.178469	0.815525	0.750070
C49	C	0.089654	0.106229	0.000101
C50	C	0.339654	0.356229	0.250101
C51	C	0.589654	0.606229	0.500101
C52	C	0.839654	0.856229	0.750101
C53	C	-0.112006	0.104178	0.000111
C54	C	0.137994	0.354178	0.250111
C55	C	0.387994	0.604178	0.500111
C56	C	0.637994	0.854178	0.750111
O57	O	-0.143262	0.141398	0.000143
O58	O	0.106738	0.391398	0.250143
O59	O	0.356738	0.641398	0.500143
O60	O	0.606738	0.891398	0.750143
N61	N	-0.131130	0.059843	0.000121
N62	N	0.118870	0.309843	0.250121
N63	N	0.368870	0.559843	0.500121
N64	N	0.618870	0.809843	0.750121
C65	C	-0.099835	0.016017	0.000136
C66	C	0.150165	0.266017	0.250136
C67	C	0.400165	0.516017	0.500136
C68	C	0.650165	0.766017	0.750136
O69	O	-0.120728	-0.021740	0.000156
O70	O	0.129272	0.228260	0.250156
O71	O	0.379272	0.478260	0.500156
O72	O	0.629272	0.728260	0.750156
C73	C	0.101824	0.018068	0.000134
C74	C	0.351824	0.268068	0.250134
C75	C	0.601824	0.518068	0.500134
C76	C	0.851824	0.768068	0.750134
C77	C	0.120944	0.062407	0.000113
C78	C	0.370944	0.312407	0.250113
C79	C	0.620944	0.562407	0.500113
C80	C	0.870944	0.812407	0.750113
C81	C	0.108775	0.150563	0.000082
C82	C	0.358775	0.400563	0.250082
C83	C	0.608775	0.650563	0.500082
C84	C	0.858775	0.900563	0.750082
C85	C	0.159187	0.151075	0.000074
C86	C	0.409187	0.401075	0.250074
C87	C	0.659187	0.651075	0.500074
C88	C	0.909187	0.901075	0.750074
C89	C	0.190477	0.107253	0.000086
C90	C	0.440477	0.357253	0.250086
C91	C	0.690477	0.607253	0.500086
C92	C	0.940477	0.857253	0.750086
C93	C	0.171356	0.062919	0.000106
C94	C	0.421356	0.312919	0.250106
C95	C	0.671356	0.562919	0.500106
C96	C	0.921356	0.812919	0.750106
C97	C	0.133117	-0.025757	0.000156
C98	C	0.383117	0.224243	0.250156
C99	C	0.633117	0.474243	0.500156
C100	C	0.883117	0.724243	0.750156
C101	C	0.183535	-0.025240	0.000158
C102	C	0.433535	0.224760	0.250158
C103	C	0.683535	0.474760	0.500158
C104	C	0.933535	0.724760	0.750158
C105	C	0.202655	0.019098	0.000137
C106	C	0.452655	0.269098	0.250137
C107	C	0.702655	0.519098	0.500137
C108	C	0.952655	0.769098	0.750137
C109	C	0.253059	0.019609	0.000110
C110	C	0.503059	0.269609	0.250110
C111	C	0.753059	0.519609	0.500110
C112	C	1.003059	0.769609	0.750110
N113	N	0.272183	0.063944	0.000099
N114	N	0.522183	0.313944	0.250099
N115	N	0.772183	0.563944	0.500099
N116	N	1.022183	0.813944	0.750099
C117	C	0.240892	0.107766	0.000087
C118	C	0.490892	0.357766	0.250087
C119	C	0.740892	0.607766	0.500087
C120	C	0.990892	0.857766	0.750087
C121	C	-0.205709	0.014943	0.000136
C122	C	0.044291	0.264943	0.250136
C123	C	0.294291	0.514943	0.500136
C124	C	0.544291	0.764943	0.750136
C125	C	-0.256124	0.014430	0.000134
C126	C	-0.006124	0.264430	0.250134
C127	C	0.243876	0.514430	0.500134
C128	C	0.493876	0.764430	0.750134
C129	C	-0.268291	0.102591	0.000111
C130	C	-0.018291	0.352591	0.250111
C131	C	0.231709	0.602591	0.500111
C132	C	0.481709	0.852591	0.750111
C133	C	-0.217876	0.103104	0.000105
C134	C	0.032124	0.353104	0.250105
C135	C	0.282124	0.603104	0.500105
C136	C	0.532124	0.853104	0.750105
C137	C	-0.186585	0.059278	0.000125
C138	C	0.063415	0.309278	0.250125
C139	C	0.313415	0.559278	0.500125
C140	C	0.563415	0.809278	0.750125
C141	C	0.346761	0.108839	0.000070
C142	C	0.596761	0.358839	0.250070
C143	C	0.846761	0.608839	0.500070
C144	C	1.096761	0.858839	0.750070
C145	C	0.397178	0.109347	0.000058
C146	C	0.647178	0.359347	0.250058
C147	C	0.897178	0.609347	0.500058
C148	C	1.147178	0.859347	0.750058
C149	C	0.409341	0.021186	0.000087
C150	C	0.659341	0.271186	0.250087
C151	C	0.909341	0.521186	0.500087
C152	C	1.159341	0.771186	0.750087
C153	C	0.358929	0.020678	0.000094
C154	C	0.608929	0.270678	0.250094
C155	C	0.858929	0.520678	0.500094
C156	C	1.108929	0.770678	0.750094
C157	C	0.327639	0.064508	0.000089
C158	C	0.577639	0.314508	0.250089
C159	C	0.827639	0.564508	0.500089
C160	C	1.077639	0.814508	0.750089
O161	O	0.284343	-0.017592	0.000089
O162	O	0.534343	0.232408	0.250089
O163	O	0.784343	0.482408	0.500089
O164	O	1.034343	0.732408	0.750089
O165	O	0.261794	0.145518	0.000090
O166	O	0.511794	0.395518	0.250090
O167	O	0.761794	0.645518	0.500090
O168	O	1.011794	0.895518	0.750090
C169	C	0.039242	0.105716	0.000109
C170	C	0.289242	0.355716	0.250109
C171	C	0.539242	0.605716	0.500109
C172	C	0.789242	0.855716	0.750109
C173	C	0.020120	0.061382	0.000129
C174	C	0.270120	0.311382	0.250129
C175	C	0.520120	0.561382	0.500129
C176	C	0.770120	0.811382	0.750129
C177	C	0.051411	0.017560	0.000141
C178	C	0.301411	0.267560	0.250141
C179	C	0.551411	0.517560	0.500141
C180	C	0.801411	0.767560	0.750141
C181	C	-0.030294	0.060869	0.000128
C182	C	0.219706	0.310869	0.250128
C183	C	0.469706	0.560869	0.500128
C184	C	0.719706	0.810869	0.750128
C185	C	-0.061585	0.104691	0.000116
C186	C	0.188415	0.354691	0.250116
C187	C	0.438415	0.604691	0.500116
C188	C	0.688415	0.854691	0.750116
C189	C	-0.042461	0.149026	0.000105
C190	C	0.207539	0.399026	0.250105
C191	C	0.457539	0.649026	0.500105
C192	C	0.707539	0.899026	0.750105
C193	C	0.007951	0.149539	0.000097
C194	C	0.257951	0.399539	0.250097
C195	C	0.507951	0.649539	0.500097
C196	C	0.757951	0.899539	0.750097
C197	C	0.032287	-0.026775	0.000151
C198	C	0.282287	0.223225	0.250151
C199	C	0.532287	0.473225	0.500151
C200	C	0.782287	0.723225	0.750151
C201	C	-0.018125	-0.027284	0.000158
C202	C	0.231875	0.222716	0.250158
C203	C	0.481875	0.472716	0.500158
C204	C	0.731875	0.722716	0.750158
C205	C	-0.049416	0.016538	0.000146
C206	C	0.200584	0.266538	0.250146
C207	C	0.450584	0.516538	0.500146
C208	C	0.700584	0.766538	0.750146
C209	C	0.574716	-0.026515	0.000123
C210	C	0.824716	0.223485	0.250123
C211	C	1.074716	0.473485	0.500123
C212	C	1.324716	0.723485	0.750123
C213	C	0.574164	-0.080170	0.000131
C214	C	0.824164	0.169830	0.250131
C215	C	1.074164	0.419830	0.500131
C216	C	1.324164	0.669830	0.750131
C217	C	0.614867	-0.418985	0.000090
C218	C	0.864867	-0.168985	0.250090
C219	C	1.114867	0.081015	0.500090
C220	C	1.364867	0.331015	0.750090
C221	C	0.612816	-0.620645	0.000075
C222	C	0.862816	-0.370645	0.250075
C223	C	1.112816	-0.120645	0.500075
C224	C	1.362816	0.129355	0.750075
O225	O	0.650037	-0.651900	0.000041
O226	O	0.900037	-0.401900	0.250041
O227	O	1.150037	-0.151900	0.500041
O228	O	1.400037	0.098100	0.750041
N229	N	0.568481	-0.639768	0.000067
N230	N	0.818481	-0.389768	0.250067
N231	N	1.068481	-0.139768	0.500067
N232	N	1.318481	0.110232	0.750067
C233	C	0.524656	-0.608474	0.000055
C234	C	0.774656	-0.358474	0.250055
C235	C	1.024656	-0.108474	0.500055
C236	C	1.274656	0.141526	0.750055
O237	O	0.486899	-0.629367	0.000037
O238	O	0.736899	-0.379367	0.250037
O239	O	0.986899	-0.129367	0.500037
O240	O	1.236899	0.120633	0.750037
C241	C	0.526707	-0.406815	0.000062
C242	C	0.776707	-0.156815	0.250062
C243	C	1.026707	0.093185	0.500062
C244	C	1.276707	0.343185	0.750062
C245	C	0.571045	-0.387694	0.000081
C246	C	0.821045	-0.137694	0.250081
C247	C	1.071045	0.112306	0.500081
C248	C	1.321045	0.362306	0.750081
C249	C	0.659202	-0.399864	0.000107
C250	C	0.909202	-0.149864	0.250107
C251	C	1.159202	0.100136	0.500107
C252	C	1.409202	0.350136	0.750107
C253	C	0.659714	-0.349452	0.000116
C254	C	0.909714	-0.099452	0.250116
C255	C	1.159714	0.150548	0.500116
C256	C	1.409714	0.400548	0.750116
C257	C	0.615892	-0.318161	0.000107
C258	C	0.865892	-0.068161	0.250107
C259	C	1.115892	0.181839	0.500107
C260	C	1.365892	0.431839	0.750107
C261	C	0.571557	-0.337282	0.000090
C262	C	0.821557	-0.087282	0.250090
C263	C	1.071557	0.162718	0.500090
C264	C	1.321557	0.412718	0.750090
C265	C	0.482882	-0.375521	0.000043
C266	C	0.732882	-0.125521	0.250043
C267	C	0.982882	0.124479	0.500043
C268	C	1.232882	0.374479	0.750043
C269	C	0.483399	-0.325104	0.000042
C270	C	0.733399	-0.075104	0.250042
C271	C	0.983399	0.174896	0.500042
C272	C	1.233399	0.424896	0.750042
C273	C	0.527737	-0.305983	0.000061
C274	C	0.777737	-0.055983	0.250061
C275	C	1.027737	0.194017	0.500061
C276	C	1.277737	0.444017	0.750061
C277	C	0.528247	-0.255580	0.000090
C278	C	0.778247	-0.005580	0.250090
C279	C	1.028247	0.244420	0.500090
C280	C	1.278247	0.494420	0.750090
N281	N	0.572583	-0.236456	0.000099
N282	N	0.822583	0.013544	0.250099
N283	N	1.072583	0.263544	0.500099
N284	N	1.322583	0.513544	0.750099
C285	C	0.616405	-0.267747	0.000107
C286	C	0.866405	-0.017747	0.250107
C287	C	1.116405	0.232253	0.500107
C288	C	1.366405	0.482253	0.750107
C289	C	0.523582	-0.714348	0.000053
C290	C	0.773582	-0.464348	0.250053
C291	C	1.023582	-0.214348	0.500053
C292	C	1.273582	0.035652	0.750053
C293	C	0.523069	-0.764762	0.000053
C294	C	0.773069	-0.514762	0.250053
C295	C	1.023069	-0.264762	0.500053
C296	C	1.273069	-0.014762	0.750053
C297	C	0.611230	-0.776930	0.000072
C298	C	0.861230	-0.526930	0.250072
C299	C	1.111230	-0.276930	0.500072
C300	C	1.361230	-0.026930	0.750072
C301	C	0.611742	-0.726514	0.000079
C302	C	0.861742	-0.476514	0.250079
C303	C	1.111742	-0.226514	0.500079
C304	C	1.361742	0.023486	0.750079
C305	C	0.567917	-0.695224	0.000062
C306	C	0.817917	-0.445224	0.250062
C307	C	1.067917	-0.195224	0.500062
C308	C	1.317917	0.054776	0.750062
C309	C	0.617477	-0.161878	0.000127
C310	C	0.867477	0.088122	0.250127
C311	C	1.117477	0.338122	0.500127
C312	C	1.367477	0.588122	0.750127
C313	C	0.617986	-0.111461	0.000140
C314	C	0.867986	0.138539	0.250140
C315	C	1.117986	0.388539	0.500140
C316	C	1.367986	0.638539	0.750140
C317	C	0.529825	-0.099298	0.000116
C318	C	0.779825	0.150702	0.250116
C319	C	1.029825	0.400702	0.500116
C320	C	1.279825	0.650702	0.750116
C321	C	0.529316	-0.149710	0.000108
C322	C	0.779316	0.100290	0.250108
C323	C	1.029316	0.350290	0.500108
C324	C	1.279316	0.600290	0.750108
C325	C	0.573147	-0.180999	0.000110
C326	C	0.823147	0.069001	0.250110
C327	C	1.073147	0.319001	0.500110
C328	C	1.323147	0.569001	0.750110
O329	O	0.491047	-0.224296	0.000113
O330	O	0.741047	0.025704	0.250113
O331	O	0.991047	0.275704	0.500113
O332	O	1.241047	0.525704	0.750113
O333	O	0.654156	-0.246844	0.000104
O334	O	0.904156	0.003156	0.250104
O335	O	1.154156	0.253156	0.500104
O336	O	1.404156	0.503156	0.750104
C337	C	0.614355	-0.469397	0.000081
C338	C	0.864355	-0.219397	0.250081
C339	C	1.114355	0.030603	0.500081
C340	C	1.364355	0.280603	0.750081
C341	C	0.570021	-0.488518	0.000063
C342	C	0.820021	-0.238518	0.250063
C343	C	1.070021	0.011482	0.500063
C344	C	1.320021	0.261482	0.750063
C345	C	0.526198	-0.457228	0.000054
C346	C	0.776198	-0.207228	0.250054
C347	C	1.026198	0.042772	0.500054
C348	C	1.276198	0.292772	0.750054
C349	C	0.569508	-0.538933	0.000063
C350	C	0.819508	-0.288933	0.250063
C351	C	1.069508	-0.038933	0.500063
C352	C	1.319508	0.211067	0.750063
C353	C	0.613330	-0.570223	0.000072
C354	C	0.863330	-0.320223	0.250072
C355	C	1.113330	-0.070223	0.500072
C356	C	1.363330	0.179777	0.750072
C357	C	0.657665	-0.551100	0.000081
C358	C	0.907665	-0.301100	0.250081
C359	C	1.157665	-0.051100	0.500081
C360	C	1.407665	0.198900	0.750081
C361	C	0.658177	-0.500688	0.000090
C362	C	0.908177	-0.250688	0.250090
C363	C	1.158177	-0.000688	0.500090
C364	C	1.408177	0.249312	0.750090
C365	C	0.481863	-0.476351	0.000045
C366	C	0.731863	-0.226351	0.250045
C367	C	0.981863	0.023649	0.500045
C368	C	1.231863	0.273649	0.750045
C369	C	0.481355	-0.526764	0.000037
C370	C	0.731355	-0.276764	0.250037
C371	C	0.981355	-0.026764	0.500037
C372	C	1.231355	0.223236	0.750037
C373	C	0.525177	-0.558054	0.000046
C374	C	0.775177	-0.308054	0.250046
C375	C	1.025177	-0.058054	0.500046
C376	C	1.275177	0.191946	0.750046
C377	C	0.658931	0.057699	0.000118
C378	C	0.908931	0.307699	0.250118
C379	C	1.158931	0.557699	0.500118
C380	C	1.408931	0.807699	0.750118
C381	C	0.712586	0.058252	0.000123
C382	C	0.962586	0.308252	0.250123
C383	C	1.212586	0.558252	0.500123
C384	C	1.462586	0.808252	0.750123
C385	C	0.566338	0.150292	0.000076
C386	C	0.816338	0.400292	0.250076
C387	C	1.066338	0.650292	0.500076
C388	C	1.316338	0.900292	0.750076
C389	C	0.566891	0.203947	0.000062
C390	C	0.816891	0.453947	0.250062
C391	C	1.066891	0.703947	0.500062
C392	C	1.316891	0.953947	0.750062
N393	N	0.570519	0.061882	0.254956
N394	N	0.820519	0.311882	0.504956
N395	N	1.070519	0.561882	0.754956
N396	N	1.320519	0.811882	1.004956
N397	N	0.570539	0.061891	-0.254755
N398	N	0.820539	0.311891	-0.004755
N399	N	1.070539	0.561891	0.245245
N400	N	1.320539	0.811891	0.495245
C401	C	0.570531	0.061892	0.656247
C402	C	0.820531	0.311892	0.906247
C403	C	1.070531	0.561892	1.156247
C404	C	1.320531	0.811892	1.406247
C405	C	0.570527	0.061891	0.544596
C406	C	0.820527	0.311891	0.794596
C407	C	1.070527	0.561891	1.044596
C408	C	1.320527	0.811891	1.294596
C409	C	0.570526	0.061887	0.455605
C410	C	0.820526	0.311887	0.705605
C411	C	1.070526	0.561887	0.955605
C412	C	1.320526	0.811887	1.205605
C413	C	0.570520	0.061886	0.343947
C414	C	0.820520	0.311886	0.593947
C415	C	1.070520	0.561886	0.843947
C416	C	1.320520	0.811886	1.093947
H417	H	0.174750	0.187180	0.000057
H418	H	0.424750	0.437180	0.250057
H419	H	0.674750	0.687180	0.500057
H420	H	0.924750	0.937180	0.750057
H421	H	0.493213	-0.165279	0.000120
H422	H	0.743213	0.084721	0.250120
H423	H	0.993213	0.334721	0.500120
H424	H	1.243213	0.584721	0.750120
H425	H	0.487892	-0.688875	0.000039
H426	H	0.737892	-0.438875	0.250039
H427	H	0.987892	-0.188875	0.500039
H428	H	1.237892	0.061125	0.750039
H429	H	0.117558	-0.061861	0.000173
H430	H	0.367558	0.188139	0.250173
H431	H	0.617558	0.438139	0.500173
H432	H	0.867558	0.688139	0.750173
H433	H	-0.202311	0.139207	0.000094
H434	H	0.047689	0.389207	0.250094
H435	H	0.297689	0.639207	0.500094
H436	H	0.547689	0.889207	0.750094
H437	H	-0.293777	0.138273	0.000101
H438	H	-0.043777	0.388273	0.250101
H439	H	0.206223	0.638273	0.500101
H440	H	0.456223	0.888273	0.750101
H441	H	0.321291	0.144530	0.000069
H442	H	0.571291	0.394530	0.250069
H443	H	0.821291	0.644530	0.500069
H444	H	1.071291	0.894530	0.750069
H445	H	0.494146	-0.073812	0.000112
H446	H	0.744146	0.176188	0.250112
H447	H	0.994146	0.426188	0.500112
H448	H	1.244146	0.676188	0.750112
H449	H	-0.271687	-0.021674	0.000136
H450	H	-0.021687	0.228326	0.250136
H451	H	0.228313	0.478326	0.500136
H452	H	0.478313	0.728326	0.750136
H453	H	0.083302	0.186251	0.000076
H454	H	0.333302	0.436251	0.250076
H455	H	0.583302	0.686251	0.500076
H456	H	0.833302	0.936251	0.750076
H457	H	0.647846	-0.710950	0.000093
H458	H	0.897846	-0.460950	0.250093
H459	H	1.147846	-0.210950	0.500093
H460	H	1.397846	0.039050	0.750093
H461	H	0.446177	-0.450879	0.000036
H462	H	0.696177	-0.200879	0.250036
H463	H	0.946177	0.049121	0.500036
H464	H	1.196177	0.299121	0.750036
H465	H	0.694889	-0.425336	0.000111
H466	H	0.944889	-0.175336	0.250111
H467	H	1.194889	0.074664	0.500111
H468	H	1.444889	0.324664	0.750111
H469	H	0.023514	0.185643	0.000082
H470	H	0.273514	0.435643	0.250082
H471	H	0.523514	0.685643	0.500082
H472	H	0.773514	0.935643	0.750082
H473	H	0.445246	-0.542327	0.000030
H474	H	0.695246	-0.292327	0.250030
H475	H	0.945246	-0.042327	0.500030
H476	H	1.195246	0.207673	0.750030
H477	H	0.209009	-0.060929	0.000175
H478	H	0.459009	0.189071	0.250175
H479	H	0.709009	0.439071	0.500175
H480	H	0.959009	0.689071	0.750175
H481	H	-0.180236	-0.020747	0.000152
H482	H	0.069764	0.229253	0.250152
H483	H	0.319764	0.479253	0.500152
H484	H	0.569764	0.729253	0.750152
H485	H	0.446777	-0.391080	0.000022
H486	H	0.696777	-0.141080	0.250022
H487	H	0.946777	0.108920	0.500022
H488	H	1.196777	0.358920	0.750022
H489	H	0.343360	-0.015426	0.000096
H490	H	0.593360	0.234574	0.250096
H491	H	0.843360	0.484574	0.500096
H492	H	1.093360	0.734574	0.750096
H493	H	0.434827	-0.014492	0.000093
H494	H	0.684827	0.235508	0.250093
H495	H	0.934827	0.485508	0.500093
H496	H	1.184827	0.735508	0.750093
H497	H	0.447710	-0.299629	0.000027
H498	H	0.697710	-0.049629	0.250027
H499	H	0.947710	0.200371	0.500027
H500	H	1.197710	0.450371	0.750027
H501	H	-0.067947	0.184708	0.000091
H502	H	0.182053	0.434708	0.250091
H503	H	0.432053	0.684708	0.500091
H504	H	0.682053	0.934708	0.750091
H505	H	-0.033688	-0.063392	0.000167
H506	H	0.216312	0.186608	0.250167
H507	H	0.466312	0.436608	0.500167
H508	H	0.716312	0.686608	0.750167
H509	H	0.646911	-0.802415	0.000079
H510	H	0.896911	-0.552415	0.250079
H511	H	1.146911	-0.302415	0.500079
H512	H	1.396911	-0.052415	0.750079
H513	H	0.694282	-0.485125	0.000105
H514	H	0.944282	-0.235125	0.250105
H515	H	1.194282	0.014875	0.500105
H516	H	1.444282	0.264875	0.750105
H517	H	0.057760	-0.062462	0.000163
H518	H	0.307760	0.187538	0.250163
H519	H	0.557760	0.437538	0.500163
H520	H	0.807760	0.687538	0.750163
H521	H	0.654093	-0.095896	0.000158
H522	H	0.904093	0.154104	0.250158
H523	H	1.154093	0.404104	0.500158
H524	H	1.404093	0.654104	0.750158
H525	H	0.486964	-0.780325	0.000055
H526	H	0.736964	-0.530325	0.250055
H527	H	0.986964	-0.280325	0.500055
H528	H	1.236964	-0.030325	0.750055
H529	H	0.653168	-0.187348	0.000125
H530	H	0.903168	0.062652	0.250125
H531	H	1.153168	0.312652	0.500125
H532	H	1.403168	0.562652	0.750125
H533	H	0.695819	-0.333889	0.000128
H534	H	0.945819	-0.083889	0.250128
H535	H	1.195819	0.166111	0.500128
H536	H	1.445819	0.416111	0.750128
H537	H	0.412743	0.145454	0.000041
H538	H	0.662743	0.395454	0.250041
H539	H	0.912743	0.645454	0.500041
H540	H	1.162743	0.895454	0.750041
H541	H	0.693347	-0.576585	0.000092
H542	H	0.943347	-0.326585	0.250092
H543	H	1.193347	-0.076585	0.500092
H544	H	1.443347	0.173415	0.750092
