data_functionalizedCrystal
_audit_creation_method	'MofGen! by Chris Wilmer'
_symmetry_space_group_name_H-M	'P1'
_symmetry_Int_Tables_number	1
_symmetry_cell_setting	triclinic
loop_
_symmetry_equiv_pos_as_xyz
  x,y,z
_cell_length_a	15.297475
_cell_length_b	15.297327
_cell_length_c	12.759393
_cell_angle_alpha	99.642973
_cell_angle_beta	80.311482
_cell_angle_gamma	91.625546
loop_
_atom_site_label
_atom_site_type_symbol
_atom_site_fract_x
_atom_site_fract_y
_atom_site_fract_z
Zn1	Zn	1.278732	-0.580731	-0.968290
Zn2	Zn	1.778732	-0.080731	-0.468290
Zn3	Zn	1.253260	-0.727202	-0.816979
Zn4	Zn	1.753260	-0.227202	-0.316979
Zn5	Zn	1.132243	-0.555388	-0.758042
Zn6	Zn	1.632243	-0.055388	-0.258042
Zn7	Zn	1.106874	-0.701765	-0.958036
Zn8	Zn	1.606874	-0.201765	-0.458036
O9	O	1.192777	-0.641271	-0.875337
O10	O	1.692777	-0.141271	-0.375337
O11	O	1.397922	-0.621413	-0.977174
O12	O	1.897922	-0.121413	-0.477174
O13	O	1.237164	-0.704449	-0.662139
O14	O	1.737164	-0.204449	-0.162139
O15	O	1.172952	-0.436192	-0.765558
O16	O	1.672952	0.063808	-0.265558
O17	O	1.379208	-0.729024	-0.866007
O18	O	1.879208	-0.229024	-0.366007
O19	O	1.280576	-0.454812	-0.920026
O20	O	1.780576	0.045188	-0.420026
O21	O	1.148253	-0.578218	-0.618839
O22	O	1.648253	-0.078218	-0.118839
O23	O	1.006308	-0.553553	-0.755616
O24	O	1.506308	-0.053553	-0.255616
O25	O	1.129714	-0.685670	-1.106418
O26	O	1.629714	-0.185670	-0.606418
O27	O	0.987670	-0.661096	-0.902550
O28	O	1.487670	-0.161096	-0.402550
O29	O	1.255977	-0.596748	-1.113951
O30	O	1.755977	-0.096748	-0.613951
O31	O	1.212565	-0.846385	-0.856065
O32	O	1.712565	-0.346385	-0.356065
O33	O	1.105015	-0.827697	-0.959698
O34	O	1.605015	-0.327697	-0.459698
C35	C	0.965208	-0.601815	-0.821575
C36	C	1.465208	-0.101815	-0.321575
C37	C	0.867849	-0.584956	-0.798604
C38	C	1.367849	-0.084956	-0.298604
C39	C	0.554631	-0.761769	-1.039517
C40	C	1.054631	-0.261769	-0.539517
C41	C	0.646103	-0.777616	-1.061097
C42	C	1.146103	-0.277616	-0.561097
C43	C	0.701544	-0.729452	-0.995476
C44	C	1.201544	-0.229452	-0.495476
C45	C	0.665504	-0.665440	-0.908271
C46	C	1.165504	-0.165440	-0.408271
C47	C	0.574022	-0.649597	-0.886683
C48	C	1.074022	-0.149597	-0.386683
C49	C	0.720935	-0.617279	-0.842642
C50	C	1.220935	-0.117279	-0.342642
C51	C	0.684895	-0.553267	-0.755436
C52	C	1.184895	-0.053267	-0.255436
C53	C	0.593421	-0.537427	-0.733853
C54	C	1.093421	-0.037427	-0.233853
C55	C	0.537981	-0.585590	-0.799474
C56	C	1.037981	-0.085590	-0.299474
C57	C	0.812417	-0.633122	-0.864230
C58	C	1.312417	-0.133122	-0.364230
C59	C	0.831808	-0.520949	-0.711396
C60	C	1.331808	-0.020949	-0.211396
C61	C	0.740336	-0.505103	-0.689816
C62	C	1.240336	-0.005103	-0.189816
C63	C	1.153297	-0.868823	-0.913193
C64	C	1.653297	-0.368823	-0.413193
C65	C	1.136487	-0.966185	-0.929442
C66	C	1.636487	-0.466185	-0.429442
C67	C	1.313279	-1.279459	-0.759646
C68	C	1.813279	-0.779459	-0.259646
C69	C	1.329072	-1.187983	-0.744374
C70	C	1.829072	-0.687983	-0.244374
C71	C	1.280928	-1.132529	-0.790640
C72	C	1.780928	-0.632529	-0.290640
C73	C	1.216987	-1.168560	-0.852180
C74	C	1.716987	-0.668560	-0.352180
C75	C	1.201187	-1.260044	-0.867447
C76	C	1.701187	-0.760044	-0.367447
C77	C	1.168836	-1.113114	-0.898440
C78	C	1.668836	-0.613114	-0.398440
C79	C	1.104895	-1.149145	-0.959981
C80	C	1.604895	-0.649145	-0.459981
C81	C	1.089099	-1.240620	-0.975245
C82	C	1.589099	-0.740620	-0.475245
C83	C	1.137243	-1.296074	-0.928979
C84	C	1.637243	-0.796074	-0.428979
C85	C	1.184635	-1.021630	-0.883174
C86	C	1.684635	-0.521630	-0.383174
C87	C	1.072543	-1.002215	-0.990974
C88	C	1.572543	-0.502215	-0.490974
C89	C	1.056750	-1.093691	-1.006247
C90	C	1.556750	-0.593691	-0.506247
C91	C	1.421235	-0.680883	-0.929309
C92	C	1.921235	-0.180883	-0.429309
C93	C	1.518590	-0.697763	-0.952308
C94	C	2.018590	-0.197763	-0.452308
C95	C	1.192857	-0.641199	-1.149372
C96	C	1.692857	-0.141199	-0.649372
C97	C	1.192891	-0.641168	-1.266149
C98	C	1.692891	-0.141168	-0.766149
C99	C	1.232435	-0.412835	-0.837361
C100	C	1.732435	0.087165	-0.337361
C101	C	1.249335	-0.315489	-0.821179
C102	C	1.749335	0.184511	-0.321179
C103	C	1.258642	-0.594857	-1.324935
C104	C	1.758642	-0.094857	-0.824935
C105	C	1.258664	-0.594822	-1.434656
C106	C	1.758664	-0.094822	-0.934656
C107	C	1.127179	-0.687415	-1.426797
C108	C	1.627179	-0.187415	-0.926797
C109	C	1.127155	-0.687444	-1.317076
C110	C	1.627155	-0.187444	-0.817076
C111	C	1.192759	-0.641289	-0.602369
C112	C	1.692759	-0.141289	-0.102369
C113	C	1.192937	-0.641103	-0.485591
C114	C	1.692937	-0.141103	0.014409
H115	H	0.841752	-0.685241	-0.935234
H116	H	1.341752	-0.185241	-0.435234
F117	F	0.684453	-0.845741	-1.153903
F118	F	1.184453	-0.345741	-0.653903
H119	H	1.312204	-0.557110	-1.482514
H120	H	1.812204	-0.057110	-0.982514
F121	F	1.057225	-0.736667	-1.481008
F122	F	1.557225	-0.236667	-0.981008
H123	H	1.293789	-1.058046	-0.778200
H124	H	1.793789	-0.558046	-0.278200
H125	H	0.876948	-0.481732	-0.657960
H126	H	1.376948	0.018268	-0.157960
F127	F	1.397126	-1.149644	-0.678890
F128	F	1.897126	-0.649644	-0.178890
F129	F	0.701968	-0.436978	-0.597008
F130	F	1.201968	0.063022	-0.097008
H131	H	0.564079	-0.485313	-0.662835
H132	H	1.064079	0.014687	-0.162835
F133	F	1.057167	-0.736732	-1.254506
F134	F	1.557167	-0.236732	-0.754506
H135	H	0.776025	-0.742357	-1.013053
H136	H	1.276025	-0.242357	-0.513053
F137	F	0.495621	-0.813036	-1.109329
F138	F	0.995621	-0.313036	-0.609329
F139	F	1.364508	-1.338480	-0.710411
F140	F	1.864508	-0.838480	-0.210411
F141	F	0.440624	-0.568724	-0.776516
F142	F	0.940624	-0.068724	-0.276516
H143	H	1.124390	-1.370563	-0.941414
H144	H	1.624390	-0.870563	-0.441414
H145	H	1.037024	-1.269951	-1.025341
H146	H	1.537024	-0.769951	-0.525341
H147	H	1.004689	-1.123040	-1.056353
H148	H	1.504689	-0.623040	-0.556353
H149	H	1.236696	-0.992302	-0.833067
H150	H	1.736696	-0.492302	-0.333067
H151	H	1.033338	-0.957064	-1.028646
H152	H	1.533338	-0.457064	-0.528646
H153	H	1.312167	-0.557173	-1.283473
H154	H	1.812167	-0.057173	-0.783473
