data_functionalizedCrystal
_audit_creation_method	'MofGen! by Chris Wilmer'
_symmetry_space_group_name_H-M	'P1'
_symmetry_Int_Tables_number	1
_symmetry_cell_setting	triclinic
loop_
_symmetry_equiv_pos_as_xyz
  x,y,z
_cell_length_a	15.297475
_cell_length_b	19.121063
_cell_length_c	19.120915
_cell_angle_alpha	85.261346
_cell_angle_beta	96.853093
_cell_angle_gamma	83.156694
loop_
_atom_site_label
_atom_site_type_symbol
_atom_site_fract_x
_atom_site_fract_y
_atom_site_fract_z
Zn1	Zn	1.320017	-0.483117	0.595224
Zn2	Zn	1.820017	0.016883	1.095224
Zn3	Zn	1.319912	-0.595755	0.482561
Zn4	Zn	1.819912	-0.095755	0.982561
Zn5	Zn	1.178078	-0.458120	0.457636
Zn6	Zn	1.678078	0.041880	0.957636
Zn7	Zn	1.164781	-0.578867	0.578386
Zn8	Zn	1.664781	-0.078867	1.078386
O9	O	1.245697	-0.528964	0.528451
O10	O	1.745697	-0.028964	1.028451
O11	O	1.444328	-0.515587	0.597757
O12	O	1.944328	-0.015587	1.097757
O13	O	1.306618	-0.574104	0.381570
O14	O	1.806618	-0.074104	0.881570
O15	O	1.202515	-0.363764	0.472503
O16	O	1.702515	0.136236	0.972503
O17	O	1.444251	-0.598342	0.514984
O18	O	1.944251	-0.098342	1.014984
O19	O	1.306797	-0.382129	0.573589
O20	O	1.806797	0.117871	1.073589
O21	O	1.202413	-0.472984	0.363258
O22	O	1.702413	0.027016	0.863258
O23	O	1.051989	-0.456609	0.456175
O24	O	1.551989	0.043391	0.956175
O25	O	1.179853	-0.569559	0.678304
O26	O	1.679853	-0.069559	1.178304
O27	O	1.042220	-0.545320	0.544890
O28	O	1.542220	-0.045320	1.044890
O29	O	1.293904	-0.499212	0.690675
O30	O	1.793904	0.000788	1.190675
O31	O	1.293725	-0.691186	0.498656
O32	O	1.793725	-0.191186	0.998656
O33	O	1.179751	-0.678779	0.569058
O34	O	1.679751	-0.178779	1.069058
C35	C	1.014868	-0.496420	0.496001
C36	C	1.514868	0.003580	0.996001
C37	C	0.916116	-0.482515	0.482136
C38	C	1.416116	0.017485	0.982136
C39	C	0.617506	-0.628353	0.627551
C40	C	1.117506	-0.128353	1.127551
C41	C	0.710288	-0.641422	0.640576
C42	C	1.210288	-0.141422	1.140576
C43	C	0.761750	-0.601696	0.600967
C44	C	1.261750	-0.101696	1.100967
C45	C	0.720420	-0.548899	0.548331
C46	C	1.220420	-0.048899	1.048331
C47	C	0.627630	-0.535831	0.535300
C48	C	1.127630	-0.035831	1.035300
C49	C	0.771873	-0.509175	0.508717
C50	C	1.271873	-0.009175	1.008717
C51	C	0.730544	-0.456378	0.456080
C52	C	1.230544	0.043622	0.956080
C53	C	0.637762	-0.443312	0.443052
C54	C	1.137762	0.056688	0.943052
C55	C	0.586300	-0.483038	0.482661
C56	C	1.086300	0.016962	0.982661
C57	C	0.864664	-0.522243	0.521747
C58	C	1.364664	-0.022243	1.021747
C59	C	0.874787	-0.429722	0.429497
C60	C	1.374787	0.070278	0.929497
C61	C	0.782005	-0.416652	0.416471
C62	C	1.282005	0.083348	0.916471
C63	C	1.235307	-0.710312	0.534753
C64	C	1.735307	-0.210312	1.034753
C65	C	1.230942	-0.787905	0.537484
C66	C	1.730942	-0.287905	1.037484
C67	C	1.288274	-0.830803	0.502155
C68	C	1.788274	-0.330803	1.002155
C69	C	1.284174	-0.903711	0.504728
C70	C	1.784174	-0.403711	1.004728
C71	C	1.222737	-0.933719	0.542626
C72	C	1.722737	-0.433719	1.042626
C73	C	1.165403	-0.890816	0.577959
C74	C	1.665403	-0.390816	1.077959
C75	C	1.169508	-0.817910	0.575390
C76	C	1.669508	-0.317910	1.075390
C77	C	1.207376	-1.153525	0.552219
C78	C	1.707376	-0.653525	1.052219
C79	C	1.203274	-1.226436	0.554784
C80	C	1.703274	-0.726436	1.054784
C81	C	1.322046	-1.239326	0.481554
C82	C	1.822046	-0.739326	0.981554
C83	C	1.326142	-1.166418	0.478985
C84	C	1.826142	-0.666418	0.978985
C85	C	1.268811	-1.123522	0.514321
C86	C	1.768811	-0.623522	1.014321
C87	C	1.218543	-1.008242	0.545255
C88	C	1.718543	-0.508242	1.045255
C89	C	1.273010	-1.049001	0.511695
C90	C	1.773010	-0.549001	1.011695
C91	C	1.477427	-0.561637	0.561029
C92	C	1.977427	-0.061637	1.061029
C93	C	1.576177	-0.575559	0.574912
C94	C	2.076177	-0.075559	1.074912
C95	C	1.235407	-0.535290	0.710526
C96	C	1.735407	-0.035290	1.210526
C97	C	1.231022	-0.537985	0.788115
C98	C	1.731022	-0.037985	1.288115
C99	C	1.256151	-0.346913	0.522144
C100	C	1.756151	0.153087	1.022144
C101	C	1.260605	-0.269333	0.519456
C102	C	1.760605	0.230667	1.019456
C103	C	1.256001	-0.522621	0.347091
C104	C	1.756001	-0.022621	0.847091
C105	C	1.260569	-0.519753	0.269519
C106	C	1.760569	-0.019753	0.769519
C107	C	1.203249	-0.555107	1.226624
C108	C	1.703249	-0.055107	1.726624
C109	C	1.207366	-0.552563	1.153720
C110	C	1.707366	-0.052563	1.653720
C111	C	1.268809	-0.514670	1.123713
C112	C	1.768809	-0.014670	1.623713
C113	C	1.326133	-0.479312	1.166614
C114	C	1.826133	0.020688	1.666614
C115	C	1.322010	-0.481852	1.239516
C116	C	1.822010	0.018148	1.739516
C117	C	1.284223	-0.505167	0.903918
C118	C	1.784223	-0.005167	1.403918
C119	C	1.288343	-0.502631	0.831010
C120	C	1.788343	-0.002631	1.331010
C121	C	1.169574	-0.575882	0.818122
C122	C	1.669574	-0.075882	1.318122
C123	C	1.165461	-0.578421	0.891026
C124	C	1.665461	-0.078421	1.391026
C125	C	1.222781	-0.543060	0.933920
C126	C	1.722781	-0.043060	1.433920
C127	C	1.273021	-0.512072	1.049194
C128	C	1.773021	-0.012072	1.549194
C129	C	1.218564	-0.545655	1.008437
C130	C	1.718564	-0.045655	1.508437
H131	H	0.575598	-0.660696	0.659791
H132	H	1.075598	-0.160696	1.159791
H133	H	1.323035	-1.024567	0.480842
H134	H	1.823035	-0.524567	0.980842
H135	H	1.368723	-1.274260	0.452787
H136	H	1.868723	-0.774260	0.952787
H137	H	1.376169	-1.141987	0.448125
H138	H	1.876169	-0.641987	0.948125
N139	N	0.861822	-0.615781	0.615017
N140	N	1.361822	-0.115781	1.115017
H141	H	0.886141	-0.630014	0.570690
H142	H	1.386141	-0.130014	1.070690
H143	H	0.880125	-0.655239	0.654394
H144	H	1.380125	-0.155239	1.154394
N145	N	1.346005	-0.949979	0.466620
N146	N	1.846005	-0.449979	0.966620
H147	H	1.383848	-0.986971	0.501862
H148	H	1.883848	-0.486971	1.001862
H149	H	1.385486	-0.919853	0.442218
H150	H	1.885486	-0.419853	0.942218
N151	N	1.107738	-0.614008	0.771861
N152	N	1.607738	-0.114008	1.271861
H153	H	1.117947	-0.666265	0.788210
H154	H	1.617947	-0.166265	1.288210
H155	H	1.119694	-0.606596	0.721137
H156	H	1.619694	-0.106596	1.221137
H157	H	1.168533	-0.576503	1.032871
H158	H	1.668533	-0.076503	1.532871
N159	N	0.754863	-0.698367	0.697341
N160	N	1.254863	-0.198367	1.197341
H161	H	0.708186	-0.721550	0.720456
H162	H	1.208186	-0.221550	1.220456
H163	H	0.793165	-0.676555	0.734114
H164	H	1.293165	-0.176555	1.234114
H165	H	0.916687	-0.397374	0.397243
H166	H	1.416687	0.102626	0.897243
H167	H	1.338299	-0.806375	0.471291
H168	H	1.838299	-0.306375	0.971291
H169	H	1.168520	-1.032682	0.576110
H170	H	1.668520	-0.532682	1.076110
H171	H	1.153218	-0.585967	1.251050
H172	H	1.653218	-0.085967	1.751050
H173	H	1.153254	-1.250867	0.585659
H174	H	1.653254	-0.750867	1.085659
H175	H	1.323051	-0.481221	1.024754
H176	H	1.823051	0.018779	1.524754
H177	H	0.748342	-0.373664	0.373614
H178	H	1.248342	0.126336	0.873614
N179	N	1.099191	-0.619295	0.923386
N180	N	1.599191	-0.119295	1.423386
H181	H	1.131735	-0.657786	0.959822
H182	H	1.631735	-0.157786	1.459822
H183	H	1.063525	-0.641260	0.885102
H184	H	1.563525	-0.141260	1.385102
N185	N	1.145529	-0.590700	1.107471
N186	N	1.645529	-0.090700	1.607471
H187	H	1.181472	-0.627086	1.083412
H188	H	1.681472	-0.127086	1.583412
H189	H	1.107698	-0.555431	1.070500
H190	H	1.607698	-0.055431	1.570500
N191	N	0.486226	-0.468950	0.468601
N192	N	0.986226	0.031050	0.968601
H193	H	0.459901	-0.502129	0.501680
H194	H	0.959901	-0.002129	1.001680
H195	H	0.465929	-0.476886	0.417982
H196	H	0.965929	0.023114	0.917982
N197	N	1.354619	-0.461762	0.798644
N198	N	1.854619	0.038238	1.298644
H199	H	1.390305	-0.439745	0.836878
H200	H	1.890305	0.060255	1.336878
H201	H	1.322020	-0.423312	0.762192
H202	H	1.822020	0.076688	1.262192
H203	H	1.330902	-0.476378	0.938834
H204	H	1.830902	0.023622	1.438834
H205	H	1.376157	-0.448456	1.142176
H206	H	1.876157	0.051544	1.642176
N207	N	1.145536	-1.107263	0.590323
N208	N	1.645536	-0.607263	1.090323
H209	H	1.105991	-1.137337	0.614715
H210	H	1.605991	-0.637337	1.114715
H211	H	1.107761	-1.070276	0.555039
H212	H	1.607761	-0.570276	1.055039
H213	H	1.368684	-0.453060	1.274440
H214	H	1.868684	0.046940	1.774440
H215	H	0.898305	-0.565231	0.564605
H216	H	1.398305	-0.065231	1.064605
H217	H	1.115384	-0.915254	0.608820
H218	H	1.615384	-0.415254	1.108820
N219	N	0.593182	-0.386376	0.386273
N220	N	1.093182	0.113624	0.886273
H221	H	0.639859	-0.363192	0.363157
H222	H	1.139859	0.136808	0.863157
H223	H	0.554925	-0.349688	0.408214
H224	H	1.054925	0.150312	0.908214
H225	H	1.122824	-0.782983	0.604159
H226	H	1.622824	-0.282983	1.104159
