data_functionalizedCrystal
_audit_creation_method	'MofGen! by Chris Wilmer'
_symmetry_space_group_name_H-M	'P1'
_symmetry_Int_Tables_number	1
_symmetry_cell_setting	triclinic
loop_
_symmetry_equiv_pos_as_xyz
  x,y,z
_cell_length_a	15.995292
_cell_length_b	14.472310
_cell_length_c	10.540539
_cell_angle_alpha	89.998845
_cell_angle_beta	83.997054
_cell_angle_gamma	90.014199
loop_
_atom_site_label
_atom_site_type_symbol
_atom_site_fract_x
_atom_site_fract_y
_atom_site_fract_z
O1	O	1.112003	0.076862	0.163257
O2	O	0.868342	0.076857	0.183539
O3	O	0.995732	0.076858	-0.011386
O4	O	0.984614	0.076861	0.358183
O5	O	0.995699	-0.076824	-0.011375
O6	O	0.868309	-0.076825	0.183550
O7	O	1.111970	-0.076820	0.163269
Cu8	Cu	0.990137	-0.090855	0.173411
Cu9	Cu	0.990176	0.090892	0.173397
O10	O	0.984581	-0.076821	0.358194
C11	C	0.837125	0.000016	0.182719
C12	C	0.744158	0.000015	0.180245
C13	C	0.406365	0.000025	0.171147
C14	C	0.430519	0.000369	0.311839
C15	C	0.527210	0.000019	0.314513
C16	C	0.573948	0.000020	0.175661
C17	C	0.544406	-0.087737	0.105328
C18	C	0.447606	-0.087807	0.103634
C19	C	0.447771	0.086959	0.100749
C20	C	0.544295	0.088115	0.105962
C21	C	0.668659	0.000015	0.178205
C22	C	0.311654	0.000024	0.168599
N23	N	0.990115	-0.218686	0.173419
C24	C	0.990175	-0.592777	0.173392
C25	C	0.921778	-0.553612	0.277343
C26	C	0.921940	-0.446524	0.277722
C27	C	0.990145	-0.407186	0.173406
C28	C	1.077684	-0.446021	0.202306
C29	C	1.077301	-0.553143	0.203045
C30	C	0.971809	-0.553307	0.040232
C31	C	0.969810	-0.446180	0.041121
C32	C	0.990133	-0.302298	0.173411
C33	C	0.990192	-0.697665	0.173390
C34	C	1.143187	0.000023	0.164088
C35	C	1.236155	0.000031	0.166563
C36	C	0.994881	0.000019	-0.058672
C37	C	0.992387	0.000024	-0.199585
N38	N	0.990204	0.218723	0.173379
C39	C	0.896801	0.000367	-0.381668
C40	C	0.899330	0.000021	-0.235085
C41	C	1.037151	-0.087735	-0.261866
C42	C	1.033975	-0.087809	-0.408366
C43	C	1.035906	0.086956	-0.408923
C44	C	1.036763	0.088116	-0.261954
C45	C	0.985431	0.000020	0.405480
C46	C	0.987926	0.000021	0.546393
H47	H	0.402860	0.063304	0.366063
H48	H	0.909318	-0.580376	0.012435
Cl49	Cl	0.557118	0.097143	0.399553
Cl50	Cl	0.575801	-0.188574	0.180749
H51	H	1.129829	-0.420538	0.128606
Cl52	Cl	0.821501	-0.405984	0.251227
Cl53	Cl	0.821025	-0.593405	0.251187
Cl54	Cl	0.404477	0.189654	0.168651
Cl55	Cl	0.594256	0.096298	-0.050519
H56	H	1.103120	0.087547	-0.457094
Cl57	Cl	0.870383	-0.406995	0.007251
Cl58	Cl	0.982850	-0.189091	-0.451183
Cl59	Cl	1.141514	0.096307	-0.226027
Cl60	Cl	0.425216	0.087875	-0.059139
H61	H	0.545931	-0.062996	0.369937
Cl62	Cl	0.386193	-0.096248	0.395114
H63	H	1.094111	-0.419183	0.298311
Cl64	Cl	1.041642	-0.404858	-0.083906
Cl65	Cl	1.048800	-0.592409	-0.079201
Cl66	Cl	1.137298	-0.093968	-0.483883
Cl67	Cl	0.844945	0.097148	-0.168545
Cl68	Cl	0.989420	0.189653	-0.456972
H69	H	0.421066	-0.153408	0.152354
Cl70	Cl	0.939777	-0.595135	0.429057
Cl71	Cl	0.840063	0.097533	-0.425030
Cl72	Cl	0.424183	-0.094014	-0.055621
Cl73	Cl	0.940141	-0.406938	0.430302
H74	H	1.093364	-0.578118	0.300157
Cl75	Cl	0.840097	-0.095969	-0.428045
Cl76	Cl	0.844521	-0.097268	-0.169830
Cl77	Cl	1.142660	-0.092777	-0.228839
H78	H	1.006028	-0.153044	-0.218824
Cl79	Cl	1.158226	-0.593144	0.090471
H80	H	0.563184	0.153037	0.157172
H81	H	0.575663	-0.090999	0.003152
Cl82	Cl	0.986617	0.188368	-0.197425
