data_functionalizedCrystal
_audit_creation_method	'MofGen! by Chris Wilmer'
_symmetry_space_group_name_H-M	'P1'
_symmetry_Int_Tables_number	1
_symmetry_cell_setting	triclinic
loop_
_symmetry_equiv_pos_as_xyz
  x,y,z
_cell_length_a	27.435584
_cell_length_b	27.434948
_cell_length_c	27.431174
_cell_angle_alpha	60.005483
_cell_angle_beta	60.011353
_cell_angle_gamma	59.993028
loop_
_atom_site_label
_atom_site_type_symbol
_atom_site_fract_x
_atom_site_fract_y
_atom_site_fract_z
O1	O	0.067437	-0.712144	0.595551
O2	O	0.025356	-0.554453	0.479848
O3	O	0.125206	-0.654236	0.479781
O4	O	-0.032412	-0.612361	0.595618
O5	O	0.158328	-0.621117	0.512835
O6	O	0.058479	-0.521333	0.512902
O7	O	0.100560	-0.679025	0.628605
Zn8	Zn	0.084778	-0.594921	0.576001
Zn9	Zn	0.041138	-0.638557	0.532452
O10	O	0.000710	-0.579241	0.628672
N11	N	0.114563	-0.565144	0.605726
N12	N	0.011358	-0.668338	0.502727
C13	C	0.156385	-0.523520	0.904506
C14	C	0.413419	-0.523497	0.647322
C15	C	0.156253	-0.523488	0.647384
C16	C	0.156238	-0.266354	0.647407
C17	C	0.197637	-0.390463	0.688753
C18	C	0.197646	-0.482126	0.688741
C19	C	0.220575	-0.459215	0.711654
C20	C	0.320555	-0.441991	0.659023
C21	C	0.383051	-0.462825	0.638179
C22	C	0.383069	-0.563942	0.676737
C23	C	0.320575	-0.543107	0.697583
C24	C	0.212704	-0.359206	0.627313
C25	C	0.191849	-0.296705	0.606496
C26	C	0.140866	-0.296722	0.708562
C27	C	0.161721	-0.359223	0.729379
C28	C	0.136200	-0.467030	0.703858
C29	C	0.115361	-0.487857	0.683021
C30	C	0.217408	-0.538877	0.631968
C31	C	0.238249	-0.518050	0.652796
C32	C	0.136259	-0.467047	0.811668
C33	C	0.115461	-0.487892	0.874167
C34	C	0.217537	-0.538923	0.874131
C35	C	0.238333	-0.518080	0.811631
C36	C	0.197693	-0.482140	0.780401
C37	C	0.289320	-0.482131	0.688723
C38	C	0.132699	-0.546027	0.973247
C39	C	0.482158	-0.545613	0.624075
C40	C	0.132521	-0.546006	0.624886
C41	C	0.132917	-0.197607	0.625310
C42	C	-0.098217	-0.686189	0.484419
C43	C	-0.006438	-0.686322	0.392891
C44	C	-0.006621	-0.777944	0.484592
C45	C	-0.006606	-0.686315	0.484649
C46	C	-0.029470	-0.709193	0.461638
N47	N	0.538410	-0.565162	0.605628
O48	O	0.742647	-0.575135	0.458625
O49	O	0.742821	-0.691181	0.616169
O50	O	0.742757	-0.690917	0.516248
O51	O	0.742711	-0.575399	0.558546
O52	O	0.643472	-0.657878	0.549405
O53	O	0.643536	-0.658142	0.649326
O54	O	0.643362	-0.542096	0.491782
Zn55	Zn	0.627685	-0.594873	0.575818
Zn56	Zn	0.758498	-0.638404	0.532133
O57	O	0.643426	-0.542360	0.591702
N58	N	0.847774	-0.668115	0.502317
N59	N	0.114542	-0.141354	0.605766
O60	O	-0.032397	0.062987	0.595660
O61	O	0.125155	0.062987	0.479633
O62	O	0.025219	0.062974	0.479910
O63	O	0.067539	0.063001	0.595383
O64	O	0.058343	-0.036320	0.513009
O65	O	0.158279	-0.036306	0.512732
O66	O	0.000728	-0.036306	0.628759
Zn67	Zn	0.084763	-0.052071	0.576000
Zn68	Zn	0.041120	0.078752	0.532392
O69	O	0.100664	-0.036292	0.628482
N70	N	0.011333	0.168036	0.502628
N71	N	0.114782	-0.565197	1.029501
O72	O	0.104681	-0.712124	1.233827
O73	O	-0.011334	-0.554523	1.233839
O74	O	-0.011066	-0.654443	1.233797
O75	O	0.104414	-0.612204	1.233869
O76	O	0.022028	-0.621336	1.134509
O77	O	0.021760	-0.521417	1.134551
O78	O	0.137775	-0.679018	1.134539
Zn79	Zn	0.085022	-0.594961	1.118780
Zn80	Zn	0.041420	-0.638580	1.249597
O81	O	0.137508	-0.579098	1.134580
N82	N	0.011658	-0.668350	1.338876
C83	C	0.037974	-0.518023	0.480435
C84	C	0.161625	-0.641592	0.480351
C85	C	0.087941	-0.715455	0.628017
C86	C	-0.035710	-0.591885	0.628101
C87	C	0.693199	-0.690642	0.652596
C88	C	0.693122	-0.690315	0.528855
C89	C	0.692981	-0.542634	0.455356
C90	C	0.693062	-0.542961	0.579095
C91	C	0.161524	0.013463	0.480164
C92	C	0.037807	0.013324	0.480547
C93	C	-0.035683	0.013341	0.628188
C94	C	0.088076	0.013357	0.627845
C95	C	-0.010764	-0.518114	1.184196
C96	C	-0.010426	-0.641846	1.184125
C97	C	0.137205	-0.715426	1.184182
C98	C	0.136875	-0.591687	1.184231
H99	H	0.103160	-0.437777	0.786243
C100	C	0.185890	-0.579485	1.184250
C101	C	0.247124	-0.628511	1.184254
C102	C	0.296139	-0.616309	1.184274
C103	C	0.283920	-0.555081	1.184289
C104	C	0.222684	-0.506051	1.184285
C105	C	0.173668	-0.518253	1.184266
H106	H	0.256172	-0.673839	1.184243
H107	H	0.341471	-0.652605	1.184276
H108	H	0.320204	-0.546049	1.184304
H109	H	0.213636	-0.460723	1.184297
H110	H	0.128337	-0.481958	1.184263
H111	H	0.028987	-0.472723	0.444098
C112	C	0.692908	-0.493410	0.394235
C113	C	0.744434	-0.504224	0.337136
C114	C	0.744361	-0.455001	0.276015
C115	C	0.692763	-0.394964	0.271993
C116	C	0.641234	-0.384148	0.329095
C117	C	0.641307	-0.433371	0.390216
H118	H	0.782633	-0.548669	0.340111
H119	H	0.782506	-0.463008	0.233744
H120	H	0.692709	-0.358526	0.226748
H121	H	0.603034	-0.339702	0.326119
H122	H	0.603161	-0.425363	0.432486
C123	C	-0.096808	0.013344	0.677401
C124	C	-0.100847	-0.038211	0.737458
C125	C	-0.161972	-0.038208	0.786671
C126	C	-0.219058	0.013349	0.775826
C127	C	-0.215021	0.064907	0.715766
C128	C	-0.153896	0.064904	0.666553
H129	H	-0.058587	-0.076379	0.745488
H130	H	-0.164961	-0.076375	0.831131
H131	H	-0.264306	0.013350	0.812256
H132	H	-0.257281	0.103076	0.707735
H133	H	-0.150907	0.103071	0.622093
C134	C	0.025574	0.013314	0.431537
C135	C	0.009101	-0.038251	0.442583
C136	C	-0.003132	-0.038261	0.393573
C137	C	0.001107	0.013295	0.333516
C138	C	0.017580	0.064864	0.322467
C139	C	0.029814	0.064874	0.371477
H140	H	0.005963	-0.076419	0.487044
H141	H	-0.015326	-0.076436	0.401753
H142	H	-0.007949	0.013288	0.297235
H143	H	0.020719	0.103032	0.278006
H144	H	0.042008	0.103049	0.363297
H145	H	-0.080982	-0.582959	0.664476
C146	C	0.047878	-0.471277	0.908554
C147	C	0.003179	-0.431741	0.874198
C148	C	-0.064402	-0.415127	0.908587
C149	C	-0.087285	-0.438048	0.977332
C150	C	-0.042586	-0.477586	1.011692
C151	C	0.024996	-0.494201	0.977303
H152	H	0.020118	-0.414771	0.823306
H153	H	-0.097492	-0.385858	0.883151
H154	H	-0.137313	-0.425749	1.002789
H155	H	-0.059525	-0.494556	1.062584
H156	H	0.058085	-0.523470	1.002738
C157	C	0.693262	-0.739862	0.713720
C158	C	0.693282	-0.727931	0.762922
C159	C	0.693346	-0.777151	0.824046
C160	C	0.693388	-0.838302	0.835968
C161	C	0.693368	-0.850236	0.786765
C162	C	0.693305	-0.801016	0.725641
H163	H	0.693251	-0.682661	0.754097
H164	H	0.693361	-0.768316	0.860469
H165	H	0.693435	-0.874738	0.881216
H166	H	0.693400	-0.895506	0.795590
H167	H	0.693290	-0.809851	0.689218
C168	C	0.693042	-0.493934	0.591318
C169	C	0.641447	-0.433895	0.587093
C170	C	0.641428	-0.384867	0.599316
C171	C	0.693003	-0.395880	0.615764
C172	C	0.744602	-0.455922	0.619990
C173	C	0.744622	-0.504950	0.607767
H174	H	0.603265	-0.425740	0.574916
H175	H	0.603231	-0.340420	0.596188
H176	H	0.692988	-0.359587	0.624812
H177	H	0.782784	-0.464077	0.632167
H178	H	0.782819	-0.549397	0.610896
C179	C	0.693143	-0.739343	0.516632
C180	C	0.693096	-0.727121	0.455411
C181	C	0.693117	-0.776149	0.443188
C182	C	0.693186	-0.837399	0.492185
C183	C	0.693234	-0.849624	0.553409
C184	C	0.693212	-0.800596	0.565633
H185	H	0.693045	-0.681778	0.419137
H186	H	0.693082	-0.767099	0.397865
H187	H	0.693202	-0.873692	0.483136
H188	H	0.693285	-0.894967	0.589683
H189	H	0.693247	-0.809646	0.610956
C190	C	0.222522	0.013839	0.430825
C191	C	0.271669	0.014037	0.442682
C192	C	0.332666	0.014413	0.393344
C193	C	0.344518	0.014592	0.332149
C194	C	0.295370	0.014394	0.320289
C195	C	0.234372	0.014018	0.369627
H196	H	0.262897	0.013904	0.487985
H197	H	0.369049	0.014559	0.402124
H198	H	0.389672	0.014870	0.295626
H199	H	0.304141	0.014527	0.274986
H200	H	0.197989	0.013872	0.360847
C201	C	0.100310	0.013364	0.676857
C202	C	0.161539	0.013368	0.664632
C203	C	0.173774	0.013375	0.713643
C204	C	0.124779	0.013378	0.774879
C205	C	0.063545	0.013373	0.787107
C206	C	0.051311	0.013366	0.738096
H207	H	0.197812	0.013366	0.619298
H208	H	0.219103	0.013378	0.704591
H209	H	0.133835	0.013383	0.811160
H210	H	0.027273	0.013375	0.832440
H211	H	0.005982	0.013363	0.747148
C212	C	-0.059973	-0.456968	1.184199
C213	C	-0.048048	-0.407774	1.184226
C214	C	-0.097257	-0.346628	1.184229
C215	C	-0.158391	-0.334676	1.184206
C216	C	-0.170318	-0.383871	1.184180
C217	C	-0.121109	-0.445017	1.184176
H218	H	-0.002791	-0.416621	1.184243
H219	H	-0.088428	-0.310211	1.184249
H220	H	-0.194818	-0.289412	1.184209
H221	H	-0.215575	-0.375025	1.184162
H222	H	-0.129938	-0.481435	1.184157
H223	H	-0.046689	-0.650868	1.184063
H224	H	0.173631	-0.760687	1.184171
H225	H	0.250633	-0.568176	0.899553
H226	H	0.103135	-0.437780	0.733124
C227	C	0.305916	-0.534683	0.777238
C228	C	0.334248	-0.485276	0.734272
C229	C	0.401829	-0.501880	0.699880
C230	C	0.441078	-0.567891	0.708455
C231	C	0.412746	-0.617303	0.751424
C232	C	0.345165	-0.600699	0.785815
H233	H	0.305193	-0.436407	0.727922
H234	H	0.422802	-0.465302	0.668071
H235	H	0.491106	-0.580183	0.682996
H236	H	0.441801	-0.666173	0.757773
H237	H	0.324192	-0.637277	0.817624
H238	H	0.065328	-0.475552	0.695316
C239	C	0.222781	-0.653646	0.431205
C240	C	0.279846	-0.670050	0.442099
C241	C	0.341002	-0.682104	0.392953
C242	C	0.345094	-0.677755	0.332913
C243	C	0.288028	-0.661350	0.322017
C244	C	0.226871	-0.649296	0.371163
H245	H	0.276818	-0.673271	0.486546
H246	H	0.383246	-0.694248	0.401019
H247	H	0.390365	-0.686678	0.296532
H248	H	0.291055	-0.658130	0.277569
H249	H	0.184627	-0.637152	0.363096
C250	C	0.262077	-0.578392	0.592429
C251	C	0.307065	-0.638675	0.616321
C252	C	0.351737	-0.678188	0.576779
C253	C	0.351421	-0.657416	0.513344
C254	C	0.306431	-0.597130	0.489449
C255	C	0.261759	-0.557618	0.528992
H256	H	0.307300	-0.654054	0.663282
H257	H	0.385041	-0.722816	0.594468
H258	H	0.384490	-0.686666	0.484072
H259	H	0.306196	-0.581751	0.442488
H260	H	0.228455	-0.512989	0.511303
H261	H	0.288283	-0.530335	0.640482
H262	H	0.408519	-0.613593	0.683941
C263	C	0.286214	-0.587263	0.730254
C264	C	0.320596	-0.654334	0.739994
C265	C	0.286236	-0.698491	0.772667
C266	C	0.217494	-0.675577	0.795602
C267	C	0.183108	-0.608503	0.785863
C268	C	0.217468	-0.564346	0.753189
H269	H	0.371487	-0.671299	0.723016
H270	H	0.311691	-0.748144	0.779877
H271	H	0.192058	-0.708265	0.819789
H272	H	0.132217	-0.591538	0.802841
H273	H	0.192013	-0.514693	0.745980
C274	C	0.417410	-0.418669	0.605503
C275	C	0.408830	-0.380688	0.637461
C276	C	0.443189	-0.336530	0.604784
C277	C	0.486129	-0.330353	0.540149
C278	C	0.494711	-0.368336	0.508188
C279	C	0.460351	-0.412494	0.540865
H280	H	0.377042	-0.385259	0.685311
H281	H	0.436836	-0.308412	0.628444
H282	H	0.511564	-0.297665	0.515959
H283	H	0.526499	-0.363765	0.460338
H284	H	0.466704	-0.440611	0.517205
C285	C	0.286176	-0.374917	0.649279
C286	C	0.294740	-0.329474	0.585504
C287	C	0.260359	-0.262399	0.575759
C288	C	0.217414	-0.240768	0.629789
C289	C	0.208848	-0.286212	0.693567
C290	C	0.243229	-0.353287	0.703312
H291	H	0.326532	-0.345486	0.545505
H292	H	0.266701	-0.228758	0.528546
H293	H	0.191963	-0.191115	0.622575
H294	H	0.177056	-0.270200	0.733567
H295	H	0.236887	-0.386928	0.750526
H296	H	0.241946	-0.384640	0.594232
H297	H	0.204115	-0.271255	0.556464
H298	H	0.149444	-0.384673	0.779411
C299	C	0.101369	-0.262354	0.753248
C300	C	0.084811	-0.296735	0.820833
C301	C	0.045316	-0.262368	0.865519
C302	C	0.022379	-0.193620	0.842621
C303	C	0.038936	-0.159235	0.775033
C304	C	0.078432	-0.193602	0.730346
H305	H	0.101791	-0.347630	0.837787
H306	H	0.033059	-0.287822	0.915553
H307	H	-0.006858	-0.168180	0.875701
H308	H	0.021957	-0.108340	0.758079
H309	H	0.090689	-0.168148	0.680313
C310	C	0.100077	-0.776649	0.677112
C311	C	0.161272	-0.825744	0.664999
C312	C	0.173408	-0.886938	0.714093
C313	C	0.124347	-0.899036	0.775300
C314	C	0.063147	-0.849939	0.787415
C315	C	0.051012	-0.788745	0.738321
H316	H	0.197594	-0.816790	0.619688
H317	H	0.218712	-0.923283	0.705124
H318	H	0.133330	-0.944335	0.811642
H319	H	0.026825	-0.858894	0.832726
H320	H	0.005707	-0.752401	0.747290
