data_functionalizedCrystal
_audit_creation_method	'MofGen! by Chris Wilmer'
_symmetry_space_group_name_H-M	'P1'
_symmetry_Int_Tables_number	1
_symmetry_cell_setting	triclinic
loop_
_symmetry_equiv_pos_as_xyz
  x,y,z
_cell_length_a	25.639239
_cell_length_b	25.639243
_cell_length_c	12.759393
_cell_angle_alpha	90.025352
_cell_angle_beta	89.964022
_cell_angle_gamma	89.958634
loop_
_atom_site_label
_atom_site_type_symbol
_atom_site_fract_x
_atom_site_fract_y
_atom_site_fract_z
Zn1	Zn	-0.208088	-0.799273	-0.594104
Zn2	Zn	-0.295533	-0.799183	-0.418407
Zn3	Zn	-0.208118	-0.711835	-0.418425
Zn4	Zn	-0.295498	-0.711795	-0.594031
O5	O	-0.251809	-0.755522	-0.506242
O6	O	-0.219690	-0.872427	-0.570820
O7	O	-0.283964	-0.787575	-0.271388
O8	O	-0.134949	-0.723489	-0.441768
O9	O	-0.283936	-0.872360	-0.441737
O10	O	-0.134927	-0.787730	-0.570838
O11	O	-0.219740	-0.723401	-0.271402
O12	O	-0.219707	-0.638665	-0.441697
O13	O	-0.283876	-0.723420	-0.741062
O14	O	-0.283905	-0.638635	-0.570713
O15	O	-0.219656	-0.787690	-0.741115
O16	O	-0.368694	-0.787535	-0.441666
O17	O	-0.368668	-0.723332	-0.570696
C18	C	-0.251806	-0.619679	-0.506200
C19	C	-0.251817	-0.561565	-0.506207
C20	C	-0.218409	-0.201231	-0.573567
C21	C	-0.218408	-0.146627	-0.573573
O22	O	-0.189994	-0.118415	-0.630794
N23	N	-0.251807	-0.119282	-0.506270
C24	C	-0.285205	-0.146545	-0.438948
O25	O	-0.313613	-0.118273	-0.381701
C26	C	-0.285203	-0.201149	-0.438937
C27	C	-0.251805	-0.228490	-0.506252
C28	C	-0.185014	-0.228572	-0.640876
C29	C	-0.185015	-0.283173	-0.640871
C30	C	-0.218411	-0.310432	-0.573556
C31	C	-0.251807	-0.283091	-0.506247
C32	C	-0.318598	-0.228411	-0.371610
C33	C	-0.318592	-0.283018	-0.371605
C34	C	-0.285194	-0.310359	-0.438920
C35	C	-0.285204	-0.364950	-0.438927
N36	N	-0.251805	-0.392294	-0.506231
C37	C	-0.218409	-0.365035	-0.573545
C38	C	-0.285207	-0.031875	-0.438974
C39	C	-0.285213	0.022728	-0.438990
C40	C	-0.218415	0.022642	-0.573614
C41	C	-0.218413	-0.031961	-0.573603
C42	C	-0.251808	-0.059219	-0.506278
C43	C	-0.218414	-0.479700	-0.573530
C44	C	-0.218420	-0.534306	-0.573521
C45	C	-0.285216	-0.534216	-0.438894
C46	C	-0.285212	-0.479615	-0.438905
C47	C	-0.251807	-0.452359	-0.506227
O48	O	-0.313602	-0.393197	-0.381733
O49	O	-0.190001	-0.393314	-0.630773
C50	C	-0.387652	-0.755434	-0.506194
C51	C	-0.445766	-0.755444	-0.506208
C52	C	-0.806130	-0.789039	-0.439170
C53	C	-0.860734	-0.789060	-0.439184
O54	O	-0.888971	-0.817533	-0.382134
N55	N	-0.888048	-0.755613	-0.506311
C56	C	-0.860756	-0.722148	-0.573436
O57	O	-0.889003	-0.693702	-0.630535
C58	C	-0.806152	-0.722131	-0.573427
C59	C	-0.778841	-0.755576	-0.506288
C60	C	-0.778818	-0.822482	-0.372038
C61	C	-0.724218	-0.822461	-0.372023
C62	C	-0.696929	-0.788997	-0.439140
C63	C	-0.724240	-0.755555	-0.506273
C64	C	-0.778860	-0.688669	-0.640556
C65	C	-0.724253	-0.688655	-0.640541
C66	C	-0.696942	-0.722100	-0.573402
C67	C	-0.642351	-0.722070	-0.573375
N68	N	-0.615036	-0.755517	-0.506248
C69	C	-0.642325	-0.788980	-0.439130
C70	C	-0.975426	-0.722188	-0.573452
C71	C	-1.030028	-0.722202	-0.573457
C72	C	-1.030003	-0.789114	-0.439207
C73	C	-0.975400	-0.789097	-0.439197
C74	C	-0.948112	-0.755634	-0.506325
C75	C	-0.527660	-0.788933	-0.439103
C76	C	-0.473055	-0.788907	-0.439091
C77	C	-0.473085	-0.721997	-0.573345
C78	C	-0.527686	-0.722021	-0.573354
C79	C	-0.554972	-0.755493	-0.506229
O80	O	-0.614079	-0.693613	-0.630400
O81	O	-0.614072	-0.817427	-0.382051
C82	C	-0.115436	-0.755624	-0.506313
C83	C	-0.057322	-0.755668	-0.506343
C84	C	-0.251759	-0.755561	-0.780275
C85	C	-0.251738	-0.755577	-0.897052
C86	C	-0.251813	0.108105	-0.506284
C87	C	-0.251814	0.049991	-0.506301
C88	C	-0.218293	-0.789045	-0.951944
C89	C	-0.218271	-0.789054	-1.061668
C90	C	-0.285142	-0.722126	-1.061599
C91	C	-0.285161	-0.722115	-0.951877
C92	C	-0.251822	-0.755513	-0.233274
C93	C	-0.251696	-0.755597	-0.116498
H94	H	-0.191221	0.044847	-0.628423
C95	C	-0.181683	-0.564381	-0.647570
H96	H	-0.186468	-0.600805	-0.637938
H97	H	-0.146544	-0.555454	-0.632326
H98	H	-0.189382	-0.555441	-0.718135
H99	H	-0.312355	-0.694883	-1.106251
H100	H	-0.801031	-0.849735	-0.317382
C101	C	-0.181675	-0.449726	-0.647591
H102	H	-0.161793	-0.473836	-0.687680
H103	H	-0.158866	-0.428430	-0.607503
H104	H	-0.201707	-0.428425	-0.693303
H105	H	-0.191036	-0.816306	-1.106356
C106	C	-0.355333	-0.312998	-0.297554
H107	H	-0.375224	-0.288891	-0.257477
H108	H	-0.335310	-0.334305	-0.251846
H109	H	-0.378141	-0.334289	-0.337667
H110	H	-0.549924	-0.694789	-0.628027
H111	H	-1.052232	-0.816364	-0.384560
C112	C	-0.321953	-0.564205	-0.364857
H113	H	-0.341848	-0.540104	-0.324773
H114	H	-0.301925	-0.585511	-0.319156
H115	H	-0.344758	-0.585498	-0.404974
H116	H	-0.191076	-0.816291	-0.907308
H117	H	-0.312413	-0.457353	-0.384104
C118	C	-0.321956	-0.685301	-0.891492
H119	H	-0.341865	-0.665380	-0.939856
H120	H	-0.301964	-0.662532	-0.848686
H121	H	-0.344746	-0.705286	-0.848690
H122	H	-0.157818	-0.305430	-0.695684
H123	H	-0.157815	-0.206384	-0.695692
H124	H	-0.191216	-0.054219	-0.628415
C125	C	-0.355330	-0.198347	-0.297552
H126	H	-0.375211	-0.222409	-0.257456
H127	H	-0.378141	-0.177037	-0.337642
H128	H	-0.335297	-0.177052	-0.251846
C129	C	-0.321956	0.052800	-0.364959
H130	H	-0.317179	0.089225	-0.374602
H131	H	-0.314265	0.043862	-0.294395
H132	H	-0.357095	0.043870	-0.380220
C133	C	-0.321953	-0.061854	-0.364928
H134	H	-0.341846	-0.037745	-0.324859
H135	H	-0.301932	-0.083159	-0.319213
H136	H	-0.344760	-0.083147	-0.405041
C137	C	-0.443015	-0.825700	-0.365240
H138	H	-0.467091	-0.845636	-0.325280
H139	H	-0.421753	-0.805707	-0.319415
H140	H	-0.421676	-0.848465	-0.405476
C141	C	-0.557668	-0.825747	-0.365260
H142	H	-0.533575	-0.845655	-0.325274
H143	H	-0.578930	-0.848530	-0.405486
H144	H	-0.579005	-0.805763	-0.319443
H145	H	-0.701984	-0.849696	-0.317356
H146	H	-0.953166	-0.816331	-0.384528
C147	C	-1.060065	-0.685410	-0.647304
H148	H	-1.035988	-0.665482	-0.687276
H149	H	-1.081408	-0.662646	-0.607083
H150	H	-1.081325	-0.705409	-0.693133
H151	H	-0.953211	-0.694934	-0.628113
H152	H	-0.801088	-0.661432	-0.695223
H153	H	-0.702038	-0.661406	-0.695209
H154	H	-0.450858	-0.694750	-0.627988
