data_functionalizedCrystal
_audit_creation_method	'MofGen! by Chris Wilmer'
_symmetry_space_group_name_H-M	'P1'
_symmetry_Int_Tables_number	1
_symmetry_cell_setting	triclinic
loop_
_symmetry_equiv_pos_as_xyz
  x,y,z
_cell_length_a	16.109301
_cell_length_b	10.654550
_cell_length_c	14.586319
_cell_angle_alpha	89.996358
_cell_angle_beta	89.999213
_cell_angle_gamma	83.973206
loop_
_atom_site_label
_atom_site_type_symbol
_atom_site_fract_x
_atom_site_fract_y
_atom_site_fract_z
O1	O	1.104091	0.161419	-0.076182
O2	O	0.862148	0.181507	-0.076197
O3	O	0.988682	-0.011352	-0.076183
O4	O	0.977557	0.354278	-0.076195
O5	O	0.988673	-0.011354	0.076298
O6	O	0.862139	0.181504	0.076284
O7	O	1.104082	0.161416	0.076299
Cu8	Cu	0.983110	0.171460	0.090214
Cu9	Cu	0.983120	0.171463	-0.090112
O10	O	0.977548	0.354275	0.076285
C11	C	0.831164	0.180692	0.000042
C12	C	0.738854	0.178253	0.000037
C13	C	0.987861	-0.058140	0.000057
C14	C	0.985417	-0.197550	0.000055
C15	C	0.517228	0.287019	0.000044
C16	C	0.430494	0.284717	0.000049
C17	C	0.449008	0.055896	0.000053
C18	C	0.535741	0.058199	0.000054
C19	C	0.569848	0.173764	0.000044
C20	C	0.396382	0.169159	0.000050
C21	C	0.302341	0.166662	0.000056
C22	C	0.663895	0.176262	0.000040
C23	C	1.059918	-0.278046	0.000059
C24	C	1.057616	-0.409036	0.000048
C25	C	0.906306	-0.379020	0.000032
C26	C	0.908608	-0.248033	0.000037
C27	C	1.145364	-0.606070	-0.053373
C28	C	1.219869	-0.686572	-0.053353
C29	C	1.287407	-0.657317	0.000086
C30	C	1.280443	-0.547563	0.053528
C31	C	1.205937	-0.467068	0.053516
C32	C	1.138402	-0.496322	0.000056
C33	C	0.820866	-0.050997	0.053465
C34	C	0.746359	0.029500	0.053460
C35	C	0.678814	0.000249	0.000026
C36	C	0.685770	-0.109507	-0.053402
C37	C	0.760277	-0.190004	-0.053397
C38	C	0.827822	-0.160745	0.000036
C39	C	1.135066	0.162231	0.000058
C40	C	1.227376	0.164671	0.000058
C41	C	0.978369	0.401063	0.000043
C42	C	0.980813	0.540473	0.000039
N43	N	0.983108	0.171457	0.217046
N44	N	0.983128	0.171457	-0.216944
C45	C	1.039156	0.086088	0.452058
C46	C	1.039159	0.086084	0.548040
C47	C	0.927074	0.256830	0.548037
C48	C	0.927068	0.256826	0.452058
C49	C	0.983114	0.171456	0.404071
C50	C	0.983122	0.171457	0.596031
C51	C	0.983124	0.171455	0.700099
C52	C	0.983111	0.171457	0.299997
H53	H	0.544996	0.381119	0.000043
H54	H	1.084792	0.016568	0.587108
H55	H	0.881444	0.326338	0.587118
O56	O	0.379499	0.394848	0.000005
C57	C	0.428206	0.497335	0.000021
H58	H	0.492745	0.465435	-0.028848
H59	H	0.434586	0.532756	0.073173
C60	C	0.306344	0.643710	-0.024321
C61	C	0.385609	0.604532	-0.059786
H62	H	0.280067	0.709837	-0.061209
H63	H	0.273528	0.574664	-0.024329
H64	H	0.311672	0.673219	0.036638
H65	H	0.380280	0.575008	-0.120739
H66	H	0.418423	0.673576	-0.059790
O67	O	0.872709	0.339935	0.405479
C68	C	0.886926	0.464260	0.428936
H69	H	0.953492	0.464905	0.455316
H70	H	0.841060	0.501131	0.484649
C71	C	0.792735	0.548595	0.311268
C72	C	0.874496	0.549389	0.343661
H73	H	0.785064	0.601110	0.258668
H74	H	0.783154	0.464836	0.295466
H75	H	0.754523	0.579318	0.357703
H76	H	0.912705	0.518652	0.297230
H77	H	0.884083	0.633146	0.359453
H78	H	1.225535	-0.775931	-0.096872
O79	O	0.586742	-0.051939	0.000013
C80	C	0.538042	-0.154433	0.000036
H81	H	0.473502	-0.122540	-0.028834
H82	H	0.531663	-0.189860	0.073189
C83	C	0.659912	-0.300791	-0.024299
C84	C	0.580646	-0.261622	-0.059765
H85	H	0.686193	-0.366913	-0.061183
H86	H	0.692723	-0.231740	-0.024311
H87	H	0.654585	-0.330305	0.036662
H88	H	0.585974	-0.232094	-0.120720
H89	H	0.547836	-0.330671	-0.059764
H90	H	1.090378	-0.629892	-0.096901
H91	H	1.200265	-0.377712	0.097031
H92	H	0.740696	0.118862	0.096976
O93	O	0.886418	-0.022651	0.105502
C94	C	0.862495	-0.016097	0.198502
H95	H	0.807400	-0.073362	0.209527
H96	H	0.843611	0.086495	0.218150
C97	C	1.003966	0.000168	0.245117
C98	C	0.936302	-0.070175	0.258659
H99	H	1.049494	-0.033184	0.282226
H100	H	1.020084	-0.004242	0.182461
H101	H	0.988218	0.085657	0.261490
H102	H	0.952047	-0.155658	0.242276
H103	H	0.920189	-0.065780	0.321314
H104	H	0.421227	-0.038193	0.000067
H105	H	1.122460	-0.236948	0.000072
H106	H	1.348071	-0.722871	0.000101
O107	O	1.346067	-0.519373	0.105507
C108	C	1.366795	-0.617190	0.169212
H109	H	1.343604	-0.708068	0.142977
H110	H	1.336102	-0.590683	0.237933
C111	C	1.490706	-0.525465	0.213631
C112	C	1.462229	-0.637086	0.181404
H113	H	1.549574	-0.537735	0.221156
H114	H	1.476741	-0.459560	0.170714
H115	H	1.465122	-0.503388	0.270895
H116	H	1.487806	-0.659152	0.124136
H117	H	1.476201	-0.702995	0.224312
H118	H	0.765941	-0.279365	-0.096914
O119	O	0.831770	-0.428271	0.000064
C120	C	0.845711	-0.561145	0.000041
H121	H	0.910413	-0.591937	0.028912
H122	H	0.841476	-0.597599	-0.073113
C123	C	0.699791	-0.577635	0.024372
C124	C	0.779256	-0.615454	0.059841
H125	H	0.658797	-0.611138	0.061256
H126	H	0.690397	-0.488116	0.024385
H127	H	0.696274	-0.608016	-0.036588
H128	H	0.782776	-0.585060	0.120795
H129	H	0.788649	-0.704970	0.059840
H130	H	0.630762	-0.133341	-0.096893
O131	O	1.093622	0.003034	0.405585
C132	C	1.143100	-0.072294	0.468527
H133	H	1.109009	-0.073721	0.536947
H134	H	1.205095	-0.031494	0.478727
C135	C	1.201322	-0.206014	0.347044
C136	C	1.159448	-0.207775	0.431076
H137	H	1.211410	-0.289584	0.323942
H138	H	1.167991	-0.155262	0.304638
H139	H	1.252980	-0.172008	0.355555
H140	H	1.107786	-0.241766	0.422562
H141	H	1.192771	-0.258537	0.473481
H142	H	0.618142	0.065794	0.000039
