data_functionalizedCrystal
_audit_creation_method	'MofGen! by Chris Wilmer'
_symmetry_space_group_name_H-M	'P1'
_symmetry_Int_Tables_number	1
_symmetry_cell_setting	triclinic
loop_
_symmetry_equiv_pos_as_xyz
  x,y,z
_cell_length_a	14.908979
_cell_length_b	16.959453
_cell_length_c	14.908308
_cell_angle_alpha	86.734637
_cell_angle_beta	83.628929
_cell_angle_gamma	93.321739
loop_
_atom_site_label
_atom_site_type_symbol
_atom_site_fract_x
_atom_site_fract_y
_atom_site_fract_z
Zn1	Zn	1.354244	-0.267981	0.432030
Zn2	Zn	1.362882	-0.392083	0.280674
Zn3	Zn	1.211617	-0.268019	0.289409
Zn4	Zn	1.202853	-0.408221	0.440705
O5	O	1.282899	-0.334076	0.360705
O6	O	1.482052	-0.277673	0.404666
O7	O	1.350100	-0.368887	0.155172
O8	O	1.230589	-0.157401	0.308354
O9	O	1.488399	-0.368851	0.293465
O10	O	1.335376	-0.157373	0.413137
O11	O	1.238965	-0.277738	0.161590
O12	O	1.083792	-0.293386	0.316765
O13	O	1.215653	-0.396356	0.566215
O14	O	1.077353	-0.396392	0.427922
O15	O	1.326878	-0.293322	0.559842
O16	O	1.341602	-0.504836	0.301877
O17	O	1.224029	-0.516692	0.419451
C18	C	1.047730	-0.346645	0.374233
C19	C	0.947123	-0.352043	0.380043
C20	C	0.801999	-0.413351	0.445999
C21	C	0.896528	-0.408280	0.440549
C22	C	0.903182	-0.300873	0.324981
C23	C	0.808653	-0.305944	0.330431
C24	C	0.758064	-0.362184	0.390943
C25	C	0.663533	-0.367250	0.396398
C26	C	0.670189	-0.259847	0.280826
C27	C	0.764718	-0.254777	0.275375
C28	C	1.282825	-0.539444	0.360676
C29	C	1.282875	-0.627299	0.360689
C30	C	1.337530	-0.998703	0.415370
C31	C	1.228514	-0.998839	0.306159
C32	C	1.228481	-0.916294	0.306140
C33	C	1.282973	-0.874949	0.360738
C34	C	1.337497	-0.916150	0.415355
C35	C	1.173951	-0.875087	0.251531
C36	C	1.173916	-0.792537	0.251511
C37	C	1.228413	-0.751191	0.306105
C38	C	1.282940	-0.792397	0.360723
C39	C	1.337432	-0.751053	0.415321
C40	C	1.391964	-0.792257	0.469935
C41	C	1.391994	-0.874804	0.469949
C42	C	1.228383	-0.668643	0.306091
C43	C	1.337399	-0.668500	0.415306
C44	C	1.518986	-0.321458	0.347123
C45	C	1.619592	-0.316081	0.341336
C46	C	1.269324	-0.346635	0.596789
C47	C	1.263540	-0.351986	0.697393
C48	C	1.282996	-0.127905	0.360752
C49	C	1.283038	-0.040047	0.360772
C50	C	1.296473	-0.321506	0.125536
C51	C	1.302433	-0.315922	0.024922
C52	C	1.368486	-0.254736	0.879806
C53	C	1.363054	-0.259761	0.974333
C54	C	1.247238	-0.367059	0.980977
C55	C	1.252671	-0.362033	0.886450
C56	C	1.313298	-0.305871	0.835867
C57	C	1.318734	-0.300849	0.741338
C58	C	1.202915	-0.408143	0.747984
C59	C	1.197482	-0.413168	0.842511
H60	H	0.760808	-0.459137	0.495278
H61	H	1.368101	-0.255120	0.700155
C62	C	0.944060	-0.463875	0.500436
C63	C	0.879519	-0.514197	0.554609
C64	C	0.923271	-0.565417	0.609798
H65	H	0.982917	-0.494521	0.463719
H66	H	0.978654	-0.433835	0.537858
H67	H	0.844941	-0.544235	0.517191
H68	H	0.840660	-0.483573	0.591344
H69	H	0.957865	-0.535376	0.647220
H70	H	0.962127	-0.596057	0.573074
H71	H	0.879487	-0.599561	0.646567
C72	C	1.396684	-0.623560	0.474430
C73	C	1.457679	-0.570331	0.419880
C74	C	1.512313	-0.528928	0.474313
H75	H	1.359853	-0.595250	0.515842
H76	H	1.429216	-0.659896	0.506935
H77	H	1.425150	-0.534001	0.387390
H78	H	1.494530	-0.598621	0.378470
H79	H	1.544846	-0.565263	0.506818
H80	H	1.475475	-0.500623	0.515722
H81	H	1.553710	-0.492813	0.437309
H82	H	0.944388	-0.255091	0.275708
C83	C	1.181475	-0.428143	1.035792
C84	C	1.202450	-0.504080	1.011651
C85	C	1.141880	-0.560367	1.062123
H86	H	1.186090	-0.423914	1.098397
H87	H	1.121540	-0.419051	1.023786
H88	H	1.262370	-0.513169	1.023665
H89	H	1.197829	-0.508335	0.949055
H90	H	1.081945	-0.551275	1.050116
H91	H	1.146500	-0.556130	1.124725
H92	H	1.156098	-0.611896	1.045745
H93	H	1.417856	-0.209010	0.838621
H94	H	1.381931	-1.032255	0.459833
C95	C	1.423084	-0.204201	1.021870
C96	C	1.477353	-0.153956	0.957335
C97	C	1.532674	-0.102767	1.001091
H98	H	1.386456	-0.173498	1.060743
H99	H	1.460441	-0.234267	1.056446
H100	H	1.440000	-0.123892	0.922774
H101	H	1.514000	-0.184637	0.918459
H102	H	1.570031	-0.132834	1.035667
H103	H	1.496038	-0.072070	1.039963
H104	H	1.569508	-0.068675	0.957311
H105	H	1.436328	-0.758585	0.514393
H106	H	0.634408	-0.218180	0.235998
H107	H	1.148120	-0.458893	0.883708
H108	H	0.622345	-0.413041	0.445673
C109	C	0.819804	-0.193744	0.209771
C110	C	0.911993	-0.200241	0.216795
C111	C	0.962762	-0.144021	0.156384
H112	H	0.807910	-0.202762	0.149783
H113	H	0.803611	-0.142175	0.224029
H114	H	0.928180	-0.251797	0.202531
H115	H	0.923914	-0.191214	0.276769
H116	H	0.946569	-0.092452	0.170642
H117	H	0.950860	-0.153044	0.096400
H118	H	1.025316	-0.148416	0.161147
C119	C	1.451093	-0.919687	0.529217
C120	C	1.439434	-1.000829	0.517565
C121	C	1.493848	-1.042204	0.572159
H122	H	1.512708	-0.902270	0.512577
H123	H	1.434283	-0.910137	0.590803
H124	H	1.456250	-1.010374	0.455992
H125	H	1.377830	-1.018269	0.534211
H126	H	1.477038	-1.032653	0.633745
H127	H	1.555460	-1.024781	0.555514
H128	H	1.485939	-1.097263	0.564266
C129	C	1.169452	-1.043863	0.246911
C130	C	1.181167	-1.124972	0.258598
C131	C	1.126784	-1.166474	0.204020
H132	H	1.107827	-1.034418	0.263543
H133	H	1.186255	-1.026447	0.185319
H134	H	1.164358	-1.142382	0.320176
H135	H	1.242780	-1.134440	0.241961
H136	H	1.143587	-1.149059	0.142428
H137	H	1.065162	-1.157024	0.220657
H138	H	1.134731	-1.221510	0.211936
H139	H	1.129584	-0.908756	0.207083
C140	C	1.143140	-0.463698	0.700159
C141	C	1.197487	-0.508724	0.642917
C142	C	1.142459	-0.559903	0.598839
H143	H	1.106244	-0.497933	0.743725
H144	H	1.105850	-0.433631	0.665504
H145	H	1.234762	-0.538788	0.677570
H146	H	1.234382	-0.474509	0.599334
H147	H	1.105168	-0.529836	0.564185
H148	H	1.105565	-0.594133	0.642412
H149	H	1.179325	-0.590454	0.559990
C150	C	1.114692	-0.747944	0.192113
C151	C	1.066995	-0.801819	0.144287
C152	C	1.012442	-0.760766	0.089549
H153	H	1.073150	-0.719697	0.228867
H154	H	1.151589	-0.711803	0.150656
H155	H	1.030101	-0.837946	0.185739
H156	H	1.108515	-0.830068	0.107516
H157	H	1.049340	-0.724625	0.048091
H158	H	0.970906	-0.732521	0.126310
H159	H	0.980080	-0.797313	0.057086
H160	H	1.183979	-0.635099	0.261630
