data_functionalizedCrystal
_audit_creation_method	'MofGen! by Chris Wilmer'
_symmetry_space_group_name_H-M	'P1'
_symmetry_Int_Tables_number	1
_symmetry_cell_setting	triclinic
loop_
_symmetry_equiv_pos_as_xyz
  x,y,z
_cell_length_a	19.077105
_cell_length_b	18.050589
_cell_length_c	19.076919
_cell_angle_alpha	87.724745
_cell_angle_beta	89.923776
_cell_angle_gamma	87.724731
loop_
_atom_site_label
_atom_site_type_symbol
_atom_site_fract_x
_atom_site_fract_y
_atom_site_fract_z
Zn1	Zn	1.058247	-0.359281	0.440438
Zn2	Zn	1.558247	0.140719	0.940438
Zn3	Zn	1.062879	-0.478689	0.322938
Zn4	Zn	1.562879	0.021311	0.822938
Zn5	Zn	0.945466	-0.349333	0.318231
Zn6	Zn	1.445466	0.150667	0.818231
Zn7	Zn	0.940701	-0.478241	0.435691
Zn8	Zn	1.440701	0.021759	0.935691
O9	O	1.001823	-0.416386	0.379325
O10	O	1.501823	0.083614	0.879325
O11	O	1.157193	-0.379472	0.428809
O12	O	1.657193	0.120528	0.928809
O13	O	1.051237	-0.457554	0.223983
O14	O	1.551237	0.042446	0.723983
O15	O	0.960482	-0.246731	0.334459
O16	O	1.460482	0.253269	0.834459
O17	O	1.160596	-0.467201	0.342482
O18	O	1.660596	0.032799	0.842482
O19	O	1.043342	-0.254040	0.424244
O20	O	1.543342	0.245960	0.924244
O21	O	0.964973	-0.362516	0.220524
O22	O	1.464973	0.137484	0.720524
O23	O	0.846502	-0.362082	0.329856
O24	O	1.346502	0.137918	0.829856
O25	O	0.952361	-0.466437	0.534652
O26	O	1.452361	0.033563	1.034652
O27	O	0.843002	-0.456790	0.416153
O28	O	1.343002	0.043210	0.916153
O29	O	1.038722	-0.379038	0.538140
O30	O	1.538722	0.120962	1.038140
O31	O	1.046617	-0.582551	0.337879
O32	O	1.546617	-0.082551	0.837879
O33	O	0.956853	-0.582222	0.420717
O34	O	1.456853	-0.082222	0.920717
C35	C	0.819256	-0.408308	0.371979
C36	C	1.319256	0.091692	0.871979
C37	C	0.741152	-0.404871	0.368853
C38	C	1.241152	0.095129	0.868853
C39	C	0.702657	-0.452635	0.412244
C40	C	1.202657	0.047365	0.912244
C41	C	0.629270	-0.449396	0.409310
C42	C	1.129270	0.050604	0.909310
C43	C	0.594379	-0.398396	0.362981
C44	C	1.094379	0.101604	0.862981
C45	C	0.632879	-0.350627	0.319588
C46	C	1.132879	0.149373	0.819588
C47	C	0.706264	-0.353863	0.322526
C48	C	1.206264	0.146137	0.822526
C49	C	0.375093	-0.383419	0.349388
C50	C	0.875093	0.116581	0.849388
C51	C	0.301702	-0.380188	0.346452
C52	C	0.801702	0.119812	0.846452
C53	C	0.298098	-0.478956	0.436175
C54	C	0.798098	0.021044	0.936175
C55	C	0.371485	-0.482191	0.439105
C56	C	0.871485	0.017809	0.939105
C57	C	0.409979	-0.434419	0.395715
C58	C	0.909979	0.065581	0.895715
N59	N	0.519366	-0.395085	0.359980
N60	N	1.019366	0.104915	0.859980
N61	N	0.484990	-0.437727	0.398721
N62	N	0.984990	0.062273	0.898721
C63	C	1.001739	-0.609334	0.379310
C64	C	1.501739	-0.109334	0.879310
C65	C	1.001766	-0.691882	0.379329
C66	C	1.501766	-0.191882	0.879329
C67	C	0.952999	-0.891182	0.424363
C68	C	1.452999	-0.391182	0.924363
C69	C	0.938449	-0.937256	0.359556
C70	C	1.438449	-0.437256	0.859556
C71	C	1.001835	-0.843016	0.379341
C72	C	1.501835	-0.343016	0.879341
C73	C	1.016419	-0.944025	0.444157
C74	C	1.516419	-0.444025	0.944157
C75	C	1.001900	-0.989004	0.379358
C76	C	1.501900	-0.489004	0.879358
C77	C	0.987253	-0.887999	0.314499
C78	C	1.487253	-0.387999	0.814499
C79	C	1.065250	-0.894768	0.399145
C80	C	1.565250	-0.394768	0.899145
C81	C	1.050726	-0.940818	0.334295
C82	C	1.550726	-0.440818	0.834295
C83	C	1.001796	-0.758915	0.379332
C84	C	1.501796	-0.258915	0.879332
C85	C	1.001939	-1.073102	0.379360
C86	C	1.501939	-0.573102	0.879360
C87	C	1.185104	-0.424496	0.386700
C88	C	1.685104	0.075504	0.886700
C89	C	1.263207	-0.427952	0.389843
C90	C	1.763207	0.072048	0.889843
C91	C	0.994493	-0.423797	0.562605
C92	C	1.494493	0.076203	1.062605
C93	C	0.991370	-0.426955	0.640709
C94	C	1.491370	0.073045	1.140709
C95	C	1.001926	-0.222686	0.379356
C96	C	1.501926	0.277314	0.879356
C97	C	1.001970	-0.140143	0.379369
C98	C	1.501970	0.359857	0.879369
C99	C	1.009165	-0.408952	0.196759
C100	C	1.509165	0.091048	0.696759
C101	C	1.012425	-0.405591	0.118661
C102	C	1.512425	0.094409	0.618661
C103	C	1.034863	-0.382937	0.679219
C104	C	1.534863	0.117063	1.179219
C105	C	1.031920	-0.385901	0.752605
C106	C	1.531920	0.114099	1.252605
C107	C	0.985486	-0.432888	0.787479
C108	C	1.485486	0.067112	1.287479
C109	C	0.941988	-0.476908	0.748964
C110	C	1.441988	0.023092	1.248964
C111	C	0.944928	-0.473940	0.675579
C112	C	1.444928	0.026060	1.175579
C113	C	0.971867	-0.446642	1.006761
C114	C	1.471867	0.053358	1.506761
C115	C	0.968931	-0.449609	1.080151
C116	C	1.468931	0.050391	1.580151
C117	C	1.058863	-0.358601	1.083787
C118	C	1.558863	0.141399	1.583787
C119	C	1.061802	-0.355639	1.010401
C120	C	1.561802	0.144361	1.510401
C121	C	1.018301	-0.399657	0.971892
C122	C	1.518301	0.100343	1.471892
N123	N	0.982478	-0.435921	0.862492
N124	N	1.482478	0.064079	1.362492
N125	N	1.021307	-0.396619	0.896881
N126	N	1.521307	0.103381	1.396881
H127	H	0.737606	-0.314965	0.287196
H128	H	1.237606	0.185035	0.787196
O129	O	0.267917	-0.330576	0.301429
O130	O	0.767917	0.169424	0.801429
C131	C	0.317628	-0.289117	0.263749
C132	C	0.817628	0.210883	0.763749
H133	H	0.368796	-0.290059	0.294628
H134	H	0.868796	0.209941	0.794628
H135	H	0.296737	-0.229360	0.255502
H136	H	0.796737	0.270640	0.755502
H137	H	0.327549	-0.314404	0.210648
H138	H	0.827549	0.185596	0.710648
O139	O	1.101214	-0.315922	1.121168
O140	O	1.601214	0.184078	1.621168
C141	C	1.171958	-0.334509	1.106042
C142	C	1.671958	0.165491	1.606042
H143	H	1.176285	-0.393178	1.086004
H144	H	1.676285	0.106822	1.586004
H145	H	1.204743	-0.331596	1.155703
H146	H	1.704743	0.168404	1.655703
H147	H	1.192051	-0.293784	1.064191
H148	H	1.692051	0.206216	1.564191
H149	H	0.911645	-0.869387	0.462377
H150	H	1.411645	-0.369387	0.962377
O151	O	0.874556	-0.959697	0.339460
O152	O	1.374556	-0.459697	0.839460
C153	C	0.881944	-1.000403	0.278137
C154	C	1.381944	-0.500403	0.778137
H155	H	0.931961	-0.984420	0.249527
H156	H	1.431961	-0.484420	0.749527
H157	H	0.834809	-0.987427	0.242432
H158	H	1.334809	-0.487427	0.742432
H159	H	0.885034	-1.062278	0.292864
H160	H	1.385034	-0.562278	0.792864
O161	O	0.972608	-0.858922	0.249054
O162	O	1.472608	-0.358922	0.749054
C163	C	1.023872	-0.884813	0.201639
C164	C	1.523872	-0.384813	0.701639
H165	H	1.073918	-0.902295	0.231534
H166	H	1.573918	-0.402295	0.731534
H167	H	1.035529	-0.838657	0.161282
H168	H	1.535529	-0.338657	0.661282
H169	H	1.003624	-0.934419	0.173760
H170	H	1.503624	-0.434419	0.673760
H171	H	1.118835	-0.875974	0.415910
H172	H	1.618835	-0.375974	0.915910
O173	O	1.079874	-0.337246	0.645265
O174	O	1.579874	0.162754	1.145265
C175	C	1.041591	-0.285782	0.601227
C176	C	1.541591	0.214218	1.101227
H177	H	0.988768	-0.309176	0.588079
H178	H	1.488768	0.190824	1.088079
H179	H	1.072286	-0.275004	0.550779
H180	H	1.572286	0.224996	1.050779
H181	H	1.032762	-0.231553	0.629210
H182	H	1.532762	0.268447	1.129210
O183	O	0.412510	-0.336949	0.307339
O184	O	0.912510	0.163051	0.807339
C185	C	0.453396	-0.292553	0.349121
C186	C	0.953396	0.207447	0.849121
H187	H	0.429079	-0.289317	0.403586
H188	H	0.929079	0.210683	0.903586
H189	H	0.455260	-0.234373	0.323831
H190	H	0.955260	0.265627	0.823831
H191	H	0.508909	-0.318066	0.353732
H192	H	1.008909	0.181934	0.853732
O193	O	1.099944	-0.966740	0.288784
O194	O	1.599944	-0.466740	0.788784
C195	C	1.067258	-1.007169	0.237112
C196	C	1.567258	-0.507169	0.737112
H197	H	1.015221	-1.027675	0.258128
H198	H	1.515221	-0.527675	0.758128
H199	H	1.102804	-1.056687	0.223185
H200	H	1.602804	-0.556687	0.723185
H201	H	1.057320	-0.969837	0.188241
H202	H	1.557320	-0.469837	0.688241
O203	O	0.929577	-0.489463	0.969467
O204	O	1.429577	0.010537	1.469467
C205	C	0.887948	-0.531551	1.015987
C206	C	1.387948	-0.031551	1.515987
H207	H	0.914643	-0.537528	1.069452
H208	H	1.414643	-0.037528	1.569452
H209	H	0.881248	-0.588867	0.994466
H210	H	1.381248	-0.088867	1.494466
H211	H	0.834292	-0.502294	1.021660
H212	H	1.334292	-0.002294	1.521660
H213	H	1.067339	-0.350058	0.783957
H214	H	1.567339	0.149942	1.283957
H215	H	1.099616	-0.317380	0.982011
H216	H	1.599616	0.182620	1.482011
H217	H	0.604465	-0.309099	0.281869
H218	H	1.104465	0.190901	0.781869
H219	H	0.904177	-0.515163	0.777365
H220	H	1.404177	-0.015163	1.277365
O221	O	1.031025	-0.973162	0.509589
O222	O	1.531025	-0.473162	1.009589
C223	C	0.979360	-0.947866	0.556865
C224	C	1.479360	-0.447866	1.056865
H225	H	0.953421	-0.893873	0.534941
H226	H	1.453421	-0.393873	1.034941
H227	H	1.004801	-0.937812	0.609504
H228	H	1.504801	-0.437812	1.109504
H229	H	0.938083	-0.991457	0.564381
H230	H	1.438083	-0.491457	1.064381
O231	O	0.923916	-0.495331	1.114069
O232	O	1.423916	0.004669	1.614069
C233	C	0.962190	-0.546774	1.158136
C234	C	1.462190	-0.046774	1.658136
H235	H	1.018414	-0.552930	1.138245
H236	H	1.518414	-0.052930	1.638245
H237	H	0.936701	-0.602829	1.157944
H238	H	1.436701	-0.102829	1.657944
H239	H	0.962405	-0.526163	1.213852
H240	H	1.462405	-0.026163	1.713852
H241	H	0.909504	-0.509777	0.644225
H242	H	1.409504	-0.009777	1.144225
H243	H	0.731060	-0.494167	0.449968
H244	H	1.231060	0.005833	0.949968
O245	O	0.591954	-0.495774	0.451556
O246	O	1.091954	0.004226	0.951556
C247	C	0.607094	-0.483283	0.522337
C248	C	1.107094	0.016717	1.022337
H249	H	0.660326	-0.457142	0.525975
H250	H	1.160326	0.042858	1.025975
H251	H	0.608341	-0.538320	0.553849
H252	H	1.108341	-0.038320	1.053849
H253	H	0.564861	-0.444290	0.544423
H254	H	1.064861	0.055710	1.044423
O255	O	0.405337	-0.531655	0.484213
O256	O	0.905337	-0.031655	0.984213
C257	C	0.384609	-0.517594	0.553554
C258	C	0.884609	-0.017594	1.053554
H259	H	0.364317	-0.457529	0.556391
H260	H	0.864317	0.042471	1.056391
H261	H	0.431485	-0.527583	0.590193
H262	H	0.931485	-0.027583	1.090193
H263	H	0.341265	-0.556300	0.570150
H264	H	0.841265	-0.056300	1.070150
O265	O	0.260597	-0.525278	0.478299
O266	O	0.760597	-0.025278	0.978299
C267	C	0.188344	-0.511502	0.465762
C268	C	0.688344	-0.011502	0.965762
H269	H	0.179254	-0.452784	0.442439
H270	H	0.679254	0.047216	0.942439
H271	H	0.158359	-0.517523	0.517273
H272	H	0.658359	-0.017523	1.017273
H273	H	0.168992	-0.553058	0.427439
H274	H	0.668992	-0.053058	0.927439
