data_functionalizedCrystal
_audit_creation_method	'MofGen! by Chris Wilmer'
_symmetry_space_group_name_H-M	'P1'
_symmetry_Int_Tables_number	1
_symmetry_cell_setting	triclinic
loop_
_symmetry_equiv_pos_as_xyz
  x,y,z
_cell_length_a	9.065218
_cell_length_b	13.330367
_cell_length_c	9.065218
_cell_angle_alpha	90.002749
_cell_angle_beta	85.015885
_cell_angle_gamma	90.007625
loop_
_atom_site_label
_atom_site_type_symbol
_atom_site_fract_x
_atom_site_fract_y
_atom_site_fract_z
O1	O	1.960408	0.083422	0.216356
O2	O	1.531123	0.083423	0.234102
O3	O	1.754639	0.083420	0.010587
O4	O	1.736893	0.083424	0.439872
O5	O	1.754606	-0.083427	0.010581
O6	O	1.531090	-0.083424	0.234097
O7	O	1.960375	-0.083426	0.216350
Cu8	Cu	1.745730	-0.098659	0.225223
Cu9	Cu	1.745769	0.098657	0.225230
O10	O	1.736860	-0.083423	0.439866
C11	C	1.476120	-0.000001	0.232394
C12	C	1.312277	-0.000000	0.227294
N13	N	1.745713	-0.237441	0.225218
C14	C	1.646791	-0.710063	0.324163
C15	C	1.844786	-0.710033	0.126285
C16	C	1.844769	-0.605015	0.126281
C17	C	1.745763	-0.552515	0.225220
C18	C	1.646774	-0.605035	0.324164
C19	C	1.943767	-0.552488	0.027348
C20	C	1.943755	-0.447463	0.027341
C21	C	1.844741	-0.394962	0.126274
C22	C	1.745747	-0.447487	0.225221
C23	C	1.646741	-0.394988	0.324161
C24	C	1.547738	-0.447512	0.423102
C25	C	1.547760	-0.552534	0.423098
C26	C	1.844719	-0.289940	0.126278
C27	C	1.646724	-0.289960	0.324162
C28	C	2.015378	0.000000	0.218059
C29	C	2.179221	0.000006	0.223158
C30	C	1.752917	-0.000002	-0.044403
C31	C	1.747817	0.000003	-0.208245
N32	N	1.745797	0.237438	0.225223
C33	C	1.738582	0.000001	0.494855
C34	C	1.743681	0.000003	0.658698
H35	H	1.566096	-0.247222	0.404726
H36	H	2.024382	-0.595236	-0.053198
O37	O	2.050512	-0.390813	-0.079383
H38	H	2.119349	-0.444964	-0.148188
O39	O	1.951577	-0.766653	0.019588
H40	H	1.931252	-0.746503	-0.095707
O41	O	1.440929	-0.390886	0.529792
H42	H	1.457547	-0.309035	0.513151
H43	H	1.925332	-0.247180	0.045729
H44	H	1.566181	-0.752830	0.404716
O45	O	1.441001	-0.609180	0.529823
H46	H	1.457664	-0.691028	0.513213
