data_functionalizedCrystal
_audit_creation_method	'MofGen! by Chris Wilmer'
_symmetry_space_group_name_H-M	'P1'
_symmetry_Int_Tables_number	1
_symmetry_cell_setting	triclinic
loop_
_symmetry_equiv_pos_as_xyz
  x,y,z
_cell_length_a	10.654562
_cell_length_b	16.109301
_cell_length_c	9.730223
_cell_angle_alpha	89.997247
_cell_angle_beta	89.996961
_cell_angle_gamma	83.975792
loop_
_atom_site_label
_atom_site_type_symbol
_atom_site_fract_x
_atom_site_fract_y
_atom_site_fract_z
O1	O	1.666240	0.116821	-0.114385
O2	O	1.300613	0.127935	-0.114369
O3	O	1.493470	0.001407	-0.114363
O4	O	1.473382	0.243349	-0.114390
O5	O	1.493468	0.001410	0.114217
O6	O	1.300610	0.127938	0.114211
O7	O	1.666238	0.116824	0.114195
Zn8	Zn	1.483424	0.122381	0.150495
Zn9	Zn	1.483427	0.122377	-0.150669
O10	O	1.473380	0.243352	0.114190
C11	C	1.253825	0.127118	-0.000076
C12	C	1.114416	0.124670	-0.000069
C13	C	1.048899	0.123530	0.124519
C14	C	0.917908	0.121236	0.124496
C15	C	0.917961	0.121226	-0.124714
C16	C	1.048951	0.123514	-0.124690
C17	C	1.048867	0.123539	0.268399
C18	C	0.917876	0.121245	0.268376
C19	C	1.492656	-0.029571	-0.000073
C20	C	1.490216	-0.121881	-0.000070
C21	C	1.598981	-0.343504	-0.000097
C22	C	1.596679	-0.430238	-0.000108
C23	C	1.367860	-0.411731	-0.000093
C24	C	1.370164	-0.324998	-0.000091
C25	C	1.485728	-0.290887	-0.000087
C26	C	1.481122	-0.464354	-0.000099
C27	C	1.478626	-0.558395	-0.000111
C28	C	1.488225	-0.196840	-0.000077
C29	C	1.713025	0.117640	-0.000100
C30	C	1.852435	0.120089	-0.000116
C31	C	1.474195	0.274330	-0.000104
C32	C	1.476634	0.366640	-0.000115
N33	N	1.483431	0.122384	0.356032
N34	N	1.483429	0.122368	-0.356205
C35	C	1.568850	0.066376	0.427960
C36	C	1.568847	0.066366	0.571843
C37	C	1.398001	0.178378	0.571856
C38	C	1.397999	0.178384	0.427976
C39	C	1.667490	0.001709	0.427953
C40	C	1.667487	0.001699	0.571836
H41	H	1.102292	0.124430	-0.226142
H42	H	0.889110	0.060612	0.313029
Cl43	Cl	1.093268	0.217154	0.337314
Cl44	Cl	0.845200	0.209954	0.353642
Cl45	Cl	1.227776	-0.258847	-0.000090
H46	H	1.328434	0.223982	0.369413
H47	H	1.637793	-0.058690	0.616460
H48	H	1.328444	0.223972	0.630449
H49	H	1.646914	-0.062195	0.388908
Cl50	Cl	1.121501	0.034835	0.353713
H51	H	1.693081	-0.315734	-0.000096
H52	H	1.273772	-0.439515	-0.000094
H53	H	1.758399	0.021961	0.383320
H54	H	0.864643	0.120285	-0.226176
H55	H	1.688902	-0.473075	-0.000120
Cl56	Cl	1.816191	0.023689	0.632129
