data_functionalizedCrystal
_audit_creation_method	'MofGen! by Chris Wilmer'
_symmetry_space_group_name_H-M	'P1'
_symmetry_Int_Tables_number	1
_symmetry_cell_setting	triclinic
loop_
_symmetry_equiv_pos_as_xyz
  x,y,z
_cell_length_a	16.992694
_cell_length_b	16.974959
_cell_length_c	9.130313
_cell_angle_alpha	93.645936
_cell_angle_beta	90.002155
_cell_angle_gamma	87.028296
loop_
_atom_site_label
_atom_site_type_symbol
_atom_site_fract_x
_atom_site_fract_y
_atom_site_fract_z
O1	O	1.040221	0.167645	-0.101772
O2	O	1.540221	0.667645	0.398228
O3	O	0.811938	0.165805	-0.102032
O4	O	1.311938	0.665805	0.397968
O5	O	0.932435	0.052027	-0.115468
O6	O	1.432435	0.552027	0.384532
O7	O	0.919723	0.281423	-0.088336
O8	O	1.419723	0.781423	0.411664
O9	O	0.932427	0.052023	0.128130
O10	O	1.432427	0.552023	0.628130
O11	O	0.811929	0.165801	0.141566
O12	O	1.311929	0.665801	0.641566
O13	O	1.040213	0.167641	0.141827
O14	O	1.540213	0.667641	0.641827
Cu15	Cu	0.926070	0.166721	0.163939
Cu16	Cu	1.426070	0.666721	0.663939
Cu17	Cu	0.926080	0.166725	-0.124144
Cu18	Cu	1.426080	0.666725	0.375856
O19	O	0.919715	0.281419	0.155263
O20	O	1.419715	0.781419	0.655263
C21	C	0.931945	0.022536	0.002839
C22	C	1.431945	0.522536	0.502839
C23	C	0.930487	-0.065330	-0.007564
C24	C	1.430487	0.434670	0.492436
C25	C	0.782723	0.163437	0.019481
C26	C	1.282723	0.663437	0.519481
C27	C	0.695686	0.156378	0.018629
C28	C	1.195686	0.656378	0.518629
C29	C	0.922350	-0.559927	-0.080537
C30	C	1.422350	-0.059927	0.419463
C31	C	0.923713	-0.477367	-0.070732
C32	C	1.423713	0.022633	0.429268
C33	C	0.924383	-0.436105	0.066956
C34	C	1.424383	0.063895	0.566956
C35	C	0.923699	-0.477408	0.194848
C36	C	1.423699	0.022592	0.694848
C37	C	0.922342	-0.559967	0.185042
C38	C	1.422342	-0.059967	0.685042
C39	C	0.928446	-0.189192	0.110522
C40	C	1.428446	0.310808	0.610522
C41	C	0.929801	-0.106627	0.120318
C42	C	1.429801	0.393373	0.620318
C43	C	0.929815	-0.106591	-0.145263
C44	C	1.429815	0.393409	0.354737
C45	C	0.928454	-0.189152	-0.155057
C46	C	1.428454	0.310848	0.344943
C47	C	0.927774	-0.230448	-0.027165
C48	C	1.427774	0.269552	0.472835
N49	N	0.925774	-0.351715	0.076981
N50	N	1.425774	0.148285	0.576981
N51	N	0.926389	-0.314837	-0.037192
N52	N	1.426389	0.185163	0.462808
C53	C	0.645377	0.224492	0.026687
C54	C	1.145377	0.724492	0.526687
C55	C	0.563597	0.217854	0.025922
C56	C	1.063597	0.717854	0.525922
C57	C	0.532128	0.143102	0.017089
C58	C	1.032128	0.643102	0.517089
C59	C	0.582444	0.074983	0.009035
C60	C	1.082444	0.574983	0.509035
C61	C	0.664222	0.081621	0.009811
C62	C	1.164222	0.581621	0.509811
C63	C	0.288558	0.115588	0.013874
C64	C	0.788558	0.615588	0.513874
C65	C	0.206773	0.108954	0.013095
C66	C	0.706773	0.608954	0.513095
C67	C	0.187933	0.251826	0.029984
C68	C	0.687933	0.751826	0.529984
C69	C	0.269713	0.258458	0.030750
C70	C	0.769713	0.758458	0.530750
C71	C	0.320022	0.190339	0.022704
C72	C	0.820022	0.690339	0.522704
N73	N	0.448536	0.136315	0.016302
N74	N	0.948536	0.636315	0.516302
N75	N	0.403612	0.197127	0.023501
N76	N	0.903612	0.697127	0.523501
C77	C	1.069427	0.170009	0.020310
C78	C	1.569427	0.670009	0.520310
C79	C	1.156464	0.177068	0.021152
C80	C	1.656464	0.677068	0.521152
C81	C	0.920206	0.310910	0.036952
C82	C	1.420206	0.810910	0.536952
C83	C	0.921664	0.398776	0.047345
C84	C	1.421664	0.898776	0.547345
N85	N	0.926069	0.166717	0.366561
N86	N	1.426069	0.666717	0.866561
N87	N	0.926088	0.166723	-0.326767
N88	N	1.426088	0.666723	0.173233
C89	C	0.979444	0.116360	0.437266
C90	C	1.479444	0.616360	0.937266
C91	C	0.979451	0.116360	0.590603
C92	C	1.479451	0.616360	1.090603
C93	C	0.872708	0.217083	0.602517
C94	C	1.372708	0.717083	1.102517
C95	C	0.872697	0.217078	0.449182
C96	C	1.372697	0.717078	0.949182
H97	H	0.924273	-0.443746	-0.174868
H98	H	1.424273	0.056254	0.325132
O99	O	0.930529	-0.062124	0.268836
O100	O	1.430529	0.437876	0.768836
H101	H	0.984556	-0.028167	0.279218
H102	H	1.484556	0.471833	0.779218
O103	O	0.921604	-0.604520	0.322964
O104	O	1.421604	-0.104520	0.822964
H105	H	0.868445	-0.585032	0.388940
H106	H	1.368445	-0.085032	0.888940
H107	H	1.022902	0.075352	0.369999
H108	H	1.522902	0.575352	0.869999
H109	H	1.022912	0.075353	0.648166
H110	H	1.522912	0.575353	1.148166
H111	H	0.670992	0.285363	0.033879
H112	H	1.170992	0.785363	0.533879
O113	O	0.718488	0.008156	0.001131
O114	O	1.218488	0.508156	0.501131
H115	H	0.756201	0.007762	-0.098195
H116	H	1.256201	0.507762	0.401805
H117	H	0.522638	0.273320	0.032482
H118	H	1.022638	0.773320	0.532482
O119	O	0.303656	0.339084	0.040314
O120	O	0.803656	0.839084	0.540314
H121	H	0.254933	0.385334	0.045812
H122	H	0.754933	0.885334	0.545812
H123	H	0.924250	-0.443807	0.306956
H124	H	1.424250	0.056193	0.806956
H125	H	0.829230	0.258085	0.391611
H126	H	1.329230	0.758085	0.891611
H127	H	0.921797	-0.593516	-0.192658
H128	H	1.421797	-0.093516	0.307342
O129	O	0.927731	-0.233650	-0.303569
O130	O	1.427731	0.266350	0.196431
H131	H	0.926664	-0.297996	-0.288902
H132	H	1.426664	0.202004	0.211098
O133	O	0.133674	0.325296	0.038693
O134	O	0.633674	0.825296	0.538693
H135	H	0.071521	0.308125	0.036688
H136	H	0.571521	0.808125	0.536688
H137	H	0.181155	0.048079	0.005900
H138	H	0.681155	0.548079	0.505900
O139	O	0.815157	0.271411	0.691635
O140	O	1.315157	0.771411	1.191635
H141	H	0.754046	0.257439	0.660584
H142	H	1.254046	0.757439	1.160584
O143	O	0.548508	-0.005646	-0.000480
O144	O	1.048508	0.494354	0.499520
H145	H	0.511701	-0.012094	-0.100531
H146	H	1.011701	0.487906	0.399469
O147	O	0.930556	-0.062053	-0.283200
O148	O	1.430556	0.437947	0.216800
H149	H	0.931618	0.002287	-0.253257
H150	H	1.431618	0.502287	0.246743
O151	O	0.927704	-0.233729	0.248455
O152	O	1.427704	0.266271	0.748455
H153	H	0.928388	-0.191163	0.345840
H154	H	1.428388	0.308837	0.845840
H155	H	0.329510	0.060120	0.007323
H156	H	0.829510	0.560120	0.507323
