data_functionalizedCrystal
_audit_creation_method	'MofGen! by Chris Wilmer'
_symmetry_space_group_name_H-M	'P1'
_symmetry_Int_Tables_number	1
_symmetry_cell_setting	triclinic
loop_
_symmetry_equiv_pos_as_xyz
  x,y,z
_cell_length_a	16.120530
_cell_length_b	25.639239
_cell_length_c	25.639243
_cell_angle_alpha	90.006746
_cell_angle_beta	92.902187
_cell_angle_gamma	87.134054
loop_
_atom_site_label
_atom_site_type_symbol
_atom_site_fract_x
_atom_site_fract_y
_atom_site_fract_z
Zn1	Zn	1.274317	-0.248872	0.336092
Zn2	Zn	1.274212	-0.336269	0.248654
Zn3	Zn	1.134936	-0.244412	0.244243
Zn4	Zn	1.134831	-0.331834	0.331630
O5	O	1.204574	-0.290347	0.290155
O6	O	1.390966	-0.264187	0.328207
O7	O	1.255736	-0.324073	0.174903
O8	O	1.153512	-0.171841	0.256449
O9	O	1.390888	-0.328397	0.263966
O10	O	1.255915	-0.175118	0.323930
O11	O	1.153411	-0.256587	0.171663
O12	O	1.018259	-0.252287	0.252122
O13	O	1.153334	-0.320840	0.405387
O14	O	1.018182	-0.316516	0.316325
O15	O	1.255814	-0.259887	0.408666
O16	O	1.255635	-0.408843	0.259639
O17	O	1.153232	-0.405585	0.320601
C18	C	0.987971	-0.283437	0.283261
C19	C	0.895307	-0.280493	0.280324
C20	C	1.204433	-0.426185	0.290126
C21	C	1.204450	-0.484299	0.290134
C22	C	0.725650	-0.275106	0.274966
C23	C	0.684338	-0.305626	0.305381
C24	C	0.589935	-0.302629	0.302400
C25	C	0.820062	-0.278103	0.277947
C26	C	1.258034	-0.846355	0.258473
C27	C	1.258066	-0.900960	0.258481
O28	O	1.303480	-0.930631	0.231531
N29	N	1.204720	-0.926590	0.290194
C30	C	1.151345	-0.897613	0.321905
O31	O	1.105973	-0.924428	0.348881
C32	C	1.151317	-0.843009	0.321900
C33	C	1.204660	-0.817381	0.290180
C34	C	1.311373	-0.820727	0.226757
C35	C	1.311340	-0.766125	0.226748
C36	C	1.257966	-0.737151	0.258456
C37	C	1.204627	-0.762779	0.290172
C38	C	1.097946	-0.814032	0.353613
C39	C	1.097924	-0.759424	0.353605
C40	C	1.151267	-0.733797	0.321886
C41	C	1.151220	-0.679204	0.321871
N42	N	1.204566	-0.653574	0.290158
C43	C	1.257939	-0.682547	0.258450
C44	C	1.151407	-1.012285	0.321915
C45	C	1.151430	-1.066888	0.321918
C46	C	1.258153	-1.070232	0.258495
C47	C	1.258125	-1.015628	0.258489
C48	C	1.204753	-0.986655	0.290202
C49	C	1.257864	-0.567880	0.258434
C50	C	1.257823	-0.513273	0.258427
C51	C	1.151104	-0.509935	0.321852
C52	C	1.151141	-0.564536	0.321858
C53	C	1.204528	-0.593508	0.290147
O54	O	1.105832	-0.649499	0.348809
O55	O	1.303310	-0.655726	0.231484
C56	C	1.422022	-0.297284	0.297076
C57	C	1.514686	-0.300241	0.300025
C58	C	1.204574	-0.290366	0.426528
C59	C	1.204574	-0.290374	0.484642
C60	C	1.204737	-0.153979	0.290195
C61	C	1.204807	-0.095867	0.290213
C62	C	1.257932	-0.258613	0.846718
C63	C	1.257932	-0.258610	0.901322
O64	O	1.303286	-0.231608	0.931014
N65	N	1.204580	-0.290345	0.926925
C66	C	1.151218	-0.322081	0.897920
O67	O	1.105837	-0.349074	0.924711
C68	C	1.151215	-0.322081	0.843316
C69	C	1.204577	-0.290348	0.817717
C70	C	1.311289	-0.226882	0.821118
C71	C	1.311291	-0.226885	0.766517
C72	C	1.257935	-0.258620	0.737517
C73	C	1.204578	-0.290352	0.763116
C74	C	1.097850	-0.353814	0.814312
C75	C	1.097851	-0.353811	0.759705
C76	C	1.151213	-0.322078	0.734106
C77	C	1.151224	-0.322090	0.679515
N78	N	1.204576	-0.290355	0.653912
C79	C	1.257932	-0.258620	0.682913
C80	C	1.151228	-0.322078	1.012591
C81	C	1.151235	-0.322081	1.067193
C82	C	1.257948	-0.258609	1.070592
C83	C	1.257945	-0.258609	1.015988
C84	C	1.204580	-0.290343	0.986988
C85	C	1.257931	-0.258631	0.568248
C86	C	1.257930	-0.258639	0.513643
C87	C	1.151214	-0.322109	0.510249
C88	C	1.151218	-0.322103	0.564850
C89	C	1.204579	-0.290360	0.593848
O90	O	1.105890	-0.349077	0.649788
O91	O	1.303297	-0.231627	0.656115
C92	C	1.204572	-0.290342	1.154312
C93	C	1.204588	-0.290344	1.096199
H94	H	0.719868	-0.334004	0.333660
O95	O	0.683142	-0.241299	0.241244
C96	C	0.596984	-0.245793	0.245746
H97	H	0.585169	-0.285803	0.262434
H98	H	0.563800	-0.241152	0.205563
H99	H	0.572313	-0.214059	0.272879
H100	H	1.107791	-0.347928	1.088032
O101	O	1.309723	-0.488463	0.227600
C102	C	1.356824	-0.525749	0.199609
H103	H	1.359704	-0.564755	0.221125
H104	H	1.422508	-0.512025	0.196153
H105	H	1.326350	-0.530617	0.158915
H106	H	1.301338	-0.591462	0.232614
O107	O	1.363162	-0.196125	0.849345
C108	C	1.416994	-0.227608	0.882627
H109	H	1.387544	-0.266289	0.889873
H110	H	1.428203	-0.206664	0.921380
H111	H	1.478762	-0.235326	0.863543
O112	O	1.363245	-0.741318	0.195928
C113	C	1.410343	-0.778609	0.167940
H114	H	1.413207	-0.817615	0.189456
H115	H	1.476032	-0.764892	0.164490
H116	H	1.379875	-0.783473	0.127244
H117	H	1.354742	-0.201044	0.745679
H118	H	1.301395	-0.232768	0.995149
O119	O	1.363360	-0.848877	0.196048
C120	C	1.417178	-0.882125	0.227576
H121	H	1.422192	-0.865825	0.268922
H122	H	1.481385	-0.884713	0.210773
H123	H	1.391477	-0.922719	0.228526
H124	H	1.301615	-1.093832	0.232679
H125	H	1.107985	-1.087750	0.347742
H126	H	1.301562	-0.994765	0.232661
H127	H	1.107938	-0.988698	0.347738
H128	H	1.107645	-0.486336	0.347666
O129	O	1.309853	-0.227763	1.098690
C130	C	1.356934	-0.199740	1.064390
H131	H	1.359804	-0.221245	1.025555
H132	H	1.422622	-0.196255	1.082263
H133	H	1.326448	-0.159059	1.057617
H134	H	1.301380	-0.232781	0.591852
O135	O	1.046104	-0.838837	0.384476
C136	C	0.998987	-0.801544	0.412449
H137	H	1.033118	-0.763688	0.415349
H138	H	0.990054	-0.817024	0.453359
H139	H	0.935689	-0.793764	0.391258
O140	O	1.046195	-0.731260	0.384470
C141	C	1.093598	-0.701136	0.419759
H142	H	1.159265	-0.719639	0.425111
H143	H	1.063397	-0.699566	0.459020
H144	H	1.096463	-0.659847	0.403681
O145	O	1.309793	-0.227763	0.488858
C146	C	1.356896	-0.199761	0.526168
H147	H	1.322747	-0.196861	0.564003
H148	H	1.365840	-0.158852	0.510681
H149	H	1.420190	-0.220926	0.533991
O150	O	1.099295	-0.589353	0.352715
C151	C	1.052163	-0.552067	0.380687
H152	H	1.086280	-0.514206	0.383590
H153	H	1.043232	-0.567550	0.421597
H154	H	0.988865	-0.544295	0.359495
O155	O	1.099371	-0.352963	0.984502
C156	C	1.052275	-0.380962	1.018813
H157	H	1.086426	-0.383853	1.058822
H158	H	1.043339	-0.421875	1.002755
H159	H	0.988979	-0.359800	1.022609
O160	O	1.046133	-0.384704	0.839194
C161	C	1.093547	-0.419984	0.872291
H162	H	1.159209	-0.425304	0.857933
H163	H	1.063348	-0.459258	0.871931
H164	H	1.096424	-0.403921	0.913772
H165	H	1.054385	-0.379647	0.736096
H166	H	1.107774	-0.347948	0.585694
O167	O	1.099507	-0.352964	0.482013
C168	C	1.146941	-0.388251	0.451945
H169	H	1.210146	-0.371828	0.445791
H170	H	1.112987	-0.394167	0.412460
H171	H	1.156044	-0.427292	0.473268
