data_functionalizedCrystal
_audit_creation_method	'MofGen! by Chris Wilmer'
_symmetry_space_group_name_H-M	'P1'
_symmetry_Int_Tables_number	1
_symmetry_cell_setting	triclinic
loop_
_symmetry_equiv_pos_as_xyz
  x,y,z
_cell_length_a	19.851628
_cell_length_b	17.052862
_cell_length_c	17.052862
_cell_angle_alpha	61.493325
_cell_angle_beta	89.998666
_cell_angle_gamma	70.267988
loop_
_atom_site_label
_atom_site_type_symbol
_atom_site_fract_x
_atom_site_fract_y
_atom_site_fract_z
Zr1	Zr	0.780686	0.816776	-0.200521
O2	O	0.706297	0.944662	-0.328643
O3	O	0.787111	0.666056	-0.146331
O4	O	0.823207	0.783863	-0.307146
O5	O	0.660360	0.860780	-0.057939
O6	O	0.934058	0.783876	-0.307154
O7	O	0.670201	0.826855	-0.167828
O8	O	0.869490	0.573140	-0.019485
O9	O	0.724927	1.071516	-0.345609
O10	O	0.892367	0.736516	-0.141244
O11	O	0.802295	0.761825	-0.059229
O12	O	0.844793	0.900528	-0.248569
O13	O	0.754721	0.925837	-0.166554
Zr14	Zr	0.941784	0.870905	-0.025275
Zr15	Zr	0.957481	0.816797	-0.200534
Zr16	Zr	0.764989	0.870884	-0.025262
Zr17	Zr	0.810400	1.019094	-0.227579
Zr18	Zr	0.912070	0.668587	0.001783
O19	O	0.935359	1.021626	-0.079465
O20	O	0.957677	0.944692	-0.328662
O21	O	0.683978	1.021596	-0.079447
O22	O	1.016173	0.743019	0.102848
O23	O	1.038492	0.666085	-0.146349
O24	O	0.764793	0.742990	0.102866
O25	O	1.062110	0.826901	-0.167856
O26	O	0.899263	0.903818	0.081350
O27	O	0.788412	0.903805	0.081358
O28	O	1.052269	0.860826	-0.057968
O29	O	0.865456	1.071533	-0.345619
O30	O	0.857014	0.616149	0.119823
O31	O	0.997543	0.616165	0.119813
O32	O	1.010019	0.573157	-0.019495
O33	O	0.712451	1.114524	-0.206301
O34	O	0.852980	1.114541	-0.206311
O35	O	0.877677	0.787153	0.022773
O36	O	0.967750	0.761845	-0.059241
O37	O	0.920175	0.925856	-0.166566
O38	O	0.830103	0.951165	-0.084552
C39	C	0.824067	0.590772	-0.079052
C40	C	0.811453	0.504883	-0.067566
C41	C	0.963961	0.209937	-0.206442
C42	C	0.975812	0.290637	-0.217240
C43	C	0.934723	0.344202	-0.179822
C44	C	0.881782	0.317060	-0.131604
C45	C	0.869926	0.236356	-0.120811
C46	C	0.840688	0.370621	-0.094191
C47	C	0.787747	0.343479	-0.045973
C48	C	0.775894	0.262783	-0.035182
C49	C	0.816982	0.209218	-0.072599
C50	C	0.852544	0.451325	-0.104985
C51	C	0.758509	0.477745	-0.019354
C52	C	0.746658	0.397045	-0.008556
C53	C	0.640091	0.843815	-0.112882
C54	C	0.565037	0.843806	-0.112876
C55	C	0.409615	0.754401	-0.054372
C56	C	0.346842	0.816009	-0.028861
C57	C	0.427610	0.843831	-0.112890
C58	C	0.356645	0.782225	-0.138372
C59	C	0.294865	0.843848	-0.112903
C60	C	0.365822	0.905453	-0.087335
C61	C	0.375637	0.871641	-0.196887
C62	C	0.312864	0.933318	-0.171406
C63	C	0.504082	0.843819	-0.112881
C64	C	0.218392	0.843868	-0.112912
C65	C	1.082379	0.843867	-0.112914
C66	C	1.157433	0.843875	-0.112919
C67	C	0.880869	0.776160	-0.332121
C68	C	0.887532	0.753190	-0.406523
C69	C	0.898403	1.096909	-0.146743
C70	C	0.911017	1.182798	-0.158230
C71	C	0.806971	1.030899	-0.840346
C72	C	0.800706	1.052484	-0.770443
C73	C	0.822412	0.977662	-0.679461
C74	C	0.850384	0.881252	-0.658386
C75	C	0.856645	0.859666	-0.728295
C76	C	0.872086	0.806429	-0.567410
C77	C	0.900058	0.710019	-0.546335
C78	C	0.906317	0.688436	-0.616239
C79	C	0.884611	0.763258	-0.707222
C80	C	0.865825	0.828016	-0.497500
C81	C	0.915499	0.656782	-0.385450
C82	C	0.921764	0.635198	-0.455352
C83	C	0.841601	0.911521	0.106325
C84	C	0.834938	0.934491	0.180727
C85	C	1.045211	0.590798	-0.079069
C86	C	1.107651	0.504918	-0.067587
C87	C	0.804433	0.658452	0.140171
C88	C	0.785156	0.595533	0.226060
C89	C	1.025578	0.658478	0.140154
C90	C	1.081354	0.595568	0.226038
C91	C	0.696893	1.029203	-0.365950
C92	C	0.641116	1.092113	-0.451834
C93	C	0.677259	1.096883	-0.146727
C94	C	0.614819	1.182764	-0.158209
C95	C	0.918037	1.029229	-0.365966
C96	C	0.937314	1.092148	-0.451855
C97	C	1.097625	0.451364	-0.105007
C98	C	1.156291	0.370676	-0.094237
C99	C	1.224980	0.343540	-0.046041
C100	C	1.235005	0.397102	-0.008621
C101	C	1.176342	0.477792	-0.019397
C102	C	0.815451	0.579209	0.309206
C103	C	0.797335	0.520103	0.389913
C104	C	0.748928	0.477317	0.387473
C105	C	0.718630	0.493647	0.304317
C106	C	0.736741	0.552757	0.223611
C107	C	1.154571	0.552814	0.223559
C108	C	1.206988	0.493712	0.304248
C109	C	1.186185	0.477360	0.387415
C110	C	1.112961	0.520122	0.389891
C111	C	1.060546	0.579228	0.309203
C112	C	0.567900	1.134877	-0.449356
C113	C	0.515487	1.194004	-0.530048
C114	C	0.536291	1.210360	-0.613216
C115	C	0.609514	1.167593	-0.615691
C116	C	0.661926	1.108473	-0.535001
C117	C	0.624846	1.236323	-0.120797
C118	C	0.566186	1.317027	-0.131589
C119	C	0.497498	1.344166	-0.179788
C120	C	0.487472	1.290601	-0.217205
C121	C	0.546132	1.209903	-0.206417
C122	C	0.985724	1.134917	-0.449385
C123	C	1.003851	1.194027	-0.530079
C124	C	0.973565	1.210373	-0.613243
C125	C	0.925153	1.167597	-0.615710
C126	C	0.907030	1.108482	-0.535016
H127	H	0.997407	0.166324	-0.236909
H128	H	1.228872	0.429230	0.453110
F129	F	0.739848	1.062959	-0.537651
F130	F	0.435071	1.430055	-0.191260
H131	H	1.096033	0.506799	0.457617
F132	F	0.690318	0.368145	0.042764
H133	H	1.000930	0.614032	0.311234
H134	H	0.843049	0.906514	-0.514668
F135	F	0.697946	1.207459	-0.069499
F136	F	0.992858	1.273294	-0.699118
H137	H	0.734186	0.429188	0.453195
H138	H	0.431538	1.312710	-0.256448
F139	F	1.176728	0.570209	0.135054
F140	F	1.032151	0.319520	-0.268559
F141	F	0.480500	1.273283	-0.699087
F142	F	0.667112	0.448102	0.301734
F143	F	0.437561	1.239507	-0.527394
F144	F	0.631644	1.185007	-0.704213
H145	H	1.043269	1.228852	-0.528053
F146	F	0.891278	0.740290	-0.781625
F147	F	0.855501	1.062977	-0.537660
H148	H	0.895649	0.473417	-0.144245
F149	F	0.464021	0.655587	0.010371
H150	H	0.944375	0.409911	-0.188617
F151	F	0.704496	0.570118	0.135124
H152	H	0.574363	1.360629	-0.101115
H153	H	1.148114	0.327075	-0.124711
H154	H	0.929087	0.609933	-0.599073
H155	H	0.537957	1.166296	-0.236881
F156	F	1.017966	1.117532	-0.360885
F157	F	0.545743	1.117480	-0.360851
F158	F	1.284914	0.448208	0.301594
F159	F	0.892920	1.185010	-0.704228
H160	H	0.817309	0.995242	-0.622546
F161	F	0.719541	0.233907	0.016126
F162	F	0.804373	0.123323	-0.061102
F163	F	0.866974	0.624733	0.311824
H164	H	0.725050	0.521360	0.011112
H165	H	0.944538	0.556700	-0.438205
H166	H	1.272741	0.277834	-0.037273
H167	H	0.789296	1.091808	-0.914425
F168	F	0.329956	0.785292	0.063979
H169	H	0.271340	1.009007	-0.220896
F170	F	0.392556	0.902319	-0.289703
F171	F	0.371758	0.973522	-0.059065
F172	F	1.024527	0.480230	-0.156308
F173	F	0.350607	0.714122	-0.166537
F174	F	0.770917	1.155086	-0.792876
H175	H	1.290940	0.374995	0.030620
H176	H	0.933171	0.595857	-0.311368
F177	F	1.187022	0.534777	0.020441
H178	H	0.822014	0.506816	0.457613
