data_functionalizedCrystal
_audit_creation_method	'MofGen! by Chris Wilmer'
_symmetry_space_group_name_H-M	'P1'
_symmetry_Int_Tables_number	1
_symmetry_cell_setting	triclinic
loop_
_symmetry_equiv_pos_as_xyz
  x,y,z
_cell_length_a	11.026607
_cell_length_b	17.699083
_cell_length_c	16.776229
_cell_angle_alpha	89.992455
_cell_angle_beta	90.005981
_cell_angle_gamma	84.065484
loop_
_atom_site_label
_atom_site_type_symbol
_atom_site_fract_x
_atom_site_fract_y
_atom_site_fract_z
O1	O	1.609234	-0.316812	0.066299
O2	O	1.256034	-0.280737	0.066298
O3	O	1.442612	-0.189956	0.066291
O4	O	1.422655	-0.407592	0.066306
O5	O	1.442588	-0.189945	-0.066285
O6	O	1.256009	-0.280726	-0.066278
O7	O	1.609209	-0.316801	-0.066278
Zn8	Zn	1.432605	-0.298762	-0.087327
Zn9	Zn	1.432638	-0.298776	0.087348
O10	O	1.422630	-0.407582	-0.066271
C11	C	1.210830	-0.274076	0.000010
C12	C	1.076175	-0.254237	0.000010
C13	C	1.441885	-0.161655	0.000003
C14	C	1.439740	-0.077343	0.000003
N15	N	1.432592	-0.298753	-0.206539
C16	C	1.002207	-0.309017	0.000014
C17	C	0.863034	-0.288513	0.000014
C18	C	1.654412	-0.323461	0.000012
C19	C	1.789068	-0.343301	0.000018
C20	C	1.423358	-0.435882	0.000019
C21	C	1.425503	-0.520195	0.000025
C22	C	1.549257	-0.043769	0.000002
C23	C	1.547234	0.035453	0.000009
C24	C	1.435692	0.081099	0.000011
C25	C	1.326166	0.047520	0.000015
C26	C	1.328190	-0.031700	0.000013
C27	C	1.318000	0.367005	0.000021
C28	C	1.315984	0.446230	0.000020
C29	C	1.537044	0.434158	0.000017
C30	C	1.539068	0.354938	0.000015
C31	C	1.429543	0.321366	0.000023
C32	C	1.431738	0.235465	0.000017
C33	C	1.433496	0.166998	0.000012
C34	C	1.515234	-0.258580	-0.248259
C35	C	1.515240	-0.258580	-0.331711
C36	C	1.432610	-0.298759	-0.373441
C37	C	1.349959	-0.338933	-0.331715
C38	C	1.349947	-0.338928	-0.248265
C39	C	1.350003	-0.338954	-0.668263
C40	C	1.350023	-0.338958	-0.751719
C41	C	1.515296	-0.258606	-0.751709
C42	C	1.515284	-0.258601	-0.668258
C43	C	1.432630	-0.298772	-0.626539
C44	C	1.432622	-0.298770	-0.536051
C45	C	1.432623	-0.298765	-0.463928
N46	N	1.432661	-0.298780	0.206559
H47	H	1.041916	-0.371095	0.000013
C48	C	0.809402	-0.204642	0.000008
N49	N	0.769004	-0.141471	0.000005
C50	C	1.203468	0.097733	0.000011
N51	N	1.111050	0.135553	0.000002
H52	H	1.036466	-0.192158	0.000026
H53	H	1.640088	-0.080929	-0.000005
C54	C	1.606181	-0.214400	-0.622359
N55	N	1.674643	-0.181103	-0.587789
H56	H	1.225148	0.483393	0.000020
C57	C	1.606135	-0.214379	-0.202363
N58	N	1.674601	-0.181083	-0.167796
C59	C	1.606125	-0.214365	-0.377599
N60	N	1.674571	-0.181051	-0.412162
C61	C	0.842697	-0.427173	0.000024
N62	N	0.883092	-0.490344	0.000030
H63	H	1.629897	0.317776	0.000009
C64	C	1.667713	0.072380	-0.000005
N65	N	1.758463	0.100193	-0.000020
H66	H	1.626225	0.461501	0.000014
C67	C	1.197518	0.330086	0.000034
N68	N	1.106765	0.302276	0.000046
H69	H	1.239010	-0.059035	0.000014
C70	C	1.606208	-0.214409	-0.797607
N71	N	1.674682	-0.181121	-0.832176
H72	H	1.282731	-0.371677	-0.785695
C73	C	1.259237	-0.383263	-0.622383
N74	N	1.190925	-0.416681	-0.587824
C75	C	1.259053	-0.383121	-0.377622
N76	N	1.190580	-0.416404	-0.412198
H77	H	1.282650	-0.371640	-0.214297
