data_functionalizedCrystal
_audit_creation_method	'MofGen! by Chris Wilmer'
_symmetry_space_group_name_H-M	'P1'
_symmetry_Int_Tables_number	1
_symmetry_cell_setting	triclinic
loop_
_symmetry_equiv_pos_as_xyz
  x,y,z
_cell_length_a	19.288840
_cell_length_b	17.699083
_cell_length_c	18.366186
_cell_angle_alpha	89.992864
_cell_angle_beta	89.983729
_cell_angle_gamma	83.204515
loop_
_atom_site_label
_atom_site_type_symbol
_atom_site_fract_x
_atom_site_fract_y
_atom_site_fract_z
O1	O	0.921475	0.094327	-0.060673
O2	O	0.719228	0.107083	-0.060648
O3	O	0.826065	-0.009493	-0.060654
O4	O	0.814637	0.210903	-0.060666
O5	O	0.826047	-0.009498	0.060445
O6	O	0.719209	0.107078	0.060452
O7	O	0.921457	0.094321	0.060427
Zn8	Zn	0.820330	0.100699	0.079666
Zn9	Zn	0.820354	0.100706	-0.079887
O10	O	0.814619	0.210897	0.060433
C11	C	0.693341	0.106673	-0.000095
C12	C	0.616235	0.105451	-0.000085
C13	C	0.580041	0.104866	-0.066098
C14	C	0.507593	0.103709	-0.066107
C15	C	0.471343	0.103121	-0.000099
C16	C	0.507546	0.103710	0.065923
C17	C	0.579992	0.104874	0.065930
C18	C	0.361953	0.056941	0.050465
C19	C	0.289509	0.055772	0.050455
C20	C	0.247895	0.099531	-0.000118
C21	C	0.278736	0.144451	-0.050693
C22	C	0.351182	0.145616	-0.050686
C23	C	0.392788	0.101858	-0.000099
C24	C	0.133144	0.097693	-0.066145
C25	C	0.060694	0.096541	-0.066151
C26	C	0.060650	0.096534	0.065881
C27	C	0.133098	0.097694	0.065885
C28	C	0.169341	0.098270	-0.000130
C29	C	0.825647	-0.037692	-0.000105
C30	C	0.824418	-0.121708	-0.000104
C31	C	0.887130	-0.170423	-0.000111
C32	C	0.885972	-0.249365	-0.000117
C33	C	0.822101	-0.279590	-0.000112
C34	C	0.759384	-0.230868	-0.000107
C35	C	0.760544	-0.151928	-0.000106
C36	C	0.754708	-0.549224	-0.000112
C37	C	0.753554	-0.628170	-0.000111
C38	C	0.880136	-0.646661	-0.000124
C39	C	0.881296	-0.567721	-0.000123
C40	C	0.818580	-0.519006	-0.000122
C41	C	0.819836	-0.433409	-0.000116
C42	C	0.820843	-0.365185	-0.000112
C43	C	0.947344	0.094731	-0.000128
C44	C	1.024450	0.095954	-0.000142
C45	C	0.815038	0.239096	-0.000118
C46	C	0.816266	0.323113	-0.000123
N47	N	0.820319	0.100693	0.188557
N48	N	0.820371	0.100706	-0.188778
C49	C	0.867643	0.049098	0.226655
C50	C	0.867647	0.049095	0.302883
C51	C	0.820335	0.100699	0.341010
C52	C	0.773002	0.152298	0.302904
C53	C	0.772995	0.152295	0.226677
C54	C	0.811118	0.169662	0.461768
C55	C	0.811131	0.169666	0.537993
C56	C	0.820354	0.100709	0.576118
C57	C	0.829580	0.031744	0.538009
C58	C	0.829573	0.031741	0.461782
C59	C	0.820337	0.100708	0.423665
C60	C	0.867685	0.049106	0.696870
C61	C	0.867685	0.049102	0.773099
C62	C	0.773043	0.152311	0.773119
C63	C	0.773041	0.152309	0.696891
C64	C	0.820365	0.100707	0.658771
H65	H	0.478117	0.103235	-0.119864
C66	C	0.333263	0.233166	-0.150660
C67	C	0.385081	0.194998	-0.106267
H68	H	0.354192	0.263657	-0.184969
H69	H	0.309364	0.197069	-0.175706
H70	H	0.301097	0.264666	-0.121411
H71	H	0.417244	0.163493	-0.135516
H72	H	0.408991	0.231098	-0.081219
C73	C	0.961989	0.032081	0.140613
C74	C	0.919431	-0.007751	0.184623
H75	H	0.993895	-0.003055	0.114628
H76	H	0.933791	0.062930	0.107119
H77	H	0.987150	0.063374	0.170248
H78	H	0.894265	-0.039040	0.154987
H79	H	0.947632	-0.038613	0.218120
H80	H	0.244854	0.180087	-0.091872
H81	H	0.837083	-0.024412	0.430757
H82	H	0.703641	-0.509570	-0.000112
C83	C	0.125912	0.097604	-0.196652
C84	C	0.172986	0.098346	-0.138706
H85	H	0.150508	0.098014	-0.241447
H86	H	0.103036	0.053024	-0.193914
H87	H	0.092273	0.141278	-0.193899
H88	H	0.206622	0.054668	-0.141457
H89	H	0.195874	0.142931	-0.141445
C90	C	-0.028669	0.160286	-0.142766
C91	C	0.020908	0.095902	-0.138720
H92	H	-0.053228	0.159892	-0.187571
H93	H	-0.060623	0.159770	-0.103461
H94	H	-0.005776	0.204860	-0.140023
H95	H	-0.001986	0.051328	-0.141458
H96	H	0.052866	0.096411	-0.178036
C97	C	0.634375	-0.204656	-0.000105
C98	C	0.689175	-0.264088	-0.000106
H99	H	0.591031	-0.225165	-0.000108
H100	H	0.637451	-0.174258	0.042123
H101	H	0.637475	-0.174245	-0.042338
H102	H	0.686078	-0.294496	0.042130
H103	H	0.686098	-0.294499	-0.042338
C104	C	0.688422	-0.052420	-0.062353
C105	C	0.691609	-0.098377	-0.000099
H106	H	0.645861	-0.019365	-0.062352
H107	H	0.726622	-0.023127	-0.062351
H108	H	0.690609	-0.083605	-0.104577
H109	H	0.689427	-0.067192	0.042126
H110	H	0.653398	-0.127673	-0.000094
C111	C	0.125775	0.097561	0.196387
C112	C	0.172889	0.098324	0.138450
H113	H	0.150343	0.097947	0.241187
H114	H	0.092144	0.141232	0.193639
H115	H	0.102897	0.052977	0.193634
H116	H	0.195764	0.142911	0.141200
H117	H	0.206533	0.054649	0.141200
H118	H	0.264406	0.019192	0.091633
H119	H	0.701540	-0.652776	-0.000105
H120	H	0.931203	-0.686334	-0.000128
H121	H	0.906218	0.007087	0.665832
H122	H	0.395830	0.021305	0.091651
C123	C	0.961199	-0.052919	0.295215
C124	C	0.919666	-0.007624	0.344771
H125	H	0.993314	-0.087932	0.321075
H126	H	0.932334	-0.080062	0.265500
H127	H	0.986126	-0.021479	0.265468
H128	H	0.894735	-0.039064	0.374515
H129	H	0.948535	0.019521	0.374498
C130	C	0.493137	0.038295	0.178460
C131	C	0.467706	0.103061	0.138482
H132	H	0.468544	0.037901	0.223258
H133	H	0.486649	-0.006015	0.151338
H134	H	0.541464	0.039082	0.187905
H135	H	0.419380	0.102271	0.129032
H136	H	0.474188	0.147382	0.165609
H137	H	0.906219	0.007083	0.804119
C138	C	0.669364	0.041128	0.142531
C139	C	0.619784	0.105510	0.138496
H140	H	0.693933	0.041523	0.187329
H141	H	0.646477	-0.003442	0.139790
H142	H	0.701315	0.041650	0.103215
H143	H	0.587830	0.104985	0.177809
H144	H	0.642672	0.150092	0.141244
H145	H	0.939141	-0.145821	-0.000111
C146	C	1.011212	-0.259713	-0.000111
C147	C	0.954907	-0.302913	-0.000116
H148	H	1.053771	-0.292773	-0.000106
H149	H	1.009043	-0.228537	-0.042338
H150	H	1.009013	-0.228541	0.042122
H151	H	0.957102	-0.334081	-0.042353
H152	H	0.957077	-0.334103	0.042115
H153	H	0.734479	0.194314	0.333951
H154	H	0.031136	0.096059	0.119626
H155	H	0.837091	-0.024408	0.569048
H156	H	0.933306	-0.543117	-0.000124
H157	H	0.734518	0.194325	0.804162
C158	C	0.678483	0.169010	0.611202
C159	C	0.721030	0.209033	0.655008
H160	H	0.646370	0.204032	0.585349
H161	H	0.706660	0.138282	0.577593
H162	H	0.653554	0.137582	0.640961
H163	H	0.745962	0.240456	0.625249
H164	H	0.692848	0.239773	0.688621
C165	C	0.572803	0.104752	-0.196605
C166	C	0.619878	0.105508	-0.138661
H167	H	0.597398	0.105153	-0.241401
H168	H	0.549927	0.060173	-0.193858
H169	H	0.539164	0.148428	-0.193859
H170	H	0.653514	0.061829	-0.141404
H171	H	0.642765	0.150091	-0.141410
C172	C	0.736338	0.285417	0.561472
C173	C	0.800987	0.245471	0.579876
H174	H	0.730075	0.332215	0.587331
H175	H	0.735017	0.295278	0.510624
H176	H	0.700077	0.255850	0.573991
H177	H	0.837248	0.275035	0.567352
H178	H	0.802314	0.235612	0.630735
C179	C	0.854470	0.289008	0.438253
C180	C	0.800988	0.245464	0.419859
H181	H	0.848219	0.335799	0.412375
H182	H	0.853147	0.298882	0.489096
H183	H	0.898314	0.261874	0.425749
H184	H	0.757144	0.272595	0.432368
H185	H	0.802305	0.235591	0.369004
C186	C	0.679449	0.254313	0.234355
C187	C	0.720978	0.209017	0.184796
H188	H	0.647340	0.289335	0.208496
H189	H	0.654521	0.222880	0.264096
H190	H	0.708322	0.281453	0.264074
H191	H	0.692105	0.181872	0.155080
H192	H	0.745908	0.240454	0.155042
