data_functionalizedCrystal
_audit_creation_method	'MofGen! by Chris Wilmer'
_symmetry_space_group_name_H-M	'P1'
_symmetry_Int_Tables_number	1
_symmetry_cell_setting	triclinic
loop_
_symmetry_equiv_pos_as_xyz
  x,y,z
_cell_length_a	19.077236
_cell_length_b	19.076808
_cell_length_c	19.076919
_cell_angle_alpha	90.121640
_cell_angle_beta	90.112677
_cell_angle_gamma	94.519737
loop_
_atom_site_label
_atom_site_type_symbol
_atom_site_fract_x
_atom_site_fract_y
_atom_site_fract_z
Zn1	Zn	1.048453	-0.255469	0.429870
Zn2	Zn	1.548453	0.244531	0.929870
Zn3	Zn	1.048749	-0.368252	0.307652
Zn4	Zn	1.548749	0.131748	0.807652
Zn5	Zn	0.935682	-0.255100	0.307665
Zn6	Zn	1.435682	0.244900	0.807665
Zn7	Zn	0.926207	-0.377641	0.419997
Zn8	Zn	1.426207	0.122359	0.919997
O9	O	0.989773	-0.314115	0.366296
O10	O	1.489773	0.185885	0.866296
O11	O	1.146971	-0.266655	0.417783
O12	O	1.646971	0.233345	0.917783
O13	O	1.037840	-0.349158	0.209493
O14	O	1.537840	0.150842	0.709493
O15	O	0.954483	-0.156664	0.328013
O16	O	1.454483	0.343336	0.828013
O17	O	1.147189	-0.349516	0.327990
O18	O	1.647189	0.150484	0.827990
O19	O	1.037335	-0.156935	0.417796
O20	O	1.537335	0.343065	0.917796
O21	O	0.954771	-0.266026	0.209503
O22	O	1.454771	0.233974	0.709503
O23	O	0.835946	-0.275130	0.318440
O24	O	1.335946	0.224870	0.818440
O25	O	0.938333	-0.365518	0.519467
O26	O	1.438333	0.134482	1.019467
O27	O	0.828985	-0.365160	0.400970
O28	O	1.328985	0.134840	0.900970
O29	O	1.028147	-0.275759	0.526720
O30	O	1.528147	0.224241	1.026720
O31	O	1.028652	-0.467982	0.318417
O32	O	1.528652	0.032018	0.818417
O33	O	0.938621	-0.474880	0.400957
O34	O	1.438621	0.025120	0.900957
C35	C	0.806931	-0.321124	0.358636
C36	C	1.306931	0.178876	0.858636
C37	C	0.728709	-0.324141	0.355375
C38	C	1.228709	0.175859	0.855375
C39	C	0.691842	-0.282491	0.400659
C40	C	1.191842	0.217509	0.900659
C41	C	0.618344	-0.285321	0.397589
C42	C	1.118344	0.214679	0.897589
C43	C	0.581715	-0.329806	0.349238
C44	C	1.081715	0.170194	0.849238
C45	C	0.618588	-0.371457	0.303949
C46	C	1.118588	0.128543	0.803949
C47	C	0.692084	-0.368623	0.307016
C48	C	1.192084	0.131377	0.807016
C49	C	0.361918	-0.342898	0.335042
C50	C	0.861918	0.157102	0.835042
C51	C	0.288416	-0.345731	0.331979
C52	C	0.788416	0.154269	0.831979
C53	C	0.288178	-0.259593	0.425619
C54	C	0.788178	0.240407	0.925619
C55	C	0.361676	-0.256766	0.428684
C56	C	0.861676	0.243234	0.928684
C57	C	0.398542	-0.298415	0.383393
C58	C	0.898542	0.201585	0.883393
N59	N	0.506589	-0.332702	0.346100
N60	N	1.006589	0.167298	0.846100
N61	N	0.473667	-0.295515	0.386528
N62	N	0.973667	0.204485	0.886528
C63	C	0.982659	-0.496966	0.358631
C64	C	1.482659	0.003034	0.858631
C65	C	0.979679	-0.575189	0.355377
C66	C	1.479679	-0.075189	0.855377
C67	C	1.021380	-0.612022	0.400629
C68	C	1.521380	-0.112022	0.900629
C69	C	1.018577	-0.685521	0.397574
C70	C	1.518577	-0.185521	0.897574
C71	C	0.974076	-0.722186	0.349263
C72	C	1.474076	-0.222186	0.849263
C73	C	0.932370	-0.685348	0.304009
C74	C	1.432370	-0.185348	0.804009
C75	C	0.935170	-0.611851	0.307068
C76	C	1.435170	-0.111851	0.807068
C77	C	0.961078	-0.941990	0.335099
C78	C	1.461078	-0.441990	0.835099
C79	C	0.958283	-1.015493	0.332042
C80	C	1.458283	-0.515493	0.832042
C81	C	1.044489	-1.015661	0.425608
C82	C	1.544489	-0.515661	0.925608
C83	C	1.047288	-0.942162	0.428660
C84	C	1.547288	-0.442162	0.928660
C85	C	1.005579	-0.905331	0.383409
C86	C	1.505579	-0.405331	0.883409
N87	N	0.971212	-0.797313	0.346137
N88	N	1.471212	-0.297313	0.846137
N89	N	1.008441	-0.830205	0.386539
N90	N	1.508441	-0.330205	0.886539
C91	C	1.173328	-0.307079	0.373986
C92	C	1.673328	0.192921	0.873986
C93	C	1.251549	-0.304081	0.377263
C94	C	1.751549	0.195919	0.877263
C95	C	0.982150	-0.321727	0.549257
C96	C	1.482150	0.178273	1.049257
C97	C	0.978902	-0.324971	0.627224
C98	C	1.478902	0.175029	1.127224
C99	C	0.996933	-0.130550	0.374007
C100	C	1.496933	0.369450	0.874007
C101	C	0.999984	-0.052326	0.377294
C102	C	1.499984	0.447674	0.877294
C103	C	0.997408	-0.306481	0.184050
C104	C	1.497408	0.193519	0.684050
C105	C	1.000801	-0.303034	0.106097
C106	C	1.500801	0.196966	0.606097
C107	C	1.024134	-0.279764	0.667631
C108	C	1.524134	0.220236	1.167631
C109	C	1.021074	-0.282809	0.740889
C110	C	1.521074	0.217191	1.240889
C111	C	0.972783	-0.331065	0.773740
C112	C	1.472783	0.168935	1.273740
C113	C	0.927546	-0.376274	0.733328
C114	C	1.427546	0.123726	1.233328
C115	C	0.930604	-0.373225	0.660071
C116	C	1.430604	0.126775	1.160071
C117	C	0.958621	-0.345193	0.992429
C118	C	1.458621	0.154807	1.492429
C119	C	0.955568	-0.348241	1.065691
C120	C	1.455568	0.151759	1.565691
C121	C	1.049095	-0.254774	1.073247
C122	C	1.549095	0.245226	1.573247
C123	C	1.052152	-0.251732	0.999989
C124	C	1.552152	0.248268	1.499989
C125	C	1.006912	-0.296938	0.959583
C126	C	1.506912	0.203062	1.459583
N127	N	0.969655	-0.334181	0.848621
N128	N	1.469655	0.165819	1.348621
N129	N	1.010037	-0.293819	0.884703
N130	N	1.510037	0.206181	1.384703
H131	H	0.391494	-0.220544	0.468059
H132	H	0.891494	0.279456	0.968059
C133	C	0.909333	-1.055826	0.278896
C134	C	1.409333	-0.555826	0.778896
H135	H	0.913649	-1.104872	0.283550
H136	H	1.413649	-0.604872	0.783550
H137	H	0.862070	-1.046067	0.287639
H138	H	1.362070	-0.546067	0.787639
H139	H	0.922097	-1.041428	0.232707
H140	H	1.422097	-0.541428	0.732707
C141	C	0.732638	-0.414444	0.257209
C142	C	1.232638	0.085556	0.757209
H143	H	0.700297	-0.441350	0.227979
H144	H	1.200297	0.058650	0.727979
H145	H	0.763622	-0.385103	0.229016
H146	H	1.263622	0.114897	0.729016
H147	H	0.759003	-0.445160	0.283909
H148	H	1.259003	0.054840	0.783909
C149	C	1.070323	-0.571698	0.453780
C150	C	1.570323	-0.071698	0.953780
H151	H	1.094749	-0.604164	0.480300
H152	H	1.594749	-0.104164	0.980300
H153	H	1.103220	-0.540711	0.429463
H154	H	1.603220	-0.040711	0.929463
H155	H	1.043184	-0.545351	0.484385
H156	H	1.543184	-0.045351	0.984385
C157	C	0.883422	-0.725677	0.250866
C158	C	1.383422	-0.225677	0.750866
H159	H	0.887732	-0.774724	0.255518
H160	H	1.387732	-0.274724	0.755518
H161	H	0.836160	-0.715913	0.259609
H162	H	1.336160	-0.215913	0.759609
H163	H	0.896188	-0.711279	0.204677
H164	H	1.396188	-0.211279	0.704677
H165	H	0.893763	-0.410031	0.627173
H166	H	1.393763	0.089969	1.127173
C167	C	1.064451	-0.726034	0.447349
C168	C	1.564451	-0.226034	0.947349
H169	H	1.091361	-0.693671	0.476553
H170	H	1.591361	-0.193671	0.976553
H171	H	1.035143	-0.757022	0.475570
H172	H	1.535143	-0.257022	0.975570
H173	H	1.095162	-0.752395	0.420628
H174	H	1.595162	-0.252395	0.920628
C175	C	0.889300	-0.571334	0.257290
C176	C	1.389300	-0.071334	0.757290
H177	H	0.862399	-0.603695	0.228076
H178	H	1.362399	-0.103695	0.728076
H179	H	0.858590	-0.544974	0.284007
H180	H	1.358590	-0.044974	0.784007
H181	H	0.918613	-0.540345	0.229069
H182	H	1.418613	-0.040345	0.729069
H183	H	1.063460	-0.240470	0.640890
H184	H	1.563460	0.259530	1.140890
C185	C	0.915210	-0.901485	0.285316
C186	C	1.415210	-0.401485	0.785316
H187	H	0.888315	-0.933848	0.256100
H188	H	1.388315	-0.433848	0.756100
H189	H	0.884496	-0.875122	0.312024
H190	H	1.384496	-0.375122	0.812024
H191	H	0.944528	-0.870498	0.257095
H192	H	1.444528	-0.370498	0.757095
C193	C	1.096251	-0.901835	0.481792
C194	C	1.596251	-0.401835	0.981792
H195	H	1.120686	-0.934299	0.508305
H196	H	1.620686	-0.434299	1.008305
H197	H	1.129140	-0.870859	0.457450
H198	H	1.629140	-0.370859	0.957450
H199	H	1.069133	-0.875475	0.512405
H200	H	1.569133	-0.375475	1.012405
H201	H	0.588759	-0.407674	0.264577
H202	H	1.088759	0.092326	0.764577
H203	H	0.258595	-0.381959	0.292605
H204	H	0.758595	0.118041	0.792605
C205	C	0.908865	-0.394922	0.947989
C206	C	1.408865	0.105078	1.447989
H207	H	0.917594	-0.386193	0.899654
H208	H	1.417594	0.113807	1.399654
H209	H	0.916820	-0.442312	0.958440
H210	H	1.416820	0.057688	1.458440
H211	H	0.861481	-0.386930	0.958446
H212	H	1.361481	0.113070	1.458446
C213	C	1.070833	-0.233085	0.785333
C214	C	1.570833	0.266915	1.285333
H215	H	1.100037	-0.203915	0.755277
H216	H	1.600037	0.296085	1.255277
H217	H	1.043920	-0.204638	0.814070
H218	H	1.543920	0.295362	1.314070
H219	H	1.099253	-0.260027	0.814065
H220	H	1.599253	0.239973	1.314065
C221	C	1.090358	-1.056177	0.475386
C222	C	1.590358	-0.556177	0.975386
H223	H	1.082314	-1.105201	0.466651
H224	H	1.582314	-0.605201	0.966651
H225	H	1.138537	-1.041853	0.467646
H226	H	1.638537	-0.541853	0.967646
H227	H	1.078508	-1.046480	0.522578
H228	H	1.578508	-0.546480	1.022578
H229	H	0.721660	-0.246268	0.440033
H230	H	1.221660	0.253732	0.940033
C231	C	0.577790	-0.239512	0.447404
C232	C	1.077790	0.260488	0.947404
H233	H	0.528773	-0.247565	0.438650
H234	H	1.028773	0.252435	0.938650
H235	H	0.587478	-0.251385	0.494585
H236	H	1.087478	0.248615	0.994585
H237	H	0.592093	-0.191318	0.439702
H238	H	1.092093	0.308682	0.939702
C239	C	1.105265	-0.198647	0.963855
C240	C	1.605265	0.301353	1.463855
H241	H	1.100611	-0.203309	0.914439
H242	H	1.600611	0.296691	1.414439
H243	H	1.096309	-0.152256	0.977416
H244	H	1.596309	0.347744	1.477416
H245	H	1.151649	-0.207637	0.977411
H246	H	1.651649	0.292363	1.477411
H247	H	0.391925	-0.376812	0.298163
H248	H	0.891925	0.123188	0.798163
C249	C	0.247624	-0.213777	0.475428
C250	C	0.747624	0.286223	0.975428
H251	H	0.198607	-0.221830	0.466675
H252	H	0.698607	0.278170	0.966675
H253	H	0.257313	-0.225642	0.522611
H254	H	0.757313	0.274358	1.022611
H255	H	0.261929	-0.165585	0.467717
H256	H	0.761929	0.334415	0.967717
C257	C	1.098849	-0.205047	1.117694
C258	C	1.598849	0.294953	1.617694
H259	H	1.090110	-0.213768	1.166028
H260	H	1.590110	0.286232	1.666028
H261	H	1.146232	-0.213032	1.107240
H262	H	1.646232	0.286968	1.607240
H263	H	1.090889	-0.157654	1.107242
H264	H	1.590889	0.342346	1.607242
H265	H	0.916242	-0.387538	1.092435
H266	H	1.416242	0.112462	1.592435
H267	H	0.888224	-0.415563	0.760080
H268	H	1.388224	0.084437	1.260080
