data_functionalizedCrystal
_audit_creation_method	'MofGen! by Chris Wilmer'
_symmetry_space_group_name_H-M	'P1'
_symmetry_Int_Tables_number	1
_symmetry_cell_setting	triclinic
loop_
_symmetry_equiv_pos_as_xyz
  x,y,z
_cell_length_a	19.121102
_cell_length_b	14.908520
_cell_length_c	14.908308
_cell_angle_alpha	83.639235
_cell_angle_beta	90.980789
_cell_angle_gamma	88.983788
loop_
_atom_site_label
_atom_site_type_symbol
_atom_site_fract_x
_atom_site_fract_y
_atom_site_fract_z
Zn1	Zn	1.026920	0.449678	-0.592224
Zn2	Zn	1.526920	0.949678	-0.092224
Zn3	Zn	1.026841	0.592318	-0.449589
Zn4	Zn	1.526841	1.092318	0.050411
Zn5	Zn	0.917235	0.434592	-0.434510
Zn6	Zn	1.417235	0.934592	0.065490
Zn7	Zn	0.902901	0.593773	-0.593698
Zn8	Zn	1.402901	1.093773	-0.093698
O9	O	0.968474	0.517590	-0.517505
O10	O	1.468474	1.017590	-0.017505
O11	O	1.124682	0.474303	-0.578997
O12	O	1.624682	0.974303	-0.078997
O13	O	1.018267	0.564473	-0.321275
O14	O	1.518267	1.064473	0.178725
O15	O	0.937817	0.310280	-0.448503
O16	O	1.437817	0.810280	0.051497
O17	O	1.124624	0.579101	-0.474204
O18	O	1.624624	1.079101	0.025796
O19	O	1.018402	0.321363	-0.564374
O20	O	1.518402	0.821363	-0.064374
O21	O	0.937741	0.448593	-0.310196
O22	O	1.437741	0.948593	0.189804
O23	O	0.817562	0.450004	-0.449933
O24	O	1.317562	0.950004	0.050067
O25	O	0.913387	0.581581	-0.719817
O26	O	1.413387	1.081581	-0.219817
O27	O	0.807030	0.566954	-0.566888
O28	O	1.307030	1.066954	-0.066888
O29	O	1.004503	0.475714	-0.718733
O30	O	1.504503	0.975714	-0.218733
O31	O	1.004368	0.718825	-0.475634
O32	O	1.504368	1.218825	0.024366
O33	O	0.913310	0.719894	-0.581510
O34	O	1.413310	1.219894	-0.081510
C35	C	0.786945	0.507000	-0.506934
C36	C	1.286945	1.007000	-0.006934
C37	C	0.709283	0.502493	-0.502435
C38	C	1.209283	1.002493	-0.002435
C39	C	0.957355	0.530493	-0.752943
C40	C	1.457355	1.030493	-0.252943
C41	C	0.952616	0.535991	-0.853272
C42	C	1.452616	1.035991	-0.353272
C43	C	0.957293	0.752113	-0.530389
C44	C	1.457293	1.252113	-0.030389
C45	C	0.952572	0.852448	-0.535935
C46	C	1.452572	1.352448	-0.035935
C47	C	0.667333	0.561347	-0.561127
C48	C	1.167333	1.061347	-0.061127
C49	C	0.594363	0.557100	-0.556903
C50	C	1.094363	1.057100	-0.056903
C51	C	0.563343	0.494003	-0.493982
C52	C	1.063343	0.994003	0.006018
C53	C	0.605299	0.435143	-0.435286
C54	C	1.105299	0.935143	0.064714
C55	C	0.678268	0.439386	-0.439516
C56	C	1.178268	0.939386	0.060484
C57	C	0.343297	0.478136	-0.478174
C58	C	0.843297	0.978136	0.021826
C59	C	0.270322	0.473899	-0.473948
C60	C	0.770322	0.973899	0.026052
C61	C	0.259391	0.595856	-0.595566
C62	C	0.759391	1.095856	-0.095566
C63	C	0.332362	0.600097	-0.599786
C64	C	0.832362	1.100097	-0.099786
C65	C	0.374311	0.541234	-0.541094
C66	C	0.874311	1.041234	-0.041094
C67	C	0.488756	0.489662	-0.489660
C68	C	0.988756	0.989662	0.010340
C69	C	0.448897	0.545571	-0.545420
C70	C	0.948897	1.045571	-0.045420
C71	C	1.150713	0.528222	-0.528118
C72	C	1.650713	1.028222	-0.028118
C73	C	1.228372	0.532753	-0.532640
C74	C	1.728372	1.032753	-0.032640
C75	C	0.979718	0.282154	-0.504592
C76	C	1.479718	0.782154	-0.004592
C77	C	0.984509	0.181825	-0.499089
C78	C	1.484509	0.681825	0.000911
C79	C	1.038606	1.039825	-0.436205
C80	C	1.538606	1.539825	0.063795
C81	C	1.034173	1.134099	-0.441413
C82	C	1.534173	1.634099	0.058587
C83	C	0.939276	1.135272	-0.551563
C84	C	1.439276	1.635272	-0.051563
C85	C	0.943709	1.040998	-0.546355
C86	C	1.443709	1.540998	-0.046355
C87	C	0.993375	0.993278	-0.488673
C88	C	1.493375	1.493278	0.011327
C89	C	0.997805	0.899002	-0.483461
C90	C	1.497805	1.399002	0.016539
C91	C	0.902911	0.900177	-0.593615
C92	C	1.402911	1.400177	-0.093615
C93	C	0.898478	0.994451	-0.598823
C94	C	1.398478	1.494451	-0.098823
C95	C	1.038590	0.436063	-1.040674
C96	C	1.538590	0.936063	-0.540674
C97	C	1.034141	0.441226	-1.134942
C98	C	1.534141	0.941226	-0.634942
C99	C	0.939264	0.551475	-1.136078
C100	C	1.439264	1.051475	-0.636078
C101	C	0.943714	0.546312	-1.041810
C102	C	1.443714	1.046312	-0.541810
C103	C	0.993379	0.488605	-0.994111
C104	C	1.493379	0.988605	-0.494111
C105	C	0.997832	0.483447	-0.899841
C106	C	1.497832	0.983447	-0.399841
C107	C	0.902953	0.593691	-0.900979
C108	C	1.402953	1.093691	-0.400979
C109	C	0.898503	0.598854	-0.995247
C110	C	1.398503	1.098854	-0.495247
C111	C	0.979594	0.504675	-0.282983
C112	C	1.479594	1.004675	0.217017
C113	C	0.984480	0.498931	-0.182648
C114	C	1.484480	0.998931	0.317352
H115	H	0.692583	0.612730	-0.612362
H116	H	1.192583	1.112730	-0.112362
Br117	Br	1.095498	0.369912	-1.198132
Br118	Br	1.595498	0.869912	-0.698132
Br119	Br	1.105996	0.975055	-0.357908
Br120	Br	1.605996	1.475055	0.142092
Br121	Br	0.490996	0.631198	-0.630813
Br122	Br	0.990996	1.131198	-0.130813
H123	H	0.463492	0.438290	-0.438428
H124	H	0.963492	0.938290	0.061572
H125	H	0.866140	0.636477	-0.863058
H126	H	1.366140	1.136477	-0.363058
H127	H	1.079033	0.389080	-1.001837
H128	H	1.579033	0.889080	-0.501837
Br129	Br	0.871860	0.629775	-1.200827
Br130	Br	1.371860	1.129775	-0.700827
H131	H	1.038273	0.436460	-0.861006
H132	H	1.538273	0.936460	-0.361006
Br133	Br	1.065204	0.834238	-0.405174
Br134	Br	1.565204	1.334238	0.094826
H135	H	0.377443	0.430212	-0.430377
H136	H	0.877443	0.930212	0.069623
Br137	Br	0.563202	0.349501	-0.349900
Br138	Br	1.063202	0.849501	0.150100
Br139	Br	0.374455	0.685737	-0.685178
Br140	Br	0.874455	1.185737	-0.185178
H141	H	1.071006	1.171994	-0.398690
H142	H	1.571006	1.671994	0.101310
Br143	Br	0.871888	1.200052	-0.629854
Br144	Br	1.371888	1.700052	-0.129854
H145	H	0.858043	1.033318	-0.645788
H146	H	1.358043	1.533318	-0.145788
Br147	Br	0.841511	0.837000	-0.664809
Br148	Br	1.341511	1.337000	-0.164809
H149	H	0.858065	0.645835	-1.034096
H150	H	1.358065	1.145835	-0.534096
Br151	Br	0.202457	0.675740	-0.675212
Br152	Br	0.702457	1.175740	-0.175212
H153	H	0.560210	0.605026	-0.604696
H154	H	1.060210	1.105026	-0.104696
H155	H	0.712423	0.391456	-0.391726
H156	H	1.212423	0.891456	0.108274
Br157	Br	0.228225	0.388271	-0.388539
Br158	Br	0.728225	0.888271	0.111461
