data_functionalizedCrystal
_audit_creation_method	'MofGen! by Chris Wilmer'
_symmetry_space_group_name_H-M	'P1'
_symmetry_Int_Tables_number	1
_symmetry_cell_setting	triclinic
loop_
_symmetry_equiv_pos_as_xyz
  x,y,z
_cell_length_a	21.295419
_cell_length_b	21.295417
_cell_length_c	12.759393
_cell_angle_alpha	90.039170
_cell_angle_beta	90.021680
_cell_angle_gamma	90.045308
loop_
_atom_site_label
_atom_site_type_symbol
_atom_site_fract_x
_atom_site_fract_y
_atom_site_fract_z
Zn1	Zn	0.962338	-0.250323	0.594015
Zn2	Zn	0.962245	-0.355608	0.418312
Zn3	Zn	0.857066	-0.250383	0.418345
Zn4	Zn	0.857030	-0.355586	0.593944
O5	O	0.909670	-0.302975	0.506154
O6	O	1.050415	-0.264274	0.570724
O7	O	0.948270	-0.341683	0.271295
O8	O	0.871084	-0.162286	0.441692
O9	O	1.050347	-0.341625	0.441636
O10	O	0.948427	-0.162242	0.570756
O11	O	0.870995	-0.264376	0.271319
O12	O	0.768972	-0.264355	0.441622
O13	O	0.871023	-0.341589	0.740974
O14	O	0.768946	-0.341647	0.570634
O15	O	0.948392	-0.264253	0.741027
O16	O	0.948235	-0.443694	0.441566
O17	O	0.870934	-0.443678	0.570602
C18	C	0.746118	-0.303005	0.506125
C19	C	0.676150	-0.303033	0.506137
C20	C	0.643341	-0.262822	0.573457
C21	C	0.577599	-0.262805	0.573461
C22	C	0.544668	-0.303011	0.506156
C23	C	0.577485	-0.343225	0.438823
C24	C	0.643226	-0.343236	0.438813
N25	N	0.441393	-0.358090	0.497945
N26	N	0.378941	-0.358077	0.497960
C27	C	0.346593	-0.302978	0.506179
N28	N	0.379056	-0.247891	0.514403
N29	N	0.441513	-0.247904	0.514393
C30	C	0.473382	-0.303003	0.506158
C31	C	0.242499	-0.262745	0.573507
C32	C	0.176755	-0.262727	0.573504
C33	C	0.176642	-0.343153	0.438871
C34	C	0.242384	-0.343165	0.438869
C35	C	0.275309	-0.302962	0.506193
C36	C	0.909587	-0.466527	0.506096
C37	C	0.909610	-0.536495	0.506106
C38	C	0.949896	-0.569349	0.438986
C39	C	0.949926	-0.635091	0.439010
C40	C	0.909658	-0.667977	0.506142
C41	C	0.869368	-0.635115	0.573276
C42	C	0.869344	-0.569374	0.573257
N43	N	0.854590	-0.771257	0.514142
N44	N	0.854615	-0.833708	0.514153
C45	C	0.909728	-0.866052	0.506203
N46	N	0.964817	-0.833585	0.498220
N47	N	0.964792	-0.771128	0.498204
C48	C	0.909679	-0.739263	0.506170
C49	C	0.950050	-0.970191	0.439104
C50	C	0.950080	-1.035935	0.439136
C51	C	0.869517	-1.035958	0.573396
C52	C	0.869492	-0.970216	0.573370
C53	C	0.909758	-0.937336	0.506219
C54	C	1.073860	-0.302945	0.506184
C55	C	1.143828	-0.302932	0.506197
C56	C	0.909714	-0.302912	0.780188
C57	C	0.909733	-0.302884	0.896964
C58	C	0.909770	-0.138785	0.506235
C59	C	0.909813	-0.068817	0.506270
C60	C	0.909662	-0.302993	0.233187
C61	C	0.909766	-0.302843	0.116411
C62	C	0.950024	-0.262612	0.951855
C63	C	0.950039	-0.262589	1.061580
C64	C	0.869470	-0.343117	1.061512
C65	C	0.869452	-0.343136	0.951790
C66	C	0.996543	-0.216122	0.951895
C67	C	0.996558	-0.216099	1.061620
H68	H	0.149830	-0.375889	0.384070
H69	H	1.045308	-0.229143	1.091400
H70	H	0.982734	-0.661846	0.384353
H71	H	0.836583	-0.661895	0.627937
O72	O	0.830147	-0.537554	0.638491
C73	C	0.750274	-0.544514	0.771709
C74	C	0.794623	-0.580630	0.697870
H75	H	0.721550	-0.579325	0.819752
H76	H	0.717319	-0.513818	0.723464
H77	H	0.779156	-0.513655	0.826631
H78	H	0.765791	-0.611523	0.642933
H79	H	0.827579	-0.611287	0.746180
O80	O	0.830286	-0.382238	1.114609
C81	C	0.750399	-0.462142	1.102960
C82	C	0.794732	-0.417857	1.042701
H83	H	0.721651	-0.490961	1.044848
H84	H	0.717467	-0.433267	1.154310
H85	H	0.779297	-0.495016	1.154344
H86	H	0.765885	-0.384975	0.991259
H87	H	0.827666	-0.446771	0.991417
H88	H	0.983513	-0.167375	0.922149
H89	H	0.550881	-0.230057	0.628280
O90	O	0.675226	-0.223705	0.638876
C91	C	0.668397	-0.143958	0.772451
C92	C	0.632208	-0.188218	0.698406
H93	H	0.633633	-0.115265	0.820616
H94	H	0.699173	-0.110971	0.724359
H95	H	0.699183	-0.172909	0.827248
H96	H	0.601388	-0.159318	0.643594
H97	H	0.601472	-0.221207	0.746563
H98	H	0.982838	-0.943420	0.384429
O99	O	0.988953	-0.537314	0.373797
C100	C	1.024650	-0.436027	0.314308
C101	C	0.980376	-0.472229	0.388168
H102	H	1.017740	-0.383400	0.325916
H103	H	1.013625	-0.448962	0.229556
H104	H	1.075400	-0.448924	0.332825
H105	H	0.929610	-0.459351	0.369745
H106	H	0.991455	-0.459292	0.472898
H107	H	0.982890	-1.062684	0.384480
O108	O	1.051820	-0.236938	0.911455
C109	C	1.155679	-0.276125	0.947862
C110	C	1.093116	-0.252547	0.993801
H111	H	1.189080	-0.288763	1.014416
H112	H	1.177608	-0.237668	0.897642
H113	H	1.146646	-0.319443	0.897505
H114	H	1.102096	-0.209240	1.044205
H115	H	1.071207	-0.291042	1.043961
O116	O	0.545470	-0.382349	0.373595
C117	C	0.471134	-0.467292	0.359210
C118	C	0.507361	-0.423034	0.433207
H119	H	0.440304	-0.500188	0.407375
H120	H	0.505850	-0.496082	0.311109
H121	H	0.440394	-0.438335	0.304350
H122	H	0.538102	-0.451943	0.488130
H123	H	0.472610	-0.394242	0.481234
O124	O	0.675071	-0.382393	0.373532
C125	C	0.695038	-0.489437	0.322160
C126	C	0.658945	-0.445163	0.396169
H127	H	0.682004	-0.540195	0.340421
H128	H	0.747689	-0.482596	0.333723
H129	H	0.682111	-0.478289	0.237485
H130	H	0.671820	-0.456284	0.480872
H131	H	0.606303	-0.452012	0.384516
H132	H	0.836733	-1.062733	0.628061
O133	O	0.274516	-0.223780	0.639004
C134	C	0.348816	-0.215425	0.780824
C135	C	0.312586	-0.259624	0.706733
H136	H	0.379614	-0.244386	0.835586
H137	H	0.314101	-0.186686	0.829014
H138	H	0.379587	-0.182472	0.732662
H139	H	0.281814	-0.292614	0.754813
H140	H	0.347335	-0.288318	0.658539
O141	O	0.830292	-0.938395	0.638595
C142	C	0.750412	-0.945357	0.771802
C143	C	0.794765	-0.981472	0.697966
H144	H	0.721687	-0.980169	0.819839
H145	H	0.717460	-0.914660	0.723554
H146	H	0.779292	-0.914499	0.826728
H147	H	0.765936	-1.012364	0.643025
H148	H	0.827719	-1.012129	0.746280
O149	O	0.975783	-0.160794	1.102085
C150	C	0.936642	-0.056926	1.065728
C151	C	0.960172	-0.119517	1.019759
H152	H	0.924001	-0.023542	0.999189
H153	H	0.975126	-0.035001	1.116001
H154	H	0.893334	-0.065919	1.116038
H155	H	1.003468	-0.110579	0.969402
H156	H	0.921649	-0.141423	0.969545
H157	H	0.150043	-0.229979	0.628323
H158	H	0.269098	-0.375912	0.384054
H159	H	0.836640	-0.375928	0.907101
