data_functionalizedCrystal
_audit_creation_method	'MofGen! by Chris Wilmer'
_symmetry_space_group_name_H-M	'P1'
_symmetry_Int_Tables_number	1
_symmetry_cell_setting	triclinic
loop_
_symmetry_equiv_pos_as_xyz
  x,y,z
_cell_length_a	10.654550
_cell_length_b	10.489741
_cell_length_c	9.730223
_cell_angle_alpha	89.995878
_cell_angle_beta	89.999957
_cell_angle_gamma	84.512052
loop_
_atom_site_label
_atom_site_type_symbol
_atom_site_fract_x
_atom_site_fract_y
_atom_site_fract_z
O1	O	1.667923	0.179162	-0.114186
O2	O	1.302452	0.196231	-0.114212
O3	O	1.493504	0.002095	-0.114190
O4	O	1.476872	0.373298	-0.114208
O5	O	1.493491	0.002089	0.114390
O6	O	1.302440	0.196226	0.114368
O7	O	1.667911	0.179157	0.114393
Zn8	Zn	1.485173	0.187690	0.150673
Zn9	Zn	1.485190	0.187697	-0.150491
O10	O	1.476859	0.373293	0.114372
C11	C	1.255648	0.194975	0.000075
C12	C	1.116203	0.191225	0.000066
C13	C	1.036771	0.305530	0.000064
C14	C	0.905748	0.301999	0.000088
C15	C	0.933603	0.069849	0.000110
C16	C	1.064623	0.073381	0.000095
C17	C	1.492241	-0.045439	0.000099
C18	C	1.488483	-0.187067	0.000096
C19	C	1.366923	-0.255148	0.000078
C20	C	1.424341	-0.347301	0.112783
C21	C	1.424382	-0.347270	-0.112579
C22	C	1.545951	-0.277354	0.112895
C23	C	1.545975	-0.277314	-0.112568
C24	C	1.603481	-0.369439	0.000165
C25	C	1.714715	0.180413	0.000104
C26	C	1.854160	0.184162	0.000104
C27	C	1.478122	0.420827	0.000080
C28	C	1.481880	0.562454	0.000074
N29	N	1.485171	0.187685	0.356209
N30	N	1.485201	0.187693	-0.356027
C31	C	1.569798	0.101758	0.428145
C32	C	1.569811	0.101758	0.572028
C33	C	1.400566	0.273624	0.572027
C34	C	1.400548	0.273616	0.428147
H35	H	1.078762	0.401486	0.000050
C36	C	0.891385	0.531820	0.000045
C37	C	0.818436	0.427647	0.000077
H38	H	0.837479	0.609392	0.000030
H39	H	0.943072	0.528374	0.079744
H40	H	0.943062	0.528353	-0.079678
H41	H	0.766765	0.431109	0.079806
H42	H	0.766727	0.431095	-0.079631
H43	H	1.638702	0.031785	0.369576
C44	C	1.740490	0.075704	0.733818
C45	C	1.662836	0.007308	0.651103
H46	H	1.797915	0.017388	0.782641
H47	H	1.786131	0.129218	0.677677
H48	H	1.690085	0.126876	0.797250
H49	H	1.713240	-0.043856	0.587664
H50	H	1.617192	-0.046228	0.707249
C51	C	1.213546	-0.112274	-0.117878
C52	C	1.232001	-0.188054	0.000205
H53	H	1.130250	-0.070862	-0.117798
H54	H	1.272378	-0.049724	-0.118740
H55	H	1.225474	-0.164852	-0.197181
H56	H	1.220081	-0.135475	0.079508
H57	H	1.173152	-0.250612	0.001080
C58	C	1.229928	0.299695	0.733871
C59	C	1.307562	0.368083	0.651113
H60	H	1.172519	0.358015	0.782699
H61	H	1.184269	0.246181	0.677758
H62	H	1.280349	0.248524	0.797298
H63	H	1.257142	0.419247	0.587678
H64	H	1.353225	0.421620	0.707231
H65	H	1.597336	-0.246549	0.208286
C66	C	1.551530	-0.270327	-0.359108
C67	C	1.615357	-0.235417	-0.241192
H68	H	1.594354	-0.244451	-0.438521
H69	H	1.548983	-0.360582	-0.360492
H70	H	1.467971	-0.229606	-0.358289
H71	H	1.698913	-0.276147	-0.242007
H72	H	1.617918	-0.145146	-0.239809
C73	C	0.745125	-0.038646	0.000127
C74	C	0.876900	-0.059681	0.000124
H75	H	0.710125	-0.118616	0.000124
H76	H	0.717944	0.008456	0.079832
H77	H	0.717939	0.008471	-0.079591
H78	H	0.904087	-0.106790	0.079847
H79	H	0.904093	-0.106803	-0.079589
C80	C	1.233261	0.443516	0.442587
C81	C	1.307522	0.368079	0.349064
H82	H	1.175838	0.501832	0.393761
H83	H	1.187617	0.389996	0.498718
H84	H	1.285967	0.489899	0.498693
H85	H	1.254817	0.321689	0.292965
H86	H	1.353169	0.421606	0.292910
H87	H	1.129300	-0.019705	0.000100
H88	H	1.703517	-0.418912	0.000234
C89	C	1.231038	-0.330913	0.241193
C90	C	1.354904	-0.389148	0.241402
H91	H	1.188166	-0.356751	0.320590
H92	H	1.232263	-0.240494	0.241701
H93	H	1.188675	-0.356019	0.161152
H94	H	1.397270	-0.364034	0.321438
H95	H	1.353685	-0.479586	0.240906
H96	H	1.372936	-0.378207	-0.207872
