data_functionalizedCrystal
_audit_creation_method	'MofGen! by Chris Wilmer'
_symmetry_space_group_name_H-M	'P1'
_symmetry_Int_Tables_number	1
_symmetry_cell_setting	triclinic
loop_
_symmetry_equiv_pos_as_xyz
  x,y,z
_cell_length_a	19.121063
_cell_length_b	13.032831
_cell_length_c	13.032268
_cell_angle_alpha	90.886977
_cell_angle_beta	80.752502
_cell_angle_gamma	94.434404
loop_
_atom_site_label
_atom_site_type_symbol
_atom_site_fract_x
_atom_site_fract_y
_atom_site_fract_z
Zn1	Zn	-0.473659	-1.465022	0.806576
Zn2	Zn	-0.578156	-1.479383	0.640274
Zn3	Zn	-0.444360	-1.316950	0.611224
Zn4	Zn	-0.574364	-1.285899	0.790193
O5	O	-0.517635	-1.386814	0.712067
O6	O	-0.501370	-1.609870	0.803529
O7	O	-0.549733	-1.476841	0.491924
O8	O	-0.350107	-1.343577	0.631836
O9	O	-0.578143	-1.620421	0.681348
O10	O	-0.371633	-1.452365	0.775360
O11	O	-0.451434	-1.357502	0.470581
O12	O	-0.447756	-1.169889	0.615951
O13	O	-0.571680	-1.290655	0.936863
O14	O	-0.543270	-1.147076	0.747439
O15	O	-0.497693	-1.422256	0.948899
O16	O	-0.675793	-1.446733	0.665463
O17	O	-0.673007	-1.304581	0.775608
C18	C	-0.699851	-1.373870	0.721936
C19	C	-0.777815	-1.368422	0.726206
C20	C	-0.491923	-1.121419	0.676766
C21	C	-0.480942	-1.007877	0.661690
C22	C	-0.537532	-1.351390	0.981395
C23	C	-0.546011	-1.336295	1.096167
C24	C	-0.815879	-1.439917	0.670926
C25	C	-0.889136	-1.434798	0.674948
C26	C	-0.924327	-1.358179	0.734244
C27	C	-0.886258	-1.286681	0.789530
C28	C	-0.813003	-1.291805	0.785514
C29	C	-1.145437	-1.339006	0.749244
C30	C	-1.218697	-1.333886	0.753254
C31	C	-1.221570	-1.482005	0.638672
C32	C	-1.148313	-1.487118	0.634656
C33	C	-1.110251	-1.415624	0.689946
C34	C	-0.999207	-1.352943	0.738354
C35	C	-1.035374	-1.420865	0.685842
C36	C	-0.334712	-1.399833	0.702185
C37	C	-0.256761	-1.405381	0.697974
C38	C	-0.543448	-1.653245	0.747506
C39	C	-0.554448	-1.766782	0.762608
C40	C	-0.523366	-0.946005	0.719935
C41	C	-0.512018	-0.828653	0.704355
C42	C	-0.497771	-1.422162	0.443791
C43	C	-0.489113	-1.437469	0.329036
C44	C	-0.513183	-1.394678	1.153291
C45	C	-0.521945	-1.379078	1.271914
H46	H	-0.787232	-1.502304	0.622636
H47	H	-0.556535	-1.317533	1.310822
Br48	Br	-0.628983	-0.823275	0.864977
Br49	Br	-0.940793	-1.531837	0.599929
Br50	Br	-1.100562	-1.591117	0.554195
H51	H	-1.114453	-1.280791	0.794261
Br52	Br	-0.406393	-0.951374	0.559354
H53	H	-0.568086	-0.979912	0.781340
Br54	Br	-0.934017	-1.182704	0.870015
Br55	Br	-1.273230	-1.579033	0.563646
Br56	Br	-1.266452	-1.229881	0.833713
H57	H	-0.454514	-1.499002	1.290127
H58	H	-0.782012	-1.233587	0.830529
Br59	Br	-0.455501	-1.497214	1.088438
Br60	Br	-1.046971	-1.248964	0.818828
H61	H	-1.006720	-1.483252	0.637567
Br62	Br	-0.437466	-0.772155	0.602015
Br63	Br	-0.603662	-1.233722	1.161013
