data_functionalizedCrystal
_audit_creation_method	'MofGen! by Chris Wilmer'
_symmetry_space_group_name_H-M	'P1'
_symmetry_Int_Tables_number	1
_symmetry_cell_setting	triclinic
loop_
_symmetry_equiv_pos_as_xyz
  x,y,z
_cell_length_a	19.379189
_cell_length_b	31.640172
_cell_length_c	31.640172
_cell_angle_alpha	89.990838
_cell_angle_beta	127.515047
_cell_angle_gamma	52.463091
loop_
_atom_site_label
_atom_site_type_symbol
_atom_site_fract_x
_atom_site_fract_y
_atom_site_fract_z
Zr1	Zr	1.051609	0.246019	0.216377
O2	O	1.252099	0.147794	0.314564
O3	O	0.851146	0.297431	0.165001
O4	O	1.051623	0.266695	0.283866
O5	O	1.051601	0.178544	0.126139
O6	O	1.051603	0.336255	0.283854
O7	O	1.051622	0.178530	0.195699
O8	O	0.692986	0.391236	0.071226
O9	O	1.410218	0.123563	0.338766
O10	O	0.933574	0.345534	0.168786
O11	O	0.933574	0.293632	0.116884
O12	O	1.169609	0.257445	0.256832
O13	O	1.169609	0.205543	0.204929
Zr14	Zr	1.051544	0.356981	0.105417
Zr15	Zr	1.051577	0.356959	0.216357
Zr16	Zr	1.051576	0.246041	0.105436
Zr17	Zr	1.303790	0.207373	0.254977
Zr18	Zr	0.799362	0.395627	0.066817
O19	O	1.252007	0.305569	0.156792
O20	O	1.252054	0.305537	0.314536
O21	O	1.252052	0.147826	0.156820
O22	O	0.851054	0.455206	0.007230
O23	O	0.851101	0.455174	0.164973
O24	O	0.851099	0.297463	0.007258
O25	O	1.051551	0.424456	0.195655
O26	O	1.051530	0.336304	0.037928
O27	O	1.051550	0.266744	0.037940
O28	O	1.051531	0.424470	0.126095
O29	O	1.410193	0.211746	0.338750
O30	O	0.692960	0.391254	-0.016957
O31	O	0.692935	0.479437	-0.016972
O32	O	0.692961	0.479419	0.071211
O33	O	1.410192	0.123581	0.250583
O34	O	1.410167	0.211763	0.250567
O35	O	0.933543	0.345555	0.064962
O36	O	0.933544	0.397456	0.116865
O37	O	1.169579	0.309367	0.204910
O38	O	1.169579	0.257466	0.153007
C39	C	0.736135	0.349840	0.112614
C40	C	0.629078	0.366246	0.096228
C41	C	0.712143	0.161926	0.300405
C42	C	0.611461	0.177373	0.284938
C43	C	0.437323	0.280708	0.181636
C44	C	0.537992	0.265268	0.197093
C45	C	0.675398	0.205876	0.256479
C46	C	0.501246	0.309218	0.153167
C47	C	0.601907	0.293780	0.168624
C48	C	0.739313	0.234392	0.228008
C49	C	0.776058	0.190438	0.271936
C50	C	0.363840	0.368612	0.093784
C51	C	0.327094	0.412562	0.049857
C52	C	0.427756	0.397122	0.065312
C53	C	0.565162	0.337734	0.124696
C54	C	0.391011	0.441076	0.021384
C55	C	0.491672	0.425638	0.036842
C56	C	0.665823	0.322296	0.140154
C57	C	1.051616	0.162730	0.160921
C58	C	1.051630	0.115633	0.160930
C59	C	0.928356	-0.130381	0.114926
C60	C	0.928332	-0.307362	0.114912
O61	O	0.823547	-0.291142	0.075807
N62	N	1.051539	-0.375474	0.160871
C63	C	1.174761	-0.399340	0.206834
O64	O	1.279555	-0.461334	0.245921
C65	C	1.174783	-0.222359	0.206845
C66	C	1.051568	-0.154247	0.160887
C67	C	0.805151	-0.062273	0.068971
C68	C	0.805158	-0.018030	0.068977
C69	C	0.928370	-0.041896	0.114938
C70	C	1.051575	-0.110005	0.160893
C71	C	1.298003	-0.246225	0.252804
C72	C	1.297998	-0.201973	0.252802
C73	C	1.174783	-0.133861	0.206844
C74	C	1.174794	-0.089628	0.206860
N75	N	1.051587	-0.021517	0.160901
C76	C	0.928375	0.002349	0.114940
C77	C	1.174740	-0.492254	0.206827
C78	C	1.174735	-0.536500	0.206825
C79	C	0.928306	-0.444519	0.114901
C80	C	0.928313	-0.400273	0.114907
C81	C	1.051533	-0.424143	0.160867
C82	C	0.928399	0.095257	0.114957
C83	C	0.928417	0.139499	0.114969
C84	C	1.174846	0.047515	0.206890
C85	C	1.174829	0.003276	0.206880
C86	C	1.051594	0.027153	0.160908
O87	O	1.279524	-0.105800	0.245940
O88	O	0.823596	0.064344	0.075850
C89	C	0.928348	-0.174623	0.114920
C90	C	1.051554	-0.242731	0.160874
C91	C	1.174766	-0.266597	0.206835
C92	C	1.051548	-0.286977	0.160873
C93	C	0.928336	-0.263111	0.114912
C94	C	0.805129	-0.194999	0.068952
C95	C	0.805136	-0.150757	0.068959
C96	C	1.297973	-0.334709	0.252794
C97	C	1.297956	-0.378947	0.252785
C98	C	1.174743	-0.355081	0.206824
C99	C	1.367017	0.253160	0.209180
C100	C	1.474075	0.236754	0.225566
C101	C	1.051617	0.301472	0.299667
C102	C	1.051631	0.301463	0.346764
C103	C	1.051537	0.440269	0.160872
C104	C	1.051523	0.487366	0.160864
C105	C	1.051567	0.339826	0.638758
C106	C	1.051558	0.339836	0.815745
O107	O	1.051490	0.372450	0.838603
N108	N	1.051573	0.301514	0.837883
C109	C	1.051581	0.263189	0.815768
O110	O	1.051580	0.230599	0.838654
C111	C	1.051580	0.263182	0.638779
C112	C	1.051579	0.301502	0.616648
C113	C	1.051564	0.378143	0.616626
C114	C	1.051574	0.378137	0.572385
C115	C	1.051586	0.339814	0.550275
C116	C	1.051588	0.301496	0.572406
C117	C	1.051578	0.224861	0.616661
C118	C	1.051574	0.224864	0.572410
C119	C	1.051573	0.263184	0.550279
C120	C	1.051610	0.263167	0.506055
N121	N	1.051595	0.301490	0.483917
C122	C	1.051583	0.339813	0.506027
C123	C	1.051585	0.263194	0.908692
C124	C	1.051587	0.263195	0.952940
C125	C	1.051562	0.339844	0.952912
C126	C	1.051569	0.339839	0.908667
C127	C	1.051570	0.301517	0.886554
C128	C	1.051604	0.339797	0.413117
C129	C	1.051619	0.339786	0.368874
C130	C	1.051637	0.263140	0.368903
C131	C	1.051629	0.263149	0.413145
C132	C	1.051608	0.301482	0.435249
O133	O	1.051663	0.230576	0.483164
O134	O	1.051554	0.372410	0.483122
C135	C	1.051557	0.339831	0.682999
C136	C	1.051560	0.301514	0.705130
C137	C	1.051572	0.263191	0.683021
C138	C	1.051563	0.301515	0.749379
C139	C	1.051550	0.339838	0.771489
C140	C	1.051536	0.378161	0.749350
C141	C	1.051545	0.378155	0.705109
C142	C	1.051587	0.224868	0.705159
C143	C	1.051579	0.224876	0.749401
C144	C	1.051567	0.263200	0.771511
C145	C	1.051549	0.301523	1.022132
C146	C	1.051575	0.301518	0.975050
C147	C	0.736096	0.488609	0.112590
C148	C	0.629024	0.552113	0.096195
C149	C	0.736094	0.349868	-0.026156
C150	C	0.629023	0.366283	-0.089640
C151	C	0.736055	0.488637	-0.026180
C152	C	0.628970	0.552150	-0.089672
C153	C	1.367098	0.114363	0.347974
C154	C	1.474183	0.050850	0.411466
C155	C	1.367057	0.114390	0.209204
C156	C	1.474128	0.050887	0.225599
C157	C	1.367058	0.253132	0.347949
C158	C	1.474130	0.236716	0.411433
C159	C	0.578758	0.554831	0.115602
C160	C	0.478168	0.614493	0.100210
C161	C	0.427838	0.671436	0.065406
C162	C	0.478114	0.668715	0.045999
C163	C	0.578710	0.609053	0.061395
C164	C	0.578725	0.401095	-0.146559
C165	C	0.478134	0.416515	-0.206211
C166	C	0.427836	0.397127	-0.208943
C167	C	0.478143	0.362310	-0.152017
C168	C	0.578739	0.346887	-0.092365
C169	C	0.578681	0.609073	-0.092396
C170	C	0.478078	0.668752	-0.152048
C171	C	0.427757	0.671507	-0.208975
C172	C	0.478055	0.614578	-0.206249
C173	C	0.578664	0.554899	-0.146597
C174	C	1.524484	-0.006075	0.414192
C175	C	1.625119	-0.065759	0.473848
C176	C	1.675445	-0.068515	0.530777
C177	C	1.625140	-0.011584	0.528049
C178	C	1.524514	0.048097	0.468395
C179	C	1.524405	0.048167	0.206198
C180	C	1.625023	-0.011499	0.221607
C181	C	1.675357	-0.068443	0.256413
C182	C	1.625076	-0.065721	0.275817
C183	C	1.524466	-0.006057	0.260412
C184	C	1.524396	0.256115	0.414144
C185	C	1.624988	0.240703	0.473787
C186	C	1.675319	0.205888	0.530721
C187	C	1.625042	0.186491	0.528008
C188	C	1.524445	0.201907	0.468364
H189	H	0.777711	0.273922	0.188501
Cl190	Cl	1.688342	0.142716	0.599590
Cl191	Cl	1.461278	0.177507	0.464970
Cl192	Cl	0.642015	0.483254	0.159361
Cl193	Cl	0.414861	0.740312	-0.155461
H194	H	1.051567	0.371043	0.890650
Cl195	Cl	1.461264	-0.002646	0.284803
Cl196	Cl	0.154354	0.487223	-0.024796
H197	H	0.641398	0.141581	0.320714
H198	H	1.757280	-0.117021	0.268952
Cl199	Cl	0.650228	-0.065134	0.011179
H200	H	1.051650	0.231938	0.431171
Cl201	Cl	1.461143	0.299884	0.342578
Cl202	Cl	0.237293	0.388023	0.074355
Cl203	Cl	0.264582	0.355370	0.106983
H204	H	1.051533	0.409363	0.767362
Cl205	Cl	0.641933	0.425478	-0.143142
H206	H	0.345925	0.720013	0.052873
Cl207	Cl	0.414821	0.740308	0.002241
Cl208	Cl	1.051588	0.176695	0.777221
Cl209	Cl	0.865863	0.214985	0.247445
H210	H	1.666059	-0.112107	0.476056
H211	H	0.461747	0.461426	0.001072
H212	H	0.437185	0.444866	-0.252557
H213	H	1.666129	-0.013837	0.574408
Cl214	Cl	1.461237	-0.002626	0.342633
Cl215	Cl	1.051654	0.214964	0.341101
Cl216	Cl	0.641951	0.303126	-0.020814
Cl217	Cl	0.641880	0.605647	0.036986
H218	H	0.824031	0.113552	0.348752
H219	H	1.666073	-0.112092	0.304158
Cl220	Cl	1.688180	0.265090	0.477184
H221	H	0.345924	0.409690	-0.257520
H222	H	1.483560	0.094446	0.466182
H223	H	1.398341	-0.221417	0.290222
H224	H	1.483431	0.094527	0.177853
H225	H	1.757232	0.193339	0.579283
Cl226	Cl	1.051559	0.426318	0.544563
Cl227	Cl	0.948805	0.115769	0.346591
Cl228	Cl	0.218269	0.515741	-0.053265
Cl229	Cl	1.801946	-0.143549	0.605766
H230	H	1.665945	-0.013703	0.205800
Cl231	Cl	0.414893	0.337943	-0.155463
Cl232	Cl	0.641930	0.605624	-0.020837
Cl233	Cl	1.051550	0.426327	0.644415
Cl234	Cl	0.414979	0.617900	0.124610
H235	H	1.275162	0.028092	0.244312
H236	H	1.275160	-0.052185	0.244310
H237	H	0.828076	0.194961	0.077542
H238	H	0.828050	0.114707	0.077522
Cl239	Cl	0.414778	0.618053	-0.277822
Cl240	Cl	0.650250	0.067593	0.011194
Cl241	Cl	1.051616	0.215009	0.980767
H242	H	0.619595	0.508554	-0.144389
Cl243	Cl	0.650233	-0.032254	0.011182
H244	H	0.345834	0.720106	-0.257543
H245	H	0.827982	-0.425093	0.077481
Cl246	Cl	0.773408	-0.314650	0.057128
H247	H	1.051586	0.231986	0.890690
H248	H	1.275069	-0.591957	0.244255
H249	H	1.398338	-0.301680	0.290228
Cl250	Cl	0.650235	-0.165006	0.011175
Cl251	Cl	1.329663	-0.522275	0.264614
Cl252	Cl	1.051572	0.176686	0.544612
Cl253	Cl	1.051574	0.176687	0.644472
Cl254	Cl	1.452871	-0.464574	0.310568
Cl255	Cl	1.452885	-0.364724	0.310581
Cl256	Cl	1.051621	0.387962	0.341056
H257	H	1.051555	0.371047	0.970923
Cl258	Cl	1.051580	0.387988	0.440899
Cl259	Cl	1.051541	0.426332	0.677292
Cl260	Cl	1.051604	0.176684	0.677370
