data_functionalizedCrystal
_audit_creation_method	'MofGen! by Chris Wilmer'
_symmetry_space_group_name_H-M	'P1'
_symmetry_Int_Tables_number	1
_symmetry_cell_setting	triclinic
loop_
_symmetry_equiv_pos_as_xyz
  x,y,z
_cell_length_a	14.519710
_cell_length_b	14.971486
_cell_length_c	13.448316
_cell_angle_alpha	90.006811
_cell_angle_beta	89.994186
_cell_angle_gamma	96.352863
loop_
_atom_site_label
_atom_site_type_symbol
_atom_site_fract_x
_atom_site_fract_y
_atom_site_fract_z
O1	O	1.223800	-0.117253	-0.082671
O2	O	0.955315	-0.131061	-0.082677
O3	O	1.096754	0.006039	-0.082667
O4	O	1.082362	-0.254353	-0.082681
O5	O	1.096736	0.006048	0.082717
O6	O	0.955297	-0.131052	0.082706
O7	O	1.223782	-0.117244	0.082713
Cu8	Cu	1.089538	-0.124147	0.097811
Cu9	Cu	1.089559	-0.124158	-0.097775
O10	O	1.082344	-0.254344	0.082703
C11	C	0.920947	-0.130413	0.000014
C12	C	0.818567	-0.128485	0.000011
C13	C	1.258151	-0.117892	0.000020
C14	C	1.360531	-0.119820	0.000016
C15	C	1.735422	-0.126919	0.000015
C16	C	1.631116	-0.124948	0.000015
C17	C	1.547980	-0.123370	0.000014
C18	C	1.443667	-0.121398	0.000016
C19	C	1.096101	0.039369	0.000025
C20	C	1.094172	0.138667	0.000024
C21	C	1.082996	-0.287674	0.000009
C22	C	1.084925	-0.386972	0.000003
N23	N	1.089530	-0.124140	0.235375
C24	C	1.177264	0.195845	0.000027
C25	C	1.175446	0.289146	0.000017
C26	C	1.090536	0.325266	0.000011
C27	C	1.007438	0.268080	0.000005
C28	C	1.009257	0.174781	0.000008
C29	C	1.003653	0.462545	0.000001
C30	C	1.001834	0.555850	0.000000
C31	C	1.169842	0.576909	0.000010
C32	C	1.171661	0.483610	0.000013
C33	C	1.088563	0.426431	0.000009
N34	N	1.089575	-0.124158	-0.235339
C35	C	1.152179	-0.063457	0.287420
C36	C	1.152184	-0.063456	0.391523
C37	C	1.089545	-0.124143	0.443580
C38	C	1.026890	-0.184829	0.391527
C39	C	1.026881	-0.184825	0.287426
C40	C	1.026916	-0.184835	0.608507
C41	C	1.026926	-0.184841	0.712616
C42	C	1.152219	-0.063467	0.712605
C43	C	1.152210	-0.063462	0.608503
C44	C	1.089556	-0.124149	0.556458
H45	H	1.243107	0.335698	0.000021
O46	O	1.213141	-0.004486	0.441925
C47	C	1.268418	0.049085	0.373656
H48	H	1.269478	0.012413	0.299441
H49	H	1.238421	0.115607	0.362609
C50	C	1.366587	0.112321	0.505413
C51	C	1.367895	0.067277	0.414263
H52	H	1.427949	0.123547	0.530462
H53	H	1.329344	0.076232	0.551408
H54	H	1.341586	0.167751	0.496194
H55	H	1.392885	0.011843	0.423485
H56	H	1.405145	0.103357	0.368270
H57	H	1.203190	-0.014042	0.245043
O58	O	1.250542	0.632483	-0.000172
C59	C	1.254522	0.687080	-0.085819
H60	H	1.207406	0.652979	-0.145685
H61	H	1.230579	0.754966	-0.066463
C62	C	1.412727	0.742966	-0.051125
C63	C	1.354864	0.701079	-0.124657
H64	H	1.474623	0.751605	-0.075081
H65	H	1.410046	0.706186	0.006579
H66	H	1.392763	0.799533	-0.035002
H67	H	1.374821	0.644508	-0.140770
H68	H	1.357551	0.737850	-0.182365
H69	H	1.240802	0.454205	0.000025
H70	H	1.246407	0.166444	0.000038
O71	O	1.213045	-0.004390	0.763043
C72	C	1.197955	0.084191	0.737639
H73	H	1.162399	0.084161	0.662065
H74	H	1.152036	0.111959	0.796245
C75	C	1.335204	0.143521	0.825634
C76	C	1.291540	0.143484	0.732808
H77	H	1.392930	0.180097	0.822658
H78	H	1.345369	0.083842	0.842753
H79	H	1.296928	0.166658	0.874462
H80	H	1.329810	0.120337	0.683984
H81	H	1.281383	0.203160	0.715681
H82	H	0.932692	0.585255	0.000012
O83	O	0.922846	0.407127	0.000039
C84	C	0.847511	0.459011	0.000011
H85	H	0.870837	0.528609	0.031321
H86	H	0.821498	0.465686	-0.079333
C87	C	0.740201	0.327173	0.026410
C88	C	0.768848	0.412652	0.064874
H89	H	0.691675	0.298575	0.066417
H90	H	0.790955	0.292216	0.026426
H91	H	0.718529	0.332747	-0.039709
H92	H	0.790530	0.407076	0.130987
H93	H	0.718096	0.447607	0.064871
H94	H	0.938303	0.297496	-0.000006
O95	O	0.928456	0.119363	0.000049
C96	C	0.853121	0.171247	0.000018
H97	H	0.876445	0.240844	0.031333
H98	H	0.827113	0.177925	-0.079327
C99	C	0.745809	0.039408	0.026405
C100	C	0.774454	0.124885	0.064875
H101	H	0.697281	0.010809	0.066407
H102	H	0.796563	0.004451	0.026423
H103	H	0.724141	0.044985	-0.039715
H104	H	0.796132	0.119306	0.130989
H105	H	0.723702	0.159840	0.064870
H106	H	0.975893	-0.234250	0.566135
H107	H	1.203220	-0.014051	0.566119
H108	H	0.975918	-0.234258	0.754995
H109	H	0.975884	-0.234239	0.433917
O110	O	0.965992	-0.243861	0.237020
C111	C	0.910691	-0.297413	0.305286
H112	H	0.948508	-0.298510	0.379484
H113	H	0.842158	-0.268219	0.316380
C114	C	0.845331	-0.392514	0.173510
C115	C	0.891782	-0.393869	0.264639
H116	H	0.833663	-0.452012	0.148436
H117	H	0.882585	-0.356434	0.127516
H118	H	0.788225	-0.368182	0.182767
H119	H	0.948892	-0.418190	0.255379
H120	H	0.854537	-0.429956	0.310630
