data_functionalizedCrystal
_audit_creation_method	'MofGen! by Chris Wilmer'
_symmetry_space_group_name_H-M	'P1'
_symmetry_Int_Tables_number	1
_symmetry_cell_setting	triclinic
loop_
_symmetry_equiv_pos_as_xyz
  x,y,z
_cell_length_a	12.837943
_cell_length_b	17.019305
_cell_length_c	15.500228
_cell_angle_alpha	96.706723
_cell_angle_beta	93.142593
_cell_angle_gamma	90.902161
loop_
_atom_site_label
_atom_site_type_symbol
_atom_site_fract_x
_atom_site_fract_y
_atom_site_fract_z
O1	O	1.369266	-0.209060	-0.087508
O2	O	1.067526	-0.198896	-0.086755
O3	O	1.227390	-0.089386	-0.078589
O4	O	1.209401	-0.318570	-0.095674
O5	O	1.237082	-0.082762	0.065794
O6	O	1.077217	-0.192272	0.057628
O7	O	1.378957	-0.202436	0.056875
Cu8	Cu	1.228972	-0.196749	0.070434
Cu9	Cu	1.217511	-0.204583	-0.100315
O10	O	1.219092	-0.311946	0.048708
C11	C	1.033773	-0.192151	-0.014308
C12	C	0.918762	-0.181910	-0.013547
N13	N	1.209450	-0.210087	-0.220410
C14	C	1.231746	-0.056536	-0.004197
C15	C	1.230272	0.031479	0.002358
C16	C	1.412710	-0.209181	-0.015574
C17	C	1.527720	-0.219422	-0.016341
C18	C	1.769479	-0.096315	-0.007155
C19	C	1.877542	-0.105933	-0.007875
C20	C	1.851912	-0.248275	-0.018496
C21	C	1.743849	-0.238657	-0.017776
C22	C	1.702636	-0.162674	-0.012106
C23	C	1.594571	-0.153057	-0.011392
C24	C	1.568943	-0.295399	-0.022007
C25	C	1.677006	-0.305017	-0.022727
C26	C	1.224300	0.069213	-0.073264
C27	C	1.222909	0.151913	-0.067101
C28	C	1.227498	0.196876	0.014684
C29	C	1.233468	0.159137	0.090313
C30	C	1.234852	0.076438	0.084149
C31	C	1.223579	0.446752	0.037231
C32	C	1.222198	0.529456	0.043389
C33	C	1.211637	0.522226	-0.114026
C34	C	1.213027	0.439527	-0.120182
C35	C	1.218991	0.401794	-0.044554
C36	C	1.226080	0.281409	0.020986
C37	C	1.220402	0.317263	-0.050856
C38	C	1.214741	0.655205	-0.025682
C39	C	1.216225	0.567190	-0.032233
C40	C	1.277318	-0.163793	-0.262235
C41	C	1.271220	-0.167954	-0.353118
C42	C	1.197248	-0.218405	-0.402175
C43	C	1.129377	-0.264705	-0.360344
C44	C	1.135481	-0.260547	-0.269463
C45	C	1.175274	-0.233381	-0.676758
C46	C	1.169173	-0.237533	-0.767645
C47	C	1.311018	-0.140783	-0.760413
C48	C	1.317111	-0.136627	-0.669530
C49	C	1.249244	-0.182929	-0.627708
C50	C	1.191010	-0.222658	-0.495072
C51	C	1.255487	-0.178680	-0.534813
N52	N	1.237041	-0.191239	0.190530
H53	H	1.561018	-0.091188	-0.006779
H54	H	1.710577	-0.366880	-0.027340
H55	H	1.326484	-0.130258	-0.387171
H56	H	1.218050	0.182632	-0.128681
H57	H	1.735923	-0.034447	-0.002547
H58	H	1.229820	0.318028	0.087576
H59	H	1.514507	-0.349434	-0.026039
H60	H	1.366273	-0.103087	-0.794473
H61	H	1.377345	-0.095545	-0.629590
H62	H	1.209291	0.402922	-0.186781
H63	H	1.130779	-0.263735	-0.535021
H64	H	1.931962	-0.051895	-0.003843
H65	H	1.885487	-0.310136	-0.023105
H66	H	1.220568	0.032609	-0.139863
H67	H	1.069151	-0.305787	-0.400292
H68	H	1.225930	0.566064	0.109993
H69	H	1.080217	-0.298246	-0.235411
H70	H	1.206779	0.552957	-0.175598
H71	H	1.228456	0.416041	0.098814
H72	H	1.108932	-0.278619	-0.807584
H73	H	1.237199	0.195753	0.156905
H74	H	1.239701	0.045716	0.145729
H75	H	1.216658	0.280650	-0.117445
H76	H	1.315719	-0.137606	-0.494868
H77	H	1.337549	-0.122706	-0.222298
H78	H	1.120012	-0.271081	-0.642714
