data_functionalizedCrystal
_audit_creation_method	'MofGen! by Chris Wilmer'
_symmetry_space_group_name_H-M	'P1'
_symmetry_Int_Tables_number	1
_symmetry_cell_setting	triclinic
loop_
_symmetry_equiv_pos_as_xyz
  x,y,z
_cell_length_a	13.897448
_cell_length_b	19.805407
_cell_length_c	19.805399
_cell_angle_alpha	89.978486
_cell_angle_beta	89.973574
_cell_angle_gamma	90.016939
loop_
_atom_site_label
_atom_site_type_symbol
_atom_site_fract_x
_atom_site_fract_y
_atom_site_fract_z
Zn1	Zn	-0.384043	1.034759	-0.382815
Zn2	Zn	-0.545353	1.034696	-0.269632
Zn3	Zn	-0.384072	0.921579	-0.269631
Zn4	Zn	-0.545296	0.921554	-0.382770
O5	O	-0.464691	0.978147	-0.326212
O6	O	-0.405453	1.129467	-0.367821
O7	O	-0.523995	1.019675	-0.174915
O8	O	-0.249086	0.936629	-0.284663
O9	O	-0.523967	1.129421	-0.284666
O10	O	-0.249065	1.019782	-0.367820
O11	O	-0.405502	0.936568	-0.174914
O12	O	-0.405446	0.826859	-0.284619
O13	O	-0.523869	0.936587	-0.477492
O14	O	-0.523897	0.826841	-0.367742
O15	O	-0.405398	1.019758	-0.477526
O16	O	-0.680327	1.019651	-0.284622
O17	O	-0.680285	0.936526	-0.367743
C18	C	-0.464669	0.802291	-0.326176
C19	C	-0.464683	0.727059	-0.326176
C20	C	-0.715305	0.978098	-0.326192
C21	C	-0.822519	0.978138	-0.326207
C22	C	-0.526484	0.265276	-0.369469
C23	C	-0.526483	0.335965	-0.369455
C24	C	-0.464714	0.371297	-0.326238
C25	C	-0.402950	0.335938	-0.283028
C26	C	-0.402958	0.265250	-0.283040
C27	C	-0.402921	0.621011	-0.282981
C28	C	-0.402916	0.691703	-0.282974
C29	C	-0.526446	0.691725	-0.369396
C30	C	-0.526453	0.621038	-0.369407
C31	C	-0.464693	0.585685	-0.326195
C32	C	-0.464697	0.509036	-0.326210
C33	C	-0.464705	0.447944	-0.326226
C34	C	-1.018814	0.978209	-0.326249
C35	C	-0.909582	0.978168	-0.326228
C36	C	-0.213098	0.978215	-0.326246
C37	C	-0.105884	0.978244	-0.326261
C38	C	-0.464624	0.978177	-0.502755
C39	C	-0.464595	0.978189	-0.577987
C40	C	-0.464713	1.154690	-0.326249
C41	C	-0.464723	1.229922	-0.326264
C42	C	-0.402890	0.934928	-0.613330
C43	C	-0.402872	0.934937	-0.684018
C44	C	-0.464554	0.978212	-0.719362
C45	C	-0.526266	1.021475	-0.684014
C46	C	-0.526289	1.021462	-0.613327
C47	C	-0.526175	1.021529	-0.969088
C48	C	-0.526146	1.021540	-1.039780
C49	C	-0.402759	0.935004	-1.039779
C50	C	-0.402781	0.934991	-0.969092
C51	C	-0.464496	0.978251	-0.933750
C52	C	-0.464517	0.978240	-0.857101
C53	C	-0.464529	0.978227	-0.796010
C54	C	-0.464688	0.978156	-0.150356
C55	C	-0.464445	0.978275	-0.075124
H56	H	-0.576778	0.236514	-0.404665
H57	H	-0.576378	1.056781	-1.068555
H58	H	-0.576777	0.364747	-0.404635
H59	H	-0.576748	0.592274	-0.404601
H60	H	-0.576493	1.056707	-0.712797
Br61	Br	-0.319167	0.876200	-0.565370
H62	H	-0.576736	0.720518	-0.404580
Br63	Br	-0.319002	0.876291	-1.087747
H64	H	-0.352636	0.592235	-0.247792
H65	H	-0.352629	0.899707	-0.712792
H66	H	-0.576438	1.056747	-0.940321
H67	H	-0.576528	1.056695	-0.584552
Br68	Br	-0.319081	0.739654	-0.224320
H69	H	-0.352662	0.364711	-0.247838
H70	H	-0.352663	0.236466	-0.247860
H71	H	-0.352550	0.899755	-0.940318
