data_functionalizedCrystal
_audit_creation_method	'MofGen! by Chris Wilmer'
_symmetry_space_group_name_H-M	'P1'
_symmetry_Int_Tables_number	1
_symmetry_cell_setting	triclinic
loop_
_symmetry_equiv_pos_as_xyz
  x,y,z
_cell_length_a	14.519709
_cell_length_b	10.540539
_cell_length_c	13.596369
_cell_angle_alpha	89.996161
_cell_angle_beta	90.000291
_cell_angle_gamma	84.102818
loop_
_atom_site_label
_atom_site_type_symbol
_atom_site_fract_x
_atom_site_fract_y
_atom_site_fract_z
O1	O	1.224765	0.166400	-0.081658
O2	O	0.956394	0.185995	-0.081688
O3	O	1.096702	-0.008572	-0.081671
O4	O	1.084457	0.360966	-0.081675
O5	O	1.096688	-0.008582	0.081912
O6	O	0.956380	0.185985	0.081895
O7	O	1.224751	0.166389	0.081924
Zn8	Zn	1.090563	0.176185	0.107882
Zn9	Zn	1.090582	0.176199	-0.107646
O10	O	1.084442	0.360956	0.081908
C11	C	0.922022	0.185077	0.000100
C12	C	0.819626	0.182340	0.000088
C13	C	0.444676	0.172265	0.000133
C14	C	0.548999	0.175063	0.000120
C15	C	0.632148	0.177303	0.000110
C16	C	0.736477	0.180101	0.000099
C17	C	1.095777	-0.055870	0.000118
C18	C	1.093029	-0.196790	0.000113
C19	C	0.987750	-0.379142	-0.000266
C20	C	0.990535	-0.232553	0.000102
C21	C	1.142346	-0.258957	0.093532
C22	C	1.138848	-0.405466	0.093610
C23	C	1.140949	-0.405994	-0.092414
C24	C	1.141893	-0.259022	-0.093649
C25	C	1.259123	0.167308	0.000135
C26	C	1.361519	0.170044	0.000140
C27	C	1.085368	0.408255	0.000116
C28	C	1.088115	0.549175	0.000115
N29	N	1.090557	0.176175	0.254974
N30	N	1.090595	0.176199	-0.254737
C31	C	1.090580	0.176200	0.656265
C32	C	1.090571	0.176198	0.544613
C33	C	1.090569	0.176189	0.455623
C34	C	1.090559	0.176184	0.343964
H35	H	0.947268	-0.407325	-0.067259
H36	H	1.216619	-0.235563	-0.099282
C37	C	1.242671	-0.229984	0.098038
C38	C	1.262044	-0.155586	0.016765
C39	C	1.354449	-0.128855	0.020888
H40	H	1.282244	-0.307554	0.097133
H41	H	1.252635	-0.184721	0.156869
H42	H	1.252089	-0.200849	-0.042052
H43	H	1.222494	-0.078001	0.017653
H44	H	1.364413	-0.083592	0.079719
H45	H	1.394014	-0.206431	0.019985
H46	H	1.367603	-0.078364	-0.034249
C47	C	1.096887	-0.447541	-0.186938
C48	C	1.145575	-0.406141	-0.267736
C49	C	1.105010	-0.444405	-0.354820
H50	H	1.034309	-0.411227	-0.189953
H51	H	1.098936	-0.537906	-0.188194
H52	H	1.143516	-0.315794	-0.266481
H53	H	1.208151	-0.442451	-0.264753
H54	H	1.107059	-0.534770	-0.356077
H55	H	1.042433	-0.408088	-0.357825
H56	H	1.138043	-0.416331	-0.409652
C57	C	0.933866	-0.419017	0.088425
C58	C	0.855345	-0.474017	0.056486
C59	C	0.805696	-0.510784	0.138161
H60	H	0.915342	-0.346317	0.127692
H61	H	0.971975	-0.479373	0.126220
H62	H	0.817243	-0.413665	0.018707
H63	H	0.873842	-0.546730	0.017230
H64	H	0.843805	-0.571141	0.175956
H65	H	0.787179	-0.438078	0.177422
H66	H	0.752419	-0.548116	0.116502
H67	H	0.951446	-0.190402	0.067172
C68	C	1.096648	-0.201963	0.186305
C69	C	1.062120	-0.298639	0.241625
C70	C	1.020022	-0.246190	0.327096
H71	H	1.047227	-0.139897	0.168918
H72	H	1.140944	-0.162888	0.224156
H73	H	1.017828	-0.337694	0.203781
H74	H	1.111522	-0.360712	0.259037
H75	H	1.064318	-0.207115	0.364947
H76	H	0.970606	-0.184124	0.309701
H77	H	0.996597	-0.311777	0.364646
H78	H	1.105808	-0.217791	-0.162758
C79	C	1.239592	-0.470211	-0.093309
C80	C	1.237937	-0.602710	-0.096872
C81	C	1.328785	-0.661913	-0.097704
H82	H	1.270746	-0.447887	-0.035377
H83	H	1.271185	-0.442829	-0.149405
H84	H	1.206358	-0.630081	-0.040782
H85	H	1.206801	-0.625071	-0.154801
H86	H	1.360377	-0.634532	-0.153800
H87	H	1.359931	-0.639579	-0.039771
H88	H	1.327674	-0.751819	-0.100131
C89	C	0.938705	-0.175435	-0.089214
C90	C	0.904601	-0.272906	-0.144005
C91	C	0.856833	-0.220342	-0.226282
H92	H	0.979549	-0.132467	-0.128842
H93	H	0.888577	-0.116639	-0.068227
H94	H	0.954723	-0.331680	-0.164993
H95	H	0.863744	-0.315882	-0.104406
H96	H	0.806705	-0.161546	-0.205295
H97	H	0.897683	-0.177375	-0.265902
H98	H	0.833680	-0.286466	-0.263462
C99	C	1.237063	-0.470680	0.099245
C100	C	1.234658	-0.603131	0.099341
C101	C	1.325114	-0.663240	0.104528
H102	H	1.265717	-0.445602	0.157932
H103	H	1.271399	-0.446699	0.043995
H104	H	1.200336	-0.627101	0.154586
H105	H	1.206022	-0.628245	0.040659
H106	H	1.359449	-0.639259	0.049278
H107	H	1.353760	-0.638152	0.163216
H108	H	1.323494	-0.753113	0.104584
H109	H	1.102389	-0.433298	0.163435
