data_functionalizedCrystal
_audit_creation_method	'MofGen! by Chris Wilmer'
_symmetry_space_group_name_H-M	'P1'
_symmetry_Int_Tables_number	1
_symmetry_cell_setting	triclinic
loop_
_symmetry_equiv_pos_as_xyz
  x,y,z
_cell_length_a	12.827893
_cell_length_b	12.827892
_cell_length_c	12.827885
_cell_angle_alpha	90.029976
_cell_angle_beta	90.019272
_cell_angle_gamma	90.015552
loop_
_atom_site_label
_atom_site_type_symbol
_atom_site_fract_x
_atom_site_fract_y
_atom_site_fract_z
Zn1	Zn	1.597670	-0.415978	0.590847
Zn2	Zn	1.931003	-0.082645	0.924181
Zn3	Zn	2.264336	0.250689	1.257514
Zn4	Zn	1.597564	-0.590755	0.416107
Zn5	Zn	1.930897	-0.257422	0.749440
Zn6	Zn	2.264230	0.075911	1.082774
Zn7	Zn	1.422911	-0.416029	0.416121
Zn8	Zn	1.756244	-0.082696	0.749454
Zn9	Zn	2.089578	0.250637	1.082788
Zn10	Zn	1.422896	-0.590678	0.590807
Zn11	Zn	1.756230	-0.257345	0.924140
Zn12	Zn	2.089563	0.075989	1.257474
O13	O	1.510260	-0.503360	0.503471
O14	O	1.843593	-0.170027	0.836804
O15	O	2.176927	0.163306	1.170137
O16	O	1.743892	-0.439173	0.567679
O17	O	2.077225	-0.105840	0.901012
O18	O	2.410558	0.227493	1.234345
O19	O	1.574357	-0.567631	0.269873
O20	O	1.907691	-0.234298	0.603206
O21	O	2.241024	0.099035	0.936539
O22	O	1.446144	-0.269787	0.439321
O23	O	1.779477	0.063547	0.772655
O24	O	2.112810	0.396880	1.105988
O25	O	1.743814	-0.567582	0.439298
O26	O	2.077147	-0.234248	0.772631
O27	O	2.410480	0.099085	1.105964
O28	O	1.574538	-0.269749	0.567692
O29	O	1.907871	0.063585	0.901025
O30	O	2.241205	0.396918	1.234359
O31	O	1.446041	-0.439261	0.269883
O32	O	1.779374	-0.105928	0.603216
O33	O	2.112708	0.227406	0.936550
O34	O	1.276673	-0.439186	0.439282
O35	O	1.610006	-0.105853	0.772616
O36	O	1.943340	0.227481	1.105949
O37	O	1.446118	-0.567450	0.737048
O38	O	1.779452	-0.234117	1.070382
O39	O	2.112785	0.099217	1.403715
O40	O	1.276662	-0.567500	0.567623
O41	O	1.609996	-0.234167	0.900957
O42	O	1.943329	0.099167	1.234290
O43	O	1.574524	-0.439098	0.737078
O44	O	1.907857	-0.105765	1.070411
O45	O	2.241190	0.227568	1.403745
O46	O	1.574343	-0.736981	0.439259
O47	O	1.907677	-0.403648	0.772592
O48	O	2.241010	-0.070314	1.105925
O49	O	1.446016	-0.736924	0.567610
O50	O	1.779349	-0.403591	0.900943
O51	O	2.112682	-0.070258	1.234277
C52	C	1.238750	-0.503341	0.503451
C53	C	1.572084	-0.170008	0.836784
C54	C	1.905417	0.163326	1.170117
C55	C	1.122597	-0.503358	0.503467
C56	C	1.455930	-0.170025	0.836800
C57	C	1.789264	0.163309	1.170134
C58	C	1.070851	-0.439930	0.567093
C59	C	1.404184	-0.106597	0.900426
C60	C	1.737517	0.226737	1.233760
C61	C	0.950800	-0.439946	0.567111
C62	C	1.284134	-0.106613	0.900444
C63	C	1.617467	0.226721	1.233778
C64	C	1.510195	-0.774870	0.503451
C65	C	1.843528	-0.441537	0.836785
C66	C	2.176861	-0.108203	1.170118
C67	C	1.510262	-0.891023	0.503478
C68	C	1.843596	-0.557690	0.836811
C69	C	2.176929	-0.224357	1.170145
C70	C	1.573768	-0.942706	0.567057
C71	C	1.907101	-0.609373	0.900390
C72	C	2.240434	-0.276039	1.233724
C73	C	1.573839	-1.062756	0.567086
C74	C	1.907172	-0.729423	0.900419
C75	C	2.240506	-0.396090	1.233753
C76	C	1.782830	-0.503380	0.503491
C77	C	2.116164	-0.170047	0.836824
C78	C	2.449497	0.163286	1.170158
C79	C	1.898983	-0.503389	0.503500
C80	C	2.232317	-0.170056	0.836833
C81	C	2.565650	0.163278	1.170167
C82	C	1.510331	-0.503260	0.776041
C83	C	1.843665	-0.169927	1.109374
C84	C	2.176998	0.163407	1.442708
C85	C	1.510362	-0.503217	0.892194
C86	C	1.843695	-0.169884	1.225527
C87	C	2.177028	0.163450	1.558861
C88	C	1.510354	-0.230790	0.503513
C89	C	1.843688	0.102543	0.836846
C90	C	2.177021	0.435877	1.170180
C91	C	1.510394	-0.114637	0.503531
C92	C	1.843728	0.218696	0.836864
C93	C	2.177061	0.552030	1.170198
C94	C	1.510249	-0.503385	0.231961
C95	C	1.843583	-0.170051	0.565294
C96	C	2.176916	0.163282	0.898627
C97	C	1.510422	-0.503133	0.115808
C98	C	1.843755	-0.169800	0.449141
C99	C	2.177088	0.163534	0.782475
C100	C	1.573907	-0.439692	0.943993
C101	C	1.907241	-0.106359	1.277327
C102	C	2.240574	0.226974	1.610660
C103	C	1.573940	-0.439647	1.064044
C104	C	1.907274	-0.106313	1.397377
C105	C	2.240607	0.227020	1.730711
H106	H	1.115425	-0.385612	0.621548
H107	H	1.448759	-0.052278	0.954881
H108	H	1.782092	0.281055	1.288215
Br109	Br	1.664290	-0.868332	0.657766
Br110	Br	1.997623	-0.534999	0.991099
Br111	Br	2.330956	-0.201665	1.324432
H112	H	1.628212	-1.107202	0.621514
H113	H	1.961546	-0.773869	0.954848
H114	H	2.294879	-0.440536	1.288181
H115	H	1.078022	-0.557670	0.449006
H116	H	1.411356	-0.224337	0.782339
H117	H	1.744689	0.108996	1.115673
Br118	Br	1.419775	-1.040571	0.412789
Br119	Br	1.753109	-0.707238	0.746122
Br120	Br	2.086442	-0.373905	1.079456
H121	H	0.943477	-0.557700	0.449030
H122	H	1.276811	-0.224367	0.782364
H123	H	1.610144	0.108966	1.115697
H124	H	1.455975	-0.557562	0.936724
H125	H	1.789309	-0.224229	1.270057
H126	H	2.122642	0.109104	1.603390
H127	H	1.628283	-0.385336	0.899464
H128	H	1.961617	-0.052003	1.232797
H129	H	2.294950	0.281330	1.566131
Br130	Br	0.876637	-0.349441	0.657917
Br131	Br	1.209970	-0.016107	0.991250
Br132	Br	1.543304	0.317226	1.324584
Br133	Br	1.664632	-0.349003	1.138283
Br134	Br	1.997965	-0.015669	1.471616
Br135	Br	2.331299	0.317664	1.804950
Br136	Br	1.419745	-0.593798	1.041576
Br137	Br	1.753078	-0.260464	1.374909
Br138	Br	2.086411	0.072869	1.708242
H139	H	1.455941	-0.935652	0.449072
H140	H	1.789274	-0.602319	0.782406
H141	H	2.122608	-0.268986	1.115739
