data_functionalizedCrystal
_audit_creation_method	'MofGen! by Chris Wilmer'
_symmetry_space_group_name_H-M	'P1'
_symmetry_Int_Tables_number	1
_symmetry_cell_setting	triclinic
loop_
_symmetry_equiv_pos_as_xyz
  x,y,z
_cell_length_a	12.594517
_cell_length_b	12.594516
_cell_length_c	16.120297
_cell_angle_alpha	87.122232
_cell_angle_beta	87.122906
_cell_angle_gamma	90.015485
loop_
_atom_site_label
_atom_site_type_symbol
_atom_site_fract_x
_atom_site_fract_y
_atom_site_fract_z
Zn1	Zn	1.596737	-0.454305	0.471444
Zn2	Zn	2.096737	0.045695	0.971444
Zn3	Zn	1.605655	-0.623273	0.332046
Zn4	Zn	2.105655	-0.123273	0.832046
Zn5	Zn	1.427768	-0.445307	0.332044
Zn6	Zn	1.927768	0.054693	0.832044
Zn7	Zn	1.418726	-0.632238	0.471409
Zn8	Zn	1.918726	-0.132238	0.971409
O9	O	1.512222	-0.538781	0.401736
O10	O	2.012222	-0.038781	0.901736
O11	O	1.746865	-0.476733	0.452968
O12	O	2.246865	0.023267	0.952968
O13	O	1.589575	-0.592149	0.215382
O14	O	2.089575	-0.092149	0.715382
O15	O	1.450235	-0.297556	0.350550
O16	O	1.950235	0.202444	0.850550
O17	O	1.753417	-0.600873	0.350552
O18	O	2.253417	-0.100873	0.850552
O19	O	1.574375	-0.304166	0.452967
O20	O	2.074375	0.195834	0.952967
O21	O	1.458882	-0.461398	0.215381
O22	O	1.958882	0.038602	0.715381
O23	O	1.277624	-0.470090	0.350516
O24	O	1.777624	0.029910	0.850516
O25	O	1.434823	-0.616151	0.588077
O26	O	1.934823	-0.116151	1.088077
O27	O	1.270980	-0.607427	0.452907
O28	O	1.770980	-0.107427	0.952907
O29	O	1.565607	-0.485425	0.588103
O30	O	2.065607	0.014575	1.088103
O31	O	1.580807	-0.773407	0.350518
O32	O	2.080807	-0.273407	0.850518
O33	O	1.443470	-0.779993	0.452908
O34	O	1.943470	-0.279993	0.952908
C35	C	1.235683	-0.538756	0.401708
C36	C	1.735683	-0.038756	0.901708
C37	C	1.117377	-0.538772	0.401716
C38	C	1.617377	-0.038772	0.901716
C39	C	0.980934	-0.464005	0.346153
C40	C	1.480934	0.035995	0.846153
C41	C	1.046867	-0.443006	0.422227
C42	C	1.546867	0.056994	0.922227
C43	C	1.053015	-0.559724	0.325650
C44	C	1.553015	-0.059724	0.825650
C45	C	0.972517	-0.517771	0.477891
C46	C	1.472517	-0.017771	0.977891
C47	C	0.978663	-0.634531	0.381263
C48	C	1.478663	-0.134531	0.881263
C49	C	1.044560	-0.613572	0.457389
C50	C	1.544560	-0.113572	0.957389
C51	C	1.512152	-0.815321	0.401728
C52	C	2.012152	-0.315321	0.901728
C53	C	1.512218	-0.933628	0.401752
C54	C	2.012218	-0.433628	0.901752
C55	C	1.437517	-1.006500	0.457402
C56	C	1.937517	-0.506500	0.957402
C57	C	1.416510	-1.072430	0.381330
C58	C	1.916510	-0.572430	0.881330
C59	C	1.533322	-1.078497	0.477838
C60	C	2.033322	-0.578497	0.977838
C61	C	1.491163	-0.997998	0.325639
C62	C	1.991163	-0.497998	0.825639
C63	C	1.608016	-1.004062	0.422198
C64	C	2.108016	-0.504062	0.922198
C65	C	1.587050	-1.069958	0.346073
C66	C	2.087050	-0.569958	0.846073
C67	C	1.789841	-0.538807	0.401764
C68	C	2.289841	-0.038807	0.901764
C69	C	1.908145	-0.538818	0.401776
C70	C	2.408145	-0.038818	0.901776
C71	C	1.498211	-0.552792	0.619185
C72	C	1.998211	-0.052792	1.119185
C73	C	1.492241	-0.558762	0.711849
C74	C	1.992241	-0.058762	1.211849
C75	C	1.512319	-0.261162	0.401762
C76	C	2.012319	0.238838	0.901762
C77	C	1.512360	-0.142857	0.401773
C78	C	2.012360	0.357143	0.901773
C79	C	1.526239	-0.524748	0.185132
C80	C	2.026239	-0.024748	0.685132
C81	C	1.532415	-0.518477	0.092469
C82	C	2.032415	-0.018477	0.592469
C83	C	1.481302	-0.569639	0.881507
C84	C	1.981302	-0.069639	1.381507
C85	C	1.543351	-0.507603	0.922816
C86	C	2.043351	-0.007603	1.422816
C87	C	1.537265	-0.513655	1.017220
C88	C	2.037265	-0.013655	1.517220
C89	C	1.487387	-0.563589	0.787095
C90	C	1.987387	-0.063589	1.287095
H91	H	0.952879	-0.400716	0.299198
H92	H	1.452879	0.099284	0.799198
O93	O	1.670819	-1.106762	0.283680
O94	O	2.170819	-0.606762	0.783680
H95	H	1.670755	-1.194938	0.284507
H96	H	2.170755	-0.694938	0.784507
H97	H	1.076848	-0.362041	0.439567
H98	H	1.576848	0.137959	0.939567
H99	H	1.601044	-0.449946	0.887283
H100	H	2.101044	0.050054	1.387283
O101	O	0.938873	-0.741736	0.358281
O102	O	1.438873	-0.241736	0.858281
H103	H	0.971202	-0.758927	0.295056
H104	H	1.471202	-0.258927	0.795056
O105	O	0.926078	-0.494183	0.563161
O106	O	1.426078	0.005817	1.063161
H107	H	0.837995	-0.494343	0.562507
H108	H	1.337995	0.005657	1.062507
O109	O	1.081473	-0.697356	0.519727
O110	O	1.581473	-0.197356	1.019727
H111	H	1.048945	-0.679726	0.582805
H112	H	1.548945	-0.179726	1.082805
H113	H	1.335561	-1.102528	0.364053
H114	H	1.835561	-0.602528	0.864053
O115	O	1.467462	-0.951560	0.240392
O116	O	1.967462	-0.451560	0.740392
H117	H	1.467545	-0.863478	0.241062
H118	H	1.967545	-0.363478	0.741062
H119	H	1.088216	-0.577426	0.261296
H120	H	1.588216	-0.077426	0.761296
O121	O	1.404881	-0.646008	0.928566
O122	O	1.904881	-0.146008	1.428566
H123	H	1.449998	-0.702658	0.968246
H124	H	1.949998	-0.202658	1.468246
H125	H	1.688944	-0.973969	0.439511
H126	H	2.188944	-0.473969	0.939511
H127	H	1.551114	-1.113694	0.542174
H128	H	2.051114	-0.613694	1.042174
H129	H	1.374241	-0.978512	0.504396
H130	H	1.874241	-0.478512	1.004396
