data_functionalizedCrystal
_audit_creation_method	'MofGen! by Chris Wilmer'
_symmetry_space_group_name_H-M	'P1'
_symmetry_Int_Tables_number	1
_symmetry_cell_setting	triclinic
loop_
_symmetry_equiv_pos_as_xyz
  x,y,z
_cell_length_a	17.019282
_cell_length_b	19.188924
_cell_length_c	16.098538
_cell_angle_alpha	92.711427
_cell_angle_beta	91.140572
_cell_angle_gamma	83.265903
loop_
_atom_site_label
_atom_site_type_symbol
_atom_site_fract_x
_atom_site_fract_y
_atom_site_fract_z
O1	O	1.046075	0.089163	0.005789
O2	O	0.817211	0.099776	-0.010632
O3	O	0.938250	-0.007153	-0.001938
O4	O	0.925036	0.196093	-0.002905
O5	O	0.931179	-0.000932	0.136067
O6	O	0.810140	0.105998	0.127373
O7	O	1.039005	0.095385	0.143794
Zn8	Zn	0.923450	0.101679	0.157495
Zn9	Zn	0.932766	0.093482	-0.024333
O10	O	0.917966	0.202315	0.135100
C11	C	0.784395	0.102364	0.056269
C12	C	0.697150	0.100795	0.050010
C13	C	0.652312	0.103448	0.122297
C14	C	0.570337	0.101964	0.116418
C15	C	0.533200	0.097831	0.038250
C16	C	0.578044	0.095176	-0.034043
C17	C	0.660019	0.096655	-0.028163
C18	C	0.285885	0.093190	0.016732
C19	C	0.203904	0.091712	0.010858
C20	C	0.196202	0.098499	0.161319
C21	C	0.278178	0.099983	0.167192
C22	C	0.323015	0.097324	0.094899
C23	C	0.449409	0.096316	0.032239
C24	C	0.406806	0.098834	0.100912
C25	C	0.934288	-0.030056	0.067035
C26	C	0.933006	-0.107567	0.066945
C27	C	0.936261	-0.147360	-0.008324
C28	C	0.935046	-0.220189	-0.008418
C29	C	0.930591	-0.253223	0.066764
C30	C	0.927330	-0.213420	0.142043
C31	C	0.928537	-0.140592	0.142134
N32	N	0.970552	-0.370153	0.125825
N33	N	0.969407	-0.439337	0.125733
C34	C	0.926950	-0.472651	0.066494
N35	N	0.885693	-0.434168	0.007338
N36	N	0.886842	-0.364978	0.007427
C37	C	0.929280	-0.332193	0.066673
C38	C	0.928888	-0.591414	-0.008882
C39	C	0.927667	-0.664243	-0.008973
C40	C	0.919959	-0.657474	0.141491
C41	C	0.921171	-0.584645	0.141579
C42	C	0.925640	-0.551620	0.066390
C43	C	1.071820	0.092798	0.076891
C44	C	1.159066	0.094366	0.083145
C45	C	0.921928	0.225217	0.066125
C46	C	0.923210	0.302728	0.066210
N47	N	0.917098	0.107273	0.281588
N48	N	0.939124	0.087882	-0.148425
C49	C	0.968491	0.061904	0.328865
C50	C	0.964054	0.065824	0.415735
C51	C	0.908229	0.115117	0.455327
C52	C	0.856831	0.160488	0.408044
C53	C	0.861264	0.156564	0.321175
C54	C	0.892159	0.129329	0.717423
C55	C	0.887731	0.133251	0.804298
C56	C	0.994954	0.038586	0.811983
C57	C	0.999386	0.034669	0.725112
C58	C	0.947985	0.080038	0.677836
C59	C	0.903695	0.119127	0.544122
C60	C	0.952516	0.076025	0.589042
H61	H	0.533835	0.104113	0.175282
H62	H	0.916325	-0.684369	0.202705
O63	O	0.147839	0.101363	0.239286
H64	H	0.187434	0.104490	0.294627
O65	O	1.028692	0.008733	0.286155
H66	H	1.089082	0.018534	0.307201
O67	O	1.059604	-0.018487	0.682404
H68	H	1.028666	-0.054294	0.640466
O69	O	0.931152	-0.707156	-0.090169
H70	H	0.986788	-0.700919	-0.122389
O71	O	0.938562	-0.263119	-0.089607
H72	H	0.884638	-0.290351	-0.097097
H73	H	0.682541	0.106819	0.185950
H74	H	0.419163	0.092951	-0.031406
H75	H	0.322382	0.091022	-0.042134
H76	H	0.939897	-0.120475	-0.069549
H77	H	0.819414	0.193508	0.282682
H78	H	0.811372	0.200621	0.440284
O79	O	0.537996	0.090721	-0.118356
H80	H	0.473459	0.090146	-0.110302
H81	H	1.036802	0.001648	0.850483
H82	H	0.918527	-0.552245	0.202872
H83	H	0.842269	0.173394	0.836529
O84	O	0.318212	0.104451	0.251512
H85	H	0.362557	0.057754	0.258328
H86	H	0.923700	-0.240321	0.203256
H87	H	1.005902	0.028881	0.454227
O88	O	0.836730	0.178266	0.666437
H89	H	0.797175	0.213207	0.708565
H90	H	0.997966	0.035888	0.556804
H91	H	0.858242	0.159263	0.576365
H92	H	0.173670	0.088349	-0.052799
O93	O	0.925039	-0.097666	0.223321
H94	H	0.921743	-0.132870	0.275587
H95	H	0.437047	0.102195	0.164556
O96	O	0.708385	0.093798	-0.106129
H97	H	0.668790	0.090683	-0.161472
H98	H	0.932521	-0.564522	-0.070105
