data_functionalizedCrystal
_audit_creation_method	'MofGen! by Chris Wilmer'
_symmetry_space_group_name_H-M	'P1'
_symmetry_Int_Tables_number	1
_symmetry_cell_setting	triclinic
loop_
_symmetry_equiv_pos_as_xyz
  x,y,z
_cell_length_a	19.188930
_cell_length_b	19.188930
_cell_length_c	18.266242
_cell_angle_alpha	89.988525
_cell_angle_beta	89.977082
_cell_angle_gamma	83.144779
loop_
_atom_site_label
_atom_site_type_symbol
_atom_site_fract_x
_atom_site_fract_y
_atom_site_fract_z
O1	O	0.926149	0.087169	-0.061124
O2	O	1.426149	0.587169	0.438876
O3	O	0.722838	0.098903	-0.061075
O4	O	1.222838	0.598903	0.438925
O5	O	0.830361	-0.008620	-0.061087
O6	O	1.330361	0.491380	0.438913
O7	O	0.818627	0.194691	-0.061113
O8	O	1.318627	0.694691	0.438887
O9	O	0.830343	-0.008625	0.060675
O10	O	1.330343	0.491375	0.560675
O11	O	0.722820	0.098897	0.060687
O12	O	1.222820	0.598897	0.560687
O13	O	0.926131	0.087163	0.060638
O14	O	1.426131	0.587163	0.560638
Zn15	Zn	0.824473	0.093029	0.079994
Zn16	Zn	1.324473	0.593029	0.579994
Zn17	Zn	0.824497	0.093037	-0.080432
Zn18	Zn	1.324497	0.593037	0.419568
O19	O	0.818608	0.194686	0.060649
O20	O	1.318608	0.694686	0.560649
C21	C	0.696818	0.098520	-0.000188
C22	C	1.196818	0.598520	0.499812
C23	C	0.619313	0.097380	-0.000169
C24	C	1.119313	0.597380	0.499831
C25	C	0.829972	-0.034634	-0.000204
C26	C	1.329972	0.465366	0.499796
C27	C	0.828831	-0.112138	-0.000197
C28	C	1.328831	0.387862	0.499803
C29	C	0.574389	0.160470	-0.000188
C30	C	1.074389	0.660470	0.499812
C31	C	0.501566	0.159399	-0.000196
C32	C	1.001566	0.659399	0.499804
C33	C	0.473669	0.095233	-0.000199
C34	C	0.973669	0.595233	0.499801
C35	C	0.518603	0.032133	-0.000175
C36	C	1.018603	0.532133	0.499825
C37	C	0.591425	0.033207	-0.000160
C38	C	1.091425	0.533207	0.499840
N39	N	0.365695	0.046188	-0.041663
N40	N	0.865695	0.546188	0.458337
N41	N	0.296516	0.045172	-0.041679
N42	N	0.796516	0.545172	0.458321
C43	C	0.254260	0.091994	-0.000243
C44	C	0.754260	0.591994	0.499757
N45	N	0.283795	0.139881	0.041200
N46	N	0.783795	0.639881	0.541200
N47	N	0.352980	0.140899	0.041213
N48	N	0.852980	0.640899	0.541213
C49	C	0.394707	0.094062	-0.000215
C50	C	0.894707	0.594062	0.499785
C51	C	0.130372	0.153928	-0.000270
C52	C	0.630372	0.653928	0.499730
C53	C	0.057547	0.152853	-0.000274
C54	C	0.557547	0.652853	0.499726
C55	C	0.074586	0.025586	-0.000261
C56	C	0.574586	0.525586	0.499739
C57	C	0.147409	0.026662	-0.000250
C58	C	0.647409	0.526662	0.499750
C59	C	0.175298	0.090835	-0.000258
C60	C	0.675298	0.590835	0.499742
C61	C	0.891922	-0.157062	-0.000209
C62	C	1.391922	0.342938	0.499791
C63	C	0.890850	-0.229886	-0.000220
C64	C	1.390850	0.270114	0.499780
C65	C	0.826684	-0.257782	-0.000206
C66	C	1.326684	0.242218	0.499794
C67	C	0.763585	-0.212849	-0.000198
C68	C	1.263585	0.287151	0.499802
C69	C	0.764658	-0.140026	-0.000194
C70	C	1.264658	0.359974	0.499806
N71	N	0.777631	-0.365789	0.041244
N72	N	1.277631	0.134211	0.541244
N73	N	0.776615	-0.434968	0.041242
N74	N	1.276615	0.065032	0.541242
C75	C	0.823446	-0.477191	-0.000220
C76	C	1.323446	0.022809	0.499780
N77	N	0.871341	-0.447624	-0.041669
N78	N	1.371341	0.052376	0.458331
N79	N	0.872359	-0.378439	-0.041664
N80	N	1.372359	0.121561	0.458336
C81	C	0.825513	-0.336745	-0.000210
C82	C	1.325513	0.163255	0.499790
C83	C	0.885379	-0.601079	-0.000245
C84	C	1.385379	-0.101079	0.499755
C85	C	0.884305	-0.673904	-0.000261
C86	C	1.384305	-0.173904	0.499739
C87	C	0.757038	-0.656865	-0.000231
C88	C	1.257038	-0.156865	0.499769
C89	C	0.758114	-0.584042	-0.000222
C90	C	1.258114	-0.084042	0.499778
C91	C	0.822287	-0.556154	-0.000226
C92	C	1.322287	-0.056154	0.499774
C93	C	0.952151	0.087546	-0.000252
C94	C	1.452151	0.587546	0.499748
C95	C	1.029656	0.088687	-0.000276
C96	C	1.529656	0.588687	0.499724
C97	C	0.818997	0.220700	-0.000236
C98	C	1.318997	0.720700	0.499764
C99	C	0.820138	0.298204	-0.000247
C100	C	1.320138	0.798204	0.499753
N101	N	0.824461	0.093024	0.189481
N102	N	1.324461	0.593024	0.689481
N103	N	0.824513	0.093037	-0.189919
N104	N	1.324513	0.593037	0.310081
C105	C	0.872088	0.045436	0.227785
C106	C	1.372088	0.545436	0.727785
C107	C	0.872092	0.045433	0.304430
C108	C	1.372092	0.545433	0.804430
C109	C	0.824477	0.093030	0.342768
C110	C	1.324477	0.593030	0.842768
C111	C	0.776841	0.140621	0.304455
C112	C	1.276841	0.640621	0.804455
C113	C	0.776834	0.140618	0.227812
C114	C	1.276834	0.640618	0.727812
N115	N	0.815401	0.154837	0.463094
N116	N	1.315401	0.654837	0.963094
N117	N	0.815413	0.154838	0.535902
N118	N	1.315413	0.654838	1.035902
C119	C	0.824496	0.093040	0.573691
C120	C	1.324496	0.593040	1.073691
N121	N	0.833582	0.031239	0.535920
N122	N	1.333582	0.531239	1.035920
N123	N	0.833574	0.031240	0.463106
N124	N	1.333574	0.531240	0.963106
C125	C	0.824480	0.093038	0.425875
C126	C	1.324480	0.593038	0.925875
C127	C	0.872131	0.045444	0.695101
C128	C	1.372131	0.545444	1.195101
C129	C	0.872130	0.045440	0.771748
C130	C	1.372130	0.545440	1.271748
C131	C	0.776882	0.140634	0.771772
C132	C	1.276882	0.640634	1.271772
C133	C	0.776879	0.140632	0.695127
C134	C	1.276879	0.640632	1.195127
C135	C	0.824507	0.093038	0.656796
C136	C	1.324507	0.593038	1.156796
H137	H	0.597091	0.212725	-0.000196
H138	H	1.097091	0.712725	0.499804
N139	N	0.728247	0.189252	0.655985
N140	N	1.228247	0.689252	1.155985
N141	N	0.728250	0.189246	0.587554
N142	N	1.228250	0.689246	1.087554
H143	H	0.693901	0.223585	0.559908
H144	H	1.193901	0.723585	1.059908
H145	H	0.935683	-0.710481	-0.000274
H146	H	1.435683	-0.210481	0.499726
H147	H	0.713281	-0.103448	-0.000184
H148	H	1.213281	0.396552	0.499816
H149	H	0.628003	-0.018171	-0.000145
H150	H	1.128003	0.481829	0.499855
N151	N	0.455664	0.223846	-0.000206
N152	N	0.955664	0.723846	0.499794
N153	N	0.458056	0.266575	0.051114
N154	N	0.958056	0.766575	0.551114
H155	H	0.425639	0.312090	0.051107
H156	H	0.925639	0.812090	0.551107
H157	H	0.944176	-0.134360	-0.000214
H158	H	1.444176	0.365640	0.499786
H159	H	0.495885	-0.020111	-0.000188
H160	H	0.995885	0.479889	0.499812
N161	N	0.920773	-0.003173	0.810888
N162	N	1.420773	0.496827	1.310888
N163	N	0.964038	0.018863	0.853642
N164	N	1.464038	0.518863	1.353642
H165	H	0.998387	-0.015474	0.881291
H166	H	1.498387	0.484526	1.381291
N167	N	0.193312	-0.037778	-0.000231
N168	N	0.693312	0.462222	0.499769
N169	N	0.235819	-0.051378	0.051105
N170	N	0.735819	0.448622	0.551105
H171	H	0.268239	-0.096891	0.051121
H172	H	0.768239	0.403109	0.551121
N173	N	0.728195	0.189245	0.188683
N174	N	1.228195	0.689245	0.688683
N175	N	0.750213	0.232531	0.145898
N176	N	1.250213	0.732531	0.645898
H177	H	0.715863	0.266877	0.118262
H178	H	1.215863	0.766877	0.618262
N179	N	0.158853	0.219481	-0.000274
N180	N	0.658853	0.719481	0.499726
N181	N	0.118730	0.275810	-0.000283
N182	N	0.618730	0.775810	0.499717
H183	H	0.138843	0.322108	-0.000285
H184	H	0.638843	0.822108	0.499715
N185	N	0.011665	0.217309	-0.000285
N186	N	0.511665	0.717309	0.499715
N187	N	0.036579	0.274597	-0.000290
N188	N	0.536579	0.774597	0.499710
H189	H	0.004175	0.320121	-0.000297
H190	H	0.504175	0.820121	0.499703
H191	H	0.910868	0.006681	0.196579
H192	H	1.410868	0.506681	0.696579
N193	N	0.691499	-0.685363	-0.000209
N194	N	1.191499	-0.185363	0.499791
N195	N	0.676695	-0.724112	0.051117
N196	N	1.176695	-0.224112	0.551117
H197	H	0.630406	-0.744242	0.051130
H198	H	1.130406	-0.244242	0.551130
H199	H	0.706738	-0.547464	-0.000208
H200	H	1.206738	-0.047464	0.499792
H201	H	0.937632	-0.578372	-0.000251
H202	H	1.437632	-0.078372	0.499749
N203	N	0.046102	-0.039960	-0.000244
N204	N	0.546102	0.460040	0.499756
N205	N	0.007344	-0.054758	0.051081
N206	N	0.507344	0.445242	0.551081
H207	H	-0.012775	-0.101052	0.051097
H208	H	0.487225	0.398948	0.551097
H209	H	0.942228	-0.266470	-0.000233
H210	H	1.442228	0.233530	0.499767
N211	N	0.920746	-0.003186	0.343556
N212	N	1.420746	0.496814	0.843556
N213	N	0.963263	-0.045678	0.309323
N214	N	1.463263	0.454322	0.809323
H215	H	0.997626	-0.080015	0.336953
H216	H	1.497626	0.419985	0.836953
H217	H	0.910910	0.006688	0.663892
H218	H	1.410910	0.506688	1.163892
N219	N	0.698047	-0.241352	-0.000189
N220	N	1.198047	0.258648	0.499811
N221	N	0.697096	-0.306372	-0.000192
N222	N	1.197096	0.193628	0.499808
H223	H	0.650808	-0.326504	-0.000190
H224	H	1.150808	0.173496	0.499810
N225	N	0.728241	0.189243	0.810935
N226	N	1.228241	0.689243	1.310935
N227	N	0.728250	0.189236	0.879366
N228	N	1.228250	0.689236	1.379366
H229	H	0.693894	0.223564	0.907029
H230	H	1.193894	0.723564	1.407029
N231	N	0.728203	0.189231	0.343624
N232	N	1.228203	0.689231	0.843624
N233	N	0.728217	0.189228	0.412055
N234	N	1.228217	0.689228	0.912055
H235	H	0.693862	0.223557	0.439719
H236	H	1.193862	0.723557	0.939719
