data_functionalizedCrystal
_audit_creation_method	'MofGen! by Chris Wilmer'
_symmetry_space_group_name_H-M	'P1'
_symmetry_Int_Tables_number	1
_symmetry_cell_setting	triclinic
loop_
_symmetry_equiv_pos_as_xyz
  x,y,z
_cell_length_a	10.489741
_cell_length_b	10.489716
_cell_length_c	8.965430
_cell_angle_alpha	90.004464
_cell_angle_beta	89.998843
_cell_angle_gamma	84.534155
loop_
_atom_site_label
_atom_site_type_symbol
_atom_site_fract_x
_atom_site_fract_y
_atom_site_fract_z
O1	O	1.694038	0.179960	-0.123932
O2	O	1.322840	0.196853	-0.123954
O3	O	1.516902	0.002807	-0.123948
O4	O	1.499976	0.374007	-0.123938
O5	O	1.516885	0.002820	0.124131
O6	O	1.322824	0.196866	0.124125
O7	O	1.694021	0.179973	0.124146
Cu8	Cu	1.508421	0.188421	0.146787
Cu9	Cu	1.508440	0.188406	-0.146595
O10	O	1.499960	0.374020	0.124140
C11	C	1.275301	0.195584	0.000082
C12	C	1.133672	0.191767	0.000073
C13	C	1.065542	0.068301	0.000084
C14	C	0.973418	0.126618	-0.122227
C15	C	0.973436	0.126661	0.122359
C16	C	1.043413	0.250135	-0.122339
C17	C	1.043440	0.250160	0.122357
C18	C	0.951344	0.308568	0.000016
C19	C	1.515622	-0.044719	0.000087
C20	C	1.511817	-0.186350	0.000073
C21	C	1.630822	-0.284024	0.000093
C22	C	1.567945	-0.361391	-0.122222
C23	C	1.567901	-0.361342	0.122364
C24	C	1.448990	-0.261851	-0.122344
C25	C	1.448964	-0.261797	0.122352
C26	C	1.386000	-0.339115	0.000007
C27	C	1.741561	0.181243	0.000107
C28	C	1.883190	0.185060	0.000106
C29	C	1.501240	0.421545	0.000102
C30	C	1.505044	0.563176	0.000106
N31	N	1.508417	0.188431	0.353136
N32	N	1.508455	0.188386	-0.352944
C33	C	1.418642	0.278141	0.450439
C34	C	1.534136	0.303952	0.549861
C35	C	1.392971	0.162631	0.549842
C36	C	1.623970	0.214300	0.450369
C37	C	1.482728	0.072928	0.450341
C38	C	1.598306	0.098691	0.549718
H39	H	0.942456	0.074402	0.225764
H40	H	1.734335	-0.259347	-0.000025
H41	H	1.398788	-0.218553	-0.225867
O42	O	1.084584	0.319304	0.259332
H43	H	1.056869	0.267862	0.360723
H44	H	1.282408	-0.363546	-0.000065
O45	O	1.382472	-0.204123	0.259321
H46	H	1.432088	-0.244146	0.360717
O47	O	1.634449	-0.418905	0.259355
H48	H	1.735979	-0.397248	0.259090
O49	O	1.698998	-0.001830	0.607109
H50	H	1.652536	-0.072682	0.675230
H51	H	1.555890	0.401610	0.593573
H52	H	1.460939	-0.024699	0.406594
O53	O	1.634490	-0.419043	-0.259182
H54	H	1.736031	-0.397421	-0.258925
H55	H	0.942416	0.074372	-0.225637
H56	H	1.342793	0.354076	0.406848
O57	O	1.753346	0.243342	0.392756
H58	H	1.752298	0.243185	0.268959
O59	O	1.263636	0.133737	0.607731
H60	H	1.198922	0.120265	0.512242
O61	O	1.131272	-0.066184	-0.000021
H62	H	1.103382	-0.117143	-0.101695
H63	H	0.901911	0.410172	-0.000048
O64	O	1.084238	0.319227	-0.259504
H65	H	1.189811	0.321460	-0.258480
