data_functionalizedCrystal
_audit_creation_method	'MofGen! by Chris Wilmer'
_symmetry_space_group_name_H-M	'P1'
_symmetry_Int_Tables_number	1
_symmetry_cell_setting	triclinic
loop_
_symmetry_equiv_pos_as_xyz
  x,y,z
_cell_length_a	28.938199
_cell_length_b	28.937346
_cell_length_c	28.934044
_cell_angle_alpha	60.005004
_cell_angle_beta	60.009897
_cell_angle_gamma	59.994060
loop_
_atom_site_label
_atom_site_type_symbol
_atom_site_fract_x
_atom_site_fract_y
_atom_site_fract_z
O1	O	0.064043	-0.675186	0.564597
O2	O	0.024124	-0.525682	0.454913
O3	O	0.118795	-0.620275	0.454833
O4	O	-0.030629	-0.580593	0.564678
O5	O	0.150204	-0.588870	0.486157
O6	O	0.055533	-0.494276	0.486238
O7	O	0.095452	-0.643780	0.595921
Cu8	Cu	0.078360	-0.566161	0.543940
Cu9	Cu	0.041215	-0.603301	0.506895
O10	O	0.000780	-0.549187	0.596002
N11	N	0.104487	-0.540042	0.569998
N12	N	0.015094	-0.629425	0.480837
C13	C	0.165467	-0.323909	0.630915
C14	C	0.165587	-0.479117	0.786068
C15	C	0.165481	-0.479095	0.630906
C16	C	0.320696	-0.479083	0.630835
C17	C	0.182557	-0.375118	0.647971
C18	C	0.182626	-0.462038	0.734858
C19	C	0.269485	-0.462018	0.647928
C20	C	0.182566	-0.462025	0.647966
C21	C	0.143714	-0.258726	0.609206
C22	C	0.143738	-0.500820	0.609192
C23	C	0.204309	-0.440300	0.669680
C24	C	0.415481	-0.462740	0.580919
C25	C	0.474732	-0.482485	0.561145
C26	C	0.474757	-0.578356	0.597704
C27	C	0.415508	-0.558609	0.617479
C28	C	0.157989	-0.229089	0.550957
C29	C	0.138212	-0.169834	0.531225
C30	C	0.089890	-0.169857	0.627992
C31	C	0.109667	-0.229112	0.647725
C32	C	0.085482	-0.486515	0.623535
C33	C	0.065722	-0.506265	0.603789
C34	C	0.162467	-0.554625	0.555370
C35	C	0.182230	-0.534875	0.575110
C36	C	0.085661	-0.486557	0.880902
C37	C	0.065952	-0.506323	0.940155
C38	C	0.162734	-0.554693	0.940102
C39	C	0.182441	-0.534928	0.880847
C40	C	0.143904	-0.500859	0.851249
C41	C	0.385871	-0.500801	0.609083
C42	C	-0.110907	-0.668480	0.441278
C43	C	-0.024049	-0.668588	0.441475
C44	C	-0.045729	-0.690282	0.419668
C45	C	-0.062146	-0.785032	0.469507
C46	C	-0.042446	-0.844287	0.489286
C47	C	0.053426	-0.844399	0.452899
C48	C	0.033725	-0.785144	0.433120
C49	C	-0.140617	-0.682751	0.499509
C50	C	-0.199867	-0.662928	0.519152
C51	C	-0.199694	-0.614571	0.422330
C52	C	-0.140443	-0.634393	0.402687
C53	C	-0.038320	-0.610337	0.427144
C54	C	-0.018610	-0.590621	0.446974
C55	C	0.029642	-0.687402	0.495454
C56	C	0.009933	-0.707121	0.475630
C57	C	-0.038148	-0.610347	0.324832
C58	C	-0.018301	-0.590634	0.265579
C59	C	0.030035	-0.687421	0.265643
C60	C	0.010190	-0.707133	0.324897
C61	C	-0.023903	-0.668595	0.354491
C62	C	-0.024062	-0.755463	0.441426
N63	N	0.503527	-0.540005	0.569810
O64	O	0.684453	-0.545211	0.434650
O65	O	0.684643	-0.655237	0.584005
O66	O	0.684567	-0.654986	0.489282
O67	O	0.684529	-0.545462	0.529373
O68	O	0.590438	-0.623674	0.520735
O69	O	0.590513	-0.623924	0.615457
O70	O	0.590323	-0.513899	0.466102
Cu71	Cu	0.581823	-0.566053	0.543652
Cu72	Cu	0.693143	-0.603083	0.506456
O73	O	0.590399	-0.514149	0.560825
N74	N	0.771439	-0.629131	0.480292
N75	N	0.104456	-0.141061	0.570015
O76	O	-0.030629	0.039964	0.564688
O77	O	0.118732	0.039984	0.454661
O78	O	0.023980	0.039958	0.454946
O79	O	0.064123	0.039990	0.564403
O80	O	0.055392	-0.054179	0.486321
O81	O	0.150144	-0.054153	0.486036
O82	O	0.000784	-0.054173	0.596063
Cu83	Cu	0.078332	-0.062759	0.543914
Cu84	Cu	0.041183	0.048570	0.506810
O85	O	0.095535	-0.054147	0.595778
N86	N	0.015053	0.126872	0.480710
N87	N	0.104760	-0.540096	0.968910
O88	O	0.099447	-0.675167	1.149923
O89	O	-0.010552	-0.525757	1.149951
O90	O	-0.010297	-0.620493	1.149918
O91	O	0.099192	-0.580431	1.149956
O92	O	0.021064	-0.589100	1.055785
O93	O	0.020809	-0.494365	1.055818
O94	O	0.130808	-0.643774	1.055790
Cu95	Cu	0.078672	-0.566203	1.047209
Cu96	Cu	0.041584	-0.603328	1.158532
O97	O	0.130553	-0.549038	1.055823
N98	N	0.015495	-0.629442	1.236831
C99	C	0.036087	-0.491140	0.455465
C100	C	0.153325	-0.608283	0.455364
C101	C	0.083488	-0.678322	0.595370
C102	C	-0.033750	-0.561180	0.595470
C103	C	0.637601	-0.654732	0.618548
C104	C	0.637509	-0.654422	0.501245
C105	C	0.637362	-0.514403	0.431560
C106	C	0.637458	-0.514713	0.548862
C107	C	0.153215	-0.006966	0.455158
C108	C	0.035916	-0.007114	0.455550
C109	C	-0.033739	-0.007106	0.595527
C110	C	0.083600	-0.007076	0.595174
C111	C	-0.010020	-0.491238	1.102888
C112	C	-0.009698	-0.608550	1.102828
C113	C	0.130276	-0.678293	1.102853
C114	C	0.129961	-0.560974	1.102892
H115	H	0.018524	-0.494668	0.964293
H116	H	-0.044080	-0.617108	1.102779
C117	C	0.637439	-0.700325	0.489918
C118	C	0.589055	-0.715459	0.528505
C119	C	0.588975	-0.757748	0.518092
H120	H	0.637371	-0.686552	0.452473
H121	H	0.670272	-0.732525	0.494136
H122	H	0.556231	-0.683266	0.524282
H123	H	0.589113	-0.729242	0.565953
H124	H	0.621809	-0.789948	0.522310
H125	H	0.588909	-0.743971	0.480647
H126	H	0.556151	-0.768026	0.544275
C127	C	0.176246	-0.735553	1.102868
C128	C	0.155962	-0.770490	1.102863
C129	C	0.198292	-0.823243	1.102882
H130	H	0.208430	-0.730673	1.070052
H131	H	0.186530	-0.752526	1.135709
H132	H	0.145687	-0.753521	1.070024
H133	H	0.123785	-0.775386	1.135675
H134	H	0.208575	-0.840215	1.135724
H135	H	0.230472	-0.818357	1.070067
H136	H	0.184533	-0.846956	1.102884
H137	H	0.637300	-0.479859	0.388668
H138	H	0.027560	-0.448192	0.421017
H139	H	0.196241	-0.616742	0.420869
C140	C	0.175766	-0.549430	1.102869
C141	C	0.155249	-0.494165	1.102868
C142	C	0.197431	-0.483508	1.102839
H143	H	0.186113	-0.575493	1.135684
H144	H	0.207951	-0.553618	1.070027
H145	H	0.123074	-0.489982	1.135707
H146	H	0.144906	-0.468090	1.070056
H147	H	0.229616	-0.487696	1.069997
H148	H	0.207775	-0.509574	1.135654
H149	H	0.183518	-0.446008	1.102833
C150	C	-0.108475	-0.719688	0.541344
C151	C	-0.074445	-0.692957	0.532902
C152	C	-0.044824	-0.726970	0.571427
H153	H	-0.134593	-0.725363	0.578861
H154	H	-0.085339	-0.755220	0.535677
H155	H	-0.097580	-0.657436	0.538574
H156	H	-0.048317	-0.687283	0.495392
H157	H	-0.021688	-0.762502	0.565760
H158	H	-0.070946	-0.732643	0.608942
H159	H	-0.021727	-0.708840	0.565701
H160	H	0.092017	-0.721269	0.629819
H161	H	-0.076633	-0.007113	0.630069
C162	C	-0.091001	-0.549788	0.641405
C163	C	-0.125882	-0.494547	0.621043
C164	C	-0.178622	-0.484030	0.663345
H165	H	-0.108038	-0.575895	0.651751
H166	H	-0.086077	-0.554010	0.673565
H167	H	-0.130808	-0.490330	0.588892
H168	H	-0.108863	-0.468428	0.610701
H169	H	-0.173698	-0.488252	0.695505
H170	H	-0.195654	-0.510140	0.673688
H171	H	-0.202294	-0.446547	0.649537
C172	C	0.637413	-0.468897	0.560415
C173	C	0.637458	-0.489419	0.615665
C174	C	0.637408	-0.447227	0.626330
H175	H	0.670203	-0.458533	0.534338
H176	H	0.604549	-0.436720	0.556257
H177	H	0.670318	-0.521586	0.619818
H178	H	0.604669	-0.499780	0.641754
H179	H	0.604544	-0.415050	0.622172
H180	H	0.670199	-0.436866	0.600250
H181	H	0.637434	-0.461144	0.663819
H182	H	0.054276	-0.458811	0.856808
H183	H	0.637649	-0.689271	0.661445
H184	H	0.092195	-0.007066	0.629560
H185	H	0.194117	-0.582425	0.964198
C186	C	0.210317	-0.006578	0.409044
C187	C	0.245228	-0.006443	0.429269
C188	C	0.297832	-0.006078	0.386802
H189	H	0.227456	-0.039324	0.398578
H190	H	0.205179	0.026335	0.376982
H191	H	0.250368	-0.039352	0.461320
H192	H	0.228107	0.026301	0.439730
H193	H	0.292693	0.026834	0.354740
H194	H	0.314966	-0.038825	0.376339
H195	H	0.321524	-0.005981	0.400517
H196	H	-0.044554	-0.448327	1.102896
C197	C	0.245702	-0.550494	0.848755
C198	C	0.275230	-0.584545	0.887361
C199	C	0.333505	-0.598887	0.857820
H200	H	0.255484	-0.570623	0.825635
H201	H	0.255423	-0.516993	0.825655
H202	H	0.265514	-0.618040	0.910452
H203	H	0.265465	-0.564427	0.910482
H204	H	0.343226	-0.565386	0.834720
H205	H	0.343282	-0.619014	0.834701
H206	H	0.353547	-0.621987	0.884010
C207	C	0.024480	-0.007256	0.409755
C208	C	0.011289	-0.055708	0.429181
C209	C	0.000765	-0.055870	0.387008
H210	H	-0.006413	0.025524	0.400914
H211	H	0.057191	-0.007289	0.376811
H212	H	-0.021418	-0.055671	0.462115
H213	H	0.042175	-0.088496	0.438018
H214	H	0.033475	-0.055902	0.354064
H215	H	-0.030128	-0.023087	0.378169
H216	H	-0.008182	-0.088746	0.400180
C217	C	0.043600	-0.449521	0.660503
C218	C	-0.011646	-0.441205	0.668818
C219	C	-0.050243	-0.407122	0.702865
H220	H	0.049242	-0.467571	0.696040
H221	H	0.049248	-0.413983	0.642412
H222	H	-0.017292	-0.476736	0.686910
H223	H	-0.017306	-0.423148	0.633291
H224	H	-0.044595	-0.371584	0.684774
H225	H	-0.044597	-0.425176	0.738400
H226	H	-0.087732	-0.401471	0.708507
H227	H	0.193817	-0.582360	0.527624
C228	C	0.245495	-0.550367	0.559421
C229	C	0.269836	-0.530214	0.500478
C230	C	0.328113	-0.544478	0.486002
H231	H	0.251826	-0.533734	0.576001
H232	H	0.262186	-0.590351	0.572998
H233	H	0.253150	-0.490238	0.486906
H234	H	0.263521	-0.546844	0.483884
H235	H	0.344805	-0.584461	0.499580
H236	H	0.334439	-0.527844	0.502586
H237	H	0.344637	-0.530811	0.446008
C238	C	0.383397	-0.599951	0.647949
C239	C	0.397787	-0.627460	0.611887
C240	C	0.368215	-0.665547	0.639931
H241	H	0.393110	-0.627137	0.680865
H242	H	0.343858	-0.579937	0.658510
H243	H	0.437317	-0.647474	0.601333
H244	H	0.388072	-0.600289	0.578970
H245	H	0.328676	-0.645532	0.650493
H246	H	0.377931	-0.692729	0.672847
H247	H	0.377970	-0.684212	0.615466
C248	C	0.506782	-0.441068	0.530550
C249	C	0.468148	-0.386212	0.527416
C250	C	0.497653	-0.348045	0.499226
H251	H	0.529919	-0.450904	0.550687
H252	H	0.529862	-0.442546	0.493409
H253	H	0.445078	-0.384736	0.564551
H254	H	0.445011	-0.376359	0.507276
H255	H	0.520733	-0.349523	0.462085
H256	H	0.520789	-0.357886	0.519365
H257	H	0.471445	-0.310821	0.497091
H258	H	0.057785	-0.718806	0.241554
C259	C	0.383273	-0.399966	0.571721
C260	C	0.349242	-0.379625	0.539722
C261	C	0.319572	-0.321800	0.531230
H262	H	0.360130	-0.394399	0.607287
H263	H	0.409378	-0.380102	0.552089
H264	H	0.323140	-0.399482	0.559354
H265	H	0.372371	-0.385177	0.504151
H266	H	0.345677	-0.301936	0.511598
H267	H	0.296432	-0.316239	0.566798
H268	H	0.296482	-0.307990	0.509514
H269	H	0.185713	-0.253197	0.519589
C270	C	0.153791	-0.137754	0.467959
C271	C	0.187854	-0.176372	0.438450
C272	C	0.202220	-0.146844	0.380168
H273	H	0.120317	-0.114642	0.458188
H274	H	0.173915	-0.114644	0.458209
H275	H	0.167730	-0.199473	0.448195
H276	H	0.221335	-0.199485	0.448203
H277	H	0.222344	-0.123734	0.370419
H278	H	0.168743	-0.123733	0.370404
H279	H	0.225337	-0.173042	0.360140
H280	H	0.498884	-0.625426	0.604536
C281	C	0.052912	-0.137803	0.669902
C282	C	0.044640	-0.176443	0.725139
C283	C	0.010572	-0.146938	0.763761
H284	H	0.070955	-0.114680	0.664273
H285	H	0.017364	-0.114706	0.664265
H286	H	0.080182	-0.199530	0.730773
H287	H	0.026591	-0.199567	0.730786
H288	H	-0.024976	-0.123841	0.758125
H289	H	0.028618	-0.123816	0.758127
H290	H	0.004951	-0.173150	0.801244
H291	H	0.098041	-0.253238	0.695156
C292	C	-0.033864	-0.527367	0.233487
C293	C	-0.067981	-0.497841	0.272089
C294	C	-0.082334	-0.439560	0.242545
H295	H	-0.000387	-0.517615	0.210428
H296	H	-0.053944	-0.517612	0.210324
H297	H	-0.047900	-0.507591	0.295241
H298	H	-0.101465	-0.507575	0.295149
H299	H	-0.102415	-0.429805	0.219383
H300	H	-0.048854	-0.429814	0.219487
H301	H	-0.105488	-0.419519	0.268732
H302	H	-0.065911	-0.578960	0.348925
C303	C	0.025694	-0.770400	0.356994
C304	C	0.059782	-0.799927	0.318393
C305	C	0.074068	-0.858208	0.347938
H306	H	0.045776	-0.780214	0.380174
H307	H	-0.007824	-0.780092	0.380036
H308	H	0.093295	-0.790240	0.295361
H309	H	0.039712	-0.790131	0.295212
H310	H	0.040550	-0.867900	0.370980
H311	H	0.094148	-0.868016	0.371117
H312	H	0.097194	-0.878250	0.321752
H313	H	-0.065985	-0.578958	0.399332
C314	C	-0.034007	-0.527371	0.431298
C315	C	-0.013743	-0.503039	0.372361
C316	C	-0.027902	-0.444778	0.357897
H317	H	-0.073975	-0.510596	0.444791
H318	H	-0.017380	-0.521132	0.447965
H319	H	-0.030372	-0.509274	0.355701
H320	H	0.026223	-0.519797	0.358854
H321	H	-0.011275	-0.438538	0.374564
H322	H	-0.067869	-0.428008	0.371394
H323	H	-0.014150	-0.428262	0.317908
C324	C	0.066509	-0.729329	0.532549
C325	C	0.074775	-0.784561	0.540860
C326	C	0.108727	-0.823201	0.575037
H327	H	0.102065	-0.723758	0.514572
H328	H	0.048367	-0.723649	0.568080
H329	H	0.092918	-0.790239	0.505336
H330	H	0.039229	-0.790150	0.558844
H331	H	0.090585	-0.817521	0.610568
H332	H	0.144281	-0.817625	0.557056
H333	H	0.114336	-0.860680	0.580685
H334	H	0.021552	-0.754553	0.487300
C335	C	0.075162	-0.753142	0.402669
C336	C	0.129983	-0.791821	0.399646
C337	C	0.168168	-0.762361	0.371605
H338	H	0.073787	-0.730034	0.365504
H339	H	0.065256	-0.730034	0.422872
H340	H	0.139885	-0.814919	0.379443
H341	H	0.131376	-0.814930	0.436803
H342	H	0.158262	-0.739253	0.391807
H343	H	0.166788	-0.739255	0.334441
H344	H	0.205367	-0.788600	0.369554
H345	H	0.100481	-0.868567	0.446139
C346	C	-0.083884	-0.876287	0.519744
C347	C	-0.111398	-0.861848	0.483666
C348	C	-0.149597	-0.891297	0.511732
H349	H	-0.063975	-0.915843	0.530371
H350	H	-0.111049	-0.866493	0.552627
H351	H	-0.084237	-0.871647	0.450793
H352	H	-0.131318	-0.822297	0.473037
H353	H	-0.176762	-0.881502	0.544615
H354	H	-0.129684	-0.930851	0.522358
H355	H	-0.168274	-0.881500	0.487259
C356	C	-0.232026	-0.678510	0.582401
C357	C	-0.193477	-0.712620	0.611993
C358	C	-0.223080	-0.726995	0.670257
H359	H	-0.255144	-0.645039	0.592173
H360	H	-0.255132	-0.698607	0.592079
H361	H	-0.170380	-0.692524	0.602318
H362	H	-0.170358	-0.746099	0.602237
H363	H	-0.246186	-0.747092	0.679935
H364	H	-0.246197	-0.693521	0.680023
H365	H	-0.196929	-0.750144	0.690342
C366	C	-0.231664	-0.577552	0.380343
C367	C	-0.192963	-0.569296	0.325140
C368	C	-0.222392	-0.535190	0.286447
H369	H	-0.254784	-0.595563	0.385912
H370	H	-0.254753	-0.541997	0.385969
H371	H	-0.169883	-0.604843	0.319516
H372	H	-0.169842	-0.551278	0.319553
H373	H	-0.245481	-0.499636	0.292073
H374	H	-0.245511	-0.553205	0.292021
H375	H	-0.196138	-0.529580	0.248987
H376	H	0.018285	-0.494604	0.615454
C377	C	-0.124856	-0.752727	0.478398
C378	C	-0.132693	-0.718707	0.425801
C379	C	-0.190454	-0.688929	0.433965
H380	H	-0.144785	-0.778754	0.497924
H381	H	-0.138791	-0.729567	0.500083
H382	H	-0.118766	-0.741864	0.404126
H383	H	-0.112778	-0.692669	0.406268
H384	H	-0.204388	-0.665769	0.455650
H385	H	-0.210378	-0.714960	0.453492
H386	H	-0.195778	-0.665839	0.398281
H387	H	-0.116252	-0.622767	0.355267
