data_functionalizedCrystal
_audit_creation_method	'MofGen! by Chris Wilmer'
_symmetry_space_group_name_H-M	'P1'
_symmetry_Int_Tables_number	1
_symmetry_cell_setting	triclinic
loop_
_symmetry_equiv_pos_as_xyz
  x,y,z
_cell_length_a	14.908742
_cell_length_b	14.908178
_cell_length_c	17.077396
_cell_angle_alpha	93.326565
_cell_angle_beta	86.716548
_cell_angle_gamma	90.210560
loop_
_atom_site_label
_atom_site_type_symbol
_atom_site_fract_x
_atom_site_fract_y
_atom_site_fract_z
Zn1	Zn	1.353940	-0.437273	0.353739
Zn2	Zn	1.853940	0.062727	0.853739
Zn3	Zn	1.345170	-0.587650	0.215359
Zn4	Zn	1.845170	-0.087650	0.715359
Zn5	Zn	1.203581	-0.428632	0.230488
Zn6	Zn	1.703581	0.071368	0.730488
Zn7	Zn	1.194885	-0.578929	0.354584
Zn8	Zn	1.694885	-0.078929	0.854584
O9	O	1.274394	-0.508121	0.288542
O10	O	1.774394	-0.008121	0.788542
O11	O	1.478597	-0.464487	0.328698
O12	O	1.978597	0.035513	0.828698
O13	O	1.326357	-0.566590	0.107519
O14	O	1.826357	-0.066590	0.607519
O15	O	1.230837	-0.303945	0.252815
O16	O	1.730837	0.196055	0.752815
O17	O	1.472153	-0.574968	0.227031
O18	O	1.972153	-0.074968	0.727031
O19	O	1.341305	-0.310293	0.343367
O20	O	1.841305	0.189707	0.843367
O21	O	1.222332	-0.449760	0.118634
O22	O	1.722332	0.050240	0.618634
O23	O	1.076608	-0.441303	0.253634
O24	O	1.576608	0.058697	0.753634
O25	O	1.216016	-0.560104	0.464319
O26	O	1.716016	-0.060104	0.964319
O27	O	1.070219	-0.551725	0.344807
O28	O	1.570219	-0.051725	0.844807
O29	O	1.332873	-0.456030	0.463698
O30	O	1.832873	0.043970	0.963698
O31	O	1.317924	-0.712326	0.227850
O32	O	1.817924	-0.212326	0.727850
O33	O	1.207511	-0.705919	0.330138
O34	O	1.707511	-0.205919	0.830138
C35	C	1.040789	-0.494631	0.300954
C36	C	1.540789	0.005369	0.800954
C37	C	0.940851	-0.488882	0.306282
C38	C	1.440851	0.011118	0.806282
C39	C	0.803337	-0.423358	0.366790
C40	C	1.303337	0.076642	0.866790
C41	C	0.897239	-0.428752	0.361789
C42	C	1.397239	0.071248	0.861789
C43	C	0.890554	-0.543622	0.255773
C44	C	1.390554	-0.043622	0.755773
C45	C	0.796653	-0.538228	0.260775
C46	C	1.296653	-0.038228	0.760775
C47	C	0.753048	-0.478093	0.316284
C48	C	1.253048	0.021907	0.816284
C49	C	0.659145	-0.472695	0.321281
C50	C	1.159145	0.027305	0.821281
C51	C	0.652462	-0.587569	0.215270
C52	C	1.152462	-0.087569	0.715270
C53	C	0.746364	-0.592963	0.210268
C54	C	1.246364	-0.092963	0.710268
C55	C	1.260847	-0.741751	0.277460
C56	C	1.760847	-0.241751	0.777460
C57	C	1.255133	-0.841704	0.272740
C58	C	1.755133	-0.341704	0.772740
C59	C	1.359341	-1.035981	0.358277
C60	C	1.859341	-0.535981	0.858277
C61	C	1.353975	-1.129895	0.353845
C62	C	1.853975	-0.629895	0.853845
C63	C	1.239034	-1.123449	0.259450
C64	C	1.739034	-0.623449	0.759450
C65	C	1.244399	-1.029534	0.263882
C66	C	1.744399	-0.529534	0.763882
C67	C	1.304555	-0.985804	0.313296
C68	C	1.804555	-0.485804	0.813296
C69	C	1.309924	-0.891887	0.317723
C70	C	1.809924	-0.391887	0.817723
C71	C	1.194979	-0.885443	0.223332
C72	C	1.694979	-0.385443	0.723332
C73	C	1.189614	-0.979357	0.218901
C74	C	1.689614	-0.479357	0.718901
C75	C	1.508911	-0.521664	0.276083
C76	C	2.008911	-0.021664	0.776083
C77	C	1.608848	-0.527435	0.270773
C78	C	2.108848	-0.027435	0.770773
C79	C	1.274452	-0.508058	0.493287
C80	C	1.774452	-0.008058	0.993287
C81	C	1.274477	-0.508031	0.580537
C82	C	1.774477	-0.008031	1.080537
C83	C	1.288019	-0.273580	0.299684
C84	C	1.788019	0.226420	0.799684
C85	C	1.293825	-0.173633	0.304432
C86	C	1.793825	0.326367	0.804432
C87	C	1.274392	-0.508122	0.084595
C88	C	1.774392	-0.008122	0.584595
C89	C	1.274556	-0.507905	-0.002652
C90	C	1.774556	-0.007905	0.497348
C91	C	1.335327	-0.453835	0.621205
C92	C	1.835327	0.046165	1.121205
C93	C	1.335340	-0.453806	0.703187
C94	C	1.835340	0.046194	1.203187
C95	C	1.274506	-0.507978	0.744498
C96	C	1.774506	-0.007978	1.244498
C97	C	1.213650	-0.562176	0.703824
C98	C	1.713650	-0.062176	1.203824
C99	C	1.213634	-0.562200	0.621844
C100	C	1.713634	-0.062200	1.121844
C101	C	1.213689	-0.562124	0.874695
C102	C	1.713689	-0.062124	1.374695
C103	C	1.213706	-0.562101	0.956680
C104	C	1.713706	-0.062101	1.456680
C105	C	1.335395	-0.453730	0.956037
C106	C	1.835395	0.046270	1.456037
C107	C	1.335379	-0.453754	0.874057
C108	C	1.835379	0.046246	1.374057
C109	C	1.274524	-0.507953	0.833389
C110	C	1.774524	-0.007953	1.333389
H111	H	0.623643	-0.423726	0.366477
H112	H	1.123643	0.076274	0.866477
H113	H	0.938181	-0.384182	0.402917
H114	H	1.438181	0.115818	0.902917
F115	F	1.148902	-0.619826	0.747793
F116	F	1.648902	-0.119826	1.247793
F117	F	1.412283	-1.183294	0.401722
F118	F	1.912283	-0.683294	0.901722
F119	F	1.148867	-0.619880	0.578563
F120	F	1.648867	-0.119880	1.078563
H121	H	0.767834	-0.374385	0.411981
H122	H	1.267834	0.125615	0.911981
F123	F	1.400130	-0.396103	0.830092
F124	F	1.900130	0.103897	1.330092
F125	F	0.936977	-0.607625	0.196707
F126	F	1.436977	-0.107625	0.696707
H127	H	1.190054	-1.159070	0.219223
H128	H	1.690054	-0.659070	0.719223
F129	F	0.792781	-0.656962	0.151196
F130	F	1.292781	-0.156962	0.651196
F131	F	1.125589	-1.025908	0.166319
F132	F	1.625589	-0.525908	0.666319
H133	H	1.164168	-0.606211	0.990313
H134	H	1.664168	-0.106211	1.490313
H135	H	1.150372	-0.844578	0.186703
H136	H	1.650372	-0.344578	0.686703
F137	F	0.598934	-0.645821	0.161510
F138	F	1.098934	-0.145821	0.661510
F139	F	1.373950	-0.845347	0.370311
F140	F	1.873950	-0.345347	0.870311
F141	F	1.423371	-0.989438	0.410858
F142	F	1.923371	-0.489438	0.910858
H143	H	1.384868	-0.409725	0.587575
H144	H	1.884868	0.090275	1.087575
H145	H	1.384892	-0.409676	0.736295
H146	H	1.884892	0.090324	1.236295
H147	H	1.384944	-0.409597	0.989153
H148	H	1.884944	0.090403	1.489153
H149	H	1.164121	-0.606244	0.841586
H150	H	1.664121	-0.106244	1.341586
