data_functionalizedCrystal
_audit_creation_method	'MofGen! by Chris Wilmer'
_symmetry_space_group_name_H-M	'P1'
_symmetry_Int_Tables_number	1
_symmetry_cell_setting	triclinic
loop_
_symmetry_equiv_pos_as_xyz
  x,y,z
_cell_length_a	23.532407
_cell_length_b	15.944551
_cell_length_c	14.421503
_cell_angle_alpha	89.996660
_cell_angle_beta	90.002238
_cell_angle_gamma	83.173708
loop_
_atom_site_label
_atom_site_type_symbol
_atom_site_fract_x
_atom_site_fract_y
_atom_site_fract_z
O1	O	-0.755658	-0.101953	-0.076998
O2	O	-0.589852	-0.116706	-0.077025
O3	O	-0.677283	0.012983	-0.077003
O4	O	-0.668227	-0.231642	-0.077021
O5	O	-0.677268	0.012964	0.077221
O6	O	-0.589837	-0.116726	0.077198
O7	O	-0.755643	-0.101972	0.077225
Cu8	Cu	-0.672739	-0.109351	0.091294
Cu9	Cu	-0.672756	-0.109328	-0.091094
O10	O	-0.668213	-0.231662	0.077203
C11	C	-0.568627	-0.116340	0.000083
C12	C	-0.505406	-0.115211	0.000073
C13	C	-0.776868	-0.102338	0.000115
C14	C	-0.840090	-0.103468	0.000119
C15	C	-0.676899	0.044265	0.000109
C16	C	-0.675772	0.137501	0.000110
C17	C	-0.106572	-0.184874	0.000109
C18	C	-0.047168	-0.183824	0.000115
O19	O	-0.010674	-0.248403	0.000144
N20	N	-0.024243	-0.106724	0.000119
C21	C	-0.060726	-0.030668	0.000127
O22	O	-0.035772	0.035009	0.000132
C23	C	-0.120129	-0.031718	0.000128
C24	C	-0.143051	-0.108823	0.000114
C25	C	-0.129494	-0.261973	0.000097
C26	C	-0.188894	-0.263022	0.000089
C27	C	-0.225373	-0.186971	0.000094
C28	C	-0.202451	-0.109872	0.000107
C29	C	-0.156611	0.044337	0.000143
C30	C	-0.216018	0.043281	0.000144
C31	C	-0.238939	-0.033825	0.000131
C32	C	-0.298329	-0.034871	0.000105
N33	N	-0.321254	-0.111971	0.000100
C34	C	-0.284776	-0.188022	0.000095
C35	C	0.064025	-0.028468	0.000127
C36	C	0.123427	-0.027417	0.000119
C37	C	0.136981	-0.180574	0.000109
C38	C	0.077578	-0.181624	0.000110
C39	C	0.041100	-0.105569	0.000123
C40	C	-0.409521	-0.190219	0.000079
C41	C	-0.468927	-0.191261	0.000067
C42	C	-0.482476	-0.038104	0.000083
C43	C	-0.423075	-0.037062	0.000089
C44	C	-0.386599	-0.113126	0.000090
O45	O	-0.334859	0.029673	0.000080
O46	O	-0.309738	-0.253687	0.000103
C47	C	-0.668596	-0.262943	0.000089
C48	C	-0.669723	-0.356179	0.000082
N49	N	-0.672731	-0.109366	0.219575
C50	C	-0.618885	0.351879	0.000087
C51	C	-0.645294	0.413109	0.076133
C52	C	-0.673733	0.308210	0.000102
C53	C	-0.645322	0.413111	-0.075919
C54	C	-0.671760	0.473106	0.000091
C55	C	-0.700158	0.368212	0.076211
C56	C	-0.700178	0.368208	-0.075910
C57	C	-0.726627	0.429421	0.000155
C58	C	-0.674869	0.213217	0.000109
C59	C	-0.670629	0.568097	0.000090
N60	N	-0.672769	-0.109306	-0.219375
C61	C	-0.632296	-0.169308	0.469218
C62	C	-0.683757	-0.185182	0.531028
C63	C	-0.672745	-0.109346	0.408736
C64	C	-0.621298	-0.093492	0.531020
C65	C	-0.672754	-0.109328	0.591458
C66	C	-0.724232	-0.125257	0.469185
C67	C	-0.661739	-0.033535	0.469172
C68	C	-0.713237	-0.049376	0.530954
C69	C	-0.672739	-0.109358	0.303475
C70	C	-0.672766	-0.109315	0.696717
H71	H	-0.487586	-0.254052	0.000056
C72	C	-0.783027	-0.143471	0.432649
N73	N	-0.827309	-0.157193	0.405127
C74	C	-0.613977	0.439993	-0.162771
N75	N	-0.590365	0.460236	-0.228185
C76	C	-0.731499	0.341284	-0.162759
N77	N	-0.755086	0.321002	-0.228181
C78	C	-0.788184	0.474745	0.000225
N79	N	-0.834547	0.508885	0.000284
H80	H	-0.747484	0.001343	0.557891
C81	C	-0.586135	-0.237865	0.432586
N82	N	-0.551370	-0.289504	0.404992
H83	H	0.058920	-0.244410	0.000104
H84	H	-0.693074	-0.249286	0.558197
C85	C	-0.613945	0.440004	0.162974
N86	N	-0.590330	0.460259	0.228380
C87	C	-0.649128	0.053038	0.432432
N88	N	-0.639623	0.118244	0.404756
H89	H	-0.379828	-0.252157	0.000083
C90	C	-0.089376	-0.345642	0.000095
N91	N	-0.059163	-0.408667	0.000088
C92	C	-0.214100	-0.347844	0.000094
N93	N	-0.233080	-0.411737	0.000105
C94	C	0.177119	-0.264231	0.000113
N95	N	0.207352	-0.327238	0.000117
C96	C	-0.562515	-0.075382	0.567710
N97	N	-0.518238	-0.061747	0.595341
H98	H	0.142084	0.035370	0.000116
H99	H	-0.137960	0.107125	0.000154
C100	C	0.023904	0.055205	0.000126
N101	N	-0.006313	0.118227	0.000124
H102	H	-0.404412	0.025724	0.000087
C103	C	-0.256140	0.126950	0.000154
N104	N	-0.286359	0.189970	0.000158
C105	C	-0.522613	0.045547	0.000099
N106	N	-0.552846	0.108553	0.000122
H107	H	-0.573358	0.318187	0.000156
H108	H	-0.723331	0.348409	0.140572
