data_functionalizedCrystal
_audit_creation_method	'MofGen! by Chris Wilmer'
_symmetry_space_group_name_H-M	'P1'
_symmetry_Int_Tables_number	1
_symmetry_cell_setting	triclinic
loop_
_symmetry_equiv_pos_as_xyz
  x,y,z
_cell_length_a	23.532355
_cell_length_b	22.610064
_cell_length_c	23.532407
_cell_angle_alpha	89.999397
_cell_angle_beta	97.161912
_cell_angle_gamma	90.002356
loop_
_atom_site_label
_atom_site_type_symbol
_atom_site_fract_x
_atom_site_fract_y
_atom_site_fract_z
O1	O	0.755283	0.049110	-0.068986
O2	O	0.589415	0.049130	-0.079020
O3	O	0.677351	0.049108	0.008929
O4	O	0.667347	0.049131	-0.156936
O5	O	0.677335	-0.049261	0.008916
O6	O	0.589400	-0.049239	-0.079033
O7	O	0.755267	-0.049259	-0.068999
Zn8	Zn	0.672331	-0.064868	-0.074018
Zn9	Zn	0.672351	0.064738	-0.074001
O10	O	0.667332	-0.049238	-0.156949
C11	C	0.568191	-0.000052	-0.078776
C12	C	0.504972	-0.000045	-0.078022
N13	N	0.672321	-0.153320	-0.074029
C14	C	0.112950	-0.053692	-0.073291
C15	C	0.053550	-0.053694	-0.072573
O16	O	0.022825	-0.099296	-0.072189
N17	N	0.023850	-0.000074	-0.072211
C18	C	0.053554	0.053553	-0.072560
O19	O	0.022837	0.099162	-0.072185
C20	C	0.112953	0.053555	-0.073273
C21	C	0.142649	-0.000069	-0.073641
C22	C	0.142646	-0.107312	-0.073659
C23	C	0.202041	-0.107309	-0.074377
C24	C	0.231740	-0.053687	-0.074728
C25	C	0.202044	-0.000067	-0.074360
C26	C	0.142655	0.107181	-0.073618
C27	C	0.202058	0.107178	-0.074331
C28	C	0.231754	0.053554	-0.074699
C29	C	0.291138	0.053558	-0.075429
N30	N	0.320838	-0.000062	-0.075792
C31	C	0.291139	-0.053685	-0.075441
C32	C	-0.071188	0.053545	-0.071061
C33	C	-0.130586	0.053544	-0.070351
C34	C	-0.130585	-0.053703	-0.070364
C35	C	-0.071186	-0.053702	-0.071077
C36	C	-0.041488	-0.000075	-0.071423
C37	C	0.415873	-0.053675	-0.076951
C38	C	0.475273	-0.053668	-0.077671
C39	C	0.475267	0.053579	-0.077656
C40	C	0.415872	0.053572	-0.076938
C41	C	0.386177	-0.000060	-0.076583
O42	O	0.321902	0.099137	-0.075812
O43	O	0.321864	-0.099286	-0.075809
C44	C	0.711291	-0.561971	-0.035063
C45	C	0.711294	-0.623891	-0.035059
O46	O	0.744403	-0.655917	-0.001937
N47	N	0.672351	-0.654857	-0.073990
C48	C	0.633399	-0.623900	-0.112923
O49	O	0.600275	-0.655926	-0.146036
C50	C	0.633394	-0.561982	-0.112924
C51	C	0.672343	-0.531018	-0.073995
C52	C	0.750237	-0.531007	0.003863
C53	C	0.750234	-0.469092	0.003858
C54	C	0.711286	-0.438139	-0.035073
C55	C	0.672340	-0.469103	-0.074000
C56	C	0.594439	-0.531026	-0.151854
C57	C	0.594437	-0.469103	-0.151851
C58	C	0.633386	-0.438140	-0.112922
C59	C	0.633390	-0.376235	-0.112936
N60	N	0.672333	-0.345268	-0.074006
C61	C	0.711281	-0.376221	-0.035074
C62	C	0.633412	-0.753934	-0.112917
C63	C	0.633419	-0.815852	-0.112919
C64	C	0.711314	-0.815838	-0.035055
C65	C	0.711309	-0.753919	-0.035056
C66	C	0.672355	-0.722968	-0.073987
C67	C	0.711273	-0.246193	-0.035088
C68	C	0.711269	-0.184272	-0.035098
C69	C	0.633373	-0.184292	-0.112960
C70	C	0.633379	-0.246207	-0.112953
C71	C	0.672331	-0.277157	-0.074012
O72	O	0.600296	-0.344169	-0.146040
O73	O	0.744395	-0.344188	-0.001962
C74	C	0.776491	-0.000076	-0.069244
C75	C	0.839710	-0.000079	-0.069998
C76	C	0.677088	-0.000078	0.030139
C77	C	0.676322	-0.000082	0.093356
N78	N	0.672366	0.153191	-0.073986
C79	C	0.667594	-0.000050	-0.178158
C80	C	0.668360	-0.000042	-0.241375
C81	C	0.723557	-0.000055	0.492468
C82	C	0.722845	-0.000051	0.551868
O83	O	0.766632	-0.000034	0.588620
N84	N	0.670568	-0.000045	0.574484
C85	C	0.618998	-0.000038	0.537697
O86	O	0.574467	-0.000032	0.562388
C87	C	0.619710	-0.000038	0.478298
C88	C	0.671991	-0.000050	0.455685
C89	C	0.775834	-0.000066	0.469854
C90	C	0.776545	-0.000072	0.410458
C91	C	0.724979	-0.000067	0.373676
C92	C	0.672703	-0.000055	0.396289
C93	C	0.568141	-0.000027	0.441512
C94	C	0.568858	-0.000026	0.382110
C95	C	0.621139	-0.000038	0.359497
C96	C	0.621848	-0.000056	0.300110
N97	N	0.674126	-0.000061	0.277494
C98	C	0.725691	-0.000067	0.314277
C99	C	0.617507	-0.000036	0.662439
C100	C	0.616794	-0.000040	0.721837
C101	C	0.720642	-0.000052	0.736004
C102	C	0.721354	-0.000052	0.676605
C103	C	0.669784	-0.000042	0.639823
C104	C	0.727181	-0.000079	0.189540
C105	C	0.727888	-0.000087	0.130138
C106	C	0.624041	-0.000072	0.115977
C107	C	0.623334	-0.000067	0.175373
C108	C	0.674909	-0.000069	0.212154
O109	O	0.578084	-0.000070	0.263323
O110	O	0.770216	-0.000065	0.289577
H111	H	0.499449	-0.097337	-0.077973
H112	H	0.574222	-0.000040	0.740243
H113	H	0.601709	-0.841058	-0.144625
H114	H	0.391701	-0.097348	-0.076667
H115	H	0.781953	-0.556203	0.035569
H116	H	0.118487	0.150848	-0.073317
C117	C	0.510627	-0.000010	0.466372
N118	N	0.467304	0.000005	0.485095
C119	C	0.590583	-0.719893	-0.155773
N120	N	0.558331	-0.694257	-0.188060
C121	C	0.590536	-0.280268	-0.155780
N122	N	0.558263	-0.305918	-0.188034
H123	H	0.575510	-0.000033	0.632494
H124	H	0.226215	-0.150976	-0.074674
H125	H	0.601663	-0.159081	-0.144660
H126	H	0.118472	-0.150980	-0.073372
H127	H	0.526863	-0.000017	0.352164
H128	H	0.769178	-0.000078	0.219481
C129	C	0.234723	0.166173	-0.074713
N130	N	0.259324	0.210608	-0.075003
C131	C	0.793076	-0.435040	0.046690
N132	N	0.825344	-0.409397	0.078956
H133	H	0.580762	-0.000074	0.193785
C134	C	0.383205	0.112561	-0.076539
N135	N	0.358604	0.156993	-0.076233
H136	H	0.582057	-0.000070	0.086018
C137	C	0.754152	-0.719865	0.007773
N138	N	0.786422	-0.694219	0.040035
H139	H	0.743027	-0.841050	-0.003354
C140	C	-0.038525	-0.112692	-0.071477
N141	N	-0.013928	-0.157126	-0.071776
C142	C	0.507948	0.112561	-0.078037
N143	N	0.532566	0.156987	-0.078320
C144	C	0.785403	-0.000099	0.105268
N145	N	0.828723	-0.000106	0.086538
H146	H	0.763925	-0.000061	0.658198
H147	H	0.762629	-0.000054	0.765963
H148	H	0.742991	-0.271385	-0.003378
C149	C	-0.163265	-0.112690	-0.069972
N150	N	-0.187880	-0.157116	-0.069676
C151	C	-0.163246	0.112535	-0.069951
N152	N	-0.187843	0.156969	-0.069644
C153	C	-0.038526	0.112542	-0.071448
N154	N	-0.013928	0.156979	-0.071739
H155	H	0.562723	-0.556228	-0.183553
C156	C	0.834059	-0.000079	0.385592
N157	N	0.877381	-0.000081	0.366867
H158	H	0.742988	-0.159064	-0.003397
H159	H	0.817827	-0.000069	0.499797
C160	C	0.551589	-0.435061	-0.194686
N161	N	0.519320	-0.409421	-0.226952
