data_functionalizedCrystal
_audit_creation_method	'MofGen! by Chris Wilmer'
_symmetry_space_group_name_H-M	'P1'
_symmetry_Int_Tables_number	1
_symmetry_cell_setting	triclinic
loop_
_symmetry_equiv_pos_as_xyz
  x,y,z
_cell_length_a	14.628931
_cell_length_b	14.628931
_cell_length_c	14.628931
_cell_angle_alpha	59.999972
_cell_angle_beta	90.000118
_cell_angle_gamma	60.000000
loop_
_atom_site_label
_atom_site_type_symbol
_atom_site_fract_x
_atom_site_fract_y
_atom_site_fract_z
Zr1	Zr	0.880620	1.000576	-0.119961
O2	O	0.734659	1.191282	-0.265922
O3	O	0.925365	0.809870	-0.075216
O4	O	0.925365	1.000576	-0.265922
O5	O	0.734660	1.000576	0.075216
O6	O	1.075797	1.000575	-0.265921
O7	O	0.734659	1.000576	-0.075216
O8	O	1.075797	0.659438	0.075217
O9	O	0.734659	1.341714	-0.265922
O10	O	1.056714	0.888310	-0.056133
O11	O	0.944448	0.888310	0.056133
O12	O	0.944448	1.112841	-0.168399
O13	O	0.832183	1.112842	-0.056133
Zr14	Zr	1.120543	1.000575	0.119961
Zr15	Zr	1.120542	1.000575	-0.119961
Zr16	Zr	0.880621	1.000576	0.119961
Zr17	Zr	0.880621	1.240497	-0.119961
Zr18	Zr	1.120542	0.760654	0.119961
O19	O	1.075798	1.191281	0.075216
O20	O	1.075797	1.191281	-0.265922
O21	O	0.734660	1.191282	0.075215
O22	O	1.266504	0.809869	0.265922
O23	O	1.266503	0.809869	-0.075215
O24	O	0.925366	0.809870	0.265922
O25	O	1.266503	1.000575	-0.075216
O26	O	1.075798	1.000575	0.265922
O27	O	0.925366	1.000576	0.265921
O28	O	1.266503	1.000575	0.075216
O29	O	0.925365	1.341713	-0.265922
O30	O	1.075797	0.659438	0.265922
O31	O	1.266503	0.659437	0.265922
O32	O	1.266503	0.659437	0.075217
O33	O	0.734660	1.341714	-0.075217
O34	O	0.925366	1.341713	-0.075217
O35	O	1.056714	0.888310	0.168399
O36	O	1.168980	0.888309	0.056133
O37	O	1.056714	1.112841	-0.056133
O38	O	0.944449	1.112841	0.056133
C39	C	1.000581	0.700470	0.000000
C40	C	1.000581	0.598617	0.000001
C41	C	1.056272	0.553208	-0.055691
C42	C	1.056273	0.447938	-0.055692
C43	C	0.700476	1.000576	-0.000000
C44	C	0.598623	1.000577	-0.000001
C45	C	0.608905	0.889194	0.055691
C46	C	0.503635	0.889192	0.055692
C47	C	1.300687	1.000575	0.000000
C48	C	1.402540	1.000574	0.000001
C49	C	1.000581	1.000576	-0.300105
C50	C	1.000581	1.000576	-0.401958
C51	C	1.000582	1.300681	-0.000000
C52	C	1.000582	1.402534	-0.000001
C53	C	1.079340	1.000575	-0.447367
C54	C	1.079342	1.000575	-0.552638
C55	C	1.000582	1.000576	0.300105
C56	C	1.000582	1.000576	0.401958
C57	C	1.300687	0.700469	0.000001
C58	C	1.402540	0.598616	0.000001
C59	C	1.000582	0.700470	0.300106
C60	C	1.000582	0.598617	0.401959
C61	C	1.300687	0.700469	0.300106
C62	C	1.402540	0.598616	0.401959
C63	C	0.700476	1.300682	-0.300106
C64	C	0.598622	1.402535	-0.401959
C65	C	0.700476	1.300682	-0.000001
C66	C	0.598623	1.402535	-0.000001
C67	C	1.000581	1.300681	-0.300106
C68	C	1.000581	1.402534	-0.401959
C69	C	1.392257	0.553207	-0.055690
C70	C	1.497526	0.447936	-0.055691
C71	C	1.056273	0.553208	0.503060
C72	C	1.056275	0.447938	0.608331
C73	C	1.503641	0.553207	0.391677
C74	C	1.608913	0.447936	0.496947
H75	H	0.952895	0.441584	0.047676
F76	F	1.722275	0.396890	0.485663
H77	H	1.103956	0.592259	-0.103365
F78	F	1.485267	0.453559	0.609334
H79	H	1.393920	0.559563	0.488696
H80	H	1.488898	0.408881	-0.103366
F81	F	0.938264	0.453560	0.484686
F82	F	1.118589	0.396905	-0.118021
F83	F	0.912449	1.000567	-0.453001
F84	F	1.118604	0.396892	0.721693
H85	H	1.607259	0.441568	0.047691
F86	F	1.167482	1.000566	-0.396317
H87	H	1.146768	1.000582	-0.591691
F88	F	1.515908	0.547575	0.062316
H89	H	0.952898	0.559564	0.393339
H90	H	0.933146	1.000583	-0.559001
F91	F	0.722273	0.764551	0.118033
F92	F	0.938266	0.547564	0.062329
F93	F	1.278888	0.604260	-0.118018
F94	F	1.118588	0.604262	0.514334
F95	F	0.391248	1.125225	-0.062332
F96	F	0.514919	0.764546	0.118009
H97	H	1.512264	0.592268	0.304942
H98	H	0.511886	1.095934	-0.047677
