data_functionalizedCrystal
_audit_creation_method	'MofGen! by Chris Wilmer'
_symmetry_space_group_name_H-M	'P1'
_symmetry_Int_Tables_number	1
_symmetry_cell_setting	triclinic
loop_
_symmetry_equiv_pos_as_xyz
  x,y,z
_cell_length_a	19.288840
_cell_length_b	27.731996
_cell_length_c	17.766277
_cell_angle_alpha	89.987644
_cell_angle_beta	89.983415
_cell_angle_gamma	82.873701
loop_
_atom_site_label
_atom_site_type_symbol
_atom_site_fract_x
_atom_site_fract_y
_atom_site_fract_z
O1	O	0.920972	0.060244	-0.062730
O2	O	0.718656	0.068391	-0.062705
O3	O	0.826116	-0.006063	-0.062702
O4	O	0.813512	0.134697	-0.062733
O5	O	0.826098	-0.006066	0.062487
O6	O	0.718637	0.068387	0.062484
O7	O	0.920953	0.060240	0.062459
Cu8	Cu	0.819794	0.064313	0.073902
Cu9	Cu	0.819816	0.064318	-0.074148
O10	O	0.813493	0.134693	0.062456
C11	C	0.692772	0.068129	-0.000107
C12	C	0.615672	0.067348	-0.000097
C13	C	0.579481	0.066975	-0.068339
C14	C	0.507039	0.066236	-0.068348
C15	C	0.470793	0.065860	-0.000111
C16	C	0.506992	0.066236	0.068140
C17	C	0.579432	0.066980	0.068147
C18	C	0.361649	0.036367	0.052164
C19	C	0.289211	0.035620	0.052154
C20	C	0.247364	0.063568	-0.000130
C21	C	0.277965	0.092256	-0.052417
C22	C	0.350404	0.093000	-0.052410
C23	C	0.392244	0.065054	-0.000111
C24	C	0.132623	0.062394	-0.068387
C25	C	0.060179	0.061658	-0.068393
C26	C	0.060134	0.061653	0.068097
C27	C	0.132576	0.062394	0.068101
C28	C	0.168816	0.062762	-0.000143
C29	C	0.825848	-0.024073	-0.000105
C30	C	0.825068	-0.077731	-0.000097
C31	C	0.820172	-0.410460	-0.068374
C32	C	0.817210	-0.612127	-0.068386
O33	O	0.816806	-0.638197	-0.126423
N34	N	0.816832	-0.637347	-0.000147
C35	C	0.817190	-0.612147	0.068101
O36	O	0.816793	-0.638225	0.126143
C37	C	0.820146	-0.410481	0.068113
C38	C	0.820532	-0.385264	-0.000131
C39	C	0.820556	-0.385243	-0.136612
C40	C	0.821300	-0.334829	-0.136608
C41	C	0.821660	-0.309633	-0.068366
C42	C	0.821276	-0.334850	-0.000127
C43	C	0.820499	-0.385281	0.136360
C44	C	0.821237	-0.334861	0.136357
C45	C	0.821622	-0.309644	0.068113
C46	C	0.822380	-0.259241	0.068119
N47	N	0.822758	-0.234020	-0.000120
C48	C	0.822398	-0.259217	-0.068363
C49	C	0.815639	-0.718025	0.068090
C50	C	0.814901	-0.768442	0.068087
C51	C	0.814920	-0.768418	-0.068401
C52	C	0.815663	-0.718001	-0.068397
C53	C	0.816017	-0.692805	-0.000150
C54	C	0.823961	-0.153345	-0.068350
C55	C	0.824708	-0.102927	-0.068340
C56	C	0.824686	-0.102955	0.068148
C57	C	0.823942	-0.153369	0.068138
C58	C	0.823578	-0.178562	-0.000117
O59	O	0.822776	-0.233139	0.126125
O60	O	0.822779	-0.233128	-0.126396
C61	C	0.819428	-0.460873	-0.068377
C62	C	0.819043	-0.486090	-0.000139
C63	C	0.819403	-0.460894	0.068104
C64	C	0.818305	-0.536507	-0.000142
C65	C	0.817945	-0.561703	-0.068384
C66	C	0.818323	-0.536483	-0.136624
C67	C	0.819068	-0.486070	-0.136620
C68	C	0.819025	-0.486114	0.136343
C69	C	0.818282	-0.536528	0.136334
C70	C	0.817922	-0.561724	0.068091
C71	C	0.946838	0.060502	-0.000140
C72	C	1.023937	0.061283	-0.000156
C73	C	0.813761	0.152703	-0.000143
C74	C	0.814541	0.206362	-0.000155
N75	N	0.819783	0.064310	0.178032
N76	N	0.819832	0.064317	-0.178278
C77	C	0.867382	0.031358	0.217421
C78	C	0.867386	0.031356	0.296222
C79	C	0.819798	0.064314	0.335633
C80	C	0.772190	0.097268	0.296235
C81	C	0.772183	0.097266	0.217435
C82	C	0.810212	0.108358	0.460462
C83	C	0.810224	0.108360	0.539261
C84	C	0.819816	0.064319	0.578679
C85	C	0.829411	0.020274	0.539289
C86	C	0.829404	0.020272	0.460489
C87	C	0.819800	0.064319	0.421079
C88	C	0.867422	0.031362	0.703513
C89	C	0.867421	0.031359	0.782317
C90	C	0.772229	0.097276	0.782328
C91	C	0.772226	0.097275	0.703526
C92	C	0.819827	0.064318	0.664124
H93	H	0.162131	0.062699	-0.123955
O94	O	0.820007	-0.409804	0.202612
C95	C	0.759376	-0.433331	0.206695
H96	H	0.739236	-0.439019	0.147440
H97	H	0.772357	-0.470042	0.235608
H98	H	0.717507	-0.409956	0.240340
O99	O	0.815903	-0.693521	-0.134713
C100	C	0.755555	-0.700245	-0.176219
H101	H	0.713289	-0.710183	-0.136275
H102	H	0.735838	-0.665207	-0.207183
H103	H	0.768740	-0.730779	-0.218760
O104	O	0.818087	-0.560949	-0.202938
C105	C	0.878439	-0.554234	-0.244485
H106	H	0.920712	-0.544309	-0.204572
H107	H	0.898141	-0.589271	-0.275448
H108	H	0.865266	-0.523693	-0.287031
O109	O	0.814649	-0.792970	0.134357
C110	C	0.874387	-0.827759	0.138438
H111	H	0.916688	-0.816487	0.099718
H112	H	0.894558	-0.830224	0.198797
H113	H	0.860221	-0.864696	0.120101
O114	O	0.817782	-0.560984	0.202654
C115	C	0.757781	-0.543036	0.244169
H116	H	0.715938	-0.525250	0.204232
H117	H	0.737077	-0.574304	0.275134
H118	H	0.771810	-0.515041	0.286712
O119	O	0.614633	0.067422	-0.134650
C120	C	0.588592	0.109090	-0.176185
H121	H	0.562839	0.138140	-0.136264
H122	H	0.633440	0.123629	-0.207143
H123	H	0.548441	0.099194	-0.218734
H124	H	0.375316	0.116361	-0.094982
H125	H	0.162043	0.062695	0.123671
O126	O	0.825048	-0.078504	-0.134703
C127	C	0.824586	-0.111559	-0.194933
H128	H	0.802054	-0.145447	-0.174923
H129	H	0.791072	-0.093839	-0.242658
H130	H	0.880256	-0.122120	-0.215923
O131	O	0.025025	0.061224	0.134433
C132	C	0.051040	0.019542	0.175949
H133	H	0.106421	0.006127	0.156548
H134	H	0.051625	0.028979	0.238377
H135	H	0.016110	-0.010185	0.166493
O136	O	0.801025	0.151132	0.577558
C137	C	0.859933	0.154927	0.623128
H138	H	0.906961	0.130750	0.599370
H139	H	0.871405	0.194271	0.624007
H140	H	0.849069	0.142829	0.682858
O141	O	0.838695	-0.022554	0.422342
C142	C	0.847182	-0.061428	0.474023
H143	H	0.822632	-0.048940	0.530203
H144	H	0.820536	-0.092877	0.451277
H145	H	0.905238	-0.073902	0.482380
H146	H	0.819381	-0.465542	-0.192191
O147	O	0.725930	0.129223	0.665224
C148	C	0.683373	0.103416	0.619654
H149	H	0.682618	0.065297	0.643416
H150	H	0.627950	0.123243	0.618770
H151	H	0.705138	0.100840	0.559926
H152	H	0.243893	0.115016	-0.094990
H153	H	0.030713	0.061357	-0.123966
O154	O	0.800924	0.151187	0.422291
C155	C	0.792452	0.190061	0.473952
H156	H	0.817008	0.177570	0.530121
H157	H	0.819102	0.221507	0.451163
H158	H	0.734399	0.202540	0.482347
H159	H	0.395716	0.013607	0.094744
O160	O	0.471799	0.065956	0.134445
C161	C	0.481158	0.107986	0.175962
H162	H	0.495256	0.137448	0.136029
H163	H	0.430709	0.121544	0.206909
H164	H	0.525077	0.098955	0.218520
O165	O	0.913688	-0.000586	0.820665
C166	C	0.956260	0.025228	0.866207
H167	H	0.928173	0.063103	0.878008
H168	H	0.967476	0.005032	0.921624
H169	H	1.007555	0.028421	0.835819
H170	H	0.819319	-0.465605	0.191916
O171	O	0.825145	-0.078510	0.134458
C172	C	0.885118	-0.096451	0.175997
H173	H	0.927000	-0.114224	0.136078
H174	H	0.905783	-0.065180	0.206960
H175	H	0.871069	-0.124454	0.218543
H176	H	0.733442	0.124102	0.328327
H177	H	0.837221	-0.015589	0.571382
H178	H	0.906139	0.004522	0.185341
H179	H	0.906148	0.004521	0.328298
O180	O	0.913679	-0.000700	0.665349
C181	C	0.955700	-0.029781	0.717017
H182	H	0.927233	-0.030275	0.773199
H183	H	0.966721	-0.068405	0.694258
H184	H	1.007125	-0.014181	0.725372
H185	H	0.733479	0.124109	0.814415
H186	H	0.477567	0.065933	-0.123921
O187	O	0.725920	0.129326	0.179286
C188	C	0.683902	0.158407	0.230964
H189	H	0.712374	0.158901	0.287125
H190	H	0.672877	0.197030	0.208185
H191	H	0.632479	0.142805	0.239368
H192	H	0.823661	-0.173851	-0.123929
H193	H	0.608898	0.067284	0.123720
H194	H	0.821611	-0.314302	-0.192180
O195	O	0.259582	0.007683	0.102915
C196	C	0.287099	-0.041427	0.093051
H197	H	0.340230	-0.043523	0.064296
H198	H	0.293285	-0.060093	0.150256
H199	H	0.250035	-0.060376	0.056626
O200	O	0.820241	-0.409642	-0.202976
C201	C	0.820720	-0.376562	-0.263194
H202	H	0.843237	-0.342680	-0.243173
H203	H	0.854254	-0.394260	-0.310929
H204	H	0.765056	-0.365998	-0.284175
H205	H	0.814628	-0.788941	-0.123966
O206	O	0.816023	-0.693632	0.134457
C207	C	0.815518	-0.726708	0.194678
H208	H	0.836987	-0.764693	0.174653
H209	H	0.849467	-0.715302	0.242402
H210	H	0.759692	-0.726874	0.215675
O211	O	0.821482	-0.310428	0.202701
C212	C	0.761100	-0.317132	0.244203
H213	H	0.740507	-0.351864	0.224796
H214	H	0.774591	-0.320127	0.306634
H215	H	0.719378	-0.284825	0.234741
O216	O	0.823454	-0.177839	0.134445
C217	C	0.763461	-0.159902	0.175981
H218	H	0.721608	-0.142108	0.136061
H219	H	0.742765	-0.191178	0.206932
H220	H	0.777496	-0.131917	0.218536
