data_functionalizedCrystal
_audit_creation_method	'MofGen! by Chris Wilmer'
_symmetry_space_group_name_H-M	'P1'
_symmetry_Int_Tables_number	1
_symmetry_cell_setting	triclinic
loop_
_symmetry_equiv_pos_as_xyz
  x,y,z
_cell_length_a	10.654556
_cell_length_b	12.996460
_cell_length_c	10.654550
_cell_angle_alpha	89.999886
_cell_angle_beta	95.513766
_cell_angle_gamma	90.004591
loop_
_atom_site_label
_atom_site_type_symbol
_atom_site_fract_x
_atom_site_fract_y
_atom_site_fract_z
O1	O	1.667841	0.085528	-0.176429
O2	O	2.167841	0.585528	0.323571
O3	O	1.302363	0.085538	-0.193226
O4	O	1.802363	0.585538	0.306774
O5	O	1.493505	0.085526	-0.002088
O6	O	1.993505	0.585526	0.497912
O7	O	1.476699	0.085540	-0.367567
O8	O	1.976699	0.585540	0.132433
O9	O	1.493480	-0.085608	-0.002099
O10	O	1.993480	0.414392	0.497901
O11	O	1.302338	-0.085596	-0.193237
O12	O	1.802338	0.414404	0.306763
O13	O	1.667816	-0.085606	-0.176440
O14	O	2.167816	0.414394	0.323560
Cu15	Cu	1.485075	-0.101227	-0.184839
Cu16	Cu	1.985075	0.398773	0.315161
Cu17	Cu	1.485104	0.101159	-0.184826
Cu18	Cu	1.985104	0.601159	0.315174
O19	O	1.476674	-0.085594	-0.367577
O20	O	1.976674	0.414406	0.132423
C21	C	1.255553	-0.000027	-0.191997
C22	C	1.755553	0.499973	0.308003
C23	C	1.116110	-0.000023	-0.188302
C24	C	1.616110	0.499977	0.311698
C25	C	0.919578	0.093253	-0.183093
C26	C	1.419578	0.593253	0.316907
C27	C	1.050600	0.093260	-0.186557
C28	C	1.550600	0.593260	0.313443
C29	C	1.050592	-0.093320	-0.186569
C30	C	1.550592	0.406680	0.313431
C31	C	0.919573	-0.093325	-0.183096
C32	C	1.419573	0.406675	0.316904
N33	N	1.485063	-0.243574	-0.184848
N34	N	1.985063	0.256426	0.315152
C35	C	1.485069	-0.336680	-0.184851
C36	C	1.985069	0.163320	0.315149
C37	C	1.485081	-0.453485	-0.184843
C38	C	1.985081	0.046515	0.315157
C39	C	1.485096	-0.546583	-0.184829
C40	C	1.985096	-0.046583	0.315171
C41	C	1.485110	-0.663396	-0.184822
C42	C	1.985110	-0.163396	0.315178
C43	C	1.714626	-0.000038	-0.177669
C44	C	2.214626	0.499962	0.322331
C45	C	1.854069	-0.000035	-0.181364
C46	C	2.354069	0.499965	0.318636
C47	C	1.492258	-0.000040	0.044704
C48	C	1.992258	0.499960	0.544704
C49	C	1.488567	-0.000038	0.184147
C50	C	1.988567	0.499962	0.684147
N51	N	1.485125	0.243506	-0.184808
N52	N	1.985125	0.743506	0.315192
C53	C	1.477920	-0.000026	-0.414370
C54	C	1.977920	0.499974	0.085630
C55	C	1.481612	-0.000020	-0.553813
C56	C	1.981612	0.499980	-0.053813
C57	C	1.601108	-0.000041	0.263630
C58	C	2.101108	0.499959	0.763630
C59	C	1.597631	-0.000029	0.394651
C60	C	2.097631	0.499971	0.894651
C61	C	1.369063	-0.000015	0.366693
C62	C	1.869063	0.499985	0.866693
C63	C	1.372540	-0.000020	0.235675
C64	C	1.872540	0.499980	0.735675
H65	H	0.866234	-0.169297	-0.181687
H66	H	1.366234	0.330703	0.318313
H67	H	1.695584	-0.000054	0.221681
H68	H	2.195584	0.499946	0.721681
H69	H	1.103932	0.169225	-0.187963
H70	H	1.603932	0.669225	0.312037
C71	C	1.173151	-0.087969	0.383194
C72	C	1.673151	0.412031	0.883194
C73	C	1.241527	-0.000002	0.423331
C74	C	1.741527	0.499998	0.923331
H75	H	1.094411	-0.087957	0.418152
H76	H	1.594411	0.412043	0.918152
H77	H	1.219523	-0.147638	0.410420
H78	H	1.719523	0.352362	0.910420
H79	H	1.159130	-0.087959	0.293787
H80	H	1.659130	0.412041	0.793787
H81	H	1.255556	-0.000015	0.512738
H82	H	1.755556	0.499985	1.012738
H83	H	1.195145	0.059683	0.396112
H84	H	1.695145	0.559683	0.896112
H85	H	1.103941	-0.169273	-0.187981
H86	H	1.603941	0.330727	0.312019
C87	C	1.178799	0.087959	0.171503
C88	C	1.678799	0.587959	0.671503
C89	C	1.248823	-0.000018	0.148299
C90	C	1.748823	0.499982	0.648299
H91	H	1.102422	0.087958	0.117565
H92	H	1.602422	0.587958	0.617565
H93	H	1.226337	0.147622	0.155769
H94	H	1.726337	0.647622	0.655769
H95	H	1.160130	0.087950	0.256910
H96	H	1.660130	0.587950	0.756910
H97	H	1.267500	-0.000005	0.062894
H98	H	1.767500	0.499995	0.562894
H99	H	1.201275	-0.059696	0.164024
H100	H	1.701275	0.440304	0.664024
C101	C	1.791403	0.087927	0.458796
C102	C	2.291403	0.587927	0.958796
C103	C	1.721343	-0.000036	0.482016
C104	C	2.221343	0.499964	0.982016
H105	H	1.867784	0.087919	0.512726
H106	H	2.367784	0.587919	1.012726
H107	H	1.743892	0.147600	0.474529
H108	H	2.243892	0.647600	0.974529
H109	H	1.810063	0.087907	0.373386
H110	H	2.310063	0.587907	0.873386
H111	H	1.702675	-0.000012	0.567423
H112	H	2.202675	0.499988	1.067423
H113	H	1.768863	-0.059724	0.466292
H114	H	2.268863	0.440276	0.966292
C115	C	0.932752	0.277678	-0.183421
C116	C	1.432752	0.777678	0.316579
C117	C	0.847576	0.195796	-0.181177
C118	C	1.347576	0.695796	0.318823
H119	H	0.888302	0.340984	-0.182229
H120	H	1.388302	0.840984	0.317771
H121	H	0.974913	0.273804	-0.257879
H122	H	1.474913	0.773804	0.242121
H123	H	0.992796	0.273787	-0.111661
H124	H	1.492796	0.773787	0.388339
H125	H	0.787537	0.199683	-0.252942
H126	H	1.287537	0.699683	0.247058
H127	H	0.805395	0.199672	-0.106711
H128	H	1.305395	0.699672	0.393289
