data_functionalizedCrystal
_audit_creation_method	'MofGen! by Chris Wilmer'
_symmetry_space_group_name_H-M	'P1'
_symmetry_Int_Tables_number	1
_symmetry_cell_setting	triclinic
loop_
_symmetry_equiv_pos_as_xyz
  x,y,z
_cell_length_a	19.288867
_cell_length_b	14.044220
_cell_length_c	17.766277
_cell_angle_alpha	89.993125
_cell_angle_beta	89.992126
_cell_angle_gamma	88.162973
loop_
_atom_site_label
_atom_site_type_symbol
_atom_site_fract_x
_atom_site_fract_y
_atom_site_fract_z
O1	O	0.928948	0.118224	-0.062570
O2	O	1.262282	0.451557	0.270764
O3	O	1.595615	0.784890	0.604097
O4	O	0.727712	0.134169	-0.062577
O5	O	1.061046	0.467502	0.270756
O6	O	1.394379	0.800835	0.604089
O7	O	0.825310	-0.011776	-0.062566
O8	O	1.158643	0.321558	0.270767
O9	O	1.491976	0.654891	0.604100
O10	O	0.831351	0.264168	-0.062581
O11	O	1.164684	0.597501	0.270753
O12	O	1.498017	0.930835	0.604086
O13	O	0.825290	-0.011783	0.062622
O14	O	1.158624	0.321550	0.395956
O15	O	1.491957	0.654884	0.729289
O16	O	0.727693	0.134161	0.062611
O17	O	1.061026	0.467495	0.395945
O18	O	1.394360	0.800828	0.729278
O19	O	0.928929	0.118216	0.062619
O20	O	1.262262	0.451550	0.395952
O21	O	1.595596	0.784883	0.729285
Cu22	Cu	0.828309	0.126188	0.074046
Cu23	Cu	1.161643	0.459521	0.407379
Cu24	Cu	1.494976	0.792855	0.740712
Cu25	Cu	0.828332	0.126197	-0.074004
Cu26	Cu	1.161665	0.459530	0.259329
Cu27	Cu	1.494999	0.792863	0.592662
O28	O	0.831332	0.264161	0.062608
O29	O	1.164665	0.597494	0.395941
O30	O	1.497998	0.930827	0.729274
C31	C	0.701793	0.133652	0.000016
C32	C	1.035127	0.466985	0.333349
C33	C	1.368460	0.800318	0.666683
C34	C	0.624591	0.132110	0.000013
C35	C	0.957924	0.465444	0.333347
C36	C	1.291257	0.798777	0.666680
C37	C	0.068323	0.121014	-0.068218
C38	C	0.401656	0.454347	0.265116
C39	C	0.734989	0.787681	0.598449
C40	C	0.140863	0.122456	-0.068220
C41	C	0.474196	0.455790	0.265113
C42	C	0.807529	0.789123	0.598446
C43	C	0.177128	0.123178	0.000020
C44	C	0.510461	0.456511	0.333353
C45	C	0.843794	0.789845	0.666686
C46	C	0.140847	0.122433	0.068268
C47	C	0.474180	0.455766	0.401601
C48	C	0.807514	0.789099	0.734934
C49	C	0.068308	0.120981	0.068269
C50	C	0.401642	0.454314	0.401602
C51	C	0.734975	0.787648	0.734935
C52	C	0.290161	0.180977	0.052297
C53	C	0.623494	0.514310	0.385631
C54	C	0.956827	0.847644	0.718964
C55	C	0.362698	0.182435	0.052294
C56	C	0.696031	0.515768	0.385627
C57	C	1.029364	0.849101	0.718960
C58	C	0.400861	0.127652	0.000020
C59	C	0.734194	0.460985	0.333353
C60	C	1.067527	0.794318	0.666686
C61	C	0.366477	0.071423	-0.052263
C62	C	0.699811	0.404757	0.281070
C63	C	1.033144	0.738090	0.614403
C64	C	0.293939	0.069971	-0.052262
C65	C	0.627272	0.403305	0.281071
C66	C	0.960605	0.736638	0.614404
C67	C	0.255783	0.124752	0.000026
C68	C	0.589117	0.458085	0.333360
C69	C	0.922450	0.791418	0.666693
C70	C	0.515789	0.129954	-0.068227
C71	C	0.849122	0.463287	0.265106
C72	C	1.182456	0.796621	0.598439
C73	C	0.588331	0.131391	-0.068227
C74	C	0.921664	0.464724	0.265106
C75	C	1.254998	0.798057	0.598439
C76	C	0.588313	0.131376	0.068263
C77	C	0.921647	0.464710	0.401596
C78	C	1.254980	0.798043	0.734929
C79	C	0.515773	0.129930	0.068261
C80	C	0.849107	0.463264	0.401594
C81	C	1.182440	0.796597	0.734927
C82	C	0.479515	0.129224	0.000014
C83	C	0.812849	0.462557	0.333347
C84	C	1.146182	0.795891	0.666680
C85	C	0.822656	-0.047082	0.000028
C86	C	1.155989	0.286251	0.333362
C87	C	1.489322	0.619584	0.666695
C88	C	0.814768	-0.152275	0.000029
C89	C	1.148101	0.181059	0.333362
C90	C	1.481435	0.514392	0.666696
C91	C	0.800347	-0.344875	0.000018
C92	C	1.133681	-0.011541	0.333351
C93	C	1.467014	0.321792	0.666684
C94	C	0.856291	-0.402746	0.000017
C95	C	1.189624	-0.069413	0.333351
C96	C	1.522957	0.263921	0.666684
C97	C	0.848267	-0.509915	0.000011
C98	C	1.181600	-0.176582	0.333344
C99	C	1.514934	0.156751	0.666678
C100	C	0.808370	-0.237695	0.000024
C101	C	1.141703	0.095638	0.333357
C102	C	1.475037	0.428971	0.666691
C103	C	0.954848	0.118733	0.000024
C104	C	1.288181	0.452067	0.333357
C105	C	1.621515	0.785400	0.666690
C106	C	1.032050	0.120274	0.000021
C107	C	1.365384	0.453608	0.333355
C108	C	1.698717	0.786941	0.666688
C109	C	0.833986	0.299467	0.000012
C110	C	1.167319	0.632801	0.333345
C111	C	1.500652	0.966134	0.666678
C112	C	0.841873	0.404660	0.000006
C113	C	1.175207	0.737993	0.333339
C114	C	1.508540	1.071326	0.666673
N115	N	0.828298	0.126181	0.178176
N116	N	1.161632	0.459515	0.511509
N117	N	1.494965	0.792848	0.844843
N118	N	0.828348	0.126196	-0.178135
N119	N	1.161681	0.459529	0.155199
N120	N	1.495015	0.792863	0.488532
C121	C	0.871532	0.061589	0.217568
C122	C	1.204865	0.394922	0.550901
C123	C	1.538198	0.728256	0.884235
C124	C	0.871535	0.061584	0.296370
C125	C	1.204869	0.394918	0.629703
C126	C	1.538202	0.728251	0.963036
C127	C	0.828313	0.126189	0.335777
C128	C	1.161647	0.459522	0.669110
C129	C	1.494980	0.792856	1.002443
C130	C	0.785071	0.190786	0.296375
C131	C	1.118405	0.524120	0.629709
C132	C	1.451738	0.857453	0.963042
C133	C	0.785064	0.190783	0.217575
C134	C	1.118397	0.524116	0.550908
C135	C	1.451731	0.857449	0.884242
C136	C	0.824562	0.212532	0.460610
C137	C	1.157896	0.545865	0.793943
C138	C	1.491229	0.879199	1.127276
C139	C	0.824575	0.212537	0.539409
C140	C	1.157908	0.545870	0.872742
C141	C	1.491241	0.879204	1.206075
C142	C	0.828333	0.126200	0.578823
C143	C	1.161666	0.459534	0.912156
C144	C	1.494999	0.792867	1.245490
C145	C	0.832093	0.039855	0.539429
C146	C	1.165426	0.373188	0.872762
C147	C	1.498759	0.706521	1.206095
C148	C	0.832085	0.039851	0.460628
C149	C	1.165418	0.373184	0.793962
C150	C	1.498752	0.706518	1.127295
C151	C	0.828316	0.126200	0.421222
C152	C	1.161650	0.459533	0.754556
C153	C	1.494983	0.792866	1.087889
C154	C	0.871572	0.061598	0.703661
C155	C	1.204906	0.394931	1.036994
C156	C	1.538239	0.728264	1.370327
C157	C	0.871571	0.061592	0.782464
C158	C	1.204905	0.394925	1.115797
C159	C	1.538238	0.728259	1.449131
C160	C	0.785111	0.190802	0.782468
C161	C	1.118444	0.524135	1.115801
C162	C	1.451778	0.857469	1.449135
C163	C	0.785108	0.190800	0.703666
C164	C	1.118442	0.524133	1.037000
C165	C	1.451775	0.857466	1.370333
C166	C	0.828343	0.126198	0.664267
C167	C	1.161676	0.459532	0.997601
C168	C	1.495009	0.792865	1.330934
H169	H	0.038806	0.120435	-0.123790
H170	H	0.372139	0.453768	0.209544
H171	H	0.705473	0.787102	0.542877
H172	H	0.821518	0.282844	0.571477
H173	H	1.154851	0.616178	0.904811
H174	H	1.488184	0.949511	1.238144
H175	H	0.821490	0.282842	0.428525
H176	H	1.154824	0.616176	0.761859
H177	H	1.488157	0.949509	1.095192
Br178	Br	0.726434	0.278468	0.650200
Br179	Br	1.059768	0.611801	0.983533
Br180	Br	1.393101	0.945134	1.316866
H181	H	0.910211	-0.371805	-0.000031
H182	H	1.243545	-0.038471	0.333302
H183	H	1.576878	0.294862	0.666636
H184	H	0.617863	0.131986	-0.123798
H185	H	0.951196	0.465319	0.209535
H186	H	1.284529	0.798652	0.542869
Br187	Br	0.710481	-0.396443	0.000008
Br188	Br	1.043814	-0.063109	0.333341
Br189	Br	1.377147	0.270224	0.666674
H190	H	0.486240	0.129331	0.123828
H191	H	0.819573	0.462665	0.457162
H192	H	1.152907	0.795998	0.790495
H193	H	0.906734	0.008985	0.185492
H194	H	1.240067	0.342318	0.518825
H195	H	1.573401	0.675651	0.852158
Br196	Br	0.837181	-0.077325	0.407167
Br197	Br	1.170514	0.256008	0.740500
Br198	Br	1.503848	0.589341	1.073833
H199	H	0.170401	0.123064	-0.123791
H200	H	0.503734	0.456397	0.209543
H201	H	0.837068	0.789731	0.542876
Br202	Br	0.930213	-0.026086	0.349840
Br203	Br	1.263547	0.307248	0.683173
Br204	Br	1.596880	0.640581	1.016506
H205	H	0.835152	-0.030449	0.571518
H206	H	1.168486	0.302884	0.904851
H207	H	1.501819	0.636218	1.238185
H208	H	0.906774	0.008992	0.671581
H209	H	1.240108	0.342326	1.004914
H210	H	1.573441	0.675659	1.338247
H211	H	0.906775	0.008988	0.814537
H212	H	1.240108	0.342321	1.147871
H213	H	1.573441	0.675655	1.481204
H214	H	0.390686	0.228242	0.094850
H215	H	0.724020	0.561576	0.428183
H216	H	1.057353	0.894909	0.761516
Br217	Br	0.726444	0.278470	0.835942
Br218	Br	1.059777	0.611804	1.169276
Br219	Br	1.393111	0.945137	1.502609
H220	H	0.259094	0.225583	0.094873
H221	H	0.592428	0.558917	0.428207
H222	H	0.925761	0.892250	0.761540
Br223	Br	0.726385	0.278449	0.164110
Br224	Br	1.059718	0.611783	0.497443
Br225	Br	1.393051	0.945116	0.830777
H226	H	0.749878	0.243387	0.328464
H227	H	1.083211	0.576720	0.661798
H228	H	1.416545	0.910053	0.995131
H229	H	0.397548	0.026817	-0.094832
H230	H	0.730881	0.360150	0.238501
H231	H	1.064215	0.693483	0.571835
Br232	Br	0.466578	0.128991	-0.160845
Br233	Br	0.799911	0.462324	0.172488
Br234	Br	1.133245	0.795657	0.505821
Br235	Br	0.637522	0.132335	0.160876
Br236	Br	0.970856	0.465669	0.494210
Br237	Br	1.304189	0.799002	0.827543
Br238	Br	0.190061	0.123404	0.160880
Br239	Br	0.523395	0.456737	0.494213
Br240	Br	0.856728	0.790071	0.827547
Br241	Br	0.247277	-0.006337	-0.123212
Br242	Br	0.580610	0.326997	0.210122
Br243	Br	0.913944	0.660330	0.543455
H244	H	0.038776	0.120382	0.123839
H245	H	0.372109	0.453716	0.457172
H246	H	0.705443	0.787049	0.790505
