data_functionalizedCrystal
_audit_creation_method	'MofGen! by Chris Wilmer'
_symmetry_space_group_name_H-M	'P1'
_symmetry_Int_Tables_number	1
_symmetry_cell_setting	triclinic
loop_
_symmetry_equiv_pos_as_xyz
  x,y,z
_cell_length_a	19.188930
_cell_length_b	27.732048
_cell_length_c	17.666332
_cell_angle_alpha	89.988553
_cell_angle_beta	89.976766
_cell_angle_gamma	82.893716
loop_
_atom_site_label
_atom_site_type_symbol
_atom_site_fract_x
_atom_site_fract_y
_atom_site_fract_z
O1	O	0.925765	0.060348	-0.063200
O2	O	1.425765	0.560348	0.436800
O3	O	0.722402	0.068472	-0.063149
O4	O	1.222402	0.568472	0.436851
O5	O	0.830399	-0.005968	-0.063161
O6	O	1.330399	0.494032	0.436839
O7	O	0.817767	0.134787	-0.063187
O8	O	1.317767	0.634787	0.436813
O9	O	0.830380	-0.005971	0.062735
O10	O	1.330380	0.494029	0.562735
O11	O	0.722383	0.068468	0.062748
O12	O	1.222383	0.568468	0.562748
O13	O	0.925746	0.060344	0.062697
O14	O	1.425746	0.560344	0.562697
Cu15	Cu	0.824063	0.064406	0.074218
Cu16	Cu	1.324063	0.564406	0.574218
Cu17	Cu	0.824085	0.064410	-0.074670
Cu18	Cu	1.324085	0.564410	0.425330
O19	O	0.817748	0.134783	0.062710
O20	O	1.317748	0.634783	0.562710
C21	C	0.696383	0.068207	-0.000194
C22	C	1.196383	0.568207	0.499806
C23	C	0.618883	0.067417	-0.000174
C24	C	1.118883	0.567417	0.499826
C25	C	0.573681	0.111096	-0.000194
C26	C	1.073681	0.611096	0.499806
C27	C	0.500862	0.110354	-0.000202
C28	C	1.000862	0.610354	0.499798
C29	C	0.473249	0.065931	-0.000205
C30	C	0.973249	0.565931	0.499795
C31	C	0.518461	0.022246	-0.000181
C32	C	1.018461	0.522246	0.499819
C33	C	0.591278	0.022990	-0.000165
C34	C	1.091278	0.522990	0.499835
N35	N	0.365491	0.031976	-0.043078
N36	N	0.865491	0.531976	0.456922
N37	N	0.296317	0.031273	-0.043094
N38	N	0.796317	0.531273	0.456906
C39	C	0.253854	0.063689	-0.000251
C40	C	0.753854	0.563689	0.499749
N41	N	0.283177	0.096841	0.042600
N42	N	0.783177	0.596841	0.542600
N43	N	0.352357	0.097546	0.042613
N44	N	0.852357	0.597546	0.542613
C45	C	0.394291	0.065120	-0.000222
C46	C	0.894291	0.565120	0.499778
C47	C	0.129692	0.106566	-0.000279
C48	C	0.629692	0.606566	0.499721
C49	C	0.056872	0.105822	-0.000282
C50	C	0.556872	0.605822	0.499718
C51	C	0.074473	0.017714	-0.000269
C52	C	0.574473	0.517714	0.499731
C53	C	0.147292	0.018459	-0.000258
C54	C	0.647292	0.518459	0.499742
C55	C	0.174897	0.062886	-0.000267
C56	C	0.674897	0.562886	0.499733
C57	C	0.830125	-0.023977	-0.000211
C58	C	1.330125	0.476023	0.499789
C59	C	0.829326	-0.077635	-0.000204
C60	C	1.329326	0.422365	0.499796
C61	C	0.888119	-0.416270	-0.000258
C62	C	1.388119	0.083730	0.499742
C63	C	0.885157	-0.617939	-0.000268
C64	C	1.385157	-0.117939	0.499732
O65	O	0.938918	-0.649030	-0.000314
O66	O	1.438918	-0.149030	0.499686
N67	N	0.821118	-0.637258	-0.000251
N68	N	1.321118	-0.137258	0.499749
C69	C	0.757816	-0.606157	-0.000237
C70	C	1.257816	-0.106157	0.499763
O71	O	0.703280	-0.627217	-0.000231
O72	O	1.203280	-0.127217	0.499769
C73	C	0.760780	-0.404489	-0.000233
C74	C	1.260780	0.095511	0.499767
C75	C	0.824822	-0.385173	-0.000242
C76	C	1.324822	0.114827	0.499758
C77	C	0.952156	-0.396953	-0.000268
C78	C	1.452156	0.103047	0.499732
C79	C	0.952896	-0.346539	-0.000261
C80	C	1.452896	0.153461	0.499739
C81	C	0.889599	-0.315441	-0.000245
C82	C	1.389599	0.184559	0.499755
C83	C	0.825562	-0.334759	-0.000235
C84	C	1.325562	0.165241	0.499765
C85	C	0.697478	-0.373389	-0.000224
C86	C	1.197478	0.126611	0.499776
C87	C	0.698225	-0.322969	-0.000225
C88	C	1.198225	0.177031	0.499775
C89	C	0.762267	-0.303653	-0.000234
C90	C	1.262267	0.196347	0.499766
C91	C	0.763005	-0.253247	-0.000212
C92	C	1.263005	0.246753	0.499788
N93	N	0.827043	-0.233928	-0.000229
N94	N	1.327043	0.266072	0.499771
C95	C	0.890340	-0.265025	-0.000245
C96	C	1.390340	0.234975	0.499755
C97	C	0.756265	-0.712036	-0.000238
C98	C	1.256265	-0.212036	0.499762
C99	C	0.755524	-0.762452	-0.000238
C100	C	1.255524	-0.262452	0.499762
C101	C	0.882865	-0.774231	-0.000270
C102	C	1.382865	-0.274231	0.499730
C103	C	0.883605	-0.723813	-0.000265
C104	C	1.383605	-0.223813	0.499735
C105	C	0.820303	-0.692716	-0.000254
C106	C	1.320303	-0.192716	0.499746
C107	C	0.891889	-0.159151	-0.000231
C108	C	1.391889	0.340849	0.499769
C109	C	0.892623	-0.108732	-0.000221
C110	C	1.392623	0.391268	0.499779
C111	C	0.765283	-0.096958	-0.000193
C112	C	1.265283	0.403042	0.499807
C113	C	0.764549	-0.147373	-0.000198
C114	C	1.264549	0.352627	0.499802
C115	C	0.827857	-0.178468	-0.000220
C116	C	1.327857	0.321532	0.499780
O117	O	0.709272	-0.222127	-0.000174
O118	O	1.209272	0.277873	0.499826
O119	O	0.944868	-0.243956	-0.000268
O120	O	1.444868	0.256044	0.499732
C121	C	0.887379	-0.466684	-0.000265
C122	C	1.387379	0.033316	0.499735
C123	C	0.823342	-0.486001	-0.000255
C124	C	1.323342	0.013999	0.499745
C125	C	0.760045	-0.454904	-0.000238
C126	C	1.260045	0.045096	0.499762
C127	C	0.822601	-0.536418	-0.000254
C128	C	1.322601	-0.036418	0.499746
C129	C	0.885898	-0.567515	-0.000271
C130	C	1.385898	-0.067515	0.499729
C131	C	0.949936	-0.548195	-0.000288
C132	C	1.449936	-0.048195	0.499712
C133	C	0.950676	-0.497781	-0.000281
C134	C	1.450676	0.002219	0.499719
C135	C	0.696007	-0.474223	-0.000222
C136	C	1.196007	0.025777	0.499778
C137	C	0.695272	-0.524638	-0.000227
C138	C	1.195272	-0.024638	0.499773
C139	C	0.758569	-0.555735	-0.000244
C140	C	1.258569	-0.055735	0.499756
C141	C	0.951765	0.060609	-0.000260
C142	C	1.451765	0.560609	0.499740
C143	C	1.029264	0.061399	-0.000285
C144	C	1.529264	0.561399	0.499715
C145	C	0.818023	0.152793	-0.000243
C146	C	1.318023	0.652793	0.499757
C147	C	0.818821	0.206450	-0.000254
C148	C	1.318821	0.706450	0.499746
N149	N	0.824052	0.064402	0.178937
N150	N	1.324052	0.564402	0.678937
N151	N	0.824101	0.064410	-0.179389
N152	N	1.324101	0.564410	0.320611
C153	C	0.871889	0.031456	0.218541
C154	C	1.371889	0.531456	0.718541
C155	C	0.871893	0.031454	0.297789
C156	C	1.371893	0.531454	0.797789
C157	C	0.824067	0.064406	0.337429
C158	C	1.324067	0.564406	0.837429
C159	C	0.776221	0.097354	0.297816
C160	C	1.276221	0.597354	0.797816
C161	C	0.776214	0.097352	0.218570
C162	C	1.276214	0.597352	0.718570
N163	N	0.814718	0.107196	0.461842
N164	N	1.314718	0.607196	0.961842
N165	N	0.814729	0.107196	0.537122
N166	N	1.314729	0.607196	1.037122
C167	C	0.824085	0.064412	0.576193
C168	C	1.324085	0.564412	1.076193
N169	N	0.833444	0.021627	0.537140
N170	N	1.333444	0.521627	1.037140
N171	N	0.833436	0.021628	0.461853
N172	N	1.333436	0.521628	0.961853
C173	C	0.824069	0.064411	0.423359
C174	C	1.324069	0.564411	0.923359
C175	C	0.871929	0.031462	0.701727
C176	C	1.371929	0.531462	1.201727
C177	C	0.871928	0.031459	0.780976
C178	C	1.371928	0.531459	1.280976
C179	C	0.776260	0.097363	0.781001
C180	C	1.276260	0.597363	1.281001
C181	C	0.776257	0.097361	0.701754
C182	C	1.276257	0.597361	1.201754
C183	C	0.824096	0.064411	0.662121
C184	C	1.324096	0.564411	1.162121
H185	H	0.944776	-0.093007	-0.000226
H186	H	1.444776	0.406993	0.499774
H187	H	0.704714	-0.686720	-0.000229
H188	H	1.204714	-0.186720	0.499771
C189	C	0.694105	-0.168622	-0.000190
C190	C	1.194105	0.331378	0.499810
H191	H	0.656514	-0.142879	-0.000184
H192	H	1.156514	0.357121	0.499816
H193	H	0.691155	-0.188057	0.043705
H194	H	1.191155	0.311943	0.543705
H195	H	0.691181	-0.188032	-0.044107
H196	H	1.191181	0.311968	0.455893
H197	H	1.003703	-0.422268	-0.000284
H198	H	1.503703	0.077732	0.499716
C199	C	0.723652	0.133609	0.824596
C200	C	1.223652	0.633609	1.324596
H201	H	0.730509	0.128894	0.877465
H202	H	1.230509	0.628894	1.377465
H203	H	0.677112	0.128439	0.811635
H204	H	1.177112	0.628439	1.311635
H205	H	0.730888	0.165858	0.811593
H206	H	1.230888	0.665858	1.311593
H207	H	0.051991	-0.018456	-0.000319
H208	H	0.551991	0.481544	0.499681
H209	H	0.644461	-0.448908	-0.000210
H210	H	1.144461	0.051092	0.499790
C211	C	0.952490	-0.808443	-0.000300
C212	C	1.452490	-0.308443	0.499700
H213	H	0.942870	-0.841235	-0.000306
H214	H	1.442870	-0.341235	0.499694
H215	H	0.978778	-0.802613	0.043590
H216	H	1.478778	-0.302613	0.543590
H217	H	0.978768	-0.802595	-0.044221
H218	H	1.478768	-0.302595	0.455779
H219	H	0.943441	-0.184464	-0.000251
H220	H	1.443441	0.315536	0.499749
C221	C	1.021123	-0.476539	-0.000299
C222	C	1.521123	0.023461	0.499701
H223	H	1.058709	-0.502286	-0.000316
H224	H	1.558709	-0.002286	0.499684
H225	H	1.024060	-0.457123	0.043603
H226	H	1.524060	0.042877	0.543603
H227	H	1.024068	-0.457113	-0.044209
H228	H	1.524068	0.042887	0.455791
H229	H	0.713749	-0.071630	-0.000177
H230	H	1.213749	0.428370	0.499823
H231	H	0.737280	0.124183	0.330095
H232	H	1.237280	0.624183	0.830095
H233	H	0.935754	-0.708089	-0.000273
H234	H	1.435754	-0.208089	0.499727
C235	C	0.488089	-0.026617	-0.000190
C236	C	0.988089	0.473383	0.499810
H237	H	0.438247	-0.020805	-0.000210
H238	H	0.938247	0.479195	0.499790
H239	H	0.503612	-0.044599	0.043718
H240	H	1.003612	0.455401	0.543718
H241	H	0.503665	-0.044593	-0.044093
H242	H	1.003665	0.455407	0.455907
C243	C	1.019561	-0.582409	-0.000312
C244	C	1.519561	-0.082409	0.499688
H245	H	1.009941	-0.615200	-0.000320
H246	H	1.509941	-0.115200	0.499680
H247	H	1.045844	-0.576578	0.043583
H248	H	1.545844	-0.076578	0.543583
H249	H	1.045845	-0.576561	-0.044229
H250	H	1.545845	-0.076561	0.455771
C251	C	0.641003	-0.025059	-0.000153
C252	C	1.141003	0.474941	0.499847
H253	H	0.614132	-0.051623	-0.000160
H254	H	1.114132	0.448377	0.499840
H255	H	0.669756	-0.026603	0.043753
H256	H	1.169756	0.473397	0.543753
H257	H	0.669794	-0.026597	-0.044058
H258	H	1.169794	0.473403	0.455942
C259	C	0.924501	-0.004792	0.174950
C260	C	1.424501	0.495208	0.674950
H261	H	0.952987	-0.024417	0.209892
H262	H	1.452987	0.475583	0.709892
H263	H	0.953372	0.012544	0.144010
H264	H	1.453372	0.512544	0.644010
H265	H	0.899596	-0.024874	0.144062
H266	H	1.399596	0.475126	0.644062
H267	H	0.645328	-0.389107	-0.000221
H268	H	1.145328	0.110893	0.499779
H269	H	0.737259	0.124181	0.186323
H270	H	1.237259	0.624181	0.686323
C271	C	0.924516	-0.004785	0.341366
C272	C	1.424516	0.495215	0.841366
H273	H	0.917666	-0.000065	0.394239
H274	H	1.417666	0.499935	0.894239
H275	H	0.971052	0.000388	0.328352
H276	H	1.471052	0.500388	0.828352
H277	H	0.917285	-0.037036	0.328399
H278	H	1.417285	0.462964	0.828399
C279	C	0.924552	-0.004783	0.824541
C280	C	1.424552	0.495217	1.324541
H281	H	0.953044	-0.024402	0.789584
H282	H	1.453044	0.475598	1.289584
H283	H	0.899664	-0.024864	0.855476
H284	H	1.399664	0.475136	1.355476
H285	H	0.953427	0.012563	0.855432
H286	H	1.453427	0.512563	1.355432
C287	C	0.685080	-0.783698	-0.000219
C288	C	1.185080	-0.283698	0.499781
H289	H	0.693697	-0.818178	-0.000216
H290	H	1.193697	-0.318178	0.499784
H291	H	0.659049	-0.773007	-0.044115
H292	H	1.159049	-0.273007	0.455885
H293	H	0.659036	-0.773019	0.043696
H294	H	1.159036	-0.273019	0.543696
C295	C	0.628591	-0.288766	-0.000210
C296	C	1.128591	0.211234	0.499790
H297	H	0.590349	-0.307494	-0.000200
H298	H	1.090349	0.192506	0.499800
H299	H	0.626239	-0.268846	-0.044110
H300	H	1.126239	0.231154	0.455890
H301	H	0.626223	-0.268861	0.043702
H302	H	1.126223	0.231139	0.543702
H303	H	0.020068	0.141392	-0.000294
H304	H	0.520068	0.641392	0.499706
C305	C	0.924540	-0.004786	0.658128
C306	C	1.424540	0.495214	1.158128
H307	H	0.953024	-0.024414	0.693068
H308	H	1.453024	0.475586	1.193068
H309	H	0.953413	0.012551	0.627192
H310	H	1.453413	0.512551	1.127192
H311	H	0.899635	-0.024866	0.627236
H312	H	1.399635	0.475134	1.127236
H313	H	1.005046	-0.330816	-0.000272
H314	H	1.505046	0.169184	0.499728
C315	C	0.197019	-0.029587	-0.000248
C316	C	0.697019	0.470413	0.499752
H317	H	0.244341	-0.022782	-0.000233
H318	H	0.744341	0.477218	0.499767
H319	H	0.188725	-0.047808	-0.044150
H320	H	0.688725	0.452192	0.455850
H321	H	0.188678	-0.047810	0.043661
H322	H	0.688678	0.452190	0.543661
H323	H	0.643117	-0.540360	-0.000213
H324	H	1.143117	-0.040360	0.499787
C325	C	0.723644	0.133607	0.658187
C326	C	1.223644	0.633607	1.158187
H327	H	0.695164	0.153235	0.693143
H328	H	1.195164	0.653235	1.193143
H329	H	0.694767	0.116269	0.627293
H330	H	1.194767	0.616269	1.127293
H331	H	0.748544	0.153687	0.627254
H332	H	1.248544	0.653687	1.127254
H333	H	0.596152	0.147272	-0.000202
H334	H	1.096152	0.647272	0.499798
H335	H	0.464051	0.145923	-0.000216
H336	H	0.964051	0.645923	0.499784
H337	H	0.152169	0.142741	-0.000275
H338	H	0.652169	0.642741	0.499725
