data_functionalizedCrystal
_audit_creation_method	'MofGen! by Chris Wilmer'
_symmetry_space_group_name_H-M	'P1'
_symmetry_Int_Tables_number	1
_symmetry_cell_setting	triclinic
loop_
_symmetry_equiv_pos_as_xyz
  x,y,z
_cell_length_a	12.759401
_cell_length_b	12.759400
_cell_length_c	12.759393
_cell_angle_alpha	90.029805
_cell_angle_beta	90.020938
_cell_angle_gamma	90.016169
loop_
_atom_site_label
_atom_site_type_symbol
_atom_site_fract_x
_atom_site_fract_y
_atom_site_fract_z
Zn1	Zn	1.606267	-0.418173	0.594025
Zn2	Zn	1.606158	-0.593888	0.418347
Zn3	Zn	1.430565	-0.418229	0.418360
Zn4	Zn	1.430558	-0.593815	0.593985
O5	O	1.518387	-0.506026	0.506179
O6	O	1.753273	-0.441489	0.570733
O7	O	1.582823	-0.570641	0.271328
O8	O	1.453921	-0.271200	0.441685
O9	O	1.753193	-0.570587	0.441663
O10	O	1.583008	-0.271159	0.570745
O11	O	1.453816	-0.441584	0.271337
O12	O	1.283543	-0.441513	0.441646
O13	O	1.453908	-0.570461	0.741011
O14	O	1.283538	-0.570516	0.570676
O15	O	1.583001	-0.441418	0.741041
O16	O	1.582815	-0.740900	0.441624
O17	O	1.453803	-0.740846	0.570664
C18	C	1.245420	-0.506013	0.506159
C19	C	1.128643	-0.506033	0.506175
C20	C	1.073805	-0.573307	0.573255
C21	C	0.964081	-0.573311	0.573276
C22	C	0.964042	-0.438764	0.439127
C23	C	1.073764	-0.438756	0.439112
C24	C	0.814185	-0.611009	0.697137
C25	C	0.759344	-0.678300	0.764208
C26	C	0.794942	-0.780830	0.780157
C27	C	0.885379	-0.816092	0.729020
C28	C	0.940215	-0.748807	0.661941
C29	C	0.904619	-0.646262	0.646011
C30	C	1.223662	-0.401068	0.315250
C31	C	1.278500	-0.333788	0.248165
C32	C	1.242904	-0.231255	0.232205
C33	C	1.152463	-0.195998	0.283324
C34	C	1.097626	-0.263278	0.350409
C35	C	1.133229	-0.365809	0.366370
C36	C	1.518325	-0.778994	0.506161
C37	C	1.518394	-0.895770	0.506188
C38	C	1.585581	-0.950521	0.573447
C39	C	1.585640	-1.060245	0.573475
C40	C	1.451323	-1.060458	0.438977
C41	C	1.451260	-0.950736	0.438955
C42	C	1.623201	-1.210073	0.697444
C43	C	1.690404	-1.264827	0.764694
C44	C	1.792889	-1.229117	0.780907
C45	C	1.828193	-1.138653	0.729855
C46	C	1.760996	-1.083904	0.662597
C47	C	1.658496	-1.119613	0.646404
C48	C	1.413709	-0.800906	0.314984
C49	C	1.346516	-0.746155	0.247721
C50	C	1.244029	-0.781864	0.231497
C51	C	1.208729	-0.872331	0.282531
C52	C	1.275922	-0.927081	0.349794
C53	C	1.378408	-0.891365	0.366019
C54	C	1.792420	-0.506040	0.506201
C55	C	1.909197	-0.506046	0.506210
C56	C	1.518466	-0.505925	0.780213
C57	C	1.518499	-0.505882	0.896990
C58	C	1.518478	-0.231993	0.506221
C59	C	1.518517	-0.115216	0.506239
C60	C	1.518369	-0.506051	0.233212
C61	C	1.518539	-0.505798	0.116436
C62	C	1.585723	-0.438679	0.951869
C63	C	1.585740	-0.438633	1.061593
C64	C	1.451308	-0.573004	1.061549
C65	C	1.451286	-0.573044	0.951827
C66	C	1.623352	-0.314677	1.211570
C67	C	1.690592	-0.247482	1.266452
C68	C	1.793105	-0.231372	1.230861
C69	C	1.828399	-0.282471	1.140388
C70	C	1.761164	-0.349673	1.085511
C71	C	1.658637	-0.365764	1.121101
C72	C	1.413685	-0.697002	0.801848
C73	C	1.346455	-0.764210	0.746969
C74	C	1.243940	-0.780331	0.782559
C75	C	1.208650	-0.729251	0.873035
C76	C	1.275880	-0.662042	0.927914
C77	C	1.378394	-0.645919	0.892317
H78	H	0.685711	-0.649580	0.805845
H79	H	1.352141	-0.362504	0.206540
H80	H	1.123468	-0.112514	0.270312
H81	H	1.396666	-1.105224	0.384236
H82	H	1.789901	-0.391281	1.011853
C83	C	0.924523	-0.928890	0.746558
N84	N	0.954009	-1.013851	0.759771
H85	H	1.125276	-0.901407	0.269319
C86	C	0.734614	-0.854846	0.853940
N87	N	0.689173	-0.910589	0.909518
H88	H	1.539876	-0.327780	1.240552
C89	C	0.775026	-0.498215	0.679608
N90	N	0.745525	-0.413258	0.666404
H91	H	1.396588	-0.627687	1.106211
H92	H	0.919346	-0.383991	0.384525
H93	H	1.640449	-0.383989	0.907223
C94	C	0.998141	-0.224487	0.406647
N95	N	0.923212	-0.195270	0.449007
H96	H	1.789740	-1.010252	0.621030
C97	C	1.170120	-0.721634	0.157499
N98	N	1.114449	-0.676271	0.101768
H99	H	1.287558	-0.176480	0.177569
H100	H	1.911879	-0.269355	1.111422
C101	C	1.262827	-0.513861	0.332804
N102	N	1.292326	-0.598817	0.346020
C103	C	1.659424	-0.890062	0.647412
N104	N	1.715043	-0.844528	0.703127
H105	H	1.247139	-0.620450	1.001585
H106	H	1.189206	-0.835068	0.737871
C107	C	1.940968	-1.099433	0.747617
N108	N	2.025922	-1.069907	0.760975
H109	H	1.847606	-1.273705	0.835664
C110	C	1.095878	-0.746982	0.912186
N111	N	1.010936	-0.760342	0.941672
C112	C	1.385281	-0.820405	0.647445
N113	N	1.414523	-0.862729	0.572484
H114	H	1.661650	-1.338483	0.806261
H115	H	1.013847	-0.777517	0.620305
H116	H	1.539746	-1.239151	0.684260
C117	C	1.526459	-0.679274	0.762693
N118	N	1.611402	-0.665928	0.733202
H119	H	1.375269	-0.672495	0.206161
C120	C	1.237085	-1.026594	0.405939
N121	N	1.207833	-1.101545	0.448228
H122	H	1.497158	-0.771812	0.328203
C123	C	1.651762	-0.191266	1.365963
N124	N	1.622519	-0.148924	1.440914
C125	C	1.867064	-0.157449	1.291232
N126	N	1.922764	-0.101765	1.336704
H127	H	1.118485	-0.628086	0.627864
