data_functionalizedCrystal
_audit_creation_method	'MofGen! by Chris Wilmer'
_symmetry_space_group_name_H-M	'P1'
_symmetry_Int_Tables_number	1
_symmetry_cell_setting	triclinic
loop_
_symmetry_equiv_pos_as_xyz
  x,y,z
_cell_length_a	14.908571
_cell_length_b	16.625545
_cell_length_c	14.908308
_cell_angle_alpha	86.733823
_cell_angle_beta	89.824947
_cell_angle_gamma	86.721711
loop_
_atom_site_label
_atom_site_type_symbol
_atom_site_fract_x
_atom_site_fract_y
_atom_site_fract_z
Zn1	Zn	1.345254	-0.420777	0.587574
Zn2	Zn	1.353821	-0.548312	0.437212
Zn3	Zn	1.203571	-0.405290	0.428572
Zn4	Zn	1.194849	-0.547354	0.578863
O5	O	1.274374	-0.480433	0.508055
O6	O	1.472216	-0.444577	0.574889
O7	O	1.341126	-0.523259	0.310241
O8	O	1.222429	-0.294517	0.449694
O9	O	1.478510	-0.538276	0.464419
O10	O	1.326523	-0.305895	0.566512
O11	O	1.230737	-0.418182	0.303894
O12	O	1.076588	-0.417253	0.441247
O13	O	1.207565	-0.536644	0.705843
O14	O	1.070181	-0.521626	0.551666
O15	O	1.318067	-0.443648	0.712243
O16	O	1.332669	-0.661012	0.455973
O17	O	1.215873	-0.660308	0.560043
C18	C	1.040760	-0.467656	0.494574
C19	C	0.940817	-0.462210	0.488829
C20	C	0.746400	-0.560813	0.592856
C21	C	0.652495	-0.555699	0.587460
C22	C	0.659100	-0.446864	0.472647
C23	C	0.753005	-0.451979	0.478042
C24	C	0.796652	-0.508956	0.538148
C25	C	0.890559	-0.514073	0.543538
C26	C	0.897162	-0.405235	0.428730
C27	C	0.803257	-0.400121	0.423335
C28	C	1.274278	-0.689917	0.508021
C29	C	1.274317	-0.779542	0.508042
C30	C	1.274351	-0.852327	0.508062
C31	C	1.274402	-0.943639	0.508084
C32	C	1.274448	-1.016419	0.508098
C33	C	1.274499	-1.107737	0.508120
C34	C	1.508900	-0.493261	0.521589
C35	C	1.608841	-0.498728	0.527357
C36	C	1.260888	-0.491767	0.742580
C37	C	1.255140	-0.496596	0.842521
C38	C	1.274494	-0.270133	0.508110
C39	C	1.274545	-0.180516	0.508134
C40	C	1.287859	-0.469089	0.274446
C41	C	1.293781	-0.464041	0.174516
C42	C	1.359404	-0.408817	1.036985
C43	C	1.354007	-0.413352	1.130889
C44	C	1.238945	-0.510197	1.124232
C45	C	1.244342	-0.505662	1.030329
C46	C	1.304575	-0.454971	0.986709
C47	C	1.309976	-0.450441	0.892804
C48	C	1.194910	-0.547281	0.886149
C49	C	1.189513	-0.551816	0.980053
H50	H	0.938087	-0.363010	0.384181
H51	H	0.781938	-0.607211	0.641791
C52	C	1.220309	-0.623052	1.229112
C53	C	1.172733	-0.565901	1.172195
H54	H	1.179429	-0.657440	1.258719
H55	H	1.252190	-0.596209	1.272482
H56	H	1.261565	-0.654276	1.194730
H57	H	1.131482	-0.534673	1.206578
H58	H	1.140838	-0.592746	1.128819
C59	C	0.655402	-0.663791	0.701488
C60	C	0.597257	-0.612704	0.647595
H61	H	0.621299	-0.698986	0.738611
H62	H	0.690065	-0.632366	0.738049
H63	H	0.694268	-0.694678	0.664348
H64	H	0.558396	-0.581812	0.684735
H65	H	0.562579	-0.644132	0.611030
C66	C	0.910748	-0.562472	0.697382
C67	C	0.938540	-0.576696	0.609608
H68	H	0.940373	-0.601130	0.738173
H69	H	0.847638	-0.566851	0.701992
H70	H	0.925401	-0.509791	0.711513
H71	H	0.923881	-0.629375	0.595475
H72	H	1.001664	-0.572325	0.604995
H73	H	0.623546	-0.400472	0.423718
C74	C	1.170899	-0.664688	1.084910
C75	C	1.123311	-0.607536	1.028004
H76	H	1.130028	-0.699091	1.114507
H77	H	1.202770	-0.637846	1.128289
H78	H	1.212165	-0.695896	1.050522
H79	H	1.082050	-0.576324	1.062394
H80	H	1.091425	-0.634380	0.984620
H81	H	0.767707	-0.353730	0.374401
C82	C	1.423157	-0.355161	0.908819
C83	C	1.376177	-0.394719	0.844854
H84	H	1.464021	-0.320755	0.879216
H85	H	1.455429	-0.393937	0.947417
H86	H	1.381878	-0.323953	0.943193
H87	H	1.417455	-0.425931	0.810484
H88	H	1.343903	-0.355938	0.806240
C89	C	1.360482	-0.310676	1.237226
C90	C	1.414277	-0.362616	1.186151
H91	H	1.397693	-0.279348	1.271337
H92	H	1.323853	-0.341513	1.276644
H93	H	1.323429	-0.275930	1.198329
H94	H	1.451325	-0.397366	1.225048
H95	H	1.450922	-0.331776	1.146728
C96	C	1.152090	-0.583335	0.739248
C97	C	1.134635	-0.598017	0.830883
H98	H	1.114878	-0.614656	0.705131
H99	H	1.213376	-0.597694	0.727349
H100	H	1.139840	-0.527698	0.723118
H101	H	1.146892	-0.653653	0.847015
H102	H	1.073336	-0.583663	0.842788
H103	H	1.408452	-0.367547	1.001470
