data_functionalizedCrystal
_audit_creation_method	'MofGen! by Chris Wilmer'
_symmetry_space_group_name_H-M	'P1'
_symmetry_Int_Tables_number	1
_symmetry_cell_setting	triclinic
loop_
_symmetry_equiv_pos_as_xyz
  x,y,z
_cell_length_a	19.805407
_cell_length_b	12.759394
_cell_length_c	19.805399
_cell_angle_alpha	90.022273
_cell_angle_beta	90.017803
_cell_angle_gamma	90.011172
loop_
_atom_site_label
_atom_site_type_symbol
_atom_site_fract_x
_atom_site_fract_y
_atom_site_fract_z
Zn1	Zn	1.034795	-0.418366	0.382713
Zn2	Zn	1.534795	0.081634	0.882713
Zn3	Zn	1.034734	-0.594059	0.269535
Zn4	Zn	1.534734	-0.094059	0.769535
Zn5	Zn	0.921609	-0.418387	0.269541
Zn6	Zn	1.421609	0.081613	0.769541
Zn7	Zn	0.921598	-0.593995	0.382685
Zn8	Zn	1.421598	-0.093995	0.882685
O9	O	0.978184	-0.506202	0.326118
O10	O	1.478184	-0.006202	0.826118
O11	O	1.129503	-0.441690	0.367708
O12	O	1.629503	0.058310	0.867708
O13	O	1.019708	-0.570792	0.174819
O14	O	1.519708	-0.070792	0.674819
O15	O	0.936654	-0.271363	0.284567
O16	O	1.436654	0.228637	0.784567
O17	O	1.129459	-0.570771	0.284557
O18	O	1.629459	-0.070771	0.784557
O19	O	1.019811	-0.271348	0.367714
O20	O	1.519811	0.228652	0.867714
O21	O	0.936595	-0.441726	0.174823
O22	O	1.436595	0.058274	0.674823
O23	O	0.826891	-0.441664	0.284541
O24	O	1.326891	0.058336	0.784541
O25	O	0.936634	-0.570662	0.477405
O26	O	1.436634	-0.070662	0.977405
O27	O	0.826883	-0.570682	0.367667
O28	O	1.326883	-0.070682	0.867667
O29	O	1.019799	-0.441628	0.477426
O30	O	1.519799	0.058372	0.977426
O31	O	1.019696	-0.741072	0.284531
O32	O	1.519696	-0.241072	0.784531
O33	O	0.936575	-0.741025	0.367662
O34	O	1.436575	-0.241025	0.867662
C35	C	0.802328	-0.506169	0.326102
C36	C	1.302328	-0.006169	0.826102
C37	C	0.727096	-0.506180	0.326111
C38	C	1.227096	-0.006180	0.826111
C39	C	0.691776	-0.439087	0.369474
C40	C	1.191776	0.060913	0.869474
C41	C	0.621087	-0.439092	0.369476
C42	C	1.121087	0.060908	0.869476
C43	C	0.585720	-0.506197	0.326119
C44	C	1.085720	-0.006197	0.826119
C45	C	0.621046	-0.573294	0.282752
C46	C	1.121046	-0.073294	0.782752
C47	C	0.691733	-0.573282	0.282746
C48	C	1.191733	-0.073282	0.782746
C49	C	0.335972	-0.573341	0.282772
C50	C	0.835972	-0.073341	0.782772
C51	C	0.265280	-0.573350	0.282783
C52	C	0.765280	-0.073350	0.782783
C53	C	0.265327	-0.439151	0.369502
C54	C	0.765327	0.060849	0.869502
C55	C	0.336014	-0.439139	0.369497
C56	C	0.836014	0.060861	0.869497
C57	C	0.371333	-0.506232	0.326127
C58	C	0.871333	-0.006232	0.826127
C59	C	0.447981	-0.506223	0.326124
C60	C	0.947981	-0.006223	0.826124
C61	C	0.509073	-0.506212	0.326125
C62	C	1.009073	-0.006212	0.826125
C63	C	0.978146	-0.779169	0.326107
C64	C	1.478146	-0.279169	0.826107
C65	C	0.978192	-0.895946	0.326125
C66	C	1.478192	-0.395946	0.826125
C67	C	1.064719	-0.895772	0.412771
C68	C	1.564719	-0.395772	0.912771
C69	C	1.108003	-0.950546	0.456099
C70	C	1.608003	-0.450546	0.956099
C71	C	1.108043	-1.060267	0.456113
C72	C	1.608043	-0.560267	0.956113
C73	C	1.064793	-1.115218	0.412797
C74	C	1.564793	-0.615218	0.912797
C75	C	1.021508	-1.060444	0.369469
C76	C	1.521508	-0.560444	0.869469
C77	C	1.021474	-0.950720	0.369457
C78	C	1.521474	-0.450720	0.869457
C79	C	0.934980	-1.060618	0.282827
C80	C	1.434980	-0.560618	0.782827
C81	C	0.934942	-0.950896	0.282808
C82	C	1.434942	-0.450896	0.782808
C83	C	0.891729	-1.115568	0.239511
C84	C	1.391729	-0.615568	0.739511
C85	C	0.848447	-1.060795	0.196178
C86	C	1.348447	-0.560795	0.696178
C87	C	0.848409	-0.951066	0.196165
C88	C	1.348409	-0.451066	0.696165
C89	C	0.891657	-0.896123	0.239480
C90	C	1.391657	-0.396123	0.739480
C91	C	1.154727	-0.506236	0.326135
C92	C	1.654727	-0.006236	0.826135
C93	C	1.229959	-0.506250	0.326142
C94	C	1.729959	-0.006250	0.826142
C95	C	0.978222	-0.506136	0.502661
C96	C	1.478222	-0.006136	1.002661
C97	C	0.978238	-0.506108	0.577893
C98	C	1.478238	-0.006108	1.077893
C99	C	0.978240	-0.232169	0.326144
C100	C	1.478240	0.267831	0.826144
C101	C	0.978264	-0.115392	0.326155
C102	C	1.478264	0.384608	0.826155
C103	C	0.978185	-0.506192	0.150262
C104	C	1.478185	-0.006192	0.650262
C105	C	0.978300	-0.505924	0.075031
C106	C	1.478300	-0.005924	0.575031
C107	C	1.021543	-0.438916	0.613249
C108	C	1.521543	0.061084	1.113249
C109	C	1.021550	-0.438886	0.683937
C110	C	1.521550	0.061114	1.183937
C111	C	0.978255	-0.506053	0.719269
C112	C	1.478255	-0.006053	1.219269
C113	C	0.934945	-0.573247	0.683908
C114	C	1.434945	-0.073247	1.183908
C115	C	0.934935	-0.573271	0.613221
C116	C	1.434935	-0.073271	1.113221
C117	C	0.934983	-0.573149	0.968982
C118	C	1.434983	-0.073149	1.468982
C119	C	0.934998	-0.573122	1.039674
C120	C	1.434998	-0.073122	1.539674
C121	C	1.021598	-0.438763	1.039698
C122	C	1.521598	0.061237	1.539698
C123	C	1.021588	-0.438788	0.969011
C124	C	1.521588	0.061212	1.469011
C125	C	0.978276	-0.505978	0.933656
C126	C	1.478276	-0.005978	1.433656
C127	C	0.978268	-0.506009	0.857008
C128	C	1.478268	-0.006009	1.357008
C129	C	0.978266	-0.506028	0.795916
C130	C	1.478266	-0.006028	1.295916
H131	H	0.364806	-0.384499	0.404805
H132	H	0.864806	0.115501	0.904805
N133	N	0.227233	-0.366781	0.416280
N134	N	0.727233	0.133219	0.916280
H135	H	0.177086	-0.376964	0.409705
H136	H	0.677086	0.123036	0.909705
H137	H	0.239592	-0.291723	0.405829
H138	H	0.739592	0.208277	0.905829
H139	H	1.064697	-0.806431	0.412757
H140	H	1.564697	-0.306431	0.912757
N141	N	1.068257	-0.366426	0.722081
N142	N	1.568257	0.133574	1.222081
H143	H	1.040762	-0.317724	0.751407
H144	H	1.540762	0.182276	1.251407
H145	H	1.095681	-0.323948	0.688938
H146	H	1.595681	0.176052	1.188938
N147	N	0.729834	-0.645650	0.235980
N148	N	1.229834	-0.145650	0.735980
H149	H	0.759150	-0.602880	0.204659
H150	H	1.259150	-0.102880	0.704659
H151	H	0.696663	-0.688151	0.208559
H152	H	1.196663	-0.188151	0.708559
N153	N	0.801804	-1.120056	0.149461
N154	N	1.301804	-0.620056	0.649461
H155	H	0.770439	-1.165589	0.176947
H156	H	1.270439	-0.665589	0.676947
H157	H	0.829394	-1.165519	0.118136
H158	H	1.329394	-0.665519	0.618136
N159	N	0.801720	-0.891991	0.149435
N160	N	1.301720	-0.391991	0.649435
H161	H	0.774330	-0.943455	0.122000
H162	H	1.274330	-0.443455	0.622000
H163	H	0.829270	-0.846466	0.118126
H164	H	1.329270	-0.346466	0.618126
H165	H	0.236487	-0.627998	0.247473
H166	H	0.736487	-0.127998	0.747473
N167	N	0.891614	-0.777781	0.239472
N168	N	1.391614	-0.277781	0.739472
H169	H	0.857630	-0.751416	0.205454
H170	H	1.357630	-0.251416	0.705454
H171	H	0.938065	-0.751391	0.227086
H172	H	1.438065	-0.251391	0.727086
N173	N	0.374062	-0.645699	0.235996
N174	N	0.874062	-0.145699	0.735996
H175	H	0.340929	-0.688211	0.208533
H176	H	0.840929	-0.188211	0.708533
H177	H	0.403401	-0.694373	0.263487
H178	H	0.903401	-0.194373	0.763487
H179	H	1.143216	-0.905796	0.491368
H180	H	1.643216	-0.405796	0.991368
N181	N	0.729918	-0.366718	0.416245
N182	N	1.229918	0.133282	0.916245
H183	H	0.759243	-0.317969	0.388795
H184	H	1.259243	0.182031	0.888795
H185	H	0.759212	-0.409560	0.447551
H186	H	1.259212	0.090440	0.947551
H187	H	0.899726	-0.627875	0.940204
H188	H	1.399726	-0.127875	1.440204
N189	N	0.582904	-0.645663	0.235980
N190	N	1.082904	-0.145663	0.735980
H191	H	0.532764	-0.635491	0.242563
H192	H	1.032764	-0.135491	0.742563
H193	H	0.595259	-0.720718	0.246427
H194	H	1.095259	-0.220718	0.746427
H195	H	1.056846	-0.384097	0.940248
H196	H	1.556846	0.115903	1.440248
H197	H	0.899665	-0.627975	0.584435
H198	H	1.399665	-0.127975	1.084435
N199	N	1.064834	-1.233559	0.412810
N200	N	1.564834	-0.733559	0.912810
H201	H	1.077308	-1.260010	0.366391
H202	H	1.577308	-0.760010	0.866391
H203	H	1.018394	-1.259944	0.425243
H204	H	1.518394	-0.759944	0.925243
N205	N	1.068245	-0.366478	0.575144
N206	N	1.568245	0.133522	1.075144
H207	H	1.095679	-0.323907	0.608271
H208	H	1.595679	0.176093	1.108271
H209	H	1.040701	-0.317862	0.545815
H210	H	1.540701	0.182138	1.045815
H211	H	1.143282	-1.104864	0.491402
H212	H	1.643282	-0.604864	0.991402
H213	H	0.592332	-0.384460	0.404788
H214	H	1.092332	0.115540	0.904788
N215	N	1.068314	-0.366288	1.077830
N216	N	1.568314	0.133712	1.577830
H217	H	1.061751	-0.376458	1.127972
H218	H	1.561751	0.123542	1.627972
H219	H	1.057796	-0.291256	1.065478
H220	H	1.557796	0.208744	1.565478
N221	N	0.891776	-1.233910	0.239521
N222	N	1.391776	-0.733910	0.739521
H223	H	0.857811	-1.260407	0.205507
H224	H	1.357811	-0.760407	0.705507
H225	H	0.879344	-1.260235	0.285968
H226	H	1.379344	-0.760235	0.785968
N227	N	0.888299	-0.645569	1.077784
N228	N	1.388299	-0.145569	1.577784
H229	H	0.860858	-0.688136	1.044661
H230	H	1.360858	-0.188136	1.544661
H231	H	0.856994	-0.602781	1.107114
H232	H	1.356994	-0.102781	1.607114
H233	H	0.899691	-0.627932	0.712681
H234	H	1.399691	-0.127932	1.212681
