data_functionalizedCrystal
_audit_creation_method	'MofGen! by Chris Wilmer'
_symmetry_space_group_name_H-M	'P1'
_symmetry_Int_Tables_number	1
_symmetry_cell_setting	triclinic
loop_
_symmetry_equiv_pos_as_xyz
  x,y,z
_cell_length_a	13.897449
_cell_length_b	13.897448
_cell_length_c	13.897441
_cell_angle_alpha	90.028012
_cell_angle_beta	90.022859
_cell_angle_gamma	90.019402
loop_
_atom_site_label
_atom_site_type_symbol
_atom_site_fract_x
_atom_site_fract_y
_atom_site_fract_z
Zn1	Zn	-1.474690	0.383988	-0.545453
Zn2	Zn	-1.141357	0.717322	-0.212120
Zn3	Zn	-0.808023	1.050655	0.121213
Zn4	Zn	-1.474579	0.545310	-0.384162
Zn5	Zn	-1.141245	0.878643	-0.050829
Zn6	Zn	-0.807912	1.211977	0.282505
Zn7	Zn	-1.313379	0.384030	-0.384166
Zn8	Zn	-0.980046	0.717364	-0.050832
Zn9	Zn	-0.646713	1.050697	0.282501
Zn10	Zn	-1.313356	0.545243	-0.545408
Zn11	Zn	-0.980022	0.878576	-0.212075
Zn12	Zn	-0.646689	1.211909	0.121258
O13	O	-1.394001	0.464643	-0.464797
O14	O	-1.060668	0.797976	-0.131464
O15	O	-0.727334	1.131310	0.201869
O16	O	-1.609657	0.405399	-0.524075
O17	O	-1.276324	0.738732	-0.190741
O18	O	-0.942990	1.072065	0.142592
O19	O	-1.453159	0.523962	-0.249181
O20	O	-1.119825	0.857295	0.084153
O21	O	-0.786492	1.190628	0.417486
O22	O	-1.334834	0.249043	-0.405581
O23	O	-1.001501	0.582376	-0.072248
O24	O	-0.668167	0.915710	0.261086
O25	O	-1.609575	0.523921	-0.405575
O26	O	-1.276242	0.857254	-0.072241
O27	O	-0.942908	1.190588	0.261092
O28	O	-1.453348	0.249012	-0.524078
O29	O	-1.120015	0.582346	-0.190745
O30	O	-0.786682	0.915679	0.142588
O31	O	-1.334726	0.405470	-0.249183
O32	O	-1.001393	0.738803	0.084150
O33	O	-0.668059	1.072137	0.417483
O34	O	-1.178394	0.405405	-0.405538
O35	O	-0.845061	0.738738	-0.072204
O36	O	-0.511728	1.072071	0.261129
O37	O	-1.334794	0.523806	-0.680396
O38	O	-1.001460	0.857140	-0.347063
O39	O	-0.668127	1.190473	-0.013729
O40	O	-1.178377	0.523847	-0.524002
O41	O	-0.845044	0.857180	-0.190669
O42	O	-0.511710	1.190513	0.142665
O43	O	-1.453325	0.405333	-0.680429
O44	O	-1.119992	0.738667	-0.347096
O45	O	-0.786659	1.072000	-0.013762
O46	O	-1.453136	0.680283	-0.405531
O47	O	-1.119802	1.013616	-0.072198
O48	O	-0.786469	1.346949	0.261135
O49	O	-1.334686	0.680233	-0.523999
O50	O	-1.001352	1.013567	-0.190665
O51	O	-0.668019	1.346900	0.142668
C52	C	-1.143387	0.464624	-0.464766
C53	C	-0.810053	0.797957	-0.131433
C54	C	-0.476720	1.131290	0.201901
C55	C	-1.036173	0.464639	-0.464775
C56	C	-0.702839	0.797972	-0.131442
C57	C	-0.369506	1.131305	0.201891
C58	C	-0.839878	0.464637	-0.464794
C59	C	-0.506544	0.797970	-0.131460
C60	C	-0.173211	1.131304	0.201873
C61	C	-0.949110	0.464635	-0.464781
C62	C	-0.615777	0.797968	-0.131447
C63	C	-0.282443	1.131302	0.201886
C64	C	-1.393922	0.715257	-0.464781
C65	C	-1.060589	1.048591	-0.131447
C66	C	-0.727256	1.381924	0.201886
C67	C	-1.393977	0.822471	-0.464806
C68	C	-1.060644	1.155804	-0.131472
C69	C	-0.727310	1.489138	0.201861
C70	C	-0.645594	0.464656	-0.464820
C71	C	-0.312261	0.797990	-0.131487
C72	C	0.021073	1.131323	0.201847
C73	C	-0.752808	0.464646	-0.464806
C74	C	-0.419474	0.797979	-0.131472
C75	C	-0.086141	1.131313	0.201861
C76	C	-1.394072	1.018766	-0.464875
C77	C	-1.060738	1.352099	-0.131542
C78	C	-0.727405	1.685433	0.201791
C79	C	-1.394016	0.909534	-0.464840
C80	C	-1.060683	1.242867	-0.131506
C81	C	-0.727350	1.576200	0.201827
C82	C	-1.394069	0.464558	-0.716390
C83	C	-1.060736	0.797891	-0.383057
C84	C	-0.727403	1.131224	-0.049724
C85	C	-1.394098	0.464521	-0.823604
C86	C	-1.060765	0.797855	-0.490271
C87	C	-0.727432	1.131188	-0.156938
C88	C	-1.394098	1.213050	-0.464846
C89	C	-1.060765	1.546383	-0.131513
C90	C	-0.727431	1.879717	0.201820
C91	C	-1.394118	1.105836	-0.464896
C92	C	-1.060785	1.439169	-0.131563
C93	C	-0.727452	1.772503	0.201770
C94	C	-1.394125	0.464456	-1.019900
C95	C	-1.060791	0.797789	-0.686566
C96	C	-0.727458	1.131123	-0.353233
C97	C	-1.394107	0.464495	-0.910667
C98	C	-1.060774	0.797828	-0.577334
C99	C	-0.727440	1.131162	-0.244000
C100	C	-1.393988	0.464658	-0.214183
C101	C	-1.060655	0.797992	0.119150
C102	C	-0.727322	1.131325	0.452484
C103	C	-1.394146	0.464423	-0.106970
C104	C	-1.060813	0.797756	0.226364
C105	C	-0.727479	1.131089	0.559697
