data_functionalizedCrystal
_audit_creation_method	'MofGen! by Chris Wilmer'
_symmetry_space_group_name_H-M	'P1'
_symmetry_Int_Tables_number	1
_symmetry_cell_setting	triclinic
loop_
_symmetry_equiv_pos_as_xyz
  x,y,z
_cell_length_a	29.839133
_cell_length_b	29.839135
_cell_length_c	29.839125
_cell_angle_alpha	89.984512
_cell_angle_beta	89.992589
_cell_angle_gamma	90.032133
loop_
_atom_site_label
_atom_site_type_symbol
_atom_site_fract_x
_atom_site_fract_y
_atom_site_fract_z
Zn1	Zn	-0.178886	0.686757	-0.254079
Zn2	Zn	0.154447	1.020090	0.079254
Zn3	Zn	0.487781	1.353423	0.412587
Zn4	Zn	-0.253998	0.686704	-0.178963
Zn5	Zn	0.079335	1.020038	0.154370
Zn6	Zn	0.412669	1.353371	0.487704
Zn7	Zn	-0.178886	0.611639	-0.178957
Zn8	Zn	0.154447	0.944973	0.154376
Zn9	Zn	0.487781	1.278306	0.487709
Zn10	Zn	-0.253993	0.611603	-0.254060
Zn11	Zn	0.079340	0.944936	0.079274
Zn12	Zn	0.412674	1.278269	0.412607
O13	O	-0.216441	0.649176	-0.216515
O14	O	0.116893	0.982509	0.116818
O15	O	0.450226	1.315842	0.450152
O16	O	-0.188852	0.749617	-0.244126
O17	O	0.144482	1.082950	0.089208
O18	O	0.477815	1.416283	0.422541
O19	O	-0.244036	0.676740	-0.116095
O20	O	0.089297	1.010073	0.217238
O21	O	0.422630	1.343407	0.550572
O22	O	-0.116019	0.621641	-0.188929
O23	O	0.217314	0.954974	0.144405
O24	O	0.550648	1.288308	0.477738
O25	O	-0.244036	0.749578	-0.188938
O26	O	0.089297	1.082912	0.144396
O27	O	0.422630	1.416245	0.477729
O28	O	-0.116019	0.676829	-0.244120
O29	O	0.217314	1.010163	0.089213
O30	O	0.550648	1.343496	0.422546
O31	O	-0.188852	0.621590	-0.116091
O32	O	0.144481	0.954924	0.217242
O33	O	0.477815	1.288257	0.550576
O34	O	-0.188847	0.548767	-0.188909
O35	O	0.144486	0.882101	0.144424
O36	O	0.477819	1.215434	0.477757
O37	O	-0.244028	0.621578	-0.316930
O38	O	0.089306	0.954912	0.016404
O39	O	0.422639	1.288245	0.349737
O40	O	-0.244028	0.548740	-0.244087
O41	O	0.089305	0.882074	0.089247
O42	O	0.422639	1.215407	0.422580
O43	O	-0.188847	0.676794	-0.316944
O44	O	0.144486	1.010127	0.016389
O45	O	0.477820	1.343460	0.349723
O46	O	-0.316864	0.676704	-0.188919
O47	O	0.016469	1.010038	0.144415
O48	O	0.349802	1.343371	0.477748
O49	O	-0.316861	0.621528	-0.244092
O50	O	0.016473	0.954861	0.089241
O51	O	0.349806	1.288194	0.422575
C52	C	-0.216437	0.532453	-0.216496
C53	C	0.116896	0.865786	0.116838
C54	C	0.450229	1.199120	0.450171
C55	C	-0.216447	0.482519	-0.216498
C56	C	0.116887	0.815852	0.116835
C57	C	0.450220	1.149185	0.450169
C58	C	-0.187750	0.172892	-0.245294
C59	C	0.145584	0.506226	0.088040
C60	C	0.478917	0.839559	0.421373
C61	C	-0.187753	-0.014781	-0.245306
C62	C	0.145581	0.318553	0.088027
C63	C	0.478914	0.651886	0.421360
O64	O	-0.163343	-0.039031	-0.269768
O65	O	0.169990	0.294302	0.063565
O66	O	0.503323	0.627636	0.396899
N67	N	-0.216441	-0.038266	-0.216531
N68	N	0.116892	0.295067	0.116802
N69	N	0.450225	0.628400	0.450135
C70	C	-0.245129	-0.014831	-0.187749
C71	C	0.088205	0.318502	0.145584
C72	C	0.421538	0.651836	0.478918
O73	O	-0.269527	-0.039113	-0.163271
O74	O	0.063806	0.294220	0.170062
O75	O	0.397140	0.627553	0.503395
C76	C	-0.245123	0.172841	-0.187734
C77	C	0.088210	0.506175	0.145599
C78	C	0.421544	0.839508	0.478932
C79	C	-0.216436	0.196324	-0.216514
C80	C	0.116897	0.529658	0.116819
C81	C	0.450231	0.862991	0.450152
C82	C	-0.159065	0.196376	-0.274071
C83	C	0.174269	0.529709	0.059262
C84	C	0.507602	0.863042	0.392596
C85	C	-0.159066	0.243291	-0.274069
C86	C	0.174267	0.576624	0.059264
C87	C	0.507601	0.909958	0.392598
C88	C	-0.187752	0.266723	-0.245290
C89	C	0.145581	0.600057	0.088043
C90	C	0.478914	0.933390	0.421377
C91	C	-0.216437	0.243240	-0.216513
C92	C	0.116896	0.576573	0.116821
C93	C	0.450229	0.909907	0.450154
C94	C	-0.273808	0.196276	-0.158950
C95	C	0.059525	0.529609	0.174383
C96	C	0.392859	0.862942	0.507716
C97	C	-0.273803	0.243197	-0.158948
C98	C	0.059530	0.576530	0.174385
C99	C	0.392863	0.909863	0.507718
C100	C	-0.245116	0.266680	-0.187728
C101	C	0.088217	0.600013	0.145605
C102	C	0.421550	0.933347	0.478938
C103	C	-0.245125	0.313588	-0.187732
C104	C	0.088208	0.646921	0.145602
C105	C	0.421542	0.980254	0.478935
N106	N	-0.216436	0.337073	-0.216507
N107	N	0.116897	0.670407	0.116827
N108	N	0.450230	1.003740	0.450160
C109	C	-0.187750	0.313641	-0.245286
C110	C	0.145583	0.646974	0.088047
C111	C	0.478917	0.980308	0.421381
C112	C	-0.245130	-0.113362	-0.187759
C113	C	0.088203	0.219972	0.145574
C114	C	0.421536	0.553305	0.478907
C115	C	-0.245132	-0.160279	-0.187764
C116	C	0.088201	0.173054	0.145570
C117	C	0.421534	0.506387	0.478903
C118	C	-0.187756	-0.160226	-0.245320
C119	C	0.145578	0.173107	0.088013
C120	C	0.478911	0.506441	0.421346
C121	C	-0.187756	-0.113307	-0.245318
C122	C	0.145577	0.220026	0.088015
C123	C	0.478910	0.553359	0.421349
C124	C	-0.216442	-0.089876	-0.216534
C125	C	0.116891	0.243457	0.116799
C126	C	0.450225	0.576791	0.450132
C127	C	-0.187755	0.412167	-0.245280
C128	C	0.145578	0.745500	0.088053
C129	C	0.478911	1.078834	0.421386
C130	C	-0.187760	0.459087	-0.245277
C131	C	0.145573	0.792420	0.088056
C132	C	0.478906	1.125753	0.421389
C133	C	-0.245135	0.459029	-0.187719
C134	C	0.088198	0.792362	0.145614
C135	C	0.421532	1.125696	0.478948
C136	C	-0.245132	0.412113	-0.187724
C137	C	0.088201	0.745447	0.145610
C138	C	0.421535	1.078780	0.478943
C139	C	-0.216438	0.388684	-0.216506
C140	C	0.116895	0.722017	0.116828
C141	C	0.450228	1.055350	0.450161
O142	O	-0.269518	0.337867	-0.163280
O143	O	0.063815	0.671200	0.170054
O144	O	0.397149	1.004533	0.503387
O145	O	-0.163349	0.337931	-0.269753
O146	O	0.169985	0.671265	0.063580
O147	O	0.503318	1.004598	0.396914
C148	C	-0.187748	0.125977	-0.245295
C149	C	0.145585	0.459310	0.088038
C150	C	0.478918	0.792644	0.421371
C151	C	-0.216434	0.102494	-0.216518
C152	C	0.116900	0.435827	0.116815
C153	C	0.450233	0.769160	0.450149
C154	C	-0.245120	0.125926	-0.187739
C155	C	0.088213	0.459259	0.145594
C156	C	0.421547	0.792592	0.478928
C157	C	-0.216436	0.055576	-0.216522
C158	C	0.116898	0.388909	0.116811
C159	C	0.450231	0.722242	0.450145
C160	C	-0.187749	0.032144	-0.245301
C161	C	0.145584	0.365477	0.088032
C162	C	0.478917	0.698810	0.421365
C163	C	-0.159061	0.055629	-0.274076
C164	C	0.174272	0.388963	0.059257
C165	C	0.507606	0.722296	0.392591
C166	C	-0.159062	0.102545	-0.274074
C167	C	0.174271	0.435878	0.059259
C168	C	0.507604	0.769211	0.392592
C169	C	-0.273808	0.102440	-0.158964
C170	C	0.059525	0.435773	0.174369
C171	C	0.392858	0.769107	0.507703
C172	C	-0.273805	0.055525	-0.158968
C173	C	0.059528	0.388858	0.174365
C174	C	0.392862	0.722191	0.507698
C175	C	-0.245119	0.032092	-0.187747
C176	C	0.088215	0.365426	0.145586
C177	C	0.421548	0.698759	0.478919
C178	C	-0.333163	0.649119	-0.216514
C179	C	0.000170	0.982452	0.116820
C180	C	0.333503	1.315785	0.450153
C181	C	-0.383098	0.649135	-0.216528
C182	C	-0.049764	0.982469	0.116805
C183	C	0.283569	1.315802	0.450139
C184	C	-0.739650	0.677929	-0.245286
C185	C	-0.406317	1.011262	0.088047
C186	C	-0.072983	1.344595	0.421380
C187	C	-0.551977	0.677886	-0.245286
C188	C	-0.218643	1.011219	0.088048
C189	C	0.114690	1.344553	0.421381
O190	O	-0.527682	0.702309	-0.269730
O191	O	-0.194349	1.035642	0.063603
O192	O	0.138984	1.368976	0.396936
N193	N	-0.528543	0.649171	-0.216527
N194	N	-0.195210	0.982504	0.116806
N195	N	0.138124	1.315837	0.450140
C196	C	-0.552030	0.620466	-0.187764
C197	C	-0.218697	0.953799	0.145569
C198	C	0.114637	1.287133	0.478902
O199	O	-0.527792	0.596044	-0.163300
O200	O	-0.194458	0.929378	0.170033
O201	O	0.138875	1.262711	0.503367
C202	C	-0.739702	0.620511	-0.187763
C203	C	-0.406369	0.953845	0.145570
C204	C	-0.073036	1.287178	0.478904
C205	C	-0.763134	0.649225	-0.216527
C206	C	-0.429800	0.982559	0.116807
C207	C	-0.096467	1.315892	0.450140
C208	C	-0.763081	0.706641	-0.274047
C209	C	-0.429748	1.039974	0.059286
C210	C	-0.096415	1.373307	0.392619
C211	C	-0.809997	0.706649	-0.274049
C212	C	-0.476664	1.039983	0.059285
C213	C	-0.143330	1.373316	0.392618
C214	C	-0.833481	0.677946	-0.245289
C215	C	-0.500147	1.011279	0.088044
C216	C	-0.166814	1.344613	0.421377
C217	C	-0.810049	0.649234	-0.216528
C218	C	-0.476716	0.982567	0.116805
C219	C	-0.143383	1.315901	0.450138
C220	C	-0.763189	0.591809	-0.158998
C221	C	-0.429855	0.925142	0.174335
C222	C	-0.096522	1.258476	0.507668
C223	C	-0.810110	0.591824	-0.159000
C224	C	-0.476776	0.925157	0.174334
C225	C	-0.143443	1.258490	0.507667
C226	C	-0.833541	0.620538	-0.187764
C227	C	-0.500208	0.953871	0.145570
C228	C	-0.166874	1.287204	0.478903
C229	C	-0.880449	0.620539	-0.187770
C230	C	-0.547115	0.953872	0.145563
C231	C	-0.213782	1.287206	0.478896
N232	N	-0.903883	0.649254	-0.216529
N233	N	-0.570549	0.982588	0.116804
N234	N	-0.237216	1.315921	0.450138
C235	C	-0.880399	0.677958	-0.245289
C236	C	-0.547065	1.011291	0.088045
C237	C	-0.213732	1.344624	0.421378
C238	C	-0.453499	0.620444	-0.187768
C239	C	-0.120166	0.953777	0.145566
C240	C	0.213167	1.287110	0.478899
C241	C	-0.406582	0.620432	-0.187769
C242	C	-0.073248	0.953765	0.145565
C243	C	0.260085	1.287099	0.478898
C244	C	-0.406532	0.677853	-0.245289
C245	C	-0.073198	1.011186	0.088044
C246	C	0.260135	1.344519	0.421377
C247	C	-0.453450	0.677862	-0.245290
C248	C	-0.120117	1.011195	0.088043
C249	C	0.213216	1.344529	0.421376
C250	C	-0.476933	0.649159	-0.216526
C251	C	-0.143600	0.982492	0.116807
C252	C	0.189733	1.315826	0.450140
C253	C	-0.978924	0.677973	-0.245290
C254	C	-0.645591	1.011307	0.088043
C255	C	-0.312258	1.344640	0.421377
C256	C	-1.025844	0.677978	-0.245290
C257	C	-0.692511	1.011312	0.088043
C258	C	-0.359177	1.344645	0.421376
C259	C	-1.025890	0.620559	-0.187768
C260	C	-0.692557	0.953893	0.145565
C261	C	-0.359223	1.287226	0.478899
C262	C	-0.978974	0.620553	-0.187769
C263	C	-0.645641	0.953886	0.145564
C264	C	-0.312308	1.287219	0.478898
C265	C	-0.955493	0.649263	-0.216532
C266	C	-0.622160	0.982597	0.116802
C267	C	-0.288826	1.315930	0.450135
O268	O	-0.904772	0.596132	-0.163335
O269	O	-0.571439	0.929466	0.169998
O270	O	-0.238105	1.262799	0.503332
O271	O	-0.904645	0.702383	-0.269742
O272	O	-0.571312	1.035716	0.063591
O273	O	-0.237978	1.369050	0.396925
C274	C	-0.692734	0.677920	-0.245285
C275	C	-0.359401	1.011253	0.088049
C276	C	-0.026068	1.344587	0.421382
C277	C	-0.669303	0.649208	-0.216524
C278	C	-0.335970	0.982541	0.116810
C279	C	-0.002636	1.315875	0.450143
C280	C	-0.692787	0.620505	-0.187764
C281	C	-0.359453	0.953838	0.145569
C282	C	-0.026120	1.287171	0.478903
C283	C	-0.622385	0.649196	-0.216524
C284	C	-0.289052	0.982529	0.116809
C285	C	0.044282	1.315863	0.450142
C286	C	-0.598901	0.677900	-0.245284
C287	C	-0.265568	1.011233	0.088049
C288	C	0.067766	1.344566	0.421383
C289	C	-0.622335	0.706615	-0.274043
C290	C	-0.289002	1.039948	0.059291
C291	C	0.044332	1.373282	0.392624
C292	C	-0.669250	0.706623	-0.274044
C293	C	-0.335917	1.039957	0.059289
C294	C	-0.002584	1.373290	0.392623
C295	C	-0.669353	0.591789	-0.159005
C296	C	-0.336020	0.925123	0.174328
C297	C	-0.002686	1.258456	0.507661
C298	C	-0.622437	0.591783	-0.159007
C299	C	-0.289104	0.925116	0.174327
C300	C	0.044229	1.258449	0.507660
C301	C	-0.598953	0.620486	-0.187766
C302	C	-0.265620	0.953819	0.145567
C303	C	0.067713	1.287153	0.478901
C304	C	-0.099262	0.649245	-0.216526
C305	C	0.234071	0.982578	0.116807
C306	C	0.567404	1.315912	0.450141
C307	C	-0.049328	0.649275	-0.216531
C308	C	0.284005	0.982608	0.116803
C309	C	0.617339	1.315941	0.450136
C310	C	-0.216437	0.649188	-0.333693
C311	C	0.116897	0.982521	-0.000360
C312	C	0.450230	1.315854	0.332973
C313	C	-0.216435	0.649193	-0.383628
C314	C	0.116898	0.982526	-0.050294
C315	C	0.450232	1.315860	0.283039
C316	C	-0.216445	0.766354	-0.216534
C317	C	0.116889	1.099687	0.116799
C318	C	0.450222	1.433021	0.450132
C319	C	-0.216446	0.816288	-0.216543
C320	C	0.116887	1.149622	0.116791
C321	C	0.450221	1.482955	0.450124
C322	C	-0.187627	0.677974	-0.693282
C323	C	0.145706	1.011307	-0.359948
C324	C	0.479040	1.344640	-0.026615
C325	C	-0.187589	0.677996	-0.880955
C326	C	0.145745	1.011329	-0.547622
C327	C	0.479078	1.344663	-0.214288
O328	O	-0.163138	0.702433	-0.905229
O329	O	0.170195	1.035767	-0.571895
O330	O	0.503529	1.369100	-0.238562
N331	N	-0.216315	0.649253	-0.904413
N332	N	0.117019	0.982586	-0.571080
N333	N	0.450352	1.315919	-0.237746
C334	C	-0.245050	0.620499	-0.880950
C335	C	0.088283	0.953833	-0.547617
C336	C	0.421617	1.287166	-0.214283
O337	O	-0.269479	0.596048	-0.905209
O338	O	0.063854	0.929382	-0.571875
O339	O	0.397188	1.262715	-0.238542
C340	C	-0.245086	0.620475	-0.693278
C341	C	0.088248	0.953808	-0.359944
C342	C	0.421581	1.287142	-0.026611
C343	C	-0.216361	0.649224	-0.669822
C344	C	0.116972	0.982557	-0.336489
C345	C	0.450305	1.315890	-0.003155
C346	C	-0.158905	0.706720	-0.669826
C347	C	0.174429	1.040053	-0.336493
C348	C	0.507762	1.373386	-0.003159
C349	C	-0.158916	0.706716	-0.622910
C350	C	0.174417	1.040049	-0.289577
C351	C	0.507750	1.373382	0.043756
C352	C	-0.187650	0.677966	-0.599451
C353	C	0.145683	1.011299	-0.266117
C354	C	0.479016	1.344632	0.067216
C355	C	-0.216373	0.649220	-0.622907
C356	C	0.116960	0.982553	-0.289573
C357	C	0.450294	1.315886	0.043760
C358	C	-0.273819	0.591720	-0.669816
C359	C	0.059515	0.925053	-0.336482
C360	C	0.392848	1.258387	-0.003149
C361	C	-0.273824	0.591716	-0.622894
C362	C	0.059509	0.925049	-0.289561
C363	C	0.392842	1.258382	0.043772
C364	C	-0.245100	0.620464	-0.599439
C365	C	0.088234	0.953798	-0.266105
C366	C	0.421567	1.287131	0.067228
C367	C	-0.245119	0.620465	-0.552531
C368	C	0.088215	0.953799	-0.219198
C369	C	0.421548	1.287132	0.114135
N370	N	-0.216393	0.649209	-0.529073
N371	N	0.116941	0.982542	-0.195740
N372	N	0.450274	1.315876	0.137593
C373	C	-0.187659	0.677959	-0.552533
C374	C	0.145675	1.011292	-0.219200
C375	C	0.479008	1.344626	0.114134
C376	C	-0.245030	0.620515	-0.979481
C377	C	0.088303	0.953848	-0.646147
C378	C	0.421637	1.287181	-0.312814
C379	C	-0.245022	0.620521	-1.026398
C380	C	0.088312	0.953855	-0.693065
C381	C	0.421645	1.287188	-0.359732
C382	C	-0.187560	0.678018	-1.026400
C383	C	0.145774	1.011351	-0.693067
C384	C	0.479107	1.344684	-0.359733
C385	C	-0.187571	0.678013	-0.979481
C386	C	0.145763	1.011346	-0.646148
C387	C	0.479096	1.344680	-0.312815
C388	C	-0.216304	0.649258	-0.956022
C389	C	0.117029	0.982592	-0.622689
C390	C	0.450363	1.315925	-0.289356
C391	C	-0.187685	0.677948	-0.454007
C392	C	0.145648	1.011282	-0.120674
C393	C	0.478981	1.344615	0.212660
C394	C	-0.187701	0.677943	-0.407087
C395	C	0.145632	1.011276	-0.073754
C396	C	0.478966	1.344610	0.259579
C397	C	-0.245161	0.620445	-0.407090
C398	C	0.088172	0.953779	-0.073757
C399	C	0.421506	1.287112	0.259577
C400	C	-0.245147	0.620452	-0.454005
C401	C	0.088186	0.953785	-0.120672
C402	C	0.421519	1.287119	0.212661
C403	C	-0.216406	0.649205	-0.477463
C404	C	0.116927	0.982539	-0.144129
C405	C	0.450261	1.315872	0.189204
O406	O	-0.269553	0.596038	-0.528229
O407	O	0.063780	0.929371	-0.194895
O408	O	0.397113	1.262704	0.138438
O409	O	-0.163226	0.702399	-0.528266
O410	O	0.170107	1.035733	-0.194933
O411	O	0.503440	1.369066	0.138401
C412	C	-0.187616	0.677978	-0.740197
C413	C	0.145718	1.011311	-0.406864
C414	C	0.479051	1.344645	-0.073531
C415	C	-0.216338	0.649232	-0.763653
C416	C	0.116995	0.982565	-0.430320
C417	C	0.450329	1.315899	-0.096986
C418	C	-0.245072	0.620482	-0.740193
C419	C	0.088261	0.953815	-0.406860
C420	C	0.421594	1.287149	-0.073527
C421	C	-0.216330	0.649239	-0.810571
C422	C	0.117004	0.982572	-0.477237
C423	C	0.450337	1.315905	-0.143904
C424	C	-0.187596	0.677989	-0.834031
C425	C	0.145738	1.011322	-0.500697
C426	C	0.479071	1.344655	-0.167364
C427	C	-0.158870	0.706732	-0.810572
C428	C	0.174464	1.040066	-0.477239
C429	C	0.507797	1.373399	-0.143906
C430	C	-0.158881	0.706728	-0.763657
C431	C	0.174452	1.040061	-0.430324
C432	C	0.507785	1.373395	-0.096990
C433	C	-0.273798	0.591738	-0.763651
C434	C	0.059535	0.925072	-0.430318
C435	C	0.392869	1.258405	-0.096985
C436	C	-0.273785	0.591745	-0.810567
C437	C	0.059549	0.925079	-0.477234
C438	C	0.392882	1.258412	-0.143900
C439	C	-0.245050	0.620495	-0.834027
C440	C	0.088283	0.953829	-0.500693
C441	C	0.421616	1.287162	-0.167360
C442	C	-0.216412	0.649189	-0.099792
C443	C	0.116921	0.982523	0.233541
C444	C	0.450254	1.315856	0.566874
C445	C	-0.216288	0.649271	-0.049858
C446	C	0.117046	0.982605	0.283475
C447	C	0.450379	1.315938	0.616808
H448	H	-0.297168	0.121514	-0.135527
H449	H	0.036165	0.454847	0.197806
H450	H	0.369499	0.788180	0.531139
H451	H	-0.297218	0.568295	-0.603797
H452	H	0.036115	0.901628	-0.270463
H453	H	0.369448	1.234961	0.062870
H454	H	-0.829227	0.568450	-0.135576
H455	H	-0.495894	0.901784	0.197758
H456	H	-0.162560	1.235117	0.531091
C457	C	-0.305386	0.560123	-0.836365
C458	C	0.027947	0.893457	-0.503032
C459	C	0.361281	1.226790	-0.169698
H460	H	-0.301269	0.564242	-0.867669
H461	H	0.032064	0.897576	-0.534335
H462	H	0.365397	1.230909	-0.201002
H463	H	-0.298812	0.529942	-0.828668
H464	H	0.034521	0.863276	-0.495334
H465	H	0.367855	1.196609	-0.162001
H466	H	-0.335574	0.566683	-0.828679
H467	H	-0.002241	0.900017	-0.495345
H468	H	0.331093	1.233350	-0.162012
C469	C	-0.276746	0.588833	-0.479808
C470	C	0.056587	0.922166	-0.146474
C471	C	0.389921	1.255499	0.186859
H472	H	-0.293860	0.571709	-0.459114
H473	H	0.039474	0.905042	-0.125781
H474	H	0.372807	1.238375	0.207552
H475	H	-0.296316	0.606005	-0.498118
H476	H	0.037017	0.939339	-0.164785
H477	H	0.370351	1.272672	0.168548
H478	H	-0.259552	0.569267	-0.498102
H479	H	0.073781	0.902600	-0.164768
H480	H	0.407115	1.235933	0.168565
H481	H	-0.297198	0.568327	-0.744555
H482	H	0.036135	0.901660	-0.411222
H483	H	0.369469	1.234993	-0.077889
C484	C	-0.127509	0.269119	-0.305725
C485	C	0.205824	0.602452	0.027609
C486	C	0.539158	0.935786	0.360942
H487	H	-0.131615	0.300419	-0.301608
H488	H	0.201718	0.633752	0.031725
H489	H	0.535051	0.967085	0.365059
H490	H	-0.097315	0.261441	-0.299200
H491	H	0.236018	0.594775	0.034133
H492	H	0.569352	0.928108	0.367467
H493	H	-0.134134	0.261433	-0.335900
H494	H	0.199200	0.594767	-0.002567
H495	H	0.532533	0.928100	0.330767
H496	H	-1.044920	0.701360	-0.268716
H497	H	-0.711587	1.034693	0.064617
H498	H	-0.378253	1.368027	0.397951
C499	C	-0.737256	0.738214	-0.305689
C500	C	-0.403923	1.071547	0.027645
C501	C	-0.070590	1.404881	0.360978
H502	H	-0.757937	0.755310	-0.322817
H503	H	-0.424604	1.088643	0.010516
H504	H	-0.091270	1.421977	0.343849
H505	H	-0.718937	0.757801	-0.288531
H506	H	-0.385604	1.091134	0.044802
H507	H	-0.052271	1.424468	0.378135
H508	H	-0.718969	0.721005	-0.325249
H509	H	-0.385635	1.054339	0.008084
H510	H	-0.052302	1.387672	0.341417
H511	H	-1.045019	0.597189	-0.164354
H512	H	-0.711686	0.930522	0.168980
H513	H	-0.378352	1.263855	0.502313
H514	H	-0.268497	-0.179396	-0.164333
H515	H	0.064836	0.153938	0.169000
H516	H	0.398169	0.487271	0.502334
H517	H	-0.688324	0.730005	-0.297467
H518	H	-0.354991	1.063338	0.035866
H519	H	-0.021658	1.396672	0.369200
H520	H	-0.135475	0.730143	-0.829681
H521	H	0.197858	1.063476	-0.496348
H522	H	0.531192	1.396810	-0.163015
H523	H	-0.268557	0.597039	-0.387980
H524	H	0.064776	0.930372	-0.054647
H525	H	0.398110	1.263706	0.278686
C526	C	-0.305412	0.560092	-0.695607
C527	C	0.027921	0.893425	-0.362273
C528	C	0.361255	1.226758	-0.028940
H529	H	-0.322519	0.542967	-0.674909
H530	H	0.010815	0.876300	-0.341576
H531	H	0.344148	1.209633	-0.008242
H532	H	-0.324988	0.577259	-0.713916
H533	H	0.008345	0.910592	-0.380582
H534	H	0.341678	1.243926	-0.047249
H535	H	-0.288217	0.540527	-0.713901
H536	H	0.045116	0.873861	-0.380568
H537	H	0.378450	1.207194	-0.047235
C538	C	-0.380696	0.709427	-0.276924
C539	C	-0.047362	1.042761	0.056409
C540	C	0.285971	1.376094	0.389742
H541	H	-0.401367	0.726532	-0.294055
H542	H	-0.068034	1.059865	0.039278
H543	H	0.265299	1.393198	0.372611
H544	H	-0.362379	0.729006	-0.259756
H545	H	-0.029045	1.062340	0.073578
H546	H	0.304288	1.395673	0.406911
H547	H	-0.362405	0.692220	-0.296483
H548	H	-0.029072	1.025553	0.036850
H549	H	0.304261	1.358887	0.370184
H550	H	-0.135491	0.730138	-0.744563
H551	H	0.197843	1.063471	-0.411230
H552	H	0.531176	1.396805	-0.077897
C553	C	-0.127510	0.170607	-0.305733
C554	C	0.205824	0.503941	0.027600
C555	C	0.539157	0.837274	0.360933
H556	H	-0.110431	0.191319	-0.322871
H557	H	0.222902	0.524652	0.010462
H558	H	0.556236	0.857986	0.343796
H559	H	-0.107906	0.152307	-0.288589
H560	H	0.225427	0.485640	0.044744
H561	H	0.558761	0.818973	0.378078
H562	H	-0.144729	0.152306	-0.325285
H563	H	0.188604	0.485639	0.008049
H564	H	0.521938	0.818973	0.341382
C565	C	-0.737424	0.560228	-0.127353
C566	C	-0.404091	0.893561	0.205980
C567	C	-0.070757	1.226894	0.539314
H568	H	-0.758136	0.543142	-0.110223
H569	H	-0.424803	0.876476	0.223110
H570	H	-0.091470	1.209809	0.556444
H571	H	-0.719132	0.540631	-0.144509
H572	H	-0.385799	0.873965	0.188824
H573	H	-0.052465	1.207298	0.522157
H574	H	-0.719114	0.577429	-0.107794
H575	H	-0.385781	0.910763	0.225539
H576	H	-0.052448	1.244096	0.558873
H577	H	-0.268491	-0.094288	-0.164319
H578	H	0.064842	0.239045	0.169014
H579	H	0.398175	0.572379	0.502348
C580	C	-0.953199	0.588964	-0.156134
C581	C	-0.619866	0.922297	0.177199
C582	C	-0.286532	1.255631	0.510532
H583	H	-0.973907	0.571872	-0.139006
H584	H	-0.640573	0.905205	0.194327
H585	H	-0.307240	1.238538	0.527661
H586	H	-0.934906	0.569375	-0.173298
H587	H	-0.601573	0.902708	0.160035
H588	H	-0.268239	1.236041	0.493369
H589	H	-0.934889	0.606163	-0.136573
H590	H	-0.601556	0.939497	0.196760
H591	H	-0.268222	1.272830	0.530094
C592	C	-0.305360	0.170454	-0.127287
C593	C	0.027973	0.503788	0.206046
C594	C	0.361307	0.837121	0.539379
H595	H	-0.322437	0.191136	-0.110145
H596	H	0.010897	0.524469	0.223188
H597	H	0.344230	0.857802	0.556521
H598	H	-0.324966	0.152144	-0.144433
H599	H	0.008367	0.485478	0.188900
H600	H	0.341701	0.818811	0.522234
H601	H	-0.288140	0.152158	-0.107740
H602	H	0.045193	0.485491	0.225593
H603	H	0.378527	0.818825	0.558926
H604	H	-0.164280	0.701360	-0.473101
H605	H	0.169053	1.034694	-0.139767
H606	H	0.502387	1.368027	0.193566
H607	H	-0.164399	0.478204	-0.268715
H608	H	0.168934	0.811538	0.064618
H609	H	0.502267	1.144871	0.397952
H610	H	-0.387507	0.597045	-0.164351
H611	H	-0.054174	0.930379	0.168982
H612	H	0.279160	1.263712	0.502315
H613	H	-0.164396	-0.094190	-0.268752
H614	H	0.168938	0.239143	0.064581
H615	H	0.502271	0.572476	0.397914
H616	H	-0.959811	0.701353	-0.268710
H617	H	-0.626478	1.034686	0.064623
H618	H	-0.293144	1.368020	0.397956
H619	H	-0.829071	0.730035	-0.297468
H620	H	-0.495737	1.063368	0.035865
H621	H	-0.162404	1.396701	0.369199
C622	C	-0.479221	0.709451	-0.276926
C623	C	-0.145887	1.042785	0.056408
C624	C	0.187446	1.376118	0.389741
H625	H	-0.458511	0.726545	-0.294050
H626	H	-0.125178	1.059878	0.039283
H627	H	0.208156	1.393211	0.372616
H628	H	-0.497538	0.692260	-0.296484
H629	H	-0.164204	1.025593	0.036850
H630	H	0.169129	1.358927	0.370183
H631	H	-0.497506	0.729047	-0.259757
H632	H	-0.164173	1.062380	0.073577
H633	H	0.169160	1.395713	0.406910
C634	C	-0.155969	0.709631	-0.953684
C635	C	0.177364	1.042964	-0.620351
C636	C	0.510698	1.376298	-0.287018
H637	H	-0.138854	0.726751	-0.974380
H638	H	0.194479	1.060084	-0.641046
H639	H	0.527812	1.393418	-0.307713
H640	H	-0.173154	0.729194	-0.935382
H641	H	0.160180	1.062528	-0.602049
H642	H	0.493513	1.395861	-0.268716
H643	H	-0.136394	0.692451	-0.935382
H644	H	0.196939	1.025784	-0.602048
H645	H	0.530273	1.359118	-0.268715
C646	C	-0.305358	0.268971	-0.127287
C647	C	0.027975	0.602304	0.206046
C648	C	0.361308	0.935637	0.539380
H649	H	-0.301250	0.300277	-0.131403
H650	H	0.032084	0.633611	0.201931
H651	H	0.365417	0.966944	0.535264
H652	H	-0.335553	0.261265	-0.133810
H653	H	-0.002220	0.594599	0.199523
H654	H	0.331114	0.927932	0.532857
H655	H	-0.298732	0.261274	-0.097112
H656	H	0.034601	0.594608	0.236221
H657	H	0.367935	0.927941	0.569554
C658	C	-0.156197	0.386401	-0.276944
C659	C	0.177136	0.719734	0.056389
C660	C	0.510469	1.053067	0.389723
H661	H	-0.139119	0.407111	-0.294084
H662	H	0.194214	0.740445	0.039250
H663	H	0.527547	1.073778	0.372583
H664	H	-0.136593	0.368102	-0.259798
H665	H	0.196740	0.701435	0.073535
H666	H	0.530074	1.034768	0.406868
H667	H	-0.173417	0.368097	-0.296493
H668	H	0.159917	0.701431	0.036840
H669	H	0.493250	1.034764	0.370173
H670	H	-0.472615	0.597069	-0.164343
H671	H	-0.139282	0.930402	0.168990
H672	H	0.194052	1.263736	0.502323
H673	H	-0.164398	-0.179312	-0.268754
H674	H	0.168935	0.154021	0.064580
H675	H	0.502268	0.487354	0.397913
C676	C	-0.127315	0.738335	-0.597115
C677	C	0.206019	1.071668	-0.263782
C678	C	0.539352	1.405002	0.069552
H679	H	-0.110199	0.755453	-0.617812
H680	H	0.223134	1.088786	-0.284479
H681	H	0.556467	1.422119	0.048855
H682	H	-0.144499	0.757900	-0.578815
H683	H	0.188834	1.091234	-0.245482
H684	H	0.522168	1.424567	0.087851
H685	H	-0.107740	0.721156	-0.578811
H686	H	0.225593	1.054490	-0.245477
H687	H	0.558927	1.387823	0.087856
C688	C	-0.127297	0.738350	-0.695625
C689	C	0.206036	1.071684	-0.362291
C690	C	0.539370	1.405017	-0.028958
H691	H	-0.110197	0.755469	-0.674929
H692	H	0.223136	1.088802	-0.341596
H693	H	0.556469	1.422136	-0.008263
H694	H	-0.107715	0.721186	-0.713926
H695	H	0.225619	1.054520	-0.380593
H696	H	0.558952	1.387853	-0.047259
H697	H	-0.144483	0.757921	-0.713927
H698	H	0.188850	1.091254	-0.380594
H699	H	0.522184	1.424587	-0.047261
C700	C	-0.276690	0.386281	-0.156070
C701	C	0.056643	0.719614	0.177263
C702	C	0.389977	1.052947	0.510597
H703	H	-0.293773	0.406958	-0.138929
H704	H	0.039560	0.740291	0.194404
H705	H	0.372893	1.073624	0.527737
H706	H	-0.296289	0.367969	-0.173222
H707	H	0.037044	0.701303	0.160112
H708	H	0.370378	1.034636	0.493445
H709	H	-0.259471	0.367985	-0.136521
H710	H	0.073862	0.701319	0.196812
H711	H	0.407196	1.034652	0.530146
H712	H	-0.268492	0.478116	-0.164289
H713	H	0.064842	0.811449	0.169045
H714	H	0.398175	1.144783	0.502378
H715	H	-0.135702	0.121661	-0.297510
H716	H	0.197631	0.454994	0.035824
H717	H	0.530965	0.788327	0.369157
H718	H	-0.297170	0.036408	-0.135533
H719	H	0.036164	0.369742	0.197800
H720	H	0.369497	0.703075	0.531134
C721	C	-0.127506	0.029848	-0.305731
C722	C	0.205828	0.363181	0.027602
C723	C	0.539161	0.696515	0.360936
H724	H	-0.131614	-0.001457	-0.301605
H725	H	0.201719	0.331876	0.031728
H726	H	0.535052	0.665210	0.365062
H727	H	-0.134122	0.037539	-0.335906
H728	H	0.199211	0.370873	-0.002573
H729	H	0.532544	0.704206	0.330760
H730	H	-0.097309	0.037550	-0.299201
H731	H	0.236024	0.370883	0.034132
H732	H	0.569358	0.704217	0.367466
H733	H	-0.268417	0.597116	-1.045492
H734	H	0.064916	0.930449	-0.712159
H735	H	0.398250	1.263783	-0.378825
H736	H	-0.603363	0.568396	-0.135585
H737	H	-0.270029	0.901730	0.197749
H738	H	0.063304	1.235063	0.531082
C739	C	-0.596499	0.738185	-0.305682
C740	C	-0.263165	1.071518	0.027651
C741	C	0.070168	1.404851	0.360985
H742	H	-0.617170	0.755286	-0.322816
H743	H	-0.283837	1.088620	0.010517
H744	H	0.049496	1.421953	0.343850
H745	H	-0.578181	0.757767	-0.288518
H746	H	-0.244848	1.091100	0.044816
H747	H	0.088486	1.424433	0.378149
H748	H	-0.578209	0.720973	-0.325237
H749	H	-0.244876	1.054306	0.008096
H750	H	0.088458	1.387639	0.341429
C751	C	-0.156100	0.709565	-0.381289
C752	C	0.177233	1.042898	-0.047955
C753	C	0.510567	1.376232	0.285378
H754	H	-0.138982	0.726684	-0.401983
H755	H	0.194351	1.060017	-0.068649
H756	H	0.527684	1.393350	0.264684
H757	H	-0.173287	0.729129	-0.362990
H758	H	0.160046	1.062463	-0.029657
H759	H	0.493379	1.395796	0.303676
H760	H	-0.136527	0.692386	-0.362982
H761	H	0.196806	1.025719	-0.029649
H762	H	0.530139	1.359053	0.303684
H763	H	-0.268431	0.597099	-0.960385
H764	H	0.064902	0.930433	-0.627051
H765	H	0.398235	1.263766	-0.293718
H766	H	-0.688469	0.568416	-0.135585
H767	H	-0.355135	0.901749	0.197749
H768	H	-0.021802	1.235082	0.531082
H769	H	-0.164163	0.701427	-1.045509
H770	H	0.169170	1.034761	-0.712176
H771	H	0.502503	1.368094	-0.378842
