data_functionalizedCrystal
_audit_creation_method	'MofGen! by Chris Wilmer'
_symmetry_space_group_name_H-M	'P1'
_symmetry_Int_Tables_number	1
_symmetry_cell_setting	triclinic
loop_
_symmetry_equiv_pos_as_xyz
  x,y,z
_cell_length_a	12.759395
_cell_length_b	13.897448
_cell_length_c	12.759387
_cell_angle_alpha	89.967616
_cell_angle_beta	89.980929
_cell_angle_gamma	90.019229
loop_
_atom_site_label
_atom_site_type_symbol
_atom_site_fract_x
_atom_site_fract_y
_atom_site_fract_z
Zn1	Zn	1.606232	-0.383928	-0.593991
Zn2	Zn	1.606118	-0.545254	-0.418306
Zn3	Zn	1.430535	-0.383979	-0.418328
Zn4	Zn	1.430513	-0.545187	-0.593945
O5	O	1.518349	-0.464587	-0.506142
O6	O	1.753238	-0.405335	-0.570696
O7	O	1.582787	-0.523911	-0.271287
O8	O	1.453898	-0.248991	-0.441659
O9	O	1.753154	-0.523861	-0.441621
O10	O	1.582982	-0.248953	-0.570718
O11	O	1.453787	-0.405423	-0.271304
O12	O	1.283511	-0.405357	-0.441614
O13	O	1.453862	-0.523745	-0.740972
O14	O	1.283495	-0.523795	-0.570639
O15	O	1.582961	-0.405269	-0.741006
O16	O	1.582767	-0.680227	-0.441576
O17	O	1.453751	-0.680177	-0.570617
C18	C	1.245382	-0.464575	-0.506124
C19	C	1.128605	-0.464593	-0.506142
C20	C	1.518273	-0.715201	-0.506112
C21	C	1.518336	-0.822415	-0.506134
C22	C	1.128628	-0.588123	-0.640278
C23	C	1.073778	-0.649895	-0.707349
C24	C	0.964056	-0.649907	-0.707362
C25	C	0.909182	-0.588138	-0.640299
C26	C	0.964031	-0.526365	-0.573227
C27	C	1.073756	-0.526362	-0.573220
C28	C	0.964009	-0.402833	-0.439098
C29	C	1.073731	-0.402824	-0.439078
C30	C	0.909135	-0.341063	-0.372035
C31	C	0.963984	-0.279294	-0.304957
C32	C	1.073712	-0.279286	-0.304946
C33	C	1.128580	-0.341052	-0.372007
C34	C	1.518446	-1.018710	-0.506200
C35	C	1.518382	-0.909478	-0.506167
C36	C	1.792383	-0.464599	-0.506161
C37	C	1.909159	-0.464605	-0.506169
C38	C	1.518422	-0.464494	-0.780176
C39	C	1.518453	-0.464454	-0.896953
C40	C	1.518455	-0.212994	-0.506196
C41	C	1.518500	-0.105780	-0.506219
C42	C	1.652951	-0.341017	-1.116432
C43	C	1.720153	-0.279351	-1.061587
C44	C	1.720123	-0.279383	-0.951866
C45	C	1.652887	-0.341090	-0.896986
C46	C	1.585685	-0.402756	-0.951830
C47	C	1.585719	-0.402715	-1.061554
C48	C	1.451251	-0.526120	-0.951797
C49	C	1.451273	-0.526085	-1.061519
C50	C	1.384014	-0.587828	-0.896917
C51	C	1.316805	-0.649490	-0.951762
C52	C	1.316837	-0.649455	-1.061490
C53	C	1.384071	-0.587751	-1.116363
C54	C	1.518338	-0.464610	-0.233175
C55	C	1.518510	-0.464378	-0.116399
H56	H	1.217969	-0.588127	-0.640266
H57	H	1.118365	-0.228976	-0.250335
C58	C	0.903616	-0.211353	-0.231198
N59	N	0.858142	-0.160180	-0.175641
H60	H	1.217921	-0.341054	-0.372002
H61	H	1.774898	-0.229112	-1.106283
H62	H	0.919398	-0.700202	-0.761982
C63	C	1.652863	-0.341126	-0.776289
N64	N	1.652843	-0.341153	-0.685379
C65	C	1.384116	-0.587709	-1.237060
N66	N	1.384156	-0.587679	-1.327970
C67	C	0.788485	-0.588139	-0.640333
N68	N	0.697575	-0.588137	-0.640362
C69	C	1.134148	-0.717842	-0.781111
N70	N	1.179616	-0.769021	-0.836667
H71	H	1.774848	-0.229171	-0.907212
C72	C	0.788438	-0.341069	-0.372061
N73	N	0.697527	-0.341071	-0.372080
H74	H	1.652968	-0.340972	-1.205773
C75	C	1.383981	-0.587859	-0.776220
N76	N	1.383950	-0.587880	-0.685310
H77	H	1.262071	-0.699732	-0.907070
H78	H	1.262116	-0.699675	-1.106138
