data_functionalizedCrystal
_audit_creation_method	'MofGen! by Chris Wilmer'
_symmetry_space_group_name_H-M	'P1'
_symmetry_Int_Tables_number	1
_symmetry_cell_setting	triclinic
loop_
_symmetry_equiv_pos_as_xyz
  x,y,z
_cell_length_a	16.974885
_cell_length_b	10.654551
_cell_length_c	16.053802
_cell_angle_alpha	92.593346
_cell_angle_beta	91.069328
_cell_angle_gamma	83.937829
loop_
_atom_site_label
_atom_site_type_symbol
_atom_site_fract_x
_atom_site_fract_y
_atom_site_fract_z
O1	O	1.049943	0.160123	0.001453
O2	O	1.549943	0.660123	0.501453
O3	O	0.820589	0.179339	-0.014031
O4	O	1.320589	0.679339	0.485969
O5	O	0.940539	-0.013064	-0.005934
O6	O	1.440539	0.486936	0.494066
O7	O	0.929993	0.352526	-0.006645
O8	O	1.429993	0.852526	0.493355
O9	O	0.933936	-0.002517	0.132479
O10	O	1.433936	0.497483	0.632479
O11	O	0.813986	0.189886	0.124382
O12	O	1.313986	0.689886	0.624382
O13	O	1.043340	0.170669	0.139866
O14	O	1.543340	0.670669	0.639866
Zn15	Zn	0.927615	0.181952	0.154100
Zn16	Zn	1.427615	0.681952	0.654100
Zn17	Zn	0.936314	0.168057	-0.028265
Zn18	Zn	1.436314	0.668057	0.471735
O19	O	0.923390	0.363072	0.131768
O20	O	1.423390	0.863072	0.631768
C21	C	0.787920	0.183687	0.053193
C22	C	1.287920	0.683687	0.553193
C23	C	0.700412	0.180915	0.047285
C24	C	1.200412	0.680915	0.547285
C25	C	0.208233	0.164647	0.005874
C26	C	0.708233	0.664647	0.505874
C27	C	0.290455	0.167253	0.011437
C28	C	0.790455	0.667253	0.511437
C29	C	0.327958	0.174314	0.089667
C30	C	0.827958	0.674314	0.589667
C31	C	0.283236	0.178757	0.162341
C32	C	0.783236	0.678757	0.662341
C33	C	0.201016	0.176142	0.156778
C34	C	0.701016	0.676142	0.656778
C35	C	0.573471	0.182743	0.114395
C36	C	1.073471	0.682743	0.614395
C37	C	0.655696	0.185361	0.119953
C38	C	1.155696	0.685361	0.619953
C39	C	0.662910	0.173855	-0.030952
C40	C	1.162910	0.673855	0.469048
C41	C	0.580688	0.171248	-0.036508
C42	C	1.080688	0.671248	0.463492
C43	C	0.535974	0.175684	0.036165
C44	C	1.035974	0.675684	0.536165
N45	N	0.412001	0.176982	0.095355
N46	N	0.912001	0.676982	0.595355
N47	N	0.451932	0.173008	0.030477
N48	N	0.951932	0.673008	0.530477
C49	C	0.936463	-0.054580	0.063219
C50	C	1.436463	0.445420	0.563219
C51	C	0.934146	-0.193999	0.063057
C52	C	1.434146	0.306001	0.563057
C53	C	0.936658	-0.265249	-0.012464
C54	C	1.436658	0.234751	0.487536
C55	C	0.934474	-0.396246	-0.012608
C56	C	1.434474	0.103754	0.487392
C57	C	0.927269	-0.384733	0.138297
C58	C	1.427269	0.115267	0.638297
C59	C	0.929447	-0.253737	0.138440
C60	C	1.429447	0.246263	0.638440
C61	C	0.941357	-0.205511	-0.087847
C62	C	1.441357	0.294489	0.412153
C63	C	0.943870	-0.276761	-0.163374
C64	C	1.443870	0.223239	0.336626
C65	C	0.941686	-0.407759	-0.163518
C66	C	1.441686	0.092241	0.336482
C67	C	0.936988	-0.467505	-0.088135
C68	C	1.436988	0.032495	0.411865
C69	C	1.076010	0.166321	0.072640
C70	C	1.576010	0.666321	0.572640
C71	C	1.163517	0.169093	0.078542
C72	C	1.663517	0.669093	0.578542
C73	C	0.927466	0.404589	0.062614
C74	C	1.427466	0.904589	0.562614
C75	C	0.929783	0.544008	0.062771
C76	C	1.429783	1.044008	0.562771
N77	N	0.921684	0.191435	0.278560
N78	N	1.421684	0.691435	0.778560
N79	N	0.942252	0.158564	-0.152725
N80	N	1.442252	0.658564	0.347275
C81	C	0.972742	0.109596	0.325701
C82	C	1.472742	0.609596	0.825701
C83	C	0.968600	0.116242	0.412828
C84	C	1.468600	0.616242	0.912828
C85	C	0.913404	0.204732	0.452813
C86	C	1.413404	0.704732	0.952813
C87	C	0.862340	0.286574	0.405666
C88	C	1.362340	0.786574	0.905666
C89	C	0.866479	0.279922	0.318540
C90	C	1.366479	0.779922	0.818540
C91	C	0.895327	0.233754	0.713002
C92	C	1.395327	0.733754	1.213002
C93	C	0.891194	0.240402	0.800134
C94	C	1.391194	0.740402	1.300134
C95	C	0.997453	0.070067	0.807290
C96	C	1.497453	0.570067	1.307290
C97	C	1.001589	0.063428	0.720163
C98	C	1.501589	0.563428	1.220163
C99	C	0.950523	0.145266	0.673023
C100	C	1.450523	0.645266	1.173023
N101	N	0.909171	0.211529	0.541871
N102	N	1.409171	0.711529	1.041871
N103	N	0.954753	0.138462	0.583966
N104	N	1.454753	0.638462	1.083966
H105	H	0.699325	0.170241	-0.090118
H106	H	1.199325	0.670241	0.409882
F107	F	0.803592	0.380748	0.448221
F108	F	1.303592	0.880748	0.948221
H109	H	0.313778	0.184498	0.226038
H110	H	0.813778	0.684498	0.726038
H111	H	0.943724	-0.465766	-0.225016
H112	H	1.443724	0.034234	0.274984
F113	F	0.943685	-0.066094	-0.087700
F114	F	1.443685	0.433906	0.412300
F115	F	0.695608	0.192876	0.203221
F116	F	1.195608	0.692876	0.703221
H117	H	0.923445	-0.433390	0.199671
H118	H	1.423445	0.066610	0.699671
F119	F	0.926778	-0.177905	0.218818
F120	F	1.426778	0.322095	0.718818
H121	H	1.017691	0.037543	0.293151
H122	H	1.517691	0.537543	0.793151
F123	F	0.934656	-0.606925	-0.088292
F124	F	1.434656	-0.106925	0.411708
H125	H	1.010175	0.049602	0.451209
H126	H	1.510175	0.549602	0.951209
H127	H	0.177704	0.158906	-0.057830
H128	H	0.677704	0.658906	0.442170
F129	F	1.060336	-0.030752	0.677609
F130	F	1.560336	0.469248	1.177609
F131	F	1.051796	-0.017027	0.857465
F132	F	1.551796	0.482973	1.357465
H133	H	0.947687	-0.228105	-0.224749
H134	H	1.447687	0.271895	0.275251
H135	H	0.846244	0.312467	0.832686
H136	H	1.346244	0.812467	1.332686
H137	H	0.824901	0.346562	0.280158
H138	H	1.324901	0.846562	0.780158
F139	F	0.338043	0.162514	-0.065907
F140	F	0.838043	0.662514	0.434093
F141	F	0.540781	0.163734	-0.119772
F142	F	1.040781	0.663734	0.380228
H143	H	0.853748	0.300392	0.674628
H144	H	1.353748	0.800392	1.174628
F145	F	0.525891	0.187491	0.191742
F146	F	1.025891	0.687491	0.691742
F147	F	0.153427	0.180865	0.234121
F148	F	0.653427	0.680865	0.734121
