data_functionalizedCrystal
_audit_creation_method	'MofGen! by Chris Wilmer'
_symmetry_space_group_name_H-M	'P1'
_symmetry_Int_Tables_number	1
_symmetry_cell_setting	triclinic
loop_
_symmetry_equiv_pos_as_xyz
  x,y,z
_cell_length_a	9.016244
_cell_length_b	10.540558
_cell_length_c	15.944545
_cell_angle_alpha	84.014654
_cell_angle_beta	89.990085
_cell_angle_gamma	90.004338
loop_
_atom_site_label
_atom_site_type_symbol
_atom_site_fract_x
_atom_site_fract_y
_atom_site_fract_z
O1	O	0.123304	-1.684242	-0.118453
O2	O	0.123317	-1.314680	-0.129589
O3	O	0.123293	-1.509557	-0.001807
O4	O	0.123329	-1.489365	-0.246236
O5	O	-0.123388	-1.509570	-0.001793
O6	O	-0.123363	-1.314693	-0.129576
O7	O	-0.123377	-1.684255	-0.118439
Cu8	Cu	-0.145894	-1.499475	-0.124006
Cu9	Cu	0.145835	-1.499460	-0.124022
O10	O	-0.123352	-1.489377	-0.246222
C11	C	-0.000021	-1.267395	-0.128744
C12	C	-0.000017	-1.126482	-0.126235
N13	N	-0.351080	-1.499494	-0.123995
C14	C	-0.000610	-0.944366	-0.030340
C15	C	-0.000036	-1.090948	-0.032883
C16	C	0.140850	-1.064190	-0.171165
C17	C	0.140950	-0.917690	-0.167972
C18	C	-0.139572	-0.917190	-0.169856
C19	C	-0.141416	-1.064159	-0.170722
N20	N	0.351021	-1.499450	-0.124027
C21	C	0.586067	-1.395330	-0.192448
C22	C	0.414176	-1.394934	-0.192287
C23	C	0.413374	-1.470865	-0.036139
C24	C	0.585319	-1.470142	-0.036521
C25	C	0.585537	-1.632548	-0.142650
C26	C	0.413583	-1.631636	-0.144656
C27	C	-0.000049	-1.508727	0.029499
C28	C	-0.000053	-1.506218	0.122761
C29	C	-0.000038	-0.731542	-0.119273
C30	C	-0.000045	-0.872461	-0.121749
C31	C	-0.000007	-1.490208	-0.277528
C32	C	0.000007	-1.492717	-0.370789
C33	C	-0.000018	-1.377927	0.394164
C34	C	0.121607	-1.439772	0.343200
C35	C	-0.000011	-1.497270	0.458458
C36	C	-0.121601	-1.439816	0.343241
C37	C	-0.000034	-1.501660	0.293518
C38	C	0.121715	-1.559084	0.408723
C39	C	-0.121602	-1.559111	0.408767
C40	C	0.000052	-1.621043	0.357836
C41	C	0.000004	-1.494738	0.553476
C42	C	-0.000038	-1.504202	0.198504
H43	H	-0.101016	-1.134049	0.002469
H44	H	0.625428	-1.373116	-0.020238
H45	H	-0.245629	-1.105574	-0.137900
Cl46	Cl	0.280370	-1.361953	0.298988
H47	H	-0.224423	-1.389399	0.314635
H48	H	0.224653	-1.609443	0.437221
H49	H	-0.224435	-1.609473	0.437420
Cl50	Cl	0.156391	-1.156103	0.021825
Cl51	Cl	-0.156586	-0.901010	0.026611
H52	H	0.246240	-0.889928	-0.134774
H53	H	0.626893	-1.543142	0.016000
H54	H	0.099841	-0.914655	0.006379
H55	H	-0.140514	-0.869043	-0.237280
H56	H	0.629282	-1.297142	-0.180589
H57	H	0.147353	-0.868805	-0.235107
H58	H	0.146102	-1.085607	-0.239720
H59	H	-0.149911	-1.087457	-0.238782
H60	H	0.245678	-1.107199	-0.139965
H61	H	0.000117	-1.723903	0.341727
H62	H	0.000104	-1.275147	0.410434
H63	H	-0.246349	-0.886062	-0.139638
H64	H	0.372022	-1.411911	-0.257584
H65	H	0.627453	-1.412035	-0.257952
H66	H	0.373049	-1.296181	-0.180271
H67	H	0.372461	-1.544720	0.016059
H68	H	0.628937	-1.660109	-0.205414
Cl69	Cl	0.346902	-1.322762	-0.010435
H70	H	0.370589	-1.712748	-0.098118
Cl71	Cl	0.350678	-1.665142	-0.244485
Cl72	Cl	0.648294	-1.752221	-0.065602
