data_functionalizedCrystal
_audit_creation_method	'MofGen! by Chris Wilmer'
_symmetry_space_group_name_H-M	'P1'
_symmetry_Int_Tables_number	1
_symmetry_cell_setting	triclinic
loop_
_symmetry_equiv_pos_as_xyz
  x,y,z
_cell_length_a	14.853569
_cell_length_b	13.930277
_cell_length_c	14.853567
_cell_angle_alpha	89.999243
_cell_angle_beta	83.635376
_cell_angle_gamma	89.995143
loop_
_atom_site_label
_atom_site_type_symbol
_atom_site_fract_x
_atom_site_fract_y
_atom_site_fract_z
O1	O	-1.196367	0.079770	-0.117713
O2	O	-0.933908	0.079782	-0.131732
O3	O	-1.072148	0.079779	0.006507
O4	O	-1.058127	0.079774	-0.255952
O5	O	-1.072129	-0.079883	0.006510
O6	O	-0.933889	-0.079879	-0.131729
O7	O	-1.196348	-0.079892	-0.117710
Zn8	Zn	-1.065115	-0.105235	-0.124719
Zn9	Zn	-1.065141	0.105126	-0.124723
O10	O	-1.058108	-0.079888	-0.255949
C11	C	-0.900310	-0.000047	-0.131095
C12	C	-0.800226	-0.000042	-0.129191
C13	C	-0.763850	-0.000036	-0.046180
C14	C	-0.742560	-0.000050	-0.210412
C15	C	-0.648526	-0.000051	-0.208626
C16	C	-0.612149	-0.000045	-0.125615
C17	C	-0.669807	-0.000040	-0.044390
C18	C	-0.590861	-0.000066	-0.289848
C19	C	-0.496821	-0.000067	-0.288065
C20	C	-0.460443	-0.000055	-0.205053
C21	C	-0.518107	-0.000049	-0.123825
C22	C	-0.481730	-0.000043	-0.040814
C23	C	-0.539393	-0.000030	0.040414
C24	C	-0.633429	-0.000027	0.038622
C25	C	-0.366407	-0.000057	-0.203260
C26	C	-0.387688	-0.000046	-0.039025
N27	N	-1.065105	-0.248801	-0.124716
C28	C	-1.003925	-0.701069	-0.185911
C29	C	-1.126381	-0.701042	-0.063528
C30	C	-1.126370	-0.600546	-0.063525
C31	C	-1.065137	-0.550307	-0.124717
C32	C	-1.003915	-0.600564	-0.185912
C33	C	-1.187597	-0.550282	-0.002337
C34	C	-1.187590	-0.449780	-0.002332
C35	C	-1.126352	-0.399539	-0.063521
C36	C	-1.065126	-0.449802	-0.124718
C37	C	-1.003893	-0.399563	-0.185910
C38	C	-0.942663	-0.449825	-0.247103
C39	C	-0.942677	-0.550323	-0.247101
C40	C	-1.126338	-0.299040	-0.063524
C41	C	-1.003882	-0.299058	-0.185911
C42	C	-0.229946	-0.000059	-0.118346
C43	C	-0.330030	-0.000052	-0.120249
C44	C	-1.071503	-0.000049	0.040097
C45	C	-1.069599	-0.000041	0.140181
N46	N	-1.065158	0.248692	-0.124719
C47	C	-1.058753	-0.000058	-0.289539
C48	C	-1.060656	-0.000060	-0.389623
C49	C	-0.979434	-0.000055	0.552716
C50	C	-1.143667	-0.000063	0.573995
C51	C	-1.145457	-0.000057	0.479962
C52	C	-1.064234	-0.000052	0.422300
C53	C	-0.981222	-0.000052	0.458673
C54	C	-1.228468	-0.000066	0.443582
C55	C	-1.230261	-0.000062	0.349543
C56	C	-1.149038	-0.000050	0.291880
C57	C	-1.066022	-0.000049	0.328258
C58	C	-0.984799	-0.000044	0.270596
C59	C	-0.901782	-0.000036	0.306972
C60	C	-0.899998	-0.000040	0.401010
C61	C	-1.150822	-0.000046	0.197842
C62	C	-0.986587	-0.000041	0.176554
H63	H	-0.680385	-0.000018	0.104753
Br64	Br	-0.876350	-0.000023	0.098305
Br65	Br	-0.920769	-0.230885	-0.268955
Br66	Br	-0.791929	-0.000062	-0.323064
Br67	Br	-1.209488	-0.769219	0.019508
Br68	Br	-0.338327	-0.000027	0.073639
Br69	Br	-0.920824	-0.769274	-0.268951
Br70	Br	-0.490013	-0.000036	0.153068
H71	H	-1.237445	-0.408863	0.047495
Br72	Br	-1.209437	-0.230835	0.019510
H73	H	-0.892810	-0.408909	-0.296931
Br74	Br	-0.859586	-0.618536	-0.330144
H75	H	-0.449880	-0.000077	-0.354206
Br76	Br	-0.791556	-0.000042	0.228707
H77	H	-1.237456	-0.591189	0.047480
H78	H	-0.620487	-0.000076	-0.357431
Br79	Br	-0.787343	-0.000024	0.450383
H80	H	-0.911843	-0.000045	0.582337
Br81	Br	-1.253892	-0.000090	0.652249
Br82	Br	-1.338691	-0.000100	0.521838
H83	H	-1.297858	-0.000067	0.319934
H84	H	-1.218413	-0.000059	0.168229
H85	H	-0.810802	-0.000021	0.019955
H86	H	-0.319462	-0.000077	-0.269395
