data_functionalizedCrystal
_audit_creation_method	'MofGen! by Chris Wilmer'
_symmetry_space_group_name_H-M	'P1'
_symmetry_Int_Tables_number	1
_symmetry_cell_setting	triclinic
loop_
_symmetry_equiv_pos_as_xyz
  x,y,z
_cell_length_a	17.077404
_cell_length_b	12.759400
_cell_length_c	17.077396
_cell_angle_alpha	89.973580
_cell_angle_beta	89.982756
_cell_angle_gamma	90.014910
loop_
_atom_site_label
_atom_site_type_symbol
_atom_site_fract_x
_atom_site_fract_y
_atom_site_fract_z
Zn1	Zn	1.200082	-0.418251	-0.443859
Zn2	Zn	1.700082	0.081749	0.056141
Zn3	Zn	1.200013	-0.593954	-0.312599
Zn4	Zn	1.700013	-0.093954	0.187401
Zn5	Zn	1.068819	-0.418291	-0.312606
Zn6	Zn	1.568819	0.081709	0.187394
Zn7	Zn	1.068800	-0.593890	-0.443823
Zn8	Zn	1.568800	-0.093890	0.056177
O9	O	1.134429	-0.506097	-0.378222
O10	O	1.634429	-0.006097	0.121778
O11	O	1.309920	-0.441569	-0.426459
O12	O	1.809920	0.058431	0.073541
O13	O	1.182589	-0.570696	-0.202753
O14	O	1.682589	-0.070696	0.297247
O15	O	1.086268	-0.271264	-0.330035
O16	O	1.586268	0.228736	0.169965
O17	O	1.309869	-0.570658	-0.330023
O18	O	1.809869	-0.070658	0.169977
O19	O	1.182706	-0.271236	-0.426466
O20	O	1.682706	0.228764	0.073534
O21	O	1.086201	-0.441637	-0.202759
O22	O	1.586201	0.058363	0.297241
O23	O	0.958970	-0.441574	-0.330001
O24	O	1.458970	0.058426	0.169999
O25	O	1.086236	-0.570547	-0.553674
O26	O	1.586236	-0.070547	-0.053674
O27	O	0.958956	-0.570585	-0.426405
O28	O	1.458956	-0.070585	0.073595
O29	O	1.182688	-0.441506	-0.553701
O30	O	1.682688	0.058494	-0.053701
O31	O	1.182571	-0.740967	-0.329988
O32	O	1.682571	-0.240967	0.170012
O33	O	1.086170	-0.740919	-0.426398
O34	O	1.586170	-0.240919	0.073602
C35	C	0.930481	-0.506077	-0.378200
C36	C	1.430481	-0.006077	0.121800
C37	C	0.843231	-0.506095	-0.378209
C38	C	1.343231	-0.006095	0.121791
C39	C	0.802254	-0.573372	-0.428326
C40	C	1.302254	-0.073372	0.071674
C41	C	0.720274	-0.573375	-0.428339
C42	C	1.220274	-0.073375	0.071661
C43	C	0.679271	-0.506104	-0.378230
C44	C	1.179271	-0.006104	0.121770
C45	C	0.720254	-0.438819	-0.328111
C46	C	1.220254	0.061181	0.171889
C47	C	0.802233	-0.438812	-0.328103
C48	C	1.302233	0.061188	0.171897
C49	C	0.549384	-0.438839	-0.328130
C50	C	1.049384	0.061161	0.171870
C51	C	0.467399	-0.438847	-0.328136
C52	C	0.967399	0.061153	0.171864
C53	C	0.467425	-0.573402	-0.428366
C54	C	0.967425	-0.073402	0.071634
C55	C	0.549404	-0.573395	-0.428358
C56	C	1.049404	-0.073395	0.071642
C57	C	0.590380	-0.506111	-0.378237
C58	C	1.090380	-0.006111	0.121763
C59	C	1.134382	-0.779064	-0.378205
C60	C	1.634382	-0.279064	0.121795
C61	C	1.134434	-0.895841	-0.378225
C62	C	1.634434	-0.395841	0.121775
C63	C	1.184686	-0.950692	-0.328080
C64	C	1.684686	-0.450692	0.171920
C65	C	1.184734	-1.060416	-0.328104
C66	C	1.684734	-0.560416	0.171896
C67	C	1.084272	-1.060427	-0.428420
C68	C	1.584272	-0.560427	0.071580
C69	C	1.084228	-0.950705	-0.428399
C70	C	1.584228	-0.450705	0.071601
C71	C	1.234891	-0.895828	-0.277905
C72	C	1.734891	-0.395828	0.222095
C73	C	1.285147	-0.950680	-0.227755
C74	C	1.785147	-0.450680	0.272245
C75	C	1.285195	-1.060404	-0.227780
C76	C	1.785195	-0.560404	0.272220
C77	C	1.234988	-1.115276	-0.277954
C78	C	1.734988	-0.615276	0.222046
C79	C	1.339173	-0.506116	-0.378244
C80	C	1.839173	-0.006116	0.121756
C81	C	1.426423	-0.506125	-0.378253
C82	C	1.926423	-0.006125	0.121747
C83	C	1.134468	-0.506015	-0.582966
C84	C	1.634468	-0.006015	-0.082966
C85	C	1.134485	-0.505980	-0.670216
C86	C	1.634485	-0.005980	-0.170216
C87	C	1.134497	-0.232063	-0.378255
C88	C	1.634497	0.267937	0.121745
C89	C	1.134526	-0.115287	-0.378270
C90	C	1.634526	0.384713	0.121730
C91	C	1.084311	-0.438771	-0.711208
C92	C	1.584311	0.061229	-0.211208
C93	C	1.084324	-0.438747	-0.793189
C94	C	1.584324	0.061253	-0.293189
C95	C	1.134515	-0.505928	-0.834175
C96	C	1.634515	-0.005928	-0.334175
C97	C	1.184691	-0.573145	-0.793177
C98	C	1.684691	-0.073145	-0.293177
C99	C	1.184674	-0.573173	-0.711198
C100	C	1.684674	-0.073173	-0.211198
C101	C	1.184725	-0.573079	-0.964047
C102	C	1.684725	-0.073079	-0.464047
C103	C	1.184743	-0.573050	-1.046032
C104	C	1.684743	-0.073050	-0.546032
C105	C	1.084375	-0.438653	-1.046038
C106	C	1.584375	0.061347	-0.546038
C107	C	1.084358	-0.438682	-0.964059
C108	C	1.584358	0.061318	-0.464059
C109	C	1.134535	-0.505897	-0.923066
C110	C	1.634535	-0.005897	-0.423066
C111	C	1.134434	-0.506102	-0.174274
C112	C	1.634434	-0.006102	0.325726
C113	C	1.134570	-0.505840	-0.087025
C114	C	1.634570	-0.005840	0.412975
H115	H	0.686914	-0.628160	-0.469149
H116	H	1.186914	-0.128160	0.030851
Cl117	Cl	1.021213	-0.354305	-0.659690
Cl118	Cl	1.521213	0.145695	-0.159690
H119	H	1.043309	-0.906044	-0.469233
H120	H	1.543309	-0.406044	0.030767
Cl121	Cl	0.415912	-0.657973	-0.491386
Cl122	Cl	0.915912	-0.157973	0.008614
Cl123	Cl	1.021157	-1.129410	-0.491488
Cl124	Cl	1.521157	-0.629410	0.008512
Cl125	Cl	1.247847	-0.657500	-1.097557
Cl126	Cl	1.747847	-0.157500	-0.597557
H127	H	0.582745	-0.384040	-0.287323
H128	H	1.082745	0.115960	0.212677
H129	H	1.225591	-0.627804	-0.930674
H130	H	1.725591	-0.127804	-0.430674
H131	H	0.686863	-0.384041	-0.287314
H132	H	1.186863	0.115959	0.212686
H133	H	0.835595	-0.384022	-0.287296
H134	H	1.335595	0.115978	0.212704
H135	H	1.225536	-0.627894	-0.677823
H136	H	1.725536	-0.127894	-0.177823
H137	H	1.043464	-0.384023	-0.826561
H138	H	1.543464	0.115977	-0.326561
H139	H	1.326121	-1.105062	-0.186951
H140	H	1.826121	-0.605062	0.313049
H141	H	1.234856	-0.806485	-0.277878
H142	H	1.734856	-0.306485	0.222122
Cl143	Cl	1.021297	-0.354152	-1.097571
Cl144	Cl	1.521297	0.145848	-0.597571
H145	H	1.235037	-1.204621	-0.277975
H146	H	1.735037	-0.704621	0.222025
H147	H	1.326028	-0.905998	-0.186910
H148	H	1.826028	-0.405998	0.313090
H149	H	0.434017	-0.384057	-0.287342
H150	H	0.934017	0.115943	0.212658
H151	H	1.043491	-0.383972	-0.930690
H152	H	1.543491	0.116028	-0.430690
H153	H	1.225553	-0.627850	-0.826555
H154	H	1.725553	-0.127850	-0.326555
H155	H	0.582786	-0.628179	-0.469157
H156	H	1.082786	-0.128179	0.030843
Cl157	Cl	0.853792	-0.657952	-0.491321
Cl158	Cl	1.353792	-0.157952	0.008679
