data_functionalizedCrystal
_audit_creation_method	'MofGen! by Chris Wilmer'
_symmetry_space_group_name_H-M	'P1'
_symmetry_Int_Tables_number	1
_symmetry_cell_setting	triclinic
loop_
_symmetry_equiv_pos_as_xyz
  x,y,z
_cell_length_a	10.723024
_cell_length_b	10.723024
_cell_length_c	7.540329
_cell_angle_alpha	89.997572
_cell_angle_beta	89.997341
_cell_angle_gamma	84.467869
loop_
_atom_site_label
_atom_site_type_symbol
_atom_site_fract_x
_atom_site_fract_y
_atom_site_fract_z
O1	O	1.657186	0.175025	-0.147466
O2	O	1.294034	0.191779	-0.147472
O3	O	1.483986	0.001826	-0.147462
O4	O	1.467233	0.364978	-0.147476
O5	O	1.483975	0.001823	0.147503
O6	O	1.294022	0.191776	0.147493
O7	O	1.657175	0.175023	0.147499
Cu8	Cu	1.475597	0.183399	0.174429
Cu9	Cu	1.475611	0.183402	-0.174402
O10	O	1.467222	0.364976	0.147490
C11	C	1.247528	0.190558	0.000010
C12	C	1.108974	0.186911	0.000008
C13	C	1.033991	0.293198	0.000003
C14	C	0.890788	0.289431	0.000001
C15	C	1.482762	-0.044675	0.000018
C16	C	1.479114	-0.183229	0.000012
C17	C	1.585401	-0.258212	0.000011
C18	C	1.581634	-0.401415	0.000005
C19	C	1.703680	0.176243	0.000013
C20	C	1.842234	0.179891	0.000004
C21	C	1.468447	0.411477	0.000005
C22	C	1.472094	0.550031	-0.000000
N23	N	1.475597	0.183397	0.419777
N24	N	1.475621	0.183395	-0.419750
H25	H	0.826355	0.380421	-0.000011
H26	H	1.672624	-0.465848	0.000012
C27	C	1.354141	-0.239150	-0.000272
C28	C	1.345656	-0.313113	-0.152008
C29	C	1.230553	-0.364657	-0.152319
H30	H	1.287837	-0.173668	-0.000361
H31	H	1.348133	-0.289449	0.102532
H32	H	1.351652	-0.262817	-0.254785
H33	H	1.411934	-0.378616	-0.151951
H34	H	1.224546	-0.414956	-0.049515
H35	H	1.164258	-0.299166	-0.152404
H36	H	1.224786	-0.414855	-0.255261
H37	H	1.381099	-0.385544	0.000013
C38	C	0.928278	0.058649	-0.000269
C39	C	1.003851	0.054093	-0.152000
C40	C	1.083151	-0.057568	-0.152301
H41	H	0.879395	-0.010665	-0.000358
H42	H	0.979710	0.055320	0.102538
H43	H	0.952425	0.057409	-0.254781
H44	H	1.052760	0.123380	-0.151943
H45	H	1.134583	-0.060896	-0.049493
H46	H	1.034258	-0.126872	-0.152385
H47	H	1.134445	-0.060668	-0.255239
C48	C	1.089501	0.418385	0.000087
C49	C	0.992572	0.515712	0.000124
C50	C	1.043656	0.631054	0.000224
H51	H	1.139711	0.424554	-0.102744
H52	H	1.139682	0.424444	0.102991
H53	H	0.942413	0.509656	-0.102770
H54	H	0.942354	0.509584	0.102947
H55	H	1.093836	0.637113	0.103129
H56	H	1.093865	0.637210	-0.102608
H57	H	0.977898	0.697104	0.000266
C58	C	1.710497	-0.202528	-0.000358
C59	C	1.778206	-0.242467	-0.152136
C60	C	1.893445	-0.191185	-0.152551
H61	H	1.756775	-0.229482	0.102381
H62	H	1.696457	-0.113683	-0.000454
H63	H	1.792250	-0.331292	-0.152023
H64	H	1.731966	-0.215514	-0.254899
H65	H	1.879405	-0.102341	-0.152648
H66	H	1.939712	-0.218143	-0.049806
H67	H	1.939395	-0.218267	-0.255538
H68	H	1.067152	0.093125	-0.000034
