data_functionalizedCrystal
_audit_creation_method	'MofGen! by Chris Wilmer'
_symmetry_space_group_name_H-M	'P1'
_symmetry_Int_Tables_number	1
_symmetry_cell_setting	triclinic
loop_
_symmetry_equiv_pos_as_xyz
  x,y,z
_cell_length_a	19.288872
_cell_length_b	18.366186
_cell_length_c	14.853567
_cell_angle_alpha	90.002438
_cell_angle_beta	83.387101
_cell_angle_gamma	90.008345
loop_
_atom_site_label
_atom_site_type_symbol
_atom_site_fract_x
_atom_site_fract_y
_atom_site_fract_z
O1	O	0.921729	0.060531	0.112496
O2	O	1.421729	0.560531	0.612496
O3	O	0.719520	0.060535	0.127660
O4	O	1.219520	0.560535	0.627660
O5	O	0.826026	0.060535	-0.011182
O6	O	1.326026	0.560535	0.488818
O7	O	0.815223	0.060531	0.251338
O8	O	1.315223	0.560531	0.751338
O9	O	0.826008	-0.060564	-0.011189
O10	O	1.326008	0.439436	0.488811
O11	O	0.719502	-0.060565	0.127653
O12	O	1.219502	0.439435	0.627653
O13	O	0.921711	-0.060568	0.112489
O14	O	1.421711	0.439432	0.612489
Zn15	Zn	0.820604	-0.079793	0.120070
Zn16	Zn	1.320604	0.420207	0.620070
Zn17	Zn	0.820628	0.079760	0.120079
Zn18	Zn	1.320628	0.579760	0.620079
O19	O	0.815205	-0.060568	0.251332
O20	O	1.315205	0.439432	0.751332
C21	C	0.693633	-0.000014	0.127168
C22	C	1.193633	0.499986	0.627168
C23	C	0.616525	-0.000013	0.125700
C24	C	1.116525	0.499987	0.625700
N25	N	0.820592	-0.188685	0.120064
N26	N	1.320592	0.311315	0.620064
C27	C	0.947598	-0.000017	0.112982
C28	C	1.447598	0.499983	0.612982
C29	C	1.024706	-0.000014	0.114450
C30	C	1.524706	0.499986	0.614450
C31	C	0.825528	-0.000012	-0.044771
C32	C	1.325528	0.499988	0.455229
C33	C	0.824061	-0.000006	-0.144847
C34	C	1.324061	0.499994	0.355153
C35	C	1.580314	0.065997	0.125004
C36	C	2.080314	0.565997	0.625004
C37	C	1.507862	0.065998	0.123633
C38	C	2.007862	0.565998	0.623633
C39	C	1.471625	-0.000013	0.122940
C40	C	1.971625	0.499987	0.622940
C41	C	1.507844	-0.066031	0.123641
C42	C	2.007844	0.433969	0.623641
C43	C	1.580294	-0.066031	0.125021
C44	C	2.080294	0.433969	0.625021
C45	C	1.362106	-0.050587	0.067949
C46	C	1.862106	0.449413	0.567949
C47	C	1.289658	-0.050585	0.066563
C48	C	1.789658	0.449415	0.566563
C49	C	1.248165	-0.000017	0.118688
C50	C	1.748165	0.499983	0.618688
C51	C	1.279130	0.050561	0.172186
C52	C	1.779130	0.550561	0.672186
C53	C	1.351580	0.050561	0.173566
C54	C	1.851580	0.550561	0.673566
C55	C	1.393065	-0.000021	0.121444
C56	C	1.893065	0.499979	0.621444
C57	C	1.133393	0.065999	0.116507
C58	C	1.633393	0.565999	0.616507
C59	C	1.060939	0.065998	0.115141
C60	C	1.560939	0.565998	0.615141
C61	C	1.060923	-0.066033	0.115140
C62	C	1.560923	0.433967	0.615140
C63	C	1.133375	-0.066030	0.116514
C64	C	1.633375	0.433970	0.616514
C65	C	1.169606	-0.000012	0.117193
C66	C	1.669606	0.499988	0.617193
C67	C	0.867769	-0.226785	0.058614
C68	C	1.367769	0.273215	0.558614
C69	C	0.867773	-0.303013	0.058610
C70	C	1.367773	0.196987	0.558610
C71	C	0.820608	-0.341137	0.120071
C72	C	1.320608	0.158863	0.620071
C73	C	0.773423	-0.303028	0.181525
C74	C	1.273423	0.196972	0.681525
C75	C	0.773415	-0.226802	0.181521
C76	C	1.273415	0.273198	0.681521
C77	C	0.811587	-0.461899	0.202214
C78	C	1.311587	0.038101	0.702214
C79	C	0.811600	-0.538124	0.202219
C80	C	1.311600	-0.038124	0.702219
C81	C	0.820628	-0.576245	0.120082
C82	C	1.320628	-0.076245	0.620082
C83	C	0.829658	-0.538132	0.037937
C84	C	1.329658	-0.038132	0.537937
C85	C	0.829650	-0.461905	0.037933
C86	C	1.329650	0.038095	0.537933
C87	C	0.820611	-0.423792	0.120082
C88	C	1.320611	0.076208	0.620082
C89	C	0.867811	-0.697000	0.058624
C90	C	1.367811	-0.197000	0.558624
C91	C	0.867811	-0.773229	0.058618
C92	C	1.367811	-0.273229	0.558618
C93	C	0.773464	-0.773243	0.181541
C94	C	1.273464	-0.273243	0.681541
C95	C	0.773461	-0.697015	0.181538
C96	C	1.273461	-0.197015	0.681538
C97	C	0.820638	-0.658898	0.120081
C98	C	1.320638	-0.158898	0.620081
N99	N	0.820644	0.188651	0.120079
N100	N	1.320644	0.688651	0.620079
C101	C	0.754594	-0.000019	-0.556988
C102	C	1.254594	0.499981	-0.056988
C103	C	0.881125	-0.000021	-0.578984
C104	C	1.381125	0.499979	-0.078984
C105	C	0.882504	-0.000017	-0.484958
C106	C	1.382504	0.499983	0.015042
C107	C	0.819927	-0.000014	-0.426943
C108	C	1.319927	0.499986	0.073057
C109	C	0.755971	-0.000017	-0.462953
C110	C	1.255971	0.499983	0.037047
C111	C	0.946459	-0.000022	-0.448941
C112	C	1.446459	0.499978	0.051059
C113	C	0.947841	-0.000018	-0.354909
C114	C	1.447841	0.499982	0.145091
C115	C	0.885263	-0.000011	-0.296892
C116	C	1.385263	0.499989	0.203108
C117	C	0.821304	-0.000012	-0.332908
C118	C	1.321304	0.499988	0.167092
C119	C	0.758727	-0.000010	-0.274892
C120	C	1.258727	0.499990	0.225108
C121	C	0.694768	-0.000007	-0.310906
C122	C	1.194768	0.499993	0.189094
C123	C	0.693393	-0.000009	-0.404936
C124	C	1.193393	0.499991	0.095064
C125	C	0.886638	-0.000008	-0.202862
C126	C	1.386638	0.499992	0.297138
C127	C	0.760105	-0.000008	-0.180857
C128	C	1.260105	0.499992	0.319143
C129	C	0.815704	-0.000019	0.284921
C130	C	1.315704	0.499981	0.784921
C131	C	0.817171	-0.000021	0.384996
C132	C	1.317171	0.499979	0.884996
H133	H	1.478373	0.119753	0.123068
H134	H	1.978373	0.619753	0.623068
N135	N	0.692608	-0.000020	-0.118288
N136	N	1.192608	0.499980	0.381712
H137	H	0.703183	-0.000024	-0.053255
H138	H	1.203183	0.499976	0.446745
H139	H	0.664743	0.044872	-0.129913
H140	H	1.164743	0.544872	0.370087
H141	H	0.643818	-0.000010	-0.263658
H142	H	1.143818	0.499990	0.236342
H143	H	0.641321	-0.000007	-0.434267
H144	H	1.141321	0.499993	0.065733
N145	N	1.172436	-0.137229	0.117244
N146	N	1.672436	0.362771	0.617244
H147	H	1.223830	-0.127212	0.118222
H148	H	1.723830	0.372788	0.618222
H149	H	1.154193	-0.166057	0.172876
H150	H	1.654193	0.333943	0.672876
H151	H	0.702519	-0.000013	-0.586315
H152	H	1.202519	0.499987	-0.086315
N153	N	1.021879	0.137197	0.114385
N154	N	1.521879	0.637197	0.614385
H155	H	0.986245	0.140148	0.169687
H156	H	1.486245	0.640148	0.669687
H157	H	1.055874	0.178975	0.114987
H158	H	1.555874	0.678975	0.614987
N159	N	0.918668	-0.655884	-0.007692
N160	N	1.418668	-0.155884	0.492308
H161	H	0.911503	-0.601813	0.001627
H162	H	1.411503	-0.101813	0.501627
H163	H	0.967958	-0.669187	0.002537
H164	H	1.467958	-0.169187	0.502537
N165	N	0.948616	-0.000035	-0.641552
N166	N	1.448616	0.499965	-0.141552
H167	H	0.938038	-0.000040	-0.706584
H168	H	1.438038	0.499960	-0.206584
H169	H	0.976493	0.044858	-0.629927
H170	H	1.476493	0.544858	-0.129927
N171	N	1.234386	0.105108	0.228409
N172	N	1.734386	0.605108	0.728409
H173	H	1.248968	0.156070	0.208928
H174	H	1.748968	0.656070	0.708928
H175	H	1.183806	0.097369	0.219398
H176	H	1.683806	0.597369	0.719398
N177	N	0.801855	-0.420788	0.290812
N178	N	1.301855	0.079212	0.790812
H179	H	0.803219	-0.366717	0.278347
H180	H	1.303219	0.133283	0.778347
H181	H	0.755324	-0.434122	0.325135
H182	H	1.255324	0.065878	0.825135
N183	N	1.013949	-0.000037	-0.511510
N184	N	1.513949	0.499963	-0.011510
H185	H	1.003370	-0.000037	-0.576542
H186	H	1.503370	0.499963	-0.076542
H187	H	1.041830	0.044852	-0.499882
H188	H	1.541830	0.544852	0.000118
N189	N	1.016822	-0.000008	-0.316072
N190	N	1.516822	0.499992	0.183928
H191	H	1.008202	-0.000002	-0.247701
H192	H	1.508202	0.499998	0.252299
H193	H	1.044205	-0.044901	-0.337307
H194	H	1.544205	0.455099	0.162693
N195	N	1.021846	-0.137232	0.114403
N196	N	1.521846	0.362768	0.614403
H197	H	0.970336	-0.127219	0.114689
H198	H	1.470336	0.372781	0.614689
H199	H	1.039413	-0.165621	0.058134
H200	H	1.539413	0.334379	0.558134
H201	H	0.735048	-0.665992	0.231580
H202	H	1.235048	-0.165992	0.731580
N203	N	1.384980	0.105108	0.231261
N204	N	1.884980	0.605108	0.731261
H205	H	1.347706	0.137147	0.264073
H206	H	1.847706	0.637147	0.764073
H207	H	1.410535	0.078455	0.276936
H208	H	1.910535	0.578455	0.776936
N209	N	0.955613	-0.000021	-0.164017
N210	N	1.455613	0.499979	0.335983
H211	H	0.983046	0.044866	-0.185189
H212	H	1.483046	0.544866	0.314811
H213	H	0.946931	-0.000047	-0.095653
H214	H	1.446931	0.499953	0.404347
N215	N	1.619349	-0.137234	0.125763
N216	N	2.119349	0.362766	0.625763
H217	H	1.654983	-0.140178	0.070461
H218	H	2.154983	0.359822	0.570461
H219	H	1.643790	-0.140133	0.182244
H220	H	2.143790	0.359867	0.682244
H221	H	0.735019	-0.334073	0.231566
H222	H	1.235019	0.165927	0.731566
H223	H	1.264452	-0.091765	0.022997
H224	H	1.764452	0.408235	0.522997
N225	N	0.801856	-0.579229	0.290812
N226	N	1.301856	-0.079229	0.790812
H227	H	0.796124	-0.543515	0.342845
H228	H	1.296124	-0.043515	0.842845
H229	H	0.758874	-0.610865	0.292827
H230	H	1.258874	-0.110865	0.792827
H231	H	1.609809	0.119754	0.125557
H232	H	2.109809	0.619754	0.625557
H233	H	0.734998	-0.195780	0.231562
H234	H	1.234998	0.304220	0.731562
H235	H	0.735058	-0.804284	0.231580
H236	H	1.235058	-0.304284	0.731580
N237	N	1.172477	0.137200	0.117244
N238	N	1.672477	0.637200	0.617244
H239	H	1.138539	0.179019	0.116602
H240	H	1.638539	0.679019	0.616602
H241	H	1.196964	0.140076	0.173689
H242	H	1.696964	0.640076	0.673689
N243	N	0.918656	-0.344119	-0.007672
N244	N	1.418656	0.155881	0.492328
H245	H	0.948540	-0.308405	-0.046606
H246	H	1.448540	0.191595	0.453394
H247	H	0.949392	-0.375734	0.026752
H248	H	1.449392	0.124266	0.526752
N249	N	1.406856	-0.105134	0.011729
N250	N	1.906856	0.394866	0.511729
H251	H	1.376249	-0.137169	-0.022376
H252	H	1.876249	0.362831	0.477624
H253	H	1.441421	-0.078480	-0.032801
H254	H	1.941421	0.421520	0.467199
N255	N	1.468764	-0.137230	0.122899
N256	N	1.968764	0.362770	0.622899
H257	H	1.417254	-0.127219	0.123181
H258	H	1.917254	0.372781	0.623181
H259	H	1.486335	-0.165619	0.066631
H260	H	1.986335	0.334381	0.566631
H261	H	0.837009	-0.569168	-0.028947
H262	H	1.337009	-0.069168	0.471053
N263	N	0.918648	-0.185673	-0.007672
N264	N	1.418648	0.314327	0.492328
H265	H	0.948535	-0.221381	-0.046602
H266	H	1.448535	0.278619	0.453398
H267	H	0.892019	-0.154058	-0.047446
H268	H	1.392019	0.345942	0.452554
N269	N	0.839389	-0.420796	-0.050657
N270	N	1.339389	0.079204	0.449343
H271	H	0.800747	-0.434069	-0.088120
H272	H	1.300747	0.065931	0.411880
H273	H	0.838032	-0.366738	-0.038112
H274	H	1.338032	0.133262	0.461888
N275	N	0.918708	-0.814327	-0.007647
N276	N	1.418708	-0.314327	0.492353
H277	H	0.948597	-0.778610	-0.046570
H278	H	1.448597	-0.278610	0.453430
H279	H	0.949436	-0.845936	0.026794
H280	H	1.449436	-0.345936	0.526794
