data_functionalizedCrystal
_audit_creation_method	'MofGen! by Chris Wilmer'
_symmetry_space_group_name_H-M	'P1'
_symmetry_Int_Tables_number	1
_symmetry_cell_setting	triclinic
loop_
_symmetry_equiv_pos_as_xyz
  x,y,z
_cell_length_a	16.956984
_cell_length_b	16.992695
_cell_length_c	14.586319
_cell_angle_alpha	89.995905
_cell_angle_beta	89.996078
_cell_angle_gamma	83.360821
loop_
_atom_site_label
_atom_site_type_symbol
_atom_site_fract_x
_atom_site_fract_y
_atom_site_fract_z
O1	O	1.060100	0.032353	-0.076245
O2	O	0.829689	0.059768	-0.076246
O3	O	0.943971	-0.068022	-0.076238
O4	O	0.945818	0.160143	-0.076253
O5	O	0.943962	-0.068023	0.076243
O6	O	0.829681	0.059767	0.076235
O7	O	1.060091	0.032352	0.076236
Cu8	Cu	0.944885	0.046059	0.090158
Cu9	Cu	0.944895	0.046061	-0.090168
O10	O	0.945810	0.160142	0.076228
C11	C	0.800066	0.061172	-0.000006
C12	C	0.711812	0.065345	-0.000006
C13	C	0.941590	-0.097081	0.000002
C14	C	0.934500	-0.183666	0.000002
C15	C	0.675280	-0.004440	0.000000
C16	C	0.592355	-0.000513	-0.000007
C17	C	0.545963	0.073199	-0.000013
C18	C	0.582500	0.142990	-0.000022
C19	C	0.665424	0.139063	-0.000022
C20	C	0.297429	0.092638	-0.000021
C21	C	0.214500	0.096560	-0.000018
C22	C	0.224362	-0.046944	-0.000005
C23	C	0.307286	-0.050864	0.000001
C24	C	0.343816	0.018926	-0.000013
N25	N	0.461200	0.077214	-0.000017
N26	N	0.428577	0.014910	-0.000015
C27	C	1.002915	-0.238341	0.000003
C28	C	0.996247	-0.319695	-0.000006
C29	C	0.921165	-0.346373	-0.000009
C30	C	0.852745	-0.291691	-0.000013
C31	C	0.859412	-0.210338	-0.000011
C32	C	0.893529	-0.588180	-0.000022
C33	C	0.886866	-0.669539	-0.000021
C34	C	1.030370	-0.697538	-0.000015
C35	C	1.037031	-0.616182	-0.000008
C36	C	0.968611	-0.561507	-0.000017
N37	N	0.914348	-0.429530	-0.000015
N38	N	0.975428	-0.478352	-0.000017
C39	C	1.089714	0.030948	-0.000006
C40	C	1.177969	0.026774	-0.000012
C41	C	0.948191	0.189201	-0.000014
C42	C	0.955281	0.275786	-0.000020
N43	N	0.944884	0.046057	0.216990
N44	N	0.944903	0.046056	-0.217000
C45	C	0.995507	-0.010512	0.452000
C46	C	0.995509	-0.010514	0.547981
C47	C	0.894274	0.102628	0.547983
C48	C	0.894269	0.102626	0.452004
C49	C	0.944889	0.046057	0.404015
C50	C	0.944897	0.046057	0.595975
C51	C	0.944899	0.046055	0.700042
C52	C	0.944887	0.046057	0.299941
H53	H	0.713048	-0.064465	0.000009
H54	H	0.853046	0.148691	0.412932
H55	H	0.791610	-0.313419	-0.000022
H56	H	1.036724	-0.056575	0.412929
H57	H	0.176729	0.156589	-0.000019
H58	H	0.562616	-0.057340	-0.000003
O59	O	1.050113	-0.071517	0.599740
H60	H	1.085316	-0.110845	0.550242
H61	H	0.853061	0.148686	0.587066
O62	O	1.118019	-0.587421	-0.000012
H63	H	1.124493	-0.551038	0.062142
O64	O	0.357324	-0.130368	0.000014
H65	H	0.317990	-0.178237	0.000014
H66	H	0.194610	-0.103763	-0.000004
O67	O	0.532460	0.222492	-0.000024
H68	H	0.546006	0.256144	-0.062179
H69	H	0.327161	0.149466	-0.000038
O70	O	0.704832	0.214330	-0.000017
H71	H	0.658643	0.266247	-0.000011
H72	H	1.064055	-0.216627	0.000012
H73	H	1.086073	-0.742062	-0.000010
O74	O	1.070037	-0.378669	0.000011
H75	H	1.123366	-0.346451	0.000030
H76	H	0.825722	-0.691256	-0.000009
O77	O	0.819737	-0.529213	-0.000008
H78	H	0.766410	-0.561435	0.000006
H79	H	0.803701	-0.165822	-0.000012
