data_functionalizedCrystal
_audit_creation_method	'MofGen! by Chris Wilmer'
_symmetry_space_group_name_H-M	'P1'
_symmetry_Int_Tables_number	1
_symmetry_cell_setting	triclinic
loop_
_symmetry_equiv_pos_as_xyz
  x,y,z
_cell_length_a	23.532361
_cell_length_b	23.532407
_cell_length_c	7.088929
_cell_angle_alpha	83.810936
_cell_angle_beta	96.167472
_cell_angle_gamma	82.839173
loop_
_atom_site_label
_atom_site_type_symbol
_atom_site_fract_x
_atom_site_fract_y
_atom_site_fract_z
O1	O	0.749403	0.074891	-0.158819
O2	O	0.583534	0.084924	-0.158868
O3	O	0.671472	-0.003027	-0.158807
O4	O	0.661466	0.162841	-0.158880
O5	O	0.683224	-0.014807	0.159176
O6	O	0.595286	0.073144	0.159116
O7	O	0.761155	0.063111	0.159164
Cu8	Cu	0.679294	0.067052	0.188174
Cu9	Cu	0.665396	0.080983	-0.187878
O10	O	0.673218	0.151061	0.159103
C11	C	0.568194	0.078783	0.000118
C12	C	0.504975	0.078028	0.000101
C13	C	0.677093	-0.030133	0.000190
C14	C	0.676328	-0.093350	0.000204
C15	C	0.225325	0.081145	-0.173218
C16	C	0.284725	0.081860	-0.173223
O17	O	0.310003	0.087671	-0.320633
N18	N	0.320837	0.075800	0.000110
C19	C	0.297547	0.069019	0.173459
O20	O	0.333717	0.063929	0.320892
C21	C	0.238149	0.068300	0.173462
C22	C	0.202039	0.074366	0.000118
C23	C	0.189216	0.087211	-0.346549
C24	C	0.129820	0.086497	-0.346543
C25	C	0.106534	0.079717	-0.173207
C26	C	0.142643	0.073652	0.000123
C27	C	0.214861	0.061514	0.346810
C28	C	0.155458	0.060795	0.346798
C29	C	0.119348	0.066861	0.173453
C30	C	0.059962	0.066159	0.173465
N31	N	0.023850	0.072219	0.000132
C32	C	0.047136	0.078998	-0.173204
C33	C	0.422286	0.070528	0.173440
C34	C	0.481683	0.071251	0.173439
C35	C	0.468857	0.084092	-0.173245
C36	C	0.409459	0.083373	-0.173242
C37	C	0.386175	0.076589	0.000107
C38	C	-0.077599	0.077499	-0.173179
C39	C	-0.136999	0.076786	-0.173158
C40	C	-0.124168	0.063943	0.173525
C41	C	-0.064773	0.064658	0.173505
C42	C	-0.041490	0.071435	0.000137
O43	O	0.034643	0.060348	0.320800
O44	O	0.010960	0.084079	-0.320612
C45	C	0.723559	-0.492458	0.000113
C46	C	0.722847	-0.551858	0.000098
O47	O	0.766632	-0.588607	0.000041
N48	N	0.670569	-0.574474	0.000084
C49	C	0.618999	-0.537687	0.000066
O50	O	0.574467	-0.562379	0.000051
C51	C	0.619711	-0.478289	0.000067
C52	C	0.671993	-0.455676	0.000100
C53	C	0.775837	-0.469845	0.000144
C54	C	0.776549	-0.410449	0.000163
C55	C	0.724983	-0.373667	0.000150
C56	C	0.672705	-0.396281	0.000118
C57	C	0.568141	-0.441502	0.000035
C58	C	0.568858	-0.382100	0.000034
C59	C	0.621140	-0.359487	0.000067
C60	C	0.621851	-0.300103	0.000124
N61	N	0.674129	-0.277486	0.000138
C62	C	0.725695	-0.314268	0.000151
C63	C	0.617507	-0.662430	0.000060
C64	C	0.616795	-0.721828	0.000073
C65	C	0.720643	-0.735994	0.000102
C66	C	0.721356	-0.676595	0.000103
C67	C	0.669785	-0.639813	0.000074
C68	C	0.727186	-0.189533	0.000191
C69	C	0.727894	-0.130132	0.000217
C70	C	0.624046	-0.115971	0.000178
C71	C	0.623338	-0.175367	0.000162
C72	C	0.674913	-0.212147	0.000162
O73	O	0.578089	-0.263319	0.000174
O74	O	0.770219	-0.289567	0.000141
C75	C	0.776496	0.069252	0.000174
C76	C	0.839715	0.070007	0.000178
C77	C	0.667596	0.178167	0.000103
C78	C	0.668361	0.241385	0.000076
N79	N	0.689073	0.057253	0.452669
N80	N	0.655621	0.090777	-0.452373
H81	H	-0.166398	0.081728	-0.314322
O82	O	0.614316	0.132297	0.450295
C83	C	0.625114	0.186812	0.499081
H84	H	0.672741	0.184760	0.554219
H85	H	0.597732	0.199480	0.615127
C86	C	0.551066	0.234538	0.253406
C87	C	0.609563	0.232020	0.321113
H88	H	0.541471	0.262426	0.143631
H89	H	0.543789	0.197811	0.220542
H90	H	0.528254	0.245093	0.350128
H91	H	0.632373	0.221458	0.224401
H92	H	0.616843	0.268746	0.353957
O93	O	0.730408	0.015734	0.549890
C94	C	0.719590	-0.038782	0.501181
H95	H	0.692295	-0.033221	0.355799
H96	H	0.695448	-0.060342	0.613818
C97	C	0.810780	-0.083553	0.670767
C98	C	0.777260	-0.076722	0.492198
H99	H	0.846353	-0.106958	0.665234
H100	H	0.818068	-0.046825	0.703590
H101	H	0.790656	-0.101518	0.764612
H102	H	0.797381	-0.058752	0.398362
H103	H	0.769977	-0.113449	0.459359
O104	O	0.249918	0.055513	0.515252
C105	C	0.246017	0.002103	0.620711
H106	H	0.230649	-0.028810	0.519275
H107	H	0.214005	0.008835	0.728765
C108	C	0.324632	0.014396	0.851555
C109	C	0.305762	-0.023574	0.726968
H110	H	0.361485	-0.001442	0.917107
H111	H	0.327260	0.050380	0.780511
H112	H	0.297951	0.020002	0.941583
H113	H	0.332439	-0.029173	0.636929
H114	H	0.303140	-0.059559	0.798000
H115	H	-0.058650	0.083018	-0.314351
H116	H	0.819122	-0.392044	0.000182
O117	O	0.211788	0.093902	-0.514992
C118	C	0.186617	0.146959	-0.620459
H119	H	0.169337	0.177479	-0.519028
H120	H	0.149658	0.139392	-0.728510
C121	C	0.253610	0.136422	-0.851302
C122	C	0.232392	0.173910	-0.726721
H123	H	0.281845	0.153046	-0.916857
H124	H	0.270568	0.100676	-0.780252
H125	H	0.222807	0.130120	-0.941327
H126	H	0.263194	0.180206	-0.636685
H127	H	0.215440	0.209658	-0.797758
O128	O	0.825988	-0.505492	0.000248
C129	C	0.872273	-0.472781	0.000225
H130	H	0.859772	-0.430595	0.060409
H131	H	0.882679	-0.462984	-0.152319
C132	C	0.941017	-0.559083	0.051043
C133	C	0.925664	-0.507271	0.124977
H134	H	0.973952	-0.580358	0.127988
H135	H	0.909834	-0.581121	0.051051
H136	H	0.949685	-0.550911	-0.076076
H137	H	0.916990	-0.515444	0.252083
H138	H	0.956847	-0.485235	0.124993
H139	H	0.511078	0.066321	0.314593
O140	O	0.491442	0.090776	-0.341680
C141	C	0.466286	0.143831	-0.447195
H142	H	0.448998	0.174360	-0.345805
H143	H	0.429337	0.136264	-0.555280
C144	C	0.533309	0.133269	-0.677938
C145	C	0.512079	0.170767	-0.553406
H146	H	0.561555	0.149884	-0.743462
H147	H	0.550256	0.097523	-0.606856
H148	H	0.502513	0.126966	-0.767992
H149	H	0.542874	0.177063	-0.463341
H150	H	0.495139	0.206514	-0.624476
H151	H	0.380061	0.088313	-0.314394
O152	O	-0.029701	0.058665	0.341933
C153	C	-0.033598	0.005259	0.447423
H154	H	-0.048977	-0.025657	0.346014
H155	H	-0.065599	0.011996	0.555505
C156	C	0.045037	0.017555	0.678191
C157	C	0.026153	-0.020418	0.553636
H158	H	0.081892	0.001716	0.743716
H159	H	0.047661	0.053536	0.607126
H160	H	0.018364	0.023166	0.768242
H161	H	0.052821	-0.026023	0.463574
H162	H	0.023534	-0.056402	0.624689
H163	H	0.763928	-0.658188	0.000128
O164	O	0.778636	-0.108075	0.000323
C165	C	0.768211	-0.047759	0.000288
H166	H	0.725911	-0.035789	0.060483
H167	H	0.765235	-0.025579	-0.152261
C168	C	0.869936	-0.042707	0.051072
C169	C	0.817985	-0.028006	0.125020
H170	H	0.900640	-0.030521	0.128004
H171	H	0.876960	-0.083343	0.051089
H172	H	0.867448	-0.024222	-0.076050
H173	H	0.820471	-0.046497	0.252130
H174	H	0.810962	0.012627	0.125027
H175	H	0.403332	0.065011	0.314610
H176	H	-0.143138	0.058425	0.314651
O177	O	0.777341	-0.225178	0.000283
C178	C	0.823628	-0.192470	0.000267
H179	H	0.811129	-0.150286	0.060469
H180	H	0.834032	-0.182668	-0.152276
C181	C	0.892368	-0.278774	0.051050
C182	C	0.877019	-0.226965	0.125006
H183	H	0.925303	-0.300052	0.127986
H184	H	0.861184	-0.300810	0.051053
H185	H	0.901034	-0.270598	-0.076068
H186	H	0.868345	-0.235141	0.252111
H187	H	0.908203	-0.204930	0.125027
H188	H	0.100425	0.091434	-0.487698
O189	O	0.770680	-0.771807	0.000006
C190	C	0.758836	-0.829082	0.000034
H191	H	0.711888	-0.828866	-0.060166
H192	H	0.766736	-0.851936	0.152581
C193	C	0.856309	-0.861331	-0.050742
C194	C	0.798647	-0.861066	-0.124696
H195	H	0.880867	-0.881062	-0.127674
H196	H	0.864289	-0.822744	-0.050754
H197	H	0.862884	-0.880376	0.076379
H198	H	0.792071	-0.842015	-0.251805
H199	H	0.790666	-0.899650	-0.124709
H200	H	0.136504	0.055275	0.487963
O201	O	0.565956	-0.743693	-0.000023
C202	C	0.520602	-0.698486	0.000022
H203	H	0.534111	-0.655990	-0.060162
H204	H	0.510351	-0.695650	0.152571
C205	C	0.450063	-0.762535	-0.050784
C206	C	0.466654	-0.710341	-0.124717
H207	H	0.416784	-0.769848	-0.127720
H208	H	0.480618	-0.792992	-0.050806
H209	H	0.441525	-0.760165	0.076340
H210	H	0.475199	-0.712714	-0.251829
H211	H	0.436098	-0.679884	-0.124719
H212	H	0.575511	-0.632485	0.000053
H213	H	0.526862	-0.352154	0.000008
O214	O	0.517300	-0.463360	-0.000092
C215	C	0.471949	-0.418149	-0.000067
H216	H	0.485465	-0.375656	-0.060246
H217	H	0.461693	-0.415310	0.152475
C218	C	0.401404	-0.482190	-0.050899
C219	C	0.418003	-0.429999	-0.124826
H220	H	0.368126	-0.489500	-0.127848
H221	H	0.431958	-0.512650	-0.050908
H222	H	0.392861	-0.479818	0.076219
H223	H	0.426552	-0.432375	-0.251932
H224	H	0.387449	-0.399540	-0.124841
H225	H	0.580768	-0.193781	0.000188
O226	O	0.574006	-0.080152	0.000078
C227	C	0.585853	-0.022880	0.000139
H228	H	0.628353	-0.018630	-0.060031
H229	H	0.589230	-0.011345	0.152692
C230	C	0.484625	0.013139	-0.050688
C231	C	0.536822	0.018360	-0.124605
H232	H	0.454380	0.038579	-0.127628
H233	H	0.476643	-0.025446	-0.050722
H234	H	0.487447	0.022750	0.076438
H235	H	0.534002	0.008743	-0.251719
H236	H	0.544802	0.056945	-0.124596
