data_functionalizedCrystal
_audit_creation_method	'MofGen! by Chris Wilmer'
_symmetry_space_group_name_H-M	'P1'
_symmetry_Int_Tables_number	1
_symmetry_cell_setting	triclinic
loop_
_symmetry_equiv_pos_as_xyz
  x,y,z
_cell_length_a	12.827893
_cell_length_b	16.625545
_cell_length_c	16.625539
_cell_angle_alpha	90.026243
_cell_angle_beta	90.015091
_cell_angle_gamma	90.025719
loop_
_atom_site_label
_atom_site_type_symbol
_atom_site_fract_x
_atom_site_fract_y
_atom_site_fract_z
Zn1	Zn	1.597553	-0.321012	0.455868
Zn2	Zn	1.597428	-0.455850	0.321036
Zn3	Zn	1.422807	-0.321036	0.321053
Zn4	Zn	1.422748	-0.455806	0.455830
O5	O	1.510134	-0.388426	0.388447
O6	O	1.743772	-0.338907	0.437991
O7	O	1.574237	-0.437995	0.208206
O8	O	1.446064	-0.208200	0.338960
O9	O	1.743681	-0.437972	0.338930
O10	O	1.574449	-0.208182	0.438008
O11	O	1.445943	-0.338948	0.208219
O12	O	1.276563	-0.338905	0.338923
O13	O	1.445964	-0.437897	0.568668
O14	O	1.276520	-0.437920	0.437943
O15	O	1.574392	-0.338864	0.568696
O16	O	1.574180	-0.568677	0.338893
O17	O	1.445844	-0.568645	0.437926
C18	C	1.238624	-0.388411	0.388432
C19	C	1.122471	-0.388424	0.388444
C20	C	1.070731	-0.339490	0.437539
C21	C	0.950681	-0.339503	0.437553
C22	C	1.510021	-0.597917	0.388422
C23	C	1.510068	-0.687538	0.388438
C24	C	1.510108	-0.760320	0.388454
C25	C	1.510169	-0.851629	0.388471
C26	C	1.510223	-0.924405	0.388482
C27	C	1.510283	-1.015720	0.388498
C28	C	1.782704	-0.388441	0.388463
C29	C	1.898857	-0.388448	0.388470
C30	C	1.510185	-0.388373	0.598756
C31	C	1.510207	-0.388350	0.688377
C32	C	1.510277	-0.178117	0.388490
C33	C	1.510337	-0.088496	0.388508
C34	C	1.510143	-0.388421	0.178956
C35	C	1.510324	-0.388216	0.089335
C36	C	1.510224	-0.388332	0.761160
C37	C	1.510249	-0.388302	0.852468
C38	C	1.510273	-0.388274	0.925245
C39	C	1.510299	-0.388245	1.016559
H40	H	1.077891	-0.430326	0.346421
H41	H	1.115312	-0.297584	0.479557
H42	H	0.906186	-0.297611	0.479587
F43	F	0.957005	-0.443215	0.333531
