data_functionalizedCrystal
_audit_creation_method	'MofGen! by Chris Wilmer'
_symmetry_space_group_name_H-M	'P1'
_symmetry_Int_Tables_number	1
_symmetry_cell_setting	triclinic
loop_
_symmetry_equiv_pos_as_xyz
  x,y,z
_cell_length_a	17.077404
_cell_length_b	17.077402
_cell_length_c	18.101379
_cell_angle_alpha	90.088401
_cell_angle_beta	90.063685
_cell_angle_gamma	90.021987
loop_
_atom_site_label
_atom_site_type_symbol
_atom_site_fract_x
_atom_site_fract_y
_atom_site_fract_z
Zn1	Zn	-1.200382	0.312073	-0.418767
Zn2	Zn	-1.200192	0.443482	-0.294924
Zn3	Zn	-1.069017	0.312232	-0.294936
Zn4	Zn	-1.069082	0.443298	-0.418720
O5	O	-1.134668	0.377771	-0.356837
O6	O	-1.310204	0.329514	-0.402354
O7	O	-1.182685	0.426215	-0.191292
O8	O	-1.086495	0.202364	-0.311387
O9	O	-1.310064	0.426060	-0.311367
O10	O	-1.183008	0.202247	-0.402366
O11	O	-1.086311	0.329786	-0.191301
O12	O	-0.959179	0.329608	-0.311341
O13	O	-1.086605	0.425748	-0.522360
O14	O	-0.959226	0.425902	-0.402285
O15	O	-1.183071	0.329337	-0.522394
O16	O	-1.182748	0.553304	-0.311321
O17	O	-1.086422	0.553170	-0.402274
C18	C	-0.930720	0.377753	-0.356810
C19	C	-0.843471	0.377764	-0.356816
C20	C	-1.134592	0.581719	-0.356807
C21	C	-1.134632	0.668969	-0.356819
C22	C	-0.802526	0.427979	-0.404093
C23	C	-0.720545	0.427980	-0.404102
C24	C	-0.679511	0.377768	-0.356830
C25	C	-0.720462	0.327547	-0.309551
C26	C	-0.802441	0.327543	-0.309546
C27	C	-0.549592	0.327559	-0.309563
C28	C	-0.467607	0.327563	-0.309567
C29	C	-0.467696	0.427995	-0.404120
C30	C	-0.549675	0.427992	-0.404115
C31	C	-0.590620	0.377772	-0.356834
C32	C	-1.134867	0.377504	-0.549999
C33	C	-1.134951	0.377390	-0.632314
C34	C	-0.339412	0.377785	-0.356856
C35	C	-0.426662	0.377779	-0.356844
C36	C	-1.134766	0.173027	-0.356883
C37	C	-1.134807	0.085777	-0.356902
C38	C	-1.184840	0.710003	-0.309511
C39	C	-1.184879	0.791984	-0.309530
C40	C	-1.134704	0.832928	-0.356854
C41	C	-1.084493	0.791888	-0.404167
C42	C	-1.084460	0.709909	-0.404152
C43	C	-1.084566	0.962758	-0.404196
C44	C	-1.084599	1.044743	-0.404211
C45	C	-1.184985	1.044832	-0.309574
C46	C	-1.184951	0.962853	-0.309558
C47	C	-1.134740	0.921819	-0.356871
C48	C	-1.134516	0.377981	-0.164426
C49	C	-1.134583	0.377874	-0.082112
C50	C	-1.134707	0.377712	0.068596
C51	C	-1.073661	0.317450	0.099901
C52	C	-1.073494	0.317538	0.185520
C53	C	-1.134828	0.377552	0.216978
C54	C	-1.113180	0.460530	0.186136
C55	C	-1.112667	0.460275	0.100491
C56	C	-1.217584	0.355684	0.099955
C57	C	-1.217197	0.353769	0.185601
C58	C	-1.134898	0.377466	0.300838
C59	C	-1.134635	0.377803	-0.015263
H60	H	-0.835930	0.468870	-0.442585
Br61	Br	-0.664980	0.496130	-0.468269
H62	H	-1.233530	0.292699	0.205732
Br63	Br	-1.016405	0.847455	-0.468400
Br64	Br	-1.253044	0.907286	-0.245331
H65	H	-1.053328	0.479353	0.207743
H66	H	-0.835777	0.286649	-0.271052
H67	H	-0.434199	0.286667	-0.271082
H68	H	-1.263060	0.399562	0.079708
Br69	Br	-0.971181	0.341877	0.219926
H70	H	-1.043681	0.929351	-0.442725
Br71	Br	-1.016322	0.654219	-0.468363
Br72	Br	-0.605364	0.496144	-0.468263
H73	H	-1.012589	0.331925	0.078529
H74	H	-1.156339	0.506635	0.206524
Br75	Br	-1.016492	1.100311	-0.468425
Br76	Br	-1.252931	0.654443	-0.245275
H77	H	-1.086949	0.256037	0.206362
H78	H	-1.237405	0.296218	0.078173
Br79	Br	-1.095749	0.214696	0.065283
Br80	Br	-1.253027	0.847670	-0.245328
H81	H	-1.265087	0.394345	0.207004
H82	H	-1.052113	0.478835	0.080673
H83	H	-1.155244	0.506747	0.079794
H84	H	-0.434355	0.468884	-0.442619
Br85	Br	-0.664774	0.259394	-0.245401
Br86	Br	-0.605160	0.259401	-0.245398
H87	H	-1.225872	1.078246	-0.271053
