data_functionalizedCrystal
_audit_creation_method	'MofGen! by Chris Wilmer'
_symmetry_space_group_name_H-M	'P1'
_symmetry_Int_Tables_number	1
_symmetry_cell_setting	triclinic
loop_
_symmetry_equiv_pos_as_xyz
  x,y,z
_cell_length_a	18.215407
_cell_length_b	18.050590
_cell_length_c	18.215399
_cell_angle_alpha	89.968856
_cell_angle_beta	89.986109
_cell_angle_gamma	90.016012
loop_
_atom_site_label
_atom_site_type_symbol
_atom_site_fract_x
_atom_site_fract_y
_atom_site_fract_z
Zn1	Zn	1.125082	-0.295700	-0.416054
Zn2	Zn	1.125011	-0.419900	-0.292986
Zn3	Zn	1.002021	-0.295723	-0.293008
Zn4	Zn	1.001995	-0.419847	-0.416017
O5	O	1.063527	-0.357792	-0.354516
O6	O	1.228057	-0.312188	-0.399735
O7	O	1.108677	-0.403459	-0.190005
O8	O	1.018387	-0.191795	-0.309355
O9	O	1.228005	-0.403437	-0.309318
O10	O	1.108799	-0.191778	-0.399756
O11	O	1.018318	-0.312227	-0.190021
O12	O	0.899034	-0.312176	-0.309319
O13	O	1.018341	-0.403347	-0.519007
O14	O	0.899014	-0.403369	-0.399694
O15	O	1.108773	-0.312136	-0.519034
O16	O	1.108651	-0.523818	-0.309282
O17	O	1.018272	-0.523779	-0.399673
C18	C	0.872321	-0.357770	-0.354505
C19	C	0.790522	-0.357778	-0.354518
C20	C	0.525474	-0.405355	-0.401510
C21	C	0.602332	-0.405348	-0.401506
C22	C	0.602322	-0.310247	-0.307536
C23	C	0.525465	-0.310257	-0.307536
C24	C	0.487043	-0.357810	-0.354527
C25	C	0.640759	-0.357793	-0.354524
C26	C	0.724092	-0.357786	-0.354519
C27	C	0.403704	-0.357819	-0.354531
C28	C	1.063471	-0.550745	-0.354487
C29	C	1.063514	-0.633290	-0.354499
C30	C	1.112765	-0.832735	-0.305413
C31	C	1.130738	-0.882065	-0.372579
C32	C	1.063556	-0.784421	-0.354529
C33	C	1.045657	-0.882172	-0.287393
C34	C	1.063597	-0.930406	-0.354551
C35	C	1.081564	-0.832664	-0.421730
C36	C	0.996451	-0.832766	-0.336498
C37	C	1.014399	-0.882074	-0.403710
C38	C	1.063533	-0.700322	-0.354515
C39	C	1.063619	-1.014502	-0.354572
C40	C	1.255480	-0.357816	-0.354528
C41	C	1.337279	-0.357826	-0.354533
C42	C	1.063562	-0.357733	-0.546469
C43	C	1.063577	-0.357708	-0.628268
C44	C	1.063604	-0.164087	-0.354562
C45	C	1.063637	-0.081541	-0.354581
C46	C	1.016566	-0.310171	-0.816472
C47	C	1.016579	-0.310156	-0.893330
C48	C	1.110675	-0.405156	-0.893303
C49	C	1.110658	-0.405174	-0.816446
C50	C	1.063605	-0.357677	-0.778032
C51	C	1.063635	-0.357644	-0.931748
C52	C	1.063649	-0.357628	-1.015082
C53	C	1.063590	-0.357694	-0.694693
C54	C	1.063535	-0.357798	-0.163310
C55	C	1.063663	-0.357614	-0.081512
H56	H	0.494192	-0.444076	-0.439773
C57	C	0.959042	-0.910890	-0.459219
C58	C	0.995226	-0.954490	-0.511466
C59	C	0.944257	-0.981057	-0.562607
H60	H	0.935873	-0.870297	-0.482984
H61	H	0.923095	-0.939942	-0.434702
H62	H	1.031160	-0.925439	-0.535980
H63	H	1.018391	-0.995093	-0.487722
H64	H	0.908310	-1.010109	-0.538090
H65	H	0.921091	-0.940460	-0.586367
H66	H	0.968800	-1.010648	-0.598059
C67	C	0.965393	-0.258584	-0.774897
C68	C	0.924187	-0.216993	-0.825015
C69	C	0.877028	-0.169472	-0.786747
H70	H	0.993464	-0.226167	-0.744922
H71	H	0.933273	-0.286984	-0.744923
H72	H	0.956303	-0.188595	-0.854977
H73	H	0.896101	-0.249390	-0.854992
H74	H	0.844908	-0.197872	-0.756772
H75	H	0.905105	-0.137060	-0.756773
H76	H	0.849059	-0.141252	-0.820746
H77	H	1.148985	-0.443826	-0.924589
C78	C	0.644004	-0.258711	-0.256399
C79	C	0.625304	-0.274814	-0.183557
C80	C	0.663694	-0.227361	-0.136429
H81	H	0.631452	-0.208799	-0.267154
H82	H	0.695289	-0.265521	-0.263080
H83	H	0.574031	-0.267998	-0.176880
H84	H	0.637859	-0.324717	-0.172780
H85	H	0.714978	-0.234171	-0.143110
H86	H	0.651138	-0.177452	-0.147190
H87	H	0.651016	-0.238285	-0.087001
C88	C	0.644150	-0.456846	-0.452563
C89	C	0.688308	-0.414845	-0.499789
C90	C	0.726847	-0.462262	-0.546828
H91	H	0.610341	-0.485182	-0.480618
H92	H	0.674162	-0.489158	-0.424379
H93	H	0.658298	-0.382546	-0.527971
H94	H	0.722130	-0.386510	-0.471756
H95	H	0.756859	-0.494574	-0.518644
H96	H	0.693033	-0.490596	-0.574877
H97	H	0.756817	-0.433772	-0.578872
H98	H	0.939701	-0.811093	-0.321213
C99	C	0.483704	-0.258766	-0.256417
C100	C	0.439589	-0.300782	-0.209166
C101	C	0.401120	-0.253383	-0.162052
H102	H	0.453666	-0.226424	-0.284523
H103	H	0.517577	-0.230461	-0.228391
H104	H	0.405719	-0.329074	-0.237188
H105	H	0.469609	-0.333122	-0.181044
H106	H	0.434993	-0.225079	-0.134026
H107	H	0.371086	-0.221043	-0.190164
H108	H	0.371188	-0.281884	-0.129982
H109	H	0.978275	-0.271472	-0.924625
C110	C	1.168383	-0.803881	-0.250185
C111	C	1.238564	-0.828846	-0.269422
C112	C	1.289820	-0.802271	-0.218573
H113	H	1.156220	-0.821542	-0.202577
H114	H	1.167718	-0.751253	-0.250259
H115	H	1.239227	-0.881463	-0.269340
H116	H	1.250750	-0.811187	-0.317021
H117	H	1.289154	-0.749643	-0.218647
H118	H	1.277650	-0.819934	-0.170968
H119	H	1.337444	-0.819200	-0.231622
H120	H	1.187505	-0.903722	-0.387844
H121	H	1.030501	-0.903918	-0.230608
C122	C	1.161813	-0.456784	-0.774838
C123	C	1.203042	-0.498358	-0.824927
C124	C	1.250175	-0.545901	-0.786625
H125	H	1.133723	-0.489211	-0.744843
H126	H	1.193921	-0.428401	-0.744880
H127	H	1.170939	-0.526739	-0.854873
H128	H	1.231147	-0.465950	-0.854924
H129	H	1.282282	-0.517518	-0.756667
H130	H	1.222078	-0.578323	-0.756632
H131	H	1.278159	-0.574109	-0.820605
C132	C	1.101986	-0.803901	-0.497476
C133	C	1.172051	-0.829503	-0.516305
C134	C	1.190887	-0.803029	-0.586078
H135	H	1.101929	-0.751279	-0.497085
H136	H	1.067294	-0.821211	-0.532428
H137	H	1.206734	-0.812188	-0.481362
H138	H	1.172126	-0.882122	-0.516711
H139	H	1.156195	-0.820339	-0.621030
H140	H	1.190826	-0.750407	-0.585681
H141	H	1.238424	-0.820401	-0.598865
