data_functionalizedCrystal
_audit_creation_method	'MofGen! by Chris Wilmer'
_symmetry_space_group_name_H-M	'P1'
_symmetry_Int_Tables_number	1
_symmetry_cell_setting	triclinic
loop_
_symmetry_equiv_pos_as_xyz
  x,y,z
_cell_length_a	9.065218
_cell_length_b	10.723024
_cell_length_c	7.540329
_cell_angle_alpha	89.997572
_cell_angle_beta	89.996962
_cell_angle_gamma	84.741877
loop_
_atom_site_label
_atom_site_type_symbol
_atom_site_fract_x
_atom_site_fract_y
_atom_site_fract_z
O1	O	1.959359	0.182984	-0.147482
O2	O	2.459359	0.682984	0.352518
O3	O	1.529989	0.197993	-0.147484
O4	O	2.029989	0.697993	0.352516
O5	O	1.754578	0.008953	-0.147476
O6	O	2.254578	0.508953	0.352524
O7	O	1.734770	0.372025	-0.147490
O8	O	2.234770	0.872025	0.352510
O9	O	1.754565	0.008950	0.147489
O10	O	2.254565	0.508950	0.647489
O11	O	1.529976	0.197991	0.147481
O12	O	2.029976	0.697991	0.647481
O13	O	1.959346	0.182982	0.147483
O14	O	2.459346	0.682982	0.647483
Cu15	Cu	1.744660	0.190486	0.174415
Cu16	Cu	2.244660	0.690486	0.674415
Cu17	Cu	1.744676	0.190489	-0.174416
Cu18	Cu	2.244676	0.690489	0.325584
O19	O	1.734757	0.372022	0.147475
O20	O	2.234757	0.872022	0.647475
C21	C	1.475004	0.196550	-0.000002
C22	C	1.975004	0.696550	0.499998
C23	C	1.311186	0.192237	-0.000003
C24	C	1.811186	0.692237	0.499997
C25	C	1.753130	-0.037554	0.000004
C26	C	2.253130	0.462446	0.500004
C27	C	1.748817	-0.176126	-0.000002
C28	C	2.248817	0.323874	0.499998
C29	C	1.874486	-0.250598	-0.000004
C30	C	2.374486	0.249402	0.499996
C31	C	1.870031	-0.393819	-0.000011
C32	C	2.370031	0.106181	0.499989
C33	C	2.014331	0.184425	-0.000003
C34	C	2.514331	0.684425	0.499997
C35	C	2.178150	0.188738	-0.000014
C36	C	2.678150	0.688738	0.499986
C37	C	1.736205	0.418529	-0.000009
C38	C	2.236205	0.918529	0.499991
C39	C	1.740518	0.557101	-0.000014
C40	C	2.240518	1.057101	0.499986
N41	N	1.744659	0.190483	0.419763
N42	N	2.244659	0.690483	0.919763
N43	N	1.744688	0.190482	-0.419764
N44	N	2.244688	0.690482	0.080236
H45	H	1.985373	-0.208325	0.000007
H46	H	2.485373	0.291675	0.500007
O47	O	1.601926	-0.232107	0.000012
O48	O	2.101926	0.267893	0.500012
H49	H	1.593752	-0.290808	-0.120203
H50	H	2.093752	0.209192	0.379797
O51	O	2.012550	-0.478574	-0.000009
O52	O	2.512550	0.021426	0.499991
H53	H	1.986686	-0.577764	-0.000023
H54	H	2.486686	-0.077764	0.499977
O55	O	1.597996	-0.358149	0.000007
O56	O	2.097996	0.141851	0.500007
H57	H	1.532796	-0.376660	-0.120207
H58	H	2.032796	0.123340	0.379793
