data_functionalizedCrystal
_audit_creation_method	'MofGen! by Chris Wilmer'
_symmetry_space_group_name_H-M	'P1'
_symmetry_Int_Tables_number	1
_symmetry_cell_setting	triclinic
loop_
_symmetry_equiv_pos_as_xyz
  x,y,z
_cell_length_a	17.077404
_cell_length_b	12.594516
_cell_length_c	17.077395
_cell_angle_alpha	90.021885
_cell_angle_beta	90.015641
_cell_angle_gamma	90.016278
loop_
_atom_site_label
_atom_site_type_symbol
_atom_site_fract_x
_atom_site_fract_y
_atom_site_fract_z
Zn1	Zn	1.200062	-0.423749	0.443872
Zn2	Zn	1.199994	-0.601746	0.312618
Zn3	Zn	1.068803	-0.423782	0.312620
Zn4	Zn	1.068777	-0.601687	0.443842
O5	O	1.134409	-0.512741	0.378238
O6	O	1.309900	-0.447371	0.426473
O7	O	1.182573	-0.578177	0.202771
O8	O	1.086254	-0.274832	0.330044
O9	O	1.309850	-0.578145	0.330041
O10	O	1.182689	-0.274808	0.426474
O11	O	1.086187	-0.447428	0.202773
O12	O	0.958952	-0.447371	0.330015
O13	O	1.086211	-0.578044	0.553693
O14	O	0.958934	-0.578076	0.426423
O15	O	1.182665	-0.447314	0.553715
O16	O	1.182548	-0.750684	0.330012
O17	O	1.086144	-0.750640	0.426421
C18	C	0.930461	-0.512722	0.378216
C19	C	0.843211	-0.512739	0.378226
C20	C	0.802232	-0.580900	0.428345
C21	C	0.720252	-0.580902	0.428357
C22	C	0.679252	-0.512748	0.378246
C23	C	0.720237	-0.444580	0.328125
C24	C	0.802216	-0.444573	0.328117
C25	C	0.549367	-0.444601	0.328144
C26	C	0.467382	-0.444609	0.328150
C27	C	0.467403	-0.580930	0.428384
C28	C	0.549382	-0.580923	0.428376
C29	C	0.590361	-0.512756	0.378253
C30	C	1.134357	-0.789282	0.378230
C31	C	1.134407	-0.907587	0.378253
C32	C	1.081968	-0.976855	0.430653
C33	C	1.062849	-1.047714	0.359026
C34	C	1.153598	-1.047528	0.449893
C35	C	1.115250	-0.976887	0.306587
C36	C	1.206033	-0.976696	0.397503
C37	C	1.186941	-1.047522	0.325826
C38	C	1.339153	-0.512761	0.378260
C39	C	1.426403	-0.512770	0.378269
C40	C	1.134443	-0.512669	0.582982
C41	C	1.134457	-0.512638	0.670232
C42	C	1.134482	-0.235120	0.378263
C43	C	1.134513	-0.116815	0.378273
C44	C	1.134421	-0.512736	0.174290
C45	C	1.134558	-0.512467	0.087041
C46	C	1.184768	-0.444422	1.046059
C47	C	1.184752	-0.444460	0.964079
C48	C	1.134522	-0.512537	0.923081
C49	C	1.084310	-0.580589	0.964068
C50	C	1.084331	-0.580557	1.046047
C51	C	1.084269	-0.580651	0.793198
C52	C	1.084247	-0.580683	0.711213
C53	C	1.184691	-0.444554	0.711230
C54	C	1.184711	-0.444521	0.793209
C55	C	1.134498	-0.512572	0.834190
H56	H	0.434002	-0.389099	0.287355
H57	H	1.002326	-1.078931	0.342760
H58	H	0.835580	-0.389064	0.287309
H59	H	1.043415	-0.636024	0.930681
H60	H	1.037543	-0.945826	0.474902
H61	H	1.098991	-0.945986	0.245994
H62	H	1.231332	-1.078355	0.281470
O63	O	0.589054	-0.378357	0.279375
C64	C	0.535290	-0.318190	0.235156
H65	H	0.476842	-0.361782	0.232398
H66	H	0.526600	-0.237397	0.263994
C67	C	0.639039	-0.249180	0.155011
C68	C	0.567254	-0.302725	0.151618
H69	H	0.658756	-0.239635	0.103482
H70	H	0.675262	-0.289712	0.184804
H71	H	0.631788	-0.181858	0.179046
H72	H	0.574507	-0.370050	0.127593
H73	H	0.531033	-0.262204	0.121819
O74	O	1.278195	-0.939496	0.417083
C75	C	1.298155	-0.975444	0.492675
H76	H	1.242518	-0.995376	0.526491
H77	H	1.336278	-1.049439	0.487763
C78	C	1.411952	-0.863352	0.494668
C79	C	1.343617	-0.887824	0.536204
H80	H	1.439998	-0.809307	0.521518
H81	H	1.398506	-0.839136	0.443739
H82	H	1.443712	-0.925022	0.490577
H83	H	1.311854	-0.826159	0.540285
H84	H	1.357058	-0.912029	0.587135
O85	O	1.233535	-0.378534	0.833125
C86	C	1.284239	-0.439120	0.880533
H87	H	1.256538	-0.519778	0.892799
H88	H	1.342406	-0.450824	0.848948
C89	C	1.332495	-0.281468	0.943348
C90	C	1.298469	-0.380531	0.958419
H91	H	1.341276	-0.245327	0.991391
H92	H	1.298337	-0.240650	0.911407
H93	H	1.380963	-0.291236	0.917025
H94	H	1.249997	-0.370762	0.984733
H95	H	1.332619	-0.421347	0.990367
H96	H	1.169787	-1.078558	0.510470
H97	H	1.225574	-0.389142	0.677859
O98	O	1.233449	-0.378175	1.085916
C99	C	1.188792	-0.309418	1.133353
H100	H	1.126964	-0.302844	1.108648
H101	H	1.186095	-0.342299	1.195482
C102	C	1.303116	-0.206850	1.164960
C103	C	1.227178	-0.198768	1.134613
H104	H	1.326794	-0.138597	1.165741
H105	H	1.333203	-0.253175	1.133003
H106	H	1.300857	-0.234255	1.216732
H107	H	1.229438	-0.171377	1.082840
H108	H	1.197092	-0.152436	1.166561
H109	H	1.225639	-0.389053	0.930716
O110	O	0.842142	-0.646958	0.477063
C111	C	0.889576	-0.586442	0.527845
H112	H	0.901861	-0.505732	0.500257
H113	H	0.858004	-0.574849	0.586034
C114	C	0.952353	-0.744152	0.575866
C115	C	0.967448	-0.645026	0.541978
H116	H	1.000387	-0.780291	0.584587
H117	H	0.920394	-0.784924	0.541655
H118	H	0.926041	-0.734478	0.624352
H119	H	0.993750	-0.654703	0.493488
H120	H	0.999413	-0.604257	0.576181
O121	O	1.035419	-0.646789	0.832887
C122	C	0.991091	-0.706900	0.779124
H123	H	0.988373	-0.663328	0.720689
H124	H	1.019808	-0.787747	0.770402
C125	C	0.910888	-0.775727	0.882887
C126	C	0.907544	-0.722206	0.811118
H127	H	0.859354	-0.785174	0.902623
H128	H	0.940754	-0.735233	0.919109
H129	H	0.934823	-0.843094	0.875608
H130	H	0.883619	-0.654836	0.818399
H131	H	0.877672	-0.762690	0.774898
H132	H	0.434033	-0.636431	0.469198
O133	O	0.680354	-0.647169	0.476929
C134	C	0.632919	-0.715848	0.432150
H135	H	0.620626	-0.678196	0.372712
H136	H	0.664494	-0.794709	0.423420
C137	C	0.570157	-0.781446	0.548322
C138	C	0.555053	-0.735197	0.475322
H139	H	0.522127	-0.793386	0.574953
H140	H	0.602117	-0.735179	0.578491
H141	H	0.596472	-0.847158	0.541037
H142	H	0.528748	-0.669480	0.482608
H143	H	0.523087	-0.781453	0.445155
O144	O	0.589173	-0.647015	0.477166
C145	C	0.569161	-0.623912	0.555432
H146	H	0.546638	-0.538891	0.559503
H147	H	0.521576	-0.681019	0.575886
C148	C	0.669667	-0.740804	0.602795
C149	C	0.642011	-0.636377	0.607796
H150	H	0.714603	-0.748497	0.635097
H151	H	0.683149	-0.756373	0.550066
H152	H	0.630006	-0.788382	0.619838
H153	H	0.681668	-0.588802	0.590743
H154	H	0.628538	-0.620800	0.660524
O155	O	1.035482	-0.646688	1.085737
C156	C	0.991156	-0.706802	1.031975
H157	H	0.988433	-0.663227	0.973541
H158	H	1.019878	-0.787645	1.023249
C159	C	0.910960	-0.775641	1.135738
C160	C	0.907611	-0.722117	1.063970
H161	H	0.859427	-0.785094	1.155475
H162	H	0.940825	-0.735145	1.171960
H163	H	0.934898	-0.843005	1.128458
H164	H	0.883682	-0.654750	1.071254
H165	H	0.877740	-0.762603	1.027750
H166	H	0.686848	-0.389083	0.287327
H167	H	1.043328	-0.636093	0.677835
