data_functionalizedCrystal
_audit_creation_method	'MofGen! by Chris Wilmer'
_symmetry_space_group_name_H-M	'P1'
_symmetry_Int_Tables_number	1
_symmetry_cell_setting	triclinic
loop_
_symmetry_equiv_pos_as_xyz
  x,y,z
_cell_length_a	10.654541
_cell_length_b	13.930277
_cell_length_c	14.853576
_cell_angle_alpha	89.996507
_cell_angle_beta	95.938794
_cell_angle_gamma	90.005870
loop_
_atom_site_label
_atom_site_type_symbol
_atom_site_fract_x
_atom_site_fract_y
_atom_site_fract_z
O1	O	1.666539	0.079799	-0.126615
O2	O	1.300935	0.079807	-0.138681
O3	O	1.493497	0.079799	-0.001471
O4	O	1.473977	0.079807	-0.263825
O5	O	1.493470	-0.079863	-0.001468
O6	O	1.300908	-0.079855	-0.138678
O7	O	1.666512	-0.079863	-0.126611
Zn8	Zn	1.483706	-0.105209	-0.132644
Zn9	Zn	1.483741	0.105153	-0.132648
O10	O	1.473950	-0.079855	-0.263822
C11	C	1.254133	-0.000023	-0.137794
C12	C	1.114717	-0.000020	-0.135145
N13	N	1.483691	-0.248775	-0.132641
C14	C	1.085049	-0.000003	-0.299217
C15	C	1.004718	0.000010	-0.380004
C16	C	0.873726	0.000011	-0.377509
C17	C	0.823063	-0.000004	-0.294218
C18	C	0.903393	-0.000016	-0.213430
C19	C	1.034386	-0.000014	-0.215934
C20	C	0.933061	-0.000040	-0.049360
C21	C	1.064053	-0.000034	-0.051853
C22	C	0.882397	-0.000054	0.033931
C23	C	0.962728	-0.000060	0.114721
C24	C	1.093727	-0.000060	0.112222
C25	C	1.144383	-0.000046	0.028934
C26	C	1.398472	-0.701040	-0.193381
C27	C	1.569046	-0.701017	-0.071909
C28	C	1.569031	-0.600521	-0.071906
C29	C	1.483736	-0.550280	-0.132642
C30	C	1.398456	-0.600535	-0.193382
C31	C	1.654318	-0.550259	-0.011174
C32	C	1.654307	-0.449757	-0.011169
C33	C	1.569005	-0.399514	-0.071902
C34	C	1.483721	-0.449775	-0.132643
C35	C	1.398427	-0.399535	-0.193379
C36	C	1.313135	-0.449794	-0.254117
C37	C	1.313155	-0.550293	-0.254114
C38	C	1.568986	-0.299015	-0.071904
C39	C	1.398411	-0.299029	-0.193380
C40	C	1.713315	-0.000031	-0.127499
C41	C	1.852731	-0.000028	-0.130148
C42	C	1.492597	-0.000031	0.032124
C43	C	1.489941	-0.000027	0.132222
N44	N	1.483766	0.248719	-0.132644
C45	C	1.474850	-0.000023	-0.297417
C46	C	1.477506	-0.000020	-0.397514
C47	C	1.488706	0.087009	0.179242
C48	C	1.488691	-0.087061	0.179258
C49	C	1.486202	-0.087061	0.273306
C50	C	1.484966	-0.000025	0.320326
C51	C	1.486220	0.087011	0.273298
C52	C	1.484961	-0.174095	0.320341
C53	C	1.482473	-0.174099	0.414395
C54	C	1.481229	-0.087062	0.461415
C55	C	1.482481	-0.000022	0.414382
C56	C	1.481246	0.087014	0.461402
C57	C	1.482489	0.174054	0.414369
C58	C	1.484976	0.174048	0.320319
C59	C	1.478742	-0.087056	0.555466
C60	C	1.478760	0.087016	0.555458
H61	H	1.045983	0.000019	-0.447819
C62	C	1.481340	-0.268560	0.465531
C63	C	1.587866	-0.273669	0.528988
C64	C	1.586855	-0.360675	0.576107
H65	H	1.407265	-0.272250	0.495876
H66	H	1.482490	-0.320430	0.424098
H67	H	1.586704	-0.221813	0.570415
H68	H	1.661958	-0.269996	0.498667
H69	H	1.588005	-0.412545	0.534675
H70	H	1.512776	-0.364356	0.606447
H71	H	1.659137	-0.364156	0.619163
H72	H	1.328949	-0.258130	-0.242836
H73	H	0.808320	0.000014	-0.443294
C74	C	1.180999	-0.000270	0.199910
C75	C	1.257038	-0.082422	0.203276
C76	C	1.337431	-0.082655	0.284046
H77	H	1.232840	0.055344	0.202440
H78	H	1.132103	-0.000331	0.249892
H79	H	1.305930	-0.082353	0.153307
H80	H	1.205232	-0.138049	0.200761
H81	H	1.288535	-0.082715	0.334028
H82	H	1.389263	-0.027037	0.286569
H83	H	1.389025	-0.138398	0.286344
C84	C	0.907478	-0.000028	0.205052
C85	C	0.775568	-0.000010	0.189946
C86	C	0.724625	0.000034	0.273139
H87	H	0.934897	-0.055692	0.238419
H88	H	0.934968	0.055670	0.238363
H89	H	0.748090	-0.055703	0.156649
H90	H	0.748114	0.055650	0.156593
H91	H	0.752115	0.055732	0.306449
H92	H	0.752054	-0.055632	0.306499
H93	H	0.635120	0.000054	0.262900
H94	H	1.329025	-0.741964	-0.242830
C95	C	1.661753	-0.244411	-0.006127
C96	C	1.738710	-0.186730	-0.054686
C97	C	1.824210	-0.136432	0.005876
H98	H	1.616694	-0.205130	0.031743
H99	H	1.712628	-0.288707	0.030017
H100	H	1.687841	-0.142439	-0.090814
H101	H	1.783796	-0.225987	-0.092553
H102	H	1.875085	-0.180728	0.042020
H103	H	1.779141	-0.097156	0.043744
H104	H	1.876443	-0.097296	-0.027062
H105	H	1.489713	0.157875	0.140943
H106	H	1.489706	-0.157922	0.140970
C107	C	1.220590	-0.395067	-0.319959
C108	C	1.238826	-0.296299	-0.306943
C109	C	1.153589	-0.245852	-0.367571
H110	H	1.234244	-0.411415	-0.380261
H111	H	1.136735	-0.411487	-0.309600
H112	H	1.322660	-0.279886	-0.317309
H113	H	1.225161	-0.279923	-0.246654
H114	H	1.069734	-0.262272	-0.357211
H115	H	1.167250	-0.262208	-0.427868
H116	H	1.165942	-0.178833	-0.358742
H117	H	1.477734	-0.157923	0.593756
C118	C	1.746765	-0.395025	0.054734
C119	C	1.823759	-0.337182	0.006356
C120	C	1.908829	-0.286705	0.067085
H121	H	1.701377	-0.355839	0.092476
H122	H	1.797654	-0.439214	0.090997
H123	H	1.772876	-0.292998	-0.029890
H124	H	1.869175	-0.376344	-0.031381
H125	H	1.959717	-0.330894	0.103347
H126	H	1.863429	-0.247524	0.104822
H127	H	1.961086	-0.247459	0.034269
H128	H	1.191708	0.000018	-0.301256
C129	C	1.486064	-0.268648	0.269372
C130	C	1.377499	-0.321150	0.282815
C131	C	1.378459	-0.408260	0.235873
H132	H	1.487639	-0.256301	0.206605
H133	H	1.558782	-0.304483	0.291192
H134	H	1.304800	-0.285322	0.260991
H135	H	1.375901	-0.333522	0.345572
H136	H	1.451177	-0.444095	0.257692
H137	H	1.380037	-0.395904	0.173108
H138	H	1.304805	-0.443897	0.244994
C139	C	1.481383	0.268584	0.465388
C140	C	1.589947	0.321107	0.451989
C141	C	1.588968	0.408186	0.498981
H142	H	1.408690	0.304442	0.443600
H143	H	1.479789	0.256165	0.528153
H144	H	1.591529	0.333528	0.389237
H145	H	1.662657	0.285278	0.473781
H146	H	1.587375	0.395767	0.561745
H147	H	1.516271	0.444035	0.477188
H148	H	1.662633	0.443829	0.489902
H149	H	1.485993	0.244912	0.282017
C150	C	1.220710	-0.605034	-0.320020
C151	C	1.239010	-0.703799	-0.307038
C152	C	1.153890	-0.754260	-0.367744
H153	H	1.136821	-0.588701	-0.309734
H154	H	1.234463	-0.588610	-0.380300
H155	H	1.225247	-0.720216	-0.246773
H156	H	1.322882	-0.720161	-0.317332
H157	H	1.167644	-0.737836	-0.428023
H158	H	1.070007	-0.737919	-0.357452
H159	H	1.166303	-0.821277	-0.358950
H160	H	0.775735	-0.000059	0.035957
C161	C	1.661572	-0.755444	-0.005821
C162	C	1.641056	-0.730993	0.082905
C163	C	1.726274	-0.781109	0.143815
H164	H	1.649450	-0.822509	-0.014397
H165	H	1.745429	-0.738945	-0.016105
H166	H	1.557219	-0.747498	0.093185
H167	H	1.653188	-0.663936	0.091511
H168	H	1.810130	-0.764610	0.133531
H169	H	1.714144	-0.848171	0.135230
H170	H	1.712372	-0.764519	0.204022
C171	C	1.747110	-0.604744	0.054675
C172	C	1.870541	-0.580305	0.039228
C173	C	1.956051	-0.630488	0.099873
H174	H	1.733522	-0.588307	0.114968
H175	H	1.734988	-0.671806	0.045984
H176	H	1.882658	-0.513258	0.047926
H177	H	1.884169	-0.596744	-0.021053
H178	H	1.943929	-0.697550	0.091183
H179	H	1.942451	-0.614047	0.160162
H180	H	2.039808	-0.613920	0.089395
H181	H	0.716401	-0.000015	-0.292194
H182	H	1.251042	-0.000035	0.026892
H183	H	1.477745	0.157893	0.593735
