data_functionalizedCrystal
_audit_creation_method	'MofGen! by Chris Wilmer'
_symmetry_space_group_name_H-M	'P1'
_symmetry_Int_Tables_number	1
_symmetry_cell_setting	triclinic
loop_
_symmetry_equiv_pos_as_xyz
  x,y,z
_cell_length_a	16.109301
_cell_length_b	16.109301
_cell_length_c	9.130313
_cell_angle_alpha	89.994060
_cell_angle_beta	89.998839
_cell_angle_gamma	83.461532
loop_
_atom_site_label
_atom_site_type_symbol
_atom_site_fract_x
_atom_site_fract_y
_atom_site_fract_z
O1	O	1.103131	0.106868	-0.121724
O2	O	1.603131	0.606868	0.378276
O3	O	0.861069	0.120167	-0.121745
O4	O	1.361069	0.620167	0.378255
O5	O	0.988749	-0.007513	-0.121719
O6	O	1.488749	0.492487	0.378281
O7	O	0.975450	0.234549	-0.121750
O8	O	1.475450	0.734549	0.378250
O9	O	0.988741	-0.007517	0.121880
O10	O	1.488741	0.492483	0.621880
O11	O	0.861060	0.120163	0.121854
O12	O	1.361060	0.620163	0.621854
O13	O	1.103122	0.106864	0.121875
O14	O	1.603122	0.606864	0.621875
Cu15	Cu	0.982090	0.113514	0.144107
Cu16	Cu	1.482090	0.613514	0.644107
Cu17	Cu	0.982100	0.113518	-0.143977
Cu18	Cu	1.482100	0.613518	0.356023
O19	O	0.975441	0.234545	0.121849
O20	O	1.475441	0.734545	0.621849
C21	C	0.830089	0.119627	0.000052
C22	C	1.330089	0.619627	0.500052
C23	C	0.737794	0.118011	0.000045
C24	C	1.237794	0.618011	0.500045
C25	C	0.428796	0.188494	0.000061
C26	C	0.928796	0.688494	0.500061
C27	C	0.515516	0.190020	0.000052
C28	C	1.015516	0.690020	0.500052
C29	C	0.535389	0.038531	0.000052
C30	C	1.035389	0.538531	0.500052
C31	C	0.448671	0.037007	0.000050
C32	C	0.948671	0.537007	0.500050
C33	C	0.395376	0.111991	0.000062
C34	C	0.895376	0.611991	0.500062
C35	C	0.568815	0.115041	0.000055
C36	C	1.068815	0.615041	0.500055
C37	C	0.662841	0.116694	0.000046
C38	C	1.162841	0.616694	0.500046
C39	C	0.301344	0.110338	0.000069
C40	C	0.801344	0.610338	0.500069
C41	C	0.988206	-0.038490	0.000081
C42	C	1.488206	0.461510	0.500081
C43	C	0.986591	-0.130785	0.000083
C44	C	1.486591	0.369215	0.500083
C45	C	1.058599	-0.353058	0.000067
C46	C	1.558599	0.146942	0.500067
C47	C	1.057075	-0.439778	0.000054
C48	C	1.557075	0.060222	0.500054
C49	C	0.905586	-0.419904	0.000047
C50	C	1.405586	0.080096	0.500047
C51	C	0.907111	-0.333185	0.000049
C52	C	1.407111	0.166815	0.500049
C53	C	0.983620	-0.299765	0.000066
C54	C	1.483620	0.200235	0.500066
C55	C	0.980571	-0.473204	0.000052
C56	C	1.480571	0.026796	0.500052
C57	C	0.978918	-0.567230	0.000039
C58	C	1.478918	-0.067230	0.500039
C59	C	0.985273	-0.205733	0.000076
C60	C	1.485273	0.294267	0.500076
C61	C	1.134101	0.107405	0.000075
C62	C	1.634101	0.607405	0.500075
C63	C	1.226396	0.109020	0.000073
C64	C	1.726396	0.609020	0.500073
C65	C	0.975984	0.265522	0.000046
C66	C	1.475984	0.765522	0.500046
C67	C	0.977599	0.357817	0.000034
C68	C	1.477599	0.857817	0.500034
N69	N	0.982089	0.113510	0.346730
N70	N	1.482089	0.613510	0.846730
N71	N	0.982108	0.113515	-0.346599
N72	N	1.482108	0.613515	0.153401
C73	C	1.038645	0.056997	0.423393
C74	C	1.538645	0.556997	0.923393
C75	C	1.038653	0.056997	0.576730
C76	C	1.538653	0.556997	1.076730
C77	C	0.925546	0.170031	0.576727
C78	C	1.425546	0.670031	1.076727
C79	C	0.925535	0.170026	0.423393
C80	C	1.425535	0.670026	0.923393
H81	H	0.421461	-0.025296	0.000047
H82	H	0.921461	0.474704	0.500047
H83	H	1.084705	0.010978	0.639145
H84	H	1.584705	0.510978	1.139145
Br85	Br	1.115395	-0.019705	0.319356
Br86	Br	1.615395	0.480295	0.819356
H87	H	0.879502	0.216046	0.639161
H88	H	1.379502	0.716046	1.139161
Br89	Br	0.848769	0.246722	0.319337
Br90	Br	1.348769	0.746722	0.819337
H91	H	0.843295	-0.447126	0.000036
H92	H	1.343295	0.052874	0.500036
H93	H	0.542722	0.252317	0.000050
H94	H	1.042722	0.752317	0.500050
Br95	Br	0.607722	-0.063228	0.000048
Br96	Br	1.107722	0.436772	0.500048
H97	H	0.385405	0.249551	0.000070
H98	H	0.885405	0.749551	0.500070
H99	H	1.118130	-0.483167	0.000052
H100	H	1.618130	0.016833	0.500052
Br101	Br	1.162431	-0.307704	0.000091
Br102	Br	1.662431	0.192296	0.500091
Br103	Br	0.805346	-0.260852	0.000028
Br104	Br	1.305346	0.239148	0.500028
