data_functionalizedCrystal
_audit_creation_method	'MofGen! by Chris Wilmer'
_symmetry_space_group_name_H-M	'P1'
_symmetry_Int_Tables_number	1
_symmetry_cell_setting	triclinic
loop_
_symmetry_equiv_pos_as_xyz
  x,y,z
_cell_length_a	16.109301
_cell_length_b	15.995350
_cell_length_c	15.186229
_cell_angle_alpha	89.998487
_cell_angle_beta	89.999362
_cell_angle_gamma	83.476928
loop_
_atom_site_label
_atom_site_type_symbol
_atom_site_fract_x
_atom_site_fract_y
_atom_site_fract_z
O1	O	1.103160	0.107624	-0.073168
O2	O	1.353160	0.357624	0.176832
O3	O	1.603160	0.607624	0.426832
O4	O	1.853160	0.857624	0.676832
O5	O	0.861101	0.121018	-0.073182
O6	O	1.111101	0.371018	0.176818
O7	O	1.361101	0.621018	0.426818
O8	O	1.611101	0.871018	0.676818
O9	O	0.988747	-0.007569	-0.073174
O10	O	1.238747	0.242431	0.176826
O11	O	1.488747	0.492431	0.426826
O12	O	1.738747	0.742431	0.676826
O13	O	0.975514	0.236210	-0.073176
O14	O	1.225514	0.486210	0.176824
O15	O	1.475514	0.736210	0.426824
O16	O	1.725514	0.986210	0.676824
O17	O	0.988739	-0.007570	0.073283
O18	O	1.238739	0.242430	0.323283
O19	O	1.488739	0.492430	0.573283
O20	O	1.738739	0.742430	0.823283
O21	O	0.861093	0.121016	0.073275
O22	O	1.111093	0.371016	0.323275
O23	O	1.361093	0.621016	0.573275
O24	O	1.611093	0.871016	0.823275
O25	O	1.103151	0.107622	0.073289
O26	O	1.353151	0.357622	0.323289
O27	O	1.603151	0.607622	0.573289
O28	O	1.853151	0.857622	0.823289
Zn29	Zn	0.982121	0.114319	0.096535
Zn30	Zn	1.232121	0.364319	0.346535
Zn31	Zn	1.482121	0.614319	0.596535
Zn32	Zn	1.732121	0.864319	0.846535
Zn33	Zn	0.982132	0.114321	-0.096428
Zn34	Zn	1.232132	0.364321	0.153572
Zn35	Zn	1.482132	0.614321	0.403572
Zn36	Zn	1.732132	0.864321	0.653572
O37	O	0.975505	0.236208	0.073281
O38	O	1.225505	0.486208	0.323281
O39	O	1.475505	0.736208	0.573281
O40	O	1.725505	0.986208	0.823281
C41	C	0.830122	0.120474	0.000045
C42	C	1.080122	0.370474	0.250045
C43	C	1.330122	0.620474	0.500045
C44	C	1.580122	0.870474	0.750045
C45	C	0.737826	0.118848	0.000040
C46	C	0.987826	0.368848	0.250040
C47	C	1.237826	0.618848	0.500040
C48	C	1.487826	0.868848	0.750040
C49	C	0.515573	0.191366	0.000049
C50	C	0.765573	0.441366	0.250049
C51	C	1.015573	0.691366	0.500049
C52	C	1.265573	0.941366	0.750049
C53	C	0.428853	0.189831	0.000055
C54	C	0.678853	0.439831	0.250055
C55	C	0.928853	0.689831	0.500055
C56	C	1.178853	0.939831	0.750055
C57	C	0.448686	0.037268	0.000053
C58	C	0.698686	0.287268	0.250053
C59	C	0.948686	0.537268	0.500053
C60	C	1.198686	0.787268	0.750053
C61	C	0.535405	0.038804	0.000053
C62	C	0.785405	0.288804	0.250053
C63	C	1.035405	0.538804	0.500053
C64	C	1.285405	0.788804	0.750053
C65	C	0.568846	0.115855	0.000047
C66	C	0.818846	0.365855	0.250047
C67	C	1.068846	0.615855	0.500047
C68	C	1.318846	0.865855	0.750047
C69	C	0.395406	0.112785	0.000052
C70	C	0.645406	0.362785	0.250052
C71	C	0.895406	0.612785	0.500052
C72	C	1.145406	0.862785	0.750052
C73	C	0.301380	0.111120	0.000058
C74	C	0.551380	0.361120	0.250058
C75	C	0.801380	0.611120	0.500058
C76	C	1.051380	0.861120	0.750058
C77	C	0.662879	0.117520	0.000043
C78	C	0.912879	0.367520	0.250043
C79	C	1.162879	0.617520	0.500043
C80	C	1.412879	0.867520	0.750043
C81	C	0.988196	-0.038764	0.000053
C82	C	1.238196	0.211236	0.250053
C83	C	1.488196	0.461236	0.500053
C84	C	1.738196	0.711236	0.750053
C85	C	0.986556	-0.131714	0.000048
C86	C	1.236556	0.118286	0.250048
C87	C	1.486556	0.368286	0.500048
C88	C	1.736556	0.618286	0.750048
C89	C	0.980665	-0.469460	0.000050
C90	C	1.230665	-0.219460	0.250050
C91	C	1.480665	0.030540	0.500050
C92	C	1.730665	0.280540	0.750050
C93	C	0.889758	-0.422001	-0.000283
C94	C	1.139758	-0.172001	0.249717
C95	C	1.389758	0.077999	0.499717
C96	C	1.639758	0.327999	0.749717
C97	C	0.891399	-0.325311	0.000047
C98	C	1.141399	-0.075311	0.250047
C99	C	1.391399	0.174689	0.500047
C100	C	1.641399	0.424689	0.750047
C101	C	0.983587	-0.301900	0.000049
C102	C	1.233587	-0.051900	0.250049
C103	C	1.483587	0.198100	0.500049
C104	C	1.733587	0.448100	0.750049
C105	C	1.028421	-0.342991	0.083684
C106	C	1.278421	-0.092991	0.333684
C107	C	1.528421	0.157009	0.583684
C108	C	1.778421	0.407009	0.833684
C109	C	1.026137	-0.439626	0.083754
C110	C	1.276137	-0.189626	0.333754
C111	C	1.526137	0.060374	0.583754
C112	C	1.776137	0.310374	0.833754
C113	C	1.028025	-0.439983	-0.082795
C114	C	1.278025	-0.189983	0.167205
C115	C	1.528025	0.060017	0.417205
C116	C	1.778025	0.310017	0.667205
C117	C	1.028003	-0.343037	-0.083901
C118	C	1.278003	-0.093037	0.166099
C119	C	1.528003	0.156963	0.416099
C120	C	1.778003	0.406963	0.666099
C121	C	0.985243	-0.207203	0.000051
C122	C	1.235243	0.042797	0.250051
C123	C	1.485243	0.292797	0.500051
C124	C	1.735243	0.542797	0.750051
C125	C	0.979012	-0.564157	0.000054
C126	C	1.229012	-0.314157	0.250054
C127	C	1.479012	-0.064157	0.500054
C128	C	1.729012	0.185843	0.750054
C129	C	1.134130	0.108166	0.000060
C130	C	1.384130	0.358166	0.250060
C131	C	1.634130	0.608166	0.500060
C132	C	1.884130	0.858166	0.750060
C133	C	1.226426	0.109792	0.000059
C134	C	1.476426	0.359792	0.250059
C135	C	1.726426	0.609792	0.500059
C136	C	1.976426	0.859792	0.750059
C137	C	0.976056	0.267404	0.000052
C138	C	1.226056	0.517404	0.250052
C139	C	1.476056	0.767404	0.500052
C140	C	1.726056	1.017404	0.750052
C141	C	0.977697	0.360354	0.000051
C142	C	1.227697	0.610354	0.250051
C143	C	1.477697	0.860354	0.500051
C144	C	1.727697	1.110354	0.750051
N145	N	0.982119	0.114317	0.228228
N146	N	1.232119	0.364317	0.478228
N147	N	1.482119	0.614317	0.728228
N148	N	1.732119	0.864317	0.978228
N149	N	0.982140	0.114317	-0.228121
N150	N	1.232140	0.364317	0.021879
N151	N	1.482140	0.614317	0.271879
N152	N	1.732140	0.864317	0.521879
C153	C	1.038660	0.057398	0.453954
C154	C	1.288660	0.307398	0.703954
C155	C	1.538660	0.557398	0.953954
C156	C	1.788660	0.807398	1.203954
C157	C	1.038662	0.057396	0.546144
C158	C	1.288662	0.307396	0.796144
C159	C	1.538662	0.557396	1.046144
C160	C	1.788662	0.807396	1.296144
C161	C	0.925593	0.171238	0.546146
C162	C	1.175593	0.421238	0.796146
C163	C	1.425593	0.671238	1.046146
C164	C	1.675593	0.921238	1.296146
C165	C	0.925587	0.171236	0.453958
C166	C	1.175587	0.421236	0.703958
C167	C	1.425587	0.671236	0.953958
C168	C	1.675587	0.921236	1.203958
C169	C	0.982125	0.114316	0.407865
C170	C	1.232125	0.364316	0.657865
C171	C	1.482125	0.614316	0.907865
C172	C	1.732125	0.864316	1.157865
C173	C	0.982134	0.114317	0.592242
C174	C	1.232134	0.364317	0.842242
C175	C	1.482134	0.614317	1.092242
C176	C	1.732134	0.864317	1.342242
C177	C	0.982136	0.114315	0.692198
C178	C	1.232136	0.364315	0.942198
C179	C	1.482136	0.614315	1.192198
C180	C	1.732136	0.864315	1.442198
C181	C	0.982122	0.114317	0.307902
C182	C	1.232122	0.364317	0.557902
C183	C	1.482122	0.614317	0.807902
C184	C	1.732122	0.864317	1.057902
H185	H	0.385481	0.251320	0.000058
H186	H	0.635481	0.501320	0.250058
H187	H	0.885481	0.751320	0.500058
H188	H	1.135481	1.001320	0.750058
H189	H	0.421447	-0.025465	0.000063
H190	H	0.671447	0.224535	0.250063
H191	H	0.921447	0.474535	0.500063
H192	H	1.171447	0.724535	0.750063
H193	H	0.578782	-0.022690	0.000054
H194	H	0.828782	0.227310	0.250054
H195	H	1.078782	0.477310	0.500054
H196	H	1.328782	0.727310	0.750054
H197	H	0.853581	-0.441586	0.059355
H198	H	1.103581	-0.191586	0.309355
H199	H	1.353581	0.058414	0.559355
H200	H	1.603581	0.308414	0.809355
H201	H	1.096149	-0.328884	0.086795
H202	H	1.346149	-0.078884	0.336795
H203	H	1.596149	0.171116	0.586795
H204	H	1.846149	0.421116	0.836795
H205	H	0.856156	-0.296879	-0.059906
H206	H	1.106156	-0.046879	0.190094
H207	H	1.356156	0.203121	0.440094
H208	H	1.606156	0.453121	0.690094
H209	H	0.542798	0.254106	0.000051
H210	H	0.792798	0.504106	0.250051
H211	H	1.042798	0.754106	0.500051
H212	H	1.292798	1.004106	0.750051
H213	H	0.853427	-0.440522	-0.060260
H214	H	1.103427	-0.190522	0.189740
H215	H	1.353427	0.059478	0.439740
H216	H	1.603427	0.309478	0.689740
H217	H	0.855912	-0.297438	0.060099
H218	H	1.105912	-0.047438	0.310099
H219	H	1.355912	0.202562	0.560099
H220	H	1.605912	0.452562	0.810099
H221	H	1.084697	0.011047	0.583668
H222	H	1.334697	0.261047	0.833668
H223	H	1.584697	0.511047	1.083668
H224	H	1.834697	0.761047	1.333668
H225	H	0.993437	-0.457919	0.146271
H226	H	1.243437	-0.207919	0.396271
H227	H	1.493437	0.042081	0.646271
H228	H	1.743437	0.292081	0.896271
H229	H	1.084695	0.011050	0.416427
H230	H	1.334695	0.261050	0.666427
H231	H	1.584695	0.511050	0.916427
H232	H	1.834695	0.761050	1.166427
H233	H	0.879562	0.217582	0.583685
H234	H	1.129562	0.467582	0.833685
H235	H	1.379562	0.717582	1.083685
H236	H	1.629562	0.967582	1.333685
H237	H	0.879546	0.217586	0.416429
H238	H	1.129546	0.467586	0.666429
H239	H	1.379546	0.717586	0.916429
H240	H	1.629546	0.967586	1.166429
H241	H	1.092880	-0.471892	0.087550
H242	H	1.342880	-0.221892	0.337550
H243	H	1.592880	0.028108	0.587550
H244	H	1.842880	0.278108	0.837550
H245	H	0.997275	-0.314602	0.145921
H246	H	1.247275	-0.064602	0.395921
H247	H	1.497275	0.185398	0.645921
H248	H	1.747275	0.435398	0.895921
H249	H	0.998306	-0.460513	-0.146186
H250	H	1.248306	-0.210513	0.103814
H251	H	1.498306	0.039487	0.353814
H252	H	1.748306	0.289487	0.603814
H253	H	0.995224	-0.315779	-0.145772
H254	H	1.245224	-0.065779	0.104228
H255	H	1.495224	0.184221	0.354228
H256	H	1.745224	0.434221	0.604228
H257	H	1.095231	-0.327694	-0.088949
H258	H	1.345231	-0.077694	0.161051
H259	H	1.595231	0.172306	0.411051
H260	H	1.845231	0.422306	0.661051
H261	H	1.095050	-0.471762	-0.083356
H262	H	1.345050	-0.221762	0.166644
H263	H	1.595050	0.028238	0.416644
H264	H	1.845050	0.278238	0.666644
