data_functionalizedCrystal
_audit_creation_method	'MofGen! by Chris Wilmer'
_symmetry_space_group_name_H-M	'P1'
_symmetry_Int_Tables_number	1
_symmetry_cell_setting	triclinic
loop_
_symmetry_equiv_pos_as_xyz
  x,y,z
_cell_length_a	14.971486
_cell_length_b	15.072220
_cell_length_c	14.971486
_cell_angle_alpha	90.001330
_cell_angle_beta	83.614129
_cell_angle_gamma	90.007545
loop_
_atom_site_label
_atom_site_type_symbol
_atom_site_fract_x
_atom_site_fract_y
_atom_site_fract_z
O1	O	1.186956	0.073681	0.116557
O2	O	1.686956	0.573681	0.616557
O3	O	0.926556	0.073705	0.130516
O4	O	1.426556	0.573705	0.630516
O5	O	1.063735	0.073686	-0.006664
O6	O	1.563735	0.573686	0.493336
O7	O	1.049776	0.073700	0.253736
O8	O	1.549776	0.573700	0.753736
O9	O	1.063701	-0.073879	-0.006656
O10	O	1.563701	0.426121	0.493344
O11	O	0.926522	-0.073860	0.130523
O12	O	1.426522	0.426140	0.630523
O13	O	1.186922	-0.073884	0.116564
O14	O	1.686922	0.426116	0.616564
Zn15	Zn	1.056716	-0.097301	0.123545
Zn16	Zn	1.556716	0.402699	0.623545
Zn17	Zn	1.056761	0.097122	0.123535
Zn18	Zn	1.556761	0.597122	0.623535
O19	O	1.049742	-0.073865	0.253744
O20	O	1.549742	0.426135	0.753744
C21	C	0.893214	-0.000074	0.129895
C22	C	1.393214	0.499926	0.629895
C23	C	0.793917	-0.000065	0.128024
C24	C	1.293917	0.499935	0.628024
N25	N	1.056692	-0.229990	0.123551
N26	N	1.556692	0.270010	0.623551
C27	C	0.736691	-0.000062	0.208614
C28	C	1.236691	0.499938	0.708614
C29	C	0.643392	-0.000076	0.206850
C30	C	1.143392	0.499924	0.706850
C31	C	0.607320	-0.000086	0.124497
C32	C	1.107320	0.499914	0.624497
C33	C	0.664552	-0.000091	0.043902
C34	C	1.164552	0.499909	0.543902
C35	C	0.757850	-0.000084	0.045666
C36	C	1.257850	0.499916	0.545666
C37	C	0.470090	-0.000104	0.040231
C38	C	0.970090	0.499896	0.540231
C39	C	0.376786	-0.000109	0.038466
C40	C	0.876786	0.499891	0.538466
C41	C	0.355632	-0.000095	0.201415
C42	C	0.855632	0.499905	0.701415
C43	C	0.448930	-0.000088	0.203179
C44	C	0.948930	0.499912	0.703179
C45	C	0.506156	-0.000092	0.122584
C46	C	1.006156	0.499908	0.622584
C47	C	1.056759	-0.589192	0.123531
C48	C	1.556759	-0.089192	0.623531
C49	C	0.983110	-0.551574	0.196687
C50	C	1.483110	-0.051574	0.696687
C51	C	0.983279	-0.448749	0.196954
C52	C	1.483279	0.051251	0.696954
C53	C	1.056725	-0.410987	0.123541
C54	C	1.556725	0.089013	0.623541
C55	C	1.150075	-0.448286	0.144025
C56	C	1.650075	0.051714	0.644025
C57	C	1.149663	-0.551144	0.144545
C58	C	1.649663	-0.051144	0.644545
C59	C	1.037890	-0.551295	0.029676
C60	C	1.537890	-0.051295	0.529676
C61	C	1.035749	-0.448431	0.030300
C62	C	1.535749	0.051569	0.530300
C63	C	1.056712	-0.310274	0.123545
C64	C	1.556712	0.189726	0.623545
C65	C	1.056779	-0.689905	0.123530
C66	C	1.556779	-0.189905	0.623530
C67	C	1.220263	-0.000103	0.117185
C68	C	1.720263	0.499897	0.617185
C69	C	1.319561	-0.000106	0.119056
C70	C	1.819561	0.499894	0.619056
C71	C	1.063094	-0.000096	-0.039985
C72	C	1.563094	0.499904	0.460015
C73	C	1.061223	-0.000095	-0.139282
C74	C	1.561223	0.499905	0.360718
N75	N	1.056792	0.229811	0.123522
N76	N	1.556792	0.729811	0.623522
C77	C	1.141812	-0.000103	-0.196507
C78	C	1.641812	0.499897	0.303493
C79	C	1.140049	-0.000094	-0.289807
C80	C	1.640049	0.499906	0.210193
C81	C	1.057696	-0.000083	-0.325879
C82	C	1.557696	0.499917	0.174121
C83	C	0.977101	-0.000073	-0.268646
C84	C	1.477101	0.499927	0.231354
C85	C	0.978865	-0.000075	-0.175349
C86	C	1.478865	0.499925	0.324651
C87	C	0.973430	-0.000069	-0.463109
C88	C	1.473430	0.499931	0.036891
C89	C	0.971665	-0.000068	-0.556413
C90	C	1.471665	0.499932	-0.056413
C91	C	1.134614	-0.000088	-0.577567
C92	C	1.634614	0.499912	-0.077567
C93	C	1.136378	-0.000091	-0.484269
C94	C	1.636378	0.499909	0.015731
C95	C	1.055782	-0.000082	-0.427043
C96	C	1.555782	0.499918	0.072957
C97	C	1.050383	-0.000081	0.287065
C98	C	1.550383	0.499919	0.787065
C99	C	1.052254	-0.000076	0.386362
C100	C	1.552254	0.499924	0.886362
H101	H	0.766054	-0.000053	0.275675
H102	H	1.266054	0.499947	0.775675
F103	F	0.338397	-0.000143	-0.049183
F104	F	0.838397	0.499857	0.450817
F105	F	1.224028	-0.000100	-0.445880
F106	F	1.724028	0.499900	0.054120
F107	F	1.229465	-0.000124	-0.158125
F108	F	1.729465	0.499876	0.341875
H109	H	0.971292	-0.577280	0.010004
H110	H	1.471292	-0.077280	0.510004
F111	F	1.225824	-0.000105	-0.350707
F112	F	1.725824	0.499895	0.149293
H113	H	1.206193	-0.423825	0.092164
H114	H	1.706193	0.076175	0.592164
F115	F	0.892120	-0.583914	0.180967
F116	F	1.392120	-0.083914	0.680967
F117	F	0.818754	-0.000091	-0.040108
F118	F	1.318754	0.499909	0.459892
F119	F	1.220391	-0.000094	-0.638472
F120	F	1.720391	0.499906	-0.138472
F121	F	0.626159	-0.000108	-0.043745
F122	F	1.126159	0.499892	0.456255
F123	F	0.998664	-0.585329	0.287211
F124	F	1.498664	-0.085329	0.787211
F125	F	0.884016	-0.000057	-0.594802
F126	F	1.384016	0.499943	-0.094802
F127	F	0.999013	-0.416569	0.287996
F128	F	1.499013	0.083431	0.787996
F129	F	0.887650	-0.000057	-0.402206
F130	F	1.387650	0.499943	0.097794
F131	F	0.889454	-0.000051	-0.307040
F132	F	1.389454	0.499949	0.192960
H133	H	0.596802	-0.000072	0.272474
H134	H	1.096802	0.499928	0.772474
F135	F	0.487318	-0.000068	0.290829
F136	F	0.987318	0.499932	0.790829
F137	F	0.892575	-0.415786	0.181029
F138	F	1.392575	0.084214	0.681029
F139	F	1.101305	-0.414848	-0.044201
F140	F	1.601305	0.085152	0.455799
H141	H	0.913240	-0.000069	-0.128756
H142	H	1.413240	0.499931	0.371244
F143	F	1.172307	-0.414603	0.232477
F144	F	1.672307	0.085397	0.732477
F145	F	0.294727	-0.000092	0.287192
F146	F	0.794727	0.499908	0.787192
F147	F	0.945992	-0.416570	0.009981
F148	F	1.445992	0.083430	0.509981
H149	H	0.516682	-0.000108	-0.025399
H150	H	1.016682	0.499892	0.474601
F151	F	1.171376	-0.582490	0.234016
F152	F	1.671376	-0.082490	0.734016
H153	H	1.206184	-0.576026	0.093369
H154	H	1.706184	-0.076026	0.593369
F155	F	1.108088	-0.583090	-0.041483
F156	F	1.608088	-0.083090	0.458517
