data_functionalizedCrystal
_audit_creation_method	'MofGen! by Chris Wilmer'
_symmetry_space_group_name_H-M	'P1'
_symmetry_Int_Tables_number	1
_symmetry_cell_setting	triclinic
loop_
_symmetry_equiv_pos_as_xyz
  x,y,z
_cell_length_a	10.686220
_cell_length_b	25.639239
_cell_length_c	10.686551
_cell_angle_alpha	85.590528
_cell_angle_beta	90.308082
_cell_angle_gamma	94.420676
loop_
_atom_site_label
_atom_site_type_symbol
_atom_site_fract_x
_atom_site_fract_y
_atom_site_fract_z
Zn1	Zn	1.972159	-0.127472	-0.562366
Zn2	Zn	2.472159	0.372528	-0.062366
Zn3	Zn	1.955834	-0.222109	-0.352592
Zn4	Zn	2.455834	0.277891	0.147408
Zn5	Zn	1.746264	-0.140848	-0.368681
Zn6	Zn	2.246264	0.359152	0.131319
Zn7	Zn	1.762265	-0.221050	-0.578370
Zn8	Zn	2.262265	0.278950	-0.078370
O9	O	1.859130	-0.177870	-0.465502
O10	O	2.359130	0.322130	0.034498
O11	O	2.145540	-0.134872	-0.521108
O12	O	2.645540	0.365128	-0.021108
O13	O	1.914505	-0.217371	-0.179180
O14	O	2.414505	0.282629	0.320820
O15	O	1.776365	-0.065903	-0.394409
O16	O	2.276365	0.434097	0.105591
O17	O	2.133546	-0.204401	-0.366988
O18	O	2.633546	0.295599	0.133012
O19	O	1.942329	-0.056076	-0.536709
O20	O	2.442329	0.443924	-0.036709
O21	O	1.760535	-0.157668	-0.191000
O22	O	2.260535	0.342332	0.309000
O23	O	1.572839	-0.156641	-0.409928
O24	O	2.072839	0.343359	0.090072
O25	O	1.803636	-0.202595	-0.751793
O26	O	2.303636	0.297405	-0.251793
O27	O	1.584595	-0.215565	-0.563985
O28	O	2.084595	0.284435	-0.063985
O29	O	1.957844	-0.133844	-0.740035
O30	O	2.457844	0.366156	-0.240035
O31	O	1.930021	-0.295139	-0.382506
O32	O	2.430021	0.204861	0.117494
O33	O	1.787807	-0.294361	-0.548384
O34	O	2.287807	0.205639	-0.048384
C35	C	1.533200	-0.187440	-0.490440
C36	C	2.033200	0.312560	0.009560
C37	C	1.393768	-0.191545	-0.501138
C38	C	1.893768	0.308455	-0.001138
C39	C	1.858915	-0.313720	-0.465461
C40	C	2.358915	0.186280	0.034539
C41	C	1.858941	-0.371833	-0.465476
C42	C	2.358941	0.128167	0.034524
C43	C	1.933401	-0.732571	-0.379250
C44	C	2.433401	-0.232571	0.120750
C45	C	1.933451	-0.787174	-0.379263
C46	C	2.433451	-0.287174	0.120737
O47	O	1.996536	-0.815738	-0.305904
O48	O	2.496536	-0.315738	0.194096
N49	N	1.859357	-0.814099	-0.465568
N50	N	2.359357	-0.314099	0.034432
C51	C	1.785218	-0.786419	-0.551874
C52	C	2.285218	-0.286419	-0.051874
O53	O	1.722201	-0.814336	-0.625286
O54	O	2.222201	-0.314336	-0.125286
C55	C	1.785176	-0.731818	-0.551866
C56	C	2.285176	-0.231818	-0.051866
C57	C	1.859265	-0.704895	-0.465547
C58	C	2.359265	-0.204895	0.034453
C59	C	2.007485	-0.705649	-0.292939
C60	C	2.507485	-0.205649	0.207061
C61	C	2.007433	-0.651050	-0.292925
C62	C	2.507433	-0.151050	0.207075
C63	C	1.933297	-0.623374	-0.379222
C64	C	2.433297	-0.123374	0.120778
C65	C	1.859213	-0.650297	-0.465533
C66	C	2.359213	-0.150297	0.034467
C67	C	1.711045	-0.704138	-0.638177
C68	C	2.211045	-0.204138	-0.138177
C69	C	1.711010	-0.649533	-0.638162
C70	C	2.211010	-0.149533	-0.138162
C71	C	1.785099	-0.622611	-0.551843
C72	C	2.285099	-0.122611	-0.051843
C73	C	1.785025	-0.568023	-0.551816
C74	C	2.285025	-0.068023	-0.051816
N75	N	1.859119	-0.541097	-0.465510
N76	N	2.359119	-0.041097	0.034490
C77	C	1.933255	-0.568773	-0.379213
C78	C	2.433255	-0.068773	0.120787
C79	C	1.785314	-0.901087	-0.551887
C80	C	2.285314	-0.401087	-0.051887
C81	C	1.785349	-0.955688	-0.551890
C82	C	2.285349	-0.455688	-0.051890
C83	C	1.933583	-0.956438	-0.379280
C84	C	2.433583	-0.456438	0.120720
C85	C	1.933541	-0.901836	-0.379272
C86	C	2.433541	-0.401836	0.120728
C87	C	1.859408	-0.874161	-0.465581
C88	C	2.359408	-0.374161	0.034419
C89	C	1.933139	-0.454112	-0.379189
C90	C	2.433139	0.045888	0.120811
C91	C	1.933077	-0.399509	-0.379179
C92	C	2.433077	0.100491	0.120821
C93	C	1.784847	-0.398763	-0.551793
C94	C	2.284847	0.101237	-0.051793
C95	C	1.784904	-0.453362	-0.551799
C96	C	2.284904	0.046638	-0.051799
C97	C	1.859060	-0.481035	-0.465493
C98	C	2.359060	0.018965	0.034507
O99	O	1.721976	-0.539424	-0.625140
O100	O	2.221976	-0.039424	-0.125140
O101	O	1.996274	-0.540849	-0.305825
O102	O	2.496274	-0.040849	0.194175
C103	C	2.186333	-0.168263	-0.440468
C104	C	2.686333	0.331737	0.059532
C105	C	2.325768	-0.164169	-0.429800
C106	C	2.825768	0.335831	0.070200
C107	C	1.884346	-0.166610	-0.792704
C108	C	2.384346	0.333390	-0.292704
C109	C	1.895092	-0.161811	-0.932138
C110	C	2.395092	0.338189	-0.432138
C111	C	1.859383	-0.041486	-0.465568
C112	C	2.359383	0.458514	0.034432
C113	C	1.859490	0.016632	-0.465597
C114	C	2.359490	0.516632	0.034403
C115	C	1.834084	-0.189046	-0.139567
C116	C	2.334084	0.310954	0.360433
C117	C	1.823582	-0.193690	-0.000116
C118	C	2.323582	0.306310	0.499884
H119	H	1.374220	-0.137590	-0.360538
H120	H	1.874220	0.362410	0.139462
F121	F	1.330434	-0.226294	-0.591663
F122	F	1.830434	0.273706	-0.091663
F123	F	1.732817	-0.234164	-0.936761
F124	F	2.232817	0.265836	-0.436761
F125	F	2.011935	-0.370859	-0.287302
F126	F	2.511935	0.129141	0.212698
H127	H	1.993527	-0.476637	-0.308913
H128	H	2.493527	0.023363	0.191087
F129	F	1.632199	-0.732779	-0.730061
F130	F	2.132199	-0.232779	-0.230061
H131	H	2.067766	-0.629133	-0.222640
H132	H	2.567766	-0.129133	0.277360
F133	F	2.086400	-0.735095	-0.201084
F134	F	2.586400	-0.235095	0.298916
H135	H	1.650643	-0.627002	-0.708450
H136	H	2.150643	-0.127002	-0.208450
H137	H	1.993871	-0.879919	-0.308984
H138	H	2.493871	-0.379919	0.191016
F139	F	2.012484	-0.985902	-0.287432
F140	F	2.512484	-0.485902	0.212568
H141	H	1.725005	-0.977604	-0.622169
H142	H	2.225005	-0.477604	-0.122169
H143	H	1.964545	-0.130848	-0.980617
H144	H	2.464545	0.369152	-0.480617
H145	H	1.724579	-0.475283	-0.622091
H146	H	2.224579	0.024717	-0.122091
F147	F	1.706397	-0.871637	-0.643748
F148	F	2.206397	-0.371637	-0.143748
H149	H	1.724483	-0.376221	-0.622052
H150	H	2.224483	0.123779	-0.122052
