data_functionalizedCrystal
_audit_creation_method	'MofGen! by Chris Wilmer'
_symmetry_space_group_name_H-M	'P1'
_symmetry_Int_Tables_number	1
_symmetry_cell_setting	triclinic
loop_
_symmetry_equiv_pos_as_xyz
  x,y,z
_cell_length_a	21.395362
_cell_length_b	14.908520
_cell_length_c	21.395355
_cell_angle_alpha	93.280325
_cell_angle_beta	89.956060
_cell_angle_gamma	93.337688
loop_
_atom_site_label
_atom_site_type_symbol
_atom_site_fract_x
_atom_site_fract_y
_atom_site_fract_z
Zn1	Zn	0.943513	-0.358891	-0.368965
Zn2	Zn	0.937386	-0.509736	-0.270231
Zn3	Zn	0.838727	-0.358933	-0.264168
Zn4	Zn	0.832667	-0.509755	-0.374937
O5	O	0.888073	-0.434329	-0.319575
O6	O	1.030380	-0.378876	-0.355906
O7	O	0.924270	-0.489742	-0.181749
O8	O	0.857727	-0.232679	-0.273033
O9	O	1.025878	-0.489701	-0.283367
O10	O	0.934713	-0.232649	-0.350027
O11	O	0.851786	-0.378948	-0.177295
O12	O	0.750244	-0.378966	-0.278823
O13	O	0.847399	-0.489733	-0.461822
O14	O	0.745792	-0.489773	-0.360205
O15	O	0.928838	-0.378894	-0.457435
O16	O	0.918395	-0.635987	-0.289157
O17	O	0.841458	-0.636001	-0.366084
C18	C	0.725284	-0.434377	-0.319504
C19	C	0.655641	-0.434419	-0.319490
C20	C	0.620623	-0.492193	-0.361808
C21	C	0.555188	-0.492171	-0.361835
C22	C	0.524774	-0.434384	-0.319533
C23	C	0.559800	-0.376599	-0.277212
C24	C	0.625234	-0.376616	-0.277190
C25	C	0.421340	-0.427116	-0.262837
C26	C	0.355907	-0.427105	-0.262858
C27	C	0.322956	-0.434325	-0.319600
C28	C	0.355444	-0.441575	-0.376324
C29	C	0.420877	-0.441593	-0.376302
C30	C	0.453823	-0.434358	-0.319552
C31	C	0.216986	-0.492079	-0.361951
C32	C	0.151550	-0.492050	-0.361979
C33	C	0.156163	-0.376483	-0.277350
C34	C	0.221598	-0.376506	-0.277327
C35	C	0.252005	-0.434309	-0.319627
C36	C	0.878621	-0.668729	-0.328940
C37	C	0.874634	-0.769006	-0.332968
C38	C	0.947340	-0.957362	-0.260497
C39	C	0.943596	-1.051582	-0.264279
C40	C	0.863407	-1.051666	-0.344317
C41	C	0.867151	-0.957446	-0.340535
C42	C	0.909118	-0.910298	-0.298623
C43	C	0.912858	-0.816077	-0.294838
C44	C	0.832672	-0.816163	-0.374879
C45	C	0.828929	-0.910382	-0.378661
C46	C	1.051498	-0.434282	-0.319647
C47	C	1.121141	-0.434262	-0.319677
C48	C	0.888126	-0.434311	-0.482998
C49	C	0.888148	-0.434303	-0.552639
C50	C	0.897580	-0.199014	-0.310187
C51	C	0.901631	-0.098737	-0.306187
C52	C	0.930552	-0.376587	-0.583068
C53	C	0.930553	-0.376548	-0.648502
C54	C	0.888156	-0.434242	-0.683505
C55	C	0.845745	-0.491962	-0.653068
C56	C	0.845741	-0.491992	-0.587635
C57	C	0.879933	-0.515477	-0.790423
C58	C	0.879941	-0.515447	-0.855855
C59	C	0.888164	-0.434146	-0.885322
C60	C	0.896392	-0.352872	-0.849348
C61	C	0.896388	-0.352902	-0.783915
C62	C	0.888155	-0.434214	-0.754456
C63	C	0.930570	-0.376383	-0.986702
C64	C	0.930566	-0.376343	-1.052137
C65	C	0.845761	-0.491764	-1.056701
C66	C	0.845762	-0.491797	-0.991267
C67	C	0.888170	-0.434107	-0.956272
C68	C	0.888059	-0.434282	-0.156786
C69	C	0.888169	-0.434036	-0.087135
H70	H	0.526671	-0.539217	-0.396298
H71	H	0.448164	-0.421233	-0.216627
Cl72	Cl	0.117934	-0.303830	-0.224173
H73	H	0.447326	-0.447493	-0.422489
H74	H	0.250110	-0.329465	-0.242864
H75	H	0.123040	-0.539095	-0.396443
Cl76	Cl	0.991650	-1.110745	-0.216348
H77	H	0.873245	-0.581626	-0.885140
Cl78	Cl	0.521566	-0.303948	-0.224035
Cl79	Cl	0.792454	-0.564362	-0.953011
Cl80	Cl	0.810662	-1.110953	-0.397010
H81	H	0.965083	-0.329610	-0.554579
Cl82	Cl	1.000087	-0.898087	-0.207799
Cl83	Cl	0.906732	-0.250657	-0.886384
H84	H	0.794762	-0.948783	-0.412786
H85	H	0.801547	-0.777832	-0.405921
H86	H	0.965095	-0.329338	-1.076911
Cl87	Cl	0.965613	-0.756806	-0.242147
H88	H	0.965081	-0.329544	-0.673283
Cl89	Cl	0.983878	-0.303856	-0.942704
Cl90	Cl	0.792456	-0.564286	-1.100698
Cl91	Cl	0.869613	-0.617696	-0.753387
H92	H	0.903086	-0.286726	-0.754629
Cl93	Cl	0.792444	-0.564487	-0.697070
Cl94	Cl	0.255215	-0.564737	-0.415131
H95	H	0.811208	-0.538991	-0.562859
Cl96	Cl	0.314027	-0.450647	-0.447663
Cl97	Cl	0.669259	-0.303980	-0.223985
Cl98	Cl	0.658846	-0.564855	-0.414988
H99	H	0.329460	-0.421207	-0.216670
