data_functionalizedCrystal
_audit_creation_method	'MofGen! by Chris Wilmer'
_symmetry_space_group_name_H-M	'P1'
_symmetry_Int_Tables_number	1
_symmetry_cell_setting	triclinic
loop_
_symmetry_equiv_pos_as_xyz
  x,y,z
_cell_length_a	10.654550
_cell_length_b	9.730217
_cell_length_c	10.654558
_cell_angle_alpha	89.992655
_cell_angle_beta	95.513438
_cell_angle_gamma	90.004938
loop_
_atom_site_label
_atom_site_type_symbol
_atom_site_fract_x
_atom_site_fract_y
_atom_site_fract_z
O1	O	1.667841	0.114417	-0.176396
O2	O	1.302363	0.114396	-0.193202
O3	O	1.493500	0.114384	-0.002060
O4	O	1.476704	0.114429	-0.367537
O5	O	1.493494	-0.114196	-0.002059
O6	O	1.302357	-0.114184	-0.193200
O7	O	1.667835	-0.114163	-0.176394
Zn8	Zn	1.485095	-0.150465	-0.184797
Zn9	Zn	1.485103	0.150699	-0.184799
O10	O	1.476698	-0.114151	-0.367536
C11	C	1.255562	0.000103	-0.191967
C12	C	1.116119	0.000094	-0.188275
N13	N	1.485099	-0.356002	-0.184795
C14	C	1.036636	0.000128	-0.300816
C15	C	0.905615	0.000152	-0.297340
C16	C	0.933572	0.000113	-0.068771
C17	C	1.064590	0.000079	-0.072249
C18	C	1.020494	0.000157	-0.432779
C19	C	0.889474	0.000180	-0.429302
C20	C	1.654420	-0.356004	-0.015588
C21	C	1.739089	-0.427945	0.069011
C22	C	1.739102	-0.571824	0.069012
C23	C	1.654434	-0.643767	-0.015594
C24	C	1.569765	-0.571826	-0.100193
C25	C	1.569764	-0.427943	-0.100187
C26	C	1.400440	-0.571824	-0.269391
C27	C	1.400431	-0.427944	-0.269400
C28	C	1.315772	-0.643766	-0.353996
C29	C	1.231107	-0.571826	-0.438604
C30	C	1.231098	-0.427937	-0.438602
C31	C	1.315762	-0.356004	-0.353999
C32	C	1.714636	0.000133	-0.177629
C33	C	1.854079	0.000151	-0.181321
C34	C	1.492261	0.000091	0.044738
C35	C	1.488565	0.000081	0.184181
N36	N	1.485109	0.356235	-0.184792
C37	C	1.369077	0.000095	0.366743
C38	C	1.372549	0.000084	0.235721
C39	C	1.601118	0.000103	0.263670
C40	C	1.597645	0.000123	0.394689
C41	C	1.237114	0.000078	0.350606
C42	C	1.240586	0.000068	0.219584
C43	C	1.477934	0.000133	0.585665
C44	C	1.481620	0.000112	0.446221
H45	H	1.129301	0.000032	0.019393
Br46	Br	1.157720	-0.159380	0.150018
Br47	Br	1.079943	0.164650	-0.502807
Br48	Br	0.813336	-0.164284	-0.495769
Br49	Br	1.750388	0.000177	0.502551
Br50	Br	1.758572	0.000123	0.193725
Br51	Br	1.167076	-0.164411	0.410048
H52	H	0.891601	0.000122	0.025694
H53	H	1.808023	-0.369357	0.137899
Br54	Br	1.854001	-0.669462	0.183836
H55	H	0.847745	0.095854	-0.479024
Br56	Br	1.654432	-0.160737	-0.015601
Br57	Br	1.654430	-0.839033	-0.015573
Br58	Br	1.315775	-0.839033	-0.353991
H59	H	1.049825	-0.095502	-0.484388
H60	H	1.200714	0.098758	0.173918
H61	H	1.162171	-0.630410	-0.507478
H62	H	1.162146	-0.369371	-0.507488
Br63	Br	1.315766	-0.160737	-0.353997
Br64	Br	1.151096	0.159507	0.399514
