data_functionalizedCrystal
_audit_creation_method	'MofGen! by Chris Wilmer'
_symmetry_space_group_name_H-M	'P1'
_symmetry_Int_Tables_number	1
_symmetry_cell_setting	triclinic
loop_
_symmetry_equiv_pos_as_xyz
  x,y,z
_cell_length_a	19.288867
_cell_length_b	15.712078
_cell_length_c	17.766277
_cell_angle_alpha	89.997346
_cell_angle_beta	89.992126
_cell_angle_gamma	101.359109
loop_
_atom_site_label
_atom_site_type_symbol
_atom_site_fract_x
_atom_site_fract_y
_atom_site_fract_z
O1	O	0.948991	0.107730	-0.062566
O2	O	0.750459	0.122260	-0.062573
O3	O	0.823313	-0.010730	-0.062567
O4	O	0.876137	0.240720	-0.062572
O5	O	0.823293	-0.010737	0.062622
O6	O	0.750438	0.122253	0.062616
O7	O	0.948971	0.107723	0.062623
Cu8	Cu	0.849703	0.114987	0.074050
Cu9	Cu	0.849727	0.114995	-0.074000
O10	O	0.876116	0.240713	0.062616
C11	C	0.724452	0.121788	0.000020
C12	C	0.646988	0.120384	0.000018
C13	C	0.088839	0.110273	-0.068214
C14	C	0.161623	0.111587	-0.068216
C15	C	0.198011	0.112245	0.000024
C16	C	0.161604	0.111566	0.068272
C17	C	0.088819	0.110243	0.068272
C18	C	0.320843	0.164913	0.052303
C19	C	0.393627	0.166242	0.052299
C20	C	0.422502	0.116321	0.000024
C21	C	0.378586	0.065084	-0.052261
C22	C	0.305801	0.063761	-0.052260
C23	C	0.276933	0.113679	0.000030
C24	C	0.537821	0.118419	-0.068223
C25	C	0.610606	0.119728	-0.068223
C26	C	0.610586	0.119715	0.068267
C27	C	0.537801	0.118398	0.068265
C28	C	0.501423	0.117754	0.000018
C29	C	0.814674	-0.042903	0.000027
C30	C	0.788952	-0.138759	0.000024
C31	C	1.007334	-0.506703	0.000024
C32	C	0.983149	-0.596771	0.000024
C33	C	0.861962	-0.575684	0.000019
C34	C	0.886138	-0.485613	0.000023
C35	C	0.958824	-0.451130	0.000025
C36	C	0.837628	-0.430039	0.000024
C37	C	0.861801	-0.339976	0.000024
C38	C	0.934485	-0.305486	0.000024
C39	C	0.982998	-0.361066	0.000025
C40	C	0.764941	-0.464524	0.000017
C41	C	0.716431	-0.408951	0.000018
C42	C	0.740605	-0.318885	0.000023
C43	C	0.813288	-0.284395	0.000023
C44	C	0.692092	-0.263305	0.000022
C45	C	0.716265	-0.173241	0.000022
C46	C	0.837462	-0.194332	0.000023
C47	C	0.974977	0.108194	0.000028
C48	C	1.052441	0.109599	0.000025
C49	C	0.884756	0.272886	0.000021
C50	C	0.910477	0.368741	0.000019
N51	N	0.849690	0.114981	0.178180
N52	N	0.849743	0.114995	-0.178130
C53	C	0.881973	0.056122	0.217570
C54	C	0.881976	0.056118	0.296372
C55	C	0.849707	0.114988	0.335781
C56	C	0.817416	0.173852	0.296381
C57	C	0.817408	0.173848	0.217581
C58	C	0.860594	0.193667	0.460617
C59	C	0.860607	0.193672	0.539415
C60	C	0.849728	0.114999	0.578827
C61	C	0.838849	0.036317	0.539430
C62	C	0.838841	0.036314	0.460630
C63	C	0.849712	0.114998	0.421226
C64	C	0.882015	0.056130	0.703663
C65	C	0.882013	0.056125	0.782466
C66	C	0.817459	0.173866	0.782474
C67	C	0.817456	0.173864	0.703672
C68	C	0.849738	0.114997	0.664271
H69	H	0.270047	0.022040	-0.094831
H70	H	0.791119	0.221780	0.185509
H71	H	0.802781	-0.603773	0.000015
F72	F	0.960213	-0.209631	0.000020
F73	F	0.614736	-0.300016	0.000007
F74	F	0.290118	0.218041	0.107952
F75	F	0.649342	0.120437	-0.140856
F76	F	0.499102	0.117729	-0.140856
F77	F	0.200330	0.112262	0.140897
F78	F	1.060360	-0.324362	0.000048
F79	F	0.914824	-0.157628	0.000046
F80	F	0.649306	0.120404	0.140894
H81	H	0.059185	0.109697	0.123843
F82	F	1.034786	-0.655915	0.000019
H83	H	0.869442	0.257737	0.428534
F84	F	0.739215	-0.560379	0.000064
F85	F	0.639075	-0.445660	0.000010
F86	F	0.409311	0.011953	-0.107904
F87	F	0.827258	-0.047422	0.418703
H88	H	0.908298	0.008190	0.814538
H89	H	0.829990	-0.027746	0.571517
H90	H	1.066523	-0.478626	0.000033
F91	F	0.872190	0.277410	0.581337
H92	H	0.676763	-0.127992	0.000024
H93	H	0.791181	0.221796	0.814560
H94	H	0.908257	0.008187	0.185492
F95	F	0.916338	-0.006531	0.338300
F96	F	0.499064	0.117692	0.140895
H97	H	0.429381	0.207983	0.094857
H98	H	0.908299	0.008194	0.671581
H99	H	0.791172	0.221796	0.671599
H100	H	0.059224	0.109745	-0.123786
F101	F	0.200368	0.112306	-0.140849
H102	H	0.791141	0.221783	0.328472
