data_functionalizedCrystal
_audit_creation_method	'MofGen! by Chris Wilmer'
_symmetry_space_group_name_H-M	'P1'
_symmetry_Int_Tables_number	1
_symmetry_cell_setting	triclinic
loop_
_symmetry_equiv_pos_as_xyz
  x,y,z
_cell_length_a	16.974885
_cell_length_b	16.974813
_cell_length_c	18.366186
_cell_angle_alpha	86.339196
_cell_angle_beta	93.642976
_cell_angle_gamma	83.628230
loop_
_atom_site_label
_atom_site_type_symbol
_atom_site_fract_x
_atom_site_fract_y
_atom_site_fract_z
O1	O	1.049025	0.100749	-0.004727
O2	O	0.818809	0.113592	-0.019038
O3	O	0.940334	-0.007940	-0.004719
O4	O	0.927500	0.222281	-0.019047
O5	O	0.940314	-0.007946	0.116380
O6	O	0.818788	0.113586	0.102060
O7	O	1.049005	0.100743	0.116371
Zn8	Zn	0.933893	0.107164	0.128443
Zn9	Zn	0.933920	0.107171	-0.031110
O10	O	0.927479	0.222275	0.102052
C11	C	0.789341	0.113101	0.039805
C12	C	0.701568	0.111640	0.034723
C13	C	0.207500	0.103385	-0.001015
C14	C	0.289973	0.104759	0.003769
C15	C	0.331189	0.105448	0.072173
C16	C	0.289930	0.104756	0.135796
C17	C	0.207459	0.103377	0.131011
C18	C	0.577838	0.109568	0.093562
C19	C	0.660314	0.110950	0.098342
C20	C	0.660351	0.110951	-0.033685
C21	C	0.577879	0.109577	-0.038465
C22	C	0.536627	0.108880	0.025159
N23	N	0.415489	0.106855	0.077065
N24	N	0.452329	0.107468	0.020267
C25	C	0.939836	-0.037401	0.057537
C26	C	0.938371	-0.125177	0.062621
C27	C	0.937695	-0.166406	-0.001001
C28	C	0.936314	-0.248879	0.003778
C29	C	0.935613	-0.290123	0.072179
C30	C	0.936286	-0.248888	0.135806
C31	C	0.937662	-0.166415	0.131026
C32	C	0.931492	-0.536780	0.093553
C33	C	0.930118	-0.619259	0.098328
C34	C	0.930145	-0.619245	-0.033701
C35	C	0.931525	-0.536771	-0.038474
C36	C	0.932194	-0.495543	0.025152
N37	N	0.934204	-0.374425	0.077066
N38	N	0.933598	-0.411242	0.020264
C39	C	1.078472	0.101233	0.057526
C40	C	1.166246	0.102695	0.062603
C41	C	0.927978	0.251736	0.039794
C42	C	0.929443	0.339512	0.034706
N43	N	0.933880	0.107158	0.237333
N44	N	0.933940	0.107171	-0.140000
C45	C	0.987710	0.053370	0.281774
C46	C	0.987715	0.053366	0.358002
C47	C	0.933898	0.107164	0.389787
C48	C	0.880059	0.160956	0.345336
C49	C	0.880050	0.160953	0.269109
C50	C	0.923461	0.179188	0.505687
C51	C	0.923475	0.179192	0.581912
C52	C	0.933920	0.107174	0.624895
C53	C	0.944368	0.035148	0.591644
C54	C	0.944360	0.035145	0.515418
C55	C	0.933901	0.107173	0.472441
C56	C	0.987758	0.053378	0.751992
C57	C	0.987757	0.053373	0.828221
C58	C	0.880106	0.160970	0.815553
C59	C	0.880102	0.160968	0.739325
C60	C	0.933933	0.107173	0.707549
H61	H	0.544326	0.109014	-0.094166
N62	N	0.704852	0.111690	-0.102300
H63	H	0.696972	0.062457	-0.128717
H64	H	0.684024	0.160472	-0.135212
N65	N	0.932283	-0.492289	-0.112250
H66	H	0.931646	-0.530923	-0.151831
H67	H	0.883863	-0.451605	-0.120375
N68	N	0.912203	0.256874	0.617770
H69	H	0.863263	0.258619	0.646425
H70	H	0.960259	0.261502	0.651898
H71	H	0.929599	-0.652822	-0.085502
H72	H	0.914941	0.237838	0.470694
H73	H	0.323495	0.105312	0.191492
H74	H	0.693869	0.111517	0.154047
H75	H	0.938201	-0.132845	0.182833
N76	N	0.935625	-0.293314	-0.064864
H77	H	0.886073	-0.321077	-0.069138
H78	H	0.936325	-0.254593	-0.108853
N79	N	0.929365	-0.663747	0.172107
H80	H	0.929996	-0.625115	0.211689
H81	H	0.879804	-0.691506	0.173696
N82	N	0.935536	-0.293370	0.209583
H83	H	0.984762	-0.285476	0.240872
H84	H	0.886749	-0.272536	0.234286
H85	H	0.836239	0.204758	0.371219
H86	H	0.952873	-0.023496	0.626640
H87	H	0.932052	-0.503224	0.145363
H88	H	0.836273	0.204771	0.703139
N89	N	1.045764	-0.004652	0.247501
H90	H	1.079865	-0.038729	0.287226
H91	H	1.015532	-0.039596	0.216167
N92	N	1.045773	-0.004652	0.405948
H93	H	1.079871	-0.038732	0.374251
H94	H	1.080691	0.025609	0.437834
H95	H	0.544262	0.108989	0.145370
H96	H	0.323559	0.105316	-0.048036
N97	N	0.162963	0.102627	0.199629
H98	H	0.201659	0.102712	0.243724
H99	H	0.122659	0.151333	0.197481
N100	N	0.163052	0.102633	-0.074795
H101	H	0.104547	0.101654	-0.068175
H102	H	0.171012	0.151864	-0.106060
H103	H	0.938270	-0.132832	-0.056701
H104	H	0.952864	-0.023501	0.488348
H105	H	0.836215	0.204754	0.232924
N106	N	1.045812	-0.004642	0.717712
H107	H	1.079910	-0.038723	0.757435
H108	H	1.015580	-0.039582	0.686373
H109	H	1.031589	0.009568	0.864406
N110	N	0.822053	0.218991	0.849823
H111	H	0.830224	0.210831	0.904857
H112	H	0.831119	0.275081	0.833720
