data_functionalizedCrystal
_audit_creation_method	'MofGen! by Chris Wilmer'
_symmetry_space_group_name_H-M	'P1'
_symmetry_Int_Tables_number	1
_symmetry_cell_setting	triclinic
loop_
_symmetry_equiv_pos_as_xyz
  x,y,z
_cell_length_a	19.805407
_cell_length_b	25.639240
_cell_length_c	25.639234
_cell_angle_alpha	89.971713
_cell_angle_beta	89.989828
_cell_angle_gamma	90.030074
loop_
_atom_site_label
_atom_site_type_symbol
_atom_site_fract_x
_atom_site_fract_y
_atom_site_fract_z
Zn1	Zn	1.034655	-0.208240	-0.295582
Zn2	Zn	1.534655	0.291760	0.204418
Zn3	Zn	1.034572	-0.295662	-0.208136
Zn4	Zn	1.534572	0.204338	0.291864
Zn5	Zn	0.921485	-0.208238	-0.208161
Zn6	Zn	1.421485	0.291762	0.291839
Zn7	Zn	0.921420	-0.295642	-0.295540
Zn8	Zn	1.421420	0.204358	0.204460
O9	O	0.978033	-0.251945	-0.251855
O10	O	1.478033	0.248055	0.248145
O11	O	1.129360	-0.219845	-0.283989
O12	O	1.629360	0.280155	0.216011
O13	O	1.019563	-0.284073	-0.134974
O14	O	1.519563	0.215927	0.365026
O15	O	0.936558	-0.135073	-0.219786
O16	O	1.436558	0.364927	0.280214
O17	O	1.129300	-0.284074	-0.219743
O18	O	1.629300	0.215926	0.280257
O19	O	1.019704	-0.135074	-0.284014
O20	O	1.519704	0.364926	0.215986
O21	O	0.936478	-0.219843	-0.134992
O22	O	1.436478	0.280157	0.365008
O23	O	0.826759	-0.219824	-0.219745
O24	O	1.326759	0.280176	0.280255
O25	O	0.936449	-0.284040	-0.368711
O26	O	1.436449	0.215960	0.131289
O27	O	0.826712	-0.284039	-0.283942
O28	O	1.326712	0.215961	0.216058
O29	O	1.019642	-0.219826	-0.368742
O30	O	1.519642	0.280174	0.131258
O31	O	1.019501	-0.368825	-0.219702
O32	O	1.519501	0.131175	0.280298
O33	O	0.936369	-0.368810	-0.283918
O34	O	1.436369	0.131190	0.216082
C35	C	0.802177	-0.251929	-0.251842
C36	C	1.302177	0.248071	0.248158
C37	C	0.726945	-0.251935	-0.251849
C38	C	1.226945	0.248065	0.248151
C39	C	0.691633	-0.218550	-0.285353
C40	C	1.191633	0.281450	0.214647
C41	C	0.620945	-0.218553	-0.285355
C42	C	1.120945	0.281447	0.214645
C43	C	0.585569	-0.251943	-0.251855
C44	C	1.085569	0.248057	0.248145
C45	C	0.620886	-0.285329	-0.218348
C46	C	1.120886	0.214671	0.281652
C47	C	0.691573	-0.285324	-0.218343
C48	C	1.191573	0.214676	0.281657
C49	C	0.335813	-0.285353	-0.218364
C50	C	0.835813	0.214647	0.281636
C51	C	0.265121	-0.285357	-0.218372
C52	C	0.765121	0.214643	0.281628
C53	C	0.265184	-0.218582	-0.285376
C54	C	0.765184	0.281418	0.214624
C55	C	0.335871	-0.218576	-0.285371
C56	C	0.835871	0.281424	0.214629
C57	C	0.371182	-0.251960	-0.251862
C58	C	0.871182	0.248040	0.248138
C59	C	0.447830	-0.251956	-0.251859
C60	C	0.947830	0.248044	0.248141
C61	C	0.508922	-0.251950	-0.251860
C62	C	1.008922	0.248050	0.248140
C63	C	0.977937	-0.387788	-0.251814
C64	C	1.477937	0.112212	0.248186
C65	C	0.977958	-0.445902	-0.251814
C66	C	1.477958	0.054098	0.248186
C67	C	1.021348	-0.806227	-0.285359
C68	C	1.521348	-0.306227	0.214641
C69	C	1.021368	-0.860831	-0.285369
C70	C	1.521368	-0.360831	0.214631
O71	O	1.058146	-0.889036	-0.313848
O72	O	1.558146	-0.389036	0.186152
N73	N	0.978127	-0.888185	-0.251905
N74	N	1.478127	-0.388185	0.248095
C75	C	0.934858	-0.860930	-0.218432
C76	C	1.434858	-0.360930	0.281568
O77	O	0.898079	-0.889210	-0.189970
O78	O	1.398079	-0.389210	0.310030
C79	C	0.934835	-0.806327	-0.218425
C80	C	1.434835	-0.306327	0.281575
C81	C	0.978084	-0.778977	-0.251887
C82	C	1.478084	-0.278977	0.248113
C83	C	1.064594	-0.778877	-0.318819
C84	C	1.564594	-0.278877	0.181181
C85	C	1.064574	-0.724276	-0.318807
C86	C	1.564574	-0.224276	0.181193
C87	C	1.021310	-0.697026	-0.285336
C88	C	1.521310	-0.197026	0.214664
C89	C	0.978065	-0.724376	-0.251876
C90	C	1.478065	-0.224376	0.248124
C91	C	0.891563	-0.779074	-0.184955
C92	C	1.391563	-0.279074	0.315045
C93	C	0.891543	-0.724467	-0.184950
C94	C	1.391543	-0.224467	0.315050
C95	C	0.934792	-0.697117	-0.218413
C96	C	1.434792	-0.197117	0.281587
C97	C	0.934781	-0.642526	-0.218393
C98	C	1.434781	-0.142526	0.281607
N99	N	0.978023	-0.615173	-0.251857
N100	N	1.478023	-0.115173	0.248143
C101	C	1.021287	-0.642423	-0.285328
C102	C	1.521287	-0.142423	0.214672
C103	C	0.934908	-0.975601	-0.218452
C104	C	1.434908	-0.475601	0.281548
C105	C	0.934934	-1.030203	-0.218456
C106	C	1.434934	-0.530203	0.281544
C107	C	1.021444	-1.030101	-0.285394
C108	C	1.521444	-0.530101	0.214606
C109	C	1.021421	-0.975497	-0.285386
C110	C	1.521421	-0.475497	0.214614
C111	C	0.978150	-0.948248	-0.251915
C112	C	1.478150	-0.448248	0.248085
C113	C	1.021244	-0.527758	-0.285301
C114	C	1.521244	-0.027758	0.214699
C115	C	1.021223	-0.473152	-0.285285
C116	C	1.521223	0.026848	0.214715
C117	C	0.934711	-0.473260	-0.218350
C118	C	1.434711	0.026740	0.281650
C119	C	0.934734	-0.527860	-0.218364
C120	C	1.434734	-0.027860	0.281636
C121	C	0.978003	-0.555108	-0.251844
C122	C	1.478003	-0.055108	0.248156
O123	O	0.898020	-0.614286	-0.189930
O124	O	1.398020	-0.114286	0.310070
O125	O	1.058054	-0.614136	-0.313791
O126	O	1.558054	-0.114136	0.186209
C127	C	1.154576	-0.251962	-0.251868
C128	C	1.654576	0.248038	0.248132
C129	C	1.229808	-0.251969	-0.251873
C130	C	1.729808	0.248031	0.248127
C131	C	0.978047	-0.251931	-0.388228
C132	C	1.478047	0.248069	0.111772
C133	C	0.978054	-0.251924	-0.446342
C134	C	1.478054	0.248076	0.053658
C135	C	0.978147	-0.115572	-0.251907
C136	C	1.478147	0.384428	0.248093
C137	C	0.978196	-0.057458	-0.251930
C138	C	1.478196	0.442542	0.248070
C139	C	0.934780	-0.285295	-0.697514
C140	C	1.434780	0.214705	-0.197514
C141	C	0.934768	-0.285307	-0.642909
C142	C	1.434768	0.214693	-0.142909
O143	O	0.897911	-0.313732	-0.614654
O144	O	1.397911	0.186268	-0.114654
N145	N	0.978079	-0.251882	-0.615616
N146	N	1.478079	0.248118	-0.115616
C147	C	1.021400	-0.218440	-0.642930
C148	C	1.521400	0.281560	-0.142930
O149	O	1.058238	-0.190011	-0.614700
O150	O	1.558238	0.309989	-0.114700
C151	C	1.021408	-0.218426	-0.697533
C152	C	1.521408	0.281574	-0.197533
C153	C	0.978099	-0.251856	-0.724824
C154	C	1.478099	0.248144	-0.224824
C155	C	0.891474	-0.318722	-0.724804
C156	C	1.391474	0.181278	-0.224804
C157	C	0.891487	-0.318711	-0.779405
C158	C	1.391487	0.181289	-0.279405
C159	C	0.934806	-0.285272	-0.806715
C160	C	1.434806	0.214728	-0.306715
C161	C	0.978112	-0.251845	-0.779424
C162	C	1.478112	0.248155	-0.279424
C163	C	1.064725	-0.184982	-0.724846
C164	C	1.564725	0.315018	-0.224846
C165	C	1.064729	-0.184970	-0.779453
C166	C	1.564729	0.315030	-0.279453
C167	C	1.021420	-0.218401	-0.806743
C168	C	1.521420	0.281599	-0.306743
C169	C	1.021444	-0.218395	-0.861335
C170	C	1.521444	0.281605	-0.361335
N171	N	0.978133	-0.251820	-0.888628
N172	N	1.478133	0.248180	-0.388628
C173	C	0.934814	-0.285258	-0.861318
C174	C	1.434814	0.214742	-0.361318
C175	C	1.021379	-0.218471	-0.528259
C176	C	1.521379	0.281529	-0.028259
C177	C	1.021375	-0.218488	-0.473657
C178	C	1.521375	0.281512	0.026343
C179	C	0.934742	-0.285354	-0.473640
C180	C	1.434742	0.214646	0.026360
C181	C	0.934750	-0.285340	-0.528243
C182	C	1.434750	0.214660	-0.028243
C183	C	0.978068	-0.251896	-0.555552
C184	C	1.478068	0.248104	-0.055552
C185	C	0.934845	-0.285233	-0.975983
C186	C	1.434845	0.214767	-0.475983
C187	C	0.934864	-0.285220	-1.030589
C188	C	1.434864	0.214780	-0.530589
C189	C	1.021494	-0.218352	-1.030600
C190	C	1.521494	0.281648	-0.530600
C191	C	1.021478	-0.218367	-0.976000
C192	C	1.521478	0.281633	-0.476000
C193	C	0.978148	-0.251809	-0.948693
C194	C	1.478148	0.248191	-0.448693
O195	O	1.058280	-0.189984	-0.889625
O196	O	1.558280	0.310016	-0.389625
O197	O	0.897976	-0.313678	-0.889554
O198	O	1.397976	0.186322	-0.389554
C199	C	0.978058	-0.251922	-0.116012
C200	C	1.478058	0.248078	0.383988
C201	C	0.978183	-0.251782	-0.057899
C202	C	1.478183	0.248218	0.442101
H203	H	0.236426	-0.191397	-0.312659
H204	H	0.736426	0.308603	0.187341
H205	H	0.899596	-0.312445	-1.052806
H206	H	1.399596	0.187555	-0.552806
O207	O	0.226967	-0.321371	-0.182233
O208	O	0.726967	0.178629	0.317767
H209	H	0.171882	-0.315769	-0.187871
H210	H	0.671882	0.184231	0.312129
O211	O	1.111228	-0.694789	-0.354902
O212	O	1.611228	-0.194789	0.145098
H213	H	1.080910	-0.669910	-0.381481
H214	H	1.580910	-0.169910	0.118519
H215	H	0.364554	-0.312537	-0.191079
H216	H	0.864554	0.187463	0.308921
O217	O	0.374023	-0.182556	-0.321499
O218	O	0.874023	0.317444	0.178501
H219	H	0.360463	-0.191576	-0.362518
H220	H	0.860463	0.308424	0.137482
H221	H	1.056638	-0.953232	-0.312635
H222	H	1.556638	-0.453232	0.187365
O223	O	0.729784	-0.182530	-0.321482
O224	O	1.229784	0.317470	0.178518
H225	H	0.716221	-0.191552	-0.362501
H226	H	1.216221	0.308448	0.137499
H227	H	0.592078	-0.312514	-0.191069
H228	H	1.092078	0.187486	0.308931
O229	O	0.888104	-0.321294	-0.946534
O230	O	1.388104	0.178706	-0.446534
H231	H	0.857997	-0.344534	-0.974691
H232	H	1.357997	0.155466	-0.474691
O233	O	1.067916	-0.557137	-0.321411
O234	O	1.567916	-0.057137	0.178589
H235	H	1.037611	-0.582011	-0.348004
H236	H	1.537611	-0.082011	0.151996
H237	H	1.099825	-0.801058	-0.346078
H238	H	1.599825	-0.301058	0.153922
H239	H	0.720323	-0.312509	-0.191061
H240	H	1.220323	0.187491	0.308939
O241	O	1.068095	-0.182434	-0.444227
O242	O	1.568095	0.317566	0.055773
H243	H	1.102512	-0.205844	-0.419348
H244	H	1.602512	0.294156	0.080652
O245	O	0.582860	-0.182542	-0.321492
O246	O	1.082860	0.317458	0.178508
H247	H	0.550644	-0.205983	-0.348046
H248	H	1.050644	0.294017	0.151954
O249	O	1.067872	-0.443652	-0.321378
O250	O	1.567872	0.056348	0.178622
H251	H	1.102324	-0.418775	-0.297992
H252	H	1.602324	0.081225	0.202008
H253	H	1.056671	-1.052298	-0.312649
H254	H	1.556671	-0.552298	0.187351
H255	H	0.899723	-1.052467	-0.191202
H256	H	1.399723	-0.552467	0.308798
H257	H	0.899673	-0.953417	-0.191191
H258	H	1.399673	-0.453417	0.308809
O259	O	0.844871	-0.695080	-0.148846
O260	O	1.344871	-0.195080	0.351154
H261	H	0.852115	-0.652515	-0.154460
H262	H	1.352115	-0.152515	0.345540
H263	H	0.856345	-0.801333	-0.157706
H264	H	1.356345	-0.301333	0.342294
O265	O	0.888090	-0.557365	-0.182272
O266	O	1.388090	-0.057365	0.317728
H267	H	0.858001	-0.529240	-0.158997
H268	H	1.358001	-0.029240	0.341003
H269	H	0.899487	-0.451064	-0.191096
H270	H	1.399487	0.048936	0.308904
H271	H	0.856219	-0.345932	-0.801620
H272	H	1.356219	0.154068	-0.301620
O273	O	1.068111	-0.182397	-0.557705
O274	O	1.568111	0.317603	-0.057705
H275	H	1.037845	-0.155779	-0.582581
H276	H	1.537845	0.344221	-0.082581
H277	H	0.856195	-0.345952	-0.702574
H278	H	1.356195	0.154048	-0.202574
H279	H	0.899484	-0.312561	-0.550460
H280	H	1.399484	0.187439	-0.050460
O281	O	0.888010	-0.321416	-0.444180
O282	O	1.388010	0.178584	0.055820
H283	H	0.895278	-0.315802	-0.401627
H284	H	1.395278	0.184198	0.098373
H285	H	1.099992	-0.157759	-0.702635
H286	H	1.599992	0.342241	-0.202635
O287	O	1.111455	-0.148901	-0.808909
O288	O	1.611455	0.351099	-0.308909
H289	H	1.141570	-0.125663	-0.780755
H290	H	1.641570	0.374337	-0.280755
O291	O	1.068189	-0.182312	-0.946560
O292	O	1.568189	0.317688	-0.446560
H293	H	1.098311	-0.159057	-0.974726
H294	H	1.598311	0.340943	-0.474726
O295	O	1.068195	-0.182271	-1.060060
O296	O	1.568195	0.317729	-0.560060
H297	H	1.060911	-0.187873	-1.102614
H298	H	1.560911	0.312127	-0.602614
