data_functionalizedCrystal
_audit_creation_method	'MofGen! by Chris Wilmer'
_symmetry_space_group_name_H-M	'P1'
_symmetry_Int_Tables_number	1
_symmetry_cell_setting	triclinic
loop_
_symmetry_equiv_pos_as_xyz
  x,y,z
_cell_length_a	14.853569
_cell_length_b	14.853567
_cell_length_c	13.930277
_cell_angle_alpha	90.000757
_cell_angle_beta	89.994756
_cell_angle_gamma	96.364752
loop_
_atom_site_label
_atom_site_type_symbol
_atom_site_fract_x
_atom_site_fract_y
_atom_site_fract_z
O1	O	1.196368	-0.117710	-0.079779
O2	O	0.933908	-0.131730	-0.079789
O3	O	1.072149	0.006510	-0.079787
O4	O	1.058127	-0.255950	-0.079781
O5	O	1.072129	0.006513	0.079875
O6	O	0.933889	-0.131727	0.079873
O7	O	1.196348	-0.117707	0.079883
Zn8	Zn	1.065116	-0.124717	0.105228
Zn9	Zn	1.065141	-0.124721	-0.105134
O10	O	1.058108	-0.255947	0.079881
C11	C	0.900310	-0.131093	0.000040
C12	C	0.800226	-0.129189	0.000036
C13	C	0.763850	-0.046178	0.000031
C14	C	0.742560	-0.210410	0.000045
C15	C	0.648526	-0.208624	0.000046
C16	C	0.612150	-0.125613	0.000041
C17	C	0.669807	-0.044389	0.000035
C18	C	0.590862	-0.289847	0.000062
C19	C	0.496821	-0.288064	0.000064
C20	C	0.460443	-0.205052	0.000052
C21	C	0.518107	-0.123824	0.000045
C22	C	0.481730	-0.040813	0.000040
C23	C	0.539393	0.040415	0.000026
C24	C	0.633429	0.038623	0.000023
C25	C	0.366407	-0.203259	0.000055
C26	C	0.387688	-0.039024	0.000044
C27	C	1.071504	0.040100	0.000042
C28	C	1.069600	0.140183	0.000033
C29	C	1.229947	-0.118344	0.000052
C30	C	1.330030	-0.120249	0.000050
C31	C	1.058753	-0.289537	0.000050
C32	C	1.060657	-0.389621	0.000052
N33	N	1.065105	-0.124713	0.248794
C34	C	0.979434	0.552718	0.000048
C35	C	1.143667	0.573998	0.000054
C36	C	1.145457	0.479964	0.000049
C37	C	1.064234	0.422303	0.000044
C38	C	0.981222	0.458675	0.000045
C39	C	1.228468	0.443585	0.000058
C40	C	1.230262	0.349545	0.000053
C41	C	1.149038	0.291882	0.000042
C42	C	1.066022	0.328260	0.000041
C43	C	0.984800	0.270599	0.000037
C44	C	0.901783	0.306974	0.000030
C45	C	0.899998	0.401012	0.000034
C46	C	1.150822	0.197845	0.000038
C47	C	0.986587	0.176556	0.000034
N48	N	1.065159	-0.124717	-0.248700
C49	C	1.003926	-0.185909	0.701062
C50	C	1.126381	-0.063525	0.701034
C51	C	1.126370	-0.063522	0.600538
C52	C	1.065137	-0.124715	0.550300
C53	C	1.003915	-0.185910	0.600557
C54	C	1.187598	-0.002334	0.550273
C55	C	1.187590	-0.002330	0.449771
C56	C	1.126352	-0.063518	0.399531
C57	C	1.065126	-0.124716	0.449794
C58	C	1.003893	-0.185908	0.399556
C59	C	0.942663	-0.247101	0.449818
C60	C	0.942677	-0.247099	0.550317
C61	C	1.126338	-0.063521	0.299032
C62	C	1.003883	-0.185909	0.299051
H63	H	0.358078	0.028574	0.000034
C64	C	1.321581	0.309541	0.000053
N65	N	1.390364	0.279409	0.000050
H66	H	0.892826	-0.296921	0.591246
C67	C	0.936543	-0.253250	0.243797
N68	N	0.885831	-0.303981	0.202180
H69	H	0.892810	-0.296929	0.408902
C70	C	1.317806	0.507016	0.000069
N71	N	1.385099	0.554798	0.000077
H72	H	0.810802	0.019956	0.000016
H73	H	1.176240	-0.013708	0.741941
C74	C	0.936569	-0.253213	0.756350
N75	N	0.885834	-0.303905	0.797994
C76	C	0.782578	-0.301717	0.000056
N77	N	0.812723	-0.370493	0.000064
H78	H	1.176195	-0.013702	0.258114
H79	H	0.509763	0.108003	0.000015
H80	H	0.835651	0.260014	0.000033
H81	H	1.237456	0.047483	0.591180
C82	C	1.254937	0.064991	0.394493
N83	N	1.305660	0.115701	0.352856
H84	H	0.680385	0.104755	0.000013
H85	H	0.620487	-0.357430	0.000072
H86	H	0.449880	-0.354205	0.000074
H87	H	0.319463	-0.269395	0.000075
C88	C	0.808688	0.441033	0.000046
N89	N	0.739913	0.471181	0.000064
C90	C	1.242135	0.157835	0.000046
N91	N	1.310917	0.127701	0.000049
H92	H	0.920445	0.129613	0.000026
H93	H	0.911844	0.582339	0.000038
H94	H	1.209794	0.620951	0.000066
