data_functionalizedCrystal
_audit_creation_method	'MofGen! by Chris Wilmer'
_symmetry_space_group_name_H-M	'P1'
_symmetry_Int_Tables_number	1
_symmetry_cell_setting	triclinic
loop_
_symmetry_equiv_pos_as_xyz
  x,y,z
_cell_length_a	19.188925
_cell_length_b	19.188930
_cell_length_c	9.798715
_cell_angle_alpha	89.991738
_cell_angle_beta	89.995370
_cell_angle_gamma	83.143665
loop_
_atom_site_label
_atom_site_type_symbol
_atom_site_fract_x
_atom_site_fract_y
_atom_site_fract_z
O1	O	0.926147	0.087148	-0.113536
O2	O	1.259480	0.420481	0.219798
O3	O	1.592813	0.753815	0.553131
O4	O	0.722835	0.098886	-0.113534
O5	O	1.056168	0.432219	0.219799
O6	O	1.389501	0.765553	0.553133
O7	O	0.830358	-0.008639	-0.113508
O8	O	1.163691	0.324695	0.219825
O9	O	1.497024	0.658028	0.553158
O10	O	0.818624	0.194673	-0.113561
O11	O	1.151957	0.528006	0.219772
O12	O	1.485290	0.861339	0.553105
O13	O	0.830350	-0.008639	0.113474
O14	O	1.163683	0.324694	0.446807
O15	O	1.497016	0.658028	0.780141
O16	O	0.722827	0.098886	0.113448
O17	O	1.056160	0.432219	0.446782
O18	O	1.389493	0.765553	0.780115
O19	O	0.926139	0.087148	0.113447
O20	O	1.259472	0.420481	0.446780
O21	O	1.592805	0.753814	0.780113
Zn22	Zn	0.824481	0.093017	0.149486
Zn23	Zn	1.157815	0.426350	0.482819
Zn24	Zn	1.491148	0.759683	0.816152
Zn25	Zn	0.824492	0.093017	-0.149573
Zn26	Zn	1.157825	0.426350	0.183760
Zn27	Zn	1.491159	0.759684	0.517094
O28	O	0.818616	0.194673	0.113421
O29	O	1.151949	0.528006	0.446754
O30	O	1.485282	0.861339	0.780087
C31	C	0.696820	0.098507	-0.000042
C32	C	1.030153	0.431840	0.333291
C33	C	1.363486	0.765173	0.666624
C34	C	0.619315	0.097367	-0.000040
C35	C	0.952648	0.430701	0.333293
C36	C	1.285982	0.764034	0.666626
C37	C	0.057545	0.152831	-0.000058
C38	C	0.390878	0.486165	0.333275
C39	C	0.724211	0.819498	0.666608
C40	C	0.130368	0.153908	-0.000066
C41	C	0.463701	0.487241	0.333267
C42	C	0.797035	0.820575	0.666601
C43	C	0.175302	0.090816	-0.000047
C44	C	0.508636	0.424149	0.333286
C45	C	0.841969	0.757482	0.666620
C46	C	0.147408	0.026642	-0.000055
C47	C	0.480742	0.359976	0.333278
C48	C	0.814075	0.693309	0.666611
C49	C	0.074586	0.025568	-0.000061
C50	C	0.407920	0.358901	0.333272
C51	C	0.741253	0.692234	0.666605
N52	N	0.295977	0.045140	0.077231
N53	N	0.629310	0.378473	0.410565
N54	N	0.962644	0.711806	0.743898
N55	N	0.365154	0.046165	0.077240
N56	N	0.698487	0.379498	0.410573
N57	N	1.031821	0.712831	0.743907
C58	C	0.394712	0.094050	-0.000032
C59	C	0.728045	0.427383	0.333302
C60	C	1.061378	0.760716	0.666635
N61	N	0.352477	0.140882	-0.077295
N62	N	0.685810	0.474215	0.256038
N63	N	1.019144	0.807548	0.589371
N64	N	0.283293	0.139858	-0.077298
N65	N	0.616626	0.473192	0.256036
N66	N	0.949960	0.806525	0.589369
C67	C	0.254267	0.091974	-0.000041
C68	C	0.587600	0.425307	0.333292
C69	C	0.920933	0.758641	0.666625
C70	C	0.501561	0.159386	-0.000041
C71	C	0.834894	0.492720	0.333292
C72	C	1.168227	0.826053	0.666626
C73	C	0.574385	0.160460	-0.000057
C74	C	0.907719	0.493794	0.333276
C75	C	1.241052	0.827127	0.666609
C76	C	0.591425	0.033193	-0.000033
C77	C	0.924758	0.366526	0.333300
C78	C	1.258091	0.699859	0.666634
C79	C	0.518601	0.032121	-0.000031
C80	C	0.851934	0.365454	0.333303
C81	C	1.185268	0.698787	0.666636
C82	C	0.473673	0.095220	-0.000028
C83	C	0.807006	0.428553	0.333305
C84	C	1.140340	0.761886	0.666639
C85	C	0.829974	-0.034650	-0.000013
C86	C	1.163307	0.298683	0.333320
C87	C	1.496640	0.632017	0.666653
C88	C	0.828833	-0.112154	-0.000001
C89	C	1.162166	0.221179	0.333332
C90	C	1.495500	0.554512	0.666665
C91	C	0.891924	-0.157079	0.000005
C92	C	1.225257	0.176254	0.333338
C93	C	1.558591	0.509587	0.666671
C94	C	0.890852	-0.229903	-0.000017
C95	C	1.224186	0.103430	0.333316
C96	C	1.557519	0.436763	0.666649
C97	C	0.826686	-0.257799	-0.000018
C98	C	1.160020	0.075535	0.333316
C99	C	1.493353	0.408868	0.666649
C100	C	0.763587	-0.212864	-0.000031
C101	C	1.096920	0.120470	0.333302
C102	C	1.430254	0.453803	0.666635
C103	C	0.764660	-0.140041	-0.000023
C104	C	1.097994	0.193292	0.333310
C105	C	1.431327	0.526625	0.666643
N106	N	0.777636	-0.365803	0.077229
N107	N	1.110969	-0.032469	0.410562
N108	N	1.444303	0.300864	0.743896
N109	N	0.776621	-0.434981	0.077224
N110	N	1.109954	-0.101648	0.410557
N111	N	1.443287	0.231685	0.743891
C112	C	0.823448	-0.477207	-0.000045
C113	C	1.156781	-0.143874	0.333288
C114	C	1.490115	0.189459	0.666621
N115	N	0.871340	-0.447643	-0.077293
N116	N	1.204673	-0.114309	0.256041
N117	N	1.538007	0.219024	0.589374
N118	N	0.872357	-0.378458	-0.077282
N119	N	1.205691	-0.045125	0.256052
N120	N	1.539024	0.288209	0.589385
C121	C	0.825515	-0.336761	-0.000027
C122	C	1.158848	-0.003428	0.333306
C123	C	1.492182	0.329906	0.666639
C124	C	0.885381	-0.601097	-0.000065
C125	C	1.218715	-0.267763	0.333268
C126	C	1.552048	0.065570	0.666602
C127	C	0.884307	-0.673922	-0.000095
C128	C	1.217640	-0.340588	0.333238
C129	C	1.550974	-0.007255	0.666571
C130	C	0.757040	-0.656880	-0.000096
C131	C	1.090373	-0.323547	0.333238
C132	C	1.423706	0.009786	0.666571
C133	C	0.758116	-0.584057	-0.000079
C134	C	1.091449	-0.250724	0.333254
C135	C	1.424782	0.082610	0.666588
C136	C	0.822289	-0.556170	-0.000057
C137	C	1.155622	-0.222837	0.333276
C138	C	1.488955	0.110497	0.666609
C139	C	0.952154	0.087527	-0.000048
C140	C	1.285487	0.420861	0.333285
C141	C	1.618820	0.754194	0.666619
C142	C	1.029658	0.088666	-0.000059
C143	C	1.362992	0.422000	0.333274
C144	C	1.696325	0.755333	0.666608
C145	C	0.819000	0.220684	-0.000077
C146	C	1.152333	0.554017	0.333256
C147	C	1.485666	0.887350	0.666589
C148	C	0.820140	0.298188	-0.000098
C149	C	1.153474	0.631522	0.333235
C150	C	1.486807	0.964855	0.666569
N151	N	0.824479	0.093016	0.353585
N152	N	1.157813	0.426349	0.686919
N153	N	1.491146	0.759683	1.020252
N154	N	0.824500	0.093012	-0.353673
N155	N	1.157833	0.426345	-0.020339
N156	N	1.491166	0.759679	0.312994
C157	C	0.869628	0.047673	0.421373
C158	C	1.202961	0.381006	0.754706
C159	C	1.536294	0.714339	1.088040
C160	C	0.869639	0.047670	0.578536
C161	C	1.202972	0.381004	0.911869
C162	C	1.536306	0.714337	1.245203
H163	H	0.495896	-0.020129	-0.000023
H164	H	0.829230	0.313204	0.333310
H165	H	1.162563	0.646537	0.666644
F166	F	0.604063	0.228757	-0.000070
F167	F	0.937396	0.562090	0.333264
F168	F	1.270730	0.895424	0.666597
H169	H	0.464978	0.210765	-0.000042
H170	H	0.798311	0.544098	0.333292
H171	H	1.131645	0.877432	0.666625
H172	H	0.183999	-0.024728	-0.000044
H173	H	0.517332	0.308606	0.333290
H174	H	0.850665	0.641939	0.666623
H175	H	0.051883	-0.026685	-0.000062
H176	H	0.385216	0.306649	0.333271
H177	H	0.718549	0.639982	0.666604
H178	H	0.944179	-0.134379	0.000018
H179	H	1.277512	0.198954	0.333351
H180	H	1.610845	0.532288	0.666684
F181	F	0.639242	-0.033955	-0.000030
F182	F	0.972576	0.299378	0.333303
F183	F	1.305909	0.632711	0.666637
F184	F	0.009733	0.219987	-0.000069
F185	F	0.343066	0.553320	0.333264
F186	F	0.676400	0.886654	0.666597
H187	H	0.908271	0.008851	0.363060
H188	H	1.241604	0.342185	0.696393
H189	H	1.574937	0.675518	1.029726
F190	F	0.695297	-0.242553	-0.000041
F191	F	1.028630	0.090781	0.333293
F192	F	1.361963	0.424114	0.666626
F193	F	0.920167	-0.003069	0.654728
F194	F	1.253500	0.330264	0.988061
F195	F	1.586833	0.663598	1.321394
H196	H	0.942230	-0.266488	-0.000018
H197	H	1.275564	0.066845	0.333315
H198	H	1.608897	0.400178	0.666649
H199	H	0.785847	0.131837	0.588041
H200	H	1.119180	0.465170	0.921375
H201	H	1.452513	0.798504	1.254708
H202	H	0.713282	-0.103462	-0.000028
H203	H	1.046616	0.229871	0.333306
H204	H	1.379949	0.563204	0.666639
F205	F	0.953679	-0.571415	-0.000035
F206	F	1.287012	-0.238081	0.333298
F207	F	1.620345	0.095252	0.666631
H208	H	0.785832	0.131832	0.411901
H209	H	1.119165	0.465165	0.745234
H210	H	1.452498	0.798499	1.078567
H211	H	0.935686	-0.710500	-0.000098
H212	H	1.269019	-0.377166	0.333235
H213	H	1.602352	-0.043833	0.666569
H214	H	0.153078	0.206160	-0.000052
H215	H	0.486411	0.539494	0.333281
H216	H	0.819744	0.872827	0.666614
F217	F	0.688749	-0.686564	-0.000103
F218	F	1.022082	-0.353230	0.333230
F219	F	1.355415	-0.019897	0.666564
H220	H	0.706740	-0.547478	-0.000076
H221	H	1.040073	-0.214144	0.333257
H222	H	1.373407	0.119189	0.666590
