data_functionalizedCrystal
_audit_creation_method	'MofGen! by Chris Wilmer'
_symmetry_space_group_name_H-M	'P1'
_symmetry_Int_Tables_number	1
_symmetry_cell_setting	triclinic
loop_
_symmetry_equiv_pos_as_xyz
  x,y,z
_cell_length_a	8.559649
_cell_length_b	14.044220
_cell_length_c	7.681481
_cell_angle_alpha	83.732834
_cell_angle_beta	94.913240
_cell_angle_gamma	81.483771
loop_
_atom_site_label
_atom_site_type_symbol
_atom_site_fract_x
_atom_site_fract_y
_atom_site_fract_z
O1	O	2.101908	-0.021858	-0.146399
O2	O	1.643608	0.026593	-0.146411
O3	O	1.865881	-0.135117	-0.146388
O4	O	1.879635	0.139853	-0.146422
O5	O	1.893233	-0.155061	0.146473
O6	O	1.670961	0.006649	0.146449
O7	O	2.129260	-0.041802	0.146461
Zn8	Zn	1.904453	-0.020743	0.192953
Zn9	Zn	1.868415	0.005534	-0.192903
O10	O	1.906988	0.119909	0.146438
C11	C	1.598278	0.020293	0.000018
C12	C	1.422455	0.031222	0.000014
C13	C	1.873534	-0.179966	0.000043
C14	C	1.855571	-0.283884	0.000045
C15	C	1.822727	-0.474153	0.000018
C16	C	1.950133	-0.541060	0.000016
C17	C	1.931858	-0.646933	0.000002
C18	C	1.840999	-0.368270	0.000033
C19	C	2.174590	-0.035501	0.000029
C20	C	2.350412	-0.046430	0.000021
C21	C	1.899334	0.164757	0.000003
C22	C	1.917296	0.268676	-0.000010
N23	N	1.929059	-0.038678	0.456290
N24	N	1.843820	0.023461	-0.456240
H25	H	1.349615	0.106070	-0.000005
O26	O	2.096530	-0.514388	0.000116
C27	C	2.248439	-0.382994	0.000055
C28	C	2.082565	-0.413076	-0.000023
H29	H	2.237202	-0.301080	-0.000095
H30	H	2.326913	-0.421112	0.122651
H31	H	2.304000	-0.404523	-0.122472
H32	H	2.026866	-0.391551	0.122421
H33	H	2.004204	-0.374966	-0.122701
O34	O	1.739984	0.099202	0.454324
C35	C	1.546668	0.240025	0.473394
C36	C	1.664233	0.154303	0.574912
H37	H	1.485367	0.284586	0.570845
H38	H	1.613657	0.287773	0.387111
H39	H	1.453859	0.211132	0.387049
H40	H	1.757070	0.183111	0.661353
H41	H	1.597135	0.106570	0.661084
H42	H	1.699936	-0.496383	0.000011
O43	O	2.032998	-0.114378	0.545734
C44	C	2.226154	-0.255275	0.526654
C45	C	2.108537	-0.169576	0.425142
H46	H	2.287236	-0.299939	0.429200
H47	H	2.319135	-0.226462	0.612902
H48	H	2.159072	-0.302910	0.613034
H49	H	2.175484	-0.121908	0.338666
H50	H	2.015560	-0.198456	0.339005
O51	O	1.437434	-0.135654	-0.000202
C52	C	1.617644	-0.237597	-0.151963
C53	C	1.519185	-0.136501	-0.151909
H54	H	1.683739	-0.238321	-0.274624
H55	H	1.706873	-0.255050	-0.029484
H56	H	1.535108	-0.294291	-0.151872
H57	H	1.601596	-0.079741	-0.152062
H58	H	1.429939	-0.119131	-0.274378
