data_functionalizedCrystal
_audit_creation_method	'MofGen! by Chris Wilmer'
_symmetry_space_group_name_H-M	'P1'
_symmetry_Int_Tables_number	1
_symmetry_cell_setting	triclinic
loop_
_symmetry_equiv_pos_as_xyz
  x,y,z
_cell_length_a	12.759401
_cell_length_b	12.759400
_cell_length_c	19.805399
_cell_angle_alpha	89.976763
_cell_angle_beta	89.983594
_cell_angle_gamma	90.014356
loop_
_atom_site_label
_atom_site_type_symbol
_atom_site_fract_x
_atom_site_fract_y
_atom_site_fract_z
Zn1	Zn	1.606224	-0.418300	-0.382683
Zn2	Zn	1.606128	-0.593993	-0.269503
Zn3	Zn	1.430535	-0.418328	-0.269514
Zn4	Zn	1.430514	-0.593936	-0.382656
O5	O	1.518350	-0.506139	-0.326089
O6	O	1.753232	-0.441618	-0.367676
O7	O	1.582803	-0.570726	-0.174788
O8	O	1.453890	-0.271303	-0.284541
O9	O	1.753161	-0.570699	-0.284524
O10	O	1.582967	-0.271283	-0.367686
O11	O	1.453796	-0.441666	-0.174796
O12	O	1.283511	-0.441611	-0.284516
O13	O	1.453854	-0.570602	-0.477376
O14	O	1.283496	-0.570629	-0.367641
O15	O	1.582947	-0.441563	-0.477396
O16	O	1.582783	-0.741007	-0.284498
O17	O	1.453761	-0.740965	-0.367631
C18	C	1.245383	-0.506118	-0.326077
C19	C	1.128606	-0.506134	-0.326088
C20	C	1.518288	-0.779107	-0.326075
C21	C	1.518357	-0.895883	-0.326092
C22	C	0.963984	-0.573265	-0.282744
C23	C	1.073708	-0.573244	-0.282732
C24	C	1.073775	-0.439033	-0.369453
C25	C	0.964052	-0.439049	-0.369460
C26	C	0.909092	-0.640387	-0.239391
C27	C	0.963916	-0.707487	-0.196025
C28	C	1.073640	-0.707465	-0.196013
C29	C	1.128540	-0.640345	-0.239367
C30	C	1.585614	-0.950732	-0.282852
C31	C	1.585678	-1.060456	-0.282873
C32	C	1.451221	-1.060473	-0.369375
C33	C	1.451163	-0.950751	-0.369357
C34	C	1.652809	-0.895865	-0.239587
C35	C	1.720070	-0.950714	-0.196343
C36	C	1.720134	-1.060438	-0.196364
C37	C	1.652938	-1.115313	-0.239629
C38	C	1.792383	-0.506162	-0.326102
C39	C	1.909160	-0.506171	-0.326107
C40	C	1.518409	-0.506073	-0.502632
C41	C	1.518434	-0.506045	-0.577864
C42	C	1.518441	-0.232106	-0.326118
C43	C	1.518480	-0.115329	-0.326130
C44	C	1.585654	-0.438851	-0.613219
C45	C	1.585665	-0.438820	-0.683908
C46	C	1.518460	-0.505990	-0.719240
C47	C	1.451233	-0.573187	-0.683879
C48	C	1.451217	-0.573212	-0.613192
C49	C	1.451292	-0.573089	-0.968953
C50	C	1.451315	-0.573062	-1.039645
C51	C	1.585740	-0.438698	-1.039668
C52	C	1.585724	-0.438722	-0.968981
C53	C	1.518493	-0.505915	-0.933627
C54	C	1.518481	-0.505946	-0.856979
C55	C	1.518477	-0.505965	-0.795887
C56	C	1.518352	-0.506129	-0.150233
C57	C	1.518530	-0.505862	-0.075001
H58	H	0.919209	-0.762129	-0.160724
H59	H	1.774785	-0.906029	-0.161123
O60	O	1.235126	-0.640490	-0.239293
C61	C	1.392546	-0.714061	-0.191671
C62	C	1.271842	-0.714013	-0.191693
H63	H	1.422268	-0.773483	-0.153180
H64	H	1.422420	-0.736027	-0.244040
H65	H	1.422311	-0.632642	-0.177744
H66	H	1.241988	-0.795408	-0.205590
H67	H	1.242039	-0.691988	-0.139317
O68	O	1.785504	-1.113557	-0.154299
C69	C	1.918901	-1.101954	-0.068525
C70	C	1.844908	-1.041669	-0.116123
H71	H	1.966965	-1.043859	-0.037658
H72	H	1.870776	-1.153371	-0.033072
H73	H	1.973796	-1.153273	-0.099649
H74	H	1.789999	-0.990293	-0.085054
H75	H	1.893099	-0.990318	-0.151578
H76	H	0.819749	-0.640414	-0.239397
O77	O	1.385956	-0.638388	-0.578741
C78	C	1.326396	-0.698018	-0.469831
C79	C	1.400347	-0.624138	-0.508761
H80	H	1.338021	-0.686539	-0.413245
H81	H	1.241667	-0.679553	-0.483673
H82	H	1.344807	-0.782720	-0.483760
H83	H	1.382030	-0.539411	-0.494852
H84	H	1.485054	-0.642693	-0.494915
O85	O	1.385979	-1.113938	-0.411331
C86	C	1.326522	-1.282980	-0.449719
C87	C	1.400448	-1.222564	-0.402160
H88	H	1.338210	-1.370815	-0.442331
H89	H	1.241782	-1.261564	-0.437781
H90	H	1.344897	-1.261276	-0.504297
H91	H	1.382167	-1.244236	-0.347566
H92	H	1.485166	-1.243986	-0.414156
H93	H	0.919414	-0.384412	-0.404767
O94	O	1.651047	-0.373749	-0.578870
C95	C	1.792833	-0.359638	-0.499043
C96	C	1.718863	-0.433492	-0.537912
H97	H	1.847667	-0.407909	-0.465909
H98	H	1.840954	-0.311621	-0.536427
H99	H	1.744581	-0.304692	-0.465983
H100	H	1.767034	-0.488501	-0.570974
H101	H	1.670739	-0.481435	-0.500493
O102	O	1.126987	-0.373897	-0.411663
C103	C	1.160687	-0.323182	-0.526854
C104	C	1.100342	-0.396993	-0.479123
H105	H	1.139184	-0.341843	-0.581406
H106	H	1.139101	-0.238425	-0.515123
H107	H	1.248520	-0.334682	-0.519366
H108	H	1.012495	-0.385586	-0.486585
H109	H	1.122016	-0.481723	-0.490867
O110	O	1.653104	-1.221899	-0.239546
C111	C	1.727024	-1.379346	-0.192148
C112	C	1.726927	-1.258642	-0.192164
H113	H	1.786719	-1.409090	-0.153854
H114	H	1.645725	-1.409279	-0.178024
H115	H	1.748748	-1.409031	-0.244600
H116	H	1.705247	-1.228868	-0.139728
H117	H	1.808234	-1.228781	-0.206326
O118	O	1.385941	-0.638444	-0.934720
C119	C	1.252523	-0.771633	-0.942163
C120	C	1.326512	-0.697697	-0.981018
H121	H	1.204440	-0.819543	-0.979578
H122	H	1.300653	-0.826664	-0.909075
H123	H	1.197647	-0.723364	-0.909062
H124	H	1.381404	-0.745882	-1.014156
H125	H	1.278317	-0.642663	-1.014063
H126	H	1.640405	-0.384107	-0.712691
H127	H	1.396510	-0.627874	-0.712652
H128	H	1.396584	-0.627762	-1.068410
H129	H	1.396397	-0.906092	-0.404567
H130	H	1.652761	-0.806522	-0.239563
O131	O	1.651040	-0.373374	-0.934765
C132	C	1.784416	-0.240133	-0.942251
C133	C	1.710486	-0.314074	-0.981083
H134	H	1.832513	-0.192186	-0.979682
H135	H	1.736239	-0.185137	-0.909178
H136	H	1.839283	-0.288401	-0.909137
H137	H	1.655604	-0.265891	-1.014233
H138	H	1.758728	-0.369074	-1.014113
H139	H	1.118275	-0.762094	-0.160698
H140	H	1.640479	-0.383983	-1.068462
