data_functionalizedCrystal
_audit_creation_method	'MofGen! by Chris Wilmer'
_symmetry_space_group_name_H-M	'P1'
_symmetry_Int_Tables_number	1
_symmetry_cell_setting	triclinic
loop_
_symmetry_equiv_pos_as_xyz
  x,y,z
_cell_length_a	16.109301
_cell_length_b	15.186229
_cell_length_c	16.109301
_cell_angle_alpha	89.994833
_cell_angle_beta	83.461481
_cell_angle_gamma	89.999362
loop_
_atom_site_label
_atom_site_type_symbol
_atom_site_fract_x
_atom_site_fract_y
_atom_site_fract_z
O1	O	1.103131	-0.073176	0.106866
O2	O	1.603131	0.426824	0.606866
O3	O	0.861069	-0.073190	0.120165
O4	O	1.361069	0.426810	0.620165
O5	O	0.988749	-0.073174	-0.007515
O6	O	1.488749	0.426826	0.492485
O7	O	0.975450	-0.073192	0.234547
O8	O	1.475450	0.426808	0.734547
O9	O	0.988741	0.073284	-0.007517
O10	O	1.488741	0.573284	0.492483
O11	O	0.861060	0.073267	0.120164
O12	O	1.361060	0.573267	0.620164
O13	O	1.103122	0.073282	0.106864
O14	O	1.603122	0.573282	0.606864
Zn15	Zn	0.982090	0.096528	0.113514
Zn16	Zn	1.482090	0.596528	0.613514
Zn17	Zn	0.982101	-0.096436	0.113516
Zn18	Zn	1.482101	0.403564	0.613516
O19	O	0.975441	0.073265	0.234545
O20	O	1.475441	0.573265	0.734545
C21	C	0.830090	0.000037	0.119626
C22	C	1.330090	0.500037	0.619626
C23	C	0.737794	0.000032	0.118011
C24	C	1.237794	0.500032	0.618011
N25	N	0.982088	0.228220	0.113511
N26	N	1.482088	0.728220	0.613511
N27	N	0.982109	-0.228129	0.113512
N28	N	1.482109	0.271871	0.613512
C29	C	0.515522	0.000036	0.190018
C30	C	1.015522	0.500036	0.690018
C31	C	0.428801	0.000042	0.188494
C32	C	0.928801	0.500042	0.688494
C33	C	0.448676	0.000050	0.037006
C34	C	0.948676	0.500050	0.537006
C35	C	0.535394	0.000051	0.038530
C36	C	1.035394	0.500051	0.538530
C37	C	0.568815	0.000039	0.115039
C38	C	1.068815	0.500039	0.615039
C39	C	0.395376	0.000045	0.111990
C40	C	0.895376	0.500045	0.611990
C41	C	0.301350	0.000051	0.110337
C42	C	0.801350	0.500051	0.610337
C43	C	0.662847	0.000035	0.116693
C44	C	1.162847	0.500035	0.616693
C45	C	1.134101	0.000053	0.107404
C46	C	1.634101	0.500053	0.607404
C47	C	1.226397	0.000052	0.109019
C48	C	1.726397	0.500052	0.609019
C49	C	0.988206	0.000056	-0.038491
C50	C	1.488206	0.500056	0.461509
C51	C	0.986591	0.000057	-0.130786
C52	C	1.486591	0.500057	0.369214
C53	C	1.038644	0.453950	0.056994
C54	C	1.538644	0.953950	0.556994
C55	C	1.038647	0.546140	0.056992
C56	C	1.538647	1.046140	0.556992
C57	C	0.925547	0.546135	0.170032
C58	C	1.425547	1.046135	0.670032
C59	C	0.925541	0.453947	0.170030
C60	C	1.425541	0.953947	0.670030
C61	C	0.982094	0.407857	0.113511
C62	C	1.482094	0.907857	0.613511
C63	C	0.982103	0.592235	0.113512
C64	C	1.482103	1.092235	0.613512
C65	C	0.982105	0.692191	0.113510
C66	C	1.482105	1.192191	0.613510
C67	C	0.982091	0.307894	0.113512
C68	C	1.482091	0.807894	0.613512
C69	C	1.058599	0.000047	-0.353059
C70	C	1.558599	0.500047	0.146941
C71	C	1.057075	0.000040	-0.439779
C72	C	1.557075	0.500040	0.060221
C73	C	0.905586	0.000034	-0.419905
C74	C	1.405586	0.500034	0.080095
C75	C	0.907111	0.000035	-0.333186
C76	C	1.407111	0.500035	0.166814
C77	C	0.983620	0.000046	-0.299766
C78	C	1.483620	0.500046	0.200234
C79	C	0.980571	0.000038	-0.473205
C80	C	1.480571	0.500038	0.026795
C81	C	0.978918	0.000030	-0.567231
C82	C	1.478918	0.500030	-0.067231
C83	C	0.985273	0.000052	-0.205734
C84	C	1.485273	0.500052	0.294266
C85	C	0.975984	0.000034	0.265521
C86	C	1.475984	0.500034	0.765521
C87	C	0.977600	0.000027	0.357816
C88	C	1.477600	0.500027	0.857816
H89	H	0.385413	0.000041	0.249550
H90	H	0.885413	0.500041	0.749550
O91	O	1.099650	0.595859	-0.003956
O92	O	1.599650	1.095859	0.496044
H93	H	1.138978	0.548319	-0.043247
H94	H	1.638978	1.048319	0.456753
H95	H	1.084692	0.416426	0.010972
H96	H	1.584692	0.916426	0.510972
H97	H	0.879503	0.583670	0.216049
H98	H	1.379503	1.083670	0.716049
H99	H	0.421454	0.000065	-0.025285
H100	H	0.921454	0.500065	0.474715
O101	O	0.592885	0.000056	-0.042343
O102	O	1.092885	0.500056	0.457657
H103	H	0.555079	0.000052	-0.095801
H104	H	1.055079	0.500052	0.404199
O105	O	1.137946	0.000042	-0.497261
O106	O	1.637946	0.500042	0.002739
H107	H	1.140866	0.059731	-0.537256
H108	H	1.640866	0.559731	-0.037256
O109	O	0.823067	0.000041	-0.455950
O110	O	1.323067	0.500041	0.044050
H111	H	0.834602	0.000053	-0.525205
H112	H	1.334602	0.500053	-0.025205
O113	O	0.864548	0.404221	0.230993
O114	O	1.364548	0.904221	0.730993
H115	H	0.825233	0.451756	0.270303
H116	H	1.325233	0.951756	0.770303
O117	O	1.141114	0.000041	-0.317007
O118	O	1.641114	0.500041	0.182993
H119	H	1.192995	0.000029	-0.368638
H120	H	1.692995	0.500029	0.131362
O121	O	0.826238	0.000044	-0.275695
O122	O	1.326238	0.500044	0.224305
H123	H	0.772780	0.000053	-0.313502
H124	H	1.272780	0.500053	0.186498
H125	H	0.542730	0.000034	0.252317
H126	H	1.042730	0.500034	0.752317
