data_functionalizedCrystal
_audit_creation_method	'MofGen! by Chris Wilmer'
_symmetry_space_group_name_H-M	'P1'
_symmetry_Int_Tables_number	1
_symmetry_cell_setting	triclinic
loop_
_symmetry_equiv_pos_as_xyz
  x,y,z
_cell_length_a	12.759401
_cell_length_b	15.299816
_cell_length_c	12.759393
_cell_angle_alpha	80.349000
_cell_angle_beta	90.020938
_cell_angle_gamma	80.352053
loop_
_atom_site_label
_atom_site_type_symbol
_atom_site_fract_x
_atom_site_fract_y
_atom_site_fract_z
Zn1	Zn	1.678551	-0.358974	0.666432
Zn2	Zn	1.708816	-0.509814	0.521179
Zn3	Zn	1.502860	-0.359022	0.490777
Zn4	Zn	1.533203	-0.509751	0.696804
O5	O	1.605858	-0.434390	0.593798
O6	O	1.829588	-0.378989	0.647177
O7	O	1.681463	-0.489858	0.370135
O8	O	1.500801	-0.232808	0.488643
O9	O	1.851824	-0.489811	0.540460
O10	O	1.629881	-0.232772	0.617696
O11	O	1.530147	-0.379071	0.347798
O12	O	1.359863	-0.379010	0.518094
O13	O	1.552517	-0.489704	0.839787
O14	O	1.382156	-0.489750	0.669461
O15	O	1.659303	-0.378928	0.817473
O16	O	1.710886	-0.636014	0.569911
O17	O	1.581864	-0.635967	0.698941
C18	C	1.332888	-0.434379	0.593775
C19	C	1.216115	-0.434396	0.593794
C20	C	1.172906	-0.492146	0.672523
C21	C	1.063183	-0.492150	0.672545
C22	C	1.039886	-0.376650	0.515099
C23	C	1.149607	-0.376643	0.515083
C24	C	1.652980	-0.668715	0.641044
C25	C	1.673235	-0.768960	0.661291
C26	C	1.461779	-1.051906	0.449446
C27	C	1.442743	-0.957721	0.430426
C28	C	1.500364	-0.910526	0.488140
C29	C	1.577025	-0.957525	0.564879
C30	C	1.596058	-1.051720	0.583907
C31	C	1.634643	-0.910340	0.622601
C32	C	1.711304	-0.957339	0.699339
C33	C	1.730333	-1.051525	0.718364
C34	C	1.672712	-1.098719	0.660649
C35	C	1.615611	-0.816145	0.603572
C36	C	1.749890	-0.815959	0.738033
C37	C	1.768926	-0.910145	0.757054
C38	C	1.879893	-0.434402	0.593822
C39	C	1.996671	-0.434407	0.593832
C40	C	1.605919	-0.434304	0.867814
C41	C	1.605945	-0.434267	0.984583
C42	C	1.558580	-0.199151	0.546391
C43	C	1.538433	-0.098905	0.526189
C44	C	1.605844	-0.434411	0.320835
C45	C	1.605970	-0.434194	0.204015
C46	C	1.661552	-0.376577	1.027826
C47	C	1.661562	-0.376538	1.137542
C48	C	1.550357	-0.491887	1.160765
C49	C	1.550341	-0.491920	1.051050
H50	H	1.028008	-0.539174	0.736655
C51	C	0.966726	-0.313132	0.428512
C52	C	0.846038	-0.313141	0.428521
C53	C	0.772881	-0.249623	0.341929
C54	C	0.820412	-0.186097	0.255330
C55	C	0.941107	-0.186086	0.255318
C56	C	1.014264	-0.249604	0.341909
H57	H	0.810847	-0.360169	0.492630
H58	H	0.683535	-0.249632	0.341939
H59	H	0.766257	-0.139078	0.191229
H60	H	0.976298	-0.139058	0.191208
H61	H	1.103610	-0.249595	0.341900
C62	C	1.814655	-1.103222	0.802782
C63	C	1.931462	-1.090187	0.791674
C64	C	2.015784	-1.141882	0.876092
C65	C	1.983301	-1.206611	0.971617
C66	C	1.866489	-1.219649	0.982729
C67	C	1.782166	-1.167955	0.898311
H68	H	1.955513	-1.042268	0.720957
H69	H	2.102256	-1.132230	0.867866
H70	H	2.045722	-1.244879	1.034109
H71	H	1.842438	-1.267569	1.053446
H72	H	1.695694	-1.177607	0.906537
H73	H	1.505089	-0.538828	1.214895
H74	H	1.484861	-0.833836	0.472647
H75	H	1.184786	-0.329610	0.450971
C76	C	1.531294	-0.764452	0.519159
C77	C	1.542562	-0.777479	0.402362
C78	C	1.458241	-0.725787	0.317941
C79	C	1.362653	-0.661067	0.350316
C80	C	1.351382	-0.648037	0.467118
C81	C	1.435702	-0.699730	0.551540
H82	H	1.613325	-0.825391	0.378391
H83	H	1.466586	-0.735433	0.231476
H84	H	1.300234	-0.622801	0.287823
H85	H	1.280618	-0.600125	0.491090
H86	H	1.427357	-0.690084	0.638004
C87	C	1.358424	-0.906024	0.346016
C88	C	1.295043	-0.957930	0.282528
C89	C	1.210720	-0.906232	0.198112
C90	C	1.189779	-0.802628	0.177184
C91	C	1.253162	-0.750716	0.240674
C92	C	1.337484	-0.802414	0.325089
H93	H	1.310544	-1.034629	0.298018
H94	H	1.163800	-0.944661	0.151113
H95	H	1.127358	-0.764357	0.114694
H96	H	1.237661	-0.674016	0.225183
H97	H	1.384404	-0.763985	0.372088
C98	C	1.398402	-1.103823	0.385972
C99	C	1.457059	-1.168601	0.316618
C100	C	1.393676	-1.220520	0.253141
C101	C	1.271636	-1.207661	0.259016
C102	C	1.212973	-1.142879	0.328372
C103	C	1.276356	-1.090960	0.391850
H104	H	1.547406	-1.178123	0.312267
H105	H	1.437103	-1.268476	0.201799
H106	H	1.224717	-1.246094	0.212026
H107	H	1.122626	-1.133357	0.332724
H108	H	1.232928	-1.043005	0.443192
C109	C	1.813282	-0.764055	0.801524
C110	C	1.792353	-0.660451	0.780593
C111	C	1.855738	-0.608541	0.844080
C112	C	1.940052	-0.660235	0.928499
C113	C	1.960985	-0.763845	0.949434
C114	C	1.897600	-0.815755	0.885946
H115	H	1.729936	-0.622179	0.718097
H116	H	1.840242	-0.531841	0.828582
H117	H	1.986973	-0.621808	0.975496
H118	H	2.023402	-0.802117	1.011929
H119	H	1.913096	-0.892455	0.901444
C120	C	1.246065	-0.555665	0.759110
C121	C	1.251591	-0.658186	0.771018
C122	C	1.324747	-0.721704	0.857609
C123	C	1.392377	-0.682703	0.932293
C124	C	1.386853	-0.580177	0.920387
C125	C	1.313698	-0.516659	0.833795
H126	H	1.201525	-0.687062	0.715731
H127	H	1.328835	-0.797601	0.866422
H128	H	1.446531	-0.729723	0.996393
H129	H	1.436919	-0.551301	0.975674
H130	H	1.309609	-0.440762	0.824982
C131	C	1.853244	-0.961851	0.841470
C132	C	1.970054	-0.948825	0.830370
C133	C	2.054371	-1.000532	0.914786
C134	C	2.021879	-1.065266	1.010302
C135	C	1.905064	-1.078295	1.021407
C136	C	1.820747	-1.026588	0.936991
H137	H	1.994111	-0.900902	0.759659
H138	H	2.140846	-0.990887	0.906565
H139	H	2.084296	-1.103543	1.072792
H140	H	1.881007	-1.126218	1.092117
H141	H	1.734272	-1.036234	0.945211
H142	H	1.706841	-0.329559	1.172744
H143	H	1.688210	-1.175413	0.676128
H144	H	1.706825	-0.329629	0.973711
H145	H	1.505052	-0.538898	1.015841
