data_functionalizedCrystal
_audit_creation_method	'MofGen! by Chris Wilmer'
_symmetry_space_group_name_H-M	'P1'
_symmetry_Int_Tables_number	1
_symmetry_cell_setting	triclinic
loop_
_symmetry_equiv_pos_as_xyz
  x,y,z
_cell_length_a	10.967874
_cell_length_b	11.026607
_cell_length_c	17.766277
_cell_angle_alpha	89.996915
_cell_angle_beta	77.861958
_cell_angle_gamma	96.380181
loop_
_atom_site_label
_atom_site_type_symbol
_atom_site_fract_x
_atom_site_fract_y
_atom_site_fract_z
O1	O	1.694059	0.170535	-0.282327
O2	O	1.334418	0.186855	-0.235679
O3	O	1.484432	0.001794	-0.255134
O4	O	1.544045	0.355596	-0.262872
O5	O	1.484396	0.001784	-0.129941
O6	O	1.334382	0.186845	-0.110486
O7	O	1.694024	0.170525	-0.157133
Cu8	Cu	1.514200	0.178684	-0.122379
Cu9	Cu	1.514242	0.178696	-0.270434
O10	O	1.544010	0.355587	-0.137679
C11	C	1.287642	0.185662	-0.167018
C12	C	1.148317	0.182107	-0.148947
C13	C	1.086219	0.180527	-0.205744
C14	C	0.942219	0.176853	-0.187068
C15	C	1.473416	-0.043514	-0.191112
C16	C	1.440632	-0.178501	-0.186862
C17	C	1.531155	-0.251552	-0.198605
C18	C	1.497273	-0.391069	-0.194213
C19	C	1.740799	0.171718	-0.225796
C20	C	1.880125	0.175273	-0.243873
C21	C	1.555025	0.400894	-0.201702
C22	C	1.587809	0.535881	-0.205957
N23	N	1.514179	0.178675	-0.018246
N24	N	1.514271	0.178695	-0.374568
C25	C	1.580641	0.096771	0.012522
C26	C	1.580647	0.096766	0.091323
C27	C	1.514207	0.178685	0.139351
C28	C	1.447730	0.260596	0.108576
C29	C	1.447715	0.260591	0.029778
C30	C	1.522699	0.289275	0.263086
C31	C	1.522723	0.289282	0.341882
C32	C	1.514244	0.178700	0.382393
C33	C	1.505767	0.068107	0.344095
C34	C	1.505753	0.068102	0.265297
C35	C	1.514215	0.178699	0.224796
C36	C	1.580716	0.096783	0.498605
C37	C	1.580713	0.096776	0.577409
C38	C	1.447804	0.260617	0.594659
C39	C	1.447799	0.260613	0.515858
C40	C	1.514262	0.178698	0.467835
H41	H	1.633739	-0.210806	-0.211906
H42	H	0.888780	0.175492	-0.124611
H43	H	1.094873	0.180746	-0.086494
H44	H	1.394683	-0.431810	-0.180911
H45	H	1.690400	-0.423380	-0.219320
H46	H	1.139664	0.181901	-0.268196
H47	H	1.338048	-0.219247	-0.173562
C48	C	1.653812	0.006664	0.445779
N49	N	1.708866	-0.061216	0.405992
H50	H	1.634756	0.030068	-0.026576
C51	C	1.496412	-0.053547	0.223174
N52	N	1.489369	-0.145176	0.191449
C53	C	1.653780	0.006673	0.125173
N54	N	1.708869	-0.061180	0.150666
C55	C	0.952312	0.177120	-0.328250
N56	N	1.006684	0.178510	-0.391802
H57	H	1.498862	-0.021939	0.377077
H58	H	1.634830	0.030073	0.602460
C59	C	1.532028	0.410932	0.218532
N60	N	1.539054	0.502561	0.184974
H61	H	1.393701	0.327313	0.633764
C62	C	1.374793	0.350805	0.481999
N63	N	1.319836	0.418768	0.456492
H64	H	1.529633	0.379333	0.373057
C65	C	1.374639	0.350702	0.161410
N66	N	1.319579	0.418569	0.201205
C67	C	1.374664	0.350749	-0.004075
N68	N	1.319666	0.418678	-0.029578
