data_functionalizedCrystal
_audit_creation_method	'MofGen! by Chris Wilmer'
_symmetry_space_group_name_H-M	'P1'
_symmetry_Int_Tables_number	1
_symmetry_cell_setting	triclinic
loop_
_symmetry_equiv_pos_as_xyz
  x,y,z
_cell_length_a	12.759401
_cell_length_b	29.839131
_cell_length_c	12.759393
_cell_angle_alpha	89.954405
_cell_angle_beta	89.981425
_cell_angle_gamma	90.035655
loop_
_atom_site_label
_atom_site_type_symbol
_atom_site_fract_x
_atom_site_fract_y
_atom_site_fract_z
Zn1	Zn	1.606105	-0.178822	-0.593883
Zn2	Zn	1.605937	-0.253960	-0.418160
Zn3	Zn	1.430407	-0.178845	-0.418222
Zn4	Zn	1.430333	-0.253926	-0.593801
O5	O	1.518195	-0.216388	-0.506016
O6	O	1.753104	-0.188793	-0.570581
O7	O	1.582613	-0.244020	-0.271147
O8	O	1.453816	-0.115975	-0.441584
O9	O	1.752980	-0.243997	-0.441478
O10	O	1.582900	-0.115958	-0.570641
O11	O	1.453652	-0.188834	-0.271192
O12	O	1.283376	-0.188801	-0.441504
O13	O	1.453689	-0.243939	-0.740833
O14	O	1.283322	-0.243962	-0.570502
O15	O	1.582828	-0.188760	-0.740893
O16	O	1.582541	-0.316823	-0.441399
O17	O	1.453525	-0.316797	-0.570442
C18	C	1.245228	-0.216380	-0.506001
C19	C	1.128451	-0.216388	-0.506020
C20	C	1.518035	-0.333111	-0.505928
C21	C	1.518063	-0.383045	-0.505925
C22	C	1.073654	-0.187695	-0.573347
C23	C	0.963930	-0.187700	-0.573354
C24	C	0.963810	-0.245094	-0.438704
C25	C	1.073532	-0.245087	-0.438692
C26	C	1.585395	-0.692645	-0.573312
C27	C	1.585509	-0.880318	-0.573375
O28	O	1.642600	-0.904545	-0.630605
N29	N	1.518374	-0.903830	-0.506133
C30	C	1.451200	-0.880422	-0.438875
O31	O	1.394093	-0.904727	-0.381690
C32	C	1.451082	-0.692750	-0.438818
C33	C	1.518229	-0.669239	-0.506057
C34	C	1.652536	-0.669134	-0.640547
C35	C	1.652511	-0.622219	-0.640526
C36	C	1.585345	-0.598814	-0.573271
C37	C	1.518204	-0.622324	-0.506037
C38	C	1.383904	-0.669342	-0.371566
C39	C	1.383878	-0.622421	-0.371559
C40	C	1.451026	-0.598911	-0.438799
C41	C	1.451013	-0.552003	-0.438761
N42	N	1.518148	-0.528491	-0.506003
C43	C	1.585314	-0.551896	-0.573259
C44	C	1.451269	-0.978952	-0.438908
C45	C	1.451300	-1.025870	-0.438921
C46	C	1.585607	-1.025763	-0.573423
C47	C	1.585581	-0.978844	-0.573404
C48	C	1.518404	-0.955440	-0.506150
C49	C	1.585257	-0.453370	-0.573210
C50	C	1.585229	-0.406450	-0.573180
C51	C	1.450918	-0.406562	-0.438682
C52	C	1.450949	-0.453477	-0.438707
C53	C	1.518122	-0.476880	-0.505980
O54	O	1.393943	-0.527747	-0.381570
O55	O	1.642397	-0.527582	-0.630451
C56	C	1.585420	-0.739560	-0.573333
C57	C	1.518279	-0.763070	-0.506098
C58	C	1.451113	-0.739665	-0.438843
C59	C	1.518310	-0.809988	-0.506111
C60	C	1.585476	-0.833393	-0.573366
C61	C	1.652611	-0.809881	-0.640608
C62	C	1.652586	-0.762965	-0.640588
C63	C	1.383978	-0.763178	-0.371600
C64	C	1.384009	-0.810093	-0.371626
C65	C	1.451176	-0.833498	-0.438881
C66	C	1.792229	-0.216396	-0.506032
C67	C	1.909005	-0.216400	-0.506038
C68	C	1.518269	-0.216343	-0.780050
C69	C	1.518300	-0.216323	-0.896827
C70	C	1.518385	-0.099210	-0.506128
C71	C	1.518466	-0.049275	-0.506176
C72	C	1.451174	-0.187583	-0.951712
C73	C	1.451199	-0.187569	-1.061436
C74	C	1.585484	-0.245038	-1.061380
C75	C	1.585453	-0.245054	-0.951658
C76	C	1.518183	-0.216401	-0.233049
C77	C	1.518355	-0.216294	-0.116273
H78	H	0.919320	-0.164335	-0.628178
C79	C	0.903394	-0.276665	-0.364656
C80	C	0.827942	-0.257162	-0.282273
C81	C	0.767528	-0.288735	-0.208226
C82	C	0.782565	-0.339810	-0.216562
C83	C	0.858020	-0.359315	-0.298948
C84	C	0.918434	-0.327742	-0.372995
H85	H	0.816808	-0.219352	-0.276099
H86	H	0.711671	-0.274296	-0.147239
H87	H	0.737843	-0.363182	-0.161749
H88	H	0.869154	-0.397126	-0.305122
H89	H	0.974291	-0.342181	-0.433983
H90	H	1.396564	-0.959900	-0.384139
C91	C	1.659297	-0.276670	-0.891276
C92	C	1.733173	-0.308268	-0.951583
C93	C	1.807009	-0.339885	-0.891200
C94	C	1.806970	-0.339903	-0.770510
C95	C	1.733092	-0.308304	-0.710196
C96	C	1.659256	-0.276687	-0.770579
H97	H	1.733204	-0.308256	-1.040931
H98	H	1.861698	-0.363277	-0.935849
H99	H	1.861629	-0.363308	-0.725811
H100	H	1.733061	-0.308316	-0.620848
H101	H	1.604566	-0.253295	-0.725930
C102	C	1.377445	-1.051729	-0.364948
C103	C	1.294953	-1.083996	-0.410409
C104	C	1.221091	-1.109853	-0.336439
C105	C	1.229722	-1.103443	-0.217009
C106	C	1.312217	-1.071174	-0.171543
C107	C	1.386079	-1.045317	-0.245512
H108	H	1.288562	-1.088743	-0.498823
H109	H	1.160023	-1.133741	-0.370097
H110	H	1.175045	-1.122584	-0.162253
H111	H	1.318609	-1.066427	-0.083128
H112	H	1.447147	-1.021429	-0.211854
H113	H	1.396235	-0.387498	-0.383921
C114	C	1.133817	-0.276651	-0.364627
C115	C	1.254507	-0.276641	-0.364612
C116	C	1.314793	-0.308201	-0.290547
C117	C	1.254389	-0.339773	-0.216497
C118	C	1.133692	-0.339784	-0.216510
C119	C	1.073406	-0.308223	-0.290575
H120	H	1.299228	-0.253269	-0.419430
H121	H	1.404141	-0.308193	-0.290538
H122	H	1.299016	-0.363136	-0.161670
H123	H	1.088971	-0.363156	-0.161692
H124	H	0.984058	-0.308232	-0.290584
C125	C	1.726443	-0.737107	-0.714559
C126	C	1.680858	-0.704838	-0.796999
C127	C	1.754717	-0.678983	-0.870976
C128	C	1.874160	-0.685398	-0.862514
C129	C	1.919751	-0.717669	-0.780070
C130	C	1.845892	-0.743523	-0.706093
H131	H	1.592434	-0.700088	-0.803267
H132	H	1.720967	-0.655094	-0.932006
H133	H	1.928835	-0.666259	-0.917276
H134	H	2.008176	-0.722419	-0.773803
H135	H	1.879642	-0.767412	-0.645063
C136	C	1.310025	-0.695193	-0.297610
C137	C	1.318632	-0.688781	-0.178179
C138	C	1.244741	-0.714630	-0.104223
C139	C	1.162243	-0.746891	-0.149698
C140	C	1.153633	-0.753304	-0.269135
C141	C	1.227523	-0.727455	-0.343091
H142	H	1.379705	-0.664898	-0.144510
H143	H	1.251116	-0.709882	-0.015807
H144	H	1.107545	-0.766026	-0.094951
H145	H	1.092560	-0.777187	-0.302804
H146	H	1.221149	-0.732203	-0.431507
H147	H	1.118367	-0.164326	-0.628167
C148	C	1.659152	-0.479109	-0.647203
C149	C	1.778586	-0.472612	-0.638718
C150	C	1.852486	-0.498351	-0.712704
C151	C	1.806951	-0.530587	-0.795175
C152	C	1.687511	-0.537085	-0.803663
C153	C	1.613611	-0.511346	-0.729677
H154	H	1.812299	-0.448747	-0.577665
H155	H	1.940904	-0.493540	-0.706420
H156	H	1.861656	-0.549640	-0.849943
H157	H	1.653798	-0.560949	-0.864715
H158	H	1.525193	-0.516157	-0.735961
H159	H	1.639912	-0.387310	-0.627934
H160	H	1.396537	-0.164166	-1.106119
C161	C	1.659436	-0.952985	-0.647374
C162	C	1.741930	-0.920716	-0.601921
C163	C	1.815786	-0.894860	-0.675897
C164	C	1.807150	-0.901272	-0.795326
C165	C	1.724653	-0.933542	-0.840785
C166	C	1.650796	-0.959399	-0.766810
H167	H	1.748326	-0.915968	-0.513507
H168	H	1.876856	-0.870971	-0.642244
H169	H	1.861823	-0.882131	-0.850087
H170	H	1.718256	-0.938290	-0.929199
H171	H	1.589726	-0.983287	-0.800462
C172	C	1.659488	-1.051513	-0.647410
C173	C	1.742015	-1.083757	-0.601972
C174	C	1.815886	-1.109510	-0.675961
C175	C	1.807231	-1.103018	-0.795387
C176	C	1.724701	-1.070772	-0.840832
C177	C	1.650830	-1.045020	-0.766843
H178	H	1.748425	-1.088564	-0.513560
H179	H	1.876980	-1.133380	-0.642319
H180	H	1.861914	-1.122082	-0.850158
H181	H	1.718291	-1.065966	-0.929244
H182	H	1.589736	-1.021150	-0.800484
H183	H	1.707185	-0.603079	-0.695281
H184	H	1.707230	-0.688186	-0.695320
H185	H	1.329171	-0.603367	-0.316794
C186	C	1.377102	-0.479344	-0.364735
C187	C	1.385744	-0.472942	-0.245304
C188	C	1.311892	-0.498805	-0.171337
C189	C	1.229398	-0.531071	-0.216802
C190	C	1.220753	-0.537474	-0.336240
C191	C	1.294605	-0.511611	-0.410207
H192	H	1.446814	-0.449056	-0.211643
H193	H	1.318292	-0.494065	-0.082921
H194	H	1.174728	-0.550216	-0.162047
H195	H	1.159683	-0.561360	-0.369901
H196	H	1.288205	-0.516351	-0.498622
H197	H	1.707304	-0.828945	-0.695366
C198	C	1.310138	-0.835951	-0.297657
C199	C	1.318757	-0.829544	-0.178225
C200	C	1.244879	-0.855399	-0.104268
C201	C	1.162382	-0.887661	-0.149743
C202	C	1.153760	-0.894069	-0.269181
C203	C	1.227638	-0.868214	-0.343138
H204	H	1.379829	-0.805661	-0.144557
H205	H	1.251262	-0.850655	-0.015852
H206	H	1.107693	-0.906800	-0.094995
H207	H	1.092688	-0.917952	-0.302850
H208	H	1.221255	-0.872958	-0.431554
H209	H	1.640158	-0.268429	-1.106037
H210	H	1.329282	-0.744125	-0.316834
H211	H	1.396494	-0.164189	-0.907071
