data_functionalizedCrystal
_audit_creation_method	'MofGen! by Chris Wilmer'
_symmetry_space_group_name_H-M	'P1'
_symmetry_Int_Tables_number	1
_symmetry_cell_setting	triclinic
loop_
_symmetry_equiv_pos_as_xyz
  x,y,z
_cell_length_a	27.731994
_cell_length_b	27.732048
_cell_length_c	26.809956
_cell_angle_alpha	90.000636
_cell_angle_beta	89.997334
_cell_angle_gamma	97.368405
loop_
_atom_site_label
_atom_site_type_symbol
_atom_site_fract_x
_atom_site_fract_y
_atom_site_fract_z
O1	O	0.640948	-0.057385	-0.041414
O2	O	0.500151	-0.066158	-0.041431
O3	O	0.574922	0.008626	-0.041412
O4	O	0.566177	-0.132169	-0.041432
O5	O	0.574908	0.008614	0.041547
O6	O	0.500137	-0.066170	0.041528
O7	O	0.640934	-0.057397	0.041545
Zn8	Zn	0.570533	-0.061785	0.054708
Zn9	Zn	0.570552	-0.061770	-0.054594
O10	O	0.566163	-0.132181	0.041527
C11	C	0.482137	-0.065984	0.000046
C12	C	0.428480	-0.065442	0.000040
C13	C	0.095754	-0.062032	0.045281
C14	C	-0.105904	-0.059970	0.045287
O15	O	-0.131983	-0.059688	0.083746
N16	N	-0.131111	-0.059708	0.000066
C17	C	-0.105900	-0.059958	-0.045160
O18	O	-0.131967	-0.059683	-0.083623
C19	C	0.095757	-0.062016	-0.045165
C20	C	0.120961	-0.062283	0.000059
C21	C	0.120958	-0.062299	0.090501
C22	C	0.171369	-0.062817	0.090499
C23	C	0.196576	-0.063068	0.045277
C24	C	0.171372	-0.062802	0.000057
C25	C	0.120968	-0.062263	-0.090390
C26	C	0.171386	-0.062776	-0.090388
C27	C	0.196590	-0.063043	-0.045164
C28	C	0.246991	-0.063571	-0.045167
N29	N	0.272198	-0.063833	0.000054
C30	C	0.246991	-0.063582	0.045276
C31	C	-0.211774	-0.058879	-0.045154
C32	C	-0.262188	-0.058365	-0.045152
C33	C	-0.262188	-0.058376	0.045294
C34	C	-0.211773	-0.058893	0.045293
C35	C	-0.186566	-0.059141	0.000067
C36	C	0.352858	-0.064670	0.045268
C37	C	0.403273	-0.065190	0.045262
C38	C	0.403269	-0.065176	-0.045184
C39	C	0.352858	-0.064659	-0.045179
C40	C	0.327654	-0.064404	0.000052
O41	O	0.273102	-0.063848	-0.083606
O42	O	0.273068	-0.063846	0.083733
C43	C	0.045343	-0.061514	0.045283
C44	C	0.020139	-0.061247	0.000063
C45	C	0.045346	-0.061499	-0.045160
C46	C	-0.030275	-0.060734	0.000064
C47	C	-0.055483	-0.060482	0.045286
C48	C	-0.030275	-0.060745	0.090507
C49	C	0.020136	-0.061263	0.090505
C50	C	0.020139	-0.061237	-0.090381
C51	C	-0.030272	-0.060719	-0.090375
C52	C	-0.055479	-0.060468	-0.045153
C53	C	0.574732	0.026627	0.000069
C54	C	0.574179	0.080282	0.000073
C55	C	0.658949	-0.057571	0.000067
C56	C	0.712605	-0.058114	0.000070
C57	C	0.566353	-0.150182	0.000045
C58	C	0.566906	-0.203837	0.000037
N59	N	0.570524	-0.061795	0.129304
C60	C	0.614884	0.419105	0.000052
C61	C	0.612833	0.620764	0.000045
O62	O	0.650055	0.652027	0.000028
N63	N	0.568496	0.639879	0.000040
C64	C	0.524670	0.608576	0.000033
O65	O	0.486912	0.629462	0.000024
C66	C	0.526721	0.406918	0.000037
C67	C	0.571061	0.387805	0.000047
C68	C	0.659220	0.399992	0.000061
C69	C	0.659732	0.349580	0.000066
C70	C	0.615908	0.318281	0.000061
C71	C	0.571573	0.337394	0.000052
C72	C	0.482895	0.375615	0.000027
C73	C	0.483412	0.325198	0.000027
C74	C	0.527751	0.306086	0.000037
C75	C	0.528262	0.255683	0.000051
N76	N	0.572598	0.236567	0.000056
C77	C	0.616421	0.267867	0.000061
C78	C	0.523596	0.714450	0.000032
C79	C	0.523083	0.764864	0.000032
C80	C	0.611246	0.777049	0.000043
C81	C	0.611759	0.726633	0.000047
C82	C	0.567932	0.695335	0.000037
C83	C	0.617494	0.161998	0.000071
C84	C	0.618002	0.111581	0.000078
C85	C	0.529839	0.099401	0.000064
C86	C	0.529331	0.149813	0.000060
C87	C	0.573162	0.181111	0.000062
O88	O	0.491060	0.224391	0.000063
O89	O	0.654174	0.246971	0.000060
C90	C	0.614372	0.469517	0.000047
C91	C	0.570036	0.488629	0.000038
C92	C	0.526213	0.457330	0.000033
C93	C	0.569523	0.539043	0.000038
C94	C	0.613346	0.570343	0.000043
C95	C	0.657683	0.551228	0.000048
C96	C	0.658195	0.500816	0.000052
C97	C	0.481876	0.476445	0.000028
C98	C	0.481367	0.526857	0.000024
C99	C	0.525191	0.558157	0.000029
N100	N	0.570565	-0.061756	-0.129190
C101	C	0.603656	-0.028664	0.473939
C102	C	0.603668	-0.028656	0.682816
O103	O	0.631818	-0.000490	0.709827
N104	N	0.570555	-0.061759	0.708931
C105	C	0.537434	-0.094864	0.682824
O106	O	0.509266	-0.123017	0.709829
C107	C	0.537420	-0.094869	0.473947
C108	C	0.570539	-0.061767	0.447835
C109	C	0.636772	0.004436	0.447826
C110	C	0.636771	0.004432	0.395610
C111	C	0.603653	-0.028672	0.369506
C112	C	0.570538	-0.061771	0.395618
C113	C	0.504298	-0.127972	0.447841
C114	C	0.504297	-0.127969	0.395618
C115	C	0.537415	-0.094867	0.369506
C116	C	0.537419	-0.094879	0.317298
N117	N	0.570532	-0.061776	0.291183
C118	C	0.603650	-0.028672	0.317287
C119	C	0.537444	-0.094860	0.792487
C120	C	0.537448	-0.094860	0.844706
C121	C	0.603681	-0.028651	0.844695
C122	C	0.603679	-0.028654	0.792475
C123	C	0.570557	-0.061757	0.766372
C124	C	0.603644	-0.028683	0.207629
C125	C	0.603641	-0.028692	0.155408
C126	C	0.537406	-0.094898	0.155424
C127	C	0.537411	-0.094892	0.207640
C128	C	0.570532	-0.061781	0.233742
O129	O	0.509280	-0.123027	0.290255
O130	O	0.631806	-0.000517	0.290273
C131	C	0.603658	-0.028660	0.526155
C132	C	0.570542	-0.061759	0.552267
C133	C	0.537425	-0.094863	0.526163
C134	C	0.570546	-0.061759	0.604486
C135	C	0.603663	-0.028655	0.630590
C136	C	0.636776	0.004448	0.604475
C137	C	0.636775	0.004444	0.552259
C138	C	0.504312	-0.127966	0.552279
C139	C	0.504316	-0.127960	0.604495
C140	C	0.537433	-0.094856	0.630599
H141	H	0.332335	-0.064449	-0.082004
O142	O	0.487227	0.069060	0.000078
C143	C	0.447980	0.096736	0.000054
H144	H	0.460526	0.134459	0.015765
H145	H	0.434385	0.100224	-0.039750
C146	C	0.391114	0.024963	0.013277
C147	C	0.406524	0.071294	0.032577
H148	H	0.365541	0.009269	0.033337
H149	H	0.417556	0.006317	0.013291
H150	H	0.379788	0.027876	-0.019893
H151	H	0.417855	0.068380	0.065744
H152	H	0.380083	0.089939	0.032569
H153	H	0.477323	-0.154925	0.374367
O154	O	-0.054695	-0.060521	0.134481
C155	C	-0.021642	-0.060852	0.174400
H156	H	0.012180	-0.076530	0.161147
H157	H	-0.010915	-0.022113	0.188309
C158	C	-0.087252	-0.073108	0.233399
C159	C	-0.045714	-0.092368	0.217122
H160	H	-0.102101	-0.092546	0.259753
H161	H	-0.109521	-0.072883	0.206505
H162	H	-0.078308	-0.040826	0.244986
H163	H	-0.054660	-0.124647	0.205530
H164	H	-0.023447	-0.092598	0.244015
O165	O	0.660040	0.192444	0.000141
C166	C	0.662382	0.221964	0.043112
H167	H	0.624030	0.224233	0.057428
H168	H	0.684322	0.205538	0.073203
C169	C	0.734213	0.270545	0.012480
C170	C	0.687109	0.273336	0.030061
H171	H	0.749467	0.302233	0.004430
H172	H	0.732636	0.250656	-0.016470
H173	H	0.752490	0.256855	0.037559
H174	H	0.668830	0.287020	0.004979
H175	H	0.688683	0.293228	0.059006
O176	O	0.701309	0.482334	0.000037
C177	C	0.739873	0.520778	0.000052
H178	H	0.726581	0.554926	-0.015656
H179	H	0.753366	0.528017	0.039853
C180	C	0.798054	0.464927	-0.013183
C181	C	0.781729	0.506867	-0.032480
H182	H	0.823874	0.456345	-0.033249
H183	H	0.772074	0.439026	-0.013192
H184	H	0.809295	0.470964	0.019984
H185	H	0.770484	0.500827	-0.065644
H186	H	0.807710	0.532766	-0.032478
H187	H	0.630647	-0.001700	0.771217
O188	O	0.440868	0.294747	0.000085
C189	C	0.438509	0.265231	0.043058
H190	H	0.476854	0.262966	0.057391
H191	H	0.416553	0.281656	0.073139
C192	C	0.366696	0.216641	0.012402
C193	C	0.413793	0.213856	0.030003
H194	H	0.351448	0.184951	0.004350
H195	H	0.368284	0.236527	-0.016549
H196	H	0.348406	0.230331	0.037472
H197	H	0.432084	0.200172	0.004931
H198	H	0.412207	0.193966	0.058950
H199	H	0.510471	-0.121818	0.771238
O200	O	0.654872	0.708150	0.000029
C201	C	0.693438	0.746592	0.000048
H202	H	0.680147	0.780742	-0.015657
H203	H	0.706931	0.753827	0.039849
C204	C	0.751615	0.690739	-0.013194
C205	C	0.735293	0.732681	-0.032487
H206	H	0.777435	0.682157	-0.033261
H207	H	0.725633	0.664839	-0.013205
H208	H	0.762856	0.696772	0.019973
H209	H	0.724047	0.726645	-0.065652
H210	H	0.761274	0.758579	-0.032483
O211	O	0.661063	0.092993	0.000173
C212	C	0.663989	0.064189	0.043134
H213	H	0.638815	0.075924	0.073161
H214	H	0.652539	0.024343	0.033422
C215	C	0.747578	0.056287	0.025741
C216	C	0.716662	0.070702	0.062623
H217	H	0.780069	0.060302	0.037762
H218	H	0.745607	0.075691	-0.003204
H219	H	0.738030	0.023082	0.017651
H220	H	0.726206	0.103907	0.070708
H221	H	0.718636	0.051304	0.091569
O222	O	-0.286670	-0.058215	0.089236
C223	C	-0.280140	-0.100214	0.116757
H224	H	-0.270324	-0.129629	0.090301
H225	H	-0.249573	-0.091044	0.144960
C226	C	-0.339611	-0.082615	0.176955
C227	C	-0.327560	-0.118745	0.144460
H228	H	-0.368861	-0.094045	0.194046
H229	H	-0.344010	-0.054318	0.158415
H230	H	-0.314135	-0.074976	0.200453
H231	H	-0.353033	-0.126378	0.120960
H232	H	-0.323167	-0.147044	0.162997
H233	H	0.332342	-0.064467	0.082099
O234	O	0.653773	0.807526	0.000021
C235	C	0.643806	0.856119	0.000031
H236	H	0.605851	0.857761	-0.015673
H237	H	0.645749	0.870718	0.039829
C238	C	0.728184	0.885246	-0.013220
C239	C	0.681568	0.887263	-0.032511
H240	H	0.751478	0.904458	-0.033291
H241	H	0.734899	0.852508	-0.013224
H242	H	0.729795	0.897411	0.019945
H243	H	0.679955	0.875092	-0.065673
H244	H	0.674853	0.919999	-0.032513
H245	H	0.493226	0.165375	0.000066
H246	H	0.040652	-0.061480	0.127331
H247	H	0.477329	-0.154926	0.469094
H248	H	0.663740	0.031395	0.469075
H249	H	0.695837	0.334024	0.000072
H250	H	0.477343	-0.154922	0.531029
O251	O	0.195861	-0.063155	0.134417
C252	C	0.219244	-0.105325	0.137121
H253	H	0.200009	-0.134443	0.111457
H254	H	0.258762	-0.096244	0.124975
C255	C	0.241010	-0.088559	0.222670
C256	C	0.217383	-0.124324	0.191152
H257	H	0.239865	-0.100278	0.256000
H258	H	0.225258	-0.060147	0.220848
H259	H	0.273940	-0.080995	0.212543
H260	H	0.184452	-0.131883	0.201276
H261	H	0.233129	-0.152738	0.192977
O262	O	0.505255	-0.127005	0.129984
C263	C	0.512365	-0.119912	0.078296
H264	H	0.530726	-0.081354	0.071167
H265	H	0.536399	-0.147105	0.063474
C266	C	0.440312	-0.174876	0.060243
C267	C	0.462860	-0.127516	0.051487
H268	H	0.409776	-0.179569	0.043705
H269	H	0.435523	-0.179657	0.095066
H270	H	0.460345	-0.197531	0.047891
H271	H	0.442830	-0.104862	0.063844
H272	H	0.467645	-0.122732	0.016665
O273	O	0.505193	-0.127065	0.232932
C274	C	0.475972	-0.156292	0.198691
H275	H	0.475582	-0.136482	0.161464
H276	H	0.491392	-0.192095	0.193145
C277	C	0.424228	-0.190945	0.264791
C278	C	0.423746	-0.166612	0.219069
H279	H	0.392013	-0.197313	0.277361
H280	H	0.443916	-0.171255	0.287860
H281	H	0.437080	-0.220778	0.260163
H282	H	0.410899	-0.136777	0.223699
H283	H	0.404054	-0.186297	0.196001
H284	H	0.100440	-0.062093	0.127329
H285	H	0.694908	0.425472	0.000064
O286	O	0.635830	0.003575	0.870002
C287	C	0.628318	0.051370	0.857255
H288	H	0.609687	0.051178	0.819340
H289	H	0.604364	0.066142	0.886645
C290	C	0.700518	0.084120	0.901413
C291	C	0.677639	0.083885	0.854843
H292	H	0.730940	0.104178	0.899927
H293	H	0.705578	0.051919	0.910003
H294	H	0.680551	0.096429	0.925900
H295	H	0.697602	0.071570	0.830359
H296	H	0.672583	0.116084	0.846249
O297	O	0.505233	-0.127037	0.869991
C298	C	0.476012	-0.156260	0.835747
H299	H	0.475617	-0.136442	0.798525
H300	H	0.491435	-0.192059	0.830191
C301	C	0.424276	-0.190931	0.901844
C302	C	0.423787	-0.166590	0.856129
H303	H	0.392062	-0.197306	0.914417
H304	H	0.443963	-0.171245	0.924916
H305	H	0.437131	-0.220761	0.897208
H306	H	0.410938	-0.136758	0.860767
H307	H	0.404096	-0.186271	0.833058
H308	H	0.630612	-0.001736	0.134149
O309	O	0.479969	0.783346	0.000006
C310	C	0.441403	0.744904	0.000013
H311	H	0.454699	0.710755	-0.015690
H312	H	0.427896	0.737667	0.039811
C313	C	0.383230	0.800759	-0.013242
C314	C	0.399559	0.758818	-0.032532
H315	H	0.357417	0.809341	-0.033315
H316	H	0.409212	0.826658	-0.013244
H317	H	0.371978	0.794723	0.019923
H318	H	0.410816	0.764856	-0.065693
H319	H	0.373578	0.732919	-0.032535
O320	O	-0.187301	-0.059062	0.089236
C321	C	-0.193847	-0.017066	0.116757
H322	H	-0.203656	0.012350	0.090299
H323	H	-0.224423	-0.026242	0.144950
C324	C	-0.134393	-0.034663	0.176970
C325	C	-0.146437	0.001468	0.144474
H326	H	-0.105150	-0.023231	0.194069
H327	H	-0.129985	-0.062957	0.158430
H328	H	-0.159877	-0.042306	0.200460
H329	H	-0.120956	0.009106	0.120981
H330	H	-0.150841	0.029764	0.163011
H331	H	0.663743	0.031398	0.531002
H332	H	0.100456	-0.062045	-0.127217
H333	H	0.693365	0.576720	0.000054
O334	O	0.481051	0.684000	0.000093
C335	C	0.478695	0.654481	0.043064
H336	H	0.517041	0.652214	0.057392
H337	H	0.456743	0.670907	0.073148
C338	C	0.406877	0.605897	0.012413
C339	C	0.453975	0.603108	0.030008
H340	H	0.391626	0.574208	0.004361
H341	H	0.408463	0.625785	-0.016537
H342	H	0.388589	0.619587	0.037486
H343	H	0.472262	0.589424	0.004934
H344	H	0.452391	0.583217	0.058954
H345	H	0.663744	0.031400	0.625737
O346	O	-0.054675	-0.060440	-0.134354
C347	C	-0.021611	-0.060784	-0.174265
H348	H	0.016442	-0.045849	-0.161000
H349	H	-0.021616	-0.099631	-0.188179
C350	C	-0.083627	-0.047201	-0.233276
C351	C	-0.036890	-0.028854	-0.216985
H352	H	-0.093053	-0.027507	-0.259629
H353	H	-0.105904	-0.046971	-0.206388
H354	H	-0.083626	-0.079573	-0.244868
H355	H	-0.036894	0.003515	-0.205388
H356	H	-0.014614	-0.029078	-0.243872
O357	O	0.472076	-0.160070	0.629835
C358	C	0.424288	-0.152553	0.617061
H359	H	0.424349	-0.113852	0.602706
H360	H	0.409890	-0.179446	0.586750
C361	C	0.391380	-0.207826	0.681078
C362	C	0.391454	-0.160291	0.663450
H363	H	0.371125	-0.212600	0.709692
H364	H	0.423575	-0.212892	0.689683
H365	H	0.379382	-0.230231	0.655815
H366	H	0.403457	-0.137886	0.688712
H367	H	0.359260	-0.155221	0.654851
O368	O	0.427746	-0.065361	0.089208
C369	C	0.421207	-0.023363	0.116730
H370	H	0.411401	0.006054	0.090272
H371	H	0.390631	-0.032535	0.144925
C372	C	0.480660	-0.040967	0.176940
C373	C	0.468619	-0.004835	0.144444
H374	H	0.509905	-0.029539	0.194038
H375	H	0.485064	-0.069263	0.158400
H376	H	0.455176	-0.048607	0.200432
H377	H	0.494100	0.002800	0.120950
H378	H	0.464221	0.023463	0.162982
O379	O	-0.286591	-0.058091	-0.089128
C380	C	-0.253527	-0.058434	-0.129039
H381	H	-0.215475	-0.043494	-0.115775
H382	H	-0.253528	-0.097282	-0.142949
C383	C	-0.315547	-0.044865	-0.188051
C384	C	-0.268812	-0.026511	-0.171762
H385	H	-0.324976	-0.025176	-0.214406
H386	H	-0.337824	-0.044636	-0.161163
H387	H	-0.315542	-0.077238	-0.199640
H388	H	-0.268819	0.005858	-0.160168
H389	H	-0.246535	-0.026735	-0.198649
O390	O	0.195793	-0.063041	-0.134366
C391	C	0.162734	-0.062683	-0.174276
H392	H	0.124679	-0.077624	-0.161017
H393	H	0.162739	-0.023831	-0.188175
C394	C	0.224758	-0.076241	-0.233294
C395	C	0.178020	-0.094596	-0.217010
H396	H	0.234188	-0.095925	-0.259655
H397	H	0.247032	-0.076480	-0.206406
H398	H	0.224757	-0.043865	-0.244873
H399	H	0.178023	-0.126969	-0.205425
H400	H	0.155747	-0.094363	-0.243897
O401	O	0.439780	0.394092	-0.000007
C402	C	0.401218	0.355647	-0.000002
H403	H	0.414518	0.321499	-0.015702
H404	H	0.387708	0.348411	0.039794
C405	C	0.343040	0.411495	-0.013266
C406	C	0.359375	0.369556	-0.032552
H407	H	0.317228	0.420075	-0.033342
H408	H	0.369020	0.437397	-0.013267
H409	H	0.331785	0.405459	0.019898
H410	H	0.370635	0.375594	-0.065713
H411	H	0.333396	0.343655	-0.032557
H412	H	0.423802	-0.065383	-0.082003
H413	H	0.445258	0.542413	0.000020
H414	H	0.446189	0.450966	0.000023
H415	H	0.040658	-0.061440	-0.127207
H416	H	0.630614	-0.001720	0.228875
O417	O	0.668957	0.036638	0.370325
C418	C	0.698190	0.065846	0.404572
H419	H	0.678375	0.066245	0.441796
H420	H	0.733982	0.050406	0.410123
C421	C	0.732880	0.117577	0.338480
C422	C	0.708540	0.118070	0.384198
H423	H	0.739267	0.149791	0.325912
H424	H	0.713187	0.097898	0.315407
H425	H	0.762704	0.104708	0.343112
H426	H	0.678715	0.130933	0.379564
H427	H	0.728229	0.137752	0.407270
H428	H	-0.191255	-0.059080	-0.081984
