data_functionalizedCrystal
_audit_creation_method	'MofGen! by Chris Wilmer'
_symmetry_space_group_name_H-M	'P1'
_symmetry_Int_Tables_number	1
_symmetry_cell_setting	triclinic
loop_
_symmetry_equiv_pos_as_xyz
  x,y,z
_cell_length_a	10.967926
_cell_length_b	10.654545
_cell_length_c	10.065875
_cell_angle_alpha	98.876977
_cell_angle_beta	93.120479
_cell_angle_gamma	84.600222
loop_
_atom_site_label
_atom_site_type_symbol
_atom_site_fract_x
_atom_site_fract_y
_atom_site_fract_z
O1	O	1.614716	0.219080	0.266287
O2	O	1.264702	0.222667	0.183964
O3	O	1.447756	0.038438	0.227019
O4	O	1.431663	0.403309	0.223232
O5	O	1.412851	0.073716	0.445798
O6	O	1.229797	0.257945	0.402743
O7	O	1.579812	0.254357	0.485066
Zn8	Zn	1.399263	0.261752	0.478640
Zn9	Zn	1.445251	0.215272	0.190390
O10	O	1.396758	0.438586	0.442011
C11	C	1.202432	0.237379	0.282812
C12	C	1.068889	0.228644	0.251402
C13	C	0.991269	0.243024	0.350733
C14	C	0.853245	0.233996	0.318272
C15	C	1.429122	0.009234	0.336128
C16	C	1.425587	-0.130344	0.335289
C17	C	1.463655	-0.168813	0.096772
C18	C	1.481033	-0.253619	-0.022875
C19	C	1.477711	-0.384764	-0.023658
C20	C	1.457005	-0.431102	0.095219
C21	C	1.439628	-0.346296	0.214866
C22	C	1.442956	-0.215150	0.215637
C23	C	1.401551	-0.307827	0.453377
C24	C	1.404882	-0.176682	0.454165
C25	C	1.380846	-0.354165	0.572253
C26	C	1.363477	-0.269359	0.691905
C27	C	1.366802	-0.138207	0.692684
C28	C	1.387504	-0.091876	0.573812
C29	C	1.642082	0.239645	0.386215
C30	C	1.775627	0.248379	0.417616
C31	C	1.415392	0.467790	0.332899
C32	C	1.418929	0.607367	0.333730
N33	N	1.367886	0.293473	0.675366
N34	N	1.476638	0.183542	-0.006334
C35	C	1.434326	0.226301	0.758772
C36	C	1.410187	0.250724	0.910262
H37	H	0.817521	0.214996	0.209192
H38	H	1.509076	0.150706	0.718029
C39	C	1.010346	0.171036	0.566089
C40	C	1.039495	0.268661	0.497981
H41	H	1.040124	0.186861	0.656993
H42	H	0.923926	0.168347	0.563596
H43	H	1.047238	0.091692	0.523877
H44	H	1.002594	0.348004	0.540186
H45	H	1.125931	0.271364	0.500481
H46	H	0.811350	0.267371	0.526697
H47	H	1.390219	0.014906	0.574436
C48	C	1.226783	-0.267670	0.870675
C49	C	1.340715	-0.320296	0.822560
H50	H	1.212731	-0.299128	0.951333
H51	H	1.226294	-0.177442	0.888270
H52	H	1.164055	-0.290770	0.805058
H53	H	1.403445	-0.297188	0.888174
H54	H	1.341215	-0.410545	0.804972
H55	H	1.293128	0.369058	0.716108
C56	C	0.937044	0.304424	0.077034
C57	C	1.020670	0.203005	0.104152
H58	H	0.907285	0.288597	-0.013877
H59	H	0.870470	0.312263	0.135139
H60	H	0.976672	0.381193	0.091430
H61	H	0.981039	0.126237	0.089766
H62	H	1.087254	0.195152	0.046029
H63	H	1.466376	-0.062031	0.097401
C64	C	1.503101	-0.069669	-0.127581
C65	C	1.503831	-0.202685	-0.153531
H66	H	1.517191	-0.038233	-0.208240
H67	H	1.425808	-0.033977	-0.094966
H68	H	1.565826	-0.046590	-0.061951
H69	H	1.441100	-0.225764	-0.219154
H70	H	1.581134	-0.238390	-0.186164
H71	H	1.335424	0.326314	0.950998
H72	H	1.491850	-0.453814	-0.121087
H73	H	1.454288	-0.537887	0.094567
H74	H	1.378136	-0.460951	0.571606
H75	H	1.352632	-0.069161	0.790111
H76	H	1.551392	0.107942	0.952928
