data_functionalizedCrystal
_audit_creation_method	'MofGen! by Chris Wilmer'
_symmetry_space_group_name_H-M	'P1'
_symmetry_Int_Tables_number	1
_symmetry_cell_setting	triclinic
loop_
_symmetry_equiv_pos_as_xyz
  x,y,z
_cell_length_a	10.686220
_cell_length_b	16.959454
_cell_length_c	10.686551
_cell_angle_alpha	85.595422
_cell_angle_beta	90.308082
_cell_angle_gamma	94.401635
loop_
_atom_site_label
_atom_site_type_symbol
_atom_site_fract_x
_atom_site_fract_y
_atom_site_fract_z
Zn1	Zn	1.972261	-0.192706	-0.562392
Zn2	Zn	2.472261	0.307294	-0.062392
Zn3	Zn	1.956011	-0.335773	-0.352638
Zn4	Zn	2.456011	0.164227	0.147362
Zn5	Zn	1.746376	-0.212926	-0.368710
Zn6	Zn	2.246376	0.287074	0.131290
Zn7	Zn	1.762442	-0.334171	-0.578415
Zn8	Zn	2.262442	0.165829	-0.078415
O9	O	1.859272	-0.268894	-0.465539
O10	O	2.359272	0.231106	0.034461
O11	O	2.145648	-0.203892	-0.521135
O12	O	2.645648	0.296108	-0.021135
O13	O	1.914679	-0.328610	-0.179225
O14	O	2.414679	0.171390	0.320775
O15	O	1.776417	-0.099628	-0.394423
O16	O	2.276417	0.400372	0.105577
O17	O	2.133710	-0.309003	-0.367030
O18	O	2.633710	0.190997	0.132970
O19	O	1.942373	-0.084773	-0.536720
O20	O	2.442373	0.415227	-0.036720
O21	O	1.760661	-0.238355	-0.191033
O22	O	2.260661	0.261645	0.308967
O23	O	1.572964	-0.236801	-0.409960
O24	O	2.072964	0.263199	0.090040
O25	O	1.803798	-0.306273	-0.751835
O26	O	2.303798	0.193727	-0.251835
O27	O	1.584768	-0.325880	-0.564030
O28	O	2.084768	0.174120	-0.064030
O29	O	1.957951	-0.202339	-0.740063
O30	O	2.457951	0.297661	-0.240063
O31	O	1.930257	-0.446176	-0.382567
O32	O	2.430257	0.053824	0.117433
O33	O	1.788042	-0.444999	-0.548445
O34	O	2.288042	0.055001	-0.048445
C35	C	1.533350	-0.283361	-0.490478
C36	C	2.033350	0.216639	0.009522
C37	C	1.393921	-0.289568	-0.501177
C38	C	1.893921	0.210432	-0.001177
C39	C	1.859166	-0.474266	-0.465525
C40	C	2.359166	0.025734	0.034475
C41	C	1.859238	-0.562118	-0.465553
C42	C	2.359238	-0.062118	0.034447
C43	C	1.785337	-0.933005	-0.551894
C44	C	2.285337	-0.433005	-0.051894
C45	C	1.933567	-0.934158	-0.379285
C46	C	2.433567	-0.434158	0.120715
C47	C	1.933522	-0.851615	-0.379276
C48	C	2.433522	-0.351615	0.120724
C49	C	1.859382	-0.809763	-0.465577
C50	C	2.359382	-0.309763	0.034423
C51	C	1.785287	-0.850454	-0.551886
C52	C	2.285287	-0.350454	-0.051886
C53	C	2.007607	-0.810918	-0.292961
C54	C	2.507607	-0.310918	0.207039
C55	C	2.007564	-0.728369	-0.292948
C56	C	2.507564	-0.228369	0.207052
C57	C	1.933430	-0.686515	-0.379256
C58	C	2.433430	-0.186515	0.120744
C59	C	1.859333	-0.727212	-0.465569
C60	C	2.359333	-0.227212	0.034431
C61	C	1.785193	-0.685360	-0.551870
C62	C	2.285193	-0.185360	-0.051870
C63	C	1.711101	-0.726054	-0.638190
C64	C	2.211101	-0.226054	-0.138190
C65	C	1.711153	-0.808600	-0.638193
C66	C	2.211153	-0.308600	-0.138193
C67	C	1.933378	-0.603970	-0.379252
C68	C	2.433378	-0.103970	0.120748
C69	C	1.785143	-0.602809	-0.551862
C70	C	2.285143	-0.102809	-0.051862
C71	C	2.186468	-0.254371	-0.440502
C72	C	2.686468	0.245629	0.059498
C73	C	2.325899	-0.248182	-0.429834
C74	C	2.825899	0.251818	0.070166
C75	C	1.884480	-0.251872	-0.792738
C76	C	2.384480	0.248128	-0.292738
C77	C	1.895221	-0.244618	-0.932171
C78	C	2.395221	0.255382	-0.432171
C79	C	1.859416	-0.062717	-0.465577
C80	C	2.359416	0.437283	0.034423
C81	C	1.859477	0.025143	-0.465593
C82	C	2.359477	0.525143	0.034407
C83	C	1.834236	-0.285790	-0.139606
C84	C	2.334236	0.214210	0.360394
C85	C	1.823737	-0.292810	-0.000156
C86	C	2.323737	0.207190	0.499844
H87	H	1.374330	-0.208002	-0.360567
H88	H	1.874330	0.291998	0.139433
H89	H	1.345483	-0.329756	-0.570441
H90	H	1.845483	0.170244	-0.070441
H91	H	1.724774	-0.568738	-0.622143
H92	H	2.224774	-0.068738	-0.122143
O93	O	2.087489	-0.684484	-0.199860
O94	O	2.587489	-0.184484	0.300140
H95	H	2.075001	-0.620053	-0.214349
H96	H	2.575001	-0.120053	0.285651
O97	O	2.013289	-0.560069	-0.286179
O98	O	2.513289	-0.060069	0.213821
H99	H	1.984290	-0.582005	-0.189342
H100	H	2.484290	-0.082005	0.310658
O101	O	1.631137	-0.680913	-0.731273
O102	O	2.131137	-0.180913	-0.231273
H103	H	1.643558	-0.616678	-0.716760
H104	H	2.143558	-0.116678	-0.216760
H105	H	1.754322	-0.339621	-0.951689
H106	H	2.254322	0.160379	-0.451689
H107	H	1.650830	-0.841741	-0.708469
H108	H	2.150830	-0.341741	-0.208469
O109	O	1.987165	-0.182594	-0.996362
O110	O	2.487165	0.317406	-0.496362
H111	H	1.981445	-0.186426	-1.099480
H112	H	2.481445	0.313574	-0.599480
H113	H	1.725017	-0.966141	-0.622177
H114	H	2.225017	-0.466141	-0.122177
H115	H	1.993921	-0.968239	-0.309016
H116	H	2.493921	-0.468239	0.190984
H117	H	2.067958	-0.845000	-0.222691
H118	H	2.567958	-0.345000	0.277309
