data_functionalizedCrystal
_audit_creation_method	'MofGen! by Chris Wilmer'
_symmetry_space_group_name_H-M	'P1'
_symmetry_Int_Tables_number	1
_symmetry_cell_setting	triclinic
loop_
_symmetry_equiv_pos_as_xyz
  x,y,z
_cell_length_a	14.519709
_cell_length_b	17.666332
_cell_length_c	14.519709
_cell_angle_alpha	90.000270
_cell_angle_beta	83.680144
_cell_angle_gamma	90.003734
loop_
_atom_site_label
_atom_site_type_symbol
_atom_site_fract_x
_atom_site_fract_y
_atom_site_fract_z
O1	O	1.223874	0.062839	0.120893
O2	O	1.723874	0.562839	0.620893
O3	O	0.955397	0.062861	0.135129
O4	O	1.455397	0.562861	0.635129
O5	O	1.096754	0.062856	-0.006227
O6	O	1.596754	0.562856	0.493773
O7	O	1.082517	0.062844	0.262250
O8	O	1.582517	0.562844	0.762250
O9	O	1.096729	-0.063040	-0.006235
O10	O	1.596729	0.436960	0.493765
O11	O	0.955372	-0.063036	0.135122
O12	O	1.455372	0.436964	0.635122
O13	O	1.223849	-0.063058	0.120885
O14	O	1.723849	0.436942	0.620885
Cu15	Cu	1.089608	-0.074542	0.128003
Cu16	Cu	1.589608	0.425458	0.628003
Cu17	Cu	1.089638	0.074345	0.128012
Cu18	Cu	1.589638	0.574345	0.628012
O19	O	1.082492	-0.063053	0.262242
O20	O	1.582492	0.436947	0.762242
C21	C	0.921025	-0.000084	0.134462
C22	C	1.421025	0.499916	0.634462
C23	C	0.818643	-0.000076	0.132474
C24	C	1.318643	0.499924	0.632474
N25	N	1.089594	-0.179262	0.127996
N26	N	1.589594	0.320738	0.627996
C27	C	0.443748	-0.000110	0.125154
C28	C	0.943748	0.499890	0.625154
C29	C	0.548056	-0.000100	0.127187
C30	C	1.048056	0.499900	0.627187
C31	C	0.631192	-0.000092	0.128814
C32	C	1.131192	0.499908	0.628814
C33	C	0.735507	-0.000084	0.130847
C34	C	1.235507	0.499916	0.630847
C35	C	1.152207	-0.218873	0.065434
C36	C	1.652207	0.281127	0.565434
C37	C	1.152213	-0.298121	0.065429
C38	C	1.652213	0.201879	0.565429
C39	C	1.089614	-0.337754	0.128003
C40	C	1.589614	0.162246	0.628003
C41	C	1.026989	-0.298132	0.190570
C42	C	1.526989	0.201868	0.690570
C43	C	1.026979	-0.218886	0.190566
C44	C	1.526979	0.281114	0.690566
N45	N	1.078009	-0.462176	0.209587
N46	N	1.578009	0.037824	0.709587
N47	N	1.078024	-0.537456	0.209587
N48	N	1.578024	-0.037456	0.709587
C49	C	1.089638	-0.576518	0.128016
C50	C	1.589638	-0.076518	0.628016
N51	N	1.101255	-0.537455	0.046442
N52	N	1.601255	-0.037455	0.546442
N53	N	1.101245	-0.462168	0.046442
N54	N	1.601245	0.037832	0.546442
C55	C	1.089617	-0.423683	0.128013
C56	C	1.589617	0.076317	0.628013
C57	C	1.152261	-0.702059	0.065444
C58	C	1.652261	-0.202059	0.565444
C59	C	1.152259	-0.781308	0.065438
C60	C	1.652259	-0.281308	0.565438
C61	C	1.027040	-0.781318	0.190587
C62	C	1.527040	-0.281318	0.690587
C63	C	1.027037	-0.702070	0.190584
C64	C	1.527037	-0.202070	0.690584
C65	C	1.089652	-0.662446	0.128014
C66	C	1.589652	-0.162446	0.628014
C67	C	1.258221	-0.000111	0.121553
C68	C	1.758221	0.499889	0.621553
C69	C	1.360602	-0.000115	0.123541
C70	C	1.860602	0.499885	0.623541
N71	N	1.089659	0.179065	0.128011
N72	N	1.589659	0.679065	0.628011
C73	C	1.083168	-0.000106	0.296605
C74	C	1.583168	0.499894	0.796605
C75	C	1.085156	-0.000112	0.398987
C76	C	1.585156	0.499888	0.898987
C77	C	1.096078	-0.000089	-0.040591
C78	C	1.596078	0.499911	0.459409
C79	C	1.094090	-0.000078	-0.142972
C80	C	1.594090	0.499922	0.357028
C81	C	1.092476	-0.000082	0.773883
C82	C	1.592476	0.499918	1.273883
C83	C	1.090443	-0.000091	0.669575
C84	C	1.590443	0.499909	1.169575
C85	C	1.088816	-0.000098	0.586438
C86	C	1.588816	0.499902	1.086438
C87	C	1.086783	-0.000105	0.482123
C88	C	1.586783	0.499895	0.982123
H89	H	1.203190	-0.186613	0.014483
H90	H	1.703190	0.313387	0.514483
O91	O	1.219795	-0.824032	-0.002049
O92	O	1.719795	-0.324032	0.497951
H93	H	1.209276	-0.885795	0.008455
H94	H	1.709276	-0.385795	0.508455
H95	H	1.203243	-0.669795	0.014492
H96	H	1.703243	-0.169795	0.514492
H97	H	0.976067	-0.813586	0.241532
H98	H	1.476067	-0.313586	0.741532
H99	H	1.203202	-0.330379	0.014482
H100	H	1.703202	0.169621	0.514482
H101	H	0.976018	-0.330405	0.241517
H102	H	1.476018	0.169595	0.741517
O103	O	0.959451	-0.176154	0.258053
O104	O	1.459451	0.323846	0.758053
H105	H	0.915924	-0.217023	0.301569
H106	H	1.415924	0.282977	0.801569
H107	H	0.976055	-0.669816	0.241532
H108	H	1.476055	-0.169816	0.741532
