data_functionalizedCrystal
_audit_creation_method	'MofGen! by Chris Wilmer'
_symmetry_space_group_name_H-M	'P1'
_symmetry_Int_Tables_number	1
_symmetry_cell_setting	triclinic
loop_
_symmetry_equiv_pos_as_xyz
  x,y,z
_cell_length_a	21.295417
_cell_length_b	19.121102
_cell_length_c	21.295411
_cell_angle_alpha	87.545010
_cell_angle_beta	90.028718
_cell_angle_gamma	92.415380
loop_
_atom_site_label
_atom_site_type_symbol
_atom_site_fract_x
_atom_site_fract_y
_atom_site_fract_z
Zn1	Zn	-0.291757	-1.073671	0.396909
Zn2	Zn	0.041576	-0.740337	0.730242
Zn3	Zn	0.374909	-0.407004	1.063576
Zn4	Zn	-0.397019	-1.073578	0.291631
Zn5	Zn	-0.063685	-0.740245	0.624964
Zn6	Zn	0.269648	-0.406912	0.958298
Zn7	Zn	-0.287273	-0.956227	0.287170
Zn8	Zn	0.046060	-0.622894	0.620503
Zn9	Zn	0.379394	-0.289560	0.953836
Zn10	Zn	-0.392493	-0.956176	0.392380
Zn11	Zn	-0.059159	-0.622843	0.725713
Zn12	Zn	0.274174	-0.289510	1.059046
O13	O	-0.342135	-1.014913	0.342022
O14	O	-0.008802	-0.681580	0.675356
O15	O	0.324531	-0.348246	1.008689
O16	O	-0.309491	-1.171942	0.386706
O17	O	0.023842	-0.838609	0.720040
O18	O	0.357175	-0.505275	1.053373
O19	O	-0.382478	-1.057994	0.202949
O20	O	-0.049145	-0.724661	0.536282
O21	O	0.284189	-0.391327	0.869616
O22	O	-0.199781	-0.971866	0.301755
O23	O	0.133553	-0.638533	0.635089
O24	O	0.466886	-0.305199	0.968422
O25	O	-0.386826	-1.171874	0.309359
O26	O	-0.053493	-0.838541	0.642692
O27	O	0.279840	-0.505208	0.976026
O28	O	-0.203075	-1.058151	0.382380
O29	O	0.130258	-0.724818	0.715714
O30	O	0.463591	-0.391485	1.049047
O31	O	-0.301848	-0.971777	0.199671
O32	O	0.031485	-0.638443	0.533005
O33	O	0.364818	-0.305110	0.866338
O34	O	-0.297460	-0.857936	0.297363
O35	O	0.035874	-0.524603	0.630697
O36	O	0.369207	-0.191270	0.964030
O37	O	-0.379113	-0.971779	0.481071
O38	O	-0.045779	-0.638446	0.814404
O39	O	0.287554	-0.305113	1.147737
O40	O	-0.374764	-0.857899	0.374661
O41	O	-0.041431	-0.524566	0.707994
O42	O	0.291902	-0.191232	1.041327
O43	O	-0.305103	-1.058102	0.484398
O44	O	0.028230	-0.724769	0.817732
O45	O	0.361564	-0.391435	1.151065
O46	O	-0.484505	-1.057945	0.304967
O47	O	-0.151172	-0.724611	0.638300
O48	O	0.182161	-0.391278	0.971634
O49	O	-0.481180	-0.971690	0.378987
O50	O	-0.147847	-0.638357	0.712320
O51	O	0.185486	-0.305023	1.045653
C52	C	-0.335135	-0.832434	0.335037
C53	C	-0.001801	-0.499101	0.668370
C54	C	0.331532	-0.165767	1.001703
C55	C	-0.332155	-0.754369	0.332063
C56	C	0.001178	-0.421035	0.665397
C57	C	0.334512	-0.087702	0.998730
C58	C	-0.505684	-1.014821	0.341984
C59	C	-0.172350	-0.681488	0.675317
C60	C	0.160983	-0.348154	1.008651
C61	C	-0.575653	-1.014846	0.341991
C62	C	-0.242319	-0.681512	0.675324
C63	C	0.091014	-0.348179	1.008658
C64	C	-0.342103	-1.014945	0.506214
C65	C	-0.008770	-0.681612	0.839547
C66	C	0.324563	-0.348279	1.172881
C67	C	-0.342089	-1.014959	0.576183
C68	C	-0.008756	-0.681626	0.909516
C69	C	0.324577	-0.348292	1.242849
C70	C	-0.610231	-1.059799	0.303492
C71	C	-0.276898	-0.726465	0.636825
C72	C	0.056435	-0.393132	0.970158
C73	C	-0.675975	-1.059832	0.303507
C74	C	-0.342642	-0.726498	0.636841
C75	C	-0.009308	-0.393165	0.970174
C76	C	-0.707137	-1.014899	0.342015
C77	C	-0.373804	-0.681566	0.675348
C78	C	-0.040471	-0.348232	1.008681
C79	C	-0.672550	-0.969943	0.380522
C80	C	-0.339217	-0.636610	0.713855
C81	C	-0.005884	-0.303276	1.047188
C82	C	-0.606808	-0.969917	0.380510
C83	C	-0.273475	-0.636583	0.713843
C84	C	0.059859	-0.303250	1.047177
N85	N	-0.808050	-0.953459	0.344462
N86	N	-0.474717	-0.620125	0.677795
N87	N	-0.141383	-0.286792	1.011128
N88	N	-0.870503	-0.953486	0.344469
N89	N	-0.537169	-0.620153	0.677803
N90	N	-0.203836	-0.286819	1.011136
C91	C	-0.905215	-1.014978	0.342054
C92	C	-0.571882	-0.681644	0.675387
C93	C	-0.238548	-0.348311	1.008721
N94	N	-0.875115	-1.076443	0.339618
N95	N	-0.541782	-0.743109	0.672952
N96	N	-0.208449	-0.409776	1.006285
N97	N	-0.812657	-1.076415	0.339607
N98	N	-0.479324	-0.743081	0.672941
N99	N	-0.145991	-0.409748	1.006274
C100	C	-0.778423	-1.014923	0.342032
C101	C	-0.445090	-0.681590	0.675366
C102	C	-0.111757	-0.348257	1.008699
C103	C	-1.011081	-1.059970	0.303569
C104	C	-0.677747	-0.726637	0.636903
C105	C	-0.344414	-0.393303	0.970236
C106	C	-1.076826	-1.060004	0.303589
C107	C	-0.743492	-0.726671	0.636923
C108	C	-0.410159	-0.393337	0.970256
C109	C	-1.073399	-0.970110	0.380600
C110	C	-0.740066	-0.636776	0.713934
C111	C	-0.406733	-0.303443	1.047267
C112	C	-1.007656	-0.970082	0.380584
C113	C	-0.674323	-0.636748	0.713917
C114	C	-0.340989	-0.303415	1.047251
C115	C	-0.976500	-1.015011	0.342065
C116	C	-0.643167	-0.681678	0.675398
C117	C	-0.309834	-0.348344	1.008732
C118	C	-0.177949	-1.015025	0.342075
C119	C	0.155384	-0.681691	0.675409
C120	C	0.488717	-0.348358	1.008742
C121	C	-0.107983	-1.015072	0.342098
C122	C	0.225350	-0.681739	0.675431
C123	C	0.558684	-0.348405	1.008765
C124	C	-0.349164	-1.198105	0.349036
C125	C	-0.015831	-0.864771	0.682369
C126	C	0.317503	-0.531438	1.015702
C127	C	-0.352159	-1.276170	0.352024
C128	C	-0.018826	-0.942837	0.685358
C129	C	0.314507	-0.609503	1.018691
C130	C	-0.371064	-0.717692	0.370848
C131	C	-0.037731	-0.384359	0.704181
C132	C	0.295603	-0.051026	1.037514
C133	C	-0.368256	-0.644342	0.368057
C134	C	-0.034923	-0.311008	0.701390
C135	C	0.298411	0.022325	1.034723
C136	C	-0.326541	-0.607668	0.326478
C137	C	0.006792	-0.274335	0.659811
C138	C	0.340125	0.058998	0.993144
C139	C	-0.287628	-0.644350	0.287692
C140	C	0.045705	-0.311017	0.621025
C141	C	0.379039	0.022317	0.954358
C142	C	-0.290433	-0.717699	0.290486
C143	C	0.042900	-0.384366	0.623820
C144	C	0.376233	-0.051033	0.957153
C145	C	-0.316051	-0.386201	0.316033
C146	C	0.017282	-0.052868	0.649366
C147	C	0.350615	0.280466	0.982699
C148	C	-0.313250	-0.312846	0.313240
C149	C	0.020083	0.020487	0.646573
C150	C	0.353417	0.353820	0.979906
C151	C	-0.393878	-0.312843	0.393606
C152	C	-0.060544	0.020490	0.726939
C153	C	0.272789	0.353824	1.060273
C154	C	-0.396682	-0.386194	0.396394
C155	C	-0.063349	-0.052860	0.729727
C156	C	0.269985	0.280473	1.063061
C157	C	-0.357766	-0.422869	0.357610
C158	C	-0.024433	-0.089535	0.690944
C159	C	0.308900	0.243798	1.024277
C160	C	-0.323671	-0.532692	0.323623
C161	C	0.009662	-0.199359	0.656956
C162	C	0.342995	0.133974	0.990289
C163	C	-0.360633	-0.497844	0.360469
C164	C	-0.027300	-0.164510	0.693803
C165	C	0.306033	0.168823	1.027136
C166	C	-0.342124	-1.014921	0.178471
C167	C	-0.008790	-0.681588	0.511804
C168	C	0.324543	-0.348255	0.845138
C169	C	-0.341965	-1.015044	0.108508
C170	C	-0.008632	-0.681710	0.441841
C171	C	0.324701	-0.348377	0.775175
C172	C	-0.383946	-1.059931	1.077351
C173	C	-0.050612	-0.726598	1.410684
C174	C	0.282721	-0.393264	1.744018
C175	C	-0.383965	-1.059918	1.011608
C176	C	-0.050632	-0.726585	1.344941
C177	C	0.282701	-0.393252	1.678275
C178	C	-0.341994	-1.015026	0.977025
C179	C	-0.008661	-0.681692	1.310358
C180	C	0.324673	-0.348359	1.643691
C181	C	-0.300010	-0.970129	1.008189
C182	C	0.033323	-0.636796	1.341523
C183	C	0.366656	-0.303463	1.674856
C184	C	-0.299996	-0.970138	1.073931
C185	C	0.033337	-0.636805	1.407264
C186	C	0.366671	-0.303472	1.740598
N187	N	-0.286709	-1.009661	0.873615
N188	N	0.046624	-0.676328	1.206948
N189	N	0.379958	-0.342994	1.540281
N190	N	-0.286724	-1.009656	0.811163
N191	N	0.046609	-0.676323	1.144496
N192	N	0.379942	-0.342990	1.477830
C193	C	-0.342035	-1.014995	0.778949
C194	C	-0.008702	-0.681661	1.112282
C195	C	0.324632	-0.348328	1.445615
N196	N	-0.397331	-1.020351	0.811546
N197	N	-0.063998	-0.687018	1.144879
N198	N	0.269335	-0.353685	1.478213
N199	N	-0.397315	-1.020359	0.874003
N200	N	-0.063982	-0.687026	1.207337
N201	N	0.269351	-0.353693	1.540670
C202	C	-0.342005	-1.015010	0.905739
C203	C	-0.008672	-0.681677	1.239072
C204	C	0.324662	-0.348344	1.572405
C205	C	-0.384040	-1.059871	0.676506
C206	C	-0.050707	-0.726537	1.009839
C207	C	0.282626	-0.393204	1.343172
C208	C	-0.384061	-1.059853	0.610761
C209	C	-0.050727	-0.726520	0.944095
C210	C	0.282606	-0.393187	1.277428
C211	C	-0.300100	-0.970068	0.607344
C212	C	0.033233	-0.636735	0.940677
C213	C	0.366567	-0.303401	1.274011
C214	C	-0.300085	-0.970082	0.673087
C215	C	0.033248	-0.636748	1.006420
C216	C	0.366582	-0.303415	1.339754
C217	C	-0.342054	-1.014987	0.707664
C218	C	-0.008721	-0.681654	1.040997
C219	C	0.324612	-0.348320	1.374331
H220	H	-0.584867	-1.096384	0.272129
H221	H	-0.251533	-0.763051	0.605462
H222	H	0.081800	-0.429718	0.938796
H223	H	-0.418252	-1.096402	0.585394
H224	H	-0.084919	-0.763069	0.918728
H225	H	0.248415	-0.429736	1.252061
H226	H	-0.697927	-0.933360	0.411876
H227	H	-0.364593	-0.600027	0.745209
H228	H	-0.031260	-0.266693	1.078543
H229	H	-0.578653	-0.933310	0.411861
H230	H	-0.245320	-0.599977	0.745195
H231	H	0.088013	-0.266643	1.078528
H232	H	-0.979500	-0.933474	0.411931
H233	H	-0.646167	-0.600141	0.745264
H234	H	-0.312833	-0.266807	1.078598
O235	O	-0.424660	-1.103562	0.981267
O236	O	-0.091326	-0.770228	1.314601
O237	O	0.242007	-0.436895	1.647934
C238	C	-0.436766	-1.198402	0.910707
C239	C	-0.103433	-0.865068	1.244040
C240	C	0.229901	-0.531735	1.577374
C241	C	-0.390611	-1.149009	0.945014
C242	C	-0.057278	-0.815675	1.278348
C243	C	0.276055	-0.482342	1.611681
H244	H	-0.409256	-1.235168	0.881399
H245	H	-0.075922	-0.901834	1.214732
H246	H	0.257411	-0.568501	1.548065
H247	H	-0.468445	-1.166175	0.878640
H248	H	-0.135112	-0.832841	1.211973
H249	H	0.198222	-0.499508	1.545307
H250	H	-0.466772	-1.230462	0.946726
H251	H	-0.133438	-0.897129	1.280059
H252	H	0.199895	-0.563796	1.613393
H253	H	-0.360564	-1.116938	0.909040
H254	H	-0.027231	-0.783604	1.242374
H255	H	0.306102	-0.450271	1.575707
H256	H	-0.358975	-1.181276	0.977092
H257	H	-0.025642	-0.847943	1.310426
H258	H	0.307692	-0.514609	1.643759
O259	O	-0.437219	-0.421707	0.436840
O260	O	-0.103886	-0.088374	0.770173
O261	O	0.229447	0.244960	1.103507
C262	C	-0.516924	-0.413961	0.516228
C263	C	-0.183590	-0.080627	0.849561
C264	C	0.149743	0.252706	1.182894
C265	C	-0.471031	-0.373655	0.470465
C266	C	-0.137697	-0.040321	0.803799
C267	C	0.195636	0.293012	1.137132
H268	H	-0.544282	-0.375128	0.543417
H269	H	-0.210948	-0.041794	0.876750
H270	H	0.122385	0.291539	1.210083
H271	H	-0.489414	-0.448313	0.550548
H272	H	-0.156080	-0.114980	0.883881
H273	H	0.177253	0.218354	1.217214
H274	H	-0.551084	-0.448289	0.488560
H275	H	-0.217751	-0.114955	0.821894
H276	H	0.115582	0.218378	1.155227
H277	H	-0.436860	-0.339288	0.498081
H278	H	-0.103526	-0.005955	0.831414
H279	H	0.229807	0.327378	1.164747
H280	H	-0.498581	-0.339347	0.436145
H281	H	-0.165248	-0.006013	0.769479
H282	H	0.168085	0.327320	1.102812
O283	O	-0.424778	-1.103567	1.110841
O284	O	-0.091445	-0.770234	1.444174
O285	O	0.241888	-0.436901	1.777508
C286	C	-0.508029	-1.192649	1.107291
C287	C	-0.174696	-0.859316	1.440624
C288	C	0.158637	-0.525983	1.773957
C289	C	-0.461829	-1.143258	1.069284
C290	C	-0.128496	-0.809925	1.402618
C291	C	0.204838	-0.476592	1.735951
H292	H	-0.537988	-1.224763	1.073709
H293	H	-0.204654	-0.891430	1.407042
H294	H	0.128679	-0.558096	1.740375
H295	H	-0.539746	-1.160421	1.136805
H296	H	-0.206413	-0.827088	1.470138
H297	H	0.126920	-0.493754	1.803472
H298	H	-0.480520	-1.229366	1.139504
H299	H	-0.147187	-0.896033	1.472837
H300	H	0.186146	-0.562699	1.806170
H301	H	-0.489287	-1.106532	1.037037
H302	H	-0.155953	-0.773199	1.370370
H303	H	0.177380	-0.439865	1.703704
H304	H	-0.430112	-1.175530	1.039811
H305	H	-0.096779	-0.842197	1.373145
H306	H	0.236555	-0.508864	1.706478
H307	H	-0.265898	-0.933532	0.698455
H308	H	0.067435	-0.600199	1.031789
H309	H	0.400769	-0.266865	1.365122
O310	O	-0.980745	-1.103652	0.266247
O311	O	-0.647412	-0.770319	0.599581
O312	O	-0.314079	-0.436986	0.932914
C313	C	-0.910111	-1.198480	0.261465
C314	C	-0.576778	-0.865147	0.594798
C315	C	-0.243445	-0.531814	0.928131
C316	C	-0.944413	-1.149043	0.303803
C317	C	-0.611080	-0.815710	0.637137
C318	C	-0.277746	-0.482376	0.970470
H319	H	-0.880739	-1.235201	0.291812
H320	H	-0.547406	-0.901868	0.625145
H321	H	-0.214072	-0.568534	0.958479
H322	H	-0.878108	-1.166285	0.227295
H323	H	-0.544775	-0.832951	0.560628
H324	H	-0.211442	-0.499618	0.893962
H325	H	-0.946135	-1.230587	0.233940
H326	H	-0.612801	-0.897254	0.567273
H327	H	-0.279468	-0.563921	0.900606
H328	H	-0.908435	-1.116926	0.331369
H329	H	-0.575101	-0.783592	0.664702
H330	H	-0.241768	-0.450259	0.998035
H331	H	-0.976427	-1.181279	0.337933
H332	H	-0.643094	-0.847946	0.671266
H333	H	-0.309761	-0.514612	1.004600
O334	O	-0.709477	-1.103520	0.266046
O335	O	-0.376144	-0.770187	0.599379
O336	O	-0.042811	-0.436854	0.932713
C337	C	-0.705943	-1.192697	0.189678
C338	C	-0.372610	-0.859363	0.523011
C339	C	-0.039276	-0.526030	0.856345
C340	C	-0.667928	-1.143246	0.232061
C341	C	-0.334594	-0.809912	0.565395
C342	C	-0.001261	-0.476579	0.898728
H343	H	-0.672367	-1.224838	0.162200
H344	H	-0.339033	-0.891505	0.495534
H345	H	-0.005700	-0.558172	0.828867
H346	H	-0.735518	-1.160513	0.155474
H347	H	-0.402184	-0.827180	0.488808
H348	H	-0.068851	-0.493847	0.822141
H349	H	-0.738097	-1.229384	0.220022
H350	H	-0.404764	-0.896051	0.553355
H351	H	-0.071431	-0.562718	0.886688
H352	H	-0.635739	-1.106548	0.201768
H353	H	-0.302406	-0.773215	0.535101
H354	H	0.030928	-0.439882	0.868435
H355	H	-0.638394	-1.175473	0.266268
H356	H	-0.305061	-0.842140	0.599602
H357	H	0.028272	-0.508806	0.932935
O358	O	-0.411602	-0.753205	0.411294
O359	O	-0.078269	-0.419871	0.744627
O360	O	0.255065	-0.086538	1.077960
C361	C	-0.491298	-0.745451	0.490688
C362	C	-0.157965	-0.412118	0.824021
C363	C	0.175368	-0.078784	1.157355
C364	C	-0.445409	-0.705149	0.444919
C365	C	-0.112076	-0.371816	0.778252
C366	C	0.221257	-0.038482	1.111586
H367	H	-0.518653	-0.706616	0.517877
H368	H	-0.185320	-0.373282	0.851210
H369	H	0.148013	-0.039949	1.184544
H370	H	-0.463786	-0.779801	0.525007
H371	H	-0.130452	-0.446468	0.858341
H372	H	0.202881	-0.113134	1.191674
H373	H	-0.525462	-0.779781	0.463026
H374	H	-0.192129	-0.446448	0.796359
H375	H	0.141205	-0.113114	1.129693
H376	H	-0.411235	-0.670781	0.472529
H377	H	-0.077902	-0.337448	0.805862
H378	H	0.255431	-0.004114	1.139196
H379	H	-0.472963	-0.670843	0.410600
H380	H	-0.139630	-0.337510	0.743933
H381	H	0.193704	-0.004177	1.077266
H382	H	-1.104979	-1.096615	0.272240
H383	H	-0.771646	-0.763281	0.605573
H384	H	-0.438312	-0.429948	0.938907
H385	H	-0.399941	-0.614483	0.399639
H386	H	-0.066607	-0.281150	0.732972
H387	H	0.266726	0.052184	1.066305
H388	H	-0.425560	-0.282974	0.425182
H389	H	-0.092226	0.050359	0.758515
H390	H	0.241107	0.383692	1.091849
H391	H	-0.289709	-0.502825	0.289768
H392	H	0.043625	-0.169492	0.623101
H393	H	0.376958	0.163842	0.956434
O394	O	-0.272676	-0.277153	0.272943
O395	O	0.060657	0.056180	0.606276
O396	O	0.393991	0.389514	0.939609
C397	C	-0.184468	-0.194433	0.261516
C398	C	0.148865	0.138901	0.594850
C399	C	0.482199	0.472234	0.928183
C400	C	-0.230390	-0.234793	0.307213
C401	C	0.102943	0.098540	0.640547
C402	C	0.436276	0.431874	0.973880
H403	H	-0.150260	-0.160186	0.289207
H404	H	0.183073	0.173147	0.622541
H405	H	0.516406	0.506480	0.955874
H406	H	-0.211953	-0.160009	0.227234
H407	H	0.121380	0.173324	0.560567
H408	H	0.454713	0.506657	0.893901
H409	H	-0.157165	-0.233268	0.234274
H410	H	0.176168	0.100065	0.567608
H411	H	0.509501	0.433399	0.900941
H412	H	-0.257705	-0.196009	0.334498
H413	H	0.075629	0.137325	0.667831
H414	H	0.408962	0.470658	1.001165
H415	H	-0.202869	-0.269227	0.341455
H416	H	0.130464	0.064106	0.674788
H417	H	0.463797	0.397440	1.008121
H418	H	-0.265838	-0.933576	0.980027
H419	H	0.067496	-0.600243	1.313361
H420	H	0.400829	-0.266910	1.646694
H421	H	-0.265927	-0.933514	0.579187
H422	H	0.067406	-0.600180	0.912520
H423	H	0.400739	-0.266847	1.245854
O424	O	-0.247158	-0.608619	0.247321
O425	O	0.086176	-0.275286	0.580654
O426	O	0.419509	0.058047	0.913988
C427	C	-0.207071	-0.495625	0.207429
C428	C	0.126262	-0.162292	0.540762
C429	C	0.459595	0.171042	0.874096
C430	C	-0.252943	-0.536000	0.253167
C431	C	0.080390	-0.202666	0.586501
C432	C	0.413723	0.130667	0.919834
H433	H	-0.211724	-0.436905	0.212150
H434	H	0.121610	-0.103572	0.545483
H435	H	0.454943	0.229762	0.878816
H436	H	-0.218602	-0.509966	0.157181
H437	H	0.114732	-0.176633	0.490514
H438	H	0.448065	0.156701	0.823848
H439	H	-0.156890	-0.510122	0.219127
H440	H	0.176443	-0.176788	0.552461
H441	H	0.509777	0.156545	0.885794
H442	H	-0.303140	-0.521525	0.241527
H443	H	0.030193	-0.188191	0.574860
H444	H	0.363526	0.145142	0.908193
H445	H	-0.241359	-0.521655	0.303402
H446	H	0.091975	-0.188322	0.636735
H447	H	0.425308	0.145011	0.970069
H448	H	-0.284368	-0.416053	0.284448
H449	H	0.048965	-0.082720	0.617781
H450	H	0.382299	0.250614	0.951114
O451	O	-0.424841	-1.103385	0.710162
O452	O	-0.091508	-0.770051	1.043496
O453	O	0.241826	-0.436718	1.376829
C454	C	-0.510200	-1.112784	0.784692
C455	C	-0.176867	-0.779450	1.118026
C456	C	0.156466	-0.446117	1.451359
C457	C	-0.464019	-1.063427	0.746628
C458	C	-0.130686	-0.730094	1.079961
C459	C	0.202648	-0.396761	1.413294
H460	H	-0.541896	-1.080497	0.814174
H461	H	-0.208563	-0.747164	1.147508
H462	H	0.124770	-0.413830	1.480841
H463	H	-0.482738	-1.149524	0.816928
H464	H	-0.149405	-0.816190	1.150262
H465	H	0.183928	-0.482857	1.483595
H466	H	-0.540185	-1.144874	0.751115
H467	H	-0.206851	-0.811541	1.084448
H468	H	0.126482	-0.478208	1.417781
H469	H	-0.434023	-1.031291	0.780159
H470	H	-0.100690	-0.697958	1.113492
H471	H	0.232643	-0.364624	1.446825
H472	H	-0.491519	-1.026733	0.714384
H473	H	-0.158185	-0.693400	1.047718
H474	H	0.175148	-0.360067	1.381051
H475	H	-0.258746	-0.747560	0.258907
H476	H	0.074587	-0.414227	0.592240
H477	H	0.407921	-0.080894	0.925574
H478	H	-1.098771	-0.933528	0.411957
H479	H	-0.765438	-0.600194	0.745290
H480	H	-0.432104	-0.266861	1.078623
H481	H	-0.265809	-0.933585	1.099298
H482	H	0.067524	-0.600251	1.432632
H483	H	0.400857	-0.266918	1.765965
H484	H	-0.394595	-0.527706	0.394325
H485	H	-0.061261	-0.194373	0.727659
H486	H	0.272072	0.138961	1.060992
