data_functionalizedCrystal
_audit_creation_method	'MofGen! by Chris Wilmer'
_symmetry_space_group_name_H-M	'P1'
_symmetry_Int_Tables_number	1
_symmetry_cell_setting	triclinic
loop_
_symmetry_equiv_pos_as_xyz
  x,y,z
_cell_length_a	16.625546
_cell_length_b	12.827893
_cell_length_c	12.827885
_cell_angle_alpha	90.019272
_cell_angle_beta	89.964686
_cell_angle_gamma	89.977561
loop_
_atom_site_label
_atom_site_type_symbol
_atom_site_fract_x
_atom_site_fract_y
_atom_site_fract_z
Zn1	Zn	-0.320962	-1.597618	-0.590810
Zn2	Zn	-0.455816	-1.597491	-0.416054
Zn3	Zn	-0.321001	-1.422860	-0.416084
Zn4	Zn	-0.455756	-1.422823	-0.590754
O5	O	-0.388384	-1.510198	-0.503425
O6	O	-0.338859	-1.743837	-0.567639
O7	O	-0.437975	-1.574287	-0.269822
O8	O	-0.208164	-1.446110	-0.439297
O9	O	-0.437936	-1.743744	-0.439247
O10	O	-0.208135	-1.574505	-0.567668
O11	O	-0.338927	-1.445987	-0.269843
O12	O	-0.338868	-1.276619	-0.439243
O13	O	-0.437833	-1.446048	-0.736997
O14	O	-0.437872	-1.276592	-0.567572
O15	O	-0.338801	-1.574469	-0.737039
O16	O	-0.568641	-1.574252	-0.439192
O17	O	-0.568596	-1.445925	-0.567544
C18	C	-0.388368	-1.238688	-0.503405
C19	C	-0.388381	-1.122535	-0.503422
C20	C	-0.597875	-1.510099	-0.503382
C21	C	-0.687496	-1.510152	-0.503398
C22	C	-0.388306	-1.510269	-0.775996
C23	C	-0.388272	-1.510299	-0.892149
C24	C	-1.015671	-1.510335	-0.503507
C25	C	-0.924363	-1.510281	-0.503479
C26	C	-0.851587	-1.510243	-0.503452
C27	C	-0.760272	-1.510190	-0.503425
C28	C	-0.178075	-1.510326	-0.503492
C29	C	-0.088454	-1.510380	-0.503521
C30	C	-0.388400	-1.782768	-0.503446
C31	C	-0.388407	-1.898921	-0.503455
C32	C	-0.437448	-1.070765	-0.566825
C33	C	-0.437462	-0.950714	-0.566844
C34	C	-0.339218	-1.446865	-1.063989
C35	C	-0.339251	-1.446832	-0.943938
C36	C	-0.388404	-1.510187	-0.231915
C37	C	-0.388210	-1.510359	-0.115763
H38	H	-0.479442	-1.115319	-0.621098
H39	H	-0.297246	-1.392534	-1.108540
H40	H	-0.297309	-1.392470	-0.899414
H41	H	-0.430175	-1.564699	-1.071212
O42	O	-0.438392	-1.575191	-0.945089
C43	C	-0.483962	-1.634215	-0.873618
H44	H	-0.486828	-1.591461	-0.795782
H45	H	-0.454450	-1.713607	-0.862064
C46	C	-0.566218	-1.701713	-1.011896
C47	C	-0.569743	-1.649196	-0.916299
H48	H	-0.619130	-1.710958	-1.038225
H49	H	-0.535514	-1.661950	-1.060049
H50	H	-0.541620	-1.767866	-1.002255
H51	H	-0.594330	-1.583039	-0.925943
H52	H	-0.600452	-1.688948	-0.868149
O53	O	-0.487653	-0.897771	-0.631643
C54	C	-0.533244	-0.969246	-0.690599
H55	H	-0.536046	-1.047055	-0.647848
H56	H	-0.503791	-0.980865	-0.770040
C57	C	-0.615606	-0.830951	-0.757948
C58	C	-0.619052	-0.926515	-0.705435
H59	H	-0.668535	-0.804592	-0.767104
H60	H	-0.584889	-0.782796	-0.718231
H61	H	-0.591058	-0.840646	-0.824143
H62	H	-0.643590	-0.916816	-0.639237
H63	H	-0.649775	-0.974668	-0.745141
O64	O	-0.338400	-0.952135	-0.438638
C65	C	-0.384283	-1.015202	-0.371066
H66	H	-0.445431	-1.031443	-0.407792
H67	H	-0.393046	-0.973159	-0.293571
C68	C	-0.264862	-1.098997	-0.307217
C69	C	-0.339963	-1.118952	-0.352329
H70	H	-0.237523	-1.162994	-0.295654
H71	H	-0.233949	-1.056505	-0.352738
H72	H	-0.272176	-1.063959	-0.242643
H73	H	-0.332648	-1.153977	-0.416907
H74	H	-0.370874	-1.161453	-0.306817
H75	H	-0.346381	-1.077981	-0.449157
