data_functionalizedCrystal
_audit_creation_method	'MofGen! by Chris Wilmer'
_symmetry_space_group_name_H-M	'P1'
_symmetry_Int_Tables_number	1
_symmetry_cell_setting	triclinic
loop_
_symmetry_equiv_pos_as_xyz
  x,y,z
_cell_length_a	22.863218
_cell_length_b	22.862586
_cell_length_c	22.858745
_cell_angle_alpha	60.006856
_cell_angle_beta	60.013818
_cell_angle_gamma	59.991795
loop_
_atom_site_label
_atom_site_type_symbol
_atom_site_fract_x
_atom_site_fract_y
_atom_site_fract_z
O1	O	0.081006	-0.854581	0.714630
O2	O	0.030492	-0.665350	0.575795
O3	O	0.150314	-0.785089	0.575706
O4	O	-0.038816	-0.734841	0.714718
O5	O	0.190066	-0.745348	0.615369
O6	O	0.070244	-0.625609	0.615458
O7	O	0.120758	-0.814840	0.754293
Zn8	Zn	0.101812	-0.713914	0.691173
Zn9	Zn	0.049438	-0.766275	0.638915
O10	O	0.000936	-0.695100	0.754381
N11	N	0.137558	-0.678184	0.726840
N12	N	0.013698	-0.802011	0.603247
C13	C	0.187224	-0.518558	0.776483
C14	C	0.187235	-0.628552	0.776467
C15	C	0.214753	-0.601061	0.803961
C16	C	0.334724	-0.580392	0.740801
C17	C	0.409718	-0.605392	0.715784
C18	C	0.409746	-0.726732	0.762051
C19	C	0.334754	-0.701730	0.787070
C20	C	0.205297	-0.481049	0.702756
C21	C	0.180267	-0.406048	0.677779
C22	C	0.119099	-0.406071	0.800259
C23	C	0.144128	-0.481071	0.825236
C24	C	0.113501	-0.610437	0.794610
C25	C	0.088492	-0.635428	0.769607
C26	C	0.210943	-0.696652	0.708337
C27	C	0.235956	-0.671660	0.733331
C28	C	0.113585	-0.610461	0.923980
C29	C	0.088635	-0.635476	0.998978
C30	C	0.211128	-0.696714	0.998930
C31	C	0.236077	-0.671700	0.923930
C32	C	0.187303	-0.628571	0.886457
C33	C	0.297246	-0.628559	0.776441
C34	C	-0.117796	-0.823430	0.581283
C35	C	-0.007671	-0.823587	0.471446
C36	C	-0.007879	-0.933535	0.581483
C37	C	-0.007861	-0.823583	0.581554
C38	C	-0.035301	-0.851035	0.553942
N39	N	0.446162	-0.678198	0.726752
O40	O	0.691234	-0.690164	0.550341
O41	O	0.691462	-0.829422	0.739388
O42	O	0.691373	-0.829102	0.619485
O43	O	0.691323	-0.690484	0.670244
O44	O	0.572233	-0.789455	0.659278
O45	O	0.572322	-0.789775	0.779181
O46	O	0.572094	-0.650517	0.590134
Zn47	Zn	0.553292	-0.713851	0.690976
Zn48	Zn	0.710264	-0.766088	0.638547
O49	O	0.572183	-0.650837	0.710037
N50	N	0.817394	-0.801741	0.602763
N51	N	0.137538	-0.369628	0.726874
O52	O	-0.038795	-0.124419	0.714761
O53	O	0.150256	-0.124417	0.575522
O54	O	0.030331	-0.124432	0.575860
O55	O	0.081131	-0.124404	0.714423
O56	O	0.070086	-0.243584	0.615573
O57	O	0.190011	-0.243569	0.615236
O58	O	0.000960	-0.243571	0.754474
Zn59	Zn	0.101797	-0.262488	0.691160
Zn60	Zn	0.049419	-0.105500	0.638836
O61	O	0.120885	-0.243556	0.754137
N62	N	0.013669	0.001640	0.603123
N63	N	0.137749	-0.678230	1.035381
O64	O	0.125655	-0.854547	1.280566
O65	O	-0.013567	-0.665426	1.280590
O66	O	-0.013245	-0.785328	1.280537
O67	O	0.125333	-0.734644	1.280618
O68	O	0.026456	-0.745599	1.161392
O69	O	0.026134	-0.625697	1.161444
O70	O	0.165355	-0.814817	1.161420
Zn71	Zn	0.102048	-0.713949	1.142516
Zn72	Zn	0.049740	-0.766294	1.299495
O73	O	0.165033	-0.694915	1.161473
N74	N	0.014038	-0.802020	1.406629
C75	C	0.045634	-0.621635	0.576499
C76	C	0.194019	-0.769918	0.576389
C77	C	0.105616	-0.858555	0.753588
C78	C	-0.042769	-0.710272	0.753698
C79	C	0.631920	-0.828776	0.783102
C80	C	0.631811	-0.828380	0.634616
C81	C	0.631633	-0.651162	0.546422
C82	C	0.631745	-0.651559	0.694907
C83	C	0.193900	-0.183846	0.576155
C84	C	0.045437	-0.184012	0.576622
C85	C	-0.042734	-0.183994	0.753792
C86	C	0.105780	-0.183977	0.753375
C87	C	-0.012889	-0.621735	1.221020
C88	C	-0.012483	-0.770211	1.220931
C89	C	0.164678	-0.858508	1.220991
C90	C	0.164280	-0.710023	1.221052
H91	H	0.028603	-0.620718	1.029520
O92	O	0.118694	-0.184069	0.805402
C93	C	0.125497	-0.245819	0.924674
C94	C	0.110839	-0.245794	0.865819
H95	H	0.119166	-0.295725	0.973530
H96	H	0.085822	-0.195988	0.940396
H97	H	0.182409	-0.245782	0.903641
H98	H	0.053947	-0.245856	0.886802
H99	H	0.150558	-0.295620	0.850105
H100	H	-0.097093	-0.699562	0.797349
H101	H	-0.056598	-0.567419	1.221026
O102	O	0.631576	-0.599087	0.481605
C103	C	0.631410	-0.565756	0.363624
C104	C	0.631493	-0.624799	0.436990
H105	H	0.631327	-0.586516	0.327538
H106	H	0.681252	-0.550099	0.337824
H107	H	0.581533	-0.516915	0.371218
H108	H	0.681336	-0.673678	0.429459
H109	H	0.581617	-0.640394	0.462765
H110	H	0.631977	-0.872492	0.837399
O111	O	0.631801	-0.880244	0.621554
C112	C	0.631799	-0.913028	0.536427
C113	C	0.631795	-0.854224	0.551130
H114	H	0.631810	-0.892017	0.479486
H115	H	0.581964	-0.928714	0.576062
H116	H	0.681684	-0.961910	0.542840
H117	H	0.581944	-0.805303	0.544708
H118	H	0.681664	-0.838598	0.511498
H119	H	0.631735	-0.608016	0.705768
H120	H	0.208389	-0.912821	1.220975
O121	O	-0.064312	-0.783225	1.220810
C122	C	-0.097056	-0.868305	1.220713
C123	C	-0.038291	-0.853656	1.220833
H124	H	-0.076045	-0.925252	1.220746
H125	H	-0.112676	-0.828667	1.170817
H126	H	-0.145975	-0.861850	1.270542
H127	H	0.010666	-0.860120	1.171038
H128	H	-0.022731	-0.893291	1.270761
H129	H	0.207816	-0.699179	1.221068
O130	O	0.258565	-0.183416	0.523938
C131	C	0.376396	-0.182862	0.490440
C132	C	0.303191	-0.183333	0.549632
H133	H	0.412502	-0.182810	0.511196
H134	H	0.368607	-0.132878	0.441737
H135	H	0.402290	-0.232606	0.474577
H136	H	0.277257	-0.133622	0.565556
H137	H	0.311027	-0.233349	0.598296
O138	O	0.032367	-0.184073	0.524784
C139	C	-0.052768	-0.184092	0.492038
C140	C	-0.038061	-0.184025	0.550808
H141	H	-0.109713	-0.184038	0.513052
H142	H	-0.013147	-0.233981	0.476404
H143	H	-0.046344	-0.134251	0.443124
H144	H	-0.044495	-0.233833	0.599761
H145	H	-0.077680	-0.134104	0.566381
H146	H	0.295996	-0.686402	0.718551
O147	O	-0.107558	-0.183949	0.805852
C148	C	-0.225567	-0.183974	0.839175
C149	C	-0.152190	-0.184016	0.780152
H150	H	-0.261667	-0.184044	0.818424
H151	H	-0.251330	-0.134088	0.854777
H152	H	-0.218004	-0.233817	0.888045
H153	H	-0.159690	-0.134207	0.731244
H154	H	-0.126451	-0.233936	0.764611
O155	O	0.126534	-0.517402	0.896882
C156	C	0.063183	-0.509514	1.015733
C157	C	0.083070	-0.468282	0.934616
H158	H	0.028028	-0.469819	1.046264
H159	H	0.114066	-0.544608	1.030520
H160	H	0.032690	-0.544647	1.030465
H161	H	0.113545	-0.433110	0.919825
H162	H	0.032161	-0.433233	0.919872
H163	H	0.248339	-0.780632	0.532734
H164	H	0.250848	-0.731818	1.029432
O165	O	0.066106	-0.568598	0.887691
C166	C	-0.058025	-0.510460	0.895655
C167	C	-0.004339	-0.557884	0.936842
H168	H	-0.114991	-0.501771	0.935376
H169	H	-0.049459	-0.537924	0.860561
H170	H	-0.049363	-0.456530	0.860529
H171	H	-0.012968	-0.611822	0.972007
H172	H	-0.012918	-0.530364	0.971891
H173	H	0.296108	-0.686456	0.893383
H174	H	0.028452	-0.620662	0.784363
O175	O	0.258370	-0.738496	0.666422
C176	C	0.382471	-0.796622	0.608330
C177	C	0.328837	-0.749215	0.655793
H178	H	0.439455	-0.805316	0.599734
H179	H	0.373852	-0.769143	0.554362
H180	H	0.373807	-0.850552	0.635802
H181	H	0.337469	-0.695278	0.628385
H182	H	0.337470	-0.776750	0.709758
O183	O	0.118589	-0.923454	0.805520
C184	C	0.203607	-1.041385	0.838495
C185	C	0.189005	-0.967927	0.779614
H186	H	0.260541	-1.077357	0.817577
H187	H	0.163955	-1.067246	0.854156
H188	H	0.197144	-1.033914	0.887369
H189	H	0.195477	-0.975335	0.730702
H190	H	0.228653	-0.942090	0.764014
H191	H	0.073825	-0.575337	0.829731
H192	H	0.440287	-0.786313	0.770693
O193	O	0.298456	-0.748615	0.821647
C194	C	0.306402	-0.871613	0.864930
C195	C	0.347597	-0.818592	0.825744
H196	H	0.346114	-0.928202	0.868268
H197	H	0.271285	-0.856607	0.834279
H198	H	0.271300	-0.869282	0.921305
H199	H	0.382737	-0.820895	0.769369
H200	H	0.382668	-0.833615	0.856450
H201	H	0.440232	-0.566167	0.686761
H202	H	0.240384	-0.511568	0.663058
O203	O	0.298370	-0.509286	0.730351
C204	C	0.275337	-0.390030	0.644580
C205	C	0.316567	-0.470535	0.656313
H206	H	0.290023	-0.358678	0.584722
H207	H	0.290116	-0.371364	0.671722
H208	H	0.215302	-0.380453	0.668617
H209	H	0.376611	-0.480173	0.632274
H210	H	0.301729	-0.489161	0.629187
O211	O	0.197788	-0.369684	0.606141
C212	C	0.191963	-0.346675	0.493833
C213	C	0.172089	-0.387912	0.574948
H214	H	0.171181	-0.361385	0.468592
H215	H	0.252683	-0.361428	0.468490
H216	H	0.166694	-0.286635	0.484375
H217	H	0.197310	-0.447961	0.584471
H218	H	0.111364	-0.373099	0.600251
O219	O	0.032690	-0.556820	0.524456
C220	C	-0.039940	-0.470520	0.449031
C221	C	-0.025348	-0.543942	0.507960
H222	H	-0.086874	-0.460079	0.435686
H223	H	0.009742	-0.470263	0.398999
H224	H	-0.053521	-0.426836	0.468821
H225	H	-0.011786	-0.587668	0.488237
H226	H	-0.075042	-0.544139	0.557980
H227	H	0.084019	-0.375548	0.839959
