data_functionalizedCrystal
_audit_creation_method	'MofGen! by Chris Wilmer'
_symmetry_space_group_name_H-M	'P1'
_symmetry_Int_Tables_number	1
_symmetry_cell_setting	triclinic
loop_
_symmetry_equiv_pos_as_xyz
  x,y,z
_cell_length_a	12.827893
_cell_length_b	25.639239
_cell_length_c	12.827885
_cell_angle_alpha	89.963827
_cell_angle_beta	89.980728
_cell_angle_gamma	90.038847
loop_
_atom_site_label
_atom_site_type_symbol
_atom_site_fract_x
_atom_site_fract_y
_atom_site_fract_z
Zn1	Zn	1.597500	-0.208122	-0.590804
Zn2	Zn	1.597324	-0.295568	-0.416045
Zn3	Zn	1.422742	-0.208148	-0.416077
Zn4	Zn	1.422656	-0.295529	-0.590745
O5	O	1.510055	-0.251842	-0.503418
O6	O	1.743713	-0.219727	-0.567633
O7	O	1.574127	-0.283998	-0.269813
O8	O	1.446034	-0.134980	-0.439293
O9	O	1.743583	-0.283973	-0.439238
O10	O	1.574428	-0.134960	-0.567664
O11	O	1.445862	-0.219772	-0.269837
O12	O	1.276494	-0.219734	-0.439236
O13	O	1.445888	-0.283907	-0.736989
O14	O	1.276431	-0.283932	-0.567564
O15	O	1.574345	-0.219690	-0.737032
O16	O	1.574044	-0.368728	-0.439181
O17	O	1.445716	-0.368699	-0.567533
C18	C	1.238546	-0.251832	-0.503398
C19	C	1.122392	-0.251841	-0.503414
C20	C	1.509880	-0.387684	-0.503370
C21	C	1.509900	-0.445798	-0.503384
C22	C	0.950499	-0.283591	-0.439814
C23	C	1.070550	-0.283583	-0.439796
C24	C	1.577050	-0.806164	-0.436699
C25	C	1.577090	-0.860768	-0.436713
O26	O	1.634001	-0.889007	-0.379962
N27	N	1.510239	-0.888081	-0.503487
C28	C	1.443350	-0.860786	-0.570259
O29	O	1.386493	-0.889032	-0.627057
C30	C	1.443316	-0.806183	-0.570249
C31	C	1.510164	-0.778873	-0.503463
C32	C	1.643893	-0.778854	-0.369920
C33	C	1.643851	-0.724253	-0.369904
C34	C	1.576966	-0.696963	-0.436669
C35	C	1.510122	-0.724273	-0.503448
C36	C	1.376433	-0.778890	-0.637026
C37	C	1.376405	-0.724283	-0.637011
C38	C	1.443253	-0.696973	-0.570225
C39	C	1.443194	-0.642382	-0.570198
N40	N	1.510045	-0.615069	-0.503424
C41	C	1.576931	-0.642359	-0.436659
C42	C	1.443429	-0.975457	-0.570275
C43	C	1.443458	-1.030059	-0.570280
C44	C	1.577199	-1.030037	-0.436735
C45	C	1.577165	-0.975434	-0.436726
C46	C	1.510281	-0.948144	-0.503501
C47	C	1.576837	-0.527694	-0.436632
C48	C	1.576786	-0.473089	-0.436620
C49	C	1.443049	-0.473116	-0.570168
C50	C	1.443095	-0.527716	-0.570177
C51	C	1.509998	-0.555004	-0.503405
O52	O	1.386315	-0.614108	-0.626923
O53	O	1.633789	-0.614107	-0.379880
C54	C	1.782626	-0.251852	-0.503438
C55	C	1.898779	-0.251856	-0.503447
C56	C	1.510127	-0.251791	-0.775988
C57	C	1.510157	-0.251769	-0.892141
C58	C	1.510260	-0.115469	-0.503489
C59	C	1.510348	-0.057355	-0.503519
C60	C	1.446741	-0.219960	-1.063982
C61	C	1.446708	-0.219982	-0.943932
C62	C	1.510045	-0.251854	-0.231908
C63	C	1.510217	-0.251729	-0.115755
H64	H	0.905903	-0.310763	-0.385345
H65	H	0.943375	-0.224679	-0.557907
H66	H	1.321993	-0.801116	-0.691405
H67	H	1.564503	-0.278969	-0.936658
Cl68	Cl	1.139215	-0.325535	-0.355687
Cl69	Cl	1.053733	-0.209893	-0.587537
Cl70	Cl	1.660830	-0.438760	-0.352655
H71	H	1.392425	-0.192744	-1.108534
H72	H	1.388588	-0.450887	-0.624524
H73	H	1.631318	-0.549906	-0.382263
Cl74	Cl	1.727990	-0.813152	-0.285976
H75	H	1.321941	-0.702066	-0.691391
H76	H	1.698288	-0.702021	-0.315525
Cl77	Cl	1.359036	-0.562050	-0.654115
Cl78	Cl	1.362794	-0.177991	-0.875197
Cl79	Cl	1.661207	-0.941107	-0.352765
Cl80	Cl	1.661283	-1.064355	-0.352800
Cl81	Cl	1.359404	-1.064385	-0.654230
Cl82	Cl	1.594093	-0.293745	-1.046979
H83	H	1.388955	-0.953240	-0.624648
