data_functionalizedCrystal
_audit_creation_method	'MofGen! by Chris Wilmer'
_symmetry_space_group_name_H-M	'P1'
_symmetry_Int_Tables_number	1
_symmetry_cell_setting	triclinic
loop_
_symmetry_equiv_pos_as_xyz
  x,y,z
_cell_length_a	14.971506
_cell_length_b	16.109304
_cell_length_c	14.048226
_cell_angle_alpha	89.996377
_cell_angle_beta	89.993237
_cell_angle_gamma	83.542513
loop_
_atom_site_label
_atom_site_type_symbol
_atom_site_fract_x
_atom_site_fract_y
_atom_site_fract_z
O1	O	1.186781	0.108428	-0.079161
O2	O	1.686781	0.608428	0.420839
O3	O	0.926364	0.121385	-0.079161
O4	O	1.426364	0.621385	0.420839
O5	O	1.063725	-0.006115	-0.079162
O6	O	1.563725	0.493885	0.420838
O7	O	1.049420	0.235928	-0.079161
O8	O	1.549420	0.735928	0.420839
O9	O	1.063709	-0.006123	0.079160
O10	O	1.563709	0.493877	0.579160
O11	O	0.926348	0.121377	0.079160
O12	O	1.426348	0.621377	0.579160
O13	O	1.186764	0.108420	0.079160
O14	O	1.686764	0.608420	0.579160
Zn15	Zn	1.056553	0.114898	0.104297
Zn16	Zn	1.556553	0.614898	0.604297
Zn17	Zn	1.056575	0.114907	-0.104298
Zn18	Zn	1.556575	0.614907	0.395702
O19	O	1.049403	0.235920	0.079161
O20	O	1.549403	0.735920	0.579161
C21	C	0.893033	0.120799	-0.000000
C22	C	1.393033	0.620799	0.500000
C23	C	0.793739	0.119053	-0.000000
C24	C	1.293739	0.619053	0.500000
C25	C	1.063137	-0.037095	-0.000003
C26	C	1.563137	0.462905	0.499997
C27	C	1.061398	-0.129392	-0.000010
C28	C	1.561398	0.370608	0.499990
C29	C	0.355359	0.187296	-0.000010
C30	C	0.855359	0.687296	0.499990
C31	C	0.448657	0.188929	-0.000014
C32	C	0.948657	0.688929	0.499986
C33	C	0.505984	0.114018	-0.000010
C34	C	1.005984	0.614018	0.499990
C35	C	0.470009	0.037468	-0.000012
C36	C	0.970009	0.537468	0.499988
C37	C	0.376713	0.035836	-0.000014
C38	C	0.876713	0.535836	0.499986
C39	C	0.664467	0.040877	-0.000004
C40	C	1.164467	0.540877	0.499996
C41	C	0.757770	0.042509	0.000001
C42	C	1.257770	0.542509	0.500001
C43	C	0.736411	0.193970	-0.000003
C44	C	1.236411	0.693970	0.499997
C45	C	0.643115	0.192338	-0.000006
C46	C	1.143115	0.692338	0.499994
C47	C	0.607146	0.115788	-0.000006
C48	C	1.107146	0.615788	0.499994
C49	C	1.057391	-0.341731	-0.086307
C50	C	1.557391	0.158269	0.413693
C51	C	1.055749	-0.428453	-0.086306
C52	C	1.555749	0.071547	0.413694
C53	C	1.055735	-0.428458	0.086305
C54	C	1.555735	0.071542	0.586305
C55	C	1.057371	-0.341737	0.086303
C56	C	1.557371	0.158263	0.586303
C57	C	1.058203	-0.298376	-0.000006
C58	C	1.558203	0.201624	0.499994
C59	C	1.054926	-0.471819	-0.000003
C60	C	1.554926	0.028181	0.499997
C61	C	1.053146	-0.565848	-0.000002
C62	C	1.553146	-0.065848	0.499998
C63	C	1.059981	-0.204341	-0.000008
C64	C	1.559981	0.295659	0.499992
C65	C	1.220096	0.109006	-0.000003
C66	C	1.720096	0.609006	0.499997
C67	C	1.319390	0.110752	-0.000009
C68	C	1.819390	0.610752	0.499991
C69	C	1.049992	0.266900	0.000000
C70	C	1.549992	0.766900	0.500000
C71	C	1.051730	0.359197	0.000000
C72	C	1.551730	0.859197	0.500000
N73	N	1.056545	0.114890	0.246658
N74	N	1.556545	0.614890	0.746658
N75	N	1.056591	0.114908	-0.246659
N76	N	1.556591	0.614908	0.253341
C77	C	1.117387	0.058457	0.296476
C78	C	1.617387	0.558457	0.796476
C79	C	1.117394	0.058456	0.396133
C80	C	1.617394	0.558456	0.896133
C81	C	1.056561	0.114894	0.445971
C82	C	1.556561	0.614894	0.945971
C83	C	0.995712	0.171330	0.396147
C84	C	1.495712	0.671330	0.896147
C85	C	0.995702	0.171326	0.296491
C86	C	1.495702	0.671326	0.796491
C87	C	0.995738	0.171336	0.603861
C88	C	1.495738	0.671336	1.103861
C89	C	0.995748	0.171342	0.703524
C90	C	1.495748	0.671342	1.203524
C91	C	1.117429	0.058466	0.703503
C92	C	1.617429	0.558466	1.203503
C93	C	1.117419	0.058462	0.603848
C94	C	1.617419	0.558462	1.103848
C95	C	1.056571	0.114900	0.554030
C96	C	1.556571	0.614900	1.054030
H97	H	0.308688	0.248297	-0.000006
H98	H	0.808688	0.748297	0.499994
H99	H	0.946157	0.217279	0.255930
H100	H	1.446157	0.717279	0.755930
F101	F	0.930972	0.231402	0.550845
F102	F	1.430972	0.731402	1.050845
F103	F	1.058273	-0.295585	-0.178164
F104	F	1.558273	0.204415	0.321836
H105	H	1.055060	-0.463773	0.156574
H106	H	1.555060	0.036227	0.656574
H107	H	1.055085	-0.463748	-0.156581
H108	H	1.555085	0.036252	0.343419
H109	H	1.166935	0.012503	0.436694
H110	H	1.666935	0.512503	0.936694
H111	H	0.516692	-0.023525	-0.000014
H112	H	1.016692	0.476475	0.499986
H113	H	0.635186	-0.021458	-0.000008
H114	H	1.135186	0.478542	0.499992
H115	H	0.946176	0.217280	0.436731
H116	H	1.446176	0.717280	0.936731
H117	H	0.477938	0.251259	-0.000024
H118	H	0.977938	0.751259	0.499976
F119	F	1.058227	-0.295591	0.178161
F120	F	1.558227	0.204409	0.678161
F121	F	1.182140	-0.001610	0.243444
F122	F	1.682140	0.498390	0.743444
F123	F	0.582104	0.272066	-0.000005
F124	F	1.082104	0.772066	0.499995
H125	H	1.166958	0.012510	0.563270
H126	H	1.666958	0.512510	1.063270
F127	F	1.182188	-0.001597	0.756527
F128	F	1.682188	0.498403	1.256527
F129	F	0.931000	0.231410	0.756558
F130	F	1.431000	0.731410	1.256558
H131	H	0.765701	0.256300	-0.000003
H132	H	1.265701	0.756300	0.499997
F133	F	0.818780	-0.037219	-0.000001
F134	F	1.318780	0.462781	0.499999
H135	H	0.347429	-0.026494	-0.000015
H136	H	0.847429	0.473506	0.499985
