data_functionalizedCrystal
_audit_creation_method	'MofGen! by Chris Wilmer'
_symmetry_space_group_name_H-M	'P1'
_symmetry_Int_Tables_number	1
_symmetry_cell_setting	triclinic
loop_
_symmetry_equiv_pos_as_xyz
  x,y,z
_cell_length_a	17.699083
_cell_length_b	14.472311
_cell_length_c	17.699083
_cell_angle_alpha	90.003543
_cell_angle_beta	96.716985
_cell_angle_gamma	90.003549
loop_
_atom_site_label
_atom_site_type_symbol
_atom_site_fract_x
_atom_site_fract_y
_atom_site_fract_z
O1	O	1.004074	-0.076713	-0.095709
O2	O	1.504074	0.423287	0.404291
O3	O	0.783695	-0.076744	-0.108162
O4	O	1.283695	0.423256	0.391838
O5	O	0.900111	-0.076719	0.008254
O6	O	1.400111	0.423281	0.508254
O7	O	0.887658	-0.076738	-0.212125
O8	O	1.387658	0.423262	0.287875
O9	O	0.900105	0.076963	0.008253
O10	O	1.400105	0.576963	0.508253
O11	O	0.783689	0.076938	-0.108162
O12	O	1.283689	0.576938	0.391838
O13	O	1.004068	0.076969	-0.095710
O14	O	1.504068	0.576969	0.404290
Cu15	Cu	0.893878	0.090986	-0.101936
Cu16	Cu	1.393878	0.590986	0.398064
Cu17	Cu	0.893885	-0.090761	-0.101935
Cu18	Cu	1.393885	0.409239	0.398065
O19	O	0.887652	0.076944	-0.212125
O20	O	1.387652	0.576944	0.287875
C21	C	0.755495	0.000093	-0.107716
C22	C	1.255495	0.500093	0.392284
C23	C	0.671477	0.000082	-0.106377
C24	C	1.171477	0.500082	0.393623
C25	C	0.622856	0.000077	-0.174710
C26	C	1.122856	0.500077	0.325290
C27	C	0.543913	0.000089	-0.173448
C28	C	1.043913	0.500089	0.326552
C29	C	0.513592	0.000100	-0.103852
C30	C	1.013592	0.500100	0.396148
C31	C	0.562219	0.000108	-0.035513
C32	C	1.062219	0.500108	0.464487
C33	C	0.641161	0.000102	-0.036776
C34	C	1.141161	0.500102	0.463224
C35	C	0.243856	0.000131	-0.030418
C36	C	0.743856	0.500131	0.469582
C37	C	0.164908	0.000134	-0.029160
C38	C	0.664908	0.500134	0.470840
C39	C	0.146608	0.000118	-0.167090
C40	C	0.646608	0.500118	0.332910
C41	C	0.225550	0.000112	-0.168353
C42	C	0.725550	0.500112	0.331647
C43	C	0.274170	0.000125	-0.100015
C44	C	0.774170	0.500125	0.399985
C45	C	0.359769	0.000114	-0.101384
C46	C	0.859769	0.500114	0.398616
C47	C	0.427995	0.000104	-0.102481
C48	C	0.927995	0.500104	0.397519
N49	N	0.893891	-0.218592	-0.101929
N50	N	1.393891	0.281408	0.398071
C51	C	0.893883	-0.592683	-0.101934
C52	C	1.393883	-0.092683	0.398066
C53	C	0.956105	-0.553475	-0.039579
C54	C	1.456105	-0.053475	0.460421
C55	C	0.956328	-0.446387	-0.039737
C56	C	1.456328	0.053613	0.460263
C57	C	0.893887	-0.407092	-0.101931
C58	C	1.393887	0.092908	0.398069
C59	C	0.910785	-0.445971	-0.180933
C60	C	1.410785	0.054029	0.319067
C61	C	0.911230	-0.553092	-0.180568
C62	C	1.411230	-0.053092	0.319432
C63	C	0.814574	-0.553213	-0.085998
C64	C	1.314574	-0.053213	0.414002
C65	C	0.815109	-0.446084	-0.084200
C66	C	1.315109	0.053916	0.415800
C67	C	0.893887	-0.302204	-0.101934
C68	C	1.393887	0.197796	0.398066
C69	C	0.893883	-0.697571	-0.101936
C70	C	1.393883	-0.197571	0.398064
C71	C	1.032268	0.000130	-0.096156
C72	C	1.532268	0.500130	0.403844
C73	C	1.116286	0.000135	-0.097494
C74	C	1.616286	0.500135	0.402506
C75	C	0.899662	0.000122	0.036451
C76	C	1.399662	0.500122	0.536451
C77	C	0.898323	0.000122	0.120469
C78	C	1.398323	0.500122	0.620469
N79	N	0.893878	0.218817	-0.101936
N80	N	1.393878	0.718817	0.398064
C81	C	0.888102	0.000101	-0.240322
C82	C	1.388102	0.500101	0.259678
C83	C	0.889440	0.000095	-0.324340
C84	C	1.389440	0.500095	0.175660
C85	C	0.966656	0.000133	0.169090
C86	C	1.466656	0.500133	0.669090
C87	C	0.965394	0.000124	0.248033
C88	C	1.465394	0.500124	0.748033
C89	C	0.895798	0.000112	0.278354
C90	C	1.395798	0.500112	0.778354
C91	C	0.827459	0.000098	0.229727
C92	C	1.327459	0.500098	0.729727
C93	C	0.828722	0.000100	0.150785
C94	C	1.328722	0.500100	0.650785
C95	C	0.822364	0.000090	0.548090
C96	C	1.322364	0.500090	1.048090
C97	C	0.821106	0.000091	0.627038
C98	C	1.321106	0.500091	1.127038
C99	C	0.959036	0.000114	0.645338
C100	C	1.459036	0.500114	1.145338
C101	C	0.960299	0.000116	0.566396
C102	C	1.460299	0.500116	1.066396
C103	C	0.891961	0.000098	0.517776
C104	C	1.391961	0.500098	1.017776
C105	C	0.893330	0.000105	0.432177
C106	C	1.393330	0.500105	0.932177
C107	C	0.894427	0.000111	0.363951
C108	C	1.394427	0.500111	0.863951
H109	H	0.107012	0.000112	-0.222734
H110	H	0.607012	0.500112	0.277266
H111	H	0.764429	0.000083	0.651721
H112	H	1.264429	0.500083	1.151721
H113	H	1.014680	0.000125	0.684934
H114	H	1.514680	0.500125	1.184934
Br115	Br	0.266696	0.000089	-0.262808
Br116	Br	0.766696	0.500089	0.237192
H117	H	0.504328	0.000083	-0.229092
H118	H	1.004328	0.500083	0.270908
Br119	Br	0.729619	0.000059	0.482115
Br120	Br	1.229619	0.500059	0.982115
H121	H	0.140225	0.000144	0.027517
H122	H	0.640225	0.500144	0.527517
H123	H	0.770792	0.000082	0.254420
H124	H	1.270792	0.500082	0.754420
Br125	Br	0.939700	-0.596406	0.058628
Br126	Br	1.439700	-0.096406	0.558628
H127	H	0.773078	0.000091	0.111198
H128	H	1.273078	0.500091	0.611198
Br129	Br	0.737403	-0.595473	-0.161787
Br130	Br	1.237403	-0.095473	0.338213
H131	H	0.647537	0.000067	-0.231384
H132	H	1.147537	0.500067	0.268616
H133	H	0.766661	-0.419340	-0.126670
H134	H	1.266661	0.080660	0.373330
H135	H	0.283434	0.000142	0.025228
H136	H	0.783434	0.500142	0.525228
Br137	Br	0.839135	-0.596326	-0.260756
Br138	Br	1.339135	-0.096326	0.239244
Br139	Br	0.521071	0.000131	0.058941
Br140	Br	1.021071	0.500131	0.558941
Br141	Br	0.837232	-0.403558	-0.260138
Br142	Br	1.337232	0.096442	0.239862
H143	H	1.021038	0.000135	0.287618
H144	H	1.521038	0.500135	0.787618
Br145	Br	0.707148	0.000117	0.055966
Br146	Br	1.207148	0.500117	0.555966
Br147	Br	1.006065	-0.401243	-0.204901
Br148	Br	1.506065	0.098757	0.295099
H149	H	0.946318	-0.420100	0.018987
H150	H	1.446318	0.079900	0.518987
H151	H	1.014633	-0.580398	-0.049612
H152	H	1.514633	-0.080398	0.450388
H153	H	1.016971	0.000131	0.541714
H154	H	1.516971	0.500131	1.041714
H155	H	1.015189	-0.420752	-0.049922
H156	H	1.515189	0.079248	0.450078
Br157	Br	1.007613	-0.594727	-0.203966
Br158	Br	1.507613	-0.094727	0.296034
Br159	Br	1.061114	0.000163	0.127948
Br160	Br	1.561114	0.500163	0.627948
H161	H	0.798249	-0.580232	-0.029621
H162	H	1.298249	-0.080232	0.470379
H163	H	0.802278	-0.420675	-0.026084
H164	H	1.302278	0.079325	0.473916
