data_functionalizedCrystal
_audit_creation_method	'MofGen! by Chris Wilmer'
_symmetry_space_group_name_H-M	'P1'
_symmetry_Int_Tables_number	1
_symmetry_cell_setting	triclinic
loop_
_symmetry_equiv_pos_as_xyz
  x,y,z
_cell_length_a	19.188930
_cell_length_b	16.974885
_cell_length_c	15.455313
_cell_angle_alpha	90.969048
_cell_angle_beta	92.650876
_cell_angle_gamma	83.269424
loop_
_atom_site_label
_atom_site_type_symbol
_atom_site_fract_x
_atom_site_fract_y
_atom_site_fract_z
O1	O	0.089022	1.048759	0.001411
O2	O	0.589022	1.548759	0.501411
O3	O	0.099680	0.819292	-0.014685
O4	O	0.599680	1.319292	0.485315
O5	O	-0.007272	0.940646	-0.006156
O6	O	0.492728	1.440646	0.493844
O7	O	0.195975	0.927404	-0.007119
O8	O	0.695975	1.427404	0.492881
O9	O	-0.001182	0.933707	0.137618
O10	O	0.498818	1.433707	0.637618
O11	O	0.105771	0.812352	0.129089
O12	O	0.605771	1.312352	0.629089
O13	O	0.095113	1.041819	0.145185
O14	O	0.595113	1.541819	0.645185
Cu15	Cu	0.100998	0.926452	0.150265
Cu16	Cu	0.600998	1.426452	0.650265
Cu17	Cu	0.093795	0.934659	-0.019765
Cu18	Cu	0.593795	1.434659	0.480235
O19	O	0.202066	0.920465	0.136656
O20	O	0.702066	1.420465	0.636656
C21	C	0.102208	0.786464	0.055143
C22	C	0.602208	1.286464	0.555143
C23	C	0.100657	0.698989	0.049008
C24	C	0.600657	1.198989	0.549008
C25	C	0.091545	0.207007	0.006001
C26	C	0.591545	0.707007	0.506001
C27	C	0.093003	0.289199	0.011778
C28	C	0.593003	0.789199	0.511778
C29	C	0.097057	0.326504	0.093038
C30	C	0.597057	0.826504	0.593038
C31	C	0.099646	0.281613	0.168527
C32	C	0.599646	0.781613	0.668527
C33	C	0.098183	0.199423	0.162750
C34	C	0.598183	0.699423	0.662750
C35	C	0.101784	0.571908	0.118720
C36	C	0.601784	1.071908	0.618720
C37	C	0.103249	0.654104	0.124491
C38	C	0.603249	1.154104	0.624491
C39	C	0.096603	0.661685	-0.032259
C40	C	0.596603	1.161685	0.467741
C41	C	0.095145	0.579493	-0.038029
C42	C	0.595145	1.079493	0.461971
C43	C	0.097731	0.534609	0.037460
C44	C	0.597731	1.034609	0.537460
N45	N	0.098549	0.410517	0.098944
N46	N	0.598549	0.910517	0.598944
N47	N	0.096233	0.450599	0.031553
N48	N	0.596233	0.950599	0.531553
C49	C	-0.030240	0.936747	0.065704
C50	C	0.469760	1.436747	0.565704
C51	C	-0.107750	0.935460	0.065621
C52	C	0.392250	1.435460	0.565621
C53	C	-0.152340	1.006667	0.070620
C54	C	0.347660	1.506667	0.570620
C55	C	-0.225170	1.005458	0.070521
C56	C	0.274830	1.505458	0.570521
C57	C	-0.253406	0.933037	0.065441
C58	C	0.246594	1.433037	0.565441
C59	C	-0.208807	0.861821	0.060436
C60	C	0.291193	1.361821	0.560436
C61	C	-0.135979	0.863032	0.060526
C62	C	0.364021	1.363032	0.560526
N63	N	-0.359598	0.875318	0.110487
N64	N	0.140402	1.375318	0.610487
N65	N	-0.428782	0.874172	0.110403
N66	N	0.071218	1.374172	0.610403
C67	C	-0.472833	0.929383	0.065167
C68	C	0.027167	1.429383	0.565167
N69	N	-0.445087	0.985795	0.020028
N70	N	0.054913	1.485795	0.520028
N71	N	-0.375896	0.986943	0.020116
N72	N	0.124104	1.486943	0.520116
C73	C	-0.332375	0.931716	0.065342
C74	C	0.167625	1.431716	0.565342
C75	C	-0.596394	0.999285	0.070058
C76	C	-0.096394	1.499285	0.570058
C77	C	-0.669225	0.998073	0.069953
C78	C	-0.169225	1.498073	0.569953
C79	C	-0.652860	0.854433	0.059877
C80	C	-0.152860	1.354433	0.559877
C81	C	-0.580031	0.855647	0.059973
C82	C	-0.080031	1.355647	0.559973
C83	C	-0.551802	0.928075	0.065067
C84	C	-0.051802	1.428075	0.565067
C85	C	0.225034	0.924363	0.064794
C86	C	0.725034	1.424363	0.564794
C87	C	0.302544	0.925651	0.064871
C88	C	0.802544	1.425651	0.564871
C89	C	0.092585	1.074646	0.075355
C90	C	0.592585	1.574646	0.575355
C91	C	0.094136	1.162122	0.081484
C92	C	0.594136	1.662122	0.581484
N93	N	0.106064	0.920686	0.269855
N94	N	0.606064	1.420686	0.769855
N95	N	0.088724	0.940432	-0.139355
N96	N	0.588724	1.440432	0.360645
C97	C	0.060644	0.972259	0.318874
C98	C	0.560644	1.472259	0.818874
C99	C	0.064481	0.967905	0.409376
C100	C	0.564481	1.467905	0.909376
C101	C	0.113743	0.911981	0.450857
C102	C	0.613743	1.411981	0.950857
C103	C	0.159166	0.860402	0.401832
C104	C	0.659166	1.360402	0.901832
C105	C	0.155324	0.864753	0.311331
C106	C	0.655324	1.364753	0.811331
C107	C	0.130305	0.893203	0.721119
C108	C	0.630305	1.393203	1.221119
C109	C	0.134145	0.888858	0.811626
C110	C	0.634145	1.388858	1.311626
C111	C	0.039459	0.996361	0.819164
C112	C	0.539459	1.496361	1.319164
C113	C	0.035625	1.000709	0.728662
C114	C	0.535625	1.500709	1.228662
C115	C	0.081045	0.949128	0.679644
C116	C	0.581045	1.449128	1.179644
N117	N	0.117668	0.907531	0.543365
N118	N	0.617668	1.407531	1.043365
N119	N	0.077115	0.953574	0.587138
N120	N	0.577115	1.453574	1.087138
H121	H	0.102943	0.311993	0.234691
H122	H	0.602943	0.811993	0.734691
H123	H	0.002479	1.038355	0.859083
H124	H	0.502479	1.538355	1.359083
N125	N	-0.087887	0.786221	0.055147
N126	N	0.412113	1.286221	0.555147
H127	H	-0.055060	0.780951	0.108261
H128	H	0.444940	1.280951	0.608261
H129	H	-0.059598	0.786137	0.001634
H130	H	0.440402	1.286137	0.501634
N131	N	0.104989	0.523667	0.200292
N132	N	0.604989	1.023667	0.700292
H133	H	0.147898	0.483041	0.200749
H134	H	0.647898	0.983041	0.700749
H135	H	0.061412	0.495779	0.202313
H136	H	0.561412	0.995779	0.702313
H137	H	0.027496	1.009900	0.449287
H138	H	0.527496	1.509900	0.949287
H139	H	0.100301	0.162877	0.224216
H140	H	0.600301	0.662877	0.724216
H141	H	-0.004488	1.046247	0.694890
H142	H	0.495512	1.546247	1.194890
N143	N	-0.121893	1.084782	0.076113
N144	N	0.378107	1.584782	0.576113
H145	H	-0.161196	1.129708	0.079264
H146	H	0.338804	1.629708	0.579264
H147	H	-0.094283	1.090989	0.023071
H148	H	0.405717	1.590989	0.523071
N149	N	0.212294	0.800078	0.446567
N150	N	0.712294	1.300078	0.946567
H151	H	0.207838	0.805147	0.511337
H152	H	0.707838	1.305147	1.011337
H153	H	0.261176	0.809765	0.431355
H154	H	0.761176	1.309765	0.931355
N155	N	0.179288	0.837567	0.668256
N156	N	0.679288	1.337567	1.168256
H157	H	0.211077	0.801482	0.708270
H158	H	0.711077	1.301482	1.208270
H159	H	0.208638	0.869423	0.632792
H160	H	0.708638	1.369423	1.132792
N161	N	-0.273276	1.082263	0.075911
N162	N	0.226724	1.582263	0.575911
H163	H	-0.244342	1.128328	0.079151
H164	H	0.255658	1.628328	0.579151
H165	H	-0.301597	1.082308	0.129393
H166	H	0.198403	1.582308	0.629393
H167	H	0.192310	0.822755	0.271420
H168	H	0.692310	1.322755	0.771420
N169	N	-0.239257	0.783709	0.054952
N170	N	0.260743	1.283709	0.554952
H171	H	-0.292159	0.793745	0.055656
H172	H	0.207841	1.293745	0.555656
H173	H	-0.220703	0.749985	0.106064
H174	H	0.279297	1.249985	0.606064
H175	H	-0.573409	1.058260	0.074202
H176	H	-0.073409	1.558260	0.574202
H177	H	0.174262	0.843315	0.845396
H178	H	0.674262	1.343315	1.345396
N179	N	-0.717323	1.074879	0.075342
N180	N	-0.217323	1.574879	0.575342
H181	H	-0.688386	1.120942	0.078586
H182	H	-0.188386	1.620942	0.578586
H183	H	-0.745647	1.074925	0.128821
H184	H	-0.245647	1.574925	0.628821
N185	N	0.107618	0.694340	0.212142
N186	N	0.607618	1.194340	0.712142
H187	H	0.108158	0.753216	0.204343
H188	H	0.608158	1.253216	0.704343
H189	H	0.152055	0.671774	0.244888
H190	H	0.652055	1.171774	0.744888
H191	H	-0.675849	0.795467	0.055736
H192	H	-0.175849	1.295467	0.555736
H193	H	-0.543724	0.797662	0.055907
H194	H	-0.043724	1.297662	0.555907
H195	H	0.020532	1.017802	0.285106
H196	H	0.520532	1.517802	0.785106
H197	H	0.088248	0.176640	-0.060170
H198	H	0.588248	0.676640	0.439830
H199	H	0.090888	0.325742	-0.049689
H200	H	0.590888	0.825742	0.450311
H201	H	0.094497	0.698237	-0.093718
H202	H	0.594497	1.198237	0.406282
N203	N	0.090765	0.539259	-0.125674
N204	N	0.590765	1.039259	0.374326
H205	H	0.089341	0.580167	-0.172617
H206	H	0.589341	1.080167	0.327383
H207	H	0.046770	0.511867	-0.131007
H208	H	0.546770	1.011867	0.368993
