data_functionalizedCrystal
_audit_creation_method	'MofGen! by Chris Wilmer'
_symmetry_space_group_name_H-M	'P1'
_symmetry_Int_Tables_number	1
_symmetry_cell_setting	triclinic
loop_
_symmetry_equiv_pos_as_xyz
  x,y,z
_cell_length_a	16.109318
_cell_length_b	10.489741
_cell_length_c	15.186229
_cell_angle_alpha	89.996534
_cell_angle_beta	90.000224
_cell_angle_gamma	84.003869
loop_
_atom_site_label
_atom_site_type_symbol
_atom_site_fract_x
_atom_site_fract_y
_atom_site_fract_z
O1	O	1.104133	0.164052	-0.073155
O2	O	0.862198	0.184432	-0.073173
O3	O	0.988671	-0.011435	-0.073158
O4	O	0.977661	0.359919	-0.073169
O5	O	0.988662	-0.011438	0.073299
O6	O	0.862190	0.184429	0.073285
O7	O	1.104124	0.164049	0.073303
Zn8	Zn	0.983156	0.174239	0.096547
Zn9	Zn	0.983167	0.174243	-0.096417
O10	O	0.977652	0.359917	0.073288
C11	C	0.831214	0.183601	0.000054
C12	C	0.738905	0.181115	0.000047
C13	C	0.439786	0.173085	-0.079771
C14	C	0.526522	0.175413	-0.079776
C15	C	0.526531	0.175392	0.079899
C16	C	0.439798	0.173055	0.079904
C17	C	0.396427	0.171908	0.000066
C18	C	0.569896	0.176573	0.000056
C19	C	0.663938	0.179097	0.000051
C20	C	0.302378	0.169382	0.000071
C21	C	0.987835	-0.058956	0.000070
C22	C	0.985347	-0.200550	0.000068
C23	C	0.904876	-0.267530	0.000056
C24	C	0.942886	-0.360202	0.072270
C25	C	0.942913	-0.360174	-0.072126
C26	C	1.023389	-0.291357	0.072342
C27	C	1.023406	-0.291319	-0.072119
C28	C	1.061474	-0.383964	0.000113
C29	C	1.135108	0.164880	0.000074
C30	C	1.227418	0.167367	0.000075
C31	C	0.978488	0.407438	0.000058
C32	C	0.980976	0.549031	0.000054
N33	N	0.983154	0.174236	0.228240
N34	N	0.983175	0.174236	-0.228110
C35	C	1.039175	0.087535	0.453969
C36	C	1.039178	0.087532	0.546159
C37	C	0.927148	0.260941	0.546155
C38	C	0.927142	0.260937	0.453967
C39	C	0.983160	0.174235	0.407876
C40	C	0.983169	0.174236	0.592254
C41	C	0.983171	0.174234	0.692210
C42	C	0.983157	0.174236	0.307914
H43	H	0.404476	0.172149	-0.144780
O44	O	0.866742	0.354471	0.595865
H45	H	0.826019	0.300772	0.637883
H46	H	0.561854	0.176329	0.144900
H47	H	1.084790	0.016931	0.583685
H48	H	0.881524	0.331539	0.416436
O49	O	1.068455	-0.251186	0.153301
H50	H	1.035241	-0.279425	0.213107
H51	H	0.908858	-0.390646	-0.133183
O52	O	0.393091	0.172052	0.166072
H53	H	0.346755	0.257962	0.169813
H54	H	0.561821	0.176369	-0.144788
H55	H	0.838714	-0.216925	0.000124
O56	O	1.068509	-0.250924	-0.152986
H57	H	1.124081	-0.203920	-0.132668
O58	O	0.897787	-0.400628	0.153139
H59	H	0.842915	-0.449319	0.132799
O60	O	1.149186	-0.450718	0.000167
H61	H	1.182374	-0.423166	0.060169
H62	H	1.084788	0.016936	0.416444
