data_functionalizedCrystal
_audit_creation_method	'MofGen! by Chris Wilmer'
_symmetry_space_group_name_H-M	'P1'
_symmetry_Int_Tables_number	1
_symmetry_cell_setting	triclinic
loop_
_symmetry_equiv_pos_as_xyz
  x,y,z
_cell_length_a	14.519709
_cell_length_b	11.892095
_cell_length_c	12.837942
_cell_angle_alpha	94.302569
_cell_angle_beta	89.254543
_cell_angle_gamma	86.099364
loop_
_atom_site_label
_atom_site_type_symbol
_atom_site_fract_x
_atom_site_fract_y
_atom_site_fract_z
O1	O	1.240918	-0.093854	0.129302
O2	O	1.740918	0.406146	0.629302
O3	O	0.973826	-0.093888	0.145304
O4	O	1.473826	0.406112	0.645304
O5	O	1.101449	-0.093865	-0.013610
O6	O	1.601449	0.406135	0.486390
O7	O	1.113295	-0.093877	0.288216
O8	O	1.613295	0.406123	0.788216
O9	O	1.090807	0.094141	-0.000381
O10	O	1.590807	0.594141	0.499619
O11	O	0.963184	0.094118	0.158534
O12	O	1.463184	0.594118	0.658534
O13	O	1.230275	0.094152	0.142531
O14	O	1.730275	0.594152	0.642531
Zn15	Zn	1.095040	0.123985	0.152633
Zn16	Zn	1.595040	0.623985	0.652633
Zn17	Zn	1.109062	-0.123721	0.135203
Zn18	Zn	1.609062	0.376279	0.635203
O19	O	1.102652	0.094129	0.301446
O20	O	1.602652	0.594129	0.801446
C21	C	0.934081	0.000110	0.151173
C22	C	1.434081	0.500110	0.651173
C23	C	0.831507	0.000097	0.148937
C24	C	1.331507	0.500097	0.648937
N25	N	1.085477	0.293037	0.164528
N26	N	1.585477	0.793037	0.664528
C27	C	1.092127	0.000137	-0.045624
C28	C	1.592127	0.500137	0.454376
C29	C	1.080193	0.000134	-0.160723
C30	C	1.580193	0.500134	0.339277
C31	C	0.455897	0.000149	0.140712
C32	C	0.955897	0.500149	0.640712
C33	C	0.560404	0.000134	0.142996
C34	C	1.060404	0.500134	0.642996
C35	C	0.643699	0.000122	0.144824
C36	C	1.143699	0.500122	0.644824
C37	C	0.748212	0.000110	0.147109
C38	C	1.248212	0.500110	0.647109
C39	C	1.270021	0.000151	0.136663
C40	C	1.770021	0.500151	0.636663
C41	C	1.372595	0.000157	0.138898
C42	C	1.872595	0.500157	0.638898
N43	N	1.118632	-0.292773	0.123299
N44	N	1.618632	0.207227	0.623299
C45	C	1.185172	0.529703	0.040467
C46	C	1.685172	1.029703	0.540467
C47	C	1.178494	0.648044	0.048789
C48	C	1.678494	1.148044	0.548789
C49	C	1.065441	0.648061	0.189489
C50	C	1.565441	1.148061	0.689489
C51	C	1.072118	0.529721	0.181167
C52	C	1.572118	1.029721	0.681167
C53	C	1.131986	0.470546	0.106655
C54	C	1.631986	0.970546	0.606655
C55	C	1.138668	0.352203	0.098338
C56	C	1.638668	0.852203	0.598338
C57	C	1.025610	0.352222	0.239032
C58	C	1.525610	0.852222	0.739032
C59	C	1.018933	0.470563	0.247355
C60	C	1.518933	0.970563	0.747355
C61	C	1.223663	0.000129	-0.401416
C62	C	1.723663	0.500129	0.098584
C63	C	1.212455	0.000125	-0.509563
C64	C	1.712455	0.500125	-0.009563
C65	C	1.046568	0.000116	-0.485166
C66	C	1.546568	0.500116	0.014834
C67	C	1.057777	0.000119	-0.377019
C68	C	1.557777	0.500119	0.122981
C69	C	1.146327	0.000127	-0.335148
C70	C	1.646327	0.500127	0.164852
C71	C	1.157535	0.000139	-0.226999
C72	C	1.657535	0.500139	0.273001
C73	C	0.991649	0.000121	-0.202605
C74	C	1.491649	0.500121	0.297395
C75	C	0.980440	0.000118	-0.310752
C76	C	1.480440	0.500118	0.189248
C77	C	1.111975	0.000124	0.333459
C78	C	1.611975	0.500124	0.833459
C79	C	1.123910	0.000120	0.448558
C80	C	1.623910	0.500120	0.948558
H81	H	1.187418	0.304024	0.037669
H82	H	1.687418	0.804024	0.537669
H83	H	1.221802	0.696207	-0.005108
H84	H	1.721802	1.196207	0.494892
N85	N	1.004285	0.708535	0.265579
N86	N	1.504285	1.208535	0.765579
N87	N	0.998329	0.814195	0.272988
N88	N	1.498329	1.314195	0.772988
H89	H	0.955136	0.856908	0.326726
H90	H	1.455136	1.356908	0.826726
N91	N	0.957781	0.531031	0.323452
N92	N	1.457781	1.031031	0.823452
N93	N	0.951822	0.636691	0.330871
N94	N	1.451822	1.136691	0.830871
H95	H	0.908634	0.679396	0.384617
H96	H	1.408634	1.179396	0.884617
H97	H	1.295764	0.000146	-0.367323
H98	H	1.795764	0.500146	0.132677
N99	N	1.291462	0.000120	-0.577240
N100	N	1.791462	0.500120	-0.077240
N101	N	1.370515	0.000122	-0.539836
N102	N	1.870515	0.500122	-0.039836
H103	H	1.426319	0.000116	-0.587633
H104	H	1.926319	0.500116	-0.087633
H105	H	0.982306	0.304043	0.292930
H106	H	1.482306	0.804043	0.792930
H107	H	0.974474	0.000097	-0.519278
H108	H	1.474474	0.500097	-0.019278
H109	H	1.229637	0.000149	-0.192909
H110	H	1.729637	0.500149	0.307091
H111	H	0.928675	0.000129	-0.148637
H112	H	1.428675	0.500129	0.351363
N113	N	0.890000	0.000125	-0.353547
N114	N	1.390000	0.500125	0.146453
N115	N	0.860767	0.079373	-0.405605
N116	N	1.360767	0.579373	0.094395
H117	H	0.796892	0.079383	-0.435830
H118	H	1.296892	0.579383	0.064170
N119	N	1.246236	0.469268	-0.035738
N120	N	1.746236	0.969268	0.464262
N121	N	1.293659	0.522102	-0.094891
N122	N	1.793659	1.022102	0.405109
H123	H	1.336751	0.479422	-0.148752
H124	H	1.836751	0.979422	0.351248
