data_functionalizedCrystal
_audit_creation_method	'MofGen! by Chris Wilmer'
_symmetry_space_group_name_H-M	'P1'
_symmetry_Int_Tables_number	1
_symmetry_cell_setting	triclinic
loop_
_symmetry_equiv_pos_as_xyz
  x,y,z
_cell_length_a	29.839131
_cell_length_b	13.033304
_cell_length_c	29.839125
_cell_angle_alpha	97.204993
_cell_angle_beta	89.982291
_cell_angle_gamma	82.790878
loop_
_atom_site_label
_atom_site_type_symbol
_atom_site_fract_x
_atom_site_fract_y
_atom_site_fract_z
Zn1	Zn	-0.091819	-1.597565	-0.341406
Zn2	Zn	-0.166939	-1.597407	-0.266267
Zn3	Zn	-0.101343	-1.422814	-0.256728
Zn4	Zn	-0.176456	-1.422693	-0.331810
O5	O	-0.134139	-1.510120	-0.299053
O6	O	-0.093815	-1.743796	-0.339446
O7	O	-0.158241	-1.574232	-0.202134
O8	O	-0.037206	-1.446112	-0.267984
O9	O	-0.149006	-1.743680	-0.284242
O10	O	-0.030209	-1.574501	-0.330197
O11	O	-0.110047	-1.445959	-0.195125
O12	O	-0.119276	-1.276546	-0.258680
O13	O	-0.165226	-1.445905	-0.395951
O14	O	-0.174461	-1.276457	-0.313842
O15	O	-0.103043	-1.574383	-0.403001
O16	O	-0.231075	-1.574114	-0.274938
O17	O	-0.238067	-1.445752	-0.323092
C18	C	-0.148935	-1.238580	-0.284185
C19	C	-0.155275	-1.122414	-0.277835
C20	C	-0.130837	-1.070680	-0.302360
C21	C	-0.137390	-0.950617	-0.295798
C22	C	-0.250872	-1.509931	-0.299020
C23	C	-0.300806	-1.509946	-0.299026
C24	C	-0.606780	-1.577079	-0.274027
C25	C	-0.794446	-1.577208	-0.274052
O26	O	-0.815599	-1.634138	-0.252771
N27	N	-0.821570	-1.510336	-0.299098
C28	C	-0.801774	-1.443432	-0.324143
O29	O	-0.829150	-1.386564	-0.345451
C30	C	-0.614109	-1.443309	-0.324121
C31	C	-0.586987	-1.510178	-0.299069
C32	C	-0.579659	-1.643943	-0.248978
C33	C	-0.532745	-1.643906	-0.248970
C34	C	-0.512953	-1.577005	-0.274012
C35	C	-0.540074	-1.510141	-0.299061
C36	C	-0.594314	-1.376412	-0.349167
C37	C	-0.547394	-1.376389	-0.349161
C38	C	-0.520273	-1.443257	-0.324109
C39	C	-0.473368	-1.443203	-0.324095
N40	N	-0.446244	-1.510075	-0.299048
C41	C	-0.466037	-1.576976	-0.274007
C42	C	-0.900301	-1.443500	-0.324152
C43	C	-0.947217	-1.443529	-0.324157
C44	C	-0.939886	-1.577307	-0.274067
C45	C	-0.892969	-1.577272	-0.274059
C46	C	-0.873177	-1.510372	-0.299106
C47	C	-0.367515	-1.576893	-0.273992
C48	C	-0.320598	-1.576847	-0.273985
C49	C	-0.327934	-1.443074	-0.324077
C50	C	-0.374847	-1.443115	-0.324082
C51	C	-0.394636	-1.510033	-0.299039
O52	O	-0.452184	-1.386312	-0.345368
O53	O	-0.438652	-1.633852	-0.252710
C54	C	-0.653693	-1.577116	-0.274035
C55	C	-0.680814	-1.510252	-0.299084
C56	C	-0.661022	-1.443351	-0.324126
C57	C	-0.727730	-1.510281	-0.299089
C58	C	-0.747523	-1.577182	-0.274048
C59	C	-0.720399	-1.644054	-0.249001
C60	C	-0.673486	-1.644017	-0.248994
C61	C	-0.688146	-1.376479	-0.349173
C62	C	-0.735059	-1.376521	-0.349178
C63	C	-0.754851	-1.443422	-0.324136
C64	C	-0.016949	-1.510338	-0.299097
C65	C	0.032990	-1.510431	-0.299116
C66	C	-0.134134	-1.510148	-0.416233
C67	C	-0.134131	-1.510160	-0.466168
C68	C	-0.119284	-0.782720	-0.313975
C69	C	-0.112948	-0.898886	-0.320327
C70	C	-0.101674	-1.577129	-0.779489
C71	C	-0.101633	-1.577181	-0.967165
O72	O	-0.074083	-1.634042	-0.994552
N73	N	-0.134004	-1.510299	-0.986961
C74	C	-0.166385	-1.443394	-0.959834
O75	O	-0.193915	-1.386501	-0.980977
C76	C	-0.166424	-1.443338	-0.772158
C77	C	-0.134054	-1.510232	-0.752366
C78	C	-0.069306	-1.644016	-0.759696
C79	C	-0.069318	-1.644007	-0.712780
C80	C	-0.101698	-1.577110	-0.685657
C81	C	-0.134066	-1.510222	-0.705450
C82	C	-0.198803	-1.376429	-0.745032
C83	C	-0.198810	-1.376419	-0.698111
C84	C	-0.166439	-1.443313	-0.678318
C85	C	-0.166458	-1.443315	-0.631411
N86	N	-0.134087	-1.510197	-0.611615
C87	C	-0.101707	-1.577094	-0.638738
C88	C	-0.166363	-1.443430	-1.058366
C89	C	-0.166354	-1.443445	-1.105285
C90	C	-0.101601	-1.577231	-1.112613
C91	C	-0.101612	-1.577220	-1.065693
C92	C	-0.133992	-1.510312	-1.038571
C93	C	-0.101735	-1.577070	-0.540211
C94	C	-0.101751	-1.577057	-0.493291
C95	C	-0.166503	-1.443268	-0.485967
C96	C	-0.166489	-1.443284	-0.532883
C97	C	-0.134101	-1.510188	-0.560004
O98	O	-0.193990	-1.386475	-0.603996
O99	O	-0.074175	-1.633963	-0.617585
C100	C	-0.101662	-1.577138	-0.826405
C101	C	-0.134030	-1.510251	-0.846198
C102	C	-0.166410	-1.443354	-0.819075
C103	C	-0.134020	-1.510266	-0.893117
C104	C	-0.101640	-1.577163	-0.920240
C105	C	-0.069269	-1.644045	-0.900444
C106	C	-0.069282	-1.644036	-0.853528
C107	C	-0.198781	-1.376472	-0.838871
C108	C	-0.198766	-1.376488	-0.885787
C109	C	-0.166386	-1.443385	-0.912910
C110	C	-0.134109	-1.510152	-0.182332
C111	C	-0.133974	-1.510342	-0.132408
H112	H	-0.181048	-1.077818	-0.251979
H113	H	-0.042906	-1.698519	-0.922536
Br114	Br	-0.283793	-1.667601	-0.239983
H115	H	-0.956008	-1.631781	-0.253677
H116	H	-0.616388	-1.321955	-0.369565
Br117	Br	-0.411657	-1.352339	-0.358069
H118	H	-0.087170	-0.943476	-0.346182
Br119	Br	-0.394365	-1.667711	-0.240004
H120	H	-0.510665	-1.698359	-0.228572
H121	H	-0.969296	-1.389069	-0.344552
H122	H	-0.192851	-1.388824	-0.549000
Br123	Br	-0.606510	-1.734752	-0.214989
H124	H	-0.225130	-1.322016	-0.901898
H125	H	-0.311812	-1.388600	-0.344464
H126	H	-0.042936	-1.698492	-0.781775
H127	H	-0.075253	-1.631689	-1.049582
Br128	Br	-0.242729	-1.285670	-0.802068
Br129	Br	-0.747270	-1.734843	-0.215015
Br130	Br	-0.856166	-1.668024	-0.240059
Br131	Br	-0.180347	-0.876303	-0.252697
H132	H	-0.042922	-1.698507	-0.837417
Br133	Br	-0.873448	-1.352698	-0.358147
Br134	Br	-0.520537	-1.285595	-0.383156
H135	H	-0.651406	-1.698468	-0.228594
Br136	Br	-0.771861	-1.285758	-0.383179
Br137	Br	-0.661292	-1.285677	-0.383162
Br138	Br	-0.057819	-1.667852	-0.466432
Br139	Br	-0.057778	-1.667862	-0.577010
H140	H	-0.042958	-1.698477	-0.696669
Br141	Br	-0.057657	-1.668019	-1.149431
Br142	Br	-0.210294	-1.352677	-1.132142
Br143	Br	-0.210312	-1.352617	-1.021563
Br144	Br	-0.087875	-1.144998	-0.345454
H145	H	-0.225174	-1.321922	-0.676029
Br146	Br	-0.210445	-1.352482	-0.449148
H147	H	-0.225163	-1.321956	-0.761139
