data_functionalizedCrystal
_audit_creation_method	'MofGen! by Chris Wilmer'
_symmetry_space_group_name_H-M	'P1'
_symmetry_Int_Tables_number	1
_symmetry_cell_setting	triclinic
loop_
_symmetry_equiv_pos_as_xyz
  x,y,z
_cell_length_a	9.065218
_cell_length_b	16.992695
_cell_length_c	8.140239
_cell_angle_alpha	89.996131
_cell_angle_beta	89.997198
_cell_angle_gamma	87.842054
loop_
_atom_site_label
_atom_site_type_symbol
_atom_site_fract_x
_atom_site_fract_y
_atom_site_fract_z
O1	O	1.971073	0.115065	-0.136620
O2	O	1.542664	0.124504	-0.136623
O3	O	1.755151	0.005630	-0.136608
O4	O	1.758586	0.233939	-0.136634
O5	O	1.755138	0.005628	0.136619
O6	O	1.542651	0.124502	0.136605
O7	O	1.971060	0.115064	0.136607
Zn8	Zn	1.756854	0.119783	0.179986
Zn9	Zn	1.756871	0.119785	-0.180002
O10	O	1.758573	0.233938	0.136593
C11	C	1.487587	0.123596	-0.000009
C12	C	1.323492	0.120884	-0.000010
C13	C	1.750726	-0.023615	0.000005
C14	C	1.737542	-0.110753	0.000005
C15	C	1.864748	-0.160090	0.000007
C16	C	1.852352	-0.241964	-0.000009
C17	C	1.712748	-0.274500	-0.000015
C18	C	1.585533	-0.225157	-0.000022
C19	C	1.597931	-0.143284	-0.000019
C20	C	1.661364	-0.518463	-0.000038
C21	C	1.648976	-0.600343	-0.000037
C22	C	1.915797	-0.617144	-0.000026
C23	C	1.928182	-0.535269	-0.000012
C24	C	1.800967	-0.485933	-0.000029
N25	N	1.700074	-0.358189	-0.000026
N26	N	1.813642	-0.402245	-0.000029
C27	C	2.026138	0.115972	-0.000010
C28	C	2.190232	0.118684	-0.000020
C29	C	1.762998	0.263183	-0.000024
C30	C	1.776182	0.350320	-0.000034
N31	N	1.756853	0.119781	0.425669
N32	N	1.756882	0.119780	-0.425685
H33	H	1.955937	-0.282132	-0.000003
H34	H	1.557776	-0.478303	-0.000051
O35	O	1.449889	-0.256724	-0.000324
C36	C	1.218026	-0.267370	-0.141835
C37	C	1.371610	-0.231585	-0.141722
H38	H	1.154682	-0.247046	-0.256126
H39	H	1.230928	-0.334365	-0.141939
H40	H	1.154726	-0.247145	-0.027441
H41	H	1.434993	-0.251749	-0.256097
H42	H	1.358603	-0.164594	-0.141533
O43	O	2.039322	-0.665103	-0.000317
C44	C	2.180138	-0.767317	-0.141831
C45	C	2.040197	-0.713038	-0.141716
H46	H	2.180877	-0.806099	-0.256122
H47	H	2.282098	-0.730038	-0.141935
H48	H	2.180990	-0.806039	-0.027437
H49	H	2.039202	-0.674307	-0.256090
H50	H	1.938301	-0.750364	-0.141526
H51	H	1.494345	-0.103114	-0.000021
H52	H	1.535289	-0.626830	-0.000016
O53	O	2.063908	-0.503796	-0.000074
C54	C	2.327248	-0.529104	0.000062
C55	C	2.173631	-0.564851	0.000076
H56	H	2.416000	-0.578450	0.000218
H57	H	2.339837	-0.491213	-0.114301
H58	H	2.339624	-0.491174	0.114389
H59	H	2.161150	-0.602817	-0.114174
H60	H	2.161111	-0.602697	0.114515
H61	H	1.978428	-0.133606	0.000022
