data_functionalizedCrystal
_audit_creation_method	'MofGen! by Chris Wilmer'
_symmetry_space_group_name_H-M	'P1'
_symmetry_Int_Tables_number	1
_symmetry_cell_setting	triclinic
loop_
_symmetry_equiv_pos_as_xyz
  x,y,z
_cell_length_a	14.519731
_cell_length_b	17.000371
_cell_length_c	13.596369
_cell_angle_alpha	89.993489
_cell_angle_beta	89.994584
_cell_angle_gamma	79.644050
loop_
_atom_site_label
_atom_site_type_symbol
_atom_site_fract_x
_atom_site_fract_y
_atom_site_fract_z
O1	O	1.215190	0.104406	-0.081794
O2	O	0.945698	0.116674	-0.081796
O3	O	1.097177	-0.005302	-0.081788
O4	O	1.063711	0.226381	-0.081802
O5	O	1.097164	-0.005308	0.081795
O6	O	0.945684	0.116667	0.081787
O7	O	1.215177	0.104399	0.081789
Zn8	Zn	1.080428	0.110532	0.107760
Zn9	Zn	1.080446	0.110541	-0.107767
O10	O	1.063697	0.226375	0.081781
C11	C	0.911379	0.116096	-0.000004
C12	C	0.809142	0.114373	-0.000005
C13	C	0.726114	0.112974	-0.000009
C14	C	0.621951	0.111225	-0.000009
C15	C	0.538927	0.109837	-0.000009
C16	C	0.434756	0.108088	-0.000011
C17	C	1.098968	-0.034956	0.000003
C18	C	1.104313	-0.123307	0.000003
C19	C	1.022057	-0.155455	-0.000002
C20	C	1.027085	-0.238470	0.000000
C21	C	1.114370	-0.289336	0.000001
C22	C	1.196633	-0.257183	0.000009
C23	C	1.191604	-0.174169	0.000013
C24	C	1.133795	-0.540453	-0.000006
C25	C	1.138817	-0.623472	-0.000013
C26	C	0.969269	-0.604754	-0.000019
C27	C	0.964248	-0.521739	-0.000021
C28	C	1.046511	-0.489593	-0.000008
C29	C	1.119512	-0.374191	0.000001
C30	C	1.041368	-0.404739	-0.000001
C31	C	1.249495	0.104978	-0.000005
C32	C	1.351733	0.106700	-0.000011
C33	C	1.061906	0.256029	-0.000012
C34	C	1.056561	0.344380	-0.000018
N35	N	1.080423	0.110526	0.254852
N36	N	1.080460	0.110541	-0.254859
C37	C	1.080445	0.110542	0.656143
C38	C	1.080436	0.110540	0.544492
C39	C	1.080434	0.110534	0.455501
C40	C	1.080425	0.110532	0.343843
H41	H	0.950980	-0.114044	-0.000007
O42	O	1.213654	-0.429056	0.000003
H43	H	1.220005	-0.467316	-0.066673
O44	O	1.280325	-0.139493	0.000005
H45	H	1.321940	-0.159926	0.066672
O46	O	0.938367	-0.273147	-0.000003
H47	H	0.876828	-0.223831	-0.000013
O48	O	1.290780	-0.312040	0.000015
H49	H	1.280459	-0.375167	0.000003
H50	H	0.902296	-0.630936	-0.000028
O51	O	0.947227	-0.349880	0.000008
H52	H	0.907544	-0.361318	-0.066665
O53	O	0.870106	-0.466875	-0.000001
H54	H	0.813751	-0.503177	0.000010
H55	H	1.200779	-0.514290	0.000002
H56	H	1.209899	-0.664887	-0.000019
