data_functionalizedCrystal
_audit_creation_method	'MofGen! by Chris Wilmer'
_symmetry_space_group_name_H-M	'P1'
_symmetry_Int_Tables_number	1
_symmetry_cell_setting	triclinic
loop_
_symmetry_equiv_pos_as_xyz
  x,y,z
_cell_length_a	19.805407
_cell_length_b	11.169416
_cell_length_c	19.805407
_cell_angle_alpha	89.993949
_cell_angle_beta	90.009221
_cell_angle_gamma	89.989659
loop_
_atom_site_label
_atom_site_type_symbol
_atom_site_fract_x
_atom_site_fract_y
_atom_site_fract_z
Zn1	Zn	1.034742	0.478004	0.382754
Zn2	Zn	1.034709	0.678658	0.269580
Zn3	Zn	0.921577	0.477987	0.269578
Zn4	Zn	0.921552	0.678644	0.382726
O5	O	0.978145	0.578323	0.326160
O6	O	1.129454	0.504634	0.367753
O7	O	1.019699	0.652037	0.174863
O8	O	0.936613	0.310040	0.284602
O9	O	1.129430	0.652053	0.284605
O10	O	1.019755	0.310052	0.367751
O11	O	0.936581	0.504605	0.174862
O12	O	0.826857	0.504592	0.284576
O13	O	0.936570	0.652030	0.477447
O14	O	0.826839	0.652013	0.367705
O15	O	1.019730	0.504621	0.477467
O16	O	1.019674	0.846605	0.284578
O17	O	0.936538	0.846595	0.367707
C18	C	0.978118	0.890148	0.326154
C19	C	0.978169	1.023548	0.326175
C20	C	0.802289	0.578300	0.326138
C21	C	0.727057	0.578319	0.326144
C22	C	0.978151	0.578325	0.502702
C23	C	0.978154	0.578326	0.577934
C24	C	0.691721	0.655197	0.369360
C25	C	0.621033	0.655199	0.369369
C26	C	0.585682	0.578329	0.326160
C27	C	0.621023	0.501442	0.282942
C28	C	0.691710	0.501435	0.282937
C29	C	0.335949	0.501469	0.282965
C30	C	0.265257	0.501484	0.282972
C31	C	0.265272	0.655233	0.369397
C32	C	0.335959	0.655226	0.369392
C33	C	0.371294	0.578335	0.326177
C34	C	0.447943	0.578332	0.326168
C35	C	0.509034	0.578337	0.326165
C36	C	1.154688	0.578347	0.326182
C37	C	1.229920	0.578357	0.326191
C38	C	0.978190	0.265281	0.326180
C39	C	0.978210	0.131881	0.326188
C40	C	1.021450	0.501582	0.613290
C41	C	1.021444	0.501579	0.683978
C42	C	0.978145	0.578326	0.719310
C43	C	0.934844	0.655074	0.683949
C44	C	0.934847	0.655070	0.613262
C45	C	0.934831	0.655088	0.969023
C46	C	0.934833	0.655088	1.039715
C47	C	1.021428	0.501596	1.039739
C48	C	1.021431	0.501593	0.969052
C49	C	0.978128	0.578335	0.933697
C50	C	0.978134	0.578337	0.857049
C51	C	0.978142	0.578332	0.795957
C52	C	0.978133	0.578345	1.150304
C53	C	0.978126	0.578337	1.075072
H54	H	0.720499	0.717798	0.404544
O55	O	0.892888	0.729682	0.578837
C56	C	0.931419	0.807215	0.537963
H57	H	0.982720	0.764890	0.527393
H58	H	0.903853	0.823287	0.488246
H59	H	0.938840	0.896162	0.565197
H60	H	0.592265	0.717802	0.404559
H61	H	1.056711	0.439089	0.584528
O62	O	1.063459	0.427135	0.934627
C63	C	1.054160	0.443558	0.864655
H64	H	1.031994	0.536187	0.854987
H65	H	1.104856	0.435391	0.837794
H66	H	1.018112	0.372379	0.844603
H67	H	1.056685	0.439104	1.068533
O68	O	0.892816	0.729793	0.718195
C69	C	0.907602	0.849413	0.700927
H70	H	0.933621	0.851901	0.649608
H71	H	0.858745	0.903222	0.698496
H72	H	0.942395	0.889845	0.740713
H73	H	1.056702	0.439089	0.712762
H74	H	0.899570	0.717587	1.068480
O75	O	0.370267	0.729769	0.411464
C76	C	0.352999	0.703743	0.478948
H77	H	0.333573	0.607875	0.482454
H78	H	0.399492	0.714165	0.512374
H79	H	0.311968	0.768142	0.496584
O80	O	0.230842	0.729805	0.411361
C81	C	0.160871	0.713352	0.402095
H82	H	0.151215	0.620669	0.380018
H83	H	0.134021	0.721641	0.452789
H84	H	0.140796	0.784441	0.365984
O85	O	0.892738	0.729731	0.934790
C86	C	0.854507	0.797438	0.981135
H87	H	0.882238	0.801625	1.031522
H88	H	0.847252	0.891990	0.960699
H89	H	0.803117	0.753453	0.988659
H90	H	0.236476	0.438880	0.247785
O91	O	0.586717	0.426595	0.241040
C92	C	0.604015	0.307019	0.255934
H93	H	0.623457	0.301108	0.310011
H94	H	0.557532	0.247712	0.250161
H95	H	0.645041	0.275543	0.219674
H96	H	0.720479	0.438827	0.247750
O97	O	0.370163	0.426742	0.240924
C98	C	0.323801	0.358878	0.202801
H99	H	0.273412	0.408047	0.200412
H100	H	0.344212	0.345912	0.149485
H101	H	0.316288	0.267803	0.227679
