data_functionalizedCrystal
_audit_creation_method	'MofGen! by Chris Wilmer'
_symmetry_space_group_name_H-M	'P1'
_symmetry_Int_Tables_number	1
_symmetry_cell_setting	triclinic
loop_
_symmetry_equiv_pos_as_xyz
  x,y,z
_cell_length_a	14.971482
_cell_length_b	16.109304
_cell_length_c	13.448316
_cell_angle_alpha	89.996206
_cell_angle_beta	89.993798
_cell_angle_gamma	83.537623
loop_
_atom_site_label
_atom_site_type_symbol
_atom_site_fract_x
_atom_site_fract_y
_atom_site_fract_z
O1	O	1.186794	0.108333	-0.082673
O2	O	1.520128	0.441666	0.250661
O3	O	1.853461	0.775000	0.583994
O4	O	0.926375	0.121311	-0.082677
O5	O	1.259709	0.454644	0.250657
O6	O	1.593042	0.787978	0.583990
O7	O	1.063737	-0.006200	-0.082675
O8	O	1.397071	0.327133	0.250658
O9	O	1.730404	0.660467	0.583992
O10	O	1.049432	0.235844	-0.082674
O11	O	1.382765	0.569177	0.250659
O12	O	1.716099	0.902511	0.583992
O13	O	1.063720	-0.006208	0.082709
O14	O	1.397054	0.327126	0.416042
O15	O	1.730387	0.660459	0.749375
O16	O	0.926358	0.121303	0.082707
O17	O	1.259691	0.454637	0.416040
O18	O	1.593025	0.787970	0.749374
O19	O	1.186777	0.108325	0.082711
O20	O	1.520110	0.441659	0.416045
O21	O	1.853444	0.774992	0.749378
Cu22	Cu	1.056566	0.114814	0.097810
Cu23	Cu	1.389899	0.448147	0.431143
Cu24	Cu	1.723233	0.781480	0.764477
Cu25	Cu	1.056586	0.114823	-0.097776
Cu26	Cu	1.389920	0.448156	0.235558
Cu27	Cu	1.723253	0.781489	0.568891
O28	O	1.049415	0.235836	0.082710
O29	O	1.382748	0.569170	0.416043
O30	O	1.716082	0.902503	0.749376
C31	C	0.893043	0.120727	0.000015
C32	C	1.226376	0.454061	0.333348
C33	C	1.559709	0.787394	0.666681
C34	C	0.793748	0.118990	0.000013
C35	C	1.127081	0.452323	0.333346
C36	C	1.460415	0.785656	0.666679
C37	C	0.747095	0.118167	0.090165
C38	C	1.080428	0.451500	0.423498
C39	C	1.413762	0.784834	0.756831
C40	C	0.653799	0.116521	0.090166
C41	C	0.987132	0.449854	0.423499
C42	C	1.320466	0.783188	0.756832
C43	C	0.607157	0.115704	0.000014
C44	C	0.940490	0.449037	0.333347
C45	C	1.273823	0.782370	0.666681
C46	C	0.653816	0.116524	-0.090145
C47	C	0.987150	0.449857	0.243188
C48	C	1.320483	0.783191	0.576522
C49	C	0.747112	0.118164	-0.090145
C50	C	1.080445	0.451497	0.243188
C51	C	1.413778	0.784831	0.576522
C52	C	0.459359	0.113108	-0.090138
C53	C	0.792693	0.446441	0.243195
C54	C	1.126026	0.779774	0.576528
C55	C	0.366057	0.111469	-0.090139
C56	C	0.699391	0.444803	0.243195
C57	C	1.032724	0.778136	0.576528
C58	C	0.366047	0.111465	0.090172
C59	C	0.699380	0.444798	0.423505
C60	C	1.032713	0.778132	0.756839
C61	C	0.459342	0.113105	0.090172
C62	C	0.792675	0.446438	0.423505
C63	C	1.126009	0.779772	0.756839
C64	C	0.505995	0.113927	0.000013
C65	C	0.839328	0.447260	0.333346
C66	C	1.172662	0.780593	0.666680
C67	C	1.063149	-0.037179	0.000015
C68	C	1.396482	0.296154	0.333348
C69	C	1.729816	0.629487	0.666681
C70	C	1.061410	-0.129477	0.000008
C71	C	1.394744	0.203857	0.333341
C72	C	1.728077	0.537190	0.666674
C73	C	1.057403	-0.341815	-0.090139
C74	C	1.390736	-0.008481	0.243194
C75	C	1.724070	0.324852	0.576527
C76	C	1.055761	-0.428537	-0.090138
C77	C	1.389094	-0.095204	0.243195
C78	C	1.722428	0.238130	0.576528
C79	C	1.055747	-0.428543	0.090172
C80	C	1.389080	-0.095209	0.423505
C81	C	1.722413	0.238124	0.756839
C82	C	1.057382	-0.341821	0.090170
C83	C	1.390716	-0.008488	0.423503
C84	C	1.724049	0.324846	0.756837
C85	C	1.058215	-0.298460	0.000011
C86	C	1.391548	0.034873	0.333345
C87	C	1.724881	0.368207	0.666678
C88	C	1.054938	-0.471904	0.000014
C89	C	1.388271	-0.138570	0.333348
C90	C	1.721604	0.194763	0.666681
C91	C	1.053157	-0.565932	0.000016
C92	C	1.386491	-0.232598	0.333349
C93	C	1.719824	0.100735	0.666683
C94	C	1.059993	-0.204426	0.000009
C95	C	1.393327	0.128907	0.333343
C96	C	1.726660	0.462241	0.666676
C97	C	1.220110	0.108909	0.000018
C98	C	1.553443	0.442242	0.333351
C99	C	1.886776	0.775576	0.666684
C100	C	1.319404	0.110647	0.000013
C101	C	1.652738	0.443980	0.333346
C102	C	1.986071	0.777313	0.666680
C103	C	1.050003	0.266816	0.000018
C104	C	1.383337	0.600149	0.333351
C105	C	1.716670	0.933482	0.666684
C106	C	1.051742	0.359113	0.000018
C107	C	1.385075	0.692446	0.333351
C108	C	1.718409	1.025780	0.666685
N109	N	1.056558	0.114806	0.235374
N110	N	1.389891	0.448140	0.568708
N111	N	1.723225	0.781473	0.902041
N112	N	1.056601	0.114823	-0.235340
N113	N	1.389935	0.448157	0.097994
N114	N	1.723268	0.781490	0.431327
C115	C	1.117401	0.058368	0.287415
C116	C	1.450734	0.391701	0.620749
C117	C	1.784068	0.725034	0.954082
C118	C	1.117407	0.058367	0.391519
C119	C	1.450740	0.391700	0.724852
C120	C	1.784073	0.725034	1.058185
C121	C	1.056573	0.114810	0.443579
C122	C	1.389906	0.448143	0.776912
C123	C	1.723240	0.781476	1.110246
C124	C	0.995724	0.171251	0.391531
C125	C	1.329057	0.504584	0.724864
C126	C	1.662390	0.837918	1.058197
C127	C	0.995714	0.171247	0.287429
C128	C	1.329048	0.504580	0.620763
C129	C	1.662381	0.837914	0.954096
C130	C	0.995748	0.171257	0.608511
C131	C	1.329082	0.504590	0.941844
C132	C	1.662415	0.837923	1.275177
C133	C	0.995758	0.171262	0.712619
C134	C	1.329092	0.504595	1.045952
C135	C	1.662425	0.837929	1.379286
C136	C	1.117441	0.058377	0.712600
C137	C	1.450774	0.391710	1.045933
C138	C	1.784107	0.725043	1.379267
C139	C	1.117431	0.058373	0.608499
C140	C	1.450765	0.391706	0.941832
C141	C	1.784098	0.725039	1.275165
C142	C	1.056583	0.114815	0.556458
C143	C	1.389916	0.448149	0.889791
C144	C	1.723250	0.781482	1.223124
H145	H	0.497315	0.113775	0.163582
H146	H	0.830648	0.447109	0.496915
H147	H	1.163982	0.780442	0.830248
H148	H	0.328083	0.110804	-0.163548
H149	H	0.661417	0.444138	0.169785
H150	H	0.994750	0.777471	0.503118
H151	H	1.166985	0.012419	0.754978
H152	H	1.500318	0.345753	1.088311
H153	H	1.833652	0.679086	1.421645
F154	F	1.182181	-0.001694	0.553092
F155	F	1.515515	0.331639	0.886425
F156	F	1.848848	0.664973	1.219758
H157	H	0.946220	0.217223	0.755001
H158	H	1.279554	0.550556	1.088335
H159	H	1.612887	0.883889	1.421668
F160	F	0.796763	0.119036	-0.186097
F161	F	1.130096	0.452370	0.147237
F162	F	1.463430	0.785703	0.480570
H163	H	0.497341	0.113777	-0.163556
H164	H	0.830675	0.447111	0.169778
H165	H	1.164008	0.780444	0.503111
F166	F	1.058286	-0.295669	-0.186094
F167	F	1.391619	0.037664	0.147239
F168	F	1.724952	0.370998	0.480573
H169	H	0.946196	0.217216	0.566142
H170	H	1.279529	0.550549	0.899475
H171	H	1.612863	0.883882	1.232809
H172	H	1.058038	-0.306520	0.163586
H173	H	1.391372	0.026813	0.496920
H174	H	1.724705	0.360146	0.830253
F175	F	0.930974	0.231319	0.446938
F176	F	1.264308	0.564652	0.780271
F177	F	1.597641	0.897985	1.113604
F178	F	1.054860	-0.474698	0.186120
F179	F	1.388194	-0.141364	0.519453
F180	F	1.721527	0.191969	0.852787
F181	F	0.930954	0.231315	0.232045
F182	F	1.264288	0.564648	0.565378
F183	F	1.597621	0.897981	0.898711
H184	H	1.055098	-0.463832	-0.163548
H185	H	1.388431	-0.130499	0.169785
H186	H	1.721765	0.202834	0.503118
H187	H	1.166942	0.012409	0.245035
H188	H	1.500276	0.345743	0.578368
H189	H	1.833609	0.679076	0.911701
F190	F	0.604177	0.115629	-0.186092
F191	F	0.937510	0.448962	0.147242
F192	F	1.270844	0.782295	0.480575
H193	H	1.166949	0.012410	0.433890
H194	H	1.500282	0.345743	0.767223
H195	H	1.833615	0.679077	1.100557
F196	F	0.796726	0.119042	0.186118
F197	F	1.130060	0.452376	0.519452
F198	F	1.463393	0.785709	0.852785
F199	F	0.316394	0.110590	0.186127
F200	F	0.649728	0.443924	0.519460
F201	F	0.983061	0.777257	0.852794
F202	F	0.604150	0.115657	0.186118
F203	F	0.937483	0.448990	0.519451
F204	F	1.270817	0.782324	0.852784
