data_functionalizedCrystal
_audit_creation_method	'MofGen! by Chris Wilmer'
_symmetry_space_group_name_H-M	'P1'
_symmetry_Int_Tables_number	1
_symmetry_cell_setting	triclinic
loop_
_symmetry_equiv_pos_as_xyz
  x,y,z
_cell_length_a	10.723023
_cell_length_b	10.654551
_cell_length_c	9.798715
_cell_angle_alpha	90.000318
_cell_angle_beta	90.003230
_cell_angle_gamma	84.476455
loop_
_atom_site_label
_atom_site_type_symbol
_atom_site_fract_x
_atom_site_fract_y
_atom_site_fract_z
O1	O	1.657215	0.176142	0.113468
O2	O	1.294065	0.193004	0.113473
O3	O	1.483989	0.001832	0.113471
O4	O	1.467291	0.367313	0.113470
O5	O	1.483974	0.001832	-0.113511
O6	O	1.294051	0.193003	-0.113510
O7	O	1.657201	0.176141	-0.113514
Zn8	Zn	1.475623	0.184572	-0.149550
Zn9	Zn	1.475642	0.184573	0.149509
O10	O	1.467277	0.367313	-0.113513
C11	C	1.247558	0.191777	-0.000018
C12	C	1.109003	0.188106	-0.000015
C13	C	1.047223	0.186469	-0.117598
C14	C	0.904020	0.182675	-0.117598
C15	C	1.482755	-0.044966	-0.000017
C16	C	1.479086	-0.184408	-0.000008
C17	C	1.477373	-0.249920	0.123718
C18	C	1.473915	-0.380939	0.123711
C19	C	1.473889	-0.380926	-0.123757
C20	C	1.477338	-0.249907	-0.123749
C21	C	1.479121	-0.184421	0.247459
C22	C	1.477409	-0.249933	0.371195
C23	C	1.473951	-0.380952	0.371189
C24	C	1.472205	-0.446461	0.247447
C25	C	1.703707	0.177369	-0.000021
C26	C	1.842262	0.181039	-0.000014
C27	C	1.468510	0.414111	-0.000022
C28	C	1.472179	0.553553	-0.000022
N29	N	1.475620	0.184571	-0.353650
C30	C	1.555363	0.103950	-0.421428
C31	C	1.555383	0.103945	-0.578590
N32	N	1.475656	0.184564	0.353608
H33	H	1.100350	0.187869	-0.218264
H34	H	1.478707	-0.196563	-0.224498
C35	C	1.472106	-0.453016	0.507298
N36	N	1.470740	-0.507295	0.609821
C37	C	0.832248	0.180774	-0.253600
N38	N	0.778187	0.179340	-0.356041
C39	C	1.479329	-0.177871	0.507303
N40	N	1.480778	-0.123596	0.609823
H41	H	1.055877	0.186695	0.100651
C42	C	1.482806	-0.040282	0.247477
N43	N	1.485540	0.068289	0.247489
H44	H	1.623617	0.034925	-0.363106
H45	H	1.472468	-0.434273	-0.224502
H46	H	1.469371	-0.553144	0.247452
C47	C	1.383416	0.277818	-0.567661
N48	N	1.313940	0.348055	-0.508351
H49	H	1.623660	0.034927	-0.636876
H50	H	0.895382	0.182454	0.100658
H51	H	1.407358	0.253587	-0.411974
