data_functionalizedCrystal
_audit_creation_method	'MofGen! by Chris Wilmer'
_symmetry_space_group_name_H-M	'P1'
_symmetry_Int_Tables_number	1
_symmetry_cell_setting	triclinic
loop_
_symmetry_equiv_pos_as_xyz
  x,y,z
_cell_length_a	21.295418
_cell_length_b	19.077068
_cell_length_c	19.076919
_cell_angle_alpha	85.529249
_cell_angle_beta	92.261150
_cell_angle_gamma	87.656381
loop_
_atom_site_label
_atom_site_type_symbol
_atom_site_fract_x
_atom_site_fract_y
_atom_site_fract_z
Zn1	Zn	0.936930	0.296407	-0.410191
Zn2	Zn	1.436930	0.796407	0.089809
Zn3	Zn	0.936852	0.409561	-0.297035
Zn4	Zn	1.436852	0.909561	0.202965
Zn5	Zn	0.836073	0.291721	-0.292284
Zn6	Zn	1.336073	0.791721	0.207716
Zn7	Zn	0.827225	0.414290	-0.414839
Zn8	Zn	1.327225	0.914290	0.085161
O9	O	0.884270	0.352995	-0.353587
O10	O	1.384270	0.852995	0.146413
O11	O	1.025008	0.311399	-0.395223
O12	O	1.525008	0.811399	0.104777
O13	O	0.927154	0.389989	-0.197759
O14	O	1.427154	0.889989	0.302241
O15	O	0.853187	0.193692	-0.303991
O16	O	1.353187	0.693692	0.196009
O17	O	1.024951	0.394533	-0.312089
O18	O	1.524951	0.894533	0.187911
O19	O	0.927287	0.197135	-0.390616
O20	O	1.427287	0.697135	0.109384
O21	O	0.853112	0.303413	-0.194268
O22	O	1.353112	0.803413	0.305732
O23	O	0.746811	0.307998	-0.308498
O24	O	1.246811	0.807998	0.191502
O25	O	0.838108	0.402592	-0.512868
O26	O	1.338108	0.902592	-0.012868
O27	O	0.740311	0.398049	-0.398538
O28	O	1.240311	0.898049	0.101462
O29	O	0.918708	0.315985	-0.509453
O30	O	1.418708	0.815985	-0.009453
O31	O	0.918575	0.508838	-0.316596
O32	O	1.418575	1.008838	0.183404
O33	O	0.838032	0.512313	-0.403146
O34	O	1.338032	1.012313	0.096854
C35	C	0.720720	0.353028	-0.353507
C36	C	1.220720	0.853028	0.146493
C37	C	0.650752	0.353061	-0.353491
C38	C	1.150752	0.853061	0.146509
C39	C	0.877352	0.536155	-0.360906
C40	C	1.377352	1.036155	0.139094
C41	C	0.874449	0.614513	-0.364061
C42	C	1.374449	1.114513	0.135939
C43	C	0.877430	0.360339	-0.537453
C44	C	1.377430	0.860339	-0.037453
C45	C	0.874514	0.363469	-0.615806
C46	C	1.374514	0.863469	-0.115806
C47	C	0.614517	0.400007	-0.400310
C48	C	1.114517	0.900007	0.099690
C49	C	0.548774	0.399991	-0.400341
C50	C	1.048774	0.899991	0.099659
C51	C	0.519268	0.353035	-0.353540
C52	C	1.019268	0.853035	0.146460
C53	C	0.555511	0.306080	-0.306718
C54	C	1.055511	0.806080	0.193282
C55	C	0.621253	0.306093	-0.306693
C56	C	1.121253	0.806093	0.193307
N57	N	0.418510	0.345050	-0.291663
N58	N	0.918510	0.845050	0.208337
N59	N	0.356058	0.345042	-0.291689
N60	N	0.856058	0.845042	0.208311
C61	C	0.321192	0.352993	-0.353613
C62	C	0.821192	0.852993	0.146387
N63	N	0.351138	0.360967	-0.415513
N64	N	0.851138	0.860967	0.084487
N65	N	0.413596	0.360978	-0.415487
N66	N	0.913596	0.860978	0.084513
C67	C	0.447983	0.353016	-0.353562
C68	C	0.947983	0.853016	0.146438
C69	C	0.213672	0.399925	-0.400470
C70	C	0.713672	0.899925	0.099530
C71	C	0.147927	0.399904	-0.400502
C72	C	0.647927	0.899904	0.099498
C73	C	0.154666	0.305997	-0.306873
C74	C	0.654666	0.805997	0.193127
C75	C	0.220409	0.306014	-0.306847
C76	C	0.720409	0.806014	0.193153
C77	C	0.249907	0.352982	-0.353645
C78	C	0.749907	0.852982	0.146355
C79	C	1.048459	0.352961	-0.353667
C80	C	1.548459	0.852961	0.146333
C81	C	1.118426	0.352947	-0.353702
C82	C	1.618426	0.852947	0.146298
C83	C	0.891232	0.169120	-0.346255
C84	C	1.391232	0.669120	0.153745
C85	C	0.894199	0.090763	-0.343130
C86	C	1.394199	0.590763	0.156870
C87	C	0.915049	0.649495	-0.320518
C88	C	1.415049	1.149495	0.179482
C89	C	0.912322	0.723120	-0.323490
C90	C	1.412322	1.223120	0.176510
C91	C	0.868991	0.761763	-0.370000
C92	C	1.368991	1.261763	0.130000
C93	C	0.828389	0.726776	-0.413548
C94	C	1.328389	1.226776	0.086452
C95	C	0.831120	0.653152	-0.410579
C96	C	1.331120	1.153152	0.089421
C97	C	0.856328	0.982152	-0.383709
C98	C	1.356328	1.482152	0.116291
C99	C	0.853599	1.055781	-0.386673
C100	C	1.353599	1.555781	0.113327
C101	C	0.937533	1.052121	-0.296615
C102	C	1.437533	1.552121	0.203385
C103	C	0.940257	0.978495	-0.293648
C104	C	1.440257	1.478495	0.206352
C105	C	0.899657	0.943515	-0.337198
C106	C	1.399657	1.443515	0.162802
N107	N	0.866201	0.837020	-0.373037
N108	N	1.366201	1.337020	0.126963
N109	N	0.902451	0.868259	-0.334164
N110	N	1.402451	1.368259	0.165836
C111	C	0.915107	0.319849	-0.650840
C112	C	1.415107	0.819849	-0.150840
C113	C	0.912360	0.322787	-0.724460
C114	C	1.412360	0.822787	-0.224460
C115	C	0.869024	0.369349	-0.763046
C116	C	1.369024	0.869349	-0.263046
C117	C	0.828427	0.412970	-0.728008
C118	C	1.328427	0.912970	-0.228008
C119	C	0.831171	0.410028	-0.654388
C120	C	1.331171	0.910028	-0.154388
C121	C	0.856314	0.382979	-0.983416
C122	C	1.356314	0.882979	-0.483416
C123	C	0.853575	0.385919	-1.057040
C124	C	1.353575	0.885919	-0.557040
C125	C	0.937507	0.295735	-1.053488
C126	C	1.437507	0.795735	-0.553488
C127	C	0.940250	0.292800	-0.979867
C128	C	1.440250	0.792800	-0.479867
C129	C	0.899651	0.336419	-0.944835
C130	C	1.399651	0.836419	-0.444835
N131	N	0.866217	0.372354	-0.838299
N132	N	1.366217	0.872354	-0.338299
N133	N	0.902456	0.333409	-0.869584
N134	N	1.402456	0.833409	-0.369584
C135	C	0.891122	0.345628	-0.170434
C136	C	1.391122	0.845628	0.329566
C137	C	0.894167	0.342300	-0.092074
C138	C	1.394167	0.842300	0.407926
H139	H	0.519266	0.438220	-0.438469
H140	H	1.019266	0.938220	0.061531
H141	H	0.950330	0.618036	-0.282641
H142	H	1.450330	1.118036	0.217359
C143	C	0.987205	0.936506	-0.243062
C144	C	1.487205	1.436506	0.256938
C145	C	0.954843	0.892509	-0.196115
C146	C	1.454843	1.392509	0.303885
C147	C	0.998069	0.853827	-0.149495
C148	C	1.498069	1.353827	0.350505
H149	H	1.014694	0.908757	-0.268820
H150	H	1.514694	1.408757	0.231180
H151	H	1.010985	0.967865	-0.217514
H152	H	1.510985	1.467865	0.282486
H153	H	0.931073	0.861154	-0.221660
H154	H	1.431073	1.361154	0.278340
H155	H	0.927356	0.920240	-0.170341
H156	H	1.427356	1.420240	0.329659
H157	H	1.021848	0.885186	-0.123948
H158	H	1.521848	1.385186	0.376052
H159	H	1.025556	0.826082	-0.175259
H160	H	1.525556	1.326082	0.324741
H161	H	0.976117	0.823976	-0.117632
H162	H	1.476117	1.323976	0.382368
C163	C	0.981721	1.090009	-0.249378
C164	C	1.481721	1.590009	0.250622
C165	C	1.044083	1.072614	-0.264083
C166	C	1.544083	1.572614	0.235917
C167	C	1.084811	1.107494	-0.220575
C168	C	1.584811	1.607494	0.279425
H169	H	0.973981	1.139400	-0.257759
H170	H	1.473981	1.639400	0.242241
H171	H	0.974792	1.076065	-0.201504
H172	H	1.474792	1.576065	0.298496
H173	H	1.051009	1.086562	-0.311946
H174	H	1.551009	1.586562	0.188054
H175	H	1.051843	1.023229	-0.255698
H176	H	1.551843	1.523229	0.244302
H177	H	1.077882	1.093550	-0.172701
H178	H	1.577882	1.593550	0.327299
H179	H	1.077065	1.156884	-0.228960
H180	H	1.577065	1.656884	0.271040
H181	H	1.127128	1.095692	-0.230542
H182	H	1.627128	1.595692	0.269458
H183	H	0.823265	0.418507	-0.954902
H184	H	1.323265	0.918507	-0.454902
C185	C	0.108663	0.450843	-0.451450
C186	C	0.608663	0.950843	0.048550
C187	C	0.122705	0.438413	-0.520608
C188	C	0.622705	0.938413	-0.020608
C189	C	0.086553	0.485332	-0.567559
C190	C	0.586553	0.985332	-0.067559
H191	H	0.065269	0.444159	-0.444865
H192	H	0.565269	0.944159	0.055135
H193	H	0.118019	0.497792	-0.442979
H194	H	0.618019	0.997792	0.057021
H195	H	0.113345	0.391475	-0.529076
H196	H	0.613345	0.891475	-0.029076
H197	H	0.166092	0.445103	-0.527216
H198	H	0.666092	0.945103	-0.027216
H199	H	0.095909	0.532281	-0.559089
H200	H	0.595909	1.032281	-0.059089
H201	H	0.043161	0.478644	-0.560967
H202	H	0.543161	0.978644	-0.060967
H203	H	0.096080	0.476909	-0.614488
H204	H	0.596080	0.976909	-0.114488
C205	C	0.122615	0.255138	-0.255957
C206	C	0.622615	0.755138	0.244043
C207	C	0.085024	0.293183	-0.212306
C208	C	0.585024	0.793183	0.287694
C209	C	0.055498	0.246357	-0.165380
C210	C	0.555498	0.746357	0.334620
H211	H	0.097103	0.225509	-0.281655
H212	H	0.597103	0.725509	0.218345
H213	H	0.153603	0.227202	-0.228027
H214	H	0.653603	0.727202	0.271973
H215	H	0.054040	0.321106	-0.240233
H216	H	0.554040	0.821106	0.259767
H217	H	0.110522	0.322810	-0.186593
H218	H	0.610522	0.822810	0.313407
H219	H	0.086486	0.218422	-0.137450
H220	H	0.586486	0.718422	0.362550
H221	H	0.029989	0.216730	-0.191083
H222	H	0.529989	0.716730	0.308917
H223	H	0.029994	0.272164	-0.135753
H224	H	0.529994	0.772164	0.364247
C225	C	0.812267	0.944278	-0.431100
C226	C	1.312267	1.444278	0.068900
C227	C	0.822647	0.964944	-0.501586
C228	C	1.322647	1.464944	-0.001586
C229	C	0.782059	0.930075	-0.545262
C230	C	1.282059	1.430075	-0.045262
H231	H	0.820050	0.894888	-0.422773
H232	H	1.320050	1.394888	0.077227
H233	H	0.769906	0.956009	-0.421247
H234	H	1.269906	1.456009	0.078753
H235	H	0.864998	0.953209	-0.511436
H236	H	1.364998	1.453209	-0.011436
H237	H	0.814861	1.014329	-0.509935
H238	H	1.314861	1.514329	-0.009935
H239	H	0.739699	0.941806	-0.535409
H240	H	1.239699	1.441806	-0.035409
H241	H	0.789845	0.880687	-0.536929
H242	H	1.289845	1.380687	-0.036929
H243	H	0.789093	0.944097	-0.593092
H244	H	1.289093	1.444097	-0.093092
H245	H	0.818321	1.087243	-0.424560
H246	H	1.318321	1.587243	0.075440
C247	C	0.781420	0.768697	-0.464163
C248	C	1.281420	1.268697	0.035837
C249	C	0.793158	0.753543	-0.533206
C250	C	1.293158	1.253543	-0.033206
C251	C	0.749907	0.792153	-0.579852
C252	C	1.249907	1.292153	-0.079852
H253	H	0.739936	0.756306	-0.453399
H254	H	1.239936	1.256306	0.046601
H255	H	0.785611	0.817564	-0.459741
H256	H	1.285611	1.317564	0.040259
H257	H	0.788962	0.704687	-0.537625
H258	H	1.288962	1.204687	-0.037625
H259	H	0.834634	0.765936	-0.543992
H260	H	1.334634	1.265936	-0.043992
H261	H	0.754098	0.841020	-0.575430
H262	H	1.254098	1.341020	-0.075430
H263	H	0.708425	0.779760	-0.569082
H264	H	1.208425	1.279760	-0.069082
H265	H	0.757869	0.781882	-0.626703
H266	H	1.257869	1.281882	-0.126703
C267	C	0.787132	0.457306	-0.616219
C268	C	1.287132	0.957306	-0.116219
C269	C	0.798797	0.444751	-0.543487
C270	C	1.298797	0.944751	-0.043487
C271	C	0.758232	0.488282	-0.508304
C272	C	1.258232	0.988282	-0.008304
H273	H	0.794062	0.505179	-0.630092
H274	H	1.294062	1.005179	-0.130092
H275	H	0.744767	0.447470	-0.627809
H276	H	1.244767	0.947470	-0.127809
H277	H	0.841153	0.454593	-0.531903
H278	H	1.341153	0.954593	-0.031903
H279	H	0.791863	0.396887	-0.529594
H280	H	1.291863	0.896887	-0.029594
H281	H	0.715867	0.478446	-0.519894
H282	H	1.215867	0.978446	-0.019894
H283	H	0.765165	0.536152	-0.522183
H284	H	1.265165	1.036152	-0.022183
H285	H	0.766137	0.479765	-0.458952
H286	H	1.266137	0.979765	0.041048
H287	H	0.650755	0.267861	-0.268567
H288	H	1.150755	0.767861	0.231433
H289	H	0.798060	0.624670	-0.446037
H290	H	1.298060	1.124670	0.053963
H291	H	0.950398	0.281936	-0.619428
H292	H	1.450398	0.781936	-0.119428
H293	H	0.531483	0.267847	-0.268614
H294	H	1.031483	0.767847	0.231386
H295	H	0.945416	0.287269	-0.752981
H296	H	1.445416	0.787269	-0.252981
C297	C	0.245789	0.450797	-0.451319
C298	C	0.745789	0.950797	0.048681
C299	C	0.283418	0.412765	-0.494943
C300	C	0.783418	0.912765	0.005057
C301	C	0.313019	0.459604	-0.541787
C302	C	0.813019	0.959604	-0.041787
H303	H	0.214861	0.478771	-0.479280
H304	H	0.714861	0.978771	0.020720
H305	H	0.271283	0.480388	-0.425536
H306	H	0.771283	0.980388	0.074464
H307	H	0.257926	0.383186	-0.520723
H308	H	0.757926	0.883186	-0.020723
H309	H	0.314357	0.384793	-0.467001
H310	H	0.814357	0.884793	0.032999
H311	H	0.338513	0.489195	-0.516005
H312	H	0.838513	0.989195	-0.016005
H313	H	0.282086	0.487575	-0.569744
H314	H	0.782086	0.987575	-0.069744
H315	H	0.338558	0.433806	-0.571388
H316	H	0.838558	0.933806	-0.071388
H317	H	0.249912	0.267789	-0.268718
H318	H	0.749912	0.767789	0.231282
C319	C	0.956432	0.760970	-0.276130
C320	C	1.456432	1.260970	0.223870
C321	C	0.994948	0.711370	-0.234746
C322	C	1.494948	1.211370	0.265254
C323	C	1.035587	0.746211	-0.191101
C324	C	1.535587	1.246211	0.308899
H325	H	0.981834	0.790723	-0.304209
H326	H	1.481834	1.290723	0.195791
H327	H	0.932466	0.788490	-0.246504
H328	H	1.432466	1.288490	0.253496
H329	H	1.018913	0.683862	-0.264367
H330	H	1.518913	1.183862	0.235633
H331	H	0.969564	0.681616	-0.206652
H332	H	1.469564	1.181616	0.293348
H333	H	1.011620	0.773731	-0.161476
H334	H	1.511620	1.273731	0.338524
H335	H	1.060984	0.775962	-0.219186
H336	H	1.560984	1.275962	0.280814
H337	H	1.061721	0.712563	-0.163013
H338	H	1.561721	1.212563	0.336987
H339	H	0.975541	0.254887	-0.948455
H340	H	1.475541	0.754887	-0.448455
C341	C	0.981550	0.248257	-1.091429
C342	C	1.481550	0.748257	-0.591429
C343	C	0.971160	0.177795	-1.070717
C344	C	1.471160	0.677795	-0.570717
C345	C	1.011726	0.134034	-1.105645
C346	C	1.511726	0.634034	-0.605645
H347	H	0.973754	0.256579	-1.140807
H348	H	1.473754	0.756579	-0.640807
H349	H	1.023917	0.258039	-1.079782
H350	H	1.523917	0.758039	-0.579782
H351	H	0.928803	0.168017	-1.082369
H352	H	1.428803	0.668017	-0.582369
H353	H	0.978960	0.169451	-1.021344
H354	H	1.478960	0.669451	-0.521344
H355	H	1.054093	0.143817	-1.093998
H356	H	1.554093	0.643817	-0.593998
H357	H	1.003927	0.142363	-1.155022
H358	H	1.503927	0.642363	-0.655022
H359	H	1.004686	0.086222	-1.091592
H360	H	1.504686	0.586222	-0.591592
C361	C	0.781439	0.463500	-0.770025
C362	C	1.281439	0.963500	-0.270025
C363	C	0.787735	0.456756	-0.841997
C364	C	1.287735	0.956756	-0.341997
C365	C	0.744466	0.503302	-0.880723
C366	C	1.244466	1.003302	-0.380723
H367	H	0.739954	0.452756	-0.757612
H368	H	1.239954	0.952756	-0.257612
H369	H	0.789311	0.510399	-0.759893
H370	H	1.289311	1.010399	-0.259893
H371	H	0.779858	0.409868	-0.852125
H372	H	1.279858	0.909868	-0.352125
H373	H	0.829210	0.467506	-0.854432
H374	H	1.329210	0.967506	-0.354432
H375	H	0.752338	0.550201	-0.870592
H376	H	1.252338	1.050201	-0.370592
H377	H	0.702984	0.492554	-0.868304
H378	H	1.202984	0.992554	-0.368304
H379	H	0.748735	0.498737	-0.929560
H380	H	1.248735	0.998737	-0.429560
H381	H	0.638531	0.438251	-0.438417
H382	H	1.138531	0.938251	0.061583
C383	C	0.806454	0.436495	-1.098810
C384	C	1.306454	0.936495	-0.598810
C385	C	0.771475	0.474053	-1.052373
C386	C	1.271475	0.974053	-0.552373
C387	C	0.728061	0.520641	-1.090825
C388	C	1.228061	1.020641	-0.590825
H389	H	0.828229	0.468418	-1.128769
H390	H	1.328229	0.968418	-0.628769
H391	H	0.778948	0.410694	-1.126426
H392	H	1.278948	0.910694	-0.626426
H393	H	0.798978	0.499852	-1.024768
H394	H	1.298978	0.999852	-0.524768
H395	H	0.749687	0.442149	-1.022413
H396	H	1.249687	0.942149	-0.522413
H397	H	0.700554	0.494840	-1.118442
H398	H	1.200554	0.994840	-0.618442
H399	H	0.749841	0.552559	-1.120783
H400	H	1.249841	1.052559	-0.620783
H401	H	0.704319	0.546125	-1.059324
H402	H	1.204319	1.046125	-0.559324
