data_functionalizedCrystal
_audit_creation_method	'MofGen! by Chris Wilmer'
_symmetry_space_group_name_H-M	'P1'
_symmetry_Int_Tables_number	1
_symmetry_cell_setting	triclinic
loop_
_symmetry_equiv_pos_as_xyz
  x,y,z
_cell_length_a	17.699104
_cell_length_b	9.798715
_cell_length_c	17.699083
_cell_angle_alpha	90.004285
_cell_angle_beta	83.287266
_cell_angle_gamma	90.004584
loop_
_atom_site_label
_atom_site_type_symbol
_atom_site_fract_x
_atom_site_fract_y
_atom_site_fract_z
O1	O	1.004065	0.113521	0.095785
O2	O	1.504065	0.613521	0.595785
O3	O	0.783689	0.113518	0.108221
O4	O	1.283689	0.613518	0.608221
O5	O	0.900103	0.113508	-0.008186
O6	O	1.400103	0.613508	0.491814
O7	O	0.887651	0.113532	0.212192
O8	O	1.387651	0.613532	0.712192
O9	O	0.900095	-0.113474	-0.008187
O10	O	1.400095	0.386526	0.491813
O11	O	0.783680	-0.113464	0.108220
O12	O	1.283680	0.386536	0.608220
O13	O	1.004057	-0.113461	0.095784
O14	O	1.504057	0.386539	0.595784
Zn15	Zn	0.893867	-0.149501	0.102002
Zn16	Zn	1.393867	0.350499	0.602002
Zn17	Zn	0.893878	0.149558	0.102003
Zn18	Zn	1.393878	0.649558	0.602003
O19	O	0.887642	-0.113450	0.212191
O20	O	1.387642	0.386550	0.712191
C21	C	0.755488	0.000027	0.107772
C22	C	1.255488	0.500027	0.607772
C23	C	0.671471	0.000025	0.106427
C24	C	1.171471	0.500025	0.606427
C25	C	0.146600	0.000046	0.167171
C26	C	0.646600	0.500046	0.667171
C27	C	0.225543	0.000050	0.168430
C28	C	0.725543	0.500050	0.668430
C29	C	0.274161	0.000042	0.100095
C30	C	0.774161	0.500042	0.600095
C31	C	0.243831	0.000045	0.030496
C32	C	0.743831	0.500045	0.530496
C33	C	0.164889	0.000050	0.029238
C34	C	0.664889	0.500050	0.529238
C35	C	0.562197	0.000023	0.035569
C36	C	1.062197	0.500023	0.535569
C37	C	0.641144	0.000013	0.036833
C38	C	1.141144	0.500013	0.536833
C39	C	0.622852	0.000023	0.174762
C40	C	1.122852	0.500023	0.674762
C41	C	0.543909	0.000029	0.173503
C42	C	1.043909	0.500029	0.673503
C43	C	0.513587	0.000038	0.103905
C44	C	1.013587	0.500038	0.603905
C45	C	0.427987	0.000036	0.102541
C46	C	0.927987	0.500036	0.602541
C47	C	0.359759	0.000035	0.101459
C48	C	0.859759	0.500035	0.601459
N49	N	0.893865	-0.353600	0.102001
N50	N	1.393865	0.146400	0.602001
C51	C	0.937544	-0.421372	0.145436
C52	C	1.437544	0.078628	0.645436
C53	C	0.937556	-0.578535	0.145435
C54	C	1.437556	-0.078535	0.645435
C55	C	1.032258	0.000034	0.096233
C56	C	1.532258	0.500034	0.596233
C57	C	1.116275	0.000044	0.097578
C58	C	1.616275	0.500044	0.597578
C59	C	0.899653	0.000017	-0.036383
C60	C	1.399653	0.500017	0.463617
C61	C	0.898314	0.000016	-0.120402
C62	C	1.398314	0.500016	0.379598
N63	N	0.893887	0.353658	0.101998
N64	N	1.393887	0.853658	0.601998
C65	C	0.966647	0.000015	-0.169017
C66	C	1.466647	0.500015	0.330983
C67	C	0.965385	0.000027	-0.247961
C68	C	1.465385	0.500027	0.252039
C69	C	0.895789	0.000030	-0.278287
C70	C	1.395789	0.500030	0.221713
C71	C	0.827451	0.000035	-0.229665
C72	C	1.327451	0.500035	0.270335
C73	C	0.828714	0.000033	-0.150723
C74	C	1.328714	0.500033	0.349277
C75	C	0.822356	0.000046	-0.548028
C76	C	1.322356	0.500046	-0.048028
C77	C	0.821098	0.000045	-0.626976
C78	C	1.321098	0.500045	-0.126976
C79	C	0.959026	0.000040	-0.645266
C80	C	1.459026	0.500040	-0.145266
C81	C	0.960289	0.000038	-0.566324
C82	C	1.460289	0.500038	-0.066324
C83	C	0.891952	0.000050	-0.517709
C84	C	1.391952	0.500050	-0.017709
C85	C	0.893321	0.000040	-0.432110
C86	C	1.393321	0.500040	0.067890
C87	C	0.894419	0.000031	-0.363885
C88	C	1.394419	0.500031	0.136115
C89	C	0.888093	0.000044	0.240388
C90	C	1.388093	0.500044	0.740388
C91	C	0.889431	0.000053	0.324406
C92	C	1.389431	0.500053	0.824406
H93	H	0.680728	0.000011	-0.018817
H94	H	1.180728	0.500011	0.481183
H95	H	0.764421	0.000045	-0.651664
H96	H	1.264421	0.500045	-0.151664
H97	H	0.856480	-0.411930	0.064811
H98	H	1.356480	0.088070	0.564811
H99	H	1.023320	0.000004	-0.144333
H100	H	1.523320	0.500004	0.355667
H101	H	0.283422	0.000046	-0.025143
H102	H	0.783422	0.500046	0.474857
C103	C	0.258584	-0.000128	0.243929
C104	C	0.758584	0.499872	0.743929
C105	C	0.303393	-0.116870	0.248679
C106	C	0.803393	0.383130	0.748679
C107	C	0.333854	-0.117053	0.318214
C108	C	0.833854	0.382947	0.818214
H109	H	0.218409	-0.000189	0.284520
H110	H	0.718409	0.499811	0.784520
H111	H	0.289040	0.078997	0.247277
H112	H	0.789040	0.578997	0.747277
H113	H	0.272938	-0.195975	0.245339
H114	H	0.772938	0.304025	0.745339
H115	H	0.343579	-0.116835	0.208105
H116	H	0.843579	0.383165	0.708105
H117	H	0.364310	-0.037928	0.321562
H118	H	0.864310	0.462072	0.821562
H119	H	0.293675	-0.117110	0.358799
H120	H	0.793675	0.382890	0.858799
H121	H	0.364266	-0.196254	0.321443
H122	H	0.864266	0.303746	0.821443
C123	C	0.748081	-0.000031	-0.495379
C124	C	1.248081	0.499969	0.004621
C125	C	0.686865	-0.000074	-0.538837
C126	C	1.186865	0.499926	-0.038837
C127	C	0.618429	-0.000170	-0.490359
C128	C	1.118429	0.499830	0.009641
H129	H	0.745595	0.079099	-0.464181
H130	H	1.245595	0.579099	0.035819
H131	H	0.745664	-0.079219	-0.464219
H132	H	1.245664	0.420781	0.035781
H133	H	0.689281	0.079106	-0.569983
H134	H	1.189281	0.579106	-0.069983
H135	H	0.689326	-0.079198	-0.570033
H136	H	1.189326	0.420802	-0.070033
H137	H	0.616011	-0.079357	-0.459199
H138	H	1.116011	0.420643	0.040801
H139	H	0.615950	0.078962	-0.459163
H140	H	1.115950	0.578962	0.040837
H141	H	0.576886	-0.000212	-0.519838
H142	H	1.076886	0.499788	-0.019838
H143	H	1.016961	0.000029	-0.541638
H144	H	1.516961	0.500029	-0.041638
C145	C	0.751965	-0.000031	-0.262734
C146	C	1.251965	0.499969	0.237266
C147	C	0.765482	-0.000070	-0.342274
C148	C	1.265482	0.499930	0.157726
C149	C	0.695962	-0.000154	-0.372761
C150	C	1.195962	0.499846	0.127239
H151	H	0.723780	0.079101	-0.246120
H152	H	1.223780	0.579101	0.253880
H153	H	0.723826	-0.079216	-0.246082
H154	H	1.223826	0.420784	0.253918
H155	H	0.793610	0.079108	-0.358919
H156	H	1.293610	0.579108	0.141081
H157	H	0.793656	-0.079196	-0.358909
H158	H	1.293656	0.420804	0.141091
H159	H	0.667823	-0.079340	-0.356109
H160	H	1.167823	0.420660	0.143891
H161	H	0.667782	0.078979	-0.356141
H162	H	1.167782	0.578979	0.143859
H163	H	0.705124	-0.000193	-0.426731
H164	H	1.205124	0.499807	0.073269
C165	C	1.039636	0.000231	-0.300651
C166	C	1.539636	0.500231	0.199349
C167	C	1.081568	0.116982	-0.286943
C168	C	1.581568	0.616982	0.213057
C169	C	1.149980	0.117209	-0.335458
C170	C	1.649980	0.617209	0.164542
H171	H	1.029030	0.000309	-0.352037
H172	H	1.529030	0.500309	0.147963
H173	H	1.068213	-0.078888	-0.291463
H174	H	1.568213	0.421112	0.208537
H175	H	1.052996	0.196081	-0.296137
H176	H	1.552996	0.696081	0.203863
H177	H	1.092193	0.116930	-0.235567
H178	H	1.592193	0.616930	0.264433
H179	H	1.178557	0.038090	-0.326270
H180	H	1.678557	0.538090	0.173730
H181	H	1.139367	0.117283	-0.386840
H182	H	1.639367	0.617283	0.113160
H183	H	1.178442	0.196416	-0.326159
H184	H	1.678442	0.696416	0.173841
H185	H	0.537518	0.000027	-0.021102
H186	H	1.037518	0.500027	0.478898
C187	C	0.754441	-0.000034	-0.098062
C188	C	1.254441	0.499966	0.401938
C189	C	0.693221	-0.000066	-0.141515
C190	C	1.193221	0.499934	0.358485
C191	C	0.624788	-0.000138	-0.093031
C192	C	1.124788	0.499862	0.406969
H193	H	0.751965	0.079099	-0.066868
H194	H	1.251965	0.579099	0.433132
H195	H	0.752020	-0.079218	-0.066899
H196	H	1.252020	0.420782	0.433101
H197	H	0.695641	0.079109	-0.172665
H198	H	1.195641	0.579109	0.327335
H199	H	0.695673	-0.079194	-0.172707
H200	H	1.195673	0.420806	0.327293
H201	H	0.622367	-0.079322	-0.061868
H202	H	1.122367	0.420678	0.438132
H203	H	0.622319	0.078997	-0.061839
H204	H	1.122319	0.578997	0.438161
H205	H	0.583242	-0.000173	-0.122506
H206	H	1.083242	0.499827	0.377494
C207	C	0.132108	-0.000021	-0.046399
C208	C	0.632108	0.499979	0.453601
C209	C	0.191580	-0.000065	-0.105976
C210	C	0.691580	0.499935	0.394024
C211	C	0.161413	-0.000141	-0.175665
C212	C	0.661413	0.499859	0.324335
H213	H	0.101711	0.079115	-0.049862
H214	H	0.601711	0.579115	0.450138
H215	H	0.101708	-0.079203	-0.049801
H216	H	0.601708	0.420797	0.450199
H217	H	0.221967	0.079108	-0.102576
H218	H	0.721967	0.579108	0.397424
H219	H	0.221982	-0.079196	-0.102538
H220	H	0.721982	0.420804	0.397462
H221	H	0.131013	-0.079322	-0.179066
H222	H	0.631013	0.420678	0.320934
H223	H	0.131016	0.078997	-0.179120
H224	H	0.631016	0.578997	0.320880
H225	H	0.201759	-0.000183	-0.216096
H226	H	0.701759	0.499817	0.283904
C227	C	0.655670	0.000244	0.250384
C228	C	1.155670	0.500244	0.750384
C229	C	0.630936	0.117005	0.291695
C230	C	1.130936	0.617005	0.791695
C231	C	0.661142	0.117241	0.361364
C232	C	1.161142	0.617241	0.861364
H233	H	0.709645	0.000315	0.241460
H234	H	1.209645	0.500315	0.741460
H235	H	0.638948	-0.078868	0.278553
H236	H	1.138948	0.421132	0.778553
H237	H	0.647662	0.196096	0.263533
H238	H	1.147662	0.696096	0.763533
H239	H	0.576965	0.116958	0.300640
H240	H	1.076965	0.616958	0.800640
H241	H	0.644420	0.038129	0.389532
H242	H	1.144420	0.538129	0.889532
H243	H	0.715116	0.117309	0.352432
H244	H	1.215116	0.617309	0.852432
H245	H	0.644359	0.196455	0.389405
H246	H	1.144359	0.696455	0.889405
C247	C	0.987322	-0.656164	0.195155
C248	C	1.487322	-0.156164	0.695155
C249	C	0.966511	-0.621529	0.271501
C250	C	1.466511	-0.121529	0.771501
C251	C	1.012333	-0.693031	0.317326
C252	C	1.512333	-0.193031	0.817326
H253	H	1.039139	-0.632856	0.180999
H254	H	1.539139	-0.132856	0.680999
H255	H	0.980693	-0.751480	0.188616
H256	H	1.480693	-0.251480	0.688616
H257	H	0.973146	-0.526235	0.278037
H258	H	1.473146	-0.026235	0.778037
H259	H	0.914701	-0.644841	0.285680
H260	H	1.414701	-0.144841	0.785680
H261	H	1.005704	-0.788347	0.310787
H262	H	1.505704	-0.288347	0.810787
H263	H	1.064147	-0.669717	0.303164
H264	H	1.564147	-0.169717	0.803164
H265	H	0.998214	-0.669551	0.369133
H266	H	1.498214	-0.169551	0.869133
H267	H	0.504328	0.000028	0.229149
H268	H	1.004328	0.500028	0.729149
H269	H	0.107020	0.000042	0.222818
H270	H	0.607020	0.500042	0.722818
H271	H	0.856486	-0.588068	0.064813
H272	H	1.356486	-0.088068	0.564813
H273	H	1.014670	0.000037	-0.684858
H274	H	1.514670	0.500037	-0.184858
H275	H	0.974934	-0.363043	0.182620
H276	H	1.474934	0.136957	0.682620
