data_functionalizedCrystal
_audit_creation_method	'MofGen! by Chris Wilmer'
_symmetry_space_group_name_H-M	'P1'
_symmetry_Int_Tables_number	1
_symmetry_cell_setting	triclinic
loop_
_symmetry_equiv_pos_as_xyz
  x,y,z
_cell_length_a	12.811457
_cell_length_b	12.784905
_cell_length_c	11.295483
_cell_angle_alpha	93.662891
_cell_angle_beta	91.289320
_cell_angle_gamma	78.600470
loop_
_atom_site_label
_atom_site_type_symbol
_atom_site_fract_x
_atom_site_fract_y
_atom_site_fract_z
O1	O	1.375736	0.146659	0.049549
O2	O	1.071298	0.159857	0.016670
O3	O	1.245795	-0.001197	0.035518
O4	O	1.201239	0.307713	0.030700
O5	O	1.230470	0.012926	0.231914
O6	O	1.055974	0.173980	0.213065
O7	O	1.360411	0.160782	0.245944
Cu8	Cu	1.206793	0.168671	0.247437
Cu9	Cu	1.224916	0.151968	0.015177
O10	O	1.185915	0.321836	0.227095
C11	C	1.024938	0.165746	0.110688
C12	C	0.909630	0.162240	0.098235
C13	C	0.676249	0.171031	0.288968
C14	C	0.567907	0.167737	0.277273
C15	C	0.584604	0.152350	0.063151
C16	C	0.692946	0.155644	0.074846
C17	C	0.738764	0.164987	0.187758
C18	C	0.847107	0.168288	0.199452
C19	C	0.863803	0.152894	-0.014669
C20	C	0.755461	0.149600	-0.026364
C21	C	1.241030	-0.033700	0.134027
C22	C	1.249653	-0.151588	0.134954
C23	C	1.073987	-0.350118	0.115993
C24	C	1.082084	-0.460885	0.116863
C25	C	1.273941	-0.483889	0.137571
C26	C	1.265845	-0.373122	0.136701
C27	C	1.165864	-0.306241	0.125910
C28	C	1.157769	-0.195473	0.125032
C29	C	1.349625	-0.218478	0.145748
C30	C	1.357722	-0.329245	0.146618
C31	C	1.406772	0.154893	0.151923
C32	C	1.522080	0.158398	0.164369
C33	C	1.190679	0.354338	0.128584
C34	C	1.182057	0.472227	0.127650
N35	N	1.194054	0.180418	0.410797
N36	N	1.237664	0.140212	-0.148183
C37	C	1.329372	0.055589	0.674704
C38	C	1.319752	0.064474	0.798328
C39	C	1.165190	0.207068	0.781673
C40	C	1.174810	0.198183	0.658048
C41	C	1.256905	0.122442	0.604568
C42	C	1.266529	0.113563	0.480942
C43	C	1.111963	0.256151	0.464288
C44	C	1.102343	0.265036	0.587913
H45	H	0.713552	0.178652	0.380906
H46	H	1.378761	0.010035	0.855429
C47	C	1.032244	0.329696	0.387143
H48	H	0.981982	0.376080	0.436704
H49	H	0.996150	0.287491	0.334618
H50	H	1.069428	0.370908	0.342525
C51	C	0.499143	0.174393	0.388604
H52	H	0.541950	0.180437	0.457521
H53	H	0.470066	0.111652	0.389955
H54	H	0.442996	0.235216	0.387030
H55	H	1.424447	-0.182750	0.153719
C56	C	1.074893	0.290371	0.840515
H57	H	1.079549	0.286086	0.924186
H58	H	1.008082	0.276503	0.812886
H59	H	1.081356	0.359925	0.820788
H60	H	0.992580	-0.295663	0.107198
H61	H	1.355339	-0.538361	0.146370
C62	C	1.012050	0.348348	0.646748
H63	H	1.016702	0.344071	0.730420
H64	H	0.945237	0.334485	0.619120
H65	H	1.018521	0.417897	0.627014
H66	H	0.914713	0.147978	-0.097082
C67	C	0.897511	0.178542	0.323649
H68	H	0.844762	0.181653	0.382250
H69	H	0.925899	0.241920	0.331223
H70	H	0.952962	0.118352	0.334103
H71	H	1.396223	-0.006075	0.631160
H72	H	0.547283	0.144726	-0.028776
H73	H	1.076360	-0.141019	0.116243
C74	C	0.705055	0.139344	-0.150560
H75	H	0.757806	0.136216	-0.209162
H76	H	0.649602	0.199522	-0.161017
H77	H	0.676675	0.075955	-0.158129
C78	C	0.981020	-0.509148	0.105944
H79	H	0.920321	-0.453449	0.099384
H80	H	0.974846	-0.546962	0.174337
H81	H	0.985535	-0.556797	0.037353
C82	C	1.467691	-0.402819	0.158481
H83	H	1.459357	-0.475073	0.157571
H84	H	1.500446	-0.384471	0.231076
H85	H	1.511112	-0.394314	0.094090
C86	C	1.356825	0.030249	0.422114
H87	H	1.398598	-0.008301	0.481594
H88	H	1.400428	0.065522	0.378179
H89	H	1.327147	-0.017893	0.370291
