data_functionalizedCrystal
_audit_creation_method	'MofGen! by Chris Wilmer'
_symmetry_space_group_name_H-M	'P1'
_symmetry_Int_Tables_number	1
_symmetry_cell_setting	triclinic
loop_
_symmetry_equiv_pos_as_xyz
  x,y,z
_cell_length_a	6.817900
_cell_length_b	14.125369
_cell_length_c	16.305550
_cell_angle_alpha	95.881756
_cell_angle_beta	103.455250
_cell_angle_gamma	100.397648
loop_
_atom_site_label
_atom_site_type_symbol
_atom_site_fract_x
_atom_site_fract_y
_atom_site_fract_z
V1	V	-4.010562	-0.133924	-0.262698
O2	O	-4.014497	0.005600	-0.258038
O3	O	-3.946693	-0.264746	-0.260573
O4	O	-3.962166	-0.132231	-0.377419
O5	O	-3.998916	-0.127832	-0.140383
V6	V	-4.496194	-0.117192	-0.248108
O7	O	-4.267194	-0.170627	-0.294702
O8	O	-4.689759	-0.080489	-0.216104
O9	O	-4.336857	0.013629	-0.250233
O10	O	-4.609656	-0.256717	-0.252767
O11	O	-4.625237	-0.123284	-0.370422
O12	O	-4.321383	-0.118886	-0.133387
C13	C	-3.787930	-0.296626	-0.256344
C14	C	-3.816996	-0.403577	-0.255371
C15	C	-4.055816	-0.651723	-0.257186
C16	C	-3.870319	-0.599394	-0.253623
C17	C	-3.840651	-0.490431	-0.254596
C18	C	-4.085492	-0.760696	-0.256213
C19	C	-3.807667	-0.127589	-0.405392
C20	C	-3.849280	-0.127070	-0.499175
C21	C	-4.000602	-0.125059	-0.839925
C22	C	-3.765253	-0.119089	-0.799012
C23	C	-3.721950	-0.120027	-0.701514
C24	C	-3.925528	-0.126056	-0.670875
C25	C	-4.081434	-0.221073	-0.721265
C26	C	-4.123360	-0.220535	-0.818816
C27	C	-4.065697	-0.036771	-0.794302
C28	C	-4.017855	-0.036019	-0.696461
C29	C	-3.883112	-0.126623	-0.575336
C30	C	-4.043027	-0.124499	-0.935466
C31	C	-4.158961	0.045504	-0.254459
C32	C	-4.109133	0.152454	-0.255437
C33	C	-4.139224	-0.123531	-0.105409
C34	C	-4.076850	-0.124045	-0.011625
H35	H	-3.733791	-0.636427	-0.249840
Cl36	Cl	-4.266589	-0.594548	-0.263020
Cl37	Cl	-3.684160	-0.217024	-0.847413
H38	H	-3.982726	0.035223	-0.807849
Cl39	Cl	-4.390233	-0.233382	-0.862002
Cl40	Cl	-3.538941	-0.014569	-0.647701
Cl41	Cl	-3.843674	0.072491	-0.643660
Cl42	Cl	-4.330708	-0.042213	-0.835693
H43	H	-3.667153	-0.050450	-0.811546
H44	H	-3.648010	-0.184190	-0.685061
H45	H	-4.079388	-0.287372	-0.849030
H46	H	-4.233671	-0.228921	-0.702333
H47	H	-4.018171	-0.287927	-0.704286
Cl48	Cl	-4.245466	-0.034185	-0.663501
