data_functionalizedCrystal
_audit_creation_method	'MofGen! by Chris Wilmer'
_symmetry_space_group_name_H-M	'P1'
_symmetry_Int_Tables_number	1
_symmetry_cell_setting	triclinic
loop_
_symmetry_equiv_pos_as_xyz
  x,y,z
_cell_length_a	11.169416
_cell_length_b	17.077404
_cell_length_c	17.077396
_cell_angle_alpha	90.019501
_cell_angle_beta	89.977334
_cell_angle_gamma	89.989435
loop_
_atom_site_label
_atom_site_type_symbol
_atom_site_fract_x
_atom_site_fract_y
_atom_site_fract_z
Zn1	Zn	-0.477800	-1.200123	-0.443874
Zn2	Zn	-0.678512	-1.200059	-0.312622
Zn3	Zn	-0.477842	-1.068855	-0.312622
Zn4	Zn	-0.678440	-1.068852	-0.443845
O5	O	-0.578149	-1.134472	-0.378241
O6	O	-0.504437	-1.309961	-0.426475
O7	O	-0.651940	-1.182629	-0.202775
O8	O	-0.309887	-1.086296	-0.330046
O9	O	-0.651899	-1.309914	-0.330045
O10	O	-0.309856	-1.182738	-0.426476
O11	O	-0.504509	-1.086234	-0.202775
O12	O	-0.504440	-0.959008	-0.330017
O13	O	-0.651778	-1.086291	-0.553696
O14	O	-0.651818	-0.959005	-0.426426
O15	O	-0.504368	-1.182735	-0.553718
O16	O	-0.846452	-1.182626	-0.330016
O17	O	-0.846400	-1.086228	-0.426426
C18	C	-0.578127	-0.930524	-0.378219
C19	C	-0.578146	-0.843274	-0.378229
C20	C	-0.889973	-1.134441	-0.378235
C21	C	-1.023373	-1.134500	-0.378259
C22	C	-0.578060	-1.134520	-0.582985
C23	C	-0.578022	-1.134540	-0.670235
C24	C	-0.265106	-1.134525	-0.378264
C25	C	-0.131706	-1.134547	-0.378274
C26	C	-0.578171	-1.339216	-0.378263
C27	C	-0.578181	-1.426466	-0.378273
C28	C	-0.655002	-0.802304	-0.428348
C29	C	-0.655005	-0.720323	-0.428361
C30	C	-0.578157	-0.679315	-0.378249
C31	C	-0.501292	-0.720292	-0.328127
C32	C	-0.501285	-0.802271	-0.328119
C33	C	-0.501316	-0.549422	-0.328146
C34	C	-0.501325	-0.467437	-0.328153
C35	C	-0.655036	-0.467474	-0.428388
C36	C	-0.655029	-0.549453	-0.428380
C37	C	-0.578165	-0.590424	-0.378257
C38	C	-0.501260	-1.184760	-0.711238
C39	C	-0.501220	-1.184770	-0.793218
C40	C	-0.577949	-1.134562	-0.834195
C41	C	-0.654715	-1.084336	-0.793186
C42	C	-0.654748	-1.084323	-0.711207
C43	C	-0.654643	-1.084368	-0.964057
C44	C	-0.654612	-1.084381	-1.046041
C45	C	-0.501115	-1.184814	-1.046067
C46	C	-0.501148	-1.184801	-0.964088
C47	C	-0.577916	-1.134576	-0.923086
C48	C	-0.578150	-1.134470	-0.174293
C49	C	-0.577850	-1.134602	-0.087044
H50	H	-0.717585	-0.835687	-0.469153
O51	O	-0.728966	-1.035559	-1.085928
C52	C	-0.660585	-0.984875	-1.133326
H53	H	-0.569642	-1.012594	-1.145620
H54	H	-0.647381	-0.926705	-1.101718
C55	C	-0.838276	-0.936601	-1.196089
C56	C	-0.726581	-0.970648	-1.211195
H57	H	-0.878986	-0.927822	-1.244121
H58	H	-0.884346	-0.970745	-1.164154
H59	H	-0.827256	-0.888130	-1.169747
H60	H	-0.737603	-1.019123	-1.237527
H61	H	-0.680514	-0.936512	-1.243135
O62	O	-0.729790	-0.680646	-0.477063
C63	C	-0.797607	-0.734420	-0.521296
H64	H	-0.801677	-0.792844	-0.489135
H65	H	-0.753792	-0.743165	-0.580968
C66	C	-0.920374	-0.630667	-0.571955
C67	C	-0.925382	-0.702423	-0.532450
H68	H	-0.999190	-0.610929	-0.578839
H69	H	-0.874683	-0.594438	-0.542157
H70	H	-0.883857	-0.637964	-0.621677
H71	H	-0.961885	-0.695123	-0.482726
H72	H	-0.971083	-0.738650	-0.562241
H73	H	-0.717618	-0.434112	-0.469202
O74	O	-0.426557	-0.427722	-0.279455
C75	C	-0.358727	-0.481460	-0.235204
H76	H	-0.354627	-0.539913	-0.267353
H77	H	-0.402548	-0.490149	-0.175535
C78	C	-0.236011	-0.377671	-0.184558
C79	C	-0.230966	-0.449462	-0.224047
H80	H	-0.157204	-0.357932	-0.177673
H81	H	-0.281712	-0.341465	-0.214368
H82	H	-0.272534	-0.384921	-0.134838
H83	H	-0.194458	-0.442209	-0.273770
H84	H	-0.185256	-0.485666	-0.194246
H85	H	-0.717612	-0.582840	-0.469181
H86	H	-0.438694	-0.835628	-0.287311
H87	H	-0.438715	-0.582778	-0.287338
O88	O	-0.426700	-0.680543	-0.279341
C89	C	-0.452791	-0.700524	-0.201073
H90	H	-0.498914	-0.760043	-0.199389
H91	H	-0.514450	-0.654370	-0.174572
C92	C	-0.279043	-0.631193	-0.155723
C93	C	-0.335684	-0.704299	-0.153653
H94	H	-0.206809	-0.633519	-0.126470
H95	H	-0.261467	-0.617729	-0.208453
H96	H	-0.330439	-0.592739	-0.133639
H97	H	-0.284295	-0.742749	-0.175745
H98	H	-0.353249	-0.717769	-0.100925
H99	H	-0.438605	-1.225708	-1.079456
H100	H	-0.438781	-1.225648	-0.677881
H101	H	-0.438715	-1.225666	-0.826599
H102	H	-0.717244	-1.043421	-0.677824
H103	H	-0.438674	-1.225689	-0.930728
H104	H	-0.717137	-1.043457	-0.930675
H105	H	-0.717186	-1.043453	-0.826556
