data_functionalizedCrystal
_audit_creation_method	'MofGen! by Chris Wilmer'
_symmetry_space_group_name_H-M	'P1'
_symmetry_Int_Tables_number	1
_symmetry_cell_setting	triclinic
loop_
_symmetry_equiv_pos_as_xyz
  x,y,z
_cell_length_a	13.032721
_cell_length_b	13.033299
_cell_length_c	13.033109
_cell_angle_alpha	89.116825
_cell_angle_beta	105.143326
_cell_angle_gamma	90.864526
loop_
_atom_site_label
_atom_site_type_symbol
_atom_site_fract_x
_atom_site_fract_y
_atom_site_fract_z
Zn1	Zn	-0.676068	-1.572144	-0.476638
Zn2	Zn	-0.176068	-1.072144	0.023362
Zn3	Zn	-0.826826	-1.533740	-0.325920
Zn4	Zn	-0.326826	-1.033740	0.174080
Zn5	Zn	-0.632282	-1.383126	-0.320404
Zn6	Zn	-0.132282	-0.883126	0.179596
Zn7	Zn	-0.832346	-1.383091	-0.520483
Zn8	Zn	-0.332346	-0.883091	-0.020483
O9	O	-0.741880	-1.468025	-0.410861
O10	O	-0.241880	-0.968025	0.089139
O11	O	-0.712081	-1.709202	-0.440604
O12	O	-0.212081	-1.209202	0.059396
O13	O	-0.780385	-1.497704	-0.178378
O14	O	-0.280385	-0.997704	0.321622
O15	O	-0.491270	-1.424286	-0.320471
O16	O	0.008730	-0.924286	0.179529
O17	O	-0.822842	-1.680987	-0.329872
O18	O	-0.322842	-1.180987	0.170128
O19	O	-0.523440	-1.563157	-0.435256
O20	O	-0.023440	-1.063157	0.064744
O21	O	-0.637454	-1.387048	-0.174325
O22	O	-0.137454	-0.887048	0.325675
O23	O	-0.642806	-1.240969	-0.362985
O24	O	-0.142806	-0.740969	0.137015
O25	O	-0.832250	-1.424226	-0.661477
O26	O	-0.332250	-0.924226	-0.161477
O27	O	-0.789792	-1.240943	-0.509983
O28	O	-0.289792	-0.740943	-0.009983
O29	O	-0.717433	-1.563123	-0.629265
O30	O	-0.217433	-1.063123	-0.129265
O31	O	-0.974378	-1.497670	-0.372387
O32	O	-0.474378	-0.997670	0.127613
O33	O	-0.978434	-1.386988	-0.515332
O34	O	-0.478434	-0.886988	-0.015332
C35	C	-0.712147	-1.204097	-0.440644
C36	C	-0.212147	-0.704097	0.059356
C37	C	-0.699456	-1.091188	-0.453414
C38	C	-0.199456	-0.591188	0.046586
C39	C	-0.748488	-1.026889	-0.404206
C40	C	-0.248488	-0.526889	0.095794
C41	C	-0.735372	-0.910191	-0.417403
C42	C	-0.235372	-0.410191	0.082597
C43	C	-1.014481	-1.438188	-0.449235
C44	C	-0.514481	-0.938188	0.050765
C45	C	-1.131116	-1.425520	-0.465676
C46	C	-0.631116	-0.925520	0.034324
C47	C	-1.181088	-1.474696	-0.402322
C48	C	-0.681088	-0.974696	0.097678
C49	C	-1.301636	-1.461604	-0.419313
C50	C	-0.801636	-0.961604	0.080687
C51	C	-0.468222	-1.498009	-0.372357
C52	C	0.031778	-0.998009	0.127643
C53	C	-0.351605	-1.510786	-0.355949
C54	C	0.148395	-1.010786	0.144051
C55	C	-0.780342	-1.497955	-0.684502
C56	C	-0.280342	-0.997955	-0.184502
C57	C	-0.796732	-1.510709	-0.801111
C58	C	-0.296732	-1.010709	-0.301111
C59	C	-0.771720	-0.732984	-0.380954
C60	C	-0.271720	-0.232984	0.119046
C61	C	-0.784410	-0.845894	-0.368188
C62	C	-0.284410	-0.345894	0.131812
C63	C	-0.733319	-1.461644	-0.851094
C64	C	-0.233319	-0.961644	-0.351094
C65	C	-0.750257	-1.474825	-0.971616
C66	C	-0.250257	-0.974825	-0.471616
C67	C	-0.703500	-1.438279	-0.138268
C68	C	-0.203500	-0.938279	0.361732
C69	C	-0.686836	-1.425754	-0.021596
C70	C	-0.186836	-0.925754	0.478404
H71	H	-0.647773	-1.059841	-0.505316
H72	H	-0.147773	-0.559841	-0.005316
H73	H	-1.177580	-1.373732	-0.532500
H74	H	-0.677580	-0.873732	-0.032500
Br75	Br	-1.103660	-1.561035	-0.290955
Br76	Br	-0.603660	-1.061035	0.209045
Br77	Br	-1.274183	-1.597128	-0.244575
Br78	Br	-0.774183	-1.097128	0.255425
H79	H	-0.817092	-1.526591	-1.018045
H80	H	-0.317092	-1.026591	-0.518045
H81	H	-0.836111	-0.877234	-0.316295
H82	H	-0.336111	-0.377234	0.183705
Br83	Br	-0.834650	-1.079124	-0.317711
Br84	Br	-0.334650	-0.579124	0.182289
Br85	Br	-0.649225	-0.857962	-0.503922
Br86	Br	-0.149225	-0.357962	-0.003922
Br87	Br	-1.379065	-1.375282	-0.530700
Br88	Br	-0.879065	-0.875282	-0.030700
Br89	Br	-0.575467	-1.339436	-0.944229
Br90	Br	-0.075467	-0.839436	-0.444229
H91	H	-0.666494	-1.409876	-0.804661
H92	H	-0.166494	-0.909876	-0.304661
H93	H	-0.863562	-1.562471	-0.847545
H94	H	-0.363562	-1.062471	-0.347545
