data_functionalizedCrystal
_audit_creation_method	'MofGen! by Chris Wilmer'
_symmetry_space_group_name_H-M	'P1'
_symmetry_Int_Tables_number	1
_symmetry_cell_setting	triclinic
loop_
_symmetry_equiv_pos_as_xyz
  x,y,z
_cell_length_a	12.759401
_cell_length_b	19.121449
_cell_length_c	12.759393
_cell_angle_alpha	92.473948
_cell_angle_beta	90.019802
_cell_angle_gamma	87.584348
loop_
_atom_site_label
_atom_site_type_symbol
_atom_site_fract_x
_atom_site_fract_y
_atom_site_fract_z
Zn1	Zn	1.624021	-0.279594	0.576131
Zn2	Zn	1.631372	-0.397060	0.392948
Zn3	Zn	1.448322	-0.279626	0.400467
Zn4	Zn	1.455768	-0.397005	0.568592
O5	O	1.539871	-0.338321	0.484535
O6	O	1.772018	-0.295185	0.551839
O7	O	1.607050	-0.381518	0.246922
O8	O	1.465437	-0.181338	0.430071
O9	O	1.777418	-0.381487	0.417256
O10	O	1.594522	-0.181315	0.559130
O11	O	1.472564	-0.295240	0.252446
O12	O	1.302288	-0.295188	0.422761
O13	O	1.478127	-0.381394	0.716616
O14	O	1.307758	-0.381426	0.546282
O15	O	1.601742	-0.295133	0.722154
O16	O	1.614270	-0.495336	0.409946
O17	O	1.485254	-0.495296	0.538991
C18	C	1.266902	-0.338305	0.484520
C19	C	1.150126	-0.338315	0.484538
C20	C	0.982722	-0.293475	0.554720
C21	C	1.092445	-0.293461	0.554714
C22	C	1.098079	-0.383190	0.414370
C23	C	0.988358	-0.383207	0.414382
C24	C	1.551396	-0.520800	0.472858
C25	C	1.556423	-0.598865	0.467898
C26	C	1.491567	-0.635545	0.532698
C27	C	1.496295	-0.708895	0.528033
C28	C	1.565884	-0.745564	0.458572
C29	C	1.630743	-0.708879	0.393764
C30	C	1.626009	-0.635530	0.398425
C31	C	1.583535	-0.967031	0.441138
C32	C	1.588266	-1.040385	0.436484
C33	C	1.453816	-1.040396	0.570753
C34	C	1.449093	-0.967046	0.575411
C35	C	1.513948	-0.930367	0.510600
C36	C	1.570721	-0.820540	0.453805
C37	C	1.509105	-0.855392	0.515363
C38	C	1.813905	-0.338338	0.484550
C39	C	1.930682	-0.338345	0.484556
C40	C	1.539945	-0.338254	0.758572
C41	C	1.539977	-0.338225	0.875351
C42	C	1.528329	-0.155130	0.496280
C43	C	1.523410	-0.077065	0.501285
C44	C	1.539854	-0.338338	0.211566
C45	C	1.540013	-0.338169	0.094801
C46	C	1.604348	-0.293301	0.933099
C47	C	1.604363	-0.293271	1.042825
C48	C	1.475635	-0.383094	1.037045
C49	C	1.475614	-0.383121	0.927321
H50	H	0.935765	-0.256946	0.611860
H51	H	1.627382	-0.850404	0.397250
H52	H	1.452441	-0.825534	0.571914
Br53	Br	1.691694	-0.232371	0.862571
Br54	Br	1.397127	-0.585787	0.626980
H55	H	1.423188	-0.419702	0.880301
Br56	Br	1.163067	-0.232567	0.649947
Br57	Br	1.725185	-0.758643	0.299492
Br58	Br	1.176359	-0.444069	0.319137
H59	H	1.656779	-0.256689	1.089839
Br60	Br	1.388294	-0.444023	1.107583
H61	H	1.443473	-0.738757	0.580792
Br62	Br	1.354654	-0.917285	0.669691
Br63	Br	1.365803	-1.090178	0.658705
Br64	Br	1.682718	-1.090150	0.342212
Br65	Br	1.671570	-0.917262	0.353196
Br66	Br	0.917726	-0.444109	0.319155
Br67	Br	1.714021	-0.585749	0.310467
