data_functionalizedCrystal
_audit_creation_method	'MofGen! by Chris Wilmer'
_symmetry_space_group_name_H-M	'P1'
_symmetry_Int_Tables_number	1
_symmetry_cell_setting	triclinic
loop_
_symmetry_equiv_pos_as_xyz
  x,y,z
_cell_length_a	17.640112
_cell_length_b	16.625546
_cell_length_c	16.625539
_cell_angle_alpha	89.969603
_cell_angle_beta	101.175261
_cell_angle_gamma	101.247770
loop_
_atom_site_label
_atom_site_type_symbol
_atom_site_fract_x
_atom_site_fract_y
_atom_site_fract_z
Zn1	Zn	1.208336	-0.071544	-0.207108
Zn2	Zn	1.208241	-0.206407	-0.072289
Zn3	Zn	1.076160	-0.098860	-0.099502
Zn4	Zn	1.076131	-0.233632	-0.234280
O5	O	1.142217	-0.152611	-0.153295
O6	O	1.318927	-0.066609	-0.166463
O7	O	1.190692	-0.192179	0.036927
O8	O	1.093745	0.017607	-0.113793
O9	O	1.318857	-0.165692	-0.067413
O10	O	1.190854	0.037675	-0.192851
O11	O	1.093653	-0.113164	0.016934
O12	O	0.965553	-0.139562	-0.140141
O13	O	1.093696	-0.212092	-0.343502
O14	O	0.965531	-0.238579	-0.239162
O15	O	1.190826	-0.093008	-0.323539
O16	O	1.190664	-0.322862	-0.093761
O17	O	1.093604	-0.342863	-0.212775
C18	C	0.936863	-0.194990	-0.195554
C19	C	0.849012	-0.213139	-0.213651
C20	C	0.560027	-0.014718	-0.015816
C21	C	0.477477	-0.031789	-0.032833
C22	C	0.477510	-0.135036	-0.135765
C23	C	0.560061	-0.117972	-0.118760
C24	C	0.601313	-0.057813	-0.058784
C25	C	0.601347	-0.161066	-0.161728
C26	C	0.683891	-0.144006	-0.144721
C27	C	0.725149	-0.083851	-0.084746
C28	C	0.683857	-0.040752	-0.041777
C29	C	0.560093	-0.221229	-0.221699
C30	C	0.601379	-0.264324	-0.264667
C31	C	0.683924	-0.247260	-0.247665
C32	C	0.725182	-0.187105	-0.187690
C33	C	0.725216	-0.290359	-0.290634
C34	C	0.807760	-0.273298	-0.273627
C35	C	0.807726	-0.170044	-0.170683
C36	C	1.142142	-0.362117	-0.153277
C37	C	1.142182	-0.451730	-0.153281
C38	C	1.142320	-0.779877	-0.153336
C39	C	1.142279	-0.688577	-0.153324
C40	C	1.142251	-0.615806	-0.153308
C41	C	1.142211	-0.524500	-0.153296
C42	C	1.348372	-0.110067	-0.110872
C43	C	1.436223	-0.091937	-0.092793
C44	C	1.142268	-0.152540	-0.363593
C45	C	1.142290	-0.152510	-0.453210
C46	C	1.142314	0.057718	-0.153327
C47	C	1.142355	0.147348	-0.153340
C48	C	1.142327	-0.152412	-0.781378
C49	C	1.142314	-0.152442	-0.690072
C50	C	1.142309	-0.152461	-0.617297
C51	C	1.142296	-0.152491	-0.525985
C52	C	1.142211	-0.152613	0.056195
C53	C	1.142342	-0.152385	0.145842
H54	H	0.717447	0.008247	0.007049
O55	O	0.599984	0.043719	0.042499
C56	C	0.545846	0.078117	0.076765
H57	H	0.486995	0.032939	0.067487
H58	H	0.569667	0.091713	0.145187
H59	H	0.537100	0.137513	0.045332
H60	H	0.443865	0.003314	0.002156
O61	O	0.437312	-0.193421	-0.194023
C62	C	0.355603	-0.199255	-0.199806
H63	H	0.344325	-0.139330	-0.175828
H64	H	0.324259	-0.211274	-0.266650
H65	H	0.332152	-0.251879	-0.161617
H66	H	0.492880	-0.235118	-0.235544
H67	H	0.841316	-0.121045	-0.121857
O68	O	0.561265	-0.322648	-0.323021
C69	C	0.513535	-0.286665	-0.384993
H70	H	0.538426	-0.218023	-0.384952
H71	H	0.512619	-0.316087	-0.447184
H72	H	0.450967	-0.296788	-0.372955
O73	O	0.685223	-0.348735	-0.348986
C74	C	0.705413	-0.327022	-0.425221
H75	H	0.765352	-0.283643	-0.414602
H76	H	0.708239	-0.384672	-0.460695
H77	H	0.658975	-0.295195	-0.462012
O78	O	0.805332	-0.067424	-0.068215
C79	C	0.832887	-0.138974	-0.041670
H80	H	0.785322	-0.195267	-0.065169
H81	H	0.888131	-0.141931	-0.066623
H82	H	0.847492	-0.137580	0.028247
O83	O	0.847959	-0.315025	-0.315387
C84	C	0.895725	-0.259308	-0.357714
H85	H	0.908081	-0.195614	-0.326837
H86	H	0.953773	-0.280164	-0.356497
H87	H	0.863948	-0.257093	-0.424032
