data_functionalizedCrystal
_audit_creation_method	'MofGen! by Chris Wilmer'
_symmetry_space_group_name_H-M	'P1'
_symmetry_Int_Tables_number	1
_symmetry_cell_setting	triclinic
loop_
_symmetry_equiv_pos_as_xyz
  x,y,z
_cell_length_a	19.288864
_cell_length_b	14.519709
_cell_length_c	18.366186
_cell_angle_alpha	89.992822
_cell_angle_beta	89.977106
_cell_angle_gamma	83.408195
loop_
_atom_site_label
_atom_site_type_symbol
_atom_site_fract_x
_atom_site_fract_y
_atom_site_fract_z
O1	O	0.921767	0.115045	-0.060785
O2	O	0.719562	0.130564	-0.060735
O3	O	0.826026	-0.011468	-0.060755
O4	O	0.815303	0.257077	-0.060765
O5	O	0.826007	-0.011475	0.060345
O6	O	0.719544	0.130557	0.060364
O7	O	0.921749	0.115038	0.060315
Zn8	Zn	0.820643	0.122797	0.079567
Zn9	Zn	0.820667	0.122806	-0.079987
O10	O	0.815285	0.257070	0.060334
C11	C	0.693675	0.130061	-0.000179
C12	C	0.616566	0.128562	-0.000160
C13	C	0.572169	0.211900	-0.000175
C14	C	0.499717	0.210492	-0.000183
C15	C	0.471665	0.125741	-0.000191
C16	C	0.516071	0.042392	-0.000172
C17	C	0.588521	0.043803	-0.000156
C18	C	0.363169	0.059120	-0.042639
C19	C	0.290720	0.057713	-0.042659
C20	C	0.248203	0.121387	-0.000234
C21	C	0.278144	0.186484	0.042200
C22	C	0.350595	0.187894	0.042215
C23	C	0.393105	0.124202	-0.000207
C24	C	0.125246	0.203203	-0.000257
C25	C	0.052792	0.201792	-0.000260
C26	C	0.069148	0.033689	-0.000257
C27	C	0.141599	0.035103	-0.000246
C28	C	0.169644	0.119863	-0.000249
C29	C	0.825517	-0.045828	-0.000205
C30	C	0.824019	-0.148200	-0.000204
C31	C	0.818507	-0.523061	-0.000222
C32	C	0.820037	-0.418762	-0.000216
C33	C	0.821263	-0.335633	-0.000212
C34	C	0.822794	-0.231329	-0.000208
C35	C	0.947636	0.115541	-0.000243
C36	C	1.024745	0.117040	-0.000267
C37	C	0.815794	0.291430	-0.000217
C38	C	0.817291	0.393802	-0.000223
N39	N	0.820632	0.122790	0.188458
N40	N	0.820684	0.122805	-0.188878
C41	C	0.867790	0.059929	0.226549
C42	C	0.867794	0.059925	0.302777
C43	C	0.820648	0.122797	0.340910
C44	C	0.773481	0.185663	0.302809
C45	C	0.773473	0.185659	0.226583
C46	C	0.811652	0.206826	0.461669
C47	C	0.811664	0.206831	0.537894
C48	C	0.820667	0.122809	0.576018
C49	C	0.829673	0.038778	0.537908
C50	C	0.829665	0.038775	0.461681
C51	C	0.820650	0.122808	0.423565
C52	C	0.867832	0.059938	0.696765
C53	C	0.867832	0.059933	0.772994
C54	C	0.773522	0.185679	0.773025
C55	C	0.773519	0.185677	0.696797
C56	C	0.820678	0.122807	0.658671
H57	H	0.374969	0.240896	0.076770
C58	C	0.721661	0.254838	0.814962
H59	H	0.728422	0.245842	0.865816
H60	H	0.675295	0.244980	0.802494
H61	H	0.729282	0.316365	0.802458
H62	H	0.594998	0.280918	-0.000179
C63	C	0.257791	-0.013893	-0.089331
H64	H	0.293489	-0.051625	-0.114584
H65	H	0.226446	0.017433	-0.123457
H66	H	0.233135	-0.051679	-0.058739
H67	H	0.735092	0.236854	0.333861
C68	C	0.450872	0.302167	-0.000210
H69	H	0.477951	0.352848	-0.000216
H70	H	0.422239	0.305119	0.042010
H71	H	0.422300	0.305098	-0.042456
C72	C	0.721653	0.254835	0.654894
H73	H	0.693578	0.292285	0.688520
H74	H	0.692698	0.221759	0.625176
H75	H	0.746687	0.293142	0.625142
H76	H	0.624670	-0.024063	-0.000145
H77	H	0.906197	0.008734	0.333797
C78	C	0.839581	-0.053653	0.579830
H79	H	0.844949	-0.103695	0.546217
H80	H	0.799894	-0.058642	0.609588
H81	H	0.880029	-0.055649	0.609544
H82	H	0.243528	0.238333	0.076747
C83	C	0.409934	-0.010926	-0.089306
H84	H	0.457371	-0.000770	-0.083214
H85	H	0.397301	-0.003051	-0.139094
H86	H	0.403987	-0.072176	-0.074385
C87	C	0.485216	-0.050831	-0.000185
H88	H	0.435708	-0.039736	-0.000204
H89	H	0.500423	-0.085139	0.042048
H90	H	0.500475	-0.085128	-0.042417
C91	C	0.156098	0.296433	-0.000253
H92	H	0.119277	0.345866	-0.000253
H93	H	0.184042	0.300481	-0.042479
H94	H	0.183999	0.300473	0.041986
C95	C	0.919655	-0.009235	0.184615
H96	H	0.947737	-0.046679	0.218224
H97	H	0.948604	0.023837	0.154856
H98	H	0.894615	-0.047547	0.154902
H99	H	0.016645	0.269658	-0.000268
H100	H	0.046308	-0.035317	-0.000308
C101	C	0.190440	-0.056567	-0.000240
H102	H	0.237606	-0.043589	-0.000226
H103	H	0.181950	-0.091329	-0.042472
H104	H	0.181903	-0.091334	0.041993
H105	H	0.836995	-0.029646	0.430655
C106	C	0.919693	-0.009224	0.654820
H107	H	0.912940	-0.000216	0.603966
H108	H	0.912074	-0.070746	0.667324
H109	H	0.966063	0.000636	0.667287
H110	H	0.906231	0.008739	0.804009
H111	H	0.804336	0.275253	0.568917
H112	H	0.804308	0.275251	0.430634
C113	C	0.721603	0.254816	0.184680
H114	H	0.693525	0.292265	0.218306
H115	H	0.692650	0.221740	0.154960
H116	H	0.746638	0.293124	0.154931
