data_functionalizedCrystal
_audit_creation_method	'MofGen! by Chris Wilmer'
_symmetry_space_group_name_H-M	'P1'
_symmetry_Int_Tables_number	1
_symmetry_cell_setting	triclinic
loop_
_symmetry_equiv_pos_as_xyz
  x,y,z
_cell_length_a	27.440280
_cell_length_b	23.096457
_cell_length_c	23.096457
_cell_angle_alpha	90.011518
_cell_angle_beta	60.005476
_cell_angle_gamma	60.005829
loop_
_atom_site_label
_atom_site_type_symbol
_atom_site_fract_x
_atom_site_fract_y
_atom_site_fract_z
Zr1	Zr	0.533399	0.557828	-0.075995
O2	O	0.635060	0.465373	-0.168440
O3	O	0.431737	0.586160	-0.047656
O4	O	0.533400	0.586147	-0.168446
O5	O	0.533396	0.465409	0.047631
O6	O	0.533402	0.681427	-0.168449
O7	O	0.533397	0.465387	-0.047651
O8	O	0.351545	0.681451	0.047621
O9	O	0.715253	0.465386	-0.168439
O10	O	0.473553	0.669363	-0.035572
O11	O	0.473551	0.598273	0.035539
O12	O	0.593246	0.598257	-0.106675
O13	O	0.593244	0.527168	-0.035565
Zr14	Zr	0.533399	0.709826	0.075963
Zr15	Zr	0.533401	0.709790	-0.076000
Zr16	Zr	0.533397	0.557864	0.075969
Zr17	Zr	0.661296	0.557848	-0.075993
Zr18	Zr	0.405501	0.709806	0.075962
O19	O	0.635060	0.681494	0.047625
O20	O	0.635063	0.681443	-0.168448
O21	O	0.635057	0.465425	0.047633
O22	O	0.431737	0.802280	0.168409
O23	O	0.431740	0.802229	-0.047664
O24	O	0.431734	0.586211	0.168417
O25	O	0.533402	0.802245	-0.047663
O26	O	0.533397	0.681507	0.168414
O27	O	0.533396	0.586227	0.168418
O28	O	0.533400	0.802267	0.047619
O29	O	0.715254	0.586175	-0.168443
O30	O	0.351543	0.681479	0.168412
O31	O	0.351545	0.802268	0.168407
O32	O	0.351546	0.802240	0.047617
O33	O	0.715251	0.465414	-0.047648
O34	O	0.715253	0.586203	-0.047652
O35	O	0.473551	0.669396	0.106644
O36	O	0.473553	0.740486	0.035533
O37	O	0.593246	0.669381	-0.035570
O38	O	0.593244	0.598291	0.035540
C39	C	0.533396	0.443747	-0.000009
C40	C	0.533395	0.379235	-0.000006
C41	C	0.373418	0.633802	-0.000018
C42	C	0.319122	0.633794	-0.000019
C43	C	0.470918	0.386046	0.037102
C44	C	0.470917	0.325430	0.037105
C45	C	0.533397	0.258005	-0.000014
C46	C	0.595882	0.251197	-0.037124
C47	C	0.595881	0.311812	-0.037120
N48	N	0.579904	0.135202	-0.060425
N49	N	0.579900	0.077622	-0.060427
C50	C	0.533403	0.075372	-0.000027
N51	N	0.486898	0.132882	0.060375
N52	N	0.486900	0.190468	0.060376
C53	C	0.533405	0.192273	-0.000022
C54	C	0.470921	0.016459	0.037089
C55	C	0.470922	-0.044159	0.037094
C56	C	0.595889	-0.118393	-0.037143
C57	C	0.595885	-0.057775	-0.037141
C58	C	0.533399	0.009648	-0.000027
C59	C	-0.017619	0.670955	-0.037128
C60	C	-0.068643	0.670961	-0.037127
O61	O	-0.095048	0.702542	-0.068673
N62	N	-0.094160	0.633853	-0.000009
C63	C	-0.068655	0.596741	0.037115
O64	O	-0.095045	0.565178	0.068687
C65	C	-0.017636	0.596739	0.037117
C66	C	0.007884	0.633844	-0.000009
C67	C	0.007900	0.708058	-0.074251
C68	C	0.058922	0.708050	-0.074253
C69	C	0.084424	0.670939	-0.037134
C70	C	0.058905	0.633837	-0.000012
C71	C	0.007864	0.559632	0.074244
C72	C	0.058887	0.559633	0.074243
C73	C	0.084406	0.596739	0.037117
C74	C	0.135428	0.596718	0.037104
N75	N	0.160946	0.633827	-0.000013
C76	C	0.135443	0.670938	-0.037132
C77	C	-0.175801	0.596749	0.037109
C78	C	-0.226816	0.596746	0.037104
C79	C	-0.226800	0.670968	-0.037137
C80	C	-0.175781	0.670966	-0.037135
C81	C	-0.150283	0.633857	-0.000008
C82	C	0.242592	0.670918	-0.037136
C83	C	0.293620	0.670905	-0.037138
C84	C	0.293598	0.596686	0.037105
C85	C	0.242577	0.596696	0.037104
C86	C	0.217074	0.633818	-0.000018
O87	O	0.161864	0.565156	0.068637
O88	O	0.161833	0.702503	-0.068692
C89	C	0.693379	0.633851	-0.000014
C90	C	0.747675	0.633860	-0.000013
C91	C	0.533401	0.633782	-0.190099
C92	C	0.533402	0.633766	-0.254612
C93	C	0.533401	0.823907	-0.000023
C94	C	0.533402	0.888419	-0.000025
C95	C	0.595879	0.596654	-0.322031
C96	C	0.595880	0.596672	-0.382647
C97	C	0.533401	0.633793	-0.375841
C98	C	0.470916	0.670914	-0.308409
C99	C	0.470916	0.670901	-0.247795
N100	N	0.486893	0.628664	-0.443397
N101	N	0.486897	0.628672	-0.500980
C102	C	0.533395	0.633837	-0.558466
N103	N	0.579899	0.638978	-0.556199
N104	N	0.579898	0.638965	-0.498611
C105	C	0.533393	0.633812	-0.441563
C106	C	0.595877	0.596742	-0.691615
C107	C	0.595875	0.596765	-0.752231
C108	C	0.470909	0.671002	-0.677991
C109	C	0.470912	0.670984	-0.617377
C110	C	0.533398	0.633850	-0.624194
C111	C	0.533396	0.633872	0.190068
C112	C	0.533395	0.633887	0.254580
C113	C	0.373421	0.823883	-0.000025
C114	C	0.319126	0.888386	-0.000028
C115	C	0.373416	0.633848	0.190066
C116	C	0.319119	0.633855	0.254577
C117	C	0.373418	0.823928	0.190059
C118	C	0.319122	0.888446	0.254568
C119	C	0.693379	0.443726	-0.190090
C120	C	0.747675	0.379207	-0.254600
C121	C	0.693377	0.443771	-0.000007
C122	C	0.747672	0.379268	-0.000003
C123	C	0.693382	0.633806	-0.190097
C124	C	0.747679	0.633799	-0.254609
C125	C	0.293628	0.881552	-0.037152
C126	C	0.242620	0.942153	-0.037169
C127	C	0.217106	1.009589	-0.000058
C128	C	0.242608	1.016422	0.037067
C129	C	0.293620	0.955821	0.037080
C130	C	0.293620	0.670984	0.321995
C131	C	0.242610	0.670988	0.382617
C132	C	0.217095	0.633866	0.375819
C133	C	0.242599	0.596733	0.308394
C134	C	0.293612	0.596725	0.247774
C135	C	0.293625	0.955860	0.247743
C136	C	0.242616	1.016487	0.308351
C137	C	0.217100	1.009701	0.375783
C138	C	0.242602	0.942280	0.382606
C139	C	0.293615	0.881654	0.321999
C140	C	0.773178	0.311794	-0.247775
C141	C	0.824204	0.251167	-0.308383
C142	C	0.849722	0.257953	-0.375814
C143	C	0.824217	0.325374	-0.382638
C144	C	0.773195	0.386000	-0.322030
C145	C	0.773174	0.386102	0.037114
C146	C	0.824197	0.325501	0.037115
C147	C	0.849713	0.258065	0.000001
C148	C	0.824208	0.251232	-0.037121
C149	C	0.773190	0.311833	-0.037125
C150	C	0.773177	0.670928	-0.247788
C151	C	0.824188	0.670935	-0.308398
C152	C	0.849703	0.633809	-0.375828
C153	C	0.824199	0.596679	-0.382647
C154	C	0.773186	0.596677	-0.322038
H155	H	0.420037	0.440941	0.067319
H156	H	0.646757	0.566506	-0.697166
Br157	Br	0.680673	0.546399	-0.843734
H158	H	0.221820	0.936765	0.437517
H159	H	0.891242	0.633817	-0.425174
H160	H	0.221851	0.701229	0.437511
Br161	Br	0.738587	0.477487	-0.331305
Br162	Br	0.386121	0.334667	0.087468
Br163	Br	0.208015	1.107977	0.299074
H164	H	0.420037	0.701228	-0.672447
Br165	Br	0.680681	0.546239	-0.331284
Br166	Br	0.680676	0.546304	-0.474157
H167	H	0.314389	0.701213	0.327544
Br168	Br	0.386117	0.721339	-0.525874
H169	H	0.420039	0.701123	-0.192898
Br170	Br	0.738556	0.302564	-0.156268
Br171	Br	0.680684	-0.209894	-0.087512
H172	H	0.314401	0.826648	-0.067381
H173	H	0.314393	0.961399	0.192843
H174	H	0.844982	0.566452	-0.437557
Br175	Br	0.680676	0.159692	-0.087494
H176	H	0.844948	0.701170	-0.302832
H177	H	0.646761	-0.063324	-0.067364
H178	H	0.646759	0.306261	-0.067337
H179	H	-0.247582	0.566522	0.067326
Br180	Br	0.328208	0.790167	0.331274
H181	H	0.752411	0.701160	-0.192889
H182	H	0.221862	0.936576	-0.067401
Br183	Br	0.738582	0.302545	-0.087501
Br184	Br	0.738593	0.546276	-0.331308
Br185	Br	0.918966	0.175667	-0.458061
H186	H	0.314373	0.961395	0.067315
Br187	Br	0.858806	0.159677	-0.299106
H188	H	0.420041	0.071358	0.067324
H189	H	0.845000	0.330891	-0.437548
H190	H	0.752403	0.441006	0.067341
Br191	Br	0.328218	0.546324	0.087478
Br192	Br	0.386124	-0.034914	0.087471
H193	H	0.175557	0.633878	0.425185
Br194	Br	0.328254	0.721261	-0.087530
H195	H	0.221832	0.701147	-0.067363
H196	H	0.844955	0.331078	0.067347
H197	H	0.079695	0.738267	-0.104482
Br198	Br	0.918953	0.175827	0.000014
H199	H	-0.012861	0.738281	-0.104477
Br200	Br	0.207964	0.546357	0.299180
Br201	Br	-0.261420	0.721333	-0.087513
Br202	Br	-0.141153	0.721325	-0.087521
H203	H	0.314366	0.566492	0.192881
Br204	Br	-0.026758	0.509272	0.124634
Br205	Br	-0.141198	0.546377	0.087496
Br206	Br	0.207952	0.546327	0.087477
Br207	Br	0.093485	0.509271	0.124635
Br208	Br	0.386121	0.721298	-0.299169
Br209	Br	0.858842	0.159707	-0.087484
H210	H	0.221827	1.071336	0.067282
Br211	Br	0.147875	1.091827	-0.000082
H212	H	0.175563	1.059072	0.425127
