data_functionalizedCrystal
_audit_creation_method	'MofGen! by Chris Wilmer'
_symmetry_space_group_name_H-M	'P1'
_symmetry_Int_Tables_number	1
_symmetry_cell_setting	triclinic
loop_
_symmetry_equiv_pos_as_xyz
  x,y,z
_cell_length_a	14.853566
_cell_length_b	10.489716
_cell_length_c	13.330367
_cell_angle_alpha	89.999430
_cell_angle_beta	89.995295
_cell_angle_gamma	84.081775
loop_
_atom_site_label
_atom_site_type_symbol
_atom_site_fract_x
_atom_site_fract_y
_atom_site_fract_z
O1	O	1.197293	0.166522	-0.083348
O2	O	1.697293	0.666522	0.416652
O3	O	0.934943	0.186362	-0.083363
O4	O	1.434943	0.686362	0.416637
O5	O	1.072099	-0.009225	-0.083359
O6	O	1.572099	0.490775	0.416641
O7	O	1.060137	0.362109	-0.083352
O8	O	1.560137	0.862109	0.416648
O9	O	1.072079	-0.009230	0.083488
O10	O	1.572079	0.490770	0.583488
O11	O	0.934923	0.186357	0.083484
O12	O	1.434923	0.686357	0.583484
O13	O	1.197273	0.166518	0.083499
O14	O	1.697273	0.666518	0.583499
Cu15	Cu	1.066096	0.176437	0.098726
Cu16	Cu	1.566096	0.676437	0.598726
Cu17	Cu	1.066120	0.176442	-0.098590
Cu18	Cu	1.566120	0.676442	0.401410
O19	O	1.060117	0.362105	0.083495
O20	O	1.560117	0.862105	0.583495
C21	C	0.901339	0.185461	0.000058
C22	C	1.401339	0.685461	0.500058
C23	C	0.801241	0.182768	0.000052
C24	C	1.301241	0.682768	0.500052
C25	C	0.378004	0.171380	-0.090879
C26	C	0.878004	0.671380	0.409121
C27	C	0.378003	0.171376	0.091024
C28	C	0.878003	0.671376	0.591024
C29	C	0.472051	0.173905	0.091021
C30	C	0.972051	0.673905	0.591021
C31	C	0.519080	0.175173	0.000066
C32	C	1.019080	0.675173	0.500066
C33	C	0.472060	0.173913	-0.090885
C34	C	0.972060	0.673913	0.409115
C35	C	0.519077	0.175178	0.181971
C36	C	1.019077	0.675178	0.681971
C37	C	0.613131	0.177709	0.181971
C38	C	1.113131	0.677709	0.681971
C39	C	0.660161	0.178968	0.091016
C40	C	1.160161	0.678968	0.591016
C41	C	0.613136	0.177706	0.000061
C42	C	1.113136	0.677706	0.500061
C43	C	0.660165	0.178975	-0.090894
C44	C	1.160165	0.678975	0.409106
C45	C	0.613142	0.177703	-0.181850
C46	C	1.113142	0.677703	0.318150
C47	C	0.519091	0.175172	-0.181841
C48	C	1.019091	0.675172	0.318159
C49	C	0.754212	0.181499	0.091006
C50	C	1.254212	0.681499	0.591006
C51	C	0.754221	0.181507	-0.090900
C52	C	1.254221	0.681507	0.409100
C53	C	1.071190	-0.056749	0.000061
C54	C	1.571190	0.443251	0.500061
C55	C	1.068501	-0.198350	0.000052
C56	C	1.568501	0.301650	0.500052
C57	C	1.152610	-0.296969	0.000066
C58	C	1.652610	0.203031	0.500066
C59	C	1.108175	-0.373828	-0.082198
C60	C	1.608175	0.126172	0.417802
C61	C	1.108136	-0.373796	0.082300
C62	C	1.608136	0.126204	0.582300
C63	C	1.024102	-0.273344	-0.082280
C64	C	1.524102	0.226656	0.417720
C65	C	1.024075	-0.273307	0.082292
C66	C	1.524075	0.226693	0.582292
C67	C	0.979578	-0.350117	0.000008
C68	C	1.479578	0.149883	0.500008
C69	C	1.230877	0.167419	0.000075
C70	C	1.730877	0.667419	0.500075
C71	C	1.330975	0.170112	0.000075
C72	C	1.830975	0.670112	0.500075
C73	C	1.061026	0.409629	0.000072
C74	C	1.561026	0.909629	0.500072
C75	C	1.063715	0.551230	0.000075
C76	C	1.563715	1.051230	0.500075
N77	N	1.066086	0.176433	0.237507
N78	N	1.566086	0.676433	0.737507
N79	N	1.066137	0.176437	-0.237372
N80	N	1.566137	0.676437	0.262628
C81	C	1.005384	0.263014	0.710128
C82	C	1.505384	0.763014	1.210128
C83	C	1.126880	0.089861	0.710100
C84	C	1.626880	0.589861	1.210100
C85	C	1.126869	0.089857	0.605082
C86	C	1.626869	0.589857	1.105082
C87	C	1.066117	0.176434	0.552582
C88	C	1.566117	0.676434	1.052582
C89	C	1.005374	0.263015	0.605100
C90	C	1.505374	0.763015	1.105100
C91	C	1.187617	0.003286	0.552556
C92	C	1.687617	0.503286	1.052556
C93	C	1.187610	0.003279	0.447531
C94	C	1.687610	0.503279	0.947531
C95	C	1.126852	0.089851	0.395029
C96	C	1.626852	0.589851	0.895029
C97	C	1.066106	0.176435	0.447554
C98	C	1.566106	0.676435	0.947554
C99	C	1.005354	0.263013	0.395054
C100	C	1.505354	0.763013	0.895054
C101	C	0.944603	0.349591	0.447577
C102	C	1.444603	0.849591	0.947577
C103	C	0.944616	0.349588	0.552598
C104	C	1.444616	0.849588	1.052598
C105	C	1.126839	0.089855	0.290007
C106	C	1.626839	0.589855	0.790007
C107	C	1.005343	0.263014	0.290026
C108	C	1.505343	0.763014	0.790026
H109	H	0.339706	0.170352	0.165075
H110	H	0.839706	0.670352	0.665075
H111	H	0.651409	0.178741	0.256033
H112	H	1.151409	0.678741	0.756033
H113	H	1.176305	0.019370	0.247248
H114	H	1.676305	0.519370	0.747248
H115	H	0.480779	0.174154	0.256021
H116	H	0.980779	0.674154	0.756021
H117	H	0.906363	-0.373725	-0.000041
H118	H	1.406363	0.126275	0.499959
H119	H	0.895156	0.420078	0.595369
H120	H	1.395156	0.920078	1.095369
H121	H	1.143650	-0.417669	0.151846
H122	H	1.643650	0.082331	0.651846
H123	H	0.792493	0.182547	0.165061
H124	H	1.292493	0.682547	0.665061
H125	H	0.651444	0.178745	-0.255905
H126	H	1.151444	0.678745	0.244095
H127	H	0.955868	0.333512	0.247286
H128	H	1.455868	0.833512	0.747286
H129	H	0.339714	0.170340	-0.164934
H130	H	0.839714	0.670340	0.335066
H131	H	1.225770	-0.273114	-0.000013
H132	H	1.725770	0.226886	0.499987
H133	H	0.988592	-0.229393	0.151840
H134	H	1.488592	0.270607	0.651840
H135	H	1.143689	-0.417720	-0.151744
H136	H	1.643689	0.082280	0.348256
H137	H	0.988624	-0.229640	-0.151905
H138	H	1.488624	0.270360	0.348095
H139	H	0.895141	0.420089	0.404819
H140	H	1.395141	0.920089	0.904819
H141	H	0.480797	0.174136	-0.255892
H142	H	0.980797	0.674136	0.244108
H143	H	0.955919	0.333502	0.752895
H144	H	1.455919	0.833502	1.252895
H145	H	1.176347	0.019378	0.752849
H146	H	1.676347	0.519378	1.252849
H147	H	1.237085	-0.067197	0.595305
H148	H	1.737085	0.432803	1.095305
H149	H	0.792506	0.182536	-0.164967
H150	H	1.292506	0.682536	0.335033
H151	H	1.237075	-0.067218	0.404773
H152	H	1.737075	0.432782	0.904773
