data_functionalizedCrystal
_audit_creation_method	'MofGen! by Chris Wilmer'
_symmetry_space_group_name_H-M	'P1'
_symmetry_Int_Tables_number	1
_symmetry_cell_setting	triclinic
loop_
_symmetry_equiv_pos_as_xyz
  x,y,z
_cell_length_a	19.288864
_cell_length_b	16.776229
_cell_length_c	19.288865
_cell_angle_alpha	89.994091
_cell_angle_beta	96.863755
_cell_angle_gamma	90.020968
loop_
_atom_site_label
_atom_site_type_symbol
_atom_site_fract_x
_atom_site_fract_y
_atom_site_fract_z
O1	O	0.921351	0.066553	-0.086643
O2	O	1.421351	0.566553	0.413357
O3	O	0.719091	0.066500	-0.098332
O4	O	1.219091	0.566500	0.401668
O5	O	0.826066	0.066512	0.008643
O6	O	1.326066	0.566512	0.508643
O7	O	0.814377	0.066541	-0.193618
O8	O	1.314377	0.566541	0.306382
O9	O	0.826050	-0.066065	0.008637
O10	O	1.326050	0.433935	0.508637
O11	O	0.719075	-0.066077	-0.098338
O12	O	1.219075	0.433923	0.401662
O13	O	0.921336	-0.066024	-0.086649
O14	O	1.421336	0.433976	0.413351
Zn15	Zn	0.820203	-0.087100	-0.092494
Zn16	Zn	1.320203	0.412900	0.407506
Zn17	Zn	0.820224	0.087576	-0.092487
Zn18	Zn	1.320224	0.587576	0.407513
O19	O	0.814361	-0.066036	-0.193624
O20	O	1.314361	0.433964	0.306376
C21	C	0.693207	0.000204	-0.097959
C22	C	1.193207	0.500204	0.402041
C23	C	0.616103	0.000183	-0.096830
C24	C	1.116103	0.500183	0.403170
C25	C	0.571407	0.000205	-0.159598
C26	C	1.071407	0.500205	0.340402
C27	C	0.498960	0.000213	-0.158537
C28	C	0.998960	0.500213	0.341463
C29	C	0.471212	0.000217	-0.094705
C30	C	0.971212	0.500217	0.405295
C31	C	0.515918	0.000191	-0.031929
C32	C	1.015918	0.500191	0.468071
C33	C	0.588364	0.000174	-0.032991
C34	C	1.088364	0.500174	0.467009
C35	C	0.362956	0.046684	-0.044524
C36	C	0.862956	0.546684	0.455476
C37	C	0.290511	0.046705	-0.043464
C38	C	0.790511	0.546705	0.456536
C39	C	0.247767	0.000264	-0.091425
C40	C	0.747767	0.500264	0.408575
C41	C	0.277474	-0.046188	-0.140458
C42	C	0.777474	0.453812	0.359542
C43	C	0.349919	-0.046204	-0.141521
C44	C	0.849919	0.453796	0.358479
C45	C	0.392658	0.000234	-0.093546
C46	C	0.892658	0.500234	0.406454
C47	C	0.124514	0.000294	-0.153047
C48	C	0.624514	0.500294	0.346953
C49	C	0.052066	0.000298	-0.151984
C50	C	0.552066	0.500298	0.348016
C51	C	0.069026	0.000283	-0.025374
C52	C	0.569026	0.500283	0.474626
C53	C	0.141473	0.000271	-0.026439
C54	C	0.641473	0.500271	0.473561
C55	C	0.169212	0.000281	-0.090278
C56	C	0.669212	0.500281	0.409722
N57	N	0.820194	-0.206311	-0.092499
N58	N	1.320194	0.293689	0.407501
C59	C	0.867612	-0.751470	-0.045125
C60	C	1.367612	-0.251470	0.454875
C61	C	0.867609	-0.668018	-0.045130
C62	C	1.367609	-0.168018	0.454870
C63	C	0.820227	-0.626310	-0.092484
C64	C	1.320227	-0.126310	0.407516
C65	C	0.772851	-0.668059	-0.139840
C66	C	1.272851	-0.168059	0.360160
C67	C	0.772858	-0.751510	-0.139838
C68	C	1.272858	-0.251510	0.360162
C69	C	0.772821	-0.331512	-0.139850
C70	C	1.272821	0.168488	0.360150
C71	C	0.772816	-0.248055	-0.139847
C72	C	1.272816	0.251945	0.360153
C73	C	0.867572	-0.248020	-0.045143
C74	C	1.367572	0.251980	0.454857
C75	C	0.867579	-0.331471	-0.045140
C76	C	1.367579	0.168529	0.454860
C77	C	0.820205	-0.373212	-0.092499
C78	C	1.320205	0.126788	0.407501
C79	C	0.820211	-0.463701	-0.092494
C80	C	1.320211	0.036299	0.407506
C81	C	0.820218	-0.535823	-0.092486
C82	C	1.320218	-0.035823	0.407514
C83	C	0.947220	0.000273	-0.087022
C84	C	1.447220	0.500273	0.412978
C85	C	1.024324	0.000300	-0.088151
C86	C	1.524324	0.500300	0.411849
C87	C	0.825682	0.000221	0.034516
C88	C	1.325682	0.500221	0.534516
C89	C	0.824553	0.000214	0.111620
C90	C	1.324553	0.500214	0.611620
N91	N	0.820238	0.206787	-0.092476
N92	N	1.320238	0.706787	0.407524
C93	C	0.814745	0.000256	-0.219497
C94	C	1.314745	0.500256	0.280503
C95	C	0.815874	0.000269	-0.296601
C96	C	1.315874	0.500269	0.203399
C97	C	0.887321	0.000227	0.156316
C98	C	1.387321	0.500227	0.656316
C99	C	0.886260	0.000239	0.228763
C100	C	1.386260	0.500239	0.728763
C101	C	0.822428	0.000223	0.256511
C102	C	1.322428	0.500223	0.756511
C103	C	0.759652	0.000214	0.211805
C104	C	1.259652	0.500214	0.711805
C105	C	0.760714	0.000210	0.139359
C106	C	1.260714	0.500210	0.639359
C107	C	0.772243	-0.046229	0.364796
C108	C	1.272243	0.453771	0.864796
C109	C	0.771183	-0.046230	0.437241
C110	C	1.271183	0.453770	0.937241
C111	C	0.819148	0.000240	0.479956
C112	C	1.319148	0.500240	0.979956
C113	C	0.868185	0.046699	0.450220
C114	C	1.368185	0.546699	0.950220
C115	C	0.869247	0.046695	0.377775
C116	C	1.369247	0.546695	0.877775
C117	C	0.821269	0.000228	0.335065
C118	C	1.321269	0.500228	0.835065
C119	C	0.880770	0.000267	0.603209
C120	C	1.380770	0.500267	1.103209
C121	C	0.879707	0.000284	0.675657
C122	C	1.379707	0.500284	1.175657
C123	C	0.753097	0.000252	0.658697
C124	C	1.253097	0.500252	1.158697
C125	C	0.754162	0.000242	0.586250
C126	C	1.254162	0.500242	1.086250
C127	C	0.818001	0.000246	0.558511
C128	C	1.318001	0.500246	1.058511
H129	H	0.015674	0.000311	-0.203099
H130	H	0.515674	0.500311	0.296901
H131	H	0.374104	-0.084030	-0.181443
H132	H	0.874104	0.415970	0.318557
H133	H	0.939303	0.000232	0.133736
H134	H	1.439303	0.500232	0.633736
Cl135	Cl	0.416685	0.105072	0.015777
Cl136	Cl	0.916685	0.605072	0.515777
H137	H	0.906185	-0.634031	-0.006574
H138	H	1.406185	-0.134031	0.493426
Cl139	Cl	0.223746	-0.104575	-0.200757
Cl140	Cl	0.723746	0.395425	0.299243
H141	H	0.734231	-0.214098	-0.178411
H142	H	1.234231	0.285902	0.321589
H143	H	0.906193	-0.785423	-0.006562
H144	H	1.406193	-0.285423	0.493438
Cl145	Cl	0.928488	0.105124	0.503912
Cl146	Cl	1.428488	0.605124	1.003912
H147	H	0.624756	0.000157	0.018124
H148	H	1.124756	0.500157	0.518124
Cl149	Cl	0.961023	0.000267	0.568333
Cl150	Cl	1.461023	0.500267	1.068333
H151	H	0.733182	-0.084075	0.330022
H152	H	1.233182	0.415925	0.830022
H153	H	0.930822	0.000299	0.712049
H154	H	1.430822	0.500299	1.212049
H155	H	0.707679	0.000203	0.234401
H156	H	1.207679	0.500203	0.734401
Cl157	Cl	0.927131	-0.195540	0.014393
Cl158	Cl	1.427131	0.304460	0.514393
H159	H	0.734247	-0.365491	-0.178410
H160	H	1.234247	0.134509	0.321590
Cl161	Cl	0.034151	0.000278	0.054873
Cl162	Cl	0.534151	0.500278	0.554873
Cl163	Cl	0.672850	0.000236	0.693572
Cl164	Cl	1.172850	0.500236	1.193572
Cl165	Cl	0.965174	0.000256	0.284963
Cl166	Cl	1.465174	0.500256	0.784963
H167	H	0.734274	-0.634096	-0.178399
H168	H	1.234274	-0.134096	0.321601
Cl169	Cl	0.675249	0.000223	0.530057
Cl170	Cl	1.175249	0.500223	1.030057
H171	H	0.493322	0.000204	0.020044
H172	H	0.993322	0.500204	0.520044
H173	H	0.731251	-0.084056	0.461446
H174	H	1.231251	0.415944	0.961446
Cl175	Cl	0.606275	0.000213	-0.239852
Cl176	Cl	1.106275	0.500213	0.260148
Cl177	Cl	0.930886	0.105104	0.340394
Cl178	Cl	1.430886	0.605104	0.840394
H179	H	0.177866	0.000258	0.024674
H180	H	0.677866	0.500258	0.524674
Cl181	Cl	0.159390	0.000298	-0.233300
Cl182	Cl	0.659390	0.500298	0.266700
Cl183	Cl	0.681799	0.000194	0.083166
Cl184	Cl	1.181799	0.500194	0.583166
H185	H	0.266329	0.084533	-0.003541
H186	H	0.766329	0.584533	0.496459
H187	H	0.906159	-0.365427	-0.006579
H188	H	1.406159	0.134573	0.493421
H189	H	0.462561	0.000229	-0.209652
H190	H	0.962561	0.500229	0.290348
H191	H	0.734282	-0.785496	-0.178397
H192	H	1.234282	-0.285496	0.321603
