data_functionalizedCrystal
_audit_creation_method	'MofGen! by Chris Wilmer'
_symmetry_space_group_name_H-M	'P1'
_symmetry_Int_Tables_number	1
_symmetry_cell_setting	triclinic
loop_
_symmetry_equiv_pos_as_xyz
  x,y,z
_cell_length_a	19.902436
_cell_length_b	14.628931
_cell_length_c	14.628931
_cell_angle_alpha	59.999807
_cell_angle_beta	59.996936
_cell_angle_gamma	90.001278
loop_
_atom_site_label
_atom_site_type_symbol
_atom_site_fract_x
_atom_site_fract_y
_atom_site_fract_z
Zr1	Zr	0.647321	-0.119891	1.000475
O2	O	0.540029	-0.265864	1.191198
O3	O	0.680212	-0.075142	0.809764
O4	O	0.680212	-0.265848	1.000470
O5	O	0.540029	0.075274	1.000492
O6	O	0.790791	-0.265836	1.000452
O7	O	0.540029	-0.075158	1.000492
O8	O	0.790791	0.075302	0.659314
O9	O	0.540029	-0.265864	1.341630
O10	O	0.776763	-0.056048	0.888188
O11	O	0.694240	0.056208	0.888201
O12	O	0.694240	-0.168324	1.112733
O13	O	0.611716	-0.056067	1.112746
Zr14	Zr	0.823682	0.120051	1.000446
Zr15	Zr	0.823682	-0.119871	1.000447
Zr16	Zr	0.647322	0.120031	1.000474
Zr17	Zr	0.647322	-0.119891	1.240397
Zr18	Zr	0.823682	0.120051	0.760525
O19	O	0.790791	0.075302	1.191157
O20	O	0.790791	-0.265836	1.191158
O21	O	0.540030	0.075274	1.191197
O22	O	0.930974	0.266024	0.809723
O23	O	0.930974	-0.075114	0.809724
O24	O	0.680212	0.265996	0.809763
O25	O	0.930974	-0.075115	1.000429
O26	O	0.790791	0.266008	1.000451
O27	O	0.680213	0.265996	1.000469
O28	O	0.930974	0.075317	1.000429
O29	O	0.680212	-0.265849	1.341608
O30	O	0.790791	0.266008	0.659313
O31	O	0.930974	0.266024	0.659291
O32	O	0.930974	0.075318	0.659292
O33	O	0.540030	-0.075158	1.341630
O34	O	0.680213	-0.075143	1.341607
O35	O	0.776764	0.168483	0.888188
O36	O	0.859287	0.056227	0.888175
O37	O	0.776764	-0.056049	1.112720
O38	O	0.694240	0.056208	1.112733
C39	C	0.514902	0.000055	1.000496
C40	C	0.440032	0.000047	1.000508
C41	C	0.735501	0.000080	0.700355
C42	C	0.735501	0.000080	0.598502
C43	C	0.735502	0.300185	1.000460
C44	C	0.735502	0.402039	1.000459
C45	C	0.168030	0.000091	1.000444
C46	C	0.144463	-0.070395	1.142092
C47	C	0.222301	-0.070787	1.142180
C48	C	0.302973	0.000069	1.000477
C49	C	0.300562	-0.051575	0.930132
C50	C	0.222334	-0.052096	0.931038
C51	C	0.223322	0.122253	0.928128
C52	C	0.300243	0.122065	0.930790
C53	C	0.379240	0.000058	1.000488
C54	C	0.091765	0.000098	1.000429
C55	C	0.956102	0.000104	1.000425
C56	C	1.030971	0.000112	1.000413
C57	C	0.735501	-0.300026	1.000461
C58	C	0.735501	-0.401879	1.000462
C59	C	0.694565	0.391752	1.111849
C60	C	0.694564	0.497021	1.111851
C61	C	0.776439	-0.055606	0.553087
C62	C	0.776439	-0.055608	0.447816
C63	C	0.735502	0.000079	1.300566
C64	C	0.735502	0.000079	1.402419
C65	C	0.956101	0.000105	0.700320
C66	C	1.030971	0.000113	0.598455
C67	C	0.735502	0.300186	0.700354
C68	C	0.735502	0.402039	0.598501
C69	C	0.956102	0.300210	0.700319
C70	C	1.030971	0.402072	0.598454
C71	C	0.514902	-0.300051	1.300602
C72	C	0.440032	-0.401912	1.402467
C73	C	0.514902	0.000055	1.300601
C74	C	0.440033	0.000047	1.402466
C75	C	0.735502	-0.300026	1.300567
C76	C	0.735502	-0.401880	1.402420
C77	C	1.023054	-0.058499	0.550625
C78	C	1.093395	-0.058514	0.454925
C79	C	1.171652	0.000091	0.407051
C80	C	1.179568	0.058705	0.454890
C81	C	1.109228	0.058713	0.550595
C82	C	1.109215	0.391310	0.550610
C83	C	1.179570	0.487011	0.454910
C84	C	1.171679	0.593472	0.407049
C85	C	1.093427	0.604231	0.454902
C86	C	1.023074	0.508532	0.550607
C87	C	0.361789	-0.391151	1.450323
C88	C	0.291434	-0.486851	1.546052
C89	C	0.299325	-0.593312	1.593918
C90	C	0.377576	-0.604072	1.546059
C91	C	0.447929	-0.508372	1.450338
C92	C	0.447950	0.058649	1.450306
C93	C	0.377609	0.058637	1.546032
C94	C	0.299351	0.000029	1.593910
C95	C	0.291436	-0.058581	1.546066
C96	C	0.361776	-0.058575	1.450349
C97	C	0.776439	0.503145	0.553085
C98	C	0.776440	0.608416	0.447814
H99	H	0.221023	-0.036415	1.197653
H100	H	0.242032	-0.671228	1.671860
O101	O	1.247518	0.000090	0.303816
H102	H	1.228857	-0.050507	0.278597
H103	H	0.811483	0.511769	0.592142
H104	H	0.811489	0.695151	0.408756
O105	O	0.207045	-0.475219	1.597635
H106	H	0.172928	-0.515985	1.703204
H107	H	0.770545	0.488779	0.905097
O108	O	0.386083	-0.718900	1.597681
H109	H	0.324012	-0.783628	1.672268
H110	H	1.086934	-0.106244	0.415986
H111	H	0.105297	-0.035932	1.197688
H112	H	0.811484	-0.103288	0.408766
O113	O	0.532328	-0.519963	1.398707
H114	H	0.539479	-0.566429	1.355105
H115	H	0.700456	0.047758	0.559447
H116	H	0.185791	-0.141991	0.981027
O117	O	0.648129	0.485574	1.238181
H118	H	0.691643	0.526425	1.243706
H119	H	0.700449	0.047752	0.441475
H120	H	0.511664	0.106383	1.411331
H121	H	1.243279	0.478230	0.415958
O122	O	0.822860	-0.118772	0.604812
H123	H	0.815567	-0.108870	0.679389
O124	O	0.386154	0.121870	1.597609
H125	H	0.452390	0.162642	1.548209
H126	H	0.242082	0.000033	1.671850
O127	O	0.207028	-0.121794	1.597711
H128	H	0.159453	-0.111936	1.672296
H129	H	0.357703	0.179003	0.827409
H130	H	1.243294	0.106419	0.415896
O131	O	0.938652	-0.121725	0.602264
H132	H	0.944977	-0.162493	0.552928
H133	H	0.187010	0.165393	0.973455
H134	H	1.115685	0.106449	0.589525
O135	O	0.353233	-0.121773	1.398740
H136	H	0.286997	-0.162514	1.448111
O137	O	1.247566	0.696684	0.303813
H138	H	1.247522	0.747217	0.216609
H139	H	1.115655	0.304633	0.589564
H140	H	0.700457	0.511394	0.441462
O141	O	0.353260	-0.276335	1.398711
H142	H	0.415321	-0.211583	1.324098
H143	H	0.700451	0.393415	0.559453
H144	H	1.087015	0.690925	0.415920
O145	O	0.938686	0.520156	0.602173
H146	H	0.931531	0.566640	0.645757
O147	O	0.091627	-0.189061	1.215369
H148	H	0.082078	-0.198055	1.151343
H149	H	0.220526	-0.160900	1.197705
O150	O	0.781952	0.609591	0.874119
H151	H	0.757085	0.656037	0.817866
H152	H	0.243239	0.175019	0.823783
H153	H	0.241682	-0.004077	0.827113
H154	H	0.357375	-0.002705	0.825942
H155	H	0.302113	-0.140614	0.978987
H156	H	0.659515	0.305011	1.207211
O157	O	0.299771	0.173197	0.998693
H158	H	0.301475	0.111989	1.081728
