data_functionalizedCrystal
_audit_creation_method	'MofGen! by Chris Wilmer'
_symmetry_space_group_name_H-M	'P1'
_symmetry_Int_Tables_number	1
_symmetry_cell_setting	triclinic
loop_
_symmetry_equiv_pos_as_xyz
  x,y,z
_cell_length_a	33.428889
_cell_length_b	33.428139
_cell_length_c	33.424847
_cell_angle_alpha	60.004234
_cell_angle_beta	60.008465
_cell_angle_gamma	59.994972
loop_
_atom_site_label
_atom_site_type_symbol
_atom_site_fract_x
_atom_site_fract_y
_atom_site_fract_z
O1	O	0.055565	-0.584504	0.488714
O2	O	0.020982	-0.455083	0.393778
O3	O	0.102943	-0.536959	0.393689
O4	O	-0.026396	-0.502628	0.488803
O5	O	0.130140	-0.509767	0.420792
O6	O	0.048179	-0.427891	0.420881
O7	O	0.082762	-0.557312	0.515817
Cu8	Cu	0.067954	-0.490119	0.470823
Cu9	Cu	0.035790	-0.522276	0.438771
O10	O	0.000801	-0.475436	0.515906
N11	N	0.090577	-0.467504	0.493370
N12	N	0.013171	-0.544895	0.416225
C13	C	0.143377	-0.280390	0.546067
C14	C	0.143515	-0.414755	0.680369
C15	C	0.143392	-0.414735	0.546069
C16	C	0.277766	-0.414702	0.545966
C17	C	0.158177	-0.324719	0.560828
C18	C	0.158255	-0.399967	0.636038
C19	C	0.233434	-0.399936	0.560773
C20	C	0.158186	-0.399955	0.560829
C21	C	0.124540	-0.223964	0.527278
C22	C	0.124565	-0.433545	0.527281
C23	C	0.177014	-0.381145	0.579617
C24	C	0.359814	-0.400540	0.502735
C25	C	0.411105	-0.417624	0.485606
C26	C	0.411136	-0.500620	0.517255
C27	C	0.359845	-0.483534	0.534385
C28	C	0.136887	-0.198305	0.476855
C29	C	0.119761	-0.147011	0.459777
C30	C	0.077945	-0.147038	0.543547
C31	C	0.095072	-0.198332	0.560625
C32	C	0.074134	-0.421169	0.539710
C33	C	0.057023	-0.438269	0.522625
C34	C	0.140770	-0.480120	0.480694
C35	C	0.157883	-0.463020	0.497773
C36	C	0.074339	-0.421208	0.762475
C37	C	0.057288	-0.438323	0.813768
C38	C	0.141075	-0.480183	0.813699
C39	C	0.158125	-0.463069	0.762404
C40	C	0.124756	-0.433580	0.736794
C41	C	0.334186	-0.433494	0.527123
C42	C	-0.173769	-0.597444	0.363037
C43	C	-0.039302	-0.597595	0.228856
C44	C	-0.039496	-0.597587	0.363300
C45	C	-0.039512	-0.731889	0.363237
C46	C	-0.129442	-0.612265	0.348329
C47	C	-0.054138	-0.612351	0.273187
C48	C	-0.054257	-0.687554	0.348440
C49	C	-0.054247	-0.612346	0.348477
C50	C	-0.230191	-0.578579	0.381758
C51	C	-0.020722	-0.578803	0.382168
C52	C	-0.073020	-0.631130	0.329609
C53	C	-0.053713	-0.813916	0.406386
C54	C	-0.036654	-0.865210	0.423504
C55	C	0.046338	-0.865293	0.391984
C56	C	0.029278	-0.813999	0.374865
C57	C	-0.255900	-0.590938	0.432169
C58	C	-0.307191	-0.573786	0.449185
C59	C	-0.307060	-0.531922	0.365377
C60	C	-0.255769	-0.549074	0.348360
C61	C	-0.033081	-0.528377	0.369764
C62	C	-0.016014	-0.511306	0.386922
C63	C	0.025770	-0.595083	0.428877
C64	C	0.008703	-0.612156	0.411725
C65	C	-0.032755	-0.528393	0.146761
C66	C	-0.015585	-0.511324	0.095468
C67	C	0.026262	-0.595106	0.095516
C68	C	0.009094	-0.612174	0.146811
C69	C	-0.020417	-0.578816	0.172432
C70	C	-0.020748	-0.788312	0.382068
N71	N	0.436037	-0.467415	0.493101
O72	O	0.592642	-0.471896	0.376066
O73	O	0.592838	-0.567146	0.505347
O74	O	0.592754	-0.566928	0.423360
O75	O	0.592727	-0.472113	0.458053
O76	O	0.511269	-0.539835	0.450606
O77	O	0.511353	-0.540052	0.532594
O78	O	0.511157	-0.444802	0.403312
Cu79	Cu	0.503815	-0.489954	0.470441
Cu80	Cu	0.600180	-0.521995	0.438219
O81	O	0.511242	-0.445020	0.485300
N82	N	0.667959	-0.544533	0.415554
N83	N	0.090544	-0.122107	0.493359
O84	O	-0.026406	0.034587	0.488773
O85	O	0.102877	0.034627	0.393499
O86	O	0.020848	0.034591	0.393771
O87	O	0.055623	0.034623	0.488500
O88	O	0.048051	-0.046899	0.420925
O89	O	0.130080	-0.046864	0.420653
O90	O	0.000796	-0.046903	0.515927
Cu91	Cu	0.067922	-0.054324	0.470769
Cu92	Cu	0.035752	0.042048	0.438656
O93	O	0.082825	-0.046867	0.515655
N94	N	0.013123	0.109830	0.416068
N95	N	0.090892	-0.467554	0.838649
O96	O	0.086330	-0.584488	0.995334
O97	O	-0.008902	-0.455160	0.995379
O98	O	-0.008679	-0.537172	0.995355
O99	O	0.086107	-0.502475	0.995358
O100	O	0.018452	-0.509990	0.913868
O101	O	0.018230	-0.427978	0.913891
O102	O	0.113461	-0.557306	0.913847
Cu103	Cu	0.068323	-0.490160	0.906429
Cu104	Cu	0.036237	-0.522306	1.002797
O105	O	0.113239	-0.475293	0.913870
N106	N	0.013667	-0.544916	1.070577
C107	C	0.031339	-0.425179	0.394250
C108	C	0.132837	-0.526572	0.394139
C109	C	0.072405	-0.587216	0.515344
C110	C	-0.029093	-0.485823	0.515455
C111	C	0.552119	-0.566716	0.535258
C112	C	0.552016	-0.566447	0.433726
C113	C	0.551873	-0.445232	0.373402
C114	C	0.551980	-0.445502	0.474933
C115	C	0.132731	-0.006013	0.393923
C116	C	0.031182	-0.006158	0.394293
C117	C	-0.029092	-0.006163	0.515469
C118	C	0.072491	-0.006119	0.515133
C119	C	-0.008451	-0.425276	0.954641
C120	C	-0.008170	-0.526833	0.954596
C121	C	0.113010	-0.587190	0.954585
C122	C	0.112735	-0.485627	0.954611
H123	H	0.016234	-0.428240	0.834672
C124	C	-0.078601	-0.476177	0.555336
C125	C	-0.078586	-0.518052	0.597229
C126	C	-0.124187	-0.509187	0.633975
H127	H	-0.084606	-0.449489	0.563062
H128	H	-0.103540	-0.468454	0.544121
H129	H	-0.053655	-0.525769	0.608443
H130	H	-0.072590	-0.544746	0.589519
H131	H	-0.149125	-0.501463	0.622759
H132	H	-0.130188	-0.482497	0.641696
H133	H	-0.124184	-0.537599	0.662402
H134	H	0.551811	-0.415327	0.336274
C135	C	0.331891	-0.346231	0.494952
C136	C	0.302465	-0.339364	0.540446
C137	C	0.276734	-0.289343	0.533294
H138	H	0.354447	-0.329000	0.478001
H139	H	0.311833	-0.334191	0.476198
H140	H	0.322522	-0.351398	0.559193
H141	H	0.279901	-0.356584	0.557404
H142	H	0.256676	-0.277302	0.514539
H143	H	0.299293	-0.272116	0.516342
H144	H	0.256762	-0.284677	0.564159
H145	H	0.023733	-0.006162	0.364531
C146	C	0.152861	-0.636710	0.954489
C147	C	0.164107	-0.645396	0.912564
C148	C	0.200811	-0.691011	0.912462
H149	H	0.181341	-0.636811	0.954461
H150	H	0.141645	-0.661662	0.982886
H151	H	0.175325	-0.620451	0.884175
H152	H	0.135638	-0.645305	0.912583
H153	H	0.189595	-0.715964	0.940858
H154	H	0.229288	-0.691109	0.912435
H155	H	0.208443	-0.696913	0.884019
C156	C	0.182184	-0.005772	0.354012
C157	C	0.219023	-0.047588	0.370486
C158	C	0.264587	-0.047381	0.333739
H159	H	0.182266	-0.005739	0.325536
H160	H	0.188025	0.022700	0.346391
H161	H	0.213184	-0.076053	0.378101
H162	H	0.218957	-0.047631	0.398957
H163	H	0.270428	-0.018909	0.326118
H164	H	0.264663	-0.047347	0.305265
H165	H	0.289588	-0.075750	0.344913
C166	C	0.082315	-0.006087	0.554875
C167	C	0.040529	-0.006087	0.596850
C168	C	0.049559	-0.006050	0.633468
H169	H	0.109033	-0.034489	0.562546
H170	H	0.090061	0.022349	0.543571
H171	H	0.032790	-0.034520	0.608152
H172	H	0.013807	0.022314	0.589195
H173	H	0.057304	0.022386	0.622164
H174	H	0.076277	-0.034453	0.641134
H175	H	0.021208	-0.006045	0.661950
C176	C	0.551942	-0.405839	0.484929
C177	C	0.551992	-0.423605	0.532753
C178	C	0.551951	-0.387080	0.541981
H179	H	0.580324	-0.396861	0.462349
H180	H	0.523489	-0.377987	0.481337
H181	H	0.580442	-0.451448	0.536341
H182	H	0.523612	-0.432579	0.555343
H183	H	0.523498	-0.359228	0.538389
H184	H	0.580333	-0.378105	0.519398
H185	H	0.551980	-0.399127	0.574431
H186	H	-0.066220	-0.006175	0.545378
C187	C	0.064997	-0.786115	0.348428
C188	C	0.039355	-0.735694	0.334963
C189	C	0.072246	-0.709992	0.310601
H190	H	0.081191	-0.794475	0.369535
H191	H	0.088506	-0.794517	0.319920
H192	H	0.015855	-0.727296	0.363466
H193	H	0.023163	-0.727320	0.313850
H194	H	0.095755	-0.718394	0.282094
H195	H	0.088438	-0.718356	0.331712
H196	H	0.054854	-0.675779	0.301458
H197	H	-0.038348	-0.388133	0.954654
H198	H	0.199181	-0.473148	0.741498
C199	C	0.152390	-0.475627	0.954579
C200	C	0.134627	-0.427786	0.954580
C201	C	0.171145	-0.418555	0.954543
H202	H	0.161354	-0.498188	0.982980
H203	H	0.180247	-0.479247	0.926144
H204	H	0.106778	-0.424170	0.983012
H205	H	0.125666	-0.405215	0.926181
H206	H	0.199002	-0.422175	0.926108
H207	H	0.180107	-0.441119	0.982945
H208	H	0.159099	-0.386093	0.954539
H209	H	0.047163	-0.397193	0.741627
C210	C	-0.047842	-0.536805	0.954625
C211	C	-0.058978	-0.576224	0.996521
C212	C	-0.095516	-0.585428	0.996561
H213	H	-0.076395	-0.508524	0.954650
H214	H	-0.036514	-0.544599	0.926209
H215	H	-0.070307	-0.568427	1.024930
H216	H	-0.030436	-0.604512	0.996505
H217	H	-0.084189	-0.593222	0.968145
H218	H	-0.124067	-0.557145	0.996585
H219	H	-0.103074	-0.612177	1.024984
C220	C	0.177383	-0.512212	0.841417
C221	C	0.225186	-0.519395	0.807948
C222	C	0.258644	-0.548908	0.833463
H223	H	0.172537	-0.496600	0.861430
H224	H	0.172502	-0.542980	0.861410
H225	H	0.230065	-0.488633	0.787963
H226	H	0.230047	-0.535013	0.787934
H227	H	0.253764	-0.579676	0.853457
H228	H	0.253794	-0.533293	0.853476
H229	H	0.291082	-0.553789	0.810759
C230	C	0.022025	-0.666899	0.425250
C231	C	-0.020814	-0.679116	0.450825
C232	C	-0.008558	-0.729541	0.463294
H233	H	0.039443	-0.675379	0.396288
H234	H	0.041976	-0.684339	0.445331
H235	H	-0.040757	-0.661683	0.430745
H236	H	-0.038237	-0.670648	0.479793
H237	H	0.011393	-0.746980	0.483376
H238	H	0.008860	-0.738016	0.434330
H239	H	-0.037622	-0.737837	0.480652
C240	C	0.021427	-0.375633	0.354472
C241	C	-0.017970	-0.367007	0.343316
C242	C	-0.027110	-0.321374	0.306671
H243	H	0.013638	-0.350681	0.365697
H244	H	0.049742	-0.375484	0.325951
H245	H	-0.046278	-0.367151	0.371831
H246	H	-0.010191	-0.391947	0.332083
H247	H	0.001205	-0.321225	0.278150
H248	H	-0.034897	-0.296426	0.317899
H249	H	-0.053838	-0.315517	0.299093
H250	H	-0.063498	-0.886058	0.443304
H251	H	0.015959	-0.428182	0.532734
C252	C	0.037936	-0.389082	0.571657
C253	C	0.008489	-0.346373	0.545919
C254	C	-0.024859	-0.316800	0.575331
H255	H	0.017899	-0.406430	0.600675
H256	H	0.055330	-0.380637	0.580043
H257	H	-0.008904	-0.354819	0.537541
H258	H	0.028512	-0.329013	0.516904
H259	H	-0.007465	-0.308354	0.583717
H260	H	-0.044893	-0.334152	0.604348
H261	H	-0.044840	-0.287817	0.557871
C262	C	0.177025	-0.512101	0.448645
C263	C	0.224852	-0.519269	0.441411
C264	C	0.258260	-0.548719	0.411884
H265	H	0.172177	-0.542876	0.464265
H266	H	0.172096	-0.496433	0.417895
H267	H	0.229779	-0.534937	0.472155
H268	H	0.229715	-0.488503	0.425784
H269	H	0.253331	-0.533052	0.381134
H270	H	0.253408	-0.579492	0.427508
H271	H	0.290714	-0.553583	0.406968
C272	C	0.212618	-0.476382	0.484316
C273	C	0.220475	-0.455088	0.505581
C274	C	0.270890	-0.467382	0.493190
H275	H	0.227097	-0.510981	0.496093
H276	H	0.227009	-0.464557	0.449704
H277	H	0.206091	-0.466916	0.540185
H278	H	0.206008	-0.420489	0.493807
H279	H	0.285281	-0.455558	0.458578
H280	H	0.285364	-0.501982	0.504968
H281	H	0.276227	-0.452933	0.507613
C282	C	0.332111	-0.519390	0.560832
C283	C	0.365566	-0.566866	0.563509
C284	C	0.340035	-0.599910	0.587862
H285	H	0.312124	-0.518153	0.592989
H286	H	0.312092	-0.510840	0.543370
H287	H	0.385576	-0.575414	0.580972
H288	H	0.385554	-0.568119	0.531359
H289	H	0.320016	-0.591360	0.570400
H290	H	0.320048	-0.598669	0.620018
H291	H	0.362730	-0.632126	0.589678
H292	H	0.432025	-0.541365	0.523165
C293	C	0.182407	-0.536409	0.354383
C294	C	0.212618	-0.584219	0.372009
C295	C	0.258288	-0.593295	0.335401
H296	H	0.178187	-0.532764	0.326528
H297	H	0.197119	-0.513782	0.345454
H298	H	0.197910	-0.606839	0.380931
H299	H	0.216852	-0.587875	0.399859
H300	H	0.272999	-0.570669	0.326473
H301	H	0.254063	-0.589648	0.307548
H302	H	0.278793	-0.625733	0.347357
H303	H	0.431972	-0.390789	0.465748
H304	H	0.129813	-0.126117	0.418717
C305	C	0.168854	-0.226044	0.440571
C306	C	0.175985	-0.192592	0.392756
C307	C	0.205425	-0.218130	0.359319
H308	H	0.199639	-0.246047	0.445407
H309	H	0.153195	-0.246051	0.445484
H310	H	0.191645	-0.172594	0.387844
H311	H	0.145210	-0.172588	0.387904
H312	H	0.189767	-0.238136	0.364233
H313	H	0.236208	-0.238132	0.364160
H314	H	0.210264	-0.195437	0.326873
C315	C	0.082247	-0.636831	0.555053
C316	C	0.093654	-0.673438	0.538316
C317	C	0.102717	-0.719149	0.574885
H318	H	0.108983	-0.642842	0.562710
H319	H	0.053914	-0.636998	0.583556
H320	H	0.121984	-0.673273	0.509822
H321	H	0.066925	-0.667443	0.530663
H322	H	0.074384	-0.719315	0.603387
H323	H	0.129452	-0.725155	0.582539
H324	H	0.110453	-0.743991	0.563535
C325	C	0.046023	-0.119271	0.579808
C326	C	0.071816	-0.131756	0.609208
C327	C	0.042422	-0.106195	0.642623
H328	H	0.037574	-0.085039	0.562481
H329	H	0.017036	-0.127703	0.599869
H330	H	0.100793	-0.123321	0.589150
H331	H	0.080264	-0.165984	0.626546
H332	H	0.013435	-0.114627	0.662683
H333	H	0.033975	-0.071964	0.625291
H334	H	0.059916	-0.114665	0.662577
C335	C	0.081735	-0.226278	0.615353
C336	C	0.103044	-0.276687	0.623175
C337	C	0.090778	-0.302446	0.673585
H338	H	0.093559	-0.217914	0.629770
H339	H	0.047133	-0.217929	0.629824
H340	H	0.137640	-0.285033	0.608710
H341	H	0.091224	-0.285066	0.608770
H342	H	0.056175	-0.294097	0.688057
H343	H	0.102602	-0.294078	0.687998
H344	H	0.105230	-0.336651	0.678900
C345	C	-0.029091	-0.456570	0.067628
C346	C	-0.080105	-0.435423	0.080015
C347	C	-0.092562	-0.384986	0.054374
H348	H	-0.017363	-0.442115	0.076050
H349	H	-0.014670	-0.451157	0.033405
H350	H	-0.094520	-0.440832	0.114230
H351	H	-0.091845	-0.449864	0.071592
H352	H	-0.078142	-0.379573	0.020151
H353	H	-0.080832	-0.370535	0.062798
H354	H	-0.127176	-0.370632	0.062772
C355	C	-0.064715	-0.492150	0.174549
C356	C	-0.038947	-0.462766	0.162133
C357	C	-0.068368	-0.429377	0.187726
H358	H	-0.093696	-0.472070	0.166105
H359	H	-0.073165	-0.509515	0.208778
H360	H	-0.030503	-0.445401	0.127911
H361	H	-0.009968	-0.482831	0.170578
H362	H	-0.076818	-0.446743	0.221955
H363	H	-0.097347	-0.409302	0.179280
H364	H	-0.050887	-0.409440	0.179309
H365	H	0.050281	-0.622271	0.074658
H366	H	0.019144	-0.653235	0.167709
H367	H	-0.026079	-0.470245	0.376824
C368	C	-0.065047	-0.492087	0.337705
C369	C	-0.072231	-0.444273	0.330531
C370	C	-0.101682	-0.410830	0.301006
H371	H	-0.049390	-0.496964	0.306938
H372	H	-0.095816	-0.496954	0.353318
H373	H	-0.041468	-0.439408	0.314918
H374	H	-0.087894	-0.439380	0.361290
H375	H	-0.132451	-0.415697	0.316618
H376	H	-0.086021	-0.415711	0.270241
H377	H	-0.106563	-0.378384	0.296138
H378	H	0.087072	-0.886205	0.386121
C379	C	0.057782	-0.631353	0.460897
C380	C	0.100494	-0.660822	0.435192
C381	C	0.129990	-0.694241	0.464676
H382	H	0.066232	-0.614027	0.469353
H383	H	0.040366	-0.651367	0.489878
H384	H	0.117906	-0.640811	0.406221
H385	H	0.092058	-0.678160	0.426737
H386	H	0.112575	-0.714255	0.493656
H387	H	0.138437	-0.676910	0.473130
H388	H	0.158971	-0.714243	0.447241
C389	C	-0.108041	-0.786114	0.414212
C390	C	-0.133254	-0.819519	0.439153
C391	C	-0.183299	-0.793928	0.446360
H392	H	-0.120169	-0.766090	0.433023
H393	H	-0.112759	-0.766124	0.383368
H394	H	-0.128539	-0.839501	0.469992
H395	H	-0.121141	-0.839544	0.420350
H396	H	-0.188016	-0.773938	0.415515
H397	H	-0.195422	-0.773905	0.465169
H398	H	-0.200411	-0.816590	0.463279
H399	H	-0.235077	-0.614964	0.459366
H400	H	-0.328125	-0.583847	0.490235
C401	C	0.551930	-0.606113	0.423839
C402	C	0.509973	-0.589344	0.412451
C403	C	0.509873	-0.625873	0.403346
H404	H	0.580293	-0.613740	0.397082
H405	H	0.551950	-0.634641	0.452151
H406	H	0.509957	-0.560825	0.384142
H407	H	0.481603	-0.581721	0.439201
H408	H	0.509893	-0.654401	0.431659
H409	H	0.538238	-0.633498	0.376590
H410	H	0.481404	-0.614502	0.395623
C411	C	-0.334745	-0.499878	0.329040
C412	C	-0.301251	-0.492723	0.281249
C413	C	-0.326734	-0.463200	0.247762
H414	H	-0.354759	-0.515473	0.333865
H415	H	-0.354735	-0.469103	0.333915
H416	H	-0.281270	-0.523492	0.276376
H417	H	-0.281236	-0.477122	0.276408
H418	H	-0.346724	-0.432425	0.252637
H419	H	-0.346747	-0.478798	0.252592
H420	H	-0.304012	-0.458338	0.215332
C421	C	0.552216	-0.606536	0.584790
C422	C	0.552246	-0.588976	0.615022
C423	C	0.552341	-0.625647	0.660652
H424	H	0.523825	-0.615491	0.599533
H425	H	0.580660	-0.634367	0.580491
H426	H	0.523805	-0.561154	0.619322
H427	H	0.580634	-0.580024	0.600295
H428	H	0.580785	-0.653478	0.656353
H429	H	0.523950	-0.634600	0.675390
H430	H	0.552366	-0.613739	0.681168
H431	H	-0.234840	-0.539009	0.307312
