data_functionalizedCrystal
_audit_creation_method	'MofGen! by Chris Wilmer'
_symmetry_space_group_name_H-M	'P1'
_symmetry_Int_Tables_number	1
_symmetry_cell_setting	triclinic
loop_
_symmetry_equiv_pos_as_xyz
  x,y,z
_cell_length_a	15.944551
_cell_length_b	9.065218
_cell_length_c	7.540329
_cell_angle_alpha	90.001757
_cell_angle_beta	89.998469
_cell_angle_gamma	84.257312
loop_
_atom_site_label
_atom_site_type_symbol
_atom_site_fract_x
_atom_site_fract_y
_atom_site_fract_z
O1	O	-1.115964	-0.190270	-0.147290
O2	O	-0.871592	-0.213728	-0.147333
O3	O	-0.998829	0.012762	-0.147307
O4	O	-0.988727	-0.416759	-0.147316
O5	O	-0.998821	0.012764	0.147658
O6	O	-0.871584	-0.213725	0.147632
O7	O	-1.115956	-0.190267	0.147675
Cu8	Cu	-0.993770	-0.201996	0.174586
Cu9	Cu	-0.993779	-0.201999	-0.174244
O10	O	-0.988719	-0.416757	0.147649
C11	C	-0.840287	-0.212753	0.000144
C12	C	-0.747019	-0.209833	0.000127
C13	C	-0.997854	0.067727	0.000172
C14	C	-0.994951	0.231502	0.000163
C15	C	-1.147261	-0.191242	0.000194
C16	C	-1.240530	-0.194162	0.000199
C17	C	-0.531045	-0.062466	0.000164
C18	C	-0.470548	-0.130900	-0.145270
C19	C	-0.576253	-0.204551	0.000148
C20	C	-0.470563	-0.130931	0.145542
C21	C	-0.411301	-0.199439	0.000176
C22	C	-0.516983	-0.273024	-0.145407
C23	C	-0.517004	-0.273035	0.145536
C24	C	-0.456525	-0.341573	0.000066
C25	C	-0.671277	-0.207493	0.000130
C26	C	-0.316278	-0.196509	0.000181
C27	C	-0.989694	-0.471722	0.000165
C28	C	-0.992597	-0.635497	0.000163
N29	N	-0.993769	-0.201993	0.419935
N30	N	-0.993785	-0.201991	-0.419593
H31	H	-0.449985	-0.070804	-0.268223
C32	C	-0.544599	-0.354138	-0.311704
C33	C	-0.510966	-0.517048	-0.344554
C34	C	-0.538585	-0.598153	-0.510850
C35	C	-0.599837	-0.516349	-0.644295
C36	C	-0.633473	-0.353430	-0.611448
C37	C	-0.605854	-0.272325	-0.445152
H38	H	-0.465620	-0.577612	-0.245767
H39	H	-0.513684	-0.718757	-0.535165
H40	H	-0.620282	-0.576388	-0.767398
H41	H	-0.678819	-0.292865	-0.710236
H42	H	-0.630755	-0.151721	-0.420838
H43	H	-0.424261	-0.459614	-0.000018
C44	C	-0.442808	-0.049718	0.311645
C45	C	-0.348758	-0.033255	0.342910
C46	C	-0.321007	0.047971	0.509001
C47	C	-0.387306	0.112733	0.643828
C48	C	-0.481362	0.096271	0.612567
C49	C	-0.509112	0.015046	0.446476
H50	H	-0.299675	-0.081197	0.243099
H51	H	-0.251381	0.060156	0.532142
H52	H	-0.366763	0.172860	0.766779
H53	H	-0.530445	0.144213	0.712377
H54	H	-0.578739	0.002860	0.423335
C55	C	-0.574842	0.096854	-0.000019
C56	C	-0.521724	0.229679	-0.001746
C57	C	-0.565521	0.388993	-0.001940
C58	C	-0.662436	0.415482	-0.000406
C59	C	-0.715560	0.282653	0.001321
C60	C	-0.671763	0.123339	0.001515
H61	H	-0.449977	0.210074	-0.002882
H62	H	-0.526195	0.487322	-0.003219
H63	H	-0.694858	0.533416	-0.000549
H64	H	-0.787307	0.302258	0.002457
H65	H	-0.711089	0.025010	0.002793
H66	H	-0.537587	-0.333081	0.268494
