data_functionalizedCrystal
_audit_creation_method	'MofGen! by Chris Wilmer'
_symmetry_space_group_name_H-M	'P1'
_symmetry_Int_Tables_number	1
_symmetry_cell_setting	triclinic
loop_
_symmetry_equiv_pos_as_xyz
  x,y,z
_cell_length_a	8.597213
_cell_length_b	10.908878
_cell_length_c	7.681481
_cell_angle_alpha	85.682761
_cell_angle_beta	88.167023
_cell_angle_gamma	72.824408
loop_
_atom_site_label
_atom_site_type_symbol
_atom_site_fract_x
_atom_site_fract_y
_atom_site_fract_z
O1	O	1.977866	0.227423	-0.446484
O2	O	1.525514	0.236486	-0.377861
O3	O	1.811656	0.046530	-0.421263
O4	O	1.691724	0.417379	-0.403082
O5	O	1.846889	0.023095	-0.133749
O6	O	1.560747	0.213051	-0.090348
O7	O	2.013099	0.203988	-0.158970
Zn8	Zn	1.792517	0.204799	-0.079010
Zn9	Zn	1.746096	0.235675	-0.457822
O10	O	1.726958	0.393944	-0.115569
C11	C	1.486129	0.222490	-0.225457
C12	C	1.316287	0.215685	-0.199692
C13	C	1.840480	-0.012747	-0.279208
C14	C	1.873857	-0.154460	-0.284278
C15	C	1.752067	-0.206531	-0.265805
C16	C	1.786561	-0.352998	-0.271044
C17	C	2.052484	0.217985	-0.311378
C18	C	2.222325	0.224790	-0.337155
C19	C	1.698133	0.453221	-0.257627
C20	C	1.664754	0.594935	-0.252569
N21	N	1.824210	0.183726	0.179517
N22	N	1.714418	0.256738	-0.716351
H23	H	1.266788	0.202687	-0.062290
H24	H	1.271811	0.237802	-0.474547
H25	H	1.936300	0.109207	0.237721
C26	C	1.576701	-0.120279	-0.239204
C27	C	1.444010	-0.116640	-0.371152
C28	C	1.268640	-0.030391	-0.344552
C29	C	1.225959	0.052220	-0.186003
C30	C	1.358653	0.048584	-0.054044
C31	C	1.534024	-0.037666	-0.080644
H32	H	1.475602	-0.177796	-0.488529
H33	H	1.170411	-0.027699	-0.442238
H34	H	1.096139	0.116067	-0.166312
H35	H	1.327061	0.109740	0.063333
H36	H	1.632252	-0.040357	0.017042
H37	H	1.916377	-0.416848	-0.290732
C38	C	1.563001	0.357413	0.205040
C39	C	1.443408	0.314799	0.095958
C40	C	1.291989	0.415475	0.017337
C41	C	1.260163	0.558765	0.047798
C42	C	1.379759	0.601386	0.156886
C43	C	1.531178	0.500710	0.235507
H44	H	1.466965	0.208720	0.073403
H45	H	1.203456	0.383923	-0.063418
H46	H	1.148073	0.633292	-0.010401
H47	H	1.356202	0.707465	0.179441
H48	H	1.619711	0.532262	0.316262
H49	H	1.534940	-0.341219	-0.232859
C50	C	2.049225	-0.240708	-0.310884
C51	C	2.181917	-0.244346	-0.178940
C52	C	2.357289	-0.330592	-0.205547
C53	C	2.399968	-0.413199	-0.364098
C54	C	2.267272	-0.409564	-0.496054
C55	C	2.091900	-0.323319	-0.469447
H56	H	2.150327	-0.183193	-0.061560
H57	H	2.455519	-0.333282	-0.107863
H58	H	2.529789	-0.477043	-0.383794
H59	H	2.298863	-0.470718	-0.613433
H60	H	1.993670	-0.320628	-0.567130
