data_functionalizedCrystal
_audit_creation_method	'MofGen! by Chris Wilmer'
_symmetry_space_group_name_H-M	'P1'
_symmetry_Int_Tables_number	1
_symmetry_cell_setting	triclinic
loop_
_symmetry_equiv_pos_as_xyz
  x,y,z
_cell_length_a	13.596369
_cell_length_b	8.559649
_cell_length_c	8.559649
_cell_angle_alpha	69.778664
_cell_angle_beta	89.995606
_cell_angle_gamma	89.994773
loop_
_atom_site_label
_atom_site_type_symbol
_atom_site_fract_x
_atom_site_fract_y
_atom_site_fract_z
O1	O	0.081776	-2.126883	0.055032
O2	O	0.581776	-1.626883	0.555032
O3	O	0.081780	-1.651398	-0.028749
O4	O	0.581780	-1.151398	0.471251
O5	O	0.081777	-1.931031	0.250884
O6	O	0.581777	-1.431031	0.750884
O7	O	0.081779	-1.847250	-0.224601
O8	O	0.581779	-1.347250	0.275399
O9	O	-0.081806	-1.931008	0.250894
O10	O	0.418194	-1.431008	0.750894
O11	O	-0.081803	-1.651375	-0.028739
O12	O	0.418197	-1.151375	0.471261
O13	O	-0.081807	-2.126860	0.055043
O14	O	0.418193	-1.626860	0.555043
Zn15	Zn	-0.107777	-1.889113	0.013154
Zn16	Zn	0.392223	-1.389113	0.513154
Zn17	Zn	0.107750	-1.889144	0.013140
Zn18	Zn	0.607750	-1.389144	0.513140
O19	O	-0.081804	-1.847227	-0.224590
O20	O	0.418196	-1.347227	0.275410
C21	C	-0.000011	-1.591077	-0.035093
C22	C	0.499989	-1.091077	0.464907
C23	C	-0.000010	-1.411378	-0.053992
C24	C	0.499990	-0.911378	0.446008
C25	C	-0.000013	-1.937369	0.311198
C26	C	0.499987	-1.437369	0.811198
C27	C	-0.000008	-1.956268	0.490898
C28	C	0.499992	-1.456268	0.990898
N29	N	-0.254869	-1.889105	0.013165
N30	N	0.245131	-1.389105	0.513165
C31	C	-0.656160	-1.889142	0.013138
C32	C	-0.156160	-1.389142	0.513138
C33	C	-0.544509	-1.889126	0.013140
C34	C	-0.044509	-1.389126	0.513140
C35	C	-0.455518	-1.889124	0.013151
C36	C	0.044482	-1.389124	0.513151
C37	C	-0.343860	-1.889107	0.013154
C38	C	0.156140	-1.389107	0.513154
N39	N	0.254842	-1.889167	0.013143
N40	N	0.754842	-1.389167	0.513143
C41	C	-0.000014	-2.187180	0.061387
C42	C	0.499986	-1.687180	0.561387
C43	C	-0.000009	-2.366879	0.080286
C44	C	0.499991	-1.866879	0.580286
C45	C	-0.000012	-1.840889	-0.284904
C46	C	0.499988	-1.340889	0.215096
C47	C	-0.000011	-1.821990	-0.464604
C48	C	0.499989	-1.321990	0.035396
H49	H	-0.000005	-1.466258	0.209705
H50	H	0.499995	-0.966258	0.709705
H51	H	-0.000017	-2.085696	0.590286
H52	H	0.499983	-1.585696	1.090286
Br53	Br	0.000006	-1.245737	-0.269719
Br54	Br	0.500006	-0.745737	0.230281
Br55	Br	-0.000015	-1.606272	0.369763
Br56	Br	0.499985	-1.106272	0.869763
