data_functionalizedCrystal
_audit_creation_method	'MofGen! by Chris Wilmer'
_symmetry_space_group_name_H-M	'P1'
_symmetry_Int_Tables_number	1
_symmetry_cell_setting	triclinic
loop_
_symmetry_equiv_pos_as_xyz
  x,y,z
_cell_length_a	16.959455
_cell_length_b	18.050589
_cell_length_c	16.959447
_cell_angle_alpha	89.973357
_cell_angle_beta	89.979626
_cell_angle_gamma	90.025241
loop_
_atom_site_label
_atom_site_type_symbol
_atom_site_fract_x
_atom_site_fract_y
_atom_site_fract_z
Zn1	Zn	1.208339	-0.295704	-0.447057
Zn2	Zn	1.541672	0.037630	-0.113723
Zn3	Zn	1.875006	0.370963	0.219610
Zn4	Zn	1.208243	-0.419905	-0.314886
Zn5	Zn	1.541576	-0.086572	0.018447
Zn6	Zn	1.874909	0.246761	0.351780
Zn7	Zn	1.076168	-0.295727	-0.314880
Zn8	Zn	1.409501	0.037606	0.018453
Zn9	Zn	1.742834	0.370939	0.351787
Zn10	Zn	1.076113	-0.419850	-0.447011
Zn11	Zn	1.409447	-0.086517	-0.113678
Zn12	Zn	1.742780	0.246817	0.219656
O13	O	1.142216	-0.357797	-0.380959
O14	O	1.475549	-0.024463	-0.047625
O15	O	1.808882	0.308870	0.285708
O16	O	1.318937	-0.312193	-0.429546
O17	O	1.652271	0.021141	-0.096212
O18	O	1.985604	0.354474	0.237121
O19	O	1.190705	-0.403466	-0.204275
O20	O	1.524038	-0.070133	0.129059
O21	O	1.857372	0.263201	0.462392
O22	O	1.093763	-0.191800	-0.332430
O23	O	1.427097	0.141534	0.000903
O24	O	1.760430	0.474867	0.334237
O25	O	1.318866	-0.403443	-0.332441
O26	O	1.652200	-0.070110	0.000893
O27	O	1.985533	0.263224	0.334226
O28	O	1.190869	-0.191782	-0.429539
O29	O	1.524203	0.141551	-0.096206
O30	O	1.857536	0.474884	0.237127
O31	O	1.093670	-0.312233	-0.204270
O32	O	1.427003	0.021101	0.129063
O33	O	1.760337	0.354434	0.462397
O34	O	0.965549	-0.312179	-0.332386
O35	O	1.298883	0.021154	0.000948
O36	O	1.632216	0.354488	0.334281
O37	O	1.093671	-0.403349	-0.557628
O38	O	1.427004	-0.070015	-0.224295
O39	O	1.760338	0.263318	0.109039
O40	O	0.965510	-0.403372	-0.429462
O41	O	1.298843	-0.070038	-0.096129
O42	O	1.632176	0.263295	0.237205
O43	O	1.190817	-0.312139	-0.557661
O44	O	1.524150	0.021194	-0.224328
O45	O	1.857483	0.354528	0.109005
O46	O	1.190653	-0.523823	-0.332397
O47	O	1.523986	-0.190489	0.000937
O48	O	1.857319	0.142844	0.334270
O49	O	1.093578	-0.523782	-0.429468
O50	O	1.426911	-0.190449	-0.096135
O51	O	1.760244	0.142885	0.237199
C52	C	0.936849	-0.357772	-0.380919
C53	C	1.270183	-0.024439	-0.047585
C54	C	1.603516	0.308894	0.285748
C55	C	0.848993	-0.357780	-0.380920
C56	C	1.182326	-0.024447	-0.047587
C57	C	1.515659	0.308887	0.285746
C58	C	0.477470	-0.405264	-0.330370
C59	C	0.810803	-0.071930	0.002963
C60	C	1.144136	0.261403	0.336296
C61	C	0.477565	-0.310391	-0.431643
C62	C	0.810898	0.022942	-0.098310
C63	C	1.144231	0.356275	0.235024
C64	C	0.560111	-0.310379	-0.431624
C65	C	0.893444	0.022954	-0.098290
C66	C	1.226777	0.356288	0.235043
C67	C	0.601340	-0.357811	-0.380978
C68	C	0.934673	-0.024477	-0.047645
C69	C	1.268007	0.308856	0.285689
C70	C	0.560023	-0.405254	-0.330351
C71	C	0.893357	-0.071921	0.002982
C72	C	1.226690	0.261412	0.336316
C73	C	0.601433	-0.262941	-0.482255
C74	C	0.934767	0.070392	-0.148922
C75	C	1.268100	0.403725	0.184411
C76	C	0.683984	-0.262928	-0.482239
C77	C	1.017318	0.070405	-0.148905
C78	C	1.350651	0.403739	0.184428
C79	C	0.725215	-0.310356	-0.431588
C80	C	1.058548	0.022977	-0.098255
C81	C	1.391882	0.356310	0.235079
C82	C	0.683893	-0.357801	-0.380959
C83	C	1.017227	-0.024468	-0.047625
C84	C	1.350560	0.308865	0.285708
C85	C	0.725123	-0.405233	-0.330313
C86	C	1.058456	-0.071900	0.003021
C87	C	1.391789	0.261434	0.336354
C88	C	0.683803	-0.452675	-0.279679
C89	C	1.017136	-0.119342	0.053654
C90	C	1.350469	0.213992	0.386988
C91	C	0.601254	-0.452683	-0.279701
C92	C	0.934587	-0.119349	0.053633
C93	C	1.267921	0.213984	0.386966
C94	C	0.807764	-0.310348	-0.431566
C95	C	1.141097	0.022985	-0.098233
C96	C	1.474430	0.356318	0.235100
C97	C	0.807676	-0.405224	-0.330294
C98	C	1.141010	-0.071890	0.003040
C99	C	1.474343	0.261443	0.336373
C100	C	1.142120	-0.550749	-0.380945
C101	C	1.475454	-0.217415	-0.047612
C102	C	1.808787	0.115918	0.285721
C103	C	1.142152	-0.633295	-0.380966
C104	C	1.475485	-0.299961	-0.047633
C105	C	1.808818	0.033372	0.285700
C106	C	1.089414	-0.832750	-0.433735
C107	C	1.422748	-0.499417	-0.100402
C108	C	1.756081	-0.166083	0.232931
C109	C	1.070151	-0.882193	-0.361606
C110	C	1.403485	-0.548860	-0.028273
C111	C	1.736818	-0.215526	0.305060
C112	C	1.142229	-0.784425	-0.380977
C113	C	1.475563	-0.451092	-0.047643
C114	C	1.808896	-0.117758	0.285690
C115	C	1.161531	-0.882064	-0.453114
C116	C	1.494864	-0.548730	-0.119780
C117	C	1.828198	-0.215397	0.213553
C118	C	1.142303	-0.930410	-0.380993
C119	C	1.475636	-0.597077	-0.047660
C120	C	1.808970	-0.263743	0.285674
C121	C	1.122929	-0.832781	-0.308809
C122	C	1.456262	-0.499447	0.024524
C123	C	1.789595	-0.166114	0.357857
C124	C	1.214342	-0.832647	-0.400366
C125	C	1.547675	-0.499313	-0.067032
C126	C	1.881009	-0.165980	0.266301
C127	C	1.195106	-0.882068	-0.328187
C128	C	1.528440	-0.548734	0.005146
C129	C	1.861773	-0.215401	0.338480
C130	C	1.142185	-0.700327	-0.380968
C131	C	1.475518	-0.366993	-0.047635
C132	C	1.808852	-0.033660	0.285698
C133	C	1.142347	-1.014506	-0.380993
C134	C	1.475681	-0.681173	-0.047660
C135	C	1.809014	-0.347840	0.285674
C136	C	1.348384	-0.357821	-0.380999
C137	C	1.681717	-0.024488	-0.047666
C138	C	2.015051	0.308845	0.285668
C139	C	1.436240	-0.357832	-0.381016
C140	C	1.769574	-0.024499	-0.047683
C141	C	2.102907	0.308835	0.285650
C142	C	1.142249	-0.357735	-0.587127
C143	C	1.475582	-0.024402	-0.253793
C144	C	1.808915	0.308932	0.079540
C145	C	1.142263	-0.357709	-0.674983
C146	C	1.475596	-0.024376	-0.341650
C147	C	1.808929	0.308958	-0.008317
C148	C	1.142333	-0.164091	-0.380989
C149	C	1.475666	0.169242	-0.047656
C150	C	1.809000	0.502576	0.285678
C151	C	1.142383	-0.081545	-0.381002
C152	C	1.475716	0.251788	-0.047669
C153	C	1.809050	0.585121	0.285665
C154	C	1.091778	-0.405119	-1.046444
C155	C	1.425111	-0.071786	-0.713111
C156	C	1.758444	0.261547	-0.379778
C157	C	1.192936	-0.310142	-1.046474
C158	C	1.526270	0.023191	-0.713141
C159	C	1.859603	0.356525	-0.379808
C160	C	1.192915	-0.310158	-0.963928
C161	C	1.526249	0.023176	-0.630595
C162	C	1.859582	0.356509	-0.297262
C163	C	1.142326	-0.357656	-0.922637
C164	C	1.475659	-0.024322	-0.589303
C165	C	1.808992	0.309011	-0.255970
C166	C	1.091757	-0.405138	-0.963891
C167	C	1.425090	-0.071805	-0.630557
C168	C	1.758423	0.261529	-0.297224
C169	C	1.243489	-0.262682	-0.922668
C170	C	1.576822	0.070652	-0.589335
C171	C	1.910156	0.403985	-0.256001
C172	C	1.243470	-0.262696	-0.840117
C173	C	1.576804	0.070637	-0.506784
C174	C	1.910137	0.403971	-0.173450
C175	C	1.192876	-0.310191	-0.798824
C176	C	1.526209	0.023142	-0.465490
C177	C	1.859543	0.356476	-0.132157
C178	C	1.142305	-0.357674	-0.840083
C179	C	1.475638	-0.024341	-0.506750
C180	C	1.808971	0.308992	-0.173416
C181	C	1.091715	-0.405173	-0.798791
C182	C	1.425048	-0.071839	-0.465458
C183	C	1.758381	0.261494	-0.132125
C184	C	1.041139	-0.452653	-0.840049
C185	C	1.374472	-0.119320	-0.506716
C186	C	1.707805	0.214014	-0.173382
C187	C	1.041162	-0.452633	-0.922598
C188	C	1.374496	-0.119300	-0.589264
C189	C	1.707829	0.214034	-0.255931
C190	C	1.192852	-0.310211	-0.716275
C191	C	1.526186	0.023122	-0.382942
C192	C	1.859519	0.356456	-0.049609
C193	C	1.091694	-0.405191	-0.716238
C194	C	1.425027	-0.071858	-0.382904
C195	C	1.758361	0.261475	-0.049571
C196	C	1.142228	-0.357804	-0.175592
C197	C	1.475562	-0.024471	0.157741
C198	C	1.808895	0.308862	0.491074
C199	C	1.142368	-0.357621	-0.087736
C200	C	1.475701	-0.024288	0.245597
C201	C	1.809034	0.309045	0.578931
H202	H	0.443823	-0.443888	-0.289143
H203	H	0.777157	-0.110554	0.044190
H204	H	1.110490	0.222779	0.377524
H205	H	0.717382	-0.491298	-0.238447
H206	H	1.050715	-0.157964	0.094886
H207	H	1.384049	0.175369	0.428220
F208	F	1.037844	-0.455743	-0.672298
F209	F	1.371177	-0.122409	-0.338965
F210	F	1.704511	0.210924	-0.005632
F211	F	0.433684	-0.259921	-0.485548
F212	F	0.767017	0.073412	-0.152215
F213	F	1.100350	0.406745	0.181119
H214	H	0.567604	-0.491307	-0.238477
H215	H	0.900937	-0.157974	0.094856
H216	H	1.234270	0.175360	0.428190
F217	F	0.987344	-0.503163	-0.966512
F218	F	1.320677	-0.169830	-0.633179
F219	F	1.654010	0.163504	-0.299845
H220	H	0.999952	-0.491329	-0.806419
H221	H	1.333285	-0.157996	-0.473085
H222	H	1.666619	0.175337	-0.139752
F223	F	0.851549	-0.455704	-0.276384
F224	F	1.184882	-0.122371	0.056949
F225	F	1.518216	0.210962	0.390283
H226	H	0.841403	-0.271723	-0.472793
H227	H	1.174736	0.061610	-0.139460
H228	H	1.508069	0.394943	0.193873
F229	F	0.990483	-0.910637	-0.340172
F230	F	1.323816	-0.577304	-0.006838
F231	F	1.657150	-0.243971	0.326495
H232	H	1.106562	-0.811222	-0.247793
H233	H	1.439895	-0.477889	0.085540
H234	H	1.773229	-0.144555	0.418873
F235	F	1.253529	-0.910194	-0.269815
F236	F	1.586862	-0.576860	0.063519
F237	F	1.920195	-0.243527	0.396852
F238	F	1.182831	-0.910362	-0.532843
F239	F	1.516164	-0.577029	-0.199509
F240	F	1.849498	-0.243696	0.133824
F241	F	0.557551	-0.212474	-0.536161
F242	F	0.890884	0.120860	-0.202828
F243	F	1.224217	0.454193	0.130505
F244	F	1.297295	-0.212162	-0.796215
F245	F	1.630629	0.121171	-0.462881
F246	F	1.963962	0.454504	-0.129548
F247	F	1.293989	-0.804180	-0.421826
F248	F	1.627322	-0.470847	-0.088493
F249	F	1.960655	-0.137513	0.244841
H250	H	1.284681	-0.224016	-0.956294
H251	H	1.618014	0.109317	-0.622960
H252	H	1.951348	0.442651	-0.289627
F253	F	1.037952	-0.455647	-1.090353
F254	F	1.371285	-0.122313	-0.757020
F255	F	1.704618	0.211020	-0.423686
H256	H	0.717620	-0.224297	-0.523467
H257	H	1.050954	0.109036	-0.190134
H258	H	1.384287	0.442369	0.143199
F259	F	1.030952	-0.804443	-0.491970
F260	F	1.364285	-0.471110	-0.158637
F261	F	1.697619	-0.137777	0.174696
F262	F	1.246780	-0.259599	-1.090422
F263	F	1.580113	0.073734	-0.757088
F264	F	1.913446	0.407067	-0.423755
H265	H	1.234033	-0.271555	-0.682687
H266	H	1.567366	0.061778	-0.349353
H267	H	1.900699	0.395112	-0.016020
