data_functionalizedCrystal
_audit_creation_method	'MofGen! by Chris Wilmer'
_symmetry_space_group_name_H-M	'P1'
_symmetry_Int_Tables_number	1
_symmetry_cell_setting	triclinic
loop_
_symmetry_equiv_pos_as_xyz
  x,y,z
_cell_length_a	13.033286
_cell_length_b	21.295417
_cell_length_c	13.032268
_cell_angle_alpha	82.858212
_cell_angle_beta	74.836591
_cell_angle_gamma	82.860374
loop_
_atom_site_label
_atom_site_type_symbol
_atom_site_fract_x
_atom_site_fract_y
_atom_site_fract_z
Zn1	Zn	1.547332	-0.398975	0.393858
Zn2	Zn	1.569755	-0.492381	0.216251
Zn3	Zn	1.392290	-0.375297	0.238870
Zn4	Zn	1.369669	-0.492357	0.416405
O5	O	1.469762	-0.439753	0.316346
O6	O	1.698929	-0.421285	0.351395
O7	O	1.565065	-0.466951	0.070623
O8	O	1.412940	-0.290357	0.259459
O9	O	1.715402	-0.489910	0.220908
O10	O	1.526849	-0.307753	0.373328
O11	O	1.434682	-0.380930	0.087241
O12	O	1.240668	-0.380906	0.281322
O13	O	1.374386	-0.489868	0.562042
O14	O	1.224048	-0.466909	0.411756
O15	O	1.504914	-0.421261	0.545476
O16	O	1.543130	-0.580459	0.242771
O17	O	1.396128	-0.580441	0.389824
C18	C	1.193822	-0.421336	0.351441
C19	C	1.075770	-0.413474	0.366480
C20	C	1.031303	-0.443858	0.308523
C21	C	0.909291	-0.435733	0.324065
C22	C	1.469633	-0.603292	0.316309
C23	C	1.469671	-0.673263	0.316317
C24	C	1.528938	-0.715131	0.375662
C25	C	1.528972	-0.780878	0.375683
C26	C	1.469753	-0.804754	0.316339
C27	C	1.410473	-0.762876	0.256991
C28	C	1.410432	-0.697131	0.256980
N29	N	1.473542	-0.901277	0.224406
N30	N	1.473586	-0.963733	0.224419
C31	C	1.469871	-1.002840	0.316371
N32	N	1.466129	-0.977133	0.408310
N33	N	1.466090	-0.914671	0.408295
C34	C	1.469790	-0.876042	0.316345
C35	C	1.529178	-1.115999	0.375745
C36	C	1.529204	-1.181746	0.375769
C37	C	1.410712	-1.163743	0.257067
C38	C	1.410679	-1.097997	0.257053
C39	C	1.469917	-1.074129	0.316390
C40	C	1.746779	-0.458242	0.281114
C41	C	1.864827	-0.466120	0.266100
C42	C	1.434625	-0.458203	0.593374
C43	C	1.419652	-0.466066	0.711427
C44	C	1.469917	-0.275578	0.316402
C45	C	1.469983	-0.205617	0.316426
C46	C	1.504822	-0.421333	0.040387
C47	C	1.520001	-0.413306	-0.077692
C48	C	1.477560	-0.435625	0.755863
C49	C	1.462086	-0.443751	0.877877
H50	H	1.577171	-0.695700	0.423980
Cl51	Cl	1.614254	-0.363788	0.841594
Cl52	Cl	1.603493	-0.833522	0.450286
Cl53	Cl	1.571766	-0.386082	0.675147
H54	H	1.083562	-0.475887	0.247401
H55	H	0.917081	-0.498156	0.204978
Cl56	Cl	1.325414	-0.515587	0.792147
Cl57	Cl	1.336167	-1.045360	0.182443
Cl58	Cl	1.336018	-0.792890	0.182395
H59	H	1.362169	-0.663040	0.208653
H60	H	0.857035	-0.403705	0.385199
Cl61	Cl	1.367843	-0.493275	0.958593
H62	H	1.023511	-0.381449	0.427610
H63	H	1.577410	-1.096565	0.424064
Cl64	Cl	1.603704	-1.234382	0.450396
Cl65	Cl	1.336260	-1.193752	0.182465
