data_functionalizedCrystal
_audit_creation_method	'MofGen! by Chris Wilmer'
_symmetry_space_group_name_H-M	'P1'
_symmetry_Int_Tables_number	1
_symmetry_cell_setting	triclinic
loop_
_symmetry_equiv_pos_as_xyz
  x,y,z
_cell_length_a	18.215407
_cell_length_b	18.050589
_cell_length_c	18.215399
_cell_angle_alpha	89.976397
_cell_angle_beta	89.980167
_cell_angle_gamma	90.028669
loop_
_atom_site_label
_atom_site_type_symbol
_atom_site_fract_x
_atom_site_fract_y
_atom_site_fract_z
Zn1	Zn	1.125055	-0.295658	-0.416138
Zn2	Zn	1.124956	-0.419853	-0.293081
Zn3	Zn	1.001987	-0.295682	-0.293085
Zn4	Zn	1.001946	-0.419812	-0.416106
O5	O	1.063486	-0.357751	-0.354603
O6	O	1.228026	-0.312140	-0.399826
O7	O	1.108620	-0.403409	-0.190097
O8	O	1.018371	-0.191755	-0.309424
O9	O	1.227953	-0.403386	-0.309417
O10	O	1.108788	-0.191737	-0.399830
O11	O	1.018275	-0.312181	-0.190101
O12	O	0.898998	-0.312141	-0.309393
O13	O	1.018301	-0.403315	-0.519095
O14	O	0.898967	-0.403339	-0.399775
O15	O	1.108748	-0.312100	-0.519118
O16	O	1.108580	-0.523772	-0.309385
O17	O	1.018205	-0.523742	-0.399771
C18	C	0.872280	-0.357739	-0.354582
C19	C	0.790481	-0.357751	-0.354590
C20	C	1.063397	-0.550704	-0.354590
C21	C	1.063427	-0.633249	-0.354610
C22	C	0.602291	-0.405312	-0.401593
C23	C	0.525432	-0.405315	-0.401602
C24	C	0.525434	-0.310204	-0.307628
C25	C	0.602291	-0.310199	-0.307623
C26	C	0.640718	-0.357757	-0.354605
C27	C	0.487001	-0.357765	-0.354619
C28	C	0.403668	-0.357767	-0.354628
C29	C	0.724056	-0.357754	-0.354596
C30	C	1.014329	-0.832710	-0.403744
C31	C	0.996389	-0.882151	-0.336590
C32	C	1.063499	-0.784380	-0.354619
C33	C	1.081475	-0.882021	-0.421781
C34	C	1.063567	-0.930365	-0.354635
C35	C	1.045524	-0.832733	-0.287430
C36	C	1.130641	-0.832599	-0.372666
C37	C	1.112726	-0.882017	-0.305466
C38	C	1.063458	-0.700281	-0.354612
C39	C	1.063609	-1.014461	-0.354635
C40	C	1.255439	-0.357765	-0.354624
C41	C	1.337238	-0.357770	-0.354634
C42	C	1.063531	-0.357700	-0.546556
C43	C	1.063550	-0.357678	-0.628355
C44	C	1.063595	-0.164046	-0.354631
C45	C	1.063642	-0.081500	-0.354643
C46	C	1.110663	-0.310138	-0.816562
C47	C	1.110672	-0.310117	-0.893421
C48	C	1.016489	-0.405104	-0.893385
C49	C	1.016477	-0.405121	-0.816528
C50	C	1.063568	-0.357639	-0.778118
C51	C	1.063589	-0.357600	-0.931834
C52	C	1.063598	-0.357577	-1.015168
C53	C	1.063558	-0.357661	-0.694779
C54	C	1.063484	-0.357749	-0.163396
C55	C	1.063607	-0.357561	-0.081598
H56	H	0.633575	-0.444035	-0.439850
C57	C	1.168898	-0.988638	-0.250215
C58	C	1.168898	-0.911070	-0.249332
H59	H	1.203577	-1.006574	-0.215561
H60	H	1.121375	-1.006347	-0.237806
H61	H	1.181756	-1.005596	-0.297875
H62	H	1.156034	-0.894112	-0.201673
H63	H	1.216431	-0.893353	-0.261737
H64	H	1.149020	-0.271435	-0.924718
H65	H	0.978151	-0.443763	-0.924667
C66	C	1.225909	-0.828020	-0.463678
C67	C	1.207228	-0.803186	-0.393296
H68	H	1.273189	-0.809856	-0.476420
H69	H	1.226383	-0.880634	-0.464272
H70	H	1.190828	-0.810400	-0.498075
H71	H	1.242306	-0.820811	-0.358897
H72	H	1.206759	-0.750562	-0.392696
H73	H	1.096652	-0.903671	-0.478573
H74	H	0.494138	-0.271485	-0.269377
C75	C	0.533155	-0.499333	-0.494482
C76	C	0.483193	-0.457592	-0.453251
H77	H	0.507077	-0.531610	-0.526366
H78	H	0.563157	-0.467011	-0.522683
H79	H	0.563107	-0.527694	-0.462359
H80	H	0.453245	-0.429227	-0.485374
H81	H	0.453178	-0.489918	-0.425048
C82	C	0.923386	-0.499021	-0.824206
C83	C	0.964710	-0.457342	-0.774264
H84	H	0.891432	-0.531260	-0.798113
H85	H	0.895257	-0.466659	-0.854182
H86	H	0.955447	-0.527422	-0.854186
H87	H	0.932649	-0.428937	-0.744288
H88	H	0.992841	-0.489708	-0.744276
C89	C	0.594579	-0.216188	-0.214724
C90	C	0.644536	-0.257924	-0.255967
H91	H	0.620661	-0.183921	-0.182834
H92	H	0.564629	-0.187823	-0.246835
H93	H	0.564575	-0.248519	-0.186523
H94	H	0.674537	-0.225593	-0.284172
H95	H	0.674499	-0.286291	-0.223852
C96	C	0.887877	-0.828493	-0.440673
C97	C	0.958118	-0.803474	-0.459746
H98	H	0.853175	-0.810438	-0.475241
H99	H	0.887209	-0.881109	-0.440756
H100	H	0.875607	-0.810888	-0.393088
H101	H	0.970390	-0.821084	-0.507329
H102	H	0.958788	-0.750847	-0.459671
H103	H	0.939642	-0.903933	-0.321340
H104	H	1.030282	-0.811172	-0.230622
C105	C	1.203752	-0.216239	-0.824320
C106	C	1.162417	-0.257940	-0.774342
H107	H	1.235698	-0.184009	-0.798255
H108	H	1.231890	-0.248589	-0.854294
H109	H	1.171697	-0.187829	-0.854298
H110	H	1.194472	-0.286355	-0.744367
H111	H	1.134277	-0.225586	-0.744355
