data_functionalizedCrystal
_audit_creation_method	'MofGen! by Chris Wilmer'
_symmetry_space_group_name_H-M	'P1'
_symmetry_Int_Tables_number	1
_symmetry_cell_setting	triclinic
loop_
_symmetry_equiv_pos_as_xyz
  x,y,z
_cell_length_a	12.827893
_cell_length_b	12.827892
_cell_length_c	11.169409
_cell_angle_alpha	89.966914
_cell_angle_beta	89.978812
_cell_angle_gamma	90.015553
loop_
_atom_site_label
_atom_site_type_symbol
_atom_site_fract_x
_atom_site_fract_y
_atom_site_fract_z
Zn1	Zn	1.597689	-0.415944	-0.678580
Zn2	Zn	1.931023	-0.082611	-0.345247
Zn3	Zn	2.264356	0.250723	-0.011913
Zn4	Zn	1.597578	-0.590731	-0.477894
Zn5	Zn	1.930911	-0.257398	-0.144561
Zn6	Zn	2.264244	0.075935	0.188772
Zn7	Zn	1.422925	-0.416005	-0.477910
Zn8	Zn	1.756258	-0.082672	-0.144576
Zn9	Zn	2.089592	0.250661	0.188757
Zn10	Zn	1.422916	-0.590644	-0.678535
Zn11	Zn	1.756249	-0.257311	-0.345201
Zn12	Zn	2.089583	0.076023	-0.011868
O13	O	1.510277	-0.503331	-0.578230
O14	O	1.843610	-0.169998	-0.244896
O15	O	2.176944	0.163335	0.088437
O16	O	1.743911	-0.439141	-0.651971
O17	O	2.077244	-0.105807	-0.318638
O18	O	2.410577	0.227526	0.014695
O19	O	1.574367	-0.567616	-0.309947
O20	O	1.907700	-0.234283	0.023387
O21	O	2.241033	0.099051	0.356720
O22	O	1.446158	-0.269761	-0.504555
O23	O	1.779492	0.063572	-0.171221
O24	O	2.112825	0.396905	0.162112
O25	O	1.743828	-0.567556	-0.504529
O26	O	2.077162	-0.234223	-0.171195
O27	O	2.410495	0.099110	0.162138
O28	O	1.574557	-0.269716	-0.651986
O29	O	1.907890	0.063617	-0.318653
O30	O	2.241224	0.396951	0.014680
O31	O	1.446050	-0.439245	-0.309958
O32	O	1.779383	-0.105912	0.023375
O33	O	2.112717	0.227421	0.356709
O34	O	1.276688	-0.439161	-0.504510
O35	O	1.610021	-0.105828	-0.171177
O36	O	1.943354	0.227506	0.162156
O37	O	1.446143	-0.567407	-0.846490
O38	O	1.779476	-0.234074	-0.513157
O39	O	2.112810	0.099259	-0.179824
O40	O	1.276681	-0.567467	-0.651909
O41	O	1.610015	-0.234134	-0.318575
O42	O	1.943348	0.099200	0.014758
O43	O	1.574548	-0.439056	-0.846524
O44	O	1.907882	-0.105723	-0.513191
O45	O	2.241215	0.227611	-0.179857
O46	O	1.574358	-0.736956	-0.504484
O47	O	1.907691	-0.403622	-0.171151
O48	O	2.241025	-0.070289	0.162182
O49	O	1.446035	-0.736892	-0.651894
O50	O	1.779368	-0.403558	-0.318560
O51	O	2.112701	-0.070225	0.014773
C52	C	1.238767	-0.503312	-0.578207
C53	C	1.572100	-0.169979	-0.244874
C54	C	1.905434	0.163355	0.088460
C55	C	1.122614	-0.503329	-0.578226
C56	C	1.455947	-0.169996	-0.244892
C57	C	1.789281	0.163338	0.088441
C58	C	1.070870	-0.439897	-0.651299
C59	C	1.404203	-0.106564	-0.317965
C60	C	1.737536	0.226769	0.015368
C61	C	0.950819	-0.439913	-0.651320
C62	C	1.284153	-0.106580	-0.317986
C63	C	1.617486	0.226753	0.015347
C64	C	1.510212	-0.774841	-0.578209
C65	C	1.843545	-0.441508	-0.244875
C66	C	2.176878	-0.108174	0.088458
C67	C	1.510279	-0.890994	-0.578240
C68	C	1.843613	-0.557661	-0.244906
C69	C	2.176946	-0.224328	0.088427
C70	C	1.573853	-0.942776	-0.505378
C71	C	1.907186	-0.609443	-0.172044
C72	C	2.240520	-0.276109	0.161289
C73	C	1.573924	-1.062826	-0.505408
C74	C	1.907258	-0.729493	-0.172075
C75	C	2.240591	-0.396160	0.161258
C76	C	1.782847	-0.503351	-0.578253
C77	C	2.116180	-0.170018	-0.244920
C78	C	2.449514	0.163315	0.088413
C79	C	1.899000	-0.503360	-0.578263
C80	C	2.232334	-0.170026	-0.244930
C81	C	2.565667	0.163307	0.088403
C82	C	1.510357	-0.503215	-0.891272
C83	C	1.843691	-0.169882	-0.557939
C84	C	2.177024	0.163452	-0.224606
C85	C	1.510391	-0.503166	-1.024672
C86	C	1.843725	-0.169832	-0.691339
C87	C	2.177058	0.163501	-0.358006
C88	C	1.510371	-0.230761	-0.578277
C89	C	1.843704	0.102572	-0.244944
C90	C	2.177038	0.435906	0.088389
C91	C	1.510411	-0.114608	-0.578298
C92	C	1.843745	0.218725	-0.244964
C93	C	2.177078	0.552059	0.088369
C94	C	1.510257	-0.503371	-0.266405
C95	C	1.843591	-0.170038	0.066928
C96	C	2.176924	0.163295	0.400262
C97	C	1.510425	-0.503126	-0.133006
C98	C	1.843759	-0.169793	0.200328
C99	C	2.177092	0.163540	0.533661
H100	H	1.115446	-0.385576	-0.713839
H101	H	1.448780	-0.052243	-0.380506
H102	H	1.782113	0.281091	-0.047173
H103	H	1.628233	-0.898234	-0.442979
H104	H	1.961566	-0.564901	-0.109646
H105	H	2.294899	-0.231567	0.223688
H106	H	1.628349	-1.107358	-0.443025
H107	H	1.961683	-0.774024	-0.109692
H108	H	2.295016	-0.440691	0.223641
C109	C	0.890713	-0.366547	-0.735836
C110	C	1.224047	-0.033214	-0.402503
C111	C	1.557380	0.300119	-0.069170
H112	H	0.817911	-0.376178	-0.724757
H113	H	1.151245	-0.042844	-0.391424
H114	H	1.484578	0.290489	-0.058091
H115	H	0.908585	-0.381898	-0.816461
H116	H	1.241918	-0.048564	-0.483128
H117	H	1.575251	0.284769	-0.149795
H118	H	0.908550	-0.296294	-0.718414
H119	H	1.241884	0.037039	-0.385081
H120	H	1.575217	0.370372	-0.051747
C121	C	0.959095	-0.576735	-0.493746
C122	C	1.292428	-0.243401	-0.160412
C123	C	1.625761	0.089932	0.172921
H124	H	0.911010	-0.616548	-0.447921
H125	H	1.244344	-0.283215	-0.114588
H126	H	1.577677	0.050119	0.218745
H127	H	1.001660	-0.536670	-0.441568
H128	H	1.334994	-0.203337	-0.108234
H129	H	1.668327	0.129996	0.225099
H130	H	1.001682	-0.622272	-0.539617
H131	H	1.335016	-0.288939	-0.206284
H132	H	1.668349	0.044395	0.127050
C133	C	1.436878	-1.054470	-0.662578
C134	C	1.770211	-0.721137	-0.329245
C135	C	2.103544	-0.387803	0.004089
H136	H	1.397036	-1.102531	-0.708306
H137	H	1.730369	-0.769198	-0.374973
H138	H	2.063702	-0.435864	-0.041640
H139	H	1.476842	-1.011818	-0.714854
H140	H	1.810176	-0.678485	-0.381521
H141	H	2.143509	-0.345152	-0.048188
H142	H	1.391373	-1.011965	-0.616559
H143	H	1.724707	-0.678632	-0.283226
H144	H	2.058040	-0.345298	0.050107
H145	H	1.078037	-0.557644	-0.515678
H146	H	1.411371	-0.224311	-0.182345
H147	H	1.744704	0.109022	0.150989
H148	H	1.455909	-0.935539	-0.640647
H149	H	1.789242	-0.602205	-0.307313
H150	H	2.122575	-0.268872	0.026020
