data_functionalizedCrystal
_audit_creation_method	'MofGen! by Chris Wilmer'
_symmetry_space_group_name_H-M	'P1'
_symmetry_Int_Tables_number	1
_symmetry_cell_setting	triclinic
loop_
_symmetry_equiv_pos_as_xyz
  x,y,z
_cell_length_a	23.096457
_cell_length_b	21.606444
_cell_length_c	21.606444
_cell_angle_alpha	90.000308
_cell_angle_beta	60.001496
_cell_angle_gamma	60.003762
loop_
_atom_site_label
_atom_site_type_symbol
_atom_site_fract_x
_atom_site_fract_y
_atom_site_fract_z
Zr1	Zr	0.633750	-0.081212	0.596238
O2	O	0.754528	-0.180026	0.497419
O3	O	0.512966	-0.050924	0.626530
O4	O	0.633747	-0.180036	0.626533
O5	O	0.633751	0.050935	0.497416
O6	O	0.633751	-0.180040	0.728383
O7	O	0.633747	-0.050914	0.497416
O8	O	0.417697	0.050917	0.728377
O9	O	0.849806	-0.180022	0.497422
O10	O	0.562652	-0.038005	0.715460
O11	O	0.562652	0.038007	0.639451
O12	O	0.704855	-0.114005	0.639455
O13	O	0.704855	-0.037993	0.563446
Zr14	Zr	0.633763	0.081220	0.758677
Zr15	Zr	0.633756	-0.081218	0.758677
Zr16	Zr	0.633756	0.081226	0.596238
Zr17	Zr	0.785707	-0.081205	0.596243
Zr18	Zr	0.481806	0.081214	0.758673
O19	O	0.754546	0.050933	0.728386
O20	O	0.754537	-0.180034	0.728386
O21	O	0.754537	0.050941	0.497419
O22	O	0.512985	0.180034	0.857496
O23	O	0.512976	-0.050933	0.857496
O24	O	0.512976	0.180042	0.626529
O25	O	0.633762	-0.050927	0.857500
O26	O	0.633766	0.180044	0.728382
O27	O	0.633762	0.180048	0.626532
O28	O	0.633766	0.050922	0.857499
O29	O	0.849811	-0.180026	0.626539
O30	O	0.417702	0.180034	0.728376
O31	O	0.417707	0.180030	0.857493
O32	O	0.417702	0.050913	0.857494
O33	O	0.849811	-0.050905	0.497422
O34	O	0.849816	-0.050909	0.626539
O35	O	0.562658	0.114013	0.715460
O36	O	0.562658	0.038001	0.791470
O37	O	0.704861	-0.037999	0.715464
O38	O	0.704861	0.038013	0.639455
C39	C	0.443681	-0.000005	0.677452
C40	C	0.379171	-0.000007	0.677451
C41	C	0.633748	0.000011	0.474272
C42	C	0.633745	0.000014	0.405312
C43	C	0.633765	0.203190	0.677457
C44	C	0.633767	0.272149	0.677457
C45	C	0.348870	-0.039688	0.717122
C46	C	0.288248	-0.039682	0.717129
C47	C	0.257940	-0.000005	0.677451
C48	C	0.288245	0.039684	0.637778
C49	C	0.348861	0.039683	0.637778
N50	N	0.195542	-0.005505	0.612882
N51	N	0.137961	-0.005508	0.612883
C52	C	0.075308	0.000002	0.677450
N53	N	0.072419	0.005500	0.742014
N54	N	0.130008	0.005499	0.742011
C55	C	0.192213	0.000001	0.677447
C56	C	-0.020727	-0.039674	0.717133
C57	C	-0.081354	-0.039662	0.717142
C58	C	-0.081349	0.039698	0.637784
C59	C	-0.020729	0.039691	0.637782
C60	C	0.009581	0.000001	0.677454
C61	C	0.823832	0.000013	0.677463
C62	C	0.888342	0.000016	0.677465
C63	C	0.633748	-0.203182	0.677458
C64	C	0.633745	-0.272141	0.677458
C65	C	0.707996	0.264877	0.637785
C66	C	0.707993	0.329675	0.637781
C67	C	0.633762	0.401743	0.677455
C68	C	0.559528	0.409014	0.717129
C69	C	0.559531	0.344217	0.717128
C70	C	0.559514	0.670332	0.717135
C71	C	0.559516	0.735130	0.717136
C72	C	0.707976	0.655789	0.637789
C73	C	0.707979	0.590993	0.637787
C74	C	0.633746	0.598269	0.677458
C75	C	0.633749	0.528008	0.677460
C76	C	0.633758	0.472004	0.677458
C77	C	0.559517	0.039683	0.412587
C78	C	0.559519	0.039683	0.347790
C79	C	0.633751	0.000010	0.275718
C80	C	0.707985	-0.039659	0.268445
C81	C	0.707982	-0.039655	0.333242
C82	C	0.707999	-0.039676	0.007127
C83	C	0.707996	-0.039679	-0.057671
C84	C	0.559537	0.039662	0.021675
C85	C	0.559534	0.039666	0.086472
C86	C	0.633767	0.000000	0.079193
C87	C	0.633764	0.000001	0.149454
C88	C	0.633755	0.000005	0.205458
C89	C	0.633765	-0.000003	0.880643
C90	C	0.633767	-0.000006	0.949603
C91	C	0.443689	-0.000012	0.880638
C92	C	0.379182	-0.000017	0.949596
C93	C	0.443689	0.203181	0.677452
C94	C	0.379182	0.272138	0.677450
C95	C	0.443697	0.203174	0.880638
C96	C	0.379193	0.272128	0.949596
C97	C	0.823816	-0.203166	0.474277
C98	C	0.888320	-0.272120	0.405320
C99	C	0.823824	0.000020	0.474277
C100	C	0.888331	0.000025	0.405319
C101	C	0.823824	-0.203173	0.677463
C102	C	0.888331	-0.272130	0.677465
C103	C	0.348886	-0.039701	0.942303
C104	C	0.288283	-0.039722	1.007090
C105	C	0.257973	-0.000053	1.079169
C106	C	0.288276	0.039632	1.086460
C107	C	0.348882	0.039648	1.021674
C108	C	0.348892	0.344202	0.717125
C109	C	0.288289	0.409000	0.717121
C110	C	0.257973	0.401733	0.677445
C111	C	0.288269	0.329661	0.637765
C112	C	0.348875	0.264864	0.637766
C113	C	0.348901	0.264832	1.021662
C114	C	0.288301	0.329615	1.086461
C115	C	0.257989	0.401694	1.079192
C116	C	0.288287	0.408989	1.007119
C117	C	0.348891	0.344206	0.942321
C118	C	0.918619	-0.264824	0.333253
C119	C	0.979238	-0.329607	0.268454
C120	C	1.009553	-0.401686	0.275723
C121	C	0.979251	-0.408980	0.347797
C122	C	0.918637	-0.344198	0.412594
C123	C	0.918634	0.039703	0.412612
C124	C	0.979253	0.039705	0.347825
C125	C	1.009565	0.000034	0.275746
C126	C	0.979260	-0.039648	0.268455
C127	C	0.918645	-0.039654	0.333241
C128	C	0.918627	-0.264838	0.717148
C129	C	0.979231	-0.329624	0.717165
C130	C	1.009540	-0.401701	0.677493
C131	C	0.979238	-0.408991	0.637808
C132	C	0.918631	-0.344206	0.637797
H133	H	0.373545	-0.072003	0.749428
Cl134	Cl	0.880559	-0.353386	0.587895
Cl135	Cl	0.880535	-0.174235	0.767029
Cl136	Cl	1.085735	-0.483138	0.677513
H137	H	0.208623	-0.000071	1.131916
H138	H	0.263589	0.071929	1.145156
Cl139	Cl	0.250213	0.499595	0.767011
H140	H	0.263638	0.323663	1.145141
Cl141	Cl	0.250197	-0.089612	0.997906
Cl142	Cl	0.466191	0.679487	0.767007
H143	H	0.373572	0.206148	1.027594
H144	H	0.373568	0.350134	0.749434
H145	H	0.263599	0.467684	1.001212
H146	H	1.003900	-0.323653	0.209775
H147	H	0.373529	0.206189	0.605460
H148	H	0.893940	-0.206140	0.327321
H149	H	0.373541	0.071968	1.027623
H150	H	0.499092	0.071962	0.027595
Cl151	Cl	0.466199	0.089563	0.356940
Cl152	Cl	0.466211	0.089540	0.177074
Cl153	Cl	0.181800	0.483129	1.160661
Cl154	Cl	1.017318	-0.320441	0.767053
Cl155	Cl	0.386960	0.353391	0.851726
H156	H	0.263572	-0.071995	0.749435
H157	H	0.208624	0.454500	0.677451
H158	H	0.768426	0.532314	0.605483
H159	H	1.003918	0.072022	0.353777
H160	H	1.058908	-0.454430	0.222954
Cl161	Cl	1.017366	-0.499600	0.356922
H162	H	0.499065	0.793813	0.749443
Cl163	Cl	1.017358	-0.499608	0.587930
Cl164	Cl	0.801323	-0.089556	-0.148278
Cl165	Cl	0.801321	-0.089545	-0.002032
Cl166	Cl	0.466211	0.353361	0.767001
H167	H	0.893958	0.072012	0.471296
H168	H	0.893968	-0.350147	0.471272
Cl169	Cl	0.880552	-0.089534	0.324060
Cl170	Cl	0.466192	0.089556	0.503188
Cl171	Cl	0.386956	0.089571	0.587902
Cl172	Cl	0.250139	0.089569	0.587903
Cl173	Cl	0.801305	-0.089529	0.177841
H174	H	0.768426	-0.071948	0.327314
Cl175	Cl	0.017374	-0.089562	0.767012
Cl176	Cl	0.466208	0.499615	0.767001
H177	H	0.373563	-0.072013	0.883619
Cl178	Cl	0.250147	0.320537	0.587892
H179	H	1.058921	0.000045	0.222999
Cl180	Cl	0.017368	0.089576	0.587904
Cl181	Cl	-0.119444	0.089577	0.587901
Cl182	Cl	-0.119444	-0.089554	0.767016
Cl183	Cl	0.801321	0.174280	0.587910
H184	H	1.003949	-0.071947	0.209760
H185	H	0.768437	0.323747	0.605477
Cl186	Cl	0.801300	0.646646	0.587913
