data_functionalizedCrystal
_audit_creation_method	'MofGen! by Chris Wilmer'
_symmetry_space_group_name_H-M	'P1'
_symmetry_Int_Tables_number	1
_symmetry_cell_setting	triclinic
loop_
_symmetry_equiv_pos_as_xyz
  x,y,z
_cell_length_a	16.625547
_cell_length_b	13.032492
_cell_length_c	13.032721
_cell_angle_alpha	90.915902
_cell_angle_beta	97.204553
_cell_angle_gamma	82.815342
loop_
_atom_site_label
_atom_site_type_symbol
_atom_site_fract_x
_atom_site_fract_y
_atom_site_fract_z
Zn1	Zn	-1.137451	-0.633740	0.335723
Zn2	Zn	-0.804117	-0.300407	0.669056
Zn3	Zn	-0.470784	0.032926	1.002389
Zn4	Zn	-1.133137	-0.483581	0.529524
Zn5	Zn	-0.799804	-0.150247	0.862858
Zn6	Zn	-0.466471	0.183086	1.196191
Zn7	Zn	-1.017391	-0.461745	0.357560
Zn8	Zn	-0.684058	-0.128411	0.690894
Zn9	Zn	-0.350725	0.204922	1.024227
Zn10	Zn	-0.983597	-0.655496	0.507665
Zn11	Zn	-0.650264	-0.322162	0.840998
Zn12	Zn	-0.316931	0.011171	1.174332
O13	O	-1.067894	-0.558640	0.432618
O14	O	-0.734561	-0.225307	0.765951
O15	O	-0.401227	0.108026	1.099285
O16	O	-1.249707	-0.613855	0.361440
O17	O	-0.916373	-0.280522	0.694773
O18	O	-0.583040	0.052812	1.028107
O19	O	-1.130121	-0.336756	0.525000
O20	O	-0.796788	-0.003423	0.858334
O21	O	-0.463454	0.329910	1.191667
O22	O	-1.049266	-0.466317	0.210738
O23	O	-0.715932	-0.132984	0.544071
O24	O	-0.382599	0.200349	0.877404
O25	O	-1.246538	-0.503533	0.503825
O26	O	-0.913204	-0.170200	0.837158
O27	O	-0.579871	0.163133	1.170492
O28	O	-1.137473	-0.592682	0.194693
O29	O	-0.804139	-0.259348	0.528027
O30	O	-0.470806	0.073985	0.861360
O31	O	-1.045083	-0.320713	0.398659
O32	O	-0.711750	0.012620	0.731993
O33	O	-0.378416	0.345953	1.065326
O34	O	-0.900080	-0.487412	0.377463
O35	O	-0.566747	-0.154079	0.710797
O36	O	-0.233414	0.179254	1.044130
O37	O	-0.991668	-0.796538	0.466569
O38	O	-0.658335	-0.463204	0.799903
O39	O	-0.325002	-0.129871	1.133236
O40	O	-0.875252	-0.629760	0.487744
O41	O	-0.541919	-0.296427	0.821078
O42	O	-0.208585	0.036906	1.154411
O43	O	-1.104704	-0.780554	0.340244
O44	O	-0.771371	-0.447221	0.673577
O45	O	-0.438037	-0.113887	1.006911
O46	O	-1.097352	-0.524629	0.670551
O47	O	-0.764019	-0.191295	1.003884
O48	O	-0.430686	0.142038	1.337217
O49	O	-0.987486	-0.650934	0.654491
O50	O	-0.654153	-0.317600	0.987824
O51	O	-0.320819	0.015733	1.321158
C52	C	-0.858411	-0.558578	0.432602
C53	C	-0.525078	-0.225245	0.765936
C54	C	-0.191744	0.108088	1.099269
C55	C	-0.768788	-0.558579	0.432617
C56	C	-0.435455	-0.225246	0.765950
C57	C	-0.102122	0.108087	1.099284
C58	C	-0.696005	-0.558589	0.432617
C59	C	-0.362672	-0.225255	0.765950
C60	C	-0.029338	0.108078	1.099283
C61	C	-0.604694	-0.558610	0.432618
C62	C	-0.271361	-0.225277	0.765951
C63	C	0.061972	0.108056	1.099285
C64	C	-0.531915	-0.558634	0.432623
C65	C	-0.198582	-0.225300	0.765957
C66	C	0.134752	0.108033	1.099290
C67	C	-0.440598	-0.558655	0.432626
C68	C	-0.107265	-0.225321	0.765960
C69	C	0.226068	0.108012	1.099293
C70	C	-1.090856	-0.291407	0.466497
C71	C	-0.757522	0.041927	0.799831
C72	C	-0.424189	0.375260	1.133164
C73	C	-1.100844	-0.177051	0.480733
C74	C	-0.767510	0.156282	0.814066
C75	C	-0.434177	0.489616	1.147399
C76	C	-1.038304	-0.592534	0.699836
C77	C	-0.704971	-0.259200	1.033170
C78	C	-0.371637	0.074133	1.366503
C79	C	-1.025716	-0.607068	0.814149
C80	C	-0.692383	-0.273735	1.147482
C81	C	-0.359049	0.059599	1.480816
C82	C	-0.278197	-0.558690	0.432632
C83	C	0.055137	-0.225357	0.765966
C84	C	0.388470	0.107976	1.099299
C85	C	-0.367819	-0.558678	0.432632
C86	C	-0.034486	-0.225345	0.765965
C87	C	0.298848	0.107988	1.099298
C88	C	-1.044898	-0.826908	0.398532
C89	C	-0.711564	-0.493575	0.731866
C90	C	-0.378231	-0.160242	1.065199
C91	C	-1.035098	-0.941228	0.384007
C92	C	-0.701765	-0.607895	0.717340
C93	C	-0.368431	-0.274561	1.050674
C94	C	-1.062812	-0.118235	0.425018
C95	C	-0.729479	0.215098	0.758351
C96	C	-0.396146	0.548432	1.091684
C97	C	-1.073134	-0.000042	0.439730
C98	C	-0.739801	0.333291	0.773063
C99	C	-0.406468	0.666625	1.106396
C100	C	-1.097620	-0.524637	0.164354
C101	C	-0.764287	-0.191304	0.497687
C102	C	-0.430953	0.142030	0.831020
C103	C	-1.110287	-0.510147	0.050035
C104	C	-0.776954	-0.176814	0.383369
C105	C	-0.443621	0.156520	0.716702
C106	C	-1.074503	-0.551101	0.873019
C107	C	-0.741169	-0.217768	1.206352
C108	C	-0.407836	0.115566	1.539686
C109	C	-1.061494	-0.566121	0.991167
C110	C	-0.728160	-0.232788	1.324501
C111	C	-0.394827	0.100545	1.657834
H112	H	-1.022614	-0.155382	0.366423
H113	H	-0.689281	0.177951	0.699756
H114	H	-0.355947	0.511285	1.033090
F115	F	-0.994309	-0.643296	1.039607
F116	F	-0.660976	-0.309963	1.372940
F117	F	-0.327643	0.023370	1.706274
F118	F	-1.177479	-0.432981	1.001597
F119	F	-0.844146	-0.099648	1.334930
F120	F	-0.510812	0.233685	1.668263
H121	H	-1.113342	0.037101	0.498321
H122	H	-0.780009	0.370435	0.831654
H123	H	-0.446676	0.703768	1.164987
H124	H	-0.994898	0.021631	0.325406
H125	H	-0.661564	0.354965	0.658740
H126	H	-0.328231	0.688298	0.992073
F127	F	-1.153396	-0.128502	0.557312
F128	F	-0.820063	0.204832	0.890646
F129	F	-0.486729	0.538165	1.223979
F130	F	-1.141691	-0.473942	0.824573
F131	F	-0.808358	-0.140608	1.157907
F132	F	-0.475025	0.192725	1.491240
H133	H	-0.974319	-0.666107	0.851217
H134	H	-0.640986	-0.332774	1.184550
H135	H	-0.307653	0.000559	1.517883
