data_functionalizedCrystal
_audit_creation_method	'MofGen! by Chris Wilmer'
_symmetry_space_group_name_H-M	'P1'
_symmetry_Int_Tables_number	1
_symmetry_cell_setting	triclinic
loop_
_symmetry_equiv_pos_as_xyz
  x,y,z
_cell_length_a	17.077404
_cell_length_b	10.686285
_cell_length_c	17.077396
_cell_angle_alpha	94.391882
_cell_angle_beta	90.019501
_cell_angle_gamma	85.631810
loop_
_atom_site_label
_atom_site_type_symbol
_atom_site_fract_x
_atom_site_fract_y
_atom_site_fract_z
Zn1	Zn	1.224115	-0.502339	0.419935
Zn2	Zn	1.724115	-0.002339	0.919935
Zn3	Zn	1.234129	-0.713359	0.278625
Zn4	Zn	1.734129	-0.213359	0.778625
Zn5	Zn	1.092848	-0.502383	0.288680
Zn6	Zn	1.592848	-0.002383	0.788680
Zn7	Zn	1.102918	-0.713284	0.409853
Zn8	Zn	1.602918	-0.213284	0.909853
O9	O	1.163502	-0.607841	0.349273
O10	O	1.663502	-0.107841	0.849273
O11	O	1.335290	-0.530344	0.401201
O12	O	1.835290	-0.030344	0.901201
O13	O	1.215364	-0.685422	0.170110
O14	O	1.715364	-0.185422	0.670110
O15	O	1.101856	-0.325802	0.314519
O16	O	1.601856	0.174198	0.814519
O17	O	1.342648	-0.685379	0.297382
O18	O	1.842648	-0.185379	0.797382
O19	O	1.198297	-0.325769	0.410951
O20	O	1.698297	0.174231	0.910951
O21	O	1.111566	-0.530419	0.177497
O22	O	1.611566	-0.030419	0.677497
O23	O	0.984337	-0.530347	0.304743
O24	O	1.484337	-0.030347	0.804743
O25	O	1.119018	-0.685252	0.521039
O26	O	1.619018	-0.185252	1.021039
O27	O	0.991734	-0.685295	0.393768
O28	O	1.491734	-0.185295	0.893768
O29	O	1.208061	-0.530271	0.528447
O30	O	1.708061	-0.030271	1.028447
O31	O	1.225128	-0.889924	0.287606
O32	O	1.725128	-0.389924	0.787606
O33	O	1.128728	-0.889869	0.384018
O34	O	1.628728	-0.389869	0.884018
C35	C	0.959553	-0.607818	0.349253
C36	C	1.459553	-0.107818	0.849253
C37	C	0.872305	-0.607839	0.349261
C38	C	1.372305	-0.107839	0.849261
C39	C	0.835193	-0.688642	0.395530
C40	C	1.335193	-0.188642	0.895530
C41	C	0.753212	-0.688645	0.395542
C42	C	1.253212	-0.188645	0.895542
C43	C	0.708346	-0.607850	0.349281
C44	C	1.208346	-0.107850	0.849281
C45	C	0.745463	-0.527038	0.303011
C46	C	1.245463	-0.027038	0.803011
C47	C	0.827441	-0.527030	0.303003
C48	C	1.327441	-0.027030	0.803003
C49	C	0.574594	-0.527063	0.303028
C50	C	1.074594	-0.027063	0.803028
C51	C	0.492610	-0.527072	0.303035
C52	C	0.992610	-0.027072	0.803035
C53	C	0.500365	-0.688678	0.395568
C54	C	1.000365	-0.188678	0.895568
C55	C	0.582344	-0.688670	0.395560
C56	C	1.082344	-0.188670	0.895560
C57	C	0.619455	-0.607859	0.349288
C58	C	1.119455	-0.107859	0.849288
C59	C	1.179129	-0.935681	0.333644
C60	C	1.679129	-0.435681	0.833644
C61	C	1.185885	-1.075932	0.326983
C62	C	1.685885	-0.575932	0.826983
C63	C	1.368248	-0.607865	0.349294
C64	C	1.868248	-0.107865	0.849294
C65	C	1.455498	-0.607875	0.349303
C66	C	1.955498	-0.107875	0.849303
C67	C	1.163545	-0.607748	0.554022
C68	C	1.663545	-0.107748	1.054022
C69	C	1.163564	-0.607709	0.641274
C70	C	1.663564	-0.107709	1.141274
C71	C	1.147836	-0.278722	0.364981
C72	C	1.647836	0.221278	0.864981
C73	C	1.141160	-0.138470	0.371675
C74	C	1.641160	0.361530	0.871675
C75	C	1.163500	-0.607843	0.145325
C76	C	1.663500	-0.107843	0.645325
C77	C	1.163617	-0.607527	0.058091
C78	C	1.663617	-0.107527	0.558091
C79	C	1.209930	-0.527004	0.686123
C80	C	1.709930	-0.027004	1.186123
C81	C	1.209937	-0.526962	0.768105
C82	C	1.709937	-0.026962	1.268105
C83	C	1.163582	-0.607632	0.805237
C84	C	1.663582	-0.107632	1.305237
C85	C	1.117211	-0.688341	0.760382
C86	C	1.617211	-0.188341	1.260382
C87	C	1.117200	-0.688375	0.678402
C88	C	1.617200	-0.188375	1.178402
C89	C	1.117239	-0.688265	0.931256
C90	C	1.617239	-0.188265	1.431256
C91	C	1.117251	-0.688232	1.013242
C92	C	1.617251	-0.188232	1.513242
C93	C	1.209976	-0.526851	1.020959
C94	C	1.709976	-0.026851	1.520959
C95	C	1.209965	-0.526886	0.938979
C96	C	1.709965	-0.026886	1.438979
C97	C	1.163595	-0.607596	0.894130
C98	C	1.663595	-0.107596	1.394130
H99	H	0.723000	-0.754444	0.433218
H100	H	1.223000	-0.254444	0.933218
N101	N	0.697071	-0.439918	0.253101
N102	N	1.197071	0.060082	0.753101
H103	H	0.660275	-0.381512	0.287838
H104	H	1.160275	0.118488	0.787838
H105	H	0.665544	-0.491246	0.214246
H106	H	1.165544	0.008754	0.714246
N107	N	1.243458	-1.147133	0.269546
N108	N	1.743458	-0.647133	0.769546
H109	H	1.272344	-1.085476	0.240670
H110	H	1.772344	-0.585476	0.740670
H111	H	1.214133	-1.201891	0.230616
H112	H	1.714133	-0.701891	0.730616
N113	N	1.259938	-0.440007	0.646078
N114	N	1.759938	0.059993	1.146078
H115	H	1.252903	-0.452281	0.587337
H116	H	1.752903	0.047719	1.087337
H117	H	1.316933	-0.459667	0.659488
H118	H	1.816933	0.040333	1.159488
H119	H	1.079465	-0.754019	0.790622
H120	H	1.579465	-0.254019	1.290622
H121	H	1.097701	-1.084717	0.415034
H122	H	1.597701	-0.584717	0.915034
N123	N	1.067226	-0.775324	0.882888
N124	N	1.567226	-0.275324	1.382888
H125	H	1.101907	-0.833814	0.846089
H126	H	1.601907	-0.333814	1.346089
H127	H	1.028407	-0.723971	0.851364
H128	H	1.528407	-0.223971	1.351364
H129	H	0.857656	-0.461225	0.265331
H130	H	1.357656	0.038775	0.765331
H131	H	0.604807	-0.461247	0.265356
H132	H	1.104807	0.038753	0.765356
N133	N	0.444205	-0.439972	0.253123
N134	N	0.944205	0.060028	0.753123
H135	H	0.407403	-0.381576	0.287858
H136	H	0.907403	0.118424	0.787858
H137	H	0.412685	-0.491323	0.214273
H138	H	0.912685	0.008677	0.714273
N139	N	1.259929	-0.439891	0.816480
N140	N	1.759929	0.060109	1.316480
H141	H	1.289292	-0.388791	0.780517
H142	H	1.789292	0.111209	1.280517
H143	H	1.298707	-0.491222	0.848060
H144	H	1.798707	0.008778	1.348060
H145	H	1.247716	-0.461204	0.908748
H146	H	1.747716	0.038796	1.408748
N147	N	1.259994	-0.439800	1.069326
N148	N	1.759994	0.060200	1.569326
H149	H	1.252966	-0.452012	1.126895
H150	H	1.752966	0.047988	1.626895
H151	H	1.243490	-0.349686	1.059294
H152	H	1.743490	0.150314	1.559294
N153	N	1.067256	-0.775238	1.053295
N154	N	1.567256	-0.275238	1.553295
H155	H	1.037874	-0.826367	1.012446
H156	H	1.537874	-0.326367	1.512446
H157	H	1.028495	-0.723849	1.089758
H158	H	1.528495	-0.223849	1.589758
N159	N	1.067183	-0.775409	0.630026
N160	N	1.567183	-0.275409	1.130026
H161	H	1.037818	-0.826508	0.665987
H162	H	1.537818	-0.326508	1.165987
H163	H	1.101904	-0.833824	0.593225
H164	H	1.601904	-0.333824	1.093225
N165	N	0.460341	-0.775841	0.445473
N166	N	0.960341	-0.275841	0.945473
H167	H	0.501204	-0.827033	0.474771
H168	H	1.001204	-0.327033	0.974771
H169	H	0.429097	-0.834164	0.410674
H170	H	0.929097	-0.334164	0.910674
H171	H	0.871718	-0.754439	0.433198
H172	H	1.371718	-0.254439	0.933198
H173	H	0.618873	-0.754467	0.433225
H174	H	1.118873	-0.254467	0.933225
