data_functionalizedCrystal
_audit_creation_method	'MofGen! by Chris Wilmer'
_symmetry_space_group_name_H-M	'P1'
_symmetry_Int_Tables_number	1
_symmetry_cell_setting	triclinic
loop_
_symmetry_equiv_pos_as_xyz
  x,y,z
_cell_length_a	19.805407
_cell_length_b	14.909042
_cell_length_c	19.805399
_cell_angle_alpha	93.319324
_cell_angle_beta	90.019573
_cell_angle_gamma	86.719064
loop_
_atom_site_label
_atom_site_type_symbol
_atom_site_fract_x
_atom_site_fract_y
_atom_site_fract_z
Zn1	Zn	1.050329	-0.359172	0.367200
Zn2	Zn	1.550329	0.140828	0.867200
Zn3	Zn	1.056793	-0.510034	0.247493
Zn4	Zn	1.556793	-0.010034	0.747493
Zn5	Zn	0.937144	-0.359197	0.254023
Zn6	Zn	1.437144	0.140803	0.754023
Zn7	Zn	0.943654	-0.509986	0.360642
Zn8	Zn	1.443654	-0.009986	0.860642
O9	O	0.996980	-0.434597	0.307339
O10	O	1.496980	0.065403	0.807339
O11	O	1.145903	-0.379194	0.351332
O12	O	1.645903	0.120806	0.851332
O13	O	1.040902	-0.490055	0.153641
O14	O	1.540902	0.009945	0.653641
O15	O	0.946729	-0.232951	0.274514
O16	O	1.446729	0.267049	0.774514
O17	O	1.150653	-0.490031	0.263384
O18	O	1.650653	0.009969	0.763384
O19	O	1.029885	-0.232933	0.357664
O20	O	1.529885	0.267067	0.857664
O21	O	0.952997	-0.379236	0.158439
O22	O	1.452997	0.120764	0.658439
O23	O	0.843291	-0.379189	0.268155
O24	O	1.343291	0.120811	0.768155
O25	O	0.957824	-0.489949	0.456229
O26	O	1.457824	0.010051	0.956229
O27	O	0.848074	-0.489973	0.346487
O28	O	1.348074	0.010027	0.846487
O29	O	1.036197	-0.379147	0.461048
O30	O	1.536197	0.120853	0.961048
O31	O	1.047215	-0.636269	0.257024
O32	O	1.547215	-0.136269	0.757024
O33	O	0.964092	-0.636234	0.340154
O34	O	1.464092	-0.136234	0.840154
C35	C	0.821123	-0.434580	0.307318
C36	C	1.321123	0.065420	0.807318
C37	C	0.745892	-0.434594	0.307324
C38	C	1.245892	0.065406	0.807324
C39	C	0.713060	-0.492366	0.348038
C40	C	1.213060	0.007634	0.848038
C41	C	0.642371	-0.492368	0.348047
C42	C	1.142371	0.007632	0.848047
C43	C	0.604517	-0.434601	0.307339
C44	C	1.104517	0.065399	0.807339
C45	C	0.637354	-0.376823	0.266624
C46	C	1.137354	0.123177	0.766624
C47	C	0.708041	-0.376817	0.266618
C48	C	1.208041	0.123183	0.766618
C49	C	0.352281	-0.376842	0.266645
C50	C	0.852281	0.123158	0.766645
C51	C	0.281590	-0.376854	0.266652
C52	C	0.781590	0.123146	0.766652
C53	C	0.286612	-0.492393	0.348074
C54	C	0.786612	0.007607	0.848074
C55	C	0.357299	-0.492388	0.348069
C56	C	0.857299	0.007612	0.848069
C57	C	0.390130	-0.434606	0.307357
C58	C	0.890130	0.065394	0.807357
C59	C	0.466778	-0.434604	0.307348
C60	C	0.966778	0.065396	0.807348
C61	C	0.527870	-0.434607	0.307344
C62	C	1.027870	0.065393	0.807344
C63	C	1.007080	-0.668985	0.297184
C64	C	1.507080	-0.168985	0.797184
C65	C	1.011462	-0.769257	0.292862
C66	C	1.511462	-0.269257	0.792862
C67	C	0.933059	-0.957706	0.371229
C68	C	1.433059	-0.457706	0.871229
C69	C	0.937174	-1.051921	0.367170
C70	C	1.437174	-0.551921	0.867170
C71	C	1.023805	-1.051902	0.280684
C72	C	1.523805	-0.551902	0.780684
C73	C	1.019690	-0.957687	0.284742
C74	C	1.519690	-0.457687	0.784742
C75	C	0.974316	-0.910593	0.330017
C76	C	1.474316	-0.410593	0.830017
C77	C	0.970204	-0.816377	0.334078
C78	C	1.470204	-0.316377	0.834078
C79	C	1.056831	-0.816359	0.247589
C80	C	1.556831	-0.316359	0.747589
C81	C	1.060946	-0.910574	0.243530
C82	C	1.560946	-0.410574	0.743530
C83	C	1.173524	-0.434615	0.307361
C84	C	1.673524	0.065385	0.807361
C85	C	1.248756	-0.434623	0.307370
C86	C	1.748756	0.065377	0.807370
C87	C	0.997016	-0.434540	0.483885
C88	C	1.497016	0.065460	0.983885
C89	C	0.997031	-0.434516	0.559118
C90	C	1.497031	0.065484	1.059118
C91	C	0.986860	-0.199294	0.317549
C92	C	1.486860	0.300706	0.817549
C93	C	0.982547	-0.099022	0.321900
C94	C	1.482547	0.400978	0.821900
C95	C	0.996981	-0.434588	0.131484
C96	C	1.496981	0.065412	0.631484
C97	C	0.997086	-0.434358	0.056262
C98	C	1.497086	0.065642	0.556262
C99	C	1.037841	-0.376818	0.596972
C100	C	1.537841	0.123182	1.096972
C101	C	1.037846	-0.376792	0.667661
C102	C	1.537846	0.123208	1.167661
C103	C	0.997046	-0.434469	0.700495
C104	C	1.497046	0.065531	1.200495
C105	C	0.956231	-0.492169	0.662636
C106	C	1.456231	0.007831	1.162636
C107	C	0.956222	-0.492190	0.591948
C108	C	1.456222	0.007810	1.091948
C109	C	0.956266	-0.492085	0.947713
C110	C	1.456266	0.007915	1.447713
C111	C	0.956279	-0.492061	1.018406
C112	C	1.456279	0.007939	1.518406
C113	C	1.037890	-0.376687	1.023427
C114	C	1.537890	0.123313	1.523427
C115	C	1.037881	-0.376708	0.952739
C116	C	1.537881	0.123292	1.452739
C117	C	0.997064	-0.434404	0.914886
C118	C	1.497064	0.065596	1.414886
C119	C	0.997057	-0.434431	0.838236
C120	C	1.497057	0.065569	1.338236
C121	C	0.997055	-0.434447	0.777143
C122	C	1.497055	0.065553	1.277143
H123	H	0.259873	-0.539438	0.381227
H124	H	0.759873	-0.039438	0.881227
C125	C	0.283721	-0.262622	0.186175
C126	C	0.783721	0.237378	0.686175
C127	C	0.239978	-0.313345	0.221908
C128	C	0.739978	0.186655	0.721908
H129	H	0.258029	-0.223414	0.158557
H130	H	0.758029	0.276586	0.658557
H131	H	0.312972	-0.301873	0.158530
H132	H	0.812972	0.198127	0.658530
H133	H	0.309819	-0.228168	0.217208
H134	H	0.809819	0.271832	0.717208
H135	H	0.213883	-0.347804	0.190875
H136	H	0.713883	0.152196	0.690875
H137	H	0.210715	-0.274090	0.249555
H138	H	0.710715	0.225910	0.749555
C139	C	1.058070	-1.080868	0.164840
C140	C	1.558070	-0.580868	0.664840
C141	C	1.073668	-1.103627	0.230885
C142	C	1.573668	-0.603627	0.730885
H143	H	1.088850	-1.112791	0.134087
H144	H	1.588850	-0.612791	0.634087
H145	H	1.061508	-1.018013	0.161398
H146	H	1.561508	-0.518013	0.661398
H147	H	1.013274	-1.096380	0.154242
H148	H	1.513274	-0.596380	0.654242
H149	H	1.118462	-1.088109	0.241485
H150	H	1.618462	-0.588109	0.741485
H151	H	1.070236	-1.166496	0.234330
H152	H	1.570236	-0.666496	0.734330
H153	H	0.923041	-0.539078	0.916901
H154	H	1.423041	-0.039078	1.416901
H155	H	0.743876	-0.539409	0.381185
H156	H	1.243876	-0.039409	0.881185
H157	H	1.097887	-0.948931	0.206667
H158	H	1.597887	-0.448931	0.706667
H159	H	0.923008	-0.539127	0.689375
H160	H	1.423008	-0.039127	1.189375
H161	H	0.615643	-0.539412	0.381200
H162	H	1.115643	-0.039412	0.881200
H163	H	0.903580	-1.090277	0.400731
H164	H	1.403580	-0.590277	0.900731
H165	H	0.379004	-0.329800	0.233489
H166	H	0.879004	0.170200	0.733489
H167	H	1.071068	-0.329854	0.570244
H168	H	1.571068	0.170146	1.070244
H169	H	1.071079	-0.329811	0.698479
H170	H	1.571079	0.170189	1.198479
C171	C	1.118547	-0.262651	0.964804
C172	C	1.618547	0.237349	1.464804
C173	C	1.082728	-0.313305	0.916649
C174	C	1.582728	0.186695	1.416649
H175	H	1.146229	-0.223503	0.942523
H176	H	1.646229	0.276497	1.442523
H177	H	1.146133	-0.301948	0.990671
H178	H	1.646133	0.198052	1.490671
H179	H	1.087569	-0.228136	0.993869
H180	H	1.587569	0.271864	1.493869
H181	H	1.113706	-0.347825	0.887586
H182	H	1.613706	0.152175	1.387586
H183	H	1.055140	-0.274002	0.890770
H184	H	1.555140	0.225998	1.390770
C185	C	1.088990	-0.671929	0.215402
C186	C	1.588990	-0.171929	0.715402
C187	C	1.102182	-0.764570	0.202281
C188	C	1.602182	-0.264570	0.702281
H189	H	1.116985	-0.639958	0.187430
H190	H	1.616985	-0.139958	0.687430
H191	H	1.098192	-0.656445	0.261551
H192	H	1.598192	-0.156445	0.761551
H193	H	1.042846	-0.656555	0.206113
H194	H	1.542846	-0.156555	0.706113
H195	H	1.148325	-0.779946	0.211576
H196	H	1.648325	-0.279946	0.711576
H197	H	1.092985	-0.780061	0.156122
H198	H	1.592985	-0.280061	0.656122
C199	C	0.875590	-0.606100	1.006348
C200	C	1.375590	-0.106100	1.506348
C201	C	0.911422	-0.555457	1.054499
C202	C	1.411422	-0.055457	1.554499
H203	H	0.847896	-0.645231	1.028632
H204	H	1.347896	-0.145231	1.528632
H205	H	0.906555	-0.640624	0.977285
H206	H	1.406555	-0.140624	1.477285
H207	H	0.848008	-0.566788	0.980477
H208	H	1.348008	-0.066788	1.480477
H209	H	0.939008	-0.594770	1.080366
H210	H	1.439008	-0.094770	1.580366
H211	H	0.880453	-0.520931	1.083573
H212	H	1.380453	-0.020931	1.583573
C213	C	1.074140	-0.325403	1.134017
C214	C	1.574140	0.174597	1.634017
C215	C	1.082749	-0.313253	1.065038
C216	C	1.582749	0.186747	1.565038
H217	H	1.101831	-0.286239	1.159703
H218	H	1.601831	0.213761	1.659703
H219	H	1.086655	-0.386006	1.142973
H220	H	1.586655	0.113994	1.642973
H221	H	1.028094	-0.312189	1.146158
H222	H	1.528094	0.187811	1.646158
H223	H	1.128794	-0.326473	1.052896
H224	H	1.628794	0.173527	1.552896
H225	H	1.070238	-0.252636	1.056078
H226	H	1.570238	0.247364	1.556078
H227	H	0.606527	-0.329784	0.233482
H228	H	1.106527	0.170216	0.733482
H229	H	0.734771	-0.329768	0.233469
H230	H	1.234771	0.170232	0.733469
H231	H	0.922983	-0.539164	0.561128
H232	H	1.422983	-0.039164	1.061128
C233	C	0.884985	-0.825862	0.419157
C234	C	1.384985	-0.325862	0.919157
C235	C	0.920330	-0.764608	0.383844
C236	C	1.420330	-0.264608	0.883844
H237	H	0.854192	-0.793902	0.449877
H238	H	1.354192	-0.293902	0.949877
H239	H	0.916061	-0.862553	0.443494
H240	H	1.416061	-0.362553	0.943494
H241	H	0.860723	-0.862663	0.388047
H242	H	1.360723	-0.362663	0.888047
H243	H	0.944596	-0.727810	0.414953
H244	H	1.444596	-0.227810	0.914953
H245	H	0.889250	-0.727901	0.359505
H246	H	1.389250	-0.227901	0.859505
H247	H	0.388117	-0.539430	0.381215
H248	H	0.888117	-0.039430	0.881215
H249	H	0.896118	-0.919361	0.408098
H250	H	1.396118	-0.419361	0.908098
