data_functionalizedCrystal
_audit_creation_method	'MofGen! by Chris Wilmer'
_symmetry_space_group_name_H-M	'P1'
_symmetry_Int_Tables_number	1
_symmetry_cell_setting	triclinic
loop_
_symmetry_equiv_pos_as_xyz
  x,y,z
_cell_length_a	19.121063
_cell_length_b	11.169417
_cell_length_c	11.169409
_cell_angle_alpha	90.019824
_cell_angle_beta	92.400753
_cell_angle_gamma	87.530272
loop_
_atom_site_label
_atom_site_type_symbol
_atom_site_fract_x
_atom_site_fract_y
_atom_site_fract_z
Zn1	Zn	-0.279539	-1.814442	-0.698851
Zn2	Zn	0.220461	-1.314442	-0.198851
Zn3	Zn	-0.397012	-1.805707	-0.506702
Zn4	Zn	0.102988	-1.305707	-0.006702
Zn5	Zn	-0.279582	-1.613724	-0.498188
Zn6	Zn	0.220418	-1.113724	0.001812
Zn7	Zn	-0.396955	-1.605116	-0.707343
Zn8	Zn	0.103045	-1.105116	-0.207343
O9	O	-0.338272	-1.709747	-0.602771
O10	O	0.161728	-1.209747	-0.102771
O11	O	-0.295128	-1.981232	-0.673371
O12	O	0.204872	-1.481232	-0.173371
O13	O	-0.381477	-1.780188	-0.337626
O14	O	0.118523	-1.280188	0.162374
O15	O	-0.181292	-1.647608	-0.517690
O16	O	0.318708	-1.147608	-0.017690
O17	O	-0.381435	-1.974815	-0.532200
O18	O	0.118565	-1.474815	-0.032200
O19	O	-0.181261	-1.795074	-0.665116
O20	O	0.318739	-1.295074	-0.165116
O21	O	-0.295201	-1.639139	-0.331371
O22	O	0.204799	-1.139139	0.168629
O23	O	-0.295146	-1.444633	-0.525924
O24	O	0.204854	-0.944633	-0.025924
O25	O	-0.381338	-1.632936	-0.874163
O26	O	0.118662	-1.132936	-0.374163
O27	O	-0.381379	-1.438308	-0.679589
O28	O	0.118621	-0.938308	-0.179589
O29	O	-0.295073	-1.786727	-0.867924
O30	O	0.204927	-1.286727	-0.367924
O31	O	-0.495289	-1.771840	-0.540435
O32	O	0.004711	-1.271840	-0.040435
O33	O	-0.495247	-1.624466	-0.687844
O34	O	0.004753	-1.124466	-0.187844
C35	C	-0.338261	-1.397923	-0.602755
C36	C	0.161739	-0.897923	-0.102755
C37	C	-0.338274	-1.264522	-0.602778
C38	C	0.161726	-0.764522	-0.102778
C39	C	-0.520752	-1.696304	-0.616011
C40	C	-0.020752	-1.196304	-0.116011
C41	C	-0.598817	-1.690663	-0.621715
C42	C	-0.098817	-1.190663	-0.121715
C43	C	-0.338194	-1.709845	-0.915808
C44	C	0.161806	-1.209845	-0.415808
C45	C	-0.338161	-1.709887	-1.049206
C46	C	0.161839	-1.209887	-0.549206
C47	C	-0.635491	-1.764802	-0.547710
C48	C	-0.135491	-1.264802	-0.047710
C49	C	-0.708842	-1.759503	-0.553082
C50	C	-0.208842	-1.259503	-0.053082
C51	C	-0.745518	-1.680059	-0.632454
C52	C	-0.245518	-1.180059	-0.132454
C53	C	-0.708838	-1.605917	-0.706467
C54	C	-0.208838	-1.105917	-0.206467
C55	C	-0.635489	-1.611222	-0.701100
C56	C	-0.135489	-1.111222	-0.201100
C57	C	-0.966986	-1.660204	-0.652499
C58	C	-0.466986	-1.160204	-0.152499
C59	C	-1.040340	-1.654902	-0.657858
C60	C	-0.540340	-1.154902	-0.157858
C61	C	-1.040339	-1.808490	-0.504474
C62	C	-0.540339	-1.308490	-0.004474
C63	C	-0.966988	-1.813784	-0.499110
C64	C	-0.466988	-1.313784	0.000890
C65	C	-0.930315	-1.739646	-0.573127
C66	C	-0.430315	-1.239646	-0.073127
C67	C	-0.820494	-1.674638	-0.637944
C68	C	-0.320494	-1.174638	-0.137944
C69	C	-0.855340	-1.745073	-0.567642
C70	C	-0.355340	-1.245073	-0.067642
C71	C	-0.155080	-1.723276	-0.589506
C72	C	0.344920	-1.223276	-0.089506
C73	C	-0.077014	-1.729041	-0.583853
C74	C	0.422986	-1.229041	-0.083853
C75	C	-0.338283	-2.022789	-0.602788
C76	C	0.161717	-1.522789	-0.102788
C77	C	-0.338288	-2.156188	-0.602795
C78	C	0.161712	-1.656188	-0.102795
C79	C	-0.338299	-1.709722	-0.290948
C80	C	0.161701	-1.209722	0.209052
C81	C	-0.338134	-1.709928	-0.157537
C82	C	0.161866	-1.209928	0.342463
H83	H	-0.605635	-1.829489	-0.483072
H84	H	-0.105635	-1.329489	0.016928
Br85	Br	-0.585716	-1.510608	-0.801547
Br86	Br	-0.085716	-1.010608	-0.301547
H87	H	-0.825477	-1.809762	-0.503022
H88	H	-0.325477	-1.309762	-0.003022
H89	H	-1.070200	-1.590223	-0.722513
H90	H	-0.570200	-1.090223	-0.222513
H91	H	-0.937133	-1.599836	-0.712765
H92	H	-0.437133	-1.099836	-0.212765
H93	H	-0.738706	-1.541236	-0.771098
H94	H	-0.238706	-1.041236	-0.271098
H95	H	-0.850363	-1.609952	-0.702566
H96	H	-0.350363	-1.109952	-0.202566
Br97	Br	-0.917219	-1.921621	-0.391402
Br98	Br	-0.417219	-1.421621	0.108598
H99	H	-1.070206	-1.868851	-0.444215
H100	H	-0.570206	-1.368851	0.055785
Br101	Br	-0.758611	-1.860133	-0.452649
Br102	Br	-0.258611	-1.360133	0.047351
