data_functionalizedCrystal
_audit_creation_method	'MofGen! by Chris Wilmer'
_symmetry_space_group_name_H-M	'P1'
_symmetry_Int_Tables_number	1
_symmetry_cell_setting	triclinic
loop_
_symmetry_equiv_pos_as_xyz
  x,y,z
_cell_length_a	15.995350
_cell_length_b	15.995350
_cell_length_c	15.072220
_cell_angle_alpha	89.992853
_cell_angle_beta	89.999692
_cell_angle_gamma	83.492375
loop_
_atom_site_label
_atom_site_type_symbol
_atom_site_fract_x
_atom_site_fract_y
_atom_site_fract_z
O1	O	-1.110984	-0.107932	0.073703
O2	O	-0.867209	-0.121260	0.073721
O3	O	-0.995760	0.007292	0.073710
O4	O	-0.982433	-0.236484	0.073713
O5	O	-0.995752	0.007307	-0.073855
O6	O	-0.867200	-0.121244	-0.073844
O7	O	-1.110976	-0.107917	-0.073862
Zn8	Zn	-0.989087	-0.114578	-0.097283
Zn9	Zn	-0.989098	-0.114599	0.097141
O10	O	-0.982424	-0.236468	-0.073852
C11	C	-0.836010	-0.120701	-0.000060
C12	C	-0.743060	-0.119049	-0.000053
C13	C	-0.995205	0.038494	-0.000070
C14	C	-0.993553	0.131444	-0.000065
C15	C	-1.142175	-0.108476	-0.000080
C16	C	-1.235125	-0.110127	-0.000081
C17	C	-0.982980	-0.267671	-0.000069
C18	C	-0.984631	-0.360621	-0.000069
C19	C	-0.405312	-0.113117	-0.000071
C20	C	-0.452746	-0.021565	-0.000401
C21	C	-0.549436	-0.023217	-0.000063
C22	C	-0.572873	-0.116060	-0.000063
C23	C	-0.531790	-0.161225	0.084201
C24	C	-0.435155	-0.158925	0.084266
C25	C	-0.434806	-0.160799	-0.083543
C26	C	-0.531751	-0.160777	-0.084651
C27	C	-0.667570	-0.117727	-0.000055
C28	C	-0.310614	-0.111452	-0.000073
C29	C	-0.987621	0.469192	-0.000068
C30	C	-0.896069	0.421758	0.000270
C31	C	-0.897721	0.325068	-0.000063
C32	C	-0.990564	0.301631	-0.000066
C33	C	-1.035715	0.342718	-0.084335
C34	C	-1.033416	0.439353	-0.084405
C35	C	-1.035316	0.439694	0.083404
C36	C	-1.035295	0.342748	0.084518
C37	C	-0.992231	0.206934	-0.000068
C38	C	-0.985956	0.563890	-0.000072
N39	N	-0.989085	-0.114564	-0.229971
C40	C	-0.989099	-0.114592	-0.589173
C41	C	-1.058107	-0.046036	-0.551544
C42	C	-1.057927	-0.045783	-0.448718
C43	C	-0.989093	-0.114578	-0.410969
C44	C	-0.901736	-0.095497	-0.448305
C45	C	-0.902144	-0.095013	-0.551163
C46	C	-1.006660	-0.202431	-0.551250
C47	C	-1.008643	-0.201842	-0.448386
C48	C	-0.989084	-0.114572	-0.310255
C49	C	-0.989102	-0.114597	-0.689886
N50	N	-0.989106	-0.114606	0.229830
H51	H	-0.434221	0.015037	-0.060830
H52	H	-0.849251	-0.143047	-0.576056
O53	O	-1.124980	0.322404	0.091258
H54	H	-1.168373	0.381690	0.090430
O55	O	-1.124727	0.481767	0.084166
H56	H	-1.135186	0.523489	0.025417
O57	O	-0.850402	0.288156	-0.080218
H58	H	-0.826254	0.339378	-0.118898
H59	H	-0.416850	-0.126002	0.147255
H60	H	-0.961638	-0.255247	-0.422688
H61	H	-1.004348	0.314343	-0.147042
O62	O	-1.143944	-0.060818	-0.415267
H63	H	-1.186046	-0.068333	-0.472558
O64	O	-0.392725	-0.250206	-0.084310
H65	H	-0.410015	-0.282969	-0.023207
O66	O	-0.426795	0.026692	0.079190
H67	H	-0.380262	-0.014246	0.118985
O68	O	-1.144418	-0.060835	-0.584298
H69	H	-1.139057	-0.117206	-0.627754
H70	H	-0.560168	-0.129868	0.146912
H71	H	-1.002283	0.315493	0.146857
H72	H	-0.577298	0.012512	0.060446
H73	H	-1.046706	0.019403	-0.424120
O74	O	-0.995674	0.466880	0.168013
H75	H	-0.941528	0.501725	0.151511
O76	O	-0.940011	-0.270017	-0.583489
H77	H	-0.894592	-0.241242	-0.626314
O78	O	-0.550502	-0.251576	0.088352
H79	H	-0.490541	-0.293943	0.087422
H80	H	-0.559064	-0.127807	-0.146989
H81	H	-0.849147	-0.144100	-0.423854
O82	O	-1.043468	0.039825	-0.585786
H83	H	-0.980424	0.054624	-0.564294
H84	H	-0.577862	0.012284	-0.060467
H85	H	-0.886666	-0.030953	-0.575163
O86	O	-0.880727	-0.011602	-0.414215
H87	H	-0.932363	0.016632	-0.370691
H88	H	-0.414267	-0.130862	-0.147414
O89	O	-1.089244	-0.226716	-0.585591
H90	H	-1.087022	-0.230475	-0.659101
H91	H	-0.862229	0.296639	0.060344
O92	O	-0.392423	-0.247953	0.089341
H93	H	-0.411840	-0.278049	0.151226
H94	H	-0.547116	-0.228480	-0.089741
H95	H	-1.072906	-0.216320	-0.423984
O96	O	-1.122444	0.482081	-0.089494
H97	H	-1.166948	0.433694	-0.091901
H98	H	-0.859480	0.440283	0.060701
O99	O	-0.847804	0.447702	-0.079330
H100	H	-0.888738	0.494232	-0.119133
H101	H	-1.103924	0.328592	-0.087471
O102	O	-0.989786	0.463615	-0.167833
H103	H	-0.970521	0.406351	-0.207746
