data_functionalizedCrystal
_audit_creation_method	'MofGen! by Chris Wilmer'
_symmetry_space_group_name_H-M	'P1'
_symmetry_Int_Tables_number	1
_symmetry_cell_setting	triclinic
loop_
_symmetry_equiv_pos_as_xyz
  x,y,z
_cell_length_a	15.944551
_cell_length_b	15.944551
_cell_length_c	12.996460
_cell_angle_alpha	89.998907
_cell_angle_beta	90.001256
_cell_angle_gamma	96.501262
loop_
_atom_site_label
_atom_site_type_symbol
_atom_site_fract_x
_atom_site_fract_y
_atom_site_fract_z
O1	O	-0.108334	1.114525	-0.085448
O2	O	-0.121690	0.869976	-0.085472
O3	O	0.007263	0.998929	-0.085466
O4	O	-0.237287	0.985572	-0.085455
O5	O	0.007270	0.998915	0.085668
O6	O	-0.121683	0.869962	0.085661
O7	O	-0.108326	1.114512	0.085686
Cu8	Cu	-0.115004	0.992236	0.101299
Cu9	Cu	-0.115012	0.992252	-0.101086
O10	O	-0.237279	0.985559	0.085679
C11	C	-0.121132	0.838675	0.000091
C12	C	-0.119470	0.745429	0.000081
C13	C	-0.035565	0.530572	0.000098
C14	C	-0.074531	0.469559	-0.084279
C15	C	-0.116462	0.574703	0.000093
C16	C	-0.074543	0.469568	0.084446
C17	C	-0.113551	0.409790	0.000110
C18	C	-0.155450	0.514918	-0.084353
C19	C	-0.155451	0.514933	0.084448
C20	C	-0.194476	0.453937	0.000051
C21	C	-0.118137	0.669705	0.000083
C22	C	-0.111883	0.314789	0.000112
C23	C	-0.268577	0.986120	0.000113
C24	C	-0.361823	0.987782	0.000118
C25	C	-0.576680	1.071687	0.000111
C26	C	-0.637692	1.032718	0.084486
C27	C	-0.532549	0.990790	0.000109
C28	C	-0.637685	1.032712	-0.084239
C29	C	-0.697462	0.993700	0.000096
C30	C	-0.592333	0.951798	0.084554
C31	C	-0.592320	0.951804	-0.084247
C32	C	-0.653315	0.912776	0.000149
C33	C	-0.437547	0.989115	0.000118
C34	C	-0.792463	0.995369	0.000095
C35	C	0.038561	0.998367	0.000097
C36	C	0.131807	0.996705	0.000086
C37	C	-0.108885	1.145813	0.000120
C38	C	-0.110547	1.239059	0.000123
N39	N	-0.114997	0.992231	0.243646
N40	N	-0.115012	0.992263	-0.243433
C41	C	-0.115013	0.992251	0.663461
C42	C	-0.115012	0.992243	0.546656
C43	C	-0.115006	0.992241	0.453557
C44	C	-0.115003	0.992232	0.336745
H45	H	0.031573	0.563905	-0.000010
H46	H	-0.657796	1.066928	0.155825
F47	F	-0.663950	1.077461	-0.177469
H48	H	-0.543374	1.138836	0.000200
F49	F	-0.029815	0.443282	-0.177524
F50	F	-0.200144	0.541047	-0.177693
F51	F	-0.282319	0.410594	-0.000004
F52	F	-0.200134	0.541241	0.177695
H53	H	-0.040309	0.449476	0.155777
H54	H	-0.572339	0.917603	0.155963
H55	H	-0.572194	0.917622	-0.155590
H56	H	-0.686473	0.845569	0.000189
