data_functionalizedCrystal
_audit_creation_method	'MofGen! by Chris Wilmer'
_symmetry_space_group_name_H-M	'P1'
_symmetry_Int_Tables_number	1
_symmetry_cell_setting	triclinic
loop_
_symmetry_equiv_pos_as_xyz
  x,y,z
_cell_length_a	19.077105
_cell_length_b	16.120484
_cell_length_c	19.077174
_cell_angle_alpha	95.281307
_cell_angle_beta	85.483752
_cell_angle_gamma	90.738523
loop_
_atom_site_label
_atom_site_type_symbol
_atom_site_fract_x
_atom_site_fract_y
_atom_site_fract_z
Zn1	Zn	1.077028	-0.405078	-0.458497
Zn2	Zn	1.066713	-0.538658	-0.346101
Zn3	Zn	0.954893	-0.393424	-0.335415
Zn4	Zn	0.953609	-0.538603	-0.459216
O5	O	1.013061	-0.468941	-0.399807
O6	O	1.174108	-0.427698	-0.447758
O7	O	1.048100	-0.514538	-0.245834
O8	O	0.975948	-0.278308	-0.346969
O9	O	1.166530	-0.525838	-0.365181
O10	O	1.065680	-0.286870	-0.437397
O11	O	0.965946	-0.407835	-0.237983
O12	O	0.856274	-0.407782	-0.347667
O13	O	0.973761	-0.525745	-0.557970
O14	O	0.855331	-0.514445	-0.438623
O15	O	1.064436	-0.427645	-0.557441
O16	O	1.046856	-0.655312	-0.365879
O17	O	0.963759	-0.655272	-0.448984
C18	C	0.830276	-0.459844	-0.392064
C19	C	0.752080	-0.455973	-0.388769
C20	C	0.714864	-0.509765	-0.434509
C21	C	0.641391	-0.506117	-0.431416
C22	C	0.605135	-0.448680	-0.382579
C23	C	0.642355	-0.394883	-0.336836
C24	C	0.715827	-0.398527	-0.339933
C25	C	0.385448	-0.431813	-0.368249
C26	C	0.311971	-0.428174	-0.365154
C27	C	0.311012	-0.539408	-0.459734
C28	C	0.384485	-0.543051	-0.462824
C29	C	0.421700	-0.489250	-0.417085
N30	N	0.530033	-0.444952	-0.379414
N31	N	0.496800	-0.492975	-0.420253
C32	C	1.004068	-0.685543	-0.408685
C33	C	1.000287	-0.778211	-0.412510
C34	C	0.993387	-0.947877	-0.419507
C35	C	1.032861	-0.989171	-0.380125
C36	C	1.029022	-1.083579	-0.384018
C37	C	0.997225	-0.853460	-0.415614
C38	C	1.196559	-0.478074	-0.407581
C39	C	1.274755	-0.481966	-0.410894
C40	C	1.020106	-0.477989	-0.584053
C41	C	1.023108	-0.481845	-0.662568
C42	C	1.022108	-0.251494	-0.390911
C43	C	1.025963	-0.158832	-0.387120
C44	C	0.981747	-0.428103	-0.695366
C45	C	0.984565	-0.431733	-0.769139
C46	C	1.028748	-0.489101	-0.810112
C47	C	1.070110	-0.542848	-0.777309
C48	C	1.067288	-0.539222	-0.703537
C49	C	1.041771	-0.505907	-1.031184
C50	C	1.044591	-0.509528	-1.104961
C51	C	0.959044	-0.398413	-1.096786
C52	C	0.956230	-0.394788	-1.023013
C53	C	0.997589	-0.448538	-0.990216
N54	N	1.031631	-0.492811	-0.885520
N55	N	0.994702	-0.444832	-0.914810
C56	C	1.006086	-0.459870	-0.216277
C57	C	1.003230	-0.455786	-0.137759
H58	H	0.280704	-0.583208	-0.496974
C59	C	1.112782	-0.598340	-0.667453
C60	C	1.167575	-0.562480	-0.617592
C61	C	1.213064	-0.621605	-0.581507
C62	C	1.203761	-0.716589	-0.595284
C63	C	1.148966	-0.752454	-0.645147
C64	C	1.103476	-0.693330	-0.681232
H65	H	1.174464	-0.492163	-0.607392
H66	H	1.253628	-0.595055	-0.544595
H67	H	1.237435	-0.760357	-0.568572
H68	H	1.142077	-0.822772	-0.655347
H69	H	1.062913	-0.719880	-0.718144
H70	H	0.744379	-0.556538	-0.474275
C71	C	1.082407	-0.941150	-0.330619
C72	C	1.162134	-0.957186	-0.340303
C73	C	1.211674	-0.909160	-0.290798
C74	C	1.181487	-0.845098	-0.231609
C75	C	1.101755	-0.829059	-0.221922
C76	C	1.052215	-0.877085	-0.271428
H77	H	1.184484	-1.004611	-0.384121
H78	H	1.270697	-0.921033	-0.297968
H79	H	1.218159	-0.809546	-0.194962
H80	H	1.079405	-0.781634	-0.178105
H81	H	0.993192	-0.865212	-0.264257
C82	C	0.943836	-0.995896	-0.468999
C83	C	0.885070	-1.051614	-0.438421
C84	C	0.835518	-1.099646	-0.487910
C85	C	0.844732	-1.091960	-0.567978
C86	C	0.903500	-1.036239	-0.598560
C87	C	0.953052	-0.988208	-0.549071
H88	H	0.878247	-1.057306	-0.379146
H89	H	0.792014	-1.140894	-0.465271
H90	H	0.808051	-1.127516	-0.604613
H91	H	0.910324	-1.030547	-0.657835
H92	H	0.996557	-0.946960	-0.571710
H93	H	0.925371	-0.354653	-1.123497
C94	C	0.933144	-0.364996	-0.650299
C95	C	0.887645	-0.305885	-0.686380
C96	C	0.839040	-0.242778	-0.641315
C97	C	0.835933	-0.238782	-0.560169
C98	C	0.881434	-0.297896	-0.524083
C99	C	0.930039	-0.361002	-0.569148
H100	H	0.889943	-0.308841	-0.746453
H101	H	0.805357	-0.199018	-0.668029
H102	H	0.799952	-0.192067	-0.526809
H103	H	0.879136	-0.294940	-0.464010
H104	H	0.963722	-0.404762	-0.542435
H105	H	1.106081	-0.589563	-0.810675
C106	C	0.939071	-0.372607	-0.805214
C107	C	0.858424	-0.374916	-0.791955
C108	C	0.812929	-0.315785	-0.828028
C109	C	0.848081	-0.254347	-0.877359
C110	C	0.928733	-0.252036	-0.890620
C111	C	0.974228	-0.311166	-0.854547
H112	H	0.832398	-0.420398	-0.755435
H113	H	0.753224	-0.317496	-0.818211
H114	H	0.814403	-0.210575	-0.904062
H115	H	0.954759	-0.206553	-0.927140
H116	H	1.033932	-0.309455	-0.864364
C117	C	1.093182	-0.572640	-1.150046
C118	C	1.061891	-0.639043	-1.202152
C119	C	1.110475	-0.702150	-1.247243
C120	C	1.190350	-0.698855	-1.240229
C121	C	1.221646	-0.632449	-1.188121
C122	C	1.173062	-0.569342	-1.143030
H123	H	1.002758	-0.641485	-1.207346
H124	H	1.087307	-0.751308	-1.285817
H125	H	1.226315	-0.745570	-1.273608
H126	H	1.280778	-0.630007	-1.182927
H127	H	1.196229	-0.520184	-1.104456
C128	C	1.087285	-0.565025	-0.995130
C129	C	1.167930	-0.562681	-1.008404
C130	C	1.213454	-0.621801	-0.972354
C131	C	1.178333	-0.683266	-0.923029
C132	C	1.097684	-0.685613	-0.909751
C133	C	1.052159	-0.626493	-0.945802
H134	H	1.193933	-0.517178	-1.044920
H135	H	1.273157	-0.620063	-0.982183
H136	H	1.212033	-0.727031	-0.896342
H137	H	1.071681	-0.731116	-0.873236
H138	H	0.992457	-0.628231	-0.935973
H139	H	0.282453	-0.381393	-0.325388
C140	C	0.756766	-0.339355	-0.289617
C141	C	0.803651	-0.375152	-0.237714
C142	C	0.844588	-0.315974	-0.187398
C143	C	0.838640	-0.221000	-0.188986
C144	C	0.791753	-0.185199	-0.240891
C145	C	0.750816	-0.244377	-0.291206
H146	H	0.808056	-0.445462	-0.236537
H147	H	0.879297	-0.342477	-0.148975
H148	H	0.868944	-0.177194	-0.151739
H149	H	0.787348	-0.114889	-0.242068
H150	H	0.716107	-0.217873	-0.329630
H151	H	0.611094	-0.549920	-0.468662
H152	H	0.414000	-0.589823	-0.502591
C153	C	0.426368	-0.372648	-0.317916
C154	C	0.420417	-0.277671	-0.319480
C155	C	0.461336	-0.218508	-0.269137
C156	C	0.508207	-0.254322	-0.217231
C157	C	0.514160	-0.349304	-0.215665
C158	C	0.473241	-0.408467	-0.266008
H159	H	0.385719	-0.251155	-0.357906
H160	H	0.456929	-0.148197	-0.270297
H161	H	0.538498	-0.210526	-0.179964
H162	H	0.548858	-0.375820	-0.177238
H163	H	0.477648	-0.478779	-0.264848
H164	H	0.920249	-0.348075	-0.989657
H165	H	0.612829	-0.348113	-0.297075
