data_functionalizedCrystal
_audit_creation_method	'MofGen! by Chris Wilmer'
_symmetry_space_group_name_H-M	'P1'
_symmetry_Int_Tables_number	1
_symmetry_cell_setting	triclinic
loop_
_symmetry_equiv_pos_as_xyz
  x,y,z
_cell_length_a	18.101398
_cell_length_b	18.101397
_cell_length_c	16.120297
_cell_angle_alpha	87.128245
_cell_angle_beta	87.112267
_cell_angle_gamma	90.015323
loop_
_atom_site_label
_atom_site_type_symbol
_atom_site_fract_x
_atom_site_fract_y
_atom_site_fract_z
Zn1	Zn	1.110963	-0.316158	0.471180
Zn2	Zn	1.610963	0.183842	0.971180
Zn3	Zn	1.117161	-0.433722	0.331766
Zn4	Zn	1.617161	0.066278	0.831766
Zn5	Zn	0.993398	-0.309891	0.331805
Zn6	Zn	1.493398	0.190109	0.831805
Zn7	Zn	0.987098	-0.439951	0.471156
Zn8	Zn	1.487098	0.060049	0.971156
O9	O	1.052155	-0.374930	0.401477
O10	O	1.552155	0.125070	0.901477
O11	O	1.215418	-0.331768	0.452680
O12	O	1.715418	0.168232	0.952680
O13	O	1.105973	-0.412065	0.215108
O14	O	1.605973	0.087935	0.715108
O15	O	1.009035	-0.207090	0.350319
O16	O	1.509035	0.292910	0.850319
O17	O	1.219972	-0.418142	0.350254
O18	O	1.719972	0.081858	0.850254
O19	O	1.095410	-0.211695	0.452717
O20	O	1.595410	0.288305	0.952717
O21	O	1.015045	-0.321087	0.215136
O22	O	1.515045	0.178913	0.715136
O23	O	0.888929	-0.327128	0.350296
O24	O	1.388929	0.172872	0.850296
O25	O	0.998299	-0.428759	0.587822
O26	O	1.498299	0.071241	1.087822
O27	O	0.884301	-0.422683	0.452676
O28	O	1.384301	0.077317	0.952676
O29	O	1.089302	-0.337809	0.587840
O30	O	1.589302	0.162191	1.087840
O31	O	1.099865	-0.538180	0.350231
O32	O	1.599865	-0.038180	0.850231
O33	O	1.004309	-0.542756	0.452639
O34	O	1.504309	-0.042756	0.952639
C35	C	1.052095	-0.567339	0.401446
C36	C	1.552095	-0.067339	0.901446
C37	C	1.052136	-0.649654	0.401461
C38	C	1.552136	-0.149654	0.901461
C39	C	0.859744	-0.374902	0.401488
C40	C	1.359744	0.125098	0.901488
C41	C	0.777429	-0.374908	0.401513
C42	C	1.277429	0.125092	0.901513
C43	C	1.052180	-0.800364	0.401490
C44	C	1.552180	-0.300364	0.901490
C45	C	1.112355	-0.828810	0.337119
C46	C	1.612355	-0.328810	0.837119
C47	C	1.112223	-0.914418	0.336883
C48	C	1.612223	-0.414418	0.836883
C49	C	1.052224	-0.948748	0.401517
C50	C	1.552224	-0.448748	0.901517
C51	C	0.975186	-0.916660	0.377883
C52	C	1.475186	-0.416660	0.877883
C53	C	0.975513	-0.830993	0.377400
C54	C	1.475513	-0.330993	0.877400
C55	C	1.068362	-0.835833	0.489662
C56	C	1.568362	-0.335833	0.989662
C57	C	1.070130	-0.921463	0.489208
C58	C	1.570130	-0.421463	0.989208
C59	C	1.052244	-1.032608	0.401535
C60	C	1.552244	-0.532608	0.901535
C61	C	1.052154	-0.716504	0.401470
C62	C	1.552154	-0.216504	0.901470
C63	C	0.478339	-0.374950	0.401478
C64	C	0.978339	0.125050	0.901478
C65	C	0.506791	-0.435333	0.465575
C66	C	1.006791	0.064667	0.965575
C67	C	0.592398	-0.435165	0.465839
C68	C	1.092398	0.064835	0.965839
C69	C	0.626721	-0.374930	0.401495
C70	C	1.126721	0.125070	0.901495
C71	C	0.594570	-0.298010	0.425505
C72	C	1.094570	0.201990	0.925505
C73	C	0.508904	-0.298376	0.425961
C74	C	1.008904	0.201624	0.925961
C75	C	0.513865	-0.390793	0.313217
C76	C	1.013865	0.109207	0.813217
C77	C	0.599494	-0.392526	0.313689
C78	C	1.099494	0.107474	0.813689
C79	C	0.710580	-0.374914	0.401504
C80	C	1.210580	0.125086	0.901504
C81	C	0.394480	-0.374961	0.401472
C82	C	0.894480	0.125039	0.901472
C83	C	1.245317	-0.374960	0.401465
C84	C	1.745317	0.125040	0.901465
C85	C	1.327631	-0.374972	0.401461
C86	C	1.827631	0.125028	0.901461
C87	C	1.042406	-0.384678	0.618927
C88	C	1.542406	0.115322	1.118927
C89	C	1.038252	-0.388832	0.711591
C90	C	1.538252	0.111168	1.211591
C91	C	1.052234	-0.181771	0.401525
C92	C	1.552234	0.318229	0.901525
C93	C	1.052268	-0.099457	0.401546
C94	C	1.552268	0.400543	0.901546
C95	C	1.061908	-0.365167	0.184872
C96	C	1.561908	0.134833	0.684872
C97	C	1.066206	-0.360804	0.092208
C98	C	1.566206	0.139196	0.592208
C99	C	1.030640	-0.396400	0.881250
C100	C	1.530640	0.103600	1.381250
C101	C	1.073816	-0.353239	0.922555
C102	C	1.573816	0.146761	1.422555
C103	C	1.069580	-0.357450	1.016959
C104	C	1.569580	0.142550	1.516959
C105	C	1.034874	-0.392190	0.786837
C106	C	1.534874	0.107810	1.286837
H107	H	1.169466	-0.936056	0.351644
H108	H	1.669466	-0.436056	0.851644
C109	C	0.478001	-0.279600	0.513123
C110	C	0.978001	0.220400	1.013123
H111	H	0.425478	-0.279655	0.514168
H112	H	0.925478	0.220345	1.014168
H113	H	0.494330	-0.315488	0.553118
H114	H	0.994330	0.184512	1.053118
H115	H	0.495125	-0.232065	0.525850
H116	H	0.995125	0.267935	1.025850
H117	H	1.113959	-0.313125	0.887018
H118	H	1.613959	0.186875	1.387018
C119	C	1.189923	-0.801808	0.356810
C120	C	1.689923	-0.301808	0.856810
H121	H	1.186308	-0.772941	0.404462
H122	H	1.686308	-0.272941	0.904462
H123	H	1.220877	-0.843234	0.367389
H124	H	1.720877	-0.343234	0.867389
H125	H	1.210435	-0.772572	0.310728
H126	H	1.710435	-0.272572	0.810728
H127	H	0.990499	-0.436510	0.916785
H128	H	1.490499	0.063490	1.416785
C129	C	0.473787	-0.421798	0.553411
C130	C	0.973787	0.078202	1.053411
H131	H	0.442745	-0.379507	0.551191
H132	H	0.942745	0.120493	1.051191
H133	H	0.445616	-0.463742	0.573797
H134	H	0.945616	0.036258	1.073797
H135	H	0.512643	-0.413780	0.589433
H136	H	1.012643	0.086220	1.089433
C137	C	1.098489	-0.795853	0.249362
C138	C	1.598489	-0.295853	0.749362
H139	H	1.056184	-0.764836	0.251781
H140	H	1.556184	-0.264836	0.751781
H141	H	1.140357	-0.767665	0.228772
H142	H	1.640357	-0.267665	0.728772
H143	H	1.090355	-0.834731	0.213396
H144	H	1.590355	-0.334731	0.713396
H145	H	1.101823	-0.932014	0.271559
H146	H	1.601823	-0.432014	0.771559
C147	C	0.616123	-0.421432	0.554179
C148	C	1.116123	0.078568	1.054179
H149	H	0.668584	-0.421291	0.554645
H150	H	1.168584	0.078709	1.054645
H151	H	0.597641	-0.374993	0.570623
H152	H	1.097641	0.125007	1.070623
H153	H	0.596788	-0.459553	0.591772
H154	H	1.096788	0.040447	1.091772
C155	C	0.956406	-0.800152	0.290340
C156	C	1.456406	-0.300152	0.790340
H157	H	0.948521	-0.839992	0.255599
H158	H	1.448521	-0.339992	0.755599
H159	H	0.912789	-0.771139	0.294683
H160	H	1.412789	-0.271139	0.794683
H161	H	0.996132	-0.770306	0.267019
H162	H	1.496132	-0.270306	0.767019
C163	C	0.913162	-0.805709	0.437999
C164	C	1.413162	-0.305709	0.937999
H165	H	0.887739	-0.847791	0.462798
H166	H	1.387739	-0.347791	0.962798
H167	H	0.933754	-0.778407	0.480081
H168	H	1.433754	-0.278407	0.980081
H169	H	0.879514	-0.775342	0.408495
H170	H	1.379514	-0.275342	0.908495
H171	H	0.620625	-0.449108	0.295581
H172	H	1.120625	0.050892	0.795581
H173	H	0.929314	-0.939060	0.423335
H174	H	1.429314	-0.439060	0.923335
C175	C	0.621695	-0.512390	0.445520
C176	C	1.121695	-0.012390	0.945520
H177	H	0.581264	-0.544149	0.437034
H178	H	1.081264	-0.044149	0.937034
H179	H	0.653152	-0.508564	0.396511
H180	H	1.153152	-0.008564	0.896511
H181	H	0.648732	-0.532108	0.490497
H182	H	1.148732	-0.032108	0.990497
H183	H	0.960721	-0.935291	0.314153
H184	H	1.460721	-0.435291	0.814153
H185	H	1.123360	-0.815154	0.511206
H186	H	1.623360	-0.315154	1.011206
C187	C	0.479858	-0.512824	0.445485
C188	C	0.979858	-0.012824	0.945485
H189	H	0.451014	-0.509049	0.397831
H190	H	0.951014	-0.009049	0.897831
H191	H	0.521312	-0.543711	0.434764
H192	H	1.021312	-0.043711	0.934764
H193	H	0.450611	-0.533516	0.491466
H194	H	0.950611	-0.033516	0.991466
H195	H	0.623152	-0.351422	0.263367
H196	H	1.123152	0.148578	0.763367
H197	H	0.616962	-0.251973	0.380276
H198	H	1.116962	0.248027	0.880276
C199	C	1.146536	-0.950226	0.513469
C200	C	1.646536	-0.450226	1.013469
H201	H	1.167457	-0.978716	0.470326
H202	H	1.667457	-0.478716	0.970326
H203	H	1.178117	-0.909583	0.521622
H204	H	1.678117	-0.409583	1.021622
H205	H	1.141122	-0.980230	0.563474
H206	H	1.641122	-0.480230	1.063474
H207	H	1.029211	-0.945122	0.539727
H208	H	1.529211	-0.445122	1.039727
H209	H	1.024490	-0.817718	0.537621
H210	H	1.524490	-0.317718	1.037621
C211	C	0.483610	-0.235820	0.365659
C212	C	0.983610	0.264180	0.865659
H213	H	0.525686	-0.210293	0.340996
H214	H	1.025686	0.289707	0.840996
H215	H	0.456340	-0.256257	0.323453
H216	H	0.956340	0.243743	0.823453
H217	H	0.453208	-0.202306	0.395338
H218	H	0.953208	0.297694	0.895338
H219	H	0.613157	-0.283771	0.489326
H220	H	1.113157	0.216229	0.989326
H221	H	0.493245	-0.445716	0.291398
H222	H	0.993245	0.054284	0.791398
C223	C	0.489377	-0.331327	0.248694
C224	C	0.989377	0.168673	0.748694
H225	H	0.457659	-0.297006	0.275368
H226	H	0.957659	0.202994	0.775368
H227	H	0.531656	-0.306112	0.224095
H228	H	1.031656	0.193888	0.724095
H229	H	0.463686	-0.354179	0.206821
H230	H	0.963686	0.145821	0.706821
