data_functionalizedCrystal
_audit_creation_method	'MofGen! by Chris Wilmer'
_symmetry_space_group_name_H-M	'P1'
_symmetry_Int_Tables_number	1
_symmetry_cell_setting	triclinic
loop_
_symmetry_equiv_pos_as_xyz
  x,y,z
_cell_length_a	19.288867
_cell_length_b	16.109304
_cell_length_c	15.186229
_cell_angle_alpha	90.009166
_cell_angle_beta	90.006446
_cell_angle_gamma	83.299853
loop_
_atom_site_label
_atom_site_type_symbol
_atom_site_fract_x
_atom_site_fract_y
_atom_site_fract_z
O1	O	0.921598	0.103731	0.073192
O2	O	1.421598	0.603731	0.573192
O3	O	0.719372	0.117720	0.073200
O4	O	1.219372	0.617720	0.573200
O5	O	0.826039	-0.010324	0.073197
O6	O	1.326039	0.489676	0.573197
O7	O	0.814931	0.231775	0.073196
O8	O	1.314931	0.731775	0.573196
O9	O	0.826025	-0.010345	-0.073261
O10	O	1.326025	0.489655	0.426739
O11	O	0.719357	0.117700	-0.073257
O12	O	1.219357	0.617700	0.426743
O13	O	0.921584	0.103710	-0.073265
O14	O	1.421584	0.603710	0.426735
Zn15	Zn	0.820468	0.110702	-0.096514
Zn16	Zn	1.320468	0.610702	0.403486
Zn17	Zn	0.820487	0.110729	0.096450
Zn18	Zn	1.320487	0.610729	0.596450
O19	O	0.814916	0.231755	-0.073261
O20	O	1.314916	0.731755	0.426739
C21	C	0.693487	0.117259	-0.000027
C22	C	1.193487	0.617259	0.499973
C23	C	0.616380	0.115907	-0.000024
C24	C	1.116380	0.615907	0.499976
C25	C	0.060799	0.106180	0.079800
C26	C	0.560799	0.606180	0.579800
C27	C	0.133250	0.107445	0.079803
C28	C	0.633250	0.607445	0.579803
C29	C	0.169472	0.108071	-0.000031
C30	C	0.669472	0.608071	0.499969
C31	C	0.133240	0.107409	-0.079874
C32	C	0.633240	0.607409	0.420126
C33	C	0.060792	0.106135	-0.079875
C34	C	0.560792	0.606135	0.420125
C35	C	0.278915	0.158775	-0.061194
C36	C	0.778915	0.658775	0.438806
C37	C	0.351361	0.160054	-0.061190
C38	C	0.851361	0.660054	0.438810
C39	C	0.392927	0.111996	-0.000031
C40	C	0.892927	0.611996	0.499969
C41	C	0.362037	0.062669	0.061138
C42	C	0.862037	0.562669	0.561138
C43	C	0.289588	0.061395	0.061137
C44	C	0.789588	0.561395	0.561137
C45	C	0.248030	0.109451	-0.000039
C46	C	0.748030	0.609451	0.499961
C47	C	0.507710	0.114023	0.079810
C48	C	1.007710	0.614023	0.579810
C49	C	0.580163	0.115283	0.079810
C50	C	1.080163	0.615283	0.579810
C51	C	0.580151	0.115256	-0.079869
C52	C	1.080151	0.615256	0.420131
C53	C	0.507700	0.113987	-0.079866
C54	C	1.007700	0.613987	0.420134
C55	C	0.471484	0.113375	-0.000024
C56	C	0.971484	0.613375	0.499976
C57	C	0.825582	-0.041308	-0.000030
C58	C	1.325582	0.458692	0.499970
C59	C	0.824232	-0.133598	-0.000024
C60	C	1.324232	0.366402	0.499976
C61	C	0.821120	-0.345914	0.079807
C62	C	1.321120	0.154086	0.579807
C63	C	0.819845	-0.432630	0.079806
C64	C	1.319845	0.067370	0.579806
C65	C	0.819833	-0.432649	-0.079870
C66	C	1.319833	0.067351	0.420130
C67	C	0.821103	-0.345934	-0.079868
C68	C	1.321103	0.154066	0.420132
C69	C	0.821750	-0.302569	-0.000027
C70	C	1.321750	0.197431	0.499973
C71	C	0.819205	-0.476000	-0.000030
C72	C	1.319205	0.024000	0.499970
C73	C	0.817823	-0.570021	-0.000031
C74	C	1.317823	-0.070021	0.499969
C75	C	0.823131	-0.208542	-0.000025
C76	C	1.323131	0.291458	0.499975
C77	C	0.947469	0.104171	-0.000035
C78	C	1.447469	0.604171	0.499965
C79	C	1.024575	0.105523	-0.000033
C80	C	1.524575	0.605523	0.499967
C81	C	0.815374	0.262738	-0.000033
C82	C	1.315374	0.762738	0.499967
C83	C	0.816724	0.355029	-0.000033
C84	C	1.316724	0.855029	0.499967
N85	N	0.820460	0.110683	-0.228207
N86	N	1.320460	0.610683	0.271793
C87	C	0.778370	0.060423	-0.546157
C88	C	1.278370	0.560423	-0.046157
C89	C	0.778364	0.060411	-0.453968
C90	C	1.278364	0.560411	0.046032
C91	C	0.862596	0.161002	-0.453914
C92	C	1.362596	0.661002	0.046086
C93	C	0.862605	0.161009	-0.546102
C94	C	1.362605	0.661009	-0.046102
C95	C	0.820488	0.110721	-0.592221
C96	C	1.320488	0.610721	-0.092221
C97	C	0.820473	0.110702	-0.407844
C98	C	1.320473	0.610702	0.092156
C99	C	0.820467	0.110690	-0.307887
C100	C	1.320467	0.610690	0.192113
C101	C	0.820495	0.110733	-0.692184
C102	C	1.320495	0.610733	-0.192184
N103	N	0.820501	0.110741	0.228142
N104	N	1.320501	0.610741	0.728142
H105	H	0.162749	0.107985	0.144814
H106	H	0.662749	0.607985	0.644814
H107	H	0.264440	0.021231	0.110941
H108	H	0.764440	0.521231	0.610941
Br109	Br	0.821997	-0.287064	0.188161
Br110	Br	1.321997	0.212936	0.688161
H111	H	0.744068	0.019453	-0.416466
H112	H	1.244068	0.519453	0.083534
Br113	Br	0.222512	0.223989	-0.144214
Br114	Br	0.722512	0.723989	0.355786
H115	H	0.821612	-0.310642	-0.144883
H116	H	1.321612	0.189358	0.355117
H117	H	0.031317	0.105678	0.144813
H118	H	0.531317	0.605678	0.644813
H119	H	0.819331	-0.467917	0.144815
H120	H	1.319331	0.032083	0.644815
Br121	Br	0.919775	0.229270	-0.608623
Br122	Br	1.419775	0.729270	-0.108623
Br123	Br	0.458556	0.113188	0.188164
Br124	Br	0.958556	0.613188	0.688164
Br125	Br	0.818953	-0.491506	-0.188220
Br126	Br	1.318953	0.008494	0.311780
H127	H	0.744076	0.019475	-0.583705
H128	H	1.244076	0.519475	-0.083705
H129	H	0.896885	0.201946	-0.416352
H130	H	1.396885	0.701946	0.083648
H131	H	0.609656	0.115812	0.144822
H132	H	1.109656	0.615812	0.644822
Br133	Br	0.629303	0.116086	-0.188217
Br134	Br	1.129303	0.616086	0.311783
Br135	Br	0.418437	-0.002551	0.144151
Br136	Br	0.918437	0.497449	0.644151
H137	H	0.478206	0.113455	-0.144874
H138	H	0.978206	0.613455	0.355126
H139	H	0.162737	0.107917	-0.144875
H140	H	0.662737	0.607917	0.355125
Br141	Br	0.393276	0.227005	-0.144194
Br142	Br	0.893276	0.727005	0.355806
H143	H	0.031298	0.105604	-0.144886
H144	H	0.531298	0.605604	0.355114
