data_functionalizedCrystal
_audit_creation_method	'MofGen! by Chris Wilmer'
_symmetry_space_group_name_H-M	'P1'
_symmetry_Int_Tables_number	1
_symmetry_cell_setting	triclinic
loop_
_symmetry_equiv_pos_as_xyz
  x,y,z
_cell_length_a	16.625546
_cell_length_b	19.805407
_cell_length_c	19.805399
_cell_angle_alpha	90.019197
_cell_angle_beta	89.972133
_cell_angle_gamma	89.981382
loop_
_atom_site_label
_atom_site_type_symbol
_atom_site_fract_x
_atom_site_fract_y
_atom_site_fract_z
Zn1	Zn	-0.321103	-1.034754	-0.382711
Zn2	Zn	-0.455940	-1.034677	-0.269523
Zn3	Zn	-0.321116	-0.921569	-0.269537
Zn4	Zn	-0.455888	-0.921540	-0.382670
O5	O	-0.388512	-0.978135	-0.326110
O6	O	-0.339006	-1.129460	-0.367708
O7	O	-0.438083	-1.019652	-0.174808
O8	O	-0.208282	-0.936628	-0.284573
O9	O	-0.438070	-1.129404	-0.284549
O10	O	-0.208272	-1.019784	-0.367722
O11	O	-0.339028	-0.936552	-0.174818
O12	O	-0.338978	-0.826848	-0.284533
O13	O	-0.437982	-0.936579	-0.477392
O14	O	-0.437994	-0.826827	-0.367651
O15	O	-0.338955	-1.019756	-0.477423
O16	O	-0.568766	-1.019625	-0.284509
O17	O	-0.568728	-0.936504	-0.367638
C18	C	-0.388483	-0.802279	-0.326090
C19	C	-0.388489	-0.727047	-0.326097
C20	C	-0.336997	-0.691733	-0.369463
C21	C	-0.336999	-0.621045	-0.369464
C22	C	-0.388499	-0.585671	-0.326101
C23	C	-0.439994	-0.620990	-0.282731
C24	C	-0.439987	-0.691677	-0.282727
C25	C	-0.440023	-0.335917	-0.282744
C26	C	-0.440028	-0.265225	-0.282753
C27	C	-0.337036	-0.265284	-0.369481
C28	C	-0.337029	-0.335971	-0.369478
C29	C	-0.388520	-0.371284	-0.326104
C30	C	-0.388516	-0.447932	-0.326103
C31	C	-0.388508	-0.509024	-0.326106
C32	C	-0.598003	-0.978071	-0.326082
C33	C	-0.687624	-0.978105	-0.326092
C34	C	-1.015800	-0.978224	-0.326163
C35	C	-0.924491	-0.978189	-0.326145
C36	C	-0.851715	-0.978164	-0.326127
C37	C	-0.760400	-0.978130	-0.326110
C38	C	-0.178203	-0.978218	-0.326154
C39	C	-0.088582	-0.978253	-0.326172
C40	C	-0.388461	-0.978173	-0.502653
C41	C	-0.388440	-0.978189	-0.577885
C42	C	-0.388536	-0.154678	-0.326125
C43	C	-0.388531	-0.229910	-0.326116
C44	C	-0.336874	-1.021501	-0.613246
C45	C	-0.336851	-1.021508	-0.683935
C46	C	-0.388398	-0.978206	-0.719261
C47	C	-0.439965	-0.934889	-0.683895
C48	C	-0.439984	-0.934880	-0.613208
C49	C	-0.439890	-0.934928	-0.968968
C50	C	-0.439869	-0.934942	-1.039660
C51	C	-0.336757	-1.021556	-1.039695
C52	C	-0.336776	-1.021546	-0.969008
C53	C	-0.388340	-0.978227	-0.933648
C54	C	-0.388364	-0.978219	-0.857000
C55	C	-0.388379	-0.978217	-0.795908
C56	C	-0.388504	-0.978136	-0.150254
C57	C	-0.388299	-0.978251	-0.075023
H58	H	-0.295095	-0.364769	-0.404790
H59	H	-0.481889	-0.899665	-0.940187
H60	H	-0.481846	-0.899678	-1.068421
H61	H	-0.294804	-1.056809	-0.940249
H62	H	-0.295106	-0.236524	-0.404795
H63	H	-0.481967	-0.236426	-0.247440
H64	H	-0.481933	-0.899630	-0.712663
C65	C	-0.280031	-1.069202	-1.078593
H66	H	-0.287393	-1.063003	-1.125751
H67	H	-0.291845	-1.114672	-1.067014
H68	H	-0.225854	-1.059314	-1.067016
H69	H	-0.295062	-0.720529	-0.404775
C70	C	-0.280168	-1.069130	-0.574394
H71	H	-0.249448	-1.094920	-0.605580
H72	H	-0.311018	-1.098607	-0.546815
H73	H	-0.245037	-1.043241	-0.546824
C74	C	-0.280133	-1.069154	-0.722829
H75	H	-0.249444	-1.094948	-0.691666
H76	H	-0.244985	-1.043284	-0.750407
H77	H	-0.310982	-1.098637	-0.750403
C78	C	-0.496726	-0.887254	-0.574310
H79	H	-0.527433	-0.861474	-0.605472
H80	H	-0.465901	-0.857766	-0.546728
H81	H	-0.531867	-0.913145	-0.546741
H82	H	-0.481951	-0.364660	-0.247428
H83	H	-0.295071	-0.592295	-0.404778
C84	C	-0.496643	-0.582082	-0.235034
H85	H	-0.489280	-0.534925	-0.241252
H86	H	-0.484773	-0.593649	-0.189574
H87	H	-0.550835	-0.593661	-0.244863
C88	C	-0.496635	-0.730523	-0.235030
H89	H	-0.527314	-0.699333	-0.209210
H90	H	-0.465746	-0.758095	-0.205583
H91	H	-0.531806	-0.758098	-0.260874
