data_functionalizedCrystal
_audit_creation_method	'MofGen! by Chris Wilmer'
_symmetry_space_group_name_H-M	'P1'
_symmetry_Int_Tables_number	1
_symmetry_cell_setting	triclinic
loop_
_symmetry_equiv_pos_as_xyz
  x,y,z
_cell_length_a	9.130313
_cell_length_b	19.288864
_cell_length_c	19.288857
_cell_angle_alpha	96.865323
_cell_angle_beta	89.996614
_cell_angle_gamma	90.014070
loop_
_atom_site_label
_atom_site_type_symbol
_atom_site_fract_x
_atom_site_fract_y
_atom_site_fract_z
O1	O	-0.122276	-0.921342	0.086645
O2	O	-0.122177	-0.719081	0.098334
O3	O	-0.122212	-0.826059	-0.008641
O4	O	-0.122241	-0.814364	0.193620
O5	O	0.121387	-0.826057	-0.008639
O6	O	0.121422	-0.719080	0.098337
O7	O	0.121323	-0.921341	0.086648
Cu8	Cu	0.143615	-0.820210	0.092492
Cu9	Cu	-0.144469	-0.820212	0.092489
O10	O	0.121358	-0.814363	0.193623
C11	C	-0.000364	-0.693204	0.097959
C12	C	-0.000326	-0.616100	0.096830
N13	N	0.346238	-0.820214	0.092494
N14	N	-0.347091	-0.820213	0.092482
C15	C	0.422874	-0.867596	0.045142
C16	C	0.576211	-0.867594	0.045133
C17	C	0.576261	-0.772826	0.139837
C18	C	0.422927	-0.772826	0.139841
C19	C	0.422846	-0.922311	-0.009532
C20	C	0.576183	-0.922309	-0.009541
C21	C	-0.000411	-0.825683	-0.034516
C22	C	-0.000406	-0.824556	-0.111620
C23	C	-0.000493	-0.947218	0.087022
C24	C	-0.000541	-1.024321	0.088151
C25	C	-0.000358	-0.571402	0.159598
C26	C	-0.000374	-0.498955	0.158537
C27	C	-0.000387	-0.471209	0.094705
C28	C	-0.000347	-0.515917	0.031929
C29	C	-0.000316	-0.588363	0.032991
C30	C	-0.085773	-0.362949	0.044525
C31	C	-0.085812	-0.290505	0.043465
C32	C	-0.000475	-0.247764	0.091425
C33	C	0.084882	-0.277475	0.140458
C34	C	0.084913	-0.349920	0.141520
C35	C	-0.000420	-0.392656	0.093546
C36	C	-0.000523	-0.124510	0.153048
C37	C	-0.000530	-0.052062	0.151984
C38	C	-0.000517	-0.069026	0.025374
C39	C	-0.000496	-0.141472	0.026439
C40	C	-0.000505	-0.169210	0.090278
C41	C	-0.133191	-0.824031	-0.147833
C42	C	-0.133202	-0.822962	-0.220279
C43	C	-0.000419	-0.822432	-0.256511
C44	C	0.132384	-0.822954	-0.220290
C45	C	0.132391	-0.824015	-0.147844
C46	C	0.101281	-0.861433	-0.376742
C47	C	0.101269	-0.860376	-0.449187
C48	C	-0.000434	-0.819155	-0.479957
C49	C	-0.102150	-0.779000	-0.438276
C50	C	-0.102143	-0.780061	-0.365830
C51	C	-0.000411	-0.821281	-0.335066
C52	C	-0.133240	-0.817470	-0.594724
C53	C	-0.133245	-0.816397	-0.667170
C54	C	0.132345	-0.816395	-0.667181
C55	C	0.132346	-0.817461	-0.594735
C56	C	-0.000451	-0.818002	-0.558511
C57	C	-0.000446	-0.814739	0.219498
C58	C	-0.000461	-0.815866	0.296602
H59	H	0.360531	-0.734238	0.178393
H60	H	-0.184966	-0.745433	-0.463327
F61	F	-0.000354	-0.486387	-0.036006
H62	H	-0.241325	-0.824468	-0.118343
F63	F	-0.000556	-0.004490	0.218795
F64	F	-0.000364	-0.600918	0.227541
H65	H	-0.000509	-0.147095	0.205029
F66	F	-0.000282	-0.635936	-0.033818
F67	F	0.368458	-0.907637	-0.079136
F68	F	-0.210389	-0.737325	-0.321472
H69	H	0.623747	-0.906031	-0.059798
F70	F	-0.274536	-0.822402	-0.258826
H71	H	0.375260	-0.972545	0.006789
H72	H	-0.241371	-0.817906	-0.565228
F73	F	-0.274582	-0.815833	-0.705709
H74	H	0.240460	-0.815959	-0.696681
H75	H	0.617771	-0.975550	0.001729
F76	F	0.273677	-0.818020	-0.556194
H77	H	-0.000396	-0.462555	0.209652
H78	H	0.638719	-0.734244	0.178384
H79	H	-0.155322	-0.266320	0.003543
F80	F	-0.000517	-0.039502	-0.042562
H81	H	-0.155273	-0.397744	0.005468
F82	F	0.209518	-0.903115	-0.493541
F83	F	0.273701	-0.822386	-0.258852
F84	F	0.209510	-0.905324	-0.344003
F85	F	0.175759	-0.381539	0.193700
H86	H	0.154373	-0.242676	0.179511
H87	H	0.240524	-0.824440	-0.118361
H88	H	-0.000478	-0.177867	-0.024674
