data_functionalizedCrystal
_audit_creation_method	'MofGen! by Chris Wilmer'
_symmetry_space_group_name_H-M	'P1'
_symmetry_Int_Tables_number	1
_symmetry_cell_setting	triclinic
loop_
_symmetry_equiv_pos_as_xyz
  x,y,z
_cell_length_a	17.038272
_cell_length_b	17.019294
_cell_length_c	8.965430
_cell_angle_alpha	86.121451
_cell_angle_beta	90.001545
_cell_angle_gamma	87.244363
loop_
_atom_site_label
_atom_site_type_symbol
_atom_site_fract_x
_atom_site_fract_y
_atom_site_fract_z
O1	O	1.037220	0.171280	-0.145849
O2	O	0.809592	0.168560	-0.145544
O3	O	0.929756	0.055514	-0.130993
O4	O	0.917056	0.284326	-0.160399
O5	O	0.929746	0.055521	0.117085
O6	O	0.809582	0.168567	0.102534
O7	O	1.037210	0.171287	0.102229
Cu8	Cu	0.923395	0.169928	0.125033
Cu9	Cu	0.923407	0.169919	-0.168348
O10	O	0.917046	0.284333	0.087679
C11	C	0.780461	0.166090	-0.021192
C12	C	0.693674	0.158710	-0.020261
C13	C	0.929269	0.026096	-0.003177
C14	C	0.927825	-0.061571	0.008079
C15	C	0.643502	0.226470	-0.028968
C16	C	0.561957	0.219530	-0.028056
C17	C	0.530586	0.144830	-0.018447
C18	C	0.580765	0.077065	-0.009735
C19	C	0.662308	0.084005	-0.010637
C20	C	0.284849	0.120313	-0.015256
C21	C	0.203300	0.113378	-0.014359
C22	C	0.184498	0.255843	-0.032678
C23	C	0.266043	0.262777	-0.033588
C24	C	0.316215	0.195012	-0.024868
C25	C	0.447235	0.137736	-0.017519
C26	C	0.399565	0.202107	-0.025785
C27	C	0.927153	-0.102756	-0.121859
C28	C	0.925791	-0.185128	-0.111278
C29	C	0.925105	-0.226314	0.029242
C30	C	0.925775	-0.185122	0.159190
C31	C	0.927131	-0.102751	0.148608
C32	C	0.921003	-0.475020	0.067959
C33	C	0.919649	-0.557397	0.078531
C34	C	0.919664	-0.557397	-0.191938
C35	C	0.921025	-0.475025	-0.202508
C36	C	0.921690	-0.433840	-0.072560
C37	C	0.923715	-0.310511	0.040061
C38	C	0.923075	-0.349644	-0.083380
C39	C	1.066341	0.173757	-0.022125
C40	C	1.153128	0.181137	-0.023067
C41	C	0.917533	0.313751	-0.040141
C42	C	0.918977	0.401418	-0.051407
N43	N	0.923392	0.169934	0.331381
N44	N	0.923416	0.169907	-0.374695
C45	C	0.867803	0.222195	0.421961
C46	C	0.938433	0.242241	0.518812
C47	C	0.852792	0.149896	0.530656
C48	C	0.994057	0.190018	0.426039
C49	C	0.908370	0.097639	0.437879
C50	C	0.979051	0.117659	0.534689
H51	H	0.521110	0.274708	-0.035148
C52	C	0.955550	0.323686	0.566740
C53	C	1.024276	0.318869	0.653160
C54	C	1.040066	0.393882	0.697320
H55	H	0.912904	0.343131	0.624145
H56	H	0.962301	0.358391	0.480657
H57	H	1.017520	0.284176	0.739230
H58	H	1.066936	0.299438	0.595786
H59	H	1.046817	0.428587	0.611237
H60	H	0.997416	0.413321	0.754719
H61	H	1.086702	0.390625	0.755949
C62	C	0.339355	0.046770	-0.005507
C63	C	0.386711	0.046582	0.122161
C64	C	0.436929	-0.021160	0.131197
H65	H	0.371626	0.046445	-0.091878
H66	H	0.309021	0.001267	0.000419
H67	H	0.417042	0.092073	0.116223
H68	H	0.354462	0.046895	0.208555
H69	H	0.406595	-0.066663	0.137124
H70	H	0.469194	-0.021479	0.044820
H71	H	0.469061	-0.021301	0.217826
H72	H	0.927716	-0.069229	-0.236286
H73	H	0.895626	0.036530	0.401986
C74	C	0.922864	-0.355328	0.192521
C75	C	0.854871	-0.398276	0.205918
C76	C	0.854068	-0.439583	0.346332
H77	H	0.923423	-0.319098	0.268546
H78	H	0.967881	-0.390460	0.202646
H79	H	0.809866	-0.363148	0.195807
H80	H	0.854297	-0.434520	0.129926
H81	H	0.899085	-0.474715	0.356457
H82	H	0.854629	-0.403347	0.422345
H83	H	0.807939	-0.468734	0.355434
C84	C	0.716654	0.010343	-0.001256
C85	C	0.671730	-0.056563	0.007309
C86	C	0.721765	-0.124436	0.015938
H87	H	0.748877	0.009980	0.085274
H88	H	0.748840	0.010042	-0.087767
H89	H	0.639558	-0.056263	0.093811
H90	H	0.639509	-0.056226	-0.079211
H91	H	0.753951	-0.124737	-0.070573
H92	H	0.753986	-0.124791	0.102468
H93	H	0.691292	-0.169839	0.021737
C94	C	0.169191	0.032292	-0.004226
C95	C	0.122940	0.024133	-0.130825
C96	C	0.091513	-0.050551	-0.121554
H97	H	0.137719	0.026553	0.082922
H98	H	0.210726	-0.007101	0.000765
H99	H	0.081411	0.063514	-0.135801
H100	H	0.154395	0.029856	-0.217992
H101	H	0.133048	-0.089943	-0.116564
H102	H	0.060044	-0.056282	-0.034402
H103	H	0.060134	-0.056099	-0.207455
H104	H	0.143640	0.311013	-0.039774
H105	H	0.925247	-0.218658	-0.217088
H106	H	0.291579	0.323605	-0.041430
C107	C	0.921612	-0.430159	-0.354940
C108	C	0.922876	-0.349203	-0.336395
C109	C	0.923342	-0.307843	-0.476783
H110	H	0.875776	-0.440678	-0.409030
H111	H	0.966919	-0.446493	-0.408653
H112	H	0.877573	-0.332874	-0.282705
H113	H	0.968709	-0.338661	-0.282330
H114	H	0.968650	-0.324177	-0.530496
H115	H	0.877506	-0.318368	-0.530862
H116	H	0.924208	-0.252911	-0.464219
H117	H	0.919121	-0.590938	-0.297734
C118	C	0.918744	-0.602071	0.231137
C119	C	0.851830	-0.577703	0.309572
C120	C	0.850970	-0.618851	0.450136
H121	H	0.964477	-0.591560	0.285545
H122	H	0.917803	-0.657030	0.218868
H123	H	0.852778	-0.522757	0.321846
H124	H	0.806087	-0.588215	0.255209
H125	H	0.850029	-0.673810	0.437867
H126	H	0.896705	-0.608337	0.504530
H127	H	0.805566	-0.602328	0.503366
H128	H	0.921560	-0.441499	0.173772
C129	C	0.433665	0.283188	-0.036529
C130	C	0.479908	0.291324	-0.165233
C131	C	0.511332	0.366009	-0.175199
H132	H	0.465142	0.288945	0.049134
H133	H	0.392128	0.322579	-0.041677
H134	H	0.521439	0.251945	-0.160074
H135	H	0.448448	0.285583	-0.250920
H136	H	0.469796	0.405400	-0.180347
H137	H	0.542806	0.371759	-0.089529
H138	H	0.542706	0.371542	-0.262531
C139	C	0.927887	-0.058176	0.289860
C140	C	0.927012	-0.111874	0.415188
C141	C	0.927709	-0.070842	0.545338
H142	H	0.882856	-0.023090	0.291159
H143	H	0.973998	-0.029012	0.291842
H144	H	0.880907	-0.141025	0.413207
H145	H	0.972040	-0.146962	0.413939
H146	H	0.973820	-0.041677	0.547321
H147	H	0.882677	-0.035757	0.546622
H148	H	0.927123	-0.107269	0.630389
C149	C	0.805084	0.281053	0.356159
C150	C	0.750801	0.241428	0.275408
C151	C	0.693013	0.295621	0.214784
H152	H	0.828951	0.319378	0.291390
H153	H	0.778829	0.306360	0.434595
H154	H	0.777054	0.216134	0.196982
H155	H	0.726915	0.203106	0.340144
H156	H	0.666758	0.320928	0.293220
H157	H	0.716887	0.333944	0.150021
H158	H	0.656172	0.268743	0.159999
H159	H	0.421684	0.076914	-0.009653
H160	H	0.925212	-0.218661	0.273605
C161	C	0.773207	0.127143	0.591745
C162	C	0.757111	0.051967	0.548851
C163	C	0.683808	0.030983	0.605109
H164	H	0.733690	0.164255	0.553014
H165	H	0.773924	0.126777	0.697751
H166	H	0.756388	0.052338	0.442867
H167	H	0.796609	0.014838	0.587581
H168	H	0.684525	0.030618	0.711115
H169	H	0.644297	0.068100	0.566373
H170	H	0.672881	-0.020028	0.576025
C171	C	1.073626	0.212902	0.365067
C172	C	1.064055	0.281249	0.269525
C173	C	1.137332	0.302382	0.213361
H174	H	1.096147	0.171272	0.311235
H175	H	1.107303	0.222520	0.445620
H176	H	1.030390	0.271627	0.188983
H177	H	1.041546	0.322894	0.323323
H178	H	1.171009	0.312000	0.293915
H179	H	1.159847	0.260747	0.159536
H180	H	1.130848	0.348761	0.148541
H181	H	1.026122	0.073453	0.583694
H182	H	0.669037	0.287298	-0.036794
H183	H	0.555216	0.016243	-0.001890
H184	H	0.923627	-0.316107	-0.197791
