data_functionalizedCrystal
_audit_creation_method	'MofGen! by Chris Wilmer'
_symmetry_space_group_name_H-M	'P1'
_symmetry_Int_Tables_number	1
_symmetry_cell_setting	triclinic
loop_
_symmetry_equiv_pos_as_xyz
  x,y,z
_cell_length_a	19.288874
_cell_length_b	12.837939
_cell_length_c	18.366186
_cell_angle_alpha	90.008087
_cell_angle_beta	89.993232
_cell_angle_gamma	91.015568
loop_
_atom_site_label
_atom_site_type_symbol
_atom_site_fract_x
_atom_site_fract_y
_atom_site_fract_z
O1	O	0.180511	-1.374627	-0.060545
O2	O	0.171594	-1.072863	-0.060547
O3	O	0.075518	-1.232460	-0.060540
O4	O	0.276587	-1.215031	-0.060552
O5	O	0.075511	-1.232432	0.060559
O6	O	0.171587	-1.072836	0.060552
O7	O	0.180504	-1.374600	0.060555
Zn8	Zn	0.176044	-1.223714	0.079781
Zn9	Zn	0.176054	-1.223750	-0.079773
O10	O	0.276580	-1.215004	0.060548
C11	C	0.168579	-1.034243	0.000002
C12	C	0.159595	-0.919207	0.000001
C13	C	0.267600	-0.677750	0.000006
C14	C	0.259162	-0.569663	0.000006
C15	C	0.134281	-0.594944	0.000005
C16	C	0.142719	-0.703031	0.000006
C17	C	0.209381	-0.744430	0.000005
C18	C	0.217818	-0.852519	0.000000
C19	C	0.092938	-0.877798	0.000005
C20	C	0.084500	-0.769711	0.000004
C21	C	0.049599	-1.231884	0.000009
C22	C	-0.027619	-1.230195	0.000009
C23	C	-0.584020	-1.218057	0.066002
C24	C	-0.511465	-1.219632	0.066006
C25	C	-0.475176	-1.220440	-0.000004
C26	C	-0.511447	-1.219645	-0.066023
C27	C	-0.584001	-1.218059	-0.066025
C28	C	-0.361525	-1.283658	-0.050574
C29	C	-0.288973	-1.285250	-0.050570
C30	C	-0.251396	-1.225326	-0.000000
C31	C	-0.286380	-1.163822	0.050576
C32	C	-0.358934	-1.162236	0.050574
C33	C	-0.396503	-1.222158	-0.000009
C34	C	-0.136460	-1.227821	0.066019
C35	C	-0.063903	-1.229390	0.066020
C36	C	-0.063887	-1.229413	-0.066011
C37	C	-0.136442	-1.227833	-0.066011
C38	C	-0.172725	-1.227042	0.000007
C39	C	0.302499	-1.215580	-0.000004
C40	C	0.379717	-1.217268	-0.000008
N41	N	0.176038	-1.223697	0.188672
C42	C	0.183520	-0.413221	0.000005
C43	C	0.192505	-0.528256	0.000004
N44	N	0.176055	-1.223774	-0.188664
C45	C	0.133520	-1.294390	0.226775
C46	C	0.133517	-1.294396	0.303003
C47	C	0.176045	-1.223720	0.341124
C48	C	0.218566	-1.153015	0.303012
C49	C	0.218562	-1.153003	0.226785
C50	C	0.238386	-1.209851	0.461881
C51	C	0.238391	-1.209870	0.538106
C52	C	0.176056	-1.223750	0.576232
C53	C	0.113715	-1.237633	0.538124
C54	C	0.113711	-1.237621	0.461897
C55	C	0.176054	-1.223724	0.423779
C56	C	0.133532	-1.294453	0.696990
C57	C	0.133527	-1.294452	0.773220
C58	C	0.218582	-1.153076	0.773227
C59	C	0.218580	-1.153071	0.696999
C60	C	0.176056	-1.223766	0.658885
H61	H	0.030226	-0.735989	0.000013
H62	H	-0.613526	-1.217415	-0.119781
H63	H	0.098893	-1.351964	0.334033
N64	N	-0.024787	-1.230236	0.137221
H65	H	-0.058784	-1.229498	0.179039
H66	H	0.003938	-1.295121	0.140090
H67	H	0.253192	-1.095467	0.334054
N68	N	0.030138	-0.949717	-0.000004
H69	H	0.045597	-1.024472	-0.000007
H70	H	0.001389	-0.936340	0.044888
N71	N	0.087665	-1.370676	0.655863
H72	H	0.100551	-1.444191	0.669109
H73	H	0.037604	-1.358879	0.669148
H74	H	-0.166002	-1.227168	0.119774
N75	N	-0.024761	-1.230287	-0.137213
H76	H	-0.036007	-1.165789	-0.166071
H77	H	0.026692	-1.231448	-0.127139
H78	H	0.306571	-0.515375	0.000009
N79	N	0.062387	-0.550283	0.000027
H80	H	0.065880	-0.471693	0.000034
H81	H	0.036590	-0.574692	-0.044863
N82	N	0.339494	-0.722411	-0.000006
H83	H	0.375097	-0.663767	-0.000010
H84	H	0.345715	-0.766698	0.044886
N85	N	-0.623153	-1.217202	0.137203
H86	H	-0.589166	-1.217940	0.179022
H87	H	-0.651876	-1.152315	0.140083
H88	H	0.098893	-1.351950	0.195745
H89	H	0.062951	-1.248923	0.430872
N90	N	-0.472310	-1.220527	-0.137220
H91	H	-0.506295	-1.219788	-0.179040
H92	H	-0.440825	-1.156960	-0.140094
H93	H	0.062956	-1.248935	0.569164
N94	N	-0.472340	-1.220481	0.137206
H95	H	-0.506335	-1.219738	0.179026
H96	H	-0.443618	-1.285368	0.140074
N97	N	-0.396660	-1.095892	0.105116
H98	H	-0.425644	-1.043335	0.078512
H99	H	-0.427728	-1.141794	0.136211
H100	H	0.253186	-1.095435	0.195761
H101	H	-0.255786	-1.115029	0.091757
H102	H	0.098900	-1.352015	0.804244
N103	N	0.264447	-1.076836	0.814332
H104	H	0.257997	-1.087567	0.868404
H105	H	0.314504	-1.088571	0.800999
H106	H	0.272097	-0.886223	0.000001
H107	H	0.253205	-1.095511	0.665973
H108	H	0.289153	-1.198572	0.569128
H109	H	0.289149	-1.198530	0.430845
N110	N	-0.251243	-1.351590	-0.105112
H111	H	-0.286055	-1.389302	-0.137153
H112	H	-0.220134	-1.305694	-0.136165
N113	N	-0.175541	-1.227027	-0.137220
H114	H	-0.204270	-1.162152	-0.140191
H115	H	-0.141485	-1.227828	-0.178981
N116	N	-0.402052	-1.348284	-0.105127
H117	H	-0.368882	-1.387489	-0.137163
H118	H	-0.433274	-1.399469	-0.078479
