data_functionalizedCrystal
_audit_creation_method	'MofGen! by Chris Wilmer'
_symmetry_space_group_name_H-M	'P1'
_symmetry_Int_Tables_number	1
_symmetry_cell_setting	triclinic
loop_
_symmetry_equiv_pos_as_xyz
  x,y,z
_cell_length_a	10.685940
_cell_length_b	10.685676
_cell_length_c	17.639306
_cell_angle_alpha	73.676350
_cell_angle_beta	73.646637
_cell_angle_gamma	80.926713
loop_
_atom_site_label
_atom_site_type_symbol
_atom_site_fract_x
_atom_site_fract_y
_atom_site_fract_z
Zn1	Zn	2.073224	0.527776	-0.571799
Zn2	Zn	2.018962	0.702175	-0.445412
Zn3	Zn	1.817280	0.500421	-0.426041
Zn4	Zn	1.844655	0.756262	-0.571775
O5	O	1.938530	0.621658	-0.503757
O6	O	2.246087	0.539722	-0.563150
O7	O	1.958043	0.641328	-0.328958
O8	O	1.862483	0.323992	-0.437280
O9	O	2.206221	0.667852	-0.470294
O10	O	2.050524	0.344090	-0.544368
O11	O	1.809868	0.493100	-0.314727
O12	O	1.640849	0.545547	-0.437257
O13	O	1.909141	0.760037	-0.685662
O14	O	1.660962	0.733512	-0.544327
O15	O	2.077069	0.592169	-0.685679
O16	O	1.984588	0.889407	-0.470270
O17	O	1.856525	0.929145	-0.563109
C18	C	1.604218	0.642432	-0.488688
C19	C	1.461201	0.651355	-0.482262
C20	C	1.917679	0.955966	-0.518808
C21	C	1.908885	1.098985	-0.525280
C22	C	2.002211	0.685188	-0.716025
C23	C	2.029348	0.712260	-0.806481
C24	C	2.274148	0.600805	-0.518885
C25	C	2.417168	0.591919	-0.525332
C26	C	1.959494	1.286052	-0.488675
C27	C	1.968406	1.143046	-0.482270
C28	C	1.732902	0.415481	-1.066961
C29	C	1.758429	0.440945	-1.151961
C30	C	1.912708	0.595279	-1.166758
C31	C	1.887198	0.569823	-1.081758
C32	C	1.797293	0.479924	-1.031866
C33	C	1.951590	0.634266	-1.046663
C34	C	1.926077	0.608817	-0.961670
C35	C	1.836173	0.518925	-0.911772
C36	C	1.771781	0.454475	-0.946873
C37	C	2.041487	0.724171	-1.096556
C38	C	2.105879	0.788614	-1.061461
C39	C	2.080373	0.763158	-0.976467
C40	C	1.990470	0.673266	-0.926569
C41	C	2.144766	0.827608	-0.941366
C42	C	2.119253	0.802159	-0.856373
C43	C	1.964957	0.647817	-0.841576
C44	C	1.875176	0.558279	-0.292313
C45	C	1.848311	0.530828	-0.201853
H46	H	2.389485	0.709036	-0.440453
H47	H	2.026105	1.071349	-0.440497
H48	H	1.705992	0.388456	-1.180531
H49	H	2.179075	0.861814	-1.102095
H50	H	2.488891	0.534224	-0.567138
H51	H	1.851202	1.170676	-0.567056
H52	H	1.891761	0.574599	-0.800951
H53	H	1.815393	0.498216	-0.842566
H54	H	1.698585	0.381256	-0.906247
H55	H	1.659706	0.342263	-1.026335
H56	H	1.985904	0.668479	-1.207392
H57	H	2.062260	0.744885	-1.165762
H58	H	2.217956	0.900813	-0.982001
H59	H	2.171706	0.854616	-0.827799
