data_functionalizedCrystal
_audit_creation_method	'MofGen! by Chris Wilmer'
_symmetry_space_group_name_H-M	'P1'
_symmetry_Int_Tables_number	1
_symmetry_cell_setting	triclinic
loop_
_symmetry_equiv_pos_as_xyz
  x,y,z
_cell_length_a	10.723024
_cell_length_b	19.188930
_cell_length_c	9.798715
_cell_angle_alpha	89.991738
_cell_angle_beta	89.996609
_cell_angle_gamma	83.806325
loop_
_atom_site_label
_atom_site_type_symbol
_atom_site_fract_x
_atom_site_fract_y
_atom_site_fract_z
O1	O	1.655155	0.097922	-0.113499
O2	O	2.155155	0.597922	0.386501
O3	O	1.291808	0.107295	-0.113506
O4	O	1.791808	0.607295	0.386494
O5	O	1.483967	0.001021	-0.113476
O6	O	1.983967	0.501021	0.386524
O7	O	1.462996	0.204196	-0.113529
O8	O	1.962996	0.704196	0.386471
O9	O	1.483952	0.001021	0.113507
O10	O	1.983952	0.501021	0.613507
O11	O	1.291793	0.107295	0.113477
O12	O	1.791793	0.607295	0.613477
O13	O	1.655140	0.097922	0.113483
O14	O	2.155140	0.597922	0.613483
Zn15	Zn	1.473465	0.102608	0.149518
Zn16	Zn	1.973465	0.602608	0.649518
Zn17	Zn	1.473483	0.102609	-0.149541
Zn18	Zn	1.973483	0.602609	0.350459
O19	O	1.462982	0.204196	0.113453
O20	O	1.962982	0.704196	0.613453
C21	C	1.245315	0.106613	-0.000015
C22	C	1.745315	0.606613	0.499985
C23	C	1.106803	0.104572	-0.000016
C24	C	1.606803	0.604572	0.499984
C25	C	1.030586	0.164037	-0.000033
C26	C	1.530586	0.664037	0.499967
C27	C	0.887427	0.161930	-0.000034
C28	C	1.387427	0.661930	0.499966
C29	C	1.483280	-0.024995	0.000019
C30	C	1.983280	0.475005	0.500019
C31	C	1.481242	-0.102512	0.000031
C32	C	1.981242	0.397488	0.500031
C33	C	1.593994	-0.146704	0.000040
C34	C	2.093994	0.353296	0.500040
C35	C	1.592079	-0.219540	0.000018
C36	C	2.092079	0.280460	0.500018
C37	C	1.477405	-0.248182	0.000015
C38	C	1.977405	0.251818	0.500015
C39	C	1.364638	-0.203981	-0.000001
C40	C	1.864638	0.296019	0.499999
C41	C	1.366556	-0.131146	0.000007
C42	C	1.866556	0.368854	0.500007
N43	N	1.389745	-0.356756	0.077260
N44	N	1.889745	0.143244	0.577260
N45	N	1.387931	-0.425947	0.077255
N46	N	1.887931	0.074053	0.577255
C47	C	1.471618	-0.467628	-0.000013
C48	C	1.971618	0.032372	0.499987
N49	N	1.557208	-0.437506	-0.077259
N50	N	2.057208	0.062494	0.422741
N51	N	1.559026	-0.368310	-0.077248
N52	N	2.059026	0.131690	0.422752
C53	C	1.475312	-0.327158	0.000005
C54	C	1.975312	0.172842	0.500005
C55	C	1.582302	-0.590797	-0.000030
C56	C	2.082302	-0.090797	0.499970
C57	C	1.580382	-0.663634	-0.000061
C58	C	2.080382	-0.163634	0.499939
C59	C	1.352937	-0.648073	-0.000066
C60	C	1.852937	-0.148073	0.499934
C61	C	1.354860	-0.575238	-0.000049
C62	C	1.854860	-0.075238	0.499951
C63	C	1.469546	-0.546604	-0.000025
C64	C	1.969546	-0.046604	0.499975
C65	C	1.701633	0.098604	-0.000011
C66	C	2.201633	0.598604	0.499989
C67	C	1.840145	0.100645	-0.000019
C68	C	2.340145	0.600645	0.499981
C69	C	1.463668	0.230211	-0.000045
C70	C	1.963668	0.730211	0.499955
C71	C	1.465706	0.307729	-0.000066
C72	C	1.965706	0.807729	0.499934
N73	N	1.473461	0.102608	0.353618
N74	N	1.973461	0.602608	0.853618
N75	N	1.473497	0.102604	-0.353640
N76	N	1.973497	0.602604	0.146360
C77	C	1.554147	0.057789	0.421407
C78	C	2.054147	0.557789	0.921407
C79	C	1.554167	0.057787	0.578570
C80	C	2.054167	0.557787	1.078570
H81	H	0.905627	0.049735	-0.000013
H82	H	1.405627	0.549735	0.499987
H83	H	1.066070	0.052101	-0.000037
H84	H	1.566070	0.552101	0.499963
O85	O	1.693671	-0.562945	0.000217
O86	O	2.193671	-0.062945	0.500217
C87	C	1.701576	-0.521282	0.117764
C88	C	2.201576	-0.021282	0.617764
H89	H	1.636463	-0.538825	0.199927
H90	H	2.136463	-0.038825	0.699927
H91	H	1.802175	-0.527343	0.157219
H92	H	2.302175	-0.027343	0.657219
H93	H	1.672483	-0.463988	0.091198
H94	H	2.172483	0.036012	0.591198
H95	H	0.821937	0.212836	-0.000054
H96	H	1.321937	0.712836	0.499946
H97	H	1.404392	0.140974	0.411931
H98	H	1.904392	0.640974	0.911931
O99	O	1.241508	-0.675853	-0.000312
O100	O	1.741508	-0.175853	0.499688
C101	C	1.172793	-0.653293	-0.117851
C102	C	1.672793	-0.153293	0.382149
H103	H	1.239865	-0.637815	-0.200010
H104	H	1.739865	-0.137815	0.299990
H105	H	1.119948	-0.697658	-0.157321
H106	H	1.619948	-0.197658	0.342679
H107	H	1.103000	-0.606168	-0.091268
H108	H	1.603000	-0.106168	0.408732
O109	O	1.705506	-0.119005	-0.000006
O110	O	2.205506	0.380995	0.499994
C111	C	1.804614	-0.173635	0.000033
C112	C	2.304614	0.326365	0.500033
H113	H	1.769911	-0.223269	-0.042948
H114	H	2.269911	0.276731	0.457052
H115	H	1.884712	-0.158027	-0.065857
H116	H	2.384712	0.341973	0.434143
H117	H	1.839362	-0.183783	0.108930
H118	H	2.339362	0.316217	0.608930
O119	O	1.690031	-0.706464	0.000007
O120	O	2.190031	-0.206464	0.500007
C121	C	1.791659	-0.665569	-0.000002
C122	C	2.291659	-0.165569	0.499998
H123	H	1.759682	-0.611374	0.042977
H124	H	2.259682	-0.111374	0.542977
H125	H	1.870628	-0.692061	0.065904
H126	H	2.370628	-0.192061	0.565904
H127	H	1.826846	-0.660201	-0.108890
H128	H	2.326846	-0.160201	0.391110
H129	H	1.263044	-0.539256	-0.000049
H130	H	1.763044	-0.039256	0.499951
H131	H	1.623208	0.019418	0.363095
H132	H	2.123208	0.519418	0.863095
O133	O	1.701577	-0.262507	-0.000206
O134	O	2.201577	0.237493	0.499794
C135	C	1.707276	-0.305108	-0.117744
C136	C	2.207276	0.194892	0.382256
H137	H	1.643343	-0.278736	-0.199922
H138	H	2.143343	0.221264	0.300078
H139	H	1.807840	-0.312818	-0.157183
H140	H	2.307840	0.187182	0.342817
H141	H	1.675256	-0.358218	-0.091172
H142	H	2.175256	0.141782	0.408828
H143	H	1.271269	-0.227305	-0.000007
H144	H	1.771269	0.272695	0.499993
O145	O	1.256908	-0.088315	0.000066
O146	O	1.756908	0.411685	0.500066
C147	C	1.155278	-0.129209	0.000016
C148	C	1.655278	0.370791	0.500016
H149	H	1.187241	-0.183414	0.042979
H150	H	1.687241	0.316586	0.542979
H151	H	1.076293	-0.102731	0.065916
H152	H	1.576293	0.397269	0.565916
H153	H	1.120117	-0.134548	-0.108882
H154	H	1.620117	0.365452	0.391118
H155	H	1.404419	0.140979	0.588072
H156	H	1.904419	0.640979	1.088072
H157	H	1.623251	0.019419	0.636866
H158	H	2.123251	0.519419	1.136866
H159	H	1.071319	0.216508	-0.000039
H160	H	1.571319	0.716508	0.499961
