data_functionalizedCrystal
_audit_creation_method	'MofGen! by Chris Wilmer'
_symmetry_space_group_name_H-M	'P1'
_symmetry_Int_Tables_number	1
_symmetry_cell_setting	triclinic
loop_
_symmetry_equiv_pos_as_xyz
  x,y,z
_cell_length_a	21.395362
_cell_length_b	19.805405
_cell_length_c	21.395355
_cell_angle_alpha	89.980090
_cell_angle_beta	89.956060
_cell_angle_gamma	90.042288
loop_
_atom_site_label
_atom_site_type_symbol
_atom_site_fract_x
_atom_site_fract_y
_atom_site_fract_z
Zn1	Zn	0.957878	-0.269255	-0.354580
Zn2	Zn	0.957789	-0.382425	-0.249800
Zn3	Zn	0.853093	-0.269286	-0.249781
Zn4	Zn	0.853070	-0.382438	-0.354504
O5	O	0.905458	-0.325851	-0.302166
O6	O	1.045544	-0.284248	-0.340720
O7	O	0.943873	-0.367424	-0.162119
O8	O	0.867040	-0.174565	-0.263706
O9	O	1.045478	-0.367393	-0.263738
O10	O	0.944025	-0.174542	-0.340701
O11	O	0.866953	-0.284302	-0.162105
O12	O	0.765412	-0.284315	-0.263633
O13	O	0.867001	-0.367417	-0.442192
O14	O	0.765395	-0.367448	-0.340573
O15	O	0.944003	-0.284261	-0.442247
O16	O	0.943850	-0.477143	-0.263665
O17	O	0.866914	-0.477153	-0.340591
C18	C	0.742670	-0.325887	-0.302093
C19	C	0.673029	-0.325918	-0.302077
C20	C	0.640323	-0.369263	-0.342080
C21	C	0.574888	-0.369246	-0.342108
C22	C	0.542160	-0.325892	-0.302122
C23	C	0.574874	-0.282539	-0.262116
C24	C	0.640308	-0.282553	-0.262094
C25	C	0.438435	-0.320440	-0.245717
C26	C	0.373002	-0.320431	-0.245738
C27	C	0.340340	-0.325848	-0.302191
C28	C	0.373118	-0.331287	-0.358624
C29	C	0.438552	-0.331301	-0.358602
C30	C	0.471208	-0.325873	-0.302142
C31	C	0.236682	-0.369177	-0.342227
C32	C	0.171245	-0.369156	-0.342256
C33	C	0.171232	-0.282452	-0.262259
C34	C	0.236668	-0.282470	-0.262236
C35	C	0.269388	-0.325836	-0.302219
C36	C	0.905387	-0.501707	-0.302136
C37	C	0.905414	-0.576939	-0.302144
C38	C	0.945514	-0.612255	-0.262130
C39	C	0.945540	-0.682944	-0.262144
C40	C	0.905464	-0.718315	-0.302169
C41	C	0.865362	-0.682993	-0.342187
C42	C	0.865339	-0.612306	-0.342175
C43	C	0.865455	-0.968067	-0.342233
C44	C	0.865480	-1.038759	-0.342240
C45	C	0.945656	-1.038704	-0.262202
C46	C	0.945633	-0.968017	-0.262191
C47	C	0.905534	-0.932702	-0.302210
C48	C	0.905507	-0.856053	-0.302196
C49	C	0.905488	-0.794962	-0.302181
C50	C	1.068881	-0.325816	-0.302239
C51	C	1.138522	-0.325800	-0.302271
C52	C	0.905510	-0.325837	-0.465589
C53	C	0.905532	-0.325831	-0.535231
C54	C	0.905545	-0.149308	-0.302210
C55	C	0.905583	-0.074076	-0.302229
C56	C	0.945625	-0.282530	-0.567974
C57	C	0.945624	-0.282501	-0.633409
C58	C	0.905537	-0.325785	-0.666099
C59	C	0.865436	-0.369089	-0.633348
C60	C	0.865433	-0.369112	-0.567914
C61	C	0.900565	-0.386731	-0.769762
C62	C	0.900572	-0.386709	-0.835195
C63	C	0.905540	-0.325714	-0.867920
C64	C	0.910516	-0.264738	-0.835204
C65	C	0.910513	-0.264762	-0.769770
C66	C	0.905534	-0.325765	-0.737051
C67	C	0.945635	-0.282378	-0.971615
C68	C	0.945630	-0.282347	-1.037052
C69	C	0.865444	-0.368941	-1.036990
C70	C	0.865446	-0.368966	-0.971555
C71	C	0.905545	-0.325685	-0.938871
C72	C	0.905442	-0.325816	-0.139378
C73	C	0.905541	-0.325631	-0.069738
H74	H	0.465238	-0.335727	-0.404552
H75	H	0.346526	-0.335697	-0.404594
C76	C	0.272677	-0.416872	-0.386216
N77	N	0.299786	-0.452795	-0.419350
C78	C	0.989714	-0.929113	-0.218155
N79	N	1.022918	-0.899812	-0.184986
C80	C	0.821327	-0.416751	-0.531896
N81	N	0.788106	-0.452633	-0.504766
H82	H	0.896351	-0.436388	-0.743122
C83	C	0.272645	-0.234793	-0.218224
N84	N	0.299743	-0.198880	-0.185072
H85	H	0.144617	-0.404451	-0.374835
H86	H	0.832845	-1.067556	-0.374837
H87	H	0.832794	-0.404329	-0.659969
C88	C	0.915980	-0.197638	-0.871197
N89	N	0.920097	-0.147099	-0.898310
C90	C	0.135236	-0.234762	-0.218275
N91	N	0.108120	-0.198839	-0.185145
C92	C	0.821377	-0.929229	-0.386288
N93	N	0.788187	-0.899974	-0.419485
H94	H	0.978193	-0.711695	-0.229561
C95	C	0.336952	-0.314443	-0.183661
N96	N	0.309801	-0.309929	-0.136903
H97	H	0.832687	-0.583552	-0.374759
H98	H	0.548254	-0.404542	-0.374685
H99	H	0.666960	-0.404574	-0.374638
C100	C	0.989726	-0.234911	-0.532026
N101	N	1.022941	-0.199041	-0.504949
H102	H	0.978282	-0.247132	-0.945003
H103	H	0.465024	-0.316026	-0.199743
H104	H	0.978146	-0.583461	-0.229535
C105	C	0.989769	-1.077557	-0.218181
N106	N	1.022992	-1.106820	-0.185025
C107	C	0.538872	-0.234850	-0.218132
N108	N	0.511756	-0.198927	-0.185003
C109	C	0.676285	-0.234872	-0.218083
N110	N	0.703384	-0.198959	-0.184931
H111	H	0.832734	-0.711798	-0.374778
H112	H	0.978271	-0.247237	-0.660074
H113	H	0.914562	-0.215113	-0.743136
C114	C	0.989737	-0.234709	-1.073069
N115	N	1.022960	-0.198827	-1.100198
C116	C	0.821348	-0.416555	-1.072945
N117	N	0.788133	-0.452419	-1.100030
C118	C	0.821343	-0.416604	-0.935536
N119	N	0.788120	-0.452485	-0.908407
C120	C	0.895099	-0.453783	-0.871175
N121	N	0.890975	-0.504304	-0.898275
