data_functionalizedCrystal
_audit_creation_method	'MofGen! by Chris Wilmer'
_symmetry_space_group_name_H-M	'P1'
_symmetry_Int_Tables_number	1
_symmetry_cell_setting	triclinic
loop_
_symmetry_equiv_pos_as_xyz
  x,y,z
_cell_length_a	16.992697
_cell_length_b	16.053802
_cell_length_c	16.992695
_cell_angle_alpha	92.741074
_cell_angle_beta	89.331663
_cell_angle_gamma	92.750118
loop_
_atom_site_label
_atom_site_type_symbol
_atom_site_fract_x
_atom_site_fract_y
_atom_site_fract_z
O1	O	-1.053958	-0.069309	0.163818
O2	O	-0.825560	-0.069337	0.161985
O3	O	-0.938843	-0.069316	0.048702
O4	O	-0.940675	-0.069329	0.277101
O5	O	-0.932606	0.069542	0.054910
O6	O	-0.819322	0.069521	0.168193
O7	O	-1.047721	0.069549	0.170026
Zn8	Zn	-0.932531	0.091582	0.170095
Zn9	Zn	-0.940749	-0.091369	0.161916
O10	O	-0.934438	0.069529	0.283309
C11	C	-0.793081	0.000089	0.162733
C12	C	-0.705597	0.000078	0.155704
C13	C	-0.933369	0.000112	0.022445
C14	C	-0.926340	0.000111	-0.065039
N15	N	-0.926929	0.216441	0.175677
C16	C	-0.659606	0.000074	0.223521
C17	C	-0.577405	0.000085	0.216913
C18	C	-0.541196	0.000093	0.142485
C19	C	-0.587193	0.000100	0.074663
C20	C	-0.669392	0.000095	0.081272
C21	C	-0.295881	0.000113	0.115091
C22	C	-0.213676	0.000115	0.108487
C23	C	-0.203893	0.000102	0.250737
C24	C	-0.286095	0.000092	0.257340
C25	C	-0.332084	0.000103	0.189518
N26	N	-0.457174	0.000101	0.135728
N27	N	-0.416105	0.000101	0.196276
C28	C	-0.080200	0.000118	0.169277
C29	C	-0.167685	0.000112	0.176304
N30	N	-0.946358	-0.216229	0.156328
C31	C	-0.975151	0.260144	0.127494
C32	C	-0.971240	0.347550	0.131407
C33	C	-0.919110	0.391252	0.183507
C34	C	-0.870882	0.347543	0.231692
C35	C	-0.874790	0.260138	0.227774
C36	C	-0.902038	0.652658	0.200595
C37	C	-0.898136	0.740069	0.204511
C38	C	-0.998492	0.740070	0.104224
C39	C	-1.002399	0.652664	0.100315
C40	C	-0.954169	0.608962	0.148497
N41	N	-0.915112	0.480595	0.187509
N42	N	-0.958163	0.519621	0.144490
C43	C	-0.994158	0.000120	-0.111029
C44	C	-0.987549	0.000112	-0.193231
C45	C	-0.913122	0.000100	-0.229440
C46	C	-0.845299	0.000088	-0.183443
C47	C	-0.851909	0.000091	-0.101244
C48	C	-0.885728	0.000085	-0.474755
C49	C	-0.879123	0.000085	-0.556960
C50	C	-1.021374	0.000107	-0.566742
C51	C	-1.027977	0.000115	-0.484540
C52	C	-0.960154	0.000098	-0.438551
N53	N	-0.906365	0.000093	-0.313462
N54	N	-0.966912	0.000099	-0.354531
C55	C	-0.939912	0.000098	0.309565
C56	C	-0.946941	0.000094	0.397050
H57	H	-0.539963	0.000081	0.272137
H58	H	-0.184198	0.000122	0.047876
H59	H	-1.054764	0.000135	-0.081554
O60	O	-0.819902	0.000186	-0.429997
C61	C	-0.816226	0.072110	-0.378957
H62	H	-0.877891	0.096095	-0.369820
H63	H	-0.776318	0.122464	-0.405971
C64	C	-0.707085	0.020798	-0.310278
C65	C	-0.782823	0.050253	-0.299050
H66	H	-0.686477	0.007318	-0.260988
H67	H	-0.709558	-0.027658	-0.344666
H68	H	-0.673837	0.062764	-0.332792
H69	H	-0.816072	0.008283	-0.276545
H70	H	-0.780354	0.098701	-0.264656
H71	H	-1.042773	0.000121	-0.230673
O72	O	-1.025667	0.217622	0.076809
C73	C	-0.982698	0.167121	0.023303
H74	H	-0.923668	0.154008	0.050202
H75	H	-0.972161	0.200851	-0.033681
C76	C	-1.102234	0.100209	-0.027544
C77	C	-1.029736	0.084099	0.005497
H78	H	-1.131250	0.048999	-0.038531
H79	H	-1.131184	0.134235	0.008502
H80	H	-1.093443	0.128320	-0.075027
H81	H	-1.038527	0.055998	0.052984
H82	H	-1.000788	0.050066	-0.030541
H83	H	-1.037759	0.775659	0.064996
O84	O	-0.827980	0.217553	0.274502
C85	C	-0.842620	0.131038	0.259886
H86	H	-0.868657	0.119109	0.198627
H87	H	-0.885999	0.106220	0.305828
C88	C	-0.732862	0.100822	0.339851
C89	C	-0.764835	0.086171	0.264609
H90	H	-0.684882	0.073145	0.342767
H91	H	-0.723000	0.159109	0.349701
H92	H	-0.769019	0.080141	0.378128
H93	H	-0.728683	0.106861	0.226334
H94	H	-0.774689	0.027886	0.254753
O95	O	-1.100338	0.000092	-0.449497
C96	C	-1.158779	0.000123	-0.507716
H97	H	-1.134403	-0.026177	-0.566049
H98	H	-1.176945	0.066745	-0.514993
C99	C	-1.260945	-0.022009	-0.411038
C100	C	-1.231008	-0.054318	-0.482683
H101	H	-1.305502	-0.055587	-0.395596
H102	H	-1.221573	-0.022027	-0.371814
H103	H	-1.276077	0.033509	-0.417112
H104	H	-1.215868	-0.109830	-0.476606
H105	H	-1.270380	-0.054311	-0.521905
H106	H	-0.706837	0.000098	0.026048
H107	H	-1.044847	0.617083	0.057891
H108	H	-1.076591	0.000118	-0.604195
O109	O	-0.855119	0.610172	0.247291
C110	C	-0.806185	0.559608	0.199806
H111	H	-0.799780	0.585957	0.138821
H112	H	-0.833527	0.493365	0.194267
C113	C	-0.732317	0.525900	0.312700
C114	C	-0.724444	0.558268	0.237799
H115	H	-0.681896	0.525070	0.336136
H116	H	-0.765286	0.559964	0.344692
H117	H	-0.755105	0.470701	0.308074
H118	H	-0.701666	0.613470	0.242427
H119	H	-0.691469	0.524213	0.205808
O120	O	-0.847416	0.782393	0.255134
C121	C	-0.805694	0.725080	0.296831
H122	H	-0.805574	0.662778	0.261712
H123	H	-0.835317	0.715774	0.356516
C124	C	-0.720411	0.835724	0.352327
C125	C	-0.720259	0.759206	0.309190
H126	H	-0.667712	0.856775	0.359954
H127	H	-0.748522	0.874337	0.324237
H128	H	-0.745101	0.827959	0.402060
H129	H	-0.695578	0.766974	0.259455
H130	H	-0.692142	0.720594	0.337272
H131	H	-0.689081	0.000066	0.284128
O132	O	-1.018172	0.389873	0.084581
C133	C	-1.065015	0.332558	0.037751
H134	H	-1.070699	0.270246	0.067288
H135	H	-1.036223	0.323280	-0.022767
C136	C	-1.140416	0.443191	-0.007832
C137	C	-1.147403	0.366660	0.028450
H138	H	-1.191236	0.464227	-0.013573
H139	H	-1.108856	0.481805	0.023716
H140	H	-1.116420	0.435448	-0.058260
H141	H	-1.171390	0.374405	0.078880
H142	H	-1.178970	0.328047	-0.003090
H143	H	-0.796684	0.000083	-0.063799
O144	O	-0.820282	0.389898	0.282405
C145	C	-0.838921	0.368538	0.360185
H146	H	-0.872097	0.305074	0.359163
H147	H	-0.877425	0.417722	0.389216
C148	C	-0.721703	0.442442	0.408569
C149	C	-0.762445	0.364491	0.407314
H150	H	-0.674530	0.439949	0.437642
H151	H	-0.709147	0.456836	0.356168
H152	H	-0.753799	0.483420	0.432759
H153	H	-0.730353	0.323516	0.383115
H154	H	-0.774994	0.350090	0.459712
H155	H	-0.818512	0.000088	-0.586438
H156	H	-0.315570	0.000076	0.317946
H157	H	-0.784699	0.000073	-0.212931
H158	H	-0.166440	0.000095	0.305954
H159	H	-0.557705	0.000119	0.014063
O160	O	-0.340433	0.000083	0.049129
C161	C	-0.290843	0.000110	-0.017975
H162	H	-0.231994	-0.026181	-0.003008
H163	H	-0.280618	0.066730	-0.037565
C164	C	-0.402263	-0.022045	-0.103415
C165	C	-0.329985	-0.054344	-0.085034
H166	H	-0.426408	-0.055631	-0.144782
H167	H	-0.435673	-0.022060	-0.058206
H168	H	-0.393732	0.033470	-0.119736
H169	H	-0.338518	-0.109854	-0.068705
H170	H	-0.296578	-0.054339	-0.130242
