data_functionalizedCrystal
_audit_creation_method	'MofGen! by Chris Wilmer'
_symmetry_space_group_name_H-M	'P1'
_symmetry_Int_Tables_number	1
_symmetry_cell_setting	triclinic
loop_
_symmetry_equiv_pos_as_xyz
  x,y,z
_cell_length_a	25.639242
_cell_length_b	25.639239
_cell_length_c	25.639233
_cell_angle_alpha	90.018747
_cell_angle_beta	90.022166
_cell_angle_gamma	90.034213
loop_
_atom_site_label
_atom_site_type_symbol
_atom_site_fract_x
_atom_site_fract_y
_atom_site_fract_z
Zn1	Zn	0.799225	-0.208277	0.295742
Zn2	Zn	1.049225	0.041723	0.545742
Zn3	Zn	1.299225	0.291723	0.795742
Zn4	Zn	1.549225	0.541723	1.045742
Zn5	Zn	0.799149	-0.295696	0.208307
Zn6	Zn	1.049149	-0.045696	0.458307
Zn7	Zn	1.299149	0.204304	0.708307
Zn8	Zn	1.549149	0.454304	0.958307
Zn9	Zn	0.711801	-0.208269	0.208306
Zn10	Zn	0.961801	0.041731	0.458306
Zn11	Zn	1.211801	0.291731	0.708306
Zn12	Zn	1.461801	0.541731	0.958306
Zn13	Zn	0.711746	-0.295676	0.295696
Zn14	Zn	0.961746	-0.045676	0.545696
Zn15	Zn	1.211746	0.204324	0.795696
Zn16	Zn	1.461746	0.454324	1.045696
O17	O	0.755480	-0.251979	0.252013
O18	O	1.005480	-0.001979	0.502013
O19	O	1.255480	0.248021	0.752013
O20	O	1.505480	0.498021	1.002013
O21	O	0.872380	-0.219884	0.284163
O22	O	1.122380	0.030116	0.534163
O23	O	1.372380	0.280116	0.784163
O24	O	1.622380	0.530116	1.034163
O25	O	0.787553	-0.284103	0.135141
O26	O	1.037553	-0.034103	0.385141
O27	O	1.287553	0.215897	0.635141
O28	O	1.537553	0.465897	0.885141
O29	O	0.723453	-0.135105	0.219924
O30	O	0.973453	0.114895	0.469924
O31	O	1.223453	0.364895	0.719924
O32	O	1.473453	0.614895	0.969924
O33	O	0.872324	-0.284111	0.219924
O34	O	1.122324	-0.034111	0.469924
O35	O	1.372324	0.215889	0.719924
O36	O	1.622324	0.465889	0.969924
O37	O	0.787683	-0.135111	0.284163
O38	O	1.037683	0.114889	0.534163
O39	O	1.287683	0.364889	0.784163
O40	O	1.537683	0.614889	1.034163
O41	O	0.723379	-0.219871	0.135141
O42	O	0.973379	0.030129	0.385141
O43	O	1.223379	0.280129	0.635141
O44	O	1.473379	0.530129	0.885141
O45	O	0.638629	-0.219853	0.219880
O46	O	0.888629	0.030147	0.469880
O47	O	1.138629	0.280147	0.719880
O48	O	1.388629	0.530147	0.969880
O49	O	0.723360	-0.284078	0.368868
O50	O	0.973360	-0.034078	0.618868
O51	O	1.223360	0.215922	0.868868
O52	O	1.473360	0.465922	1.118868
O53	O	0.638589	-0.284070	0.284085
O54	O	0.888589	-0.034070	0.534085
O55	O	1.138589	0.215930	0.784085
O56	O	1.388589	0.465930	1.034085
O57	O	0.787630	-0.219866	0.368901
O58	O	1.037630	0.030134	0.618901
O59	O	1.287630	0.280134	0.868901
O60	O	1.537630	0.530134	1.118901
O61	O	0.787499	-0.368858	0.219880
O62	O	1.037499	-0.118858	0.469880
O63	O	1.287499	0.131142	0.719880
O64	O	1.537499	0.381142	0.969880
O65	O	0.723286	-0.368844	0.284085
O66	O	0.973286	-0.118844	0.534085
O67	O	1.223286	0.131156	0.784085
O68	O	1.473286	0.381156	1.034085
C69	C	0.619638	-0.251959	0.251977
C70	C	0.869638	-0.001959	0.501977
C71	C	1.119638	0.248041	0.751977
C72	C	1.369638	0.498041	1.001977
C73	C	0.561524	-0.251963	0.251975
C74	C	0.811524	-0.001963	0.501975
C75	C	1.061524	0.248037	0.751975
C76	C	1.311524	0.498037	1.001975
C77	C	0.201149	-0.285473	0.285413
C78	C	0.451149	-0.035473	0.535413
C79	C	0.701149	0.214527	0.785413
C80	C	0.951149	0.464527	1.035413
C81	C	0.146544	-0.285477	0.285421
C82	C	0.396544	-0.035477	0.535421
C83	C	0.646544	0.214523	0.785421
C84	C	0.896544	0.464523	1.035421
O85	O	0.118297	-0.313943	0.313821
O86	O	0.368297	-0.063943	0.563821
O87	O	0.618297	0.186057	0.813821
O88	O	0.868297	0.436057	1.063821
N89	N	0.119241	-0.251994	0.252047
N90	N	0.369241	-0.001994	0.502047
N91	N	0.619241	0.248006	0.752047
N92	N	0.869241	0.498006	1.002047
C93	C	0.146545	-0.218502	0.218666
C94	C	0.396545	0.031498	0.468666
C95	C	0.646545	0.281498	0.718666
C96	C	0.896545	0.531498	0.968666
O97	O	0.118308	-0.190022	0.190280
O98	O	0.368308	0.059978	0.440280
O99	O	0.618308	0.309978	0.690280
O100	O	0.868308	0.559978	0.940280
C101	C	0.201149	-0.218496	0.218661
C102	C	0.451149	0.031504	0.468661
C103	C	0.701149	0.281504	0.718661
C104	C	0.951149	0.531504	0.968661
C105	C	0.228449	-0.251985	0.252034
C106	C	0.478449	-0.001985	0.502034
C107	C	0.728449	0.248015	0.752034
C108	C	0.978449	0.498015	1.002034
C109	C	0.228449	-0.318959	0.318783
C110	C	0.478449	-0.068959	0.568783
C111	C	0.728449	0.181041	0.818783
C112	C	0.978449	0.431041	1.068783
C113	C	0.283049	-0.318956	0.318774
C114	C	0.533049	-0.068956	0.568774
C115	C	0.783049	0.181044	0.818774
C116	C	1.033049	0.431044	1.068774
C117	C	0.310350	-0.285468	0.285395
C118	C	0.560350	-0.035468	0.535395
C119	C	0.810350	0.214532	0.785395
C120	C	1.060350	0.464532	1.035395
C121	C	0.283049	-0.251983	0.252024
C122	C	0.533049	-0.001983	0.502024
C123	C	0.783049	0.248017	0.752024
C124	C	1.033049	0.498017	1.002024
C125	C	0.228452	-0.185002	0.185283
C126	C	0.478452	0.064998	0.435283
C127	C	0.728452	0.314998	0.685283
C128	C	0.978452	0.564998	0.935283
C129	C	0.283059	-0.185000	0.185281
C130	C	0.533059	0.065000	0.435281
C131	C	0.783059	0.315000	0.685281
C132	C	1.033059	0.565000	0.935281
C133	C	0.310359	-0.218488	0.218654
C134	C	0.560359	0.031512	0.468654
C135	C	0.810359	0.281512	0.718654
C136	C	1.060359	0.531512	0.968654
C137	C	0.364950	-0.218492	0.218636
C138	C	0.614950	0.031508	0.468636
C139	C	0.864950	0.281508	0.718636
C140	C	1.114950	0.531508	0.968636
N141	N	0.392253	-0.251974	0.252010
N142	N	0.642253	-0.001974	0.502010
N143	N	0.892253	0.248026	0.752010
N144	N	1.142253	0.498026	1.002010
C145	C	0.364953	-0.285463	0.285389
C146	C	0.614953	-0.035463	0.535389
C147	C	0.864953	0.214537	0.785389
C148	C	1.114953	0.464537	1.035389
C149	C	0.031875	-0.218515	0.218680
C150	C	0.281875	0.031485	0.468680
C151	C	0.531875	0.281485	0.718680
C152	C	0.781875	0.531485	0.968680
C153	C	-0.022728	-0.218523	0.218683
C154	C	0.227272	0.031477	0.468683
C155	C	0.477272	0.281477	0.718683
C156	C	0.727272	0.531477	0.968683
C157	C	-0.022725	-0.285497	0.285438
C158	C	0.227275	-0.035497	0.535438
C159	C	0.477275	0.214503	0.785438
C160	C	0.727275	0.464503	1.035438
C161	C	0.031878	-0.285492	0.285433
C162	C	0.281878	-0.035492	0.535433
C163	C	0.531878	0.214508	0.785433
C164	C	0.781878	0.464508	1.035433
C165	C	0.059178	-0.251998	0.252054
C166	C	0.309178	-0.001998	0.502054
C167	C	0.559178	0.248002	0.752054
C168	C	0.809178	0.498002	1.002054
C169	C	0.479618	-0.285455	0.285368
C170	C	0.729618	-0.035455	0.535368
C171	C	0.979618	0.214545	0.785368
C172	C	1.229618	0.464545	1.035368
C173	C	0.534223	-0.285451	0.285354
C174	C	0.784223	-0.035451	0.535354
C175	C	1.034223	0.214549	0.785354
C176	C	1.284223	0.464549	1.035354
C177	C	0.534216	-0.218475	0.218601
C178	C	0.784216	0.031525	0.468601
C179	C	1.034216	0.281525	0.718601
C180	C	1.284216	0.531525	0.968601
C181	C	0.479615	-0.218481	0.218612
C182	C	0.729615	0.031519	0.468612
C183	C	0.979615	0.281519	0.718612
C184	C	1.229615	0.531519	0.968612
C185	C	0.452318	-0.251972	0.252000
C186	C	0.702318	-0.001972	0.502000
C187	C	0.952318	0.248028	0.752000
C188	C	1.202318	0.498028	1.002000
O189	O	0.393232	-0.190038	0.190252
O190	O	0.643232	0.059962	0.440252
O191	O	0.893232	0.309962	0.690252
O192	O	1.143232	0.559962	0.940252
O193	O	0.393197	-0.313933	0.313776
O194	O	0.643197	-0.063933	0.563776
O195	O	0.893197	0.186067	0.813776
O196	O	1.143197	0.436067	1.063776
C197	C	0.755392	-0.387822	0.251989
C198	C	1.005392	-0.137822	0.501989
C199	C	1.255392	0.112178	0.751989
C200	C	1.505392	0.362178	1.001989
C201	C	0.755403	-0.445936	0.251996
C202	C	1.005403	-0.195936	0.501996
C203	C	1.255403	0.054064	0.751996
C204	C	1.505403	0.304064	1.001996
C205	C	0.789004	-0.806294	0.218638
C206	C	1.039004	-0.556294	0.468638
C207	C	1.289004	-0.306294	0.718638
C208	C	1.539004	-0.056294	0.968638
C209	C	0.789024	-0.860898	0.218645
C210	C	1.039024	-0.610898	0.468645
C211	C	1.289024	-0.360898	0.718645
C212	C	1.539024	-0.110898	0.968645
O213	O	0.817502	-0.889131	0.190257
O214	O	1.067502	-0.639131	0.440257
O215	O	1.317502	-0.389131	0.690257
O216	O	1.567502	-0.139131	0.940257
N217	N	0.755572	-0.888218	0.252048
N218	N	1.005572	-0.638218	0.502048
N219	N	1.255572	-0.388218	0.752048
N220	N	1.505572	-0.138218	1.002048
C221	C	0.722102	-0.860932	0.285449
C222	C	0.972102	-0.610932	0.535449
C223	C	1.222102	-0.360932	0.785449
C224	C	1.472102	-0.110932	1.035449
O225	O	0.693651	-0.889184	0.313861
O226	O	0.943651	-0.639184	0.563861
O227	O	1.193651	-0.389184	0.813861
O228	O	1.443651	-0.139184	1.063861
C229	C	0.722085	-0.806328	0.285444
C230	C	0.972085	-0.556328	0.535444
C231	C	1.222085	-0.306328	0.785444
C232	C	1.472085	-0.056328	1.035444
C233	C	0.755535	-0.779011	0.252036
C234	C	1.005535	-0.529011	0.502036
C235	C	1.255535	-0.279011	0.752036
C236	C	1.505535	-0.029011	1.002036
C237	C	0.822452	-0.778976	0.185233
C238	C	1.072452	-0.528976	0.435233
C239	C	1.322452	-0.278976	0.685233
C240	C	1.572452	-0.028976	0.935233
C241	C	0.822431	-0.724376	0.185226
C242	C	1.072431	-0.474376	0.435226
C243	C	1.322431	-0.224376	0.685226
C244	C	1.572431	0.025624	0.935226
C245	C	0.788962	-0.697093	0.218623
C246	C	1.038962	-0.447093	0.468623
C247	C	1.288962	-0.197093	0.718623
C248	C	1.538962	0.052907	0.968623
C249	C	0.755514	-0.724410	0.252028
C250	C	1.005514	-0.474410	0.502028
C251	C	1.255514	-0.224410	0.752028
C252	C	1.505514	0.025590	1.002028
C253	C	0.688617	-0.779042	0.318847
C254	C	0.938617	-0.529042	0.568847
C255	C	1.188617	-0.279042	0.818847
C256	C	1.438617	-0.029042	1.068847
C257	C	0.688603	-0.724435	0.318840
C258	C	0.938603	-0.474435	0.568840
C259	C	1.188603	-0.224435	0.818840
C260	C	1.438603	0.025565	1.068840
C261	C	0.722053	-0.697118	0.285432
C262	C	0.972053	-0.447118	0.535432
C263	C	1.222053	-0.197118	0.785432
C264	C	1.472053	0.052882	1.035432
C265	C	0.722024	-0.642527	0.285418
C266	C	0.972024	-0.392527	0.535418
C267	C	1.222024	-0.142527	0.785418
C268	C	1.472024	0.107473	1.035418
N269	N	0.755475	-0.615206	0.252016
N270	N	1.005475	-0.365206	0.502016
N271	N	1.255475	-0.115206	0.752016
N272	N	1.505475	0.134794	1.002016
C273	C	0.788944	-0.642490	0.218618
C274	C	1.038944	-0.392490	0.468618
C275	C	1.288944	-0.142490	0.718618
C276	C	1.538944	0.107510	0.968618
C277	C	0.722141	-0.975602	0.285457
C278	C	0.972141	-0.725602	0.535457
C279	C	1.222141	-0.475602	0.785457
C280	C	1.472141	-0.225602	1.035457
C281	C	0.722155	-1.030204	0.285459
C282	C	0.972155	-0.780204	0.535459
C283	C	1.222155	-0.530204	0.785459
C284	C	1.472155	-0.280204	1.035459
C285	C	0.789078	-1.030167	0.218656
C286	C	1.039078	-0.780167	0.468656
C287	C	1.289078	-0.530167	0.718656
C288	C	1.539078	-0.280167	0.968656
C289	C	0.789061	-0.975564	0.218652
C290	C	1.039061	-0.725564	0.468652
C291	C	1.289061	-0.475564	0.718652
C292	C	1.539061	-0.225564	0.968652
C293	C	0.755593	-0.948282	0.252055
C294	C	1.005593	-0.698282	0.502055
C295	C	1.255593	-0.448282	0.752055
C296	C	1.505593	-0.198282	1.002055
C297	C	0.788897	-0.527824	0.218605
C298	C	1.038897	-0.277824	0.468605
C299	C	1.288897	-0.027824	0.718605
C300	C	1.538897	0.222176	0.968605
C301	C	0.788872	-0.473219	0.218599
C302	C	1.038872	-0.223219	0.468599
C303	C	1.288872	0.026781	0.718599
C304	C	1.538872	0.276781	0.968599
C305	C	0.721951	-0.473261	0.285403
C306	C	0.971951	-0.223261	0.535403
C307	C	1.221951	0.026739	0.785403
C308	C	1.471951	0.276739	1.035403
C309	C	0.721974	-0.527862	0.285408
C310	C	0.971974	-0.277862	0.535408
C311	C	1.221974	-0.027862	0.785408
C312	C	1.471974	0.222138	1.035408
C313	C	0.755452	-0.555142	0.252007
C314	C	1.005452	-0.305142	0.502007
C315	C	1.255452	-0.055142	0.752007
C316	C	1.505452	0.194858	1.002007
O317	O	0.693562	-0.614260	0.313793
O318	O	0.943562	-0.364260	0.563793
O319	O	1.193562	-0.114260	0.813793
O320	O	1.443562	0.135740	1.063793
O321	O	0.817396	-0.614231	0.190216
O322	O	1.067396	-0.364231	0.440216
O323	O	1.317396	-0.114231	0.690216
O324	O	1.567396	0.135769	0.940216
C325	C	0.891853	-0.252000	0.252049
C326	C	1.141853	-0.002000	0.502049
C327	C	1.391853	0.248000	0.752049
C328	C	1.641853	0.498000	1.002049
C329	C	0.949967	-0.252009	0.252064
C330	C	1.199967	-0.002009	0.502064
C331	C	1.449967	0.247991	0.752064
C332	C	1.699967	0.497991	1.002064
C333	C	0.755497	-0.251970	0.388386
C334	C	1.005497	-0.001970	0.638386
C335	C	1.255497	0.248030	0.888386
C336	C	1.505497	0.498030	1.138386
C337	C	0.755504	-0.251966	0.446500
C338	C	1.005504	-0.001966	0.696500
C339	C	1.255504	0.248034	0.946500
C340	C	1.505504	0.498034	1.196500
C341	C	0.755583	-0.115606	0.252048
C342	C	1.005583	0.134394	0.502048
C343	C	1.255583	0.384394	0.752048
C344	C	1.505583	0.634394	1.002048
C345	C	0.755627	-0.057492	0.252064
C346	C	1.005627	0.192508	0.502064
C347	C	1.255627	0.442508	0.752064
C348	C	1.505627	0.692508	1.002064
C349	C	0.755494	-0.251951	0.116170
C350	C	1.005494	-0.001951	0.366170
C351	C	1.255494	0.248049	0.616170
C352	C	1.505494	0.498049	0.866170
C353	C	0.755588	-0.251807	0.058057
C354	C	1.005588	-0.001807	0.308057
C355	C	1.255588	0.248193	0.558057
C356	C	1.505588	0.498193	0.808057
C357	C	0.789012	-0.218432	0.806886
C358	C	1.039012	0.031568	1.056886
C359	C	1.289012	0.281568	1.306886
C360	C	1.539012	0.531568	1.556886
C361	C	0.789019	-0.218417	0.861491
C362	C	1.039019	0.031583	1.111491
C363	C	1.289019	0.281583	1.361491
C364	C	1.539019	0.531583	1.611491
O365	O	0.817466	-0.189967	0.889747
O366	O	1.067466	0.060033	1.139747
O367	O	1.317466	0.310033	1.389747
O368	O	1.567466	0.560033	1.639747
N369	N	0.755562	-0.251844	0.888783
N370	N	1.005562	-0.001844	1.138783
N371	N	1.255562	0.248156	1.388783
N372	N	1.505562	0.498156	1.638783
C373	C	0.722093	-0.285283	0.861468
C374	C	0.972093	-0.035283	1.111468
C375	C	1.222093	0.214717	1.361468
C376	C	1.472093	0.464717	1.611468
O377	O	0.693636	-0.313713	0.889695
O378	O	0.943636	-0.063713	1.139695
O379	O	1.193636	0.186287	1.389695
O380	O	1.443636	0.436287	1.639695
C381	C	0.722084	-0.285294	0.806864
C382	C	0.972084	-0.035294	1.056864
C383	C	1.222084	0.214706	1.306864
C384	C	1.472084	0.464706	1.556864
C385	C	0.755547	-0.251870	0.779575
C386	C	1.005547	-0.001870	1.029575
C387	C	1.255547	0.248130	1.279575
C388	C	1.505547	0.498130	1.529575
C389	C	0.822472	-0.185009	0.779597
C390	C	1.072472	0.064991	1.029597
C391	C	1.322472	0.314991	1.279597
C392	C	1.572472	0.564991	1.529597
C393	C	0.822466	-0.185025	0.724997
C394	C	1.072466	0.064975	0.974997
C395	C	1.322466	0.314975	1.224997
C396	C	1.572466	0.564975	1.474997
C397	C	0.789000	-0.218462	0.697685
C398	C	1.039000	0.031538	0.947685
C399	C	1.289000	0.281538	1.197685
C400	C	1.539000	0.531538	1.447685
C401	C	0.755541	-0.251885	0.724974
C402	C	1.005541	-0.001885	0.974974
C403	C	1.255541	0.248115	1.224974
C404	C	1.505541	0.498115	1.474974
C405	C	0.688613	-0.318731	0.779550
C406	C	0.938613	-0.068731	1.029550
C407	C	1.188613	0.181269	1.279550
C408	C	1.438613	0.431269	1.529550
C409	C	0.688607	-0.318739	0.724943
C410	C	0.938607	-0.068739	0.974943
C411	C	1.188607	0.181261	1.224943
C412	C	1.438607	0.431261	1.474943
C413	C	0.722069	-0.285314	0.697654
C414	C	0.972069	-0.035314	0.947654
C415	C	1.222069	0.214686	1.197654
C416	C	1.472069	0.464686	1.447654
C417	C	0.722070	-0.285338	0.643063
C418	C	0.972070	-0.035338	0.893063
C419	C	1.222070	0.214662	1.143063
C420	C	1.472070	0.464662	1.393063
N421	N	0.755526	-0.251912	0.615771
N422	N	1.005526	-0.001912	0.865771
N423	N	1.255526	0.248088	1.115771
N424	N	1.505526	0.498088	1.365771
C425	C	0.788992	-0.218474	0.643082
C426	C	1.038992	0.031526	0.893082
C427	C	1.288992	0.281526	1.143082
C428	C	1.538992	0.531526	1.393082
C429	C	0.722113	-0.285256	0.976138
C430	C	0.972113	-0.035256	1.226138
C431	C	1.222113	0.214744	1.476138
C432	C	1.472113	0.464744	1.726138
C433	C	0.722124	-0.285247	1.030741
C434	C	0.972124	-0.035247	1.280741
C435	C	1.222124	0.214753	1.530741
C436	C	1.472124	0.464753	1.780741
C437	C	0.789049	-0.218381	1.030760
C438	C	1.039049	0.031619	1.280760
C439	C	1.289049	0.281619	1.530760
C440	C	1.539049	0.531619	1.780760
C441	C	0.789041	-0.218392	0.976157
C442	C	1.039041	0.031608	1.226157
C443	C	1.289041	0.281608	1.476157
C444	C	1.539041	0.531608	1.726157
C445	C	0.755570	-0.251829	0.948846
C446	C	1.005570	-0.001829	1.198846
C447	C	1.255570	0.248171	1.448846
C448	C	1.505570	0.498171	1.698846
C449	C	0.788977	-0.218509	0.528417
C450	C	1.038977	0.031491	0.778417
C451	C	1.288977	0.281491	1.028417
C452	C	1.538977	0.531491	1.278417
C453	C	0.788970	-0.218529	0.473811
C454	C	1.038970	0.031471	0.723811
C455	C	1.288970	0.281471	0.973811
C456	C	1.538970	0.531471	1.223811
C457	C	0.722043	-0.285393	0.473797
C458	C	0.972043	-0.035393	0.723797
C459	C	1.222043	0.214607	0.973797
C460	C	1.472043	0.464607	1.223797
C461	C	0.722052	-0.285375	0.528397
C462	C	0.972052	-0.035375	0.778397
C463	C	1.222052	0.214625	1.028397
C464	C	1.472052	0.464625	1.278397
C465	C	0.755521	-0.251929	0.555706
C466	C	1.005521	-0.001929	0.805706
C467	C	1.255521	0.248071	1.055706
C468	C	1.505521	0.498071	1.305706
O469	O	0.693635	-0.313773	0.614771
O470	O	0.943635	-0.063773	0.864771
O471	O	1.193635	0.186227	1.114771
O472	O	1.443635	0.436227	1.364771
O473	O	0.817439	-0.190044	0.614847
O474	O	1.067439	0.059956	0.864847
O475	O	1.317439	0.309956	1.114847
O476	O	1.567439	0.559956	1.364847
H477	H	0.305272	-0.346225	0.345950
H478	H	0.555272	-0.096225	0.595950
H479	H	0.805272	0.153775	0.845950
H480	H	1.055272	0.403775	1.095950
C481	C	0.859233	-0.694334	0.148483
C482	C	1.109233	-0.444334	0.398483
C483	C	1.359233	-0.194334	0.648483
C484	C	1.609233	0.055666	0.898483
H485	H	0.879170	-0.718409	0.128601
H486	H	1.129170	-0.468409	0.378601
H487	H	1.379170	-0.218409	0.628601
H488	H	1.629170	0.031591	0.878601
H489	H	0.839248	-0.673059	0.125674
H490	H	1.089248	-0.423059	0.375674
H491	H	1.339248	-0.173059	0.625674
H492	H	1.589248	0.076941	0.875674
H493	H	0.881996	-0.673006	0.168510
H494	H	1.131996	-0.423006	0.418510
H495	H	1.381996	-0.173006	0.668510
H496	H	1.631996	0.076994	0.918510
C497	C	0.825860	-0.945520	0.181907
C498	C	1.075860	-0.695520	0.431907
C499	C	1.325860	-0.445520	0.681907
C500	C	1.575860	-0.195520	0.931907
H501	H	0.845796	-0.969594	0.162022
H502	H	1.095796	-0.719594	0.412022
H503	H	1.345796	-0.469594	0.662022
H504	H	1.595796	-0.219594	0.912022
H505	H	0.805873	-0.924244	0.159102
H506	H	1.055873	-0.674244	0.409102
H507	H	1.305873	-0.424244	0.659102
H508	H	1.555873	-0.174244	0.909102
H509	H	0.848625	-0.924193	0.201934
H510	H	1.098625	-0.674193	0.451934
H511	H	1.348625	-0.424193	0.701934
H512	H	1.598625	-0.174193	0.951934
C513	C	0.685357	-1.060248	0.322205
C514	C	0.935357	-0.810248	0.572205
C515	C	1.185357	-0.560248	0.822205
C516	C	1.435357	-0.310248	1.072205
H517	H	0.665426	-1.036174	0.342095
H518	H	0.915426	-0.786174	0.592095
H519	H	1.165426	-0.536174	0.842095
H520	H	1.415426	-0.286174	1.092095
H521	H	0.662596	-1.081581	0.302186
H522	H	0.912596	-0.831581	0.552186
H523	H	1.162596	-0.581581	0.802186
H524	H	1.412596	-0.331581	1.052186
H525	H	0.705352	-1.081517	0.345014
H526	H	0.955352	-0.831517	0.595014
H527	H	1.205352	-0.581517	0.845014
H528	H	1.455352	-0.331517	1.095014
C529	C	-0.052754	-0.181687	0.181973
C530	C	0.197246	0.068313	0.431973
C531	C	0.447246	0.318313	0.681973
C532	C	0.697246	0.568313	0.931973
H533	H	-0.089185	-0.186483	0.186754
H534	H	0.160815	0.063517	0.436754
H535	H	0.410815	0.313517	0.686754
H536	H	0.660815	0.563517	0.936754
H537	H	-0.043778	-0.146570	0.189691
H538	H	0.206222	0.103430	0.439691
H539	H	0.456222	0.353430	0.689691
H540	H	0.706222	0.603430	0.939691
H541	H	-0.043829	-0.189287	0.146826
H542	H	0.206171	0.060713	0.396826
H543	H	0.456171	0.310713	0.646826
H544	H	0.706171	0.560713	0.896826
H545	H	0.694881	-0.312471	1.052955
H546	H	0.944881	-0.062471	1.302955
H547	H	1.194881	0.187529	1.552955
H548	H	1.444881	0.437529	1.802955
H549	H	0.694857	-0.312487	0.953905
H550	H	0.944857	-0.062487	1.203905
H551	H	1.194857	0.187513	1.453905
H552	H	1.444857	0.437513	1.703905
H553	H	0.816111	-0.450979	0.191392
H554	H	1.066111	-0.200979	0.441392
H555	H	1.316111	0.049021	0.691392
H556	H	1.566111	0.299021	0.941392
C557	C	0.685231	-0.322169	0.443747
C558	C	0.935231	-0.072169	0.693747
C559	C	1.185231	0.177831	0.943747
C560	C	1.435231	0.427831	1.193747
H561	H	0.690018	-0.317383	0.407320
H562	H	0.940018	-0.067383	0.657320
H563	H	1.190018	0.182617	0.907320
H564	H	1.440018	0.432617	1.157320
H565	H	0.692851	-0.357300	0.452691
H566	H	0.942851	-0.107300	0.702691
H567	H	1.192851	0.142700	0.952691
H568	H	1.442851	0.392700	1.202691
H569	H	0.650107	-0.314502	0.452686
H570	H	0.900107	-0.064502	0.702686
H571	H	1.150107	0.185498	0.952686
H572	H	1.400107	0.435498	1.202686
H573	H	0.206227	-0.346229	0.345967
H574	H	0.456227	-0.096229	0.595967
H575	H	0.706227	0.153771	0.845967
H576	H	0.956227	0.403771	1.095967
H577	H	0.694809	-0.312597	0.550617
H578	H	0.944809	-0.062597	0.800617
H579	H	1.194809	0.187403	1.050617
H580	H	1.444809	0.437403	1.300617
C581	C	0.859270	-0.148252	0.694985
C582	C	1.109270	0.101748	0.944985
C583	C	1.359270	0.351748	1.194985
C584	C	1.609270	0.601748	1.444985
H585	H	0.879195	-0.128335	0.719078
H586	H	1.129195	0.121665	0.969078
H587	H	1.379195	0.371665	1.219078
H588	H	1.629195	0.621665	1.469078
H589	H	0.882036	-0.168255	0.673687
H590	H	1.132036	0.081745	0.923687
H591	H	1.382036	0.331745	1.173687
H592	H	1.632036	0.581745	1.423687
H593	H	0.839280	-0.125469	0.673684
H594	H	1.089280	0.124531	0.923684
H595	H	1.339280	0.374531	1.173684
H596	H	1.589280	0.624531	1.423684
C597	C	0.651799	-0.355494	0.809556
C598	C	0.901799	-0.105494	1.059556
C599	C	1.151799	0.144506	1.309556
C600	C	1.401799	0.394506	1.559556
H601	H	0.631865	-0.375401	0.785463
H602	H	0.881865	-0.125401	1.035463
H603	H	1.131865	0.124599	1.285463
H604	H	1.381865	0.374599	1.535463
H605	H	0.671775	-0.378279	0.830863
H606	H	0.921775	-0.128279	1.080863
H607	H	1.171775	0.121721	1.330863
H608	H	1.421775	0.371721	1.580863
H609	H	0.629033	-0.335479	0.830849
H610	H	0.879033	-0.085479	1.080849
H611	H	1.129033	0.164521	1.330849
H612	H	1.379033	0.414521	1.580849
H613	H	0.816333	-1.052391	0.191464
H614	H	1.066333	-0.802391	0.441464
H615	H	1.316333	-0.552391	0.691464
H616	H	1.566333	-0.302391	0.941464
H617	H	0.305283	-0.157721	0.158103
H618	H	0.555283	0.092279	0.408103
H619	H	0.805283	0.342279	0.658103
H620	H	1.055283	0.592279	0.908103
C621	C	0.198431	-0.148153	0.148586
C622	C	0.448431	0.101847	0.398586
C623	C	0.698431	0.351847	0.648586
C624	C	0.948431	0.601847	0.898586
H625	H	0.162000	-0.152945	0.153365
H626	H	0.412000	0.097055	0.403365
H627	H	0.662000	0.347055	0.653365
H628	H	0.912000	0.597055	0.903365
H629	H	0.207413	-0.113040	0.156315
H630	H	0.457413	0.136960	0.406315
H631	H	0.707413	0.386960	0.656315
H632	H	0.957413	0.636960	0.906315
H633	H	0.207356	-0.155743	0.113437
H634	H	0.457356	0.094257	0.363437
H635	H	0.707356	0.344257	0.613437
H636	H	0.957356	0.594257	0.863437
C637	C	-0.052762	-0.322329	0.322160
C638	C	0.197238	-0.072329	0.572160
C639	C	0.447238	0.177671	0.822160
C640	C	0.697238	0.427671	1.072160
H641	H	-0.089191	-0.317529	0.317385
H642	H	0.160809	-0.067529	0.567385
H643	H	0.410809	0.182471	0.817385
H644	H	0.660809	0.432471	1.067385
H645	H	-0.043840	-0.357449	0.314448
H646	H	0.206160	-0.107449	0.564448
H647	H	0.456160	0.142551	0.814448
H648	H	0.706160	0.392551	1.064448
H649	H	-0.043793	-0.314723	0.357304
H650	H	0.206207	-0.064723	0.607304
H651	H	0.456207	0.185277	0.857304
H652	H	0.706207	0.435277	1.107304
H653	H	0.556449	-0.312723	0.312530
H654	H	0.806449	-0.062723	0.562530
H655	H	1.056449	0.187277	0.812530
H656	H	1.306449	0.437277	1.062530
H657	H	0.457399	-0.312726	0.312556
H658	H	0.707399	-0.062726	0.562556
H659	H	0.957399	0.187274	0.812556
H660	H	1.207399	0.437274	1.062556
H661	H	0.661350	-0.702225	0.346042
H662	H	0.911350	-0.452225	0.596042
H663	H	1.161350	-0.202225	0.846042
H664	H	1.411350	0.047775	1.096042
H665	H	0.054103	-0.312760	0.312609
H666	H	0.304103	-0.062760	0.562609
H667	H	0.554103	0.187240	0.812609
H668	H	0.804103	0.437240	1.062609
H669	H	0.661376	-0.801275	0.346049
H670	H	0.911376	-0.551275	0.596049
H671	H	1.161376	-0.301275	0.846049
H672	H	1.411376	-0.051275	1.096049
C673	C	0.685317	-0.945596	0.322196
C674	C	0.935317	-0.695596	0.572196
C675	C	1.185317	-0.445596	0.822196
C676	C	1.435317	-0.195596	1.072196
H677	H	0.665396	-0.969691	0.342084
H678	H	0.915396	-0.719691	0.592084
H679	H	1.165396	-0.469691	0.842084
H680	H	1.415396	-0.219691	1.092084
H681	H	0.705290	-0.924267	0.344999
H682	H	0.955290	-0.674267	0.594999
H683	H	1.205290	-0.424267	0.844999
H684	H	1.455290	-0.174267	1.094999
H685	H	0.662540	-0.924327	0.302166
H686	H	0.912540	-0.674327	0.552166
H687	H	1.162540	-0.424327	0.802166
H688	H	1.412540	-0.174327	1.052166
C689	C	0.685179	-0.557912	0.322155
C690	C	0.935179	-0.307912	0.572155
C691	C	1.185179	-0.057912	0.822155
C692	C	1.435179	0.192088	1.072155
H693	H	0.665246	-0.533840	0.342045
H694	H	0.915246	-0.283840	0.592045
H695	H	1.165246	-0.033840	0.842045
H696	H	1.415246	0.216160	1.092045
H697	H	0.662420	-0.579249	0.302138
H698	H	0.912420	-0.329249	0.552138
H699	H	1.162420	-0.079249	0.802138
H700	H	1.412420	0.170751	1.052138
H701	H	0.705179	-0.579177	0.344963
H702	H	0.955179	-0.329177	0.594963
H703	H	1.205179	-0.079177	0.844963
H704	H	1.455179	0.170823	1.094963
C705	C	0.685140	-0.443243	0.322140
C706	C	0.935140	-0.193243	0.572140
C707	C	1.185140	0.056757	0.822140
C708	C	1.435140	0.306757	1.072140
H709	H	0.689926	-0.406811	0.317352
H710	H	0.939926	-0.156811	0.567352
H711	H	1.189926	0.093189	0.817352
H712	H	1.439926	0.343189	1.067352
H713	H	0.650017	-0.452224	0.314458
H714	H	0.900017	-0.202224	0.564458
H715	H	1.150017	0.047776	0.814458
H716	H	1.400017	0.297776	1.064458
H717	H	0.692779	-0.452167	0.357280
H718	H	0.942779	-0.202167	0.607280
H719	H	1.192779	0.047833	0.857280
H720	H	1.442779	0.297833	1.107280
H721	H	0.816229	-0.191272	0.550645
H722	H	1.066229	0.058728	0.800645
H723	H	1.316229	0.308728	1.050645
H724	H	1.566229	0.558728	1.300645
C725	C	0.061900	-0.181676	0.181955
C726	C	0.311900	0.068324	0.431955
C727	C	0.561900	0.318324	0.681955
C728	C	0.811900	0.568324	0.931955
H729	H	0.037815	-0.161742	0.162079
H730	H	0.287815	0.088258	0.412079
H731	H	0.537815	0.338258	0.662079
H732	H	0.787815	0.588258	0.912079
H733	H	0.083223	-0.158920	0.201990
H734	H	0.333223	0.091080	0.451990
H735	H	0.583223	0.341080	0.701990
H736	H	0.833223	0.591080	0.951990
H737	H	0.083177	-0.201644	0.159132
H738	H	0.333177	0.048356	0.409132
H739	H	0.583177	0.298356	0.659132
H740	H	0.833177	0.548356	0.909132
C741	C	0.449584	-0.181646	0.181902
C742	C	0.699584	0.068354	0.431902
C743	C	0.949584	0.318354	0.681902
C744	C	1.199584	0.568354	0.931902
H745	H	0.473666	-0.161700	0.162023
H746	H	0.723666	0.088300	0.412023
H747	H	0.973666	0.338300	0.662023
H748	H	1.223666	0.588300	0.912023
H749	H	0.428256	-0.201609	0.159088
H750	H	0.678256	0.048391	0.409088
H751	H	0.928256	0.298391	0.659088
H752	H	1.178256	0.548391	0.909088
H753	H	0.428312	-0.158893	0.201953
H754	H	0.678312	0.091107	0.451953
H755	H	0.928312	0.341107	0.701953
H756	H	1.178312	0.591107	0.951953
H757	H	0.849709	-0.801185	0.158037
H758	H	1.099709	-0.551185	0.408037
H759	H	1.349709	-0.301185	0.658037
H760	H	1.599709	-0.051185	0.908037
C761	C	0.859293	-0.148232	0.809634
C762	C	1.109293	0.101768	1.059634
C763	C	1.359293	0.351768	1.309634
C764	C	1.609293	0.601768	1.559634
H765	H	0.854512	-0.153006	0.846064
H766	H	1.104512	0.096994	1.096064
H767	H	1.354512	0.346994	1.346064
H768	H	1.604512	0.596994	1.596064
H769	H	0.894411	-0.155899	0.800684
H770	H	1.144411	0.094101	1.050684
H771	H	1.394411	0.344101	1.300684
H772	H	1.644411	0.594101	1.550684
H773	H	0.851668	-0.113100	0.800687
H774	H	1.101668	0.136900	1.050687
H775	H	1.351668	0.386900	1.300687
H776	H	1.601668	0.636900	1.550687
C777	C	0.564251	-0.181635	0.181890
C778	C	0.814251	0.068365	0.431890
C779	C	1.064251	0.318365	0.681890
C780	C	1.314251	0.568365	0.931890
H781	H	0.540174	-0.161691	0.162014
H782	H	0.790174	0.088309	0.412014
H783	H	1.040174	0.338309	0.662014
H784	H	1.290174	0.588309	0.912014
H785	H	0.585572	-0.158888	0.201937
H786	H	0.835572	0.091112	0.451937
H787	H	1.085572	0.341112	0.701937
H788	H	1.335572	0.591112	0.951937
H789	H	0.585531	-0.201599	0.159067
H790	H	0.835531	0.048401	0.409067
H791	H	1.085531	0.298401	0.659067
H792	H	1.335531	0.548401	0.909067
C793	C	0.825718	-0.557825	0.181861
C794	C	1.075718	-0.307825	0.431861
C795	C	1.325718	-0.057825	0.681861
C796	C	1.575718	0.192175	0.931861
H797	H	0.845629	-0.533729	0.161964
H798	H	1.095629	-0.283729	0.411964
H799	H	1.345629	-0.033729	0.661964
H800	H	1.595629	0.216271	0.911964
H801	H	0.848497	-0.579097	0.201882
H802	H	1.098497	-0.329097	0.451882
H803	H	1.348497	-0.079097	0.701882
H804	H	1.598497	0.170903	0.951882
H805	H	0.805737	-0.579153	0.159058
H806	H	1.055737	-0.329153	0.409058
H807	H	1.305737	-0.079153	0.659058
H808	H	1.555737	0.170847	0.909058
H809	H	0.816221	-0.191310	0.451595
H810	H	1.066221	0.058690	0.701595
H811	H	1.316221	0.308690	0.951595
H812	H	1.566221	0.558690	1.201595
H813	H	0.816288	-0.191174	0.953941
H814	H	1.066288	0.058826	1.203941
H815	H	1.316288	0.308826	1.453941
H816	H	1.566288	0.558826	1.703941
C817	C	0.825862	-0.181601	1.060809
C818	C	1.075862	0.068399	1.310809
C819	C	1.325862	0.318399	1.560809
C820	C	1.575862	0.568399	1.810809
H821	H	0.821070	-0.186381	1.097237
H822	H	1.071070	0.063619	1.347237
H823	H	1.321070	0.313619	1.597237
H824	H	1.571070	0.563619	1.847237
H825	H	0.860985	-0.189261	1.051870
H826	H	1.110985	0.060739	1.301870
H827	H	1.360985	0.310739	1.551870
H828	H	1.610985	0.560739	1.801870
H829	H	0.818235	-0.146469	1.051866
H830	H	1.068235	0.103531	1.301866
H831	H	1.318235	0.353531	1.551866
H832	H	1.568235	0.603531	1.801866
C833	C	0.651801	-0.355534	0.694905
C834	C	0.901801	-0.105534	0.944905
C835	C	1.151801	0.144466	1.194905
C836	C	1.401801	0.394466	1.444905
H837	H	0.631882	-0.375442	0.718981
H838	H	0.881882	-0.125442	0.968981
H839	H	1.131882	0.124558	1.218981
H840	H	1.381882	0.374558	1.468981
H841	H	0.629029	-0.335547	0.673592
H842	H	0.879029	-0.085547	0.923592
H843	H	1.129029	0.164453	1.173592
H844	H	1.379029	0.414453	1.423592
H845	H	0.671794	-0.378324	0.673615
H846	H	0.921794	-0.128324	0.923615
H847	H	1.171794	0.121676	1.173615
H848	H	1.421794	0.371676	1.423615
