data_functionalizedCrystal
_audit_creation_method	'MofGen! by Chris Wilmer'
_symmetry_space_group_name_H-M	'P1'
_symmetry_Int_Tables_number	1
_symmetry_cell_setting	triclinic
loop_
_symmetry_equiv_pos_as_xyz
  x,y,z
_cell_length_a	27.732066
_cell_length_b	23.532407
_cell_length_c	22.010155
_cell_angle_alpha	89.989135
_cell_angle_beta	89.992007
_cell_angle_gamma	97.250611
loop_
_atom_site_label
_atom_site_type_symbol
_atom_site_fract_x
_atom_site_fract_y
_atom_site_fract_z
O1	O	-0.058671	0.755143	-0.050554
O2	O	-0.067162	0.589262	-0.050547
O3	O	0.007472	0.677349	-0.050553
O4	O	-0.133305	0.667056	-0.050549
O5	O	0.007461	0.677333	0.050497
O6	O	-0.067173	0.589246	0.050503
O7	O	-0.058683	0.755127	0.050496
Cu8	Cu	-0.062929	0.672185	0.059726
Cu9	Cu	-0.062915	0.672204	-0.059778
O10	O	-0.133316	0.667040	0.050502
C11	C	-0.066951	0.568039	-0.000021
C12	C	-0.066301	0.504823	-0.000019
C13	C	0.025473	0.677123	-0.000030
C14	C	0.079129	0.676468	-0.000035
C15	C	0.456288	0.619951	-0.000032
C16	C	0.254624	0.622363	-0.000034
O17	O	0.223439	0.578510	-0.000057
N18	N	0.235416	0.674597	-0.000037
C19	C	0.266628	0.726232	-0.000043
O20	O	0.245663	0.770716	-0.000051
C21	C	0.468291	0.723820	-0.000045
C22	C	0.487496	0.671582	-0.000036
C23	C	0.475493	0.567717	-0.000024
C24	C	0.525906	0.567115	-0.000020
C25	C	0.557114	0.618746	-0.000024
C26	C	0.537909	0.670979	-0.000032
C27	C	0.499502	0.775454	-0.000055
C28	C	0.549920	0.774846	-0.000057
C29	C	0.569125	0.722608	-0.000048
C30	C	0.619529	0.722008	-0.000032
N31	N	0.638737	0.669773	-0.000030
C32	C	0.607529	0.618142	-0.000026
C33	C	0.160752	0.727496	-0.000040
C34	C	0.110336	0.728099	-0.000039
C35	C	0.098336	0.624229	-0.000032
C36	C	0.148752	0.623627	-0.000029
C37	C	0.179960	0.675261	-0.000038
C38	C	0.713401	0.616881	-0.000017
C39	C	0.763819	0.616283	-0.000011
C40	C	0.775815	0.720152	-0.000021
C41	C	0.725401	0.720751	-0.000024
C42	C	0.694195	0.669110	-0.000025
O43	O	0.650743	0.765838	-0.000017
O44	O	0.628504	0.573665	-0.000031
C45	C	0.405875	0.620553	-0.000036
C46	C	0.386670	0.672787	-0.000044
C47	C	0.417877	0.724418	-0.000048
C48	C	0.336254	0.673390	-0.000042
C49	C	0.305047	0.621759	-0.000038
C50	C	0.324254	0.569525	-0.000036
C51	C	0.374667	0.568922	-0.000032
C52	C	0.398670	0.776652	-0.000050
C53	C	0.348256	0.777251	-0.000054
C54	C	0.317048	0.725620	-0.000050
C55	C	-0.058893	0.776351	-0.000031
C56	C	-0.059543	0.839566	-0.000038
C57	C	0.848682	0.667264	-0.000021
C58	C	0.795026	0.667914	-0.000015
N59	N	-0.062938	0.672176	0.143779
C60	C	-0.019454	1.238752	-0.000018
C61	C	-0.020058	1.298151	-0.000015
O62	O	0.017106	1.334972	0.000005
N63	N	-0.064427	1.320686	-0.000016
C64	C	-0.108196	1.283818	-0.000013
O65	O	-0.145991	1.308440	-0.000012
C66	C	-0.107591	1.224420	-0.000011
C67	C	-0.063219	1.201889	-0.000017
C68	C	0.024915	1.216220	-0.000023
C69	C	0.025519	1.156825	-0.000027
C70	C	-0.018247	1.119962	-0.000026
C71	C	-0.062615	1.142494	-0.000021
C72	C	-0.151359	1.187554	-0.000004
C73	C	-0.150751	1.128152	-0.000002
C74	C	-0.106379	1.105621	-0.000007
C75	C	-0.105777	1.046236	-0.000023
N76	N	-0.061407	1.023701	-0.000023
C77	C	-0.017642	1.060564	-0.000024
C78	C	-0.109461	1.408558	-0.000015
C79	C	-0.110066	1.467955	-0.000021
C80	C	-0.021928	1.482283	-0.000022
C81	C	-0.021324	1.422886	-0.000021
C82	C	-0.065092	1.386023	-0.000015
C83	C	-0.016378	0.935830	-0.000033
C84	C	-0.015778	0.876429	-0.000039
C85	C	-0.103916	0.862106	-0.000034
C86	C	-0.104516	0.921501	-0.000031
C87	C	-0.060743	0.958363	-0.000028
O88	O	-0.142920	1.009380	-0.000041
O89	O	0.020147	1.035934	-0.000016
N90	N	-0.062903	0.672218	-0.143830
C91	C	-0.029872	0.711211	0.563556
C92	C	-0.029869	0.711214	0.627163
O93	O	-0.001762	0.744380	0.660052
N94	N	-0.062905	0.672204	0.658986
C95	C	-0.095944	0.633185	0.627197
O96	O	-0.124043	0.600003	0.660106
C97	C	-0.095944	0.633180	0.563591
C98	C	-0.062909	0.672196	0.531772
C99	C	0.003160	0.750224	0.531736
C100	C	0.003156	0.750222	0.468133
C101	C	-0.029881	0.711207	0.436349
C102	C	-0.062913	0.672194	0.468168
C103	C	-0.128980	0.594158	0.531804
C104	C	-0.128978	0.594157	0.468193
C105	C	-0.095943	0.633173	0.436374
C106	C	-0.095954	0.633177	0.372781
N107	N	-0.062918	0.672187	0.340959
C108	C	-0.029881	0.711202	0.372743
C109	C	-0.095939	0.633197	0.760775
C110	C	-0.095941	0.633204	0.824380
C111	C	-0.029866	0.711233	0.824342
C112	C	-0.029867	0.711228	0.760735
C113	C	-0.062903	0.672207	0.728953
C114	C	-0.029893	0.711195	0.239171
C115	C	-0.029901	0.711191	0.175562
C116	C	-0.095974	0.633161	0.175607
C117	C	-0.095968	0.633166	0.239210
C118	C	-0.062923	0.672186	0.270991
O119	O	-0.124045	0.600026	0.339852
O120	O	-0.001782	0.744373	0.339827
H121	H	0.687998	0.574831	-0.000018
O122	O	-0.127973	0.595241	0.729876
C123	C	-0.138614	0.517389	0.658064
C124	C	-0.102284	0.560332	0.693026
H125	H	-0.117859	0.489161	0.628253
H126	H	-0.162218	0.489471	0.691711
H127	H	-0.162666	0.541775	0.628312
H128	H	-0.078200	0.535992	0.722778
H129	H	-0.078714	0.588249	0.659346
H130	H	0.094705	0.770636	-0.000036
O131	O	0.035188	0.788151	0.562672
C132	C	0.045815	0.866060	0.634416
C133	C	0.009491	0.823124	0.599436
H134	H	0.025053	0.894354	0.664138
H135	H	0.069857	0.841726	0.664240
H136	H	0.069430	0.893912	0.600726
H137	H	-0.014156	0.795260	0.633082
H138	H	-0.014517	0.847492	0.569603
O139	O	0.002226	0.749152	0.269943
C140	C	0.067781	0.826522	0.263175
C141	C	0.031429	0.783575	0.228251
H142	H	0.091408	0.854356	0.229482
H143	H	0.047064	0.854833	0.292936
H144	H	0.091807	0.802140	0.292968
H145	H	0.007394	0.807910	0.198424
H146	H	0.052176	0.755265	0.198528
H147	H	-0.140648	0.939847	-0.000027
O148	O	0.021749	1.400933	0.000059
C149	C	0.073597	1.342219	0.052430
C150	C	0.024794	1.367026	0.052407
H151	H	0.076079	1.314810	0.094755
H152	H	0.076098	1.314739	0.010171
H153	H	0.104762	1.378785	0.052397
H154	H	-0.006399	1.330498	0.052461
H155	H	0.022335	1.394523	0.094662
H156	H	0.450088	0.525671	-0.000023
O157	O	0.035245	0.788034	0.437116
C158	C	0.046103	0.865644	0.364988
C159	C	0.009666	0.822955	0.400136
H160	H	0.025437	0.893881	0.335072
H161	H	0.069798	0.893578	0.398513
H162	H	0.070054	0.841043	0.335325
H163	H	-0.014317	0.847509	0.429800
H164	H	-0.013995	0.795022	0.366578
H165	H	-0.002965	0.743000	0.850232
H166	H	0.072918	0.582189	-0.000026
O167	O	0.190995	0.777709	-0.000017
C168	C	0.197563	0.880796	-0.000053
C169	C	0.163261	0.823972	-0.000070
H170	H	0.175155	0.918214	-0.000109
H171	H	0.221452	0.883147	0.042246
H172	H	0.221482	0.883092	-0.042333
H173	H	0.139312	0.821637	0.042181
H174	H	0.139406	0.821645	-0.042397
H175	H	0.483874	0.817991	-0.000062
H176	H	0.575327	0.816894	-0.000068
H177	H	-0.155880	0.562388	0.557702
O178	O	0.002271	0.749032	0.729780
C179	C	0.068407	0.761680	0.658047
C180	C	0.032012	0.718813	0.693039
H181	H	0.092470	0.737264	0.628343
H182	H	0.047726	0.789963	0.628203
H183	H	0.091993	0.789553	0.691729
H184	H	0.008418	0.690902	0.659401
H185	H	0.052723	0.690570	0.722892
H186	H	0.060556	1.246229	-0.000022
H187	H	0.013708	1.512308	-0.000023
H188	H	-0.146199	1.486294	-0.000025
H189	H	0.709764	0.763287	-0.000023
O190	O	-0.128053	0.595253	0.855192
C191	C	-0.193609	0.517881	0.848499
C192	C	-0.157263	0.560826	0.813533
H193	H	-0.217241	0.490044	0.814834
H194	H	-0.172887	0.489574	0.878262
H195	H	-0.217630	0.542266	0.878295
H196	H	-0.133232	0.536488	0.783704
H197	H	-0.178015	0.589133	0.783809
H198	H	-0.139548	0.832081	-0.000036
O199	O	-0.128108	0.595347	0.270148
C200	C	-0.194154	0.582632	0.342008
C201	C	-0.157793	0.625531	0.307006
H202	H	-0.218157	0.607019	0.371826
H203	H	-0.217801	0.554757	0.308387
H204	H	-0.173393	0.554353	0.371756
H205	H	-0.178514	0.653847	0.277257
H206	H	-0.134146	0.653366	0.340660
O207	O	0.167463	0.572919	-0.000107
C208	C	0.217390	0.511942	-0.052478
C209	C	0.196245	0.569395	-0.052456
H210	H	0.240656	0.509068	-0.094804
H211	H	0.240721	0.509044	-0.010220
H212	H	0.186412	0.475156	-0.052444
H213	H	0.227192	0.606214	-0.052512
H214	H	0.172901	0.572243	-0.094711
H215	H	-0.155879	0.562379	0.442319
H216	H	-0.003000	0.742965	0.149657
H217	H	0.541538	0.524578	-0.000019
O218	O	-0.128130	0.595318	0.144752
C219	C	-0.212322	0.561176	0.125329
C220	C	-0.175962	0.604075	0.160301
H221	H	-0.251002	0.568232	0.137897
H222	H	-0.206686	0.567878	0.074396
H223	H	-0.206190	0.515624	0.137835
H224	H	-0.182072	0.649644	0.147846
H225	H	-0.181607	0.597323	0.211225
O226	O	-0.194454	1.209452	-0.000113
C227	C	-0.246287	1.268204	-0.052455
C228	C	-0.197466	1.243438	-0.052409
H229	H	-0.248734	1.295696	-0.094725
H230	H	-0.277473	1.231662	-0.052493
H231	H	-0.248784	1.295622	-0.010148
H232	H	-0.194922	1.216027	-0.094708
H233	H	-0.166304	1.280006	-0.052339
O234	O	0.806086	0.770341	-0.000109
C235	C	0.831809	0.858913	-0.052500
C236	C	0.797489	0.802103	-0.052462
H237	H	0.824877	0.884604	-0.094830
H238	H	0.824851	0.884685	-0.010245
H239	H	0.871135	0.849489	-0.052470
H240	H	0.758150	0.811475	-0.052514
H241	H	0.804489	0.776349	-0.094714
H242	H	0.779452	0.573743	-0.000001
H243	H	0.390299	0.526385	-0.000025
H244	H	0.298836	0.527485	-0.000029
H245	H	-0.145105	1.378547	-0.000014
H246	H	0.332625	0.819792	-0.000056
O247	O	0.428912	0.826861	-0.000024
C248	C	0.435482	0.929948	-0.000059
C249	C	0.401180	0.873124	-0.000080
H250	H	0.413074	0.967367	-0.000118
H251	H	0.459368	0.932298	0.042243
H252	H	0.459404	0.932245	-0.042336
H253	H	0.377227	0.870790	0.042168
H254	H	0.377327	0.870798	-0.042411
O255	O	0.027358	0.854611	-0.000124
C256	C	0.102868	0.848679	-0.052496
C257	C	0.054042	0.873434	-0.052470
H258	H	0.124452	0.863877	-0.094820
H259	H	0.124509	0.863900	-0.010235
H260	H	0.095775	0.799895	-0.052470
H261	H	0.061091	0.922219	-0.052517
H262	H	0.032416	0.858169	-0.094727
O263	O	0.026111	0.971690	-0.000115
C264	C	0.076605	1.047046	-0.052492
C265	C	0.028465	1.006478	-0.052461
H266	H	0.078529	1.075175	-0.094816
H267	H	0.078535	1.075245	-0.010232
H268	H	0.108408	1.020719	-0.052468
H269	H	-0.003365	1.032760	-0.052507
H270	H	0.026578	0.978278	-0.094718
H271	H	0.061651	1.138486	-0.000029
H272	H	-0.186393	1.098141	0.000006
