data_functionalizedCrystal
_audit_creation_method	'MofGen! by Chris Wilmer'
_symmetry_space_group_name_H-M	'P1'
_symmetry_Int_Tables_number	1
_symmetry_cell_setting	triclinic
loop_
_symmetry_equiv_pos_as_xyz
  x,y,z
_cell_length_a	14.044190
_cell_length_b	14.044220
_cell_length_c	13.101039
_cell_angle_alpha	93.659868
_cell_angle_beta	93.663707
_cell_angle_gamma	86.809672
loop_
_atom_site_label
_atom_site_type_symbol
_atom_site_fract_x
_atom_site_fract_y
_atom_site_fract_z
O1	O	0.225348	-1.281975	-0.085126
O2	O	0.725348	-0.781975	0.414874
O3	O	0.217041	-1.005305	-0.085151
O4	O	0.717041	-0.505305	0.414849
O5	O	0.082859	-1.139483	-0.085118
O6	O	0.582859	-0.639483	0.414882
O7	O	0.359530	-1.147797	-0.085158
O8	O	0.859530	-0.647797	0.414842
O9	O	0.092504	-1.129857	0.085309
O10	O	0.592504	-0.629857	0.585309
O11	O	0.226686	-0.995679	0.085277
O12	O	0.726686	-0.495679	0.585277
O13	O	0.234993	-1.272349	0.085302
O14	O	0.734993	-0.772349	0.585302
Zn15	Zn	0.232371	-1.132486	0.112348
Zn16	Zn	0.732371	-0.632486	0.612348
Zn17	Zn	0.219663	-1.145168	-0.112197
Zn18	Zn	0.719663	-0.645168	0.387803
O19	O	0.369174	-1.138172	0.085270
O20	O	0.869174	-0.638172	0.585270
C21	C	0.052060	-1.131033	0.000098
C22	C	0.552060	-0.631033	0.500098
C23	C	-0.054083	-1.120185	0.000106
C24	C	0.445917	-0.620185	0.500106
C25	C	0.218228	-0.964870	0.000060
C26	C	0.718228	-0.464870	0.500060
C27	C	0.207382	-0.858728	0.000051
C28	C	0.707382	-0.358728	0.500051
C29	C	0.233806	-1.312784	0.000089
C30	C	0.733806	-0.812784	0.500089
C31	C	0.244651	-1.418927	0.000091
C32	C	0.744651	-0.918927	0.500091
C33	C	-0.299543	-1.177288	0.000071
C34	C	0.200457	-0.677288	0.500071
C35	C	-0.248418	-1.100371	0.000071
C36	C	0.251582	-0.600371	0.500071
C37	C	-0.140280	-1.111398	0.000091
C38	C	0.359720	-0.611398	0.500091
C39	C	-0.407691	-1.166262	0.000052
C40	C	0.092309	-0.666262	0.500052
C41	C	0.399974	-1.146621	0.000051
C42	C	0.899974	-0.646621	0.500051
C43	C	0.506116	-1.157470	0.000036
C44	C	1.006116	-0.657470	0.500036
N45	N	0.241043	-1.123838	0.265595
N46	N	0.741043	-0.623838	0.765595
C47	C	0.187557	-0.664388	0.000075
C48	C	0.687557	-0.164388	0.500075
C49	C	0.264472	-0.613261	0.000068
C50	C	0.764472	-0.113261	0.500068
C51	C	0.253441	-0.505123	0.000081
C52	C	0.753441	-0.005123	0.500081
C53	C	0.198587	-0.772535	0.000062
C54	C	0.698587	-0.272535	0.500062
N55	N	0.210984	-1.153824	-0.265444
N56	N	0.710984	-0.653824	0.234556
C57	C	0.252851	-1.112072	0.474635
C58	C	0.752851	-0.612072	0.974635
C59	C	0.199179	-1.165586	0.525523
C60	C	0.699179	-0.665586	1.025523
C61	C	0.205749	-1.159040	0.641840
C62	C	0.705749	-0.659040	1.141840
C63	C	0.246282	-1.118618	0.358307
C64	C	0.746282	-0.618618	0.858307
H65	H	-0.285862	-1.026240	0.000059
H66	H	0.214138	-0.526240	0.500059
H67	H	0.338605	-0.650703	0.000052
H68	H	0.838605	-0.150703	0.500052
H69	H	-0.262101	-1.251413	0.000088
H70	H	0.237899	-0.751413	0.500088
H71	H	0.113431	-0.626948	0.000091
H72	H	0.613431	-0.126948	0.500091
H73	H	0.148295	-1.216319	0.481733
H74	H	0.648295	-0.716319	0.981733
H75	H	0.303733	-1.061345	0.518419
H76	H	0.803733	-0.561345	1.018419
