data_functionalizedCrystal
_audit_creation_method	'MofGen! by Chris Wilmer'
_symmetry_space_group_name_H-M	'P1'
_symmetry_Int_Tables_number	1
_symmetry_cell_setting	triclinic
loop_
_symmetry_equiv_pos_as_xyz
  x,y,z
_cell_length_a	27.732048
_cell_length_b	8.559649
_cell_length_c	7.681481
_cell_angle_alpha	85.086760
_cell_angle_beta	84.300807
_cell_angle_gamma	103.789340
loop_
_atom_site_label
_atom_site_type_symbol
_atom_site_fract_x
_atom_site_fract_y
_atom_site_fract_z
O1	O	-0.011272	-2.105302	-0.146396
O2	O	0.013714	-1.639479	-0.146414
O3	O	-0.069681	-1.886861	-0.146371
O4	O	0.072123	-1.857919	-0.146440
O5	O	-0.079967	-1.917311	0.146492
O6	O	0.003429	-1.669928	0.146449
O7	O	-0.021558	-2.135751	0.146467
Zn8	Zn	-0.010697	-1.907674	0.192956
Zn9	Zn	0.002854	-1.867556	-0.192904
O10	O	0.061838	-1.888369	0.146424
C11	C	-0.092810	-1.901479	0.000065
C12	C	-0.146402	-1.899652	0.000079
C13	C	0.010465	-1.595127	0.000015
C14	C	0.016101	-1.417607	0.000010
N15	N	-0.019946	-1.935065	0.456295
C16	C	-0.489909	-2.034313	-0.000006
C17	C	-0.691331	-2.027524	-0.000031
O18	O	-0.726877	-2.150663	-0.000103
N19	N	-0.705341	-1.880839	-0.000035
C20	C	-0.668990	-1.735840	-0.000044
O21	O	-0.685527	-1.610917	-0.000066
C22	C	-0.467569	-1.742628	-0.000032
C23	C	-0.453563	-1.889325	-0.000010
C24	C	-0.475902	-2.180997	0.000014
C25	C	-0.425550	-2.182694	0.000030
C26	C	-0.389204	-2.037706	0.000026
C27	C	-0.403211	-1.891021	0.000006
C28	C	-0.431219	-1.597629	-0.000054
C29	C	-0.380861	-1.599339	-0.000055
C30	C	-0.366856	-1.746035	-0.000033
C31	C	-0.316513	-1.747730	0.000018
N32	N	-0.302503	-1.894415	0.000022
C33	C	-0.338849	-2.039403	0.000026
C34	C	-0.774740	-1.732286	-0.000047
C35	C	-0.825096	-1.730589	-0.000047
C36	C	-0.847433	-2.022274	-0.000037
C37	C	-0.797077	-2.023971	-0.000024
C38	C	-0.760731	-1.878971	-0.000043
C39	C	-0.233105	-2.042955	0.000060
C40	C	-0.182747	-2.044640	0.000083
C41	C	-0.160414	-1.752954	0.000064
C42	C	-0.210768	-1.751270	0.000050
C43	C	-0.247112	-1.896283	0.000042
O44	O	-0.280940	-1.624655	0.000070
O45	O	-0.322300	-2.164303	0.000009
C46	C	-0.540261	-2.032616	-0.000022
C47	C	-0.554268	-1.885932	-0.000041
C48	C	-0.517922	-1.740944	-0.000046
C49	C	-0.604623	-1.884235	-0.000041
C50	C	-0.640969	-2.029222	-0.000037
C51	C	-0.626959	-2.175908	-0.000033
C52	C	-0.576607	-2.177604	-0.000018
C53	C	-0.531932	-1.594259	-0.000050
C54	C	-0.582285	-1.592574	-0.000063
C55	C	-0.618631	-1.737562	-0.000059
C56	C	0.084967	-1.873750	-0.000017
C57	C	0.138559	-1.875577	-0.000043
C58	C	-0.018308	-2.180103	0.000033
C59	C	-0.023944	-2.357621	0.000027
N60	N	0.012099	-1.840177	-0.456243
H61	H	-0.171348	-2.164103	0.000106
H62	H	-0.836495	-1.611137	-0.000034
O63	O	-0.070026	-1.458223	0.000283
C64	C	-0.101320	-1.445646	0.151993
H65	H	-0.086563	-1.324040	0.202554
H66	H	-0.140916	-1.454997	0.117898
H67	H	-0.101785	-1.547730	0.258201
O68	O	-0.058929	-2.050845	0.545939
C69	C	-0.055427	-2.204378	0.500949
H70	H	-0.014963	-2.199136	0.450139
H71	H	-0.068218	-2.297294	0.622259
H72	H	-0.080266	-2.240855	0.394074
H73	H	-0.262691	-2.161038	0.000047
H74	H	-0.414152	-2.302148	0.000040
O75	O	0.051159	-1.724580	0.454312
C76	C	0.079563	-1.640429	0.575016
H77	H	0.073080	-1.719568	0.706472
H78	H	0.120961	-1.609729	0.521595
H79	H	0.067616	-1.523947	0.594583
O80	O	-0.511151	-2.321933	-0.000211
C81	C	-0.500312	-2.395284	-0.151897
H82	H	-0.458798	-2.349763	-0.202479
H83	H	-0.509997	-2.532304	-0.117764
H84	H	-0.523376	-2.363103	-0.258105
O85	O	-0.783556	-2.166602	-0.000099
C86	C	-0.826441	-2.294201	-0.000046
H87	H	-0.857111	-2.244457	-0.055483
H88	H	-0.816720	-2.387853	-0.085074
H89	H	-0.840169	-2.353473	0.140457
O90	O	-0.662217	-2.316831	-0.000269
C91	C	-0.651382	-2.390174	-0.151966
H92	H	-0.609866	-2.344698	-0.202520
H93	H	-0.661084	-2.527198	-0.117857
H94	H	-0.674435	-2.357935	-0.258184
O95	O	-0.882804	-2.162962	-0.000126
C96	C	-0.930251	-2.129992	-0.000089
H97	H	-0.925573	-1.998648	-0.055515
H98	H	-0.953533	-2.213620	-0.085136
H99	H	-0.950014	-2.151049	0.140407
O100	O	-0.739503	-1.591286	0.000029
C101	C	-0.762673	-1.461469	-0.000013
H102	H	-0.803791	-1.508804	0.055427
H103	H	-0.743307	-1.368799	0.085019
H104	H	-0.759655	-1.401831	-0.140513
O105	O	0.062174	-1.316892	-0.000328
C106	C	0.093473	-1.329541	-0.151992
H107	H	0.069551	-1.376263	-0.257990
H108	H	0.119018	-1.205354	-0.202923
H109	H	0.117158	-1.417229	-0.117706
H110	H	-0.351269	-1.481259	-0.000073
O111	O	-0.224288	-1.608624	-0.000043
C112	C	-0.181409	-1.481025	0.000009
H113	H	-0.146839	-1.519236	-0.055402
H114	H	-0.185151	-1.369699	-0.085044
H115	H	-0.177566	-1.450960	0.140508
O116	O	-0.125037	-1.612258	-0.000020
C117	C	-0.077593	-1.645234	0.000033
H118	H	-0.078372	-1.765048	-0.055391
H119	H	-0.048329	-1.543914	-0.085006
H120	H	-0.067713	-1.653404	0.140534
O121	O	-0.562991	-2.320096	0.000300
C122	C	-0.539855	-2.345579	0.151955
H123	H	-0.552415	-2.273327	0.257969
H124	H	-0.550960	-2.479881	0.202866
H125	H	-0.497485	-2.304139	0.117665
O126	O	-0.595922	-1.450135	0.000225
C127	C	-0.629727	-1.456178	0.151860
H128	H	-0.624625	-1.550465	0.257900
H129	H	-0.622206	-1.332455	0.202744
H130	H	-0.669684	-1.490497	0.117552
O131	O	-0.496592	-1.453540	0.000187
C132	C	-0.472141	-1.461543	0.151896
H133	H	-0.476069	-1.593677	0.202465
H134	H	-0.430805	-1.397449	0.117798
H135	H	-0.489776	-1.399976	0.258099
H136	H	-0.442612	-1.478172	-0.000082
