data_functionalizedCrystal
_audit_creation_method	'MofGen! by Chris Wilmer'
_symmetry_space_group_name_H-M	'P1'
_symmetry_Int_Tables_number	1
_symmetry_cell_setting	triclinic
loop_
_symmetry_equiv_pos_as_xyz
  x,y,z
_cell_length_a	12.645331
_cell_length_b	19.120786
_cell_length_c	12.645323
_cell_angle_alpha	87.528088
_cell_angle_beta	89.977178
_cell_angle_gamma	92.465319
loop_
_atom_site_label
_atom_site_type_symbol
_atom_site_fract_x
_atom_site_fract_y
_atom_site_fract_z
Zn1	Zn	1.602669	-0.279621	-0.581391
Zn2	Zn	1.594963	-0.397087	-0.396544
Zn3	Zn	1.425382	-0.279647	-0.404133
Zn4	Zn	1.417780	-0.397043	-0.573762
O5	O	1.510198	-0.338350	-0.488957
O6	O	1.749993	-0.295210	-0.556887
O7	O	1.572424	-0.381537	-0.249202
O8	O	1.455306	-0.181353	-0.434015
O9	O	1.744332	-0.381512	-0.421081
O10	O	1.585558	-0.181334	-0.564246
O11	O	1.447833	-0.295255	-0.254777
O12	O	1.276027	-0.295213	-0.426618
O13	O	1.442350	-0.381438	-0.723123
O14	O	1.270442	-0.381463	-0.551244
O15	O	1.578187	-0.295168	-0.728728
O16	O	1.565053	-0.495372	-0.413684
O17	O	1.434878	-0.495340	-0.543885
C18	C	1.234770	-0.338337	-0.488927
C19	C	1.116939	-0.338348	-0.488938
C20	C	1.075540	-0.284004	-0.410675
C21	C	0.952993	-0.283803	-0.410968
C22	C	0.950385	-0.318609	-0.602120
C23	C	1.073009	-0.318203	-0.601636
C24	C	1.066928	-0.412595	-0.455064
C25	C	0.944345	-0.412207	-0.452663
C26	C	1.498333	-0.520841	-0.477156
C27	C	1.493354	-0.598912	-0.472143
C28	C	1.558779	-0.635519	-0.537647
C29	C	1.554097	-0.708875	-0.532938
C30	C	1.483993	-0.745622	-0.462720
C31	C	1.418560	-0.709009	-0.397213
C32	C	1.423238	-0.635655	-0.401928
C33	C	1.466473	-0.967108	-0.445095
C34	C	1.461802	-1.040468	-0.440383
C35	C	1.597338	-1.040328	-0.576110
C36	C	1.602014	-0.966972	-0.580814
C37	C	1.536577	-0.930366	-0.515311
C38	C	1.479207	-0.820603	-0.457903
C39	C	1.541359	-0.855386	-0.520134
C40	C	1.786703	-0.338363	-0.488989
C41	C	1.904532	-0.338369	-0.489002
C42	C	1.510280	-0.338295	-0.765466
C43	C	1.510315	-0.338272	-0.883298
C44	C	1.522139	-0.155146	-0.500828
C45	C	1.527228	-0.077075	-0.505887
C46	C	1.424624	-0.392289	-1.047353
C47	C	1.424821	-0.392556	-0.924775
C48	C	1.620717	-0.358360	-0.926521
C49	C	1.620244	-0.358699	-1.049097
C50	C	1.486680	-0.263866	-1.055301
C51	C	1.484159	-0.264312	-0.932666
C52	C	1.510181	-0.338353	-0.213528
C53	C	1.510365	-0.338178	-0.095709
H54	H	1.096627	-0.430637	-0.373699
C55	C	0.903670	-0.432348	-0.340167
N56	N	0.873026	-0.447518	-0.255435
H57	H	1.615870	-0.605605	-0.594822
C58	C	0.918194	-0.209488	-0.441867
N59	N	0.891984	-0.153511	-0.465148
C60	C	1.380149	-0.239133	-1.098637
N61	N	1.299904	-0.220512	-1.131276
C62	C	0.899299	-0.469811	-0.523501
N63	N	0.865371	-0.513196	-0.576865
H64	H	0.918806	-0.356987	-0.662262
H65	H	1.369961	-0.605850	-0.348589
H66	H	1.100277	-0.356080	-0.662227
H67	H	0.923171	-0.264948	-0.630606
C68	C	1.626084	-0.749140	-0.604984
N69	N	1.680313	-0.779466	-0.659249
H70	H	0.922053	-0.296131	-0.327256
H71	H	1.093352	-0.453080	-0.512009
C72	C	1.571127	-0.209403	-1.098011
N73	N	1.634737	-0.168388	-1.130184
C74	C	1.679153	-0.926556	-0.658040
N75	N	1.737265	-0.896114	-0.716199
C76	C	1.116409	-0.244895	-0.639570
N77	N	1.149092	-0.189677	-0.668139
H78	H	1.650611	-1.070140	-0.629439
C79	C	1.562864	-0.206964	-0.894983
N80	N	1.622147	-0.163770	-0.866593
C81	C	1.313475	-0.375467	-1.088246
N82	N	1.229754	-0.362796	-1.119055
H83	H	1.404710	-1.070385	-0.383201
C84	C	1.394466	-0.926851	-0.373063
N85	N	1.340217	-0.896527	-0.318815
C86	C	1.341510	-0.749434	-0.319908
N87	N	1.283500	-0.779881	-0.261653
C88	C	1.314020	-0.375572	-0.885203
N89	N	1.230559	-0.362782	-0.855402
C90	C	1.445011	-0.466253	-1.084194
N91	N	1.460375	-0.521963	-1.111939
C92	C	1.121944	-0.210098	-0.441202
N93	N	1.156892	-0.154433	-0.464201
H94	H	1.598433	-0.825465	-0.577310
H95	H	1.422131	-0.850531	-0.400728
C96	C	1.445399	-0.466985	-0.880362
N97	N	1.460878	-0.523052	-0.846910
C98	C	1.648113	-0.432090	-1.083012
N99	N	1.669100	-0.487370	-1.108551
C100	C	1.709141	-0.307780	-1.092483
N101	N	1.776104	-0.269433	-1.125157
H102	H	1.686105	-0.320195	-0.899851
C103	C	1.374454	-0.243828	-0.894634
N104	N	1.291831	-0.228397	-0.865966
C105	C	1.114319	-0.300408	-0.297238
N106	N	1.143567	-0.312749	-0.211802
C107	C	1.649202	-0.430983	-0.880380
N108	N	1.670651	-0.485684	-0.845629
