data_functionalizedCrystal
_audit_creation_method	'MofGen! by Chris Wilmer'
_symmetry_space_group_name_H-M	'P1'
_symmetry_Int_Tables_number	1
_symmetry_cell_setting	triclinic
loop_
_symmetry_equiv_pos_as_xyz
  x,y,z
_cell_length_a	10.654558
_cell_length_b	10.654551
_cell_length_c	11.295483
_cell_angle_alpha	94.137679
_cell_angle_beta	85.855403
_cell_angle_gamma	84.486839
loop_
_atom_site_label
_atom_site_type_symbol
_atom_site_fract_x
_atom_site_fract_y
_atom_site_fract_z
O1	O	1.676220	0.168067	-0.099000
O2	O	1.310743	0.184861	-0.099006
O3	O	1.501884	-0.006275	-0.099004
O4	O	1.485079	0.359203	-0.099003
O5	O	1.485095	0.010487	0.099047
O6	O	1.293954	0.201623	0.099045
O7	O	1.659431	0.184828	0.099050
Cu8	Cu	1.475160	0.194756	0.117131
Cu9	Cu	1.495014	0.174933	-0.117087
O10	O	1.468290	0.375965	0.099048
C11	C	1.255551	0.192007	0.000019
C12	C	1.116108	0.188311	0.000016
C13	C	0.928721	0.173978	-0.107941
C14	C	1.059744	0.177440	-0.107942
C15	C	1.041444	0.195708	0.107983
C16	C	0.910425	0.192237	0.107983
C17	C	0.872363	0.163119	-0.215907
C18	C	0.947018	0.155720	-0.323874
C19	C	1.078041	0.159181	-0.323875
C20	C	1.134408	0.170043	-0.215909
C21	C	1.492255	-0.044692	0.000019
C22	C	1.488564	-0.184136	0.000011
C23	C	1.495983	-0.258785	-0.107944
C24	C	1.492502	-0.389805	-0.107939
C25	C	1.474188	-0.371516	0.107987
C26	C	1.477660	-0.240497	0.107980
C27	C	1.506887	-0.202424	-0.215913
C28	C	1.514308	-0.277074	-0.323878
C29	C	1.510827	-0.408094	-0.323872
C30	C	1.499925	-0.464464	-0.215903
C31	C	1.714623	0.177683	0.000023
C32	C	1.854067	0.181378	0.000017
C33	C	1.477919	0.414382	0.000023
C34	C	1.481611	0.553825	0.000023
N35	N	1.461205	0.208698	0.281867
N36	N	1.508979	0.160982	-0.281823
C37	C	1.609437	0.060552	0.531158
C38	C	1.598900	0.071097	0.655822
C39	C	1.429588	0.240325	0.655860
C40	C	1.440125	0.229781	0.531197
C41	C	1.530054	0.139892	0.468850
C42	C	1.540596	0.129355	0.344184
C43	C	1.371279	0.298576	0.344225
C44	C	1.360741	0.309121	0.468888
H45	H	1.087349	0.204553	0.195884
H46	H	1.682669	-0.012630	0.480395
H47	H	1.509725	-0.095742	-0.215930
H48	H	1.523172	-0.231167	-0.411782
H49	H	1.287520	0.382303	0.519665
Cl50	Cl	0.816569	0.201522	0.243705
H51	H	1.663540	0.006489	0.706550
Cl52	Cl	1.299127	0.174375	-0.215915
H53	H	1.356361	0.313502	0.706639
Cl54	Cl	1.460487	-0.442384	0.243709
H55	H	0.901116	0.146868	-0.411776
H56	H	1.516857	-0.468869	-0.411781
H57	H	1.613824	0.056167	0.293423
H58	H	1.471592	-0.179713	0.195887
Cl59	Cl	0.707649	0.158774	-0.215913
Cl60	Cl	1.171892	0.149864	-0.459603
Cl61	Cl	1.495538	-0.629176	-0.215900
Cl62	Cl	1.271486	0.398329	0.265883
