data_functionalizedCrystal
_audit_creation_method	'MofGen! by Chris Wilmer'
_symmetry_space_group_name_H-M	'P1'
_symmetry_Int_Tables_number	1
_symmetry_cell_setting	triclinic
loop_
_symmetry_equiv_pos_as_xyz
  x,y,z
_cell_length_a	13.897449
_cell_length_b	13.897447
_cell_length_c	13.897441
_cell_angle_alpha	89.973472
_cell_angle_beta	90.020733
_cell_angle_gamma	89.977525
loop_
_atom_site_label
_atom_site_type_symbol
_atom_site_fract_x
_atom_site_fract_y
_atom_site_fract_z
Zn1	Zn	1.474679	0.383951	0.545408
Zn2	Zn	1.724679	0.633951	0.795408
Zn3	Zn	1.974679	0.883951	1.045408
Zn4	Zn	2.224679	1.133951	1.295408
Zn5	Zn	1.474563	0.545273	0.384121
Zn6	Zn	1.724563	0.795273	0.634121
Zn7	Zn	1.974563	1.045273	0.884121
Zn8	Zn	2.224563	1.295273	1.134121
Zn9	Zn	1.313368	0.383997	0.384127
Zn10	Zn	1.563368	0.633997	0.634127
Zn11	Zn	1.813368	0.883997	0.884127
Zn12	Zn	2.063368	1.133997	1.134127
Zn13	Zn	1.313340	0.545210	0.545374
Zn14	Zn	1.563340	0.795210	0.795374
Zn15	Zn	1.813340	1.045210	1.045374
Zn16	Zn	2.063340	1.295210	1.295374
O17	O	1.393988	0.464608	0.464758
O18	O	1.643988	0.714608	0.714758
O19	O	1.893988	0.964608	0.964758
O20	O	2.143988	1.214608	1.214758
O21	O	1.609645	0.405358	0.524026
O22	O	1.859645	0.655358	0.774026
O23	O	2.109645	0.905358	1.024026
O24	O	2.359645	1.155358	1.274026
O25	O	1.453144	0.523925	0.249140
O26	O	1.703144	0.773925	0.499140
O27	O	1.953144	1.023925	0.749140
O28	O	2.203144	1.273925	0.999140
O29	O	1.334827	0.249009	0.405538
O30	O	1.584827	0.499009	0.655538
O31	O	1.834827	0.749009	0.905538
O32	O	2.084827	0.999009	1.155538
O33	O	1.609560	0.523881	0.405529
O34	O	1.859560	0.773881	0.655529
O35	O	2.109560	1.023881	0.905529
O36	O	2.359560	1.273881	1.155529
O37	O	1.453341	0.248976	0.524031
O38	O	1.703341	0.498976	0.774031
O39	O	1.953341	0.748976	1.024031
O40	O	2.203341	0.998976	1.274031
O41	O	1.334714	0.405436	0.249144
O42	O	1.584714	0.655436	0.499144
O43	O	1.834714	0.905436	0.749144
O44	O	2.084714	1.155436	0.999144
O45	O	1.178383	0.405375	0.405504
O46	O	1.428383	0.655375	0.655504
O47	O	1.678383	0.905375	0.905504
O48	O	1.928383	1.155375	1.155504
O49	O	1.334779	0.523773	0.680360
O50	O	1.584779	0.773773	0.930360
O51	O	1.834779	1.023773	1.180360
O52	O	2.084779	1.273773	1.430360
O53	O	1.178362	0.523817	0.523972
O54	O	1.428362	0.773817	0.773972
O55	O	1.678362	1.023817	1.023972
O56	O	1.928362	1.273817	1.273972
O57	O	1.453314	0.405297	0.680386
O58	O	1.703314	0.655297	0.930386
O59	O	1.953314	0.905297	1.180386
O60	O	2.203314	1.155297	1.430386
O61	O	1.453116	0.680246	0.405495
O62	O	1.703116	0.930246	0.655495
O63	O	1.953116	1.180246	0.905495
O64	O	2.203116	1.430246	1.155495
O65	O	1.334666	0.680200	0.523967
O66	O	1.584666	0.930200	0.773967
O67	O	1.834666	1.180200	1.023967
O68	O	2.084666	1.430200	1.273967
C69	C	1.143373	0.464595	0.464736
C70	C	1.393373	0.714595	0.714736
C71	C	1.643373	0.964595	0.964736
C72	C	1.893373	1.214595	1.214736
C73	C	1.036159	0.464613	0.464749
C74	C	1.286159	0.714613	0.714749
C75	C	1.536159	0.964613	0.964749
C76	C	1.786159	1.214613	1.214749
C77	C	0.839864	0.464616	0.464774
C78	C	1.089864	0.714616	0.714774
C79	C	1.339864	0.964616	0.964774
C80	C	1.589864	1.214616	1.214774
C81	C	0.949097	0.464611	0.464758
C82	C	1.199097	0.714611	0.714758
C83	C	1.449097	0.964611	0.964758
C84	C	1.699097	1.214611	1.214758
C85	C	1.393902	0.715222	0.464748
C86	C	1.643902	0.965222	0.714748
C87	C	1.893902	1.215222	0.964748
C88	C	2.143902	1.465222	1.214748
C89	C	1.393954	0.822436	0.464775
C90	C	1.643954	1.072436	0.714775
C91	C	1.893954	1.322436	0.964775
C92	C	2.143954	1.572436	1.214775
C93	C	1.393998	0.909506	0.464802
C94	C	1.643998	1.159506	0.714802
C95	C	1.893998	1.409506	0.964802
C96	C	2.143998	1.659506	1.214802
C97	C	1.394062	1.018738	0.464832
C98	C	1.644062	1.268738	0.714832
C99	C	1.894062	1.518738	0.964832
C100	C	2.144062	1.768738	1.214832
C101	C	1.645581	0.464621	0.464780
C102	C	1.895581	0.714621	0.714780
C103	C	2.145581	0.964621	0.964780
C104	C	2.395581	1.214621	1.214780
C105	C	1.752795	0.464627	0.464790
C106	C	2.002795	0.714627	0.714790
C107	C	2.252795	0.964627	0.964790
C108	C	2.502795	1.214627	1.214790
C109	C	1.394056	0.464522	0.716351
C110	C	1.644056	0.714522	0.966351
C111	C	1.894056	0.964522	1.216351
C112	C	2.144056	1.214522	1.466351
C113	C	1.394085	0.464486	0.823565
C114	C	1.644085	0.714486	1.073565
C115	C	1.894085	0.964486	1.323565
C116	C	2.144085	1.214486	1.573565
C117	C	1.394093	1.213015	0.464801
C118	C	1.644093	1.463015	0.714801
C119	C	1.894093	1.713015	0.964801
C120	C	2.144093	1.963015	1.214801
C121	C	1.394119	1.105801	0.464851
C122	C	1.644119	1.355801	0.714851
C123	C	1.894119	1.605801	0.964851
C124	C	2.144119	1.855801	1.214851
C125	C	1.393975	0.464623	0.214143
C126	C	1.643975	0.714623	0.464143
C127	C	1.893975	0.964623	0.714143
C128	C	2.143975	1.214623	0.964143
C129	C	1.394133	0.464388	0.106930
C130	C	1.644133	0.714388	0.356930
C131	C	1.894133	0.964388	0.606930
C132	C	2.144133	1.214388	0.856930
C133	C	1.394111	0.464421	1.019860
C134	C	1.644111	0.714421	1.269860
C135	C	1.894111	0.964421	1.519860
C136	C	2.144111	1.214421	1.769860
C137	C	1.394094	0.464460	0.910627
C138	C	1.644094	0.714460	1.160627
C139	C	1.894094	0.964460	1.410627
C140	C	2.144094	1.214460	1.660627
