data_functionalizedCrystal
_audit_creation_method	'MofGen! by Chris Wilmer'
_symmetry_space_group_name_H-M	'P1'
_symmetry_Int_Tables_number	1
_symmetry_cell_setting	triclinic
loop_
_symmetry_equiv_pos_as_xyz
  x,y,z
_cell_length_a	16.959455
_cell_length_b	16.959453
_cell_length_c	17.077396
_cell_angle_alpha	89.970430
_cell_angle_beta	89.981150
_cell_angle_gamma	90.022154
loop_
_atom_site_label
_atom_site_type_symbol
_atom_site_fract_x
_atom_site_fract_y
_atom_site_fract_z
Zn1	Zn	1.208402	-0.314694	-0.443823
Zn2	Zn	1.208308	-0.446881	-0.312555
Zn3	Zn	1.076220	-0.314720	-0.312573
Zn4	Zn	1.076189	-0.446833	-0.443780
O5	O	1.142280	-0.380782	-0.378183
O6	O	1.319000	-0.332238	-0.426421
O7	O	1.190761	-0.429381	-0.202710
O8	O	1.093807	-0.204105	-0.330009
O9	O	1.318932	-0.429356	-0.329978
O10	O	1.190920	-0.204086	-0.426438
O11	O	1.093717	-0.332282	-0.202723
O12	O	0.965605	-0.332235	-0.329967
O13	O	1.093753	-0.429273	-0.553632
O14	O	0.965582	-0.429298	-0.426364
O15	O	1.190889	-0.332191	-0.553664
O16	O	1.190730	-0.557486	-0.329936
O17	O	1.093662	-0.557450	-0.426347
C18	C	0.936913	-0.380765	-0.378163
C19	C	0.849057	-0.380776	-0.378174
C20	C	0.807745	-0.431269	-0.327889
C21	C	0.807815	-0.330290	-0.428464
C22	C	0.725269	-0.330296	-0.428474
C23	C	0.683957	-0.380789	-0.378189
C24	C	0.725192	-0.431275	-0.327895
C25	C	0.684028	-0.279805	-0.478761
C26	C	0.601477	-0.279808	-0.478772
C27	C	0.560164	-0.330306	-0.428491
C28	C	0.601404	-0.380795	-0.378195
C29	C	0.560092	-0.431288	-0.327911
C30	C	0.601330	-0.481781	-0.277619
C31	C	0.683879	-0.481773	-0.277614
C32	C	0.477616	-0.330315	-0.428495
C33	C	0.477539	-0.431294	-0.327917
C34	C	1.142204	-0.586148	-0.378152
C35	C	1.142244	-0.674005	-0.378165
C36	C	1.091743	-0.715357	-0.327923
C37	C	1.192778	-0.715206	-0.428424
C38	C	1.192815	-0.797752	-0.428441
C39	C	1.142315	-0.839104	-0.378199
C40	C	1.091777	-0.797910	-0.327940
C41	C	1.243347	-0.838952	-0.478705
C42	C	1.243385	-0.921503	-0.478725
C43	C	1.192887	-0.962856	-0.428478
C44	C	1.142348	-0.921658	-0.378217
C45	C	1.091847	-0.963010	-0.327975
C46	C	1.041312	-0.921812	-0.277708
C47	C	1.041279	-0.839264	-0.277694
C48	C	1.192920	-1.045405	-0.428493
C49	C	1.091881	-1.045563	-0.327992
C50	C	1.348448	-0.380800	-0.378202
C51	C	1.436305	-0.380807	-0.378211
C52	C	1.142328	-0.380724	-0.582927
C53	C	1.142348	-0.380699	-0.670177
C54	C	1.142377	-0.174614	-0.378230
C55	C	1.142419	-0.086757	-0.378251
C56	C	1.192929	-0.330144	-0.711185
C57	C	1.192938	-0.330118	-0.793165
C58	C	1.142370	-0.380651	-0.834136
C59	C	1.091784	-0.431208	-0.793122
C60	C	1.091771	-0.431230	-0.711143
C61	C	1.091816	-0.431160	-0.963993
C62	C	1.091830	-0.431140	-1.045977
C63	C	1.192983	-0.330048	-1.046014
C64	C	1.192970	-0.330070	-0.964035
C65	C	1.142385	-0.380628	-0.923027
C66	C	1.142278	-0.380783	-0.174235
C67	C	1.142410	-0.380585	-0.086985
H68	H	0.444044	-0.289198	-0.469437
H69	H	1.050608	-0.472350	-0.826488
H70	H	1.050600	-0.681812	-0.286995
H71	H	1.000134	-0.805716	-0.236770
H72	H	0.567908	-0.238694	-0.519724
H73	H	0.841456	-0.289177	-0.469400
H74	H	1.234151	-0.288926	-0.930679
H75	H	0.717670	-0.238693	-0.519697
H76	H	1.050651	-0.472287	-1.079334
H77	H	1.050575	-0.472388	-0.677756
H78	H	0.717462	-0.522880	-0.236667
H79	H	1.050611	-0.472318	-0.930606
H80	H	0.443909	-0.472415	-0.286972
H81	H	0.567684	-0.522890	-0.236674
H82	H	1.234109	-0.288996	-0.677832
H83	H	0.841325	-0.472382	-0.286945
H84	H	1.050759	-1.079226	-0.287076
H85	H	1.000190	-0.955492	-0.236805
H86	H	1.233891	-0.681535	-0.469334
H87	H	1.234128	-0.288953	-0.826550
H88	H	1.284459	-0.805280	-0.519614
H89	H	1.234055	-1.078944	-0.469429
H90	H	1.284536	-0.955039	-0.519652
H91	H	1.234170	-0.288881	-1.079407
