data_functionalizedCrystal
_audit_creation_method	'MofGen! by Chris Wilmer'
_symmetry_space_group_name_H-M	'P1'
_symmetry_Int_Tables_number	1
_symmetry_cell_setting	triclinic
loop_
_symmetry_equiv_pos_as_xyz
  x,y,z
_cell_length_a	27.732048
_cell_length_b	27.732048
_cell_length_c	26.809956
_cell_angle_alpha	90.003258
_cell_angle_beta	89.999364
_cell_angle_gamma	97.357345
loop_
_atom_site_label
_atom_site_type_symbol
_atom_site_fract_x
_atom_site_fract_y
_atom_site_fract_z
O1	O	0.057510	-0.640931	-0.041421
O2	O	0.557510	-0.140931	0.458579
O3	O	0.066256	-0.500138	-0.041436
O4	O	0.566256	-0.000138	0.458564
O5	O	-0.008514	-0.574907	-0.041419
O6	O	0.491486	-0.074907	0.458581
O7	O	0.132280	-0.566162	-0.041439
O8	O	0.632280	-0.066162	0.458561
O9	O	-0.008502	-0.574893	0.041541
O10	O	0.491498	-0.074893	0.541541
O11	O	0.066267	-0.500123	0.041523
O12	O	0.566267	-0.000123	0.541523
O13	O	0.057522	-0.640917	0.041539
O14	O	0.557522	-0.140917	0.541539
Zn15	Zn	0.061896	-0.570518	0.054702
Zn16	Zn	0.561896	-0.070518	0.554702
Zn17	Zn	0.061881	-0.570536	-0.054600
Zn18	Zn	0.561881	-0.070536	0.445400
O19	O	0.132291	-0.566147	0.041521
O20	O	0.632291	-0.066147	0.541521
C21	C	-0.026515	-0.574716	0.000062
C22	C	0.473485	-0.074716	0.500062
C23	C	-0.080170	-0.574164	0.000066
C24	C	0.419830	-0.074164	0.500066
C25	C	0.066078	-0.482124	0.000041
C26	C	0.566078	0.017876	0.500041
C27	C	0.065525	-0.428469	0.000036
C28	C	0.565525	0.071531	0.500036
C29	C	0.057699	-0.658931	0.000060
C30	C	0.557699	-0.158931	0.500060
C31	C	0.058252	-0.712586	0.000062
C32	C	0.558252	-0.212586	0.500062
C33	C	-0.418985	-0.614867	0.000045
C34	C	0.081015	-0.114867	0.500045
C35	C	-0.620645	-0.612816	0.000038
C36	C	-0.120645	-0.112816	0.500038
O37	O	-0.651900	-0.650037	0.000021
O38	O	-0.151900	-0.150037	0.500021
N39	N	-0.639768	-0.568481	0.000034
N40	N	-0.139768	-0.068481	0.500034
C41	C	-0.608474	-0.524656	0.000028
C42	C	-0.108474	-0.024656	0.500028
O43	O	-0.629367	-0.486899	0.000019
O44	O	-0.129367	0.013101	0.500019
C45	C	-0.406815	-0.526707	0.000031
C46	C	0.093185	-0.026707	0.500031
C47	C	-0.387694	-0.571045	0.000041
C48	C	0.112306	-0.071045	0.500041
C49	C	-0.399864	-0.659202	0.000054
C50	C	0.100136	-0.159202	0.500054
C51	C	-0.349452	-0.659714	0.000059
C52	C	0.150548	-0.159714	0.500059
C53	C	-0.318161	-0.615892	0.000054
C54	C	0.181839	-0.115892	0.500054
C55	C	-0.337282	-0.571557	0.000045
C56	C	0.162718	-0.071557	0.500045
C57	C	-0.375521	-0.482882	0.000022
C58	C	0.124479	0.017118	0.500022
C59	C	-0.325104	-0.483399	0.000021
C60	C	0.174896	0.016601	0.500021
C61	C	-0.305983	-0.527737	0.000031
C62	C	0.194017	-0.027737	0.500031
C63	C	-0.255580	-0.528247	0.000045
C64	C	0.244420	-0.028247	0.500045
N65	N	-0.236456	-0.572583	0.000050
N66	N	0.263544	-0.072583	0.500050
C67	C	-0.267747	-0.616405	0.000054
C68	C	0.232253	-0.116405	0.500054
C69	C	-0.714348	-0.523582	0.000027
C70	C	-0.214348	-0.023582	0.500027
C71	C	-0.764762	-0.523069	0.000027
C72	C	-0.264762	-0.023069	0.500027
C73	C	-0.776930	-0.611230	0.000036
C74	C	-0.276930	-0.111230	0.500036
C75	C	-0.726514	-0.611742	0.000040
C76	C	-0.226514	-0.111742	0.500040
C77	C	-0.695224	-0.567917	0.000031
C78	C	-0.195224	-0.067917	0.500031
C79	C	-0.161878	-0.617477	0.000064
C80	C	0.338122	-0.117477	0.500064
C81	C	-0.111461	-0.617986	0.000071
C82	C	0.388539	-0.117986	0.500071
C83	C	-0.099298	-0.529825	0.000059
C84	C	0.400702	-0.029825	0.500059
C85	C	-0.149710	-0.529316	0.000055
C86	C	0.350290	-0.029316	0.500055
C87	C	-0.180999	-0.573147	0.000056
C88	C	0.319001	-0.073147	0.500056
O89	O	-0.224296	-0.491047	0.000057
O90	O	0.275704	0.008953	0.500057
O91	O	-0.246844	-0.654156	0.000053
O92	O	0.253156	-0.154156	0.500053
C93	C	-0.469397	-0.614355	0.000041
C94	C	0.030603	-0.114355	0.500041
C95	C	-0.488518	-0.570021	0.000032
C96	C	0.011482	-0.070021	0.500032
C97	C	-0.457228	-0.526198	0.000027
C98	C	0.042772	-0.026198	0.500027
C99	C	-0.538933	-0.569508	0.000032
C100	C	-0.038933	-0.069508	0.500032
C101	C	-0.570223	-0.613330	0.000036
C102	C	-0.070223	-0.113330	0.500036
C103	C	-0.551100	-0.657665	0.000041
C104	C	-0.051100	-0.157665	0.500041
C105	C	-0.500688	-0.658177	0.000045
C106	C	-0.000688	-0.158177	0.500045
C107	C	-0.476351	-0.481863	0.000023
C108	C	0.023649	0.018137	0.500023
C109	C	-0.526764	-0.481355	0.000019
C110	C	-0.026764	0.018645	0.500019
C111	C	-0.558054	-0.525177	0.000023
C112	C	-0.058054	-0.025177	0.500023
C113	C	0.150292	-0.566338	0.000039
C114	C	0.650292	-0.066338	0.500039
C115	C	0.203947	-0.566891	0.000031
C116	C	0.703947	-0.066891	0.500031
N117	N	0.061906	-0.570509	0.129298
N118	N	0.561906	-0.070509	0.629298
C119	C	0.106229	-0.089654	0.000051
C120	C	0.606229	0.410346	0.500051
C121	C	0.104178	0.112006	0.000056
C122	C	0.604178	0.612006	0.500056
O123	O	0.141398	0.143262	0.000073
O124	O	0.641398	0.643262	0.500073
N125	N	0.059843	0.131130	0.000062
N126	N	0.559843	0.631130	0.500062
C127	C	0.016017	0.099835	0.000069
C128	C	0.516017	0.599835	0.500069
O129	O	-0.021740	0.120728	0.000079
O130	O	0.478260	0.620728	0.500079
C131	C	0.018068	-0.101824	0.000068
C132	C	0.518068	0.398176	0.500068
C133	C	0.062407	-0.120944	0.000057
C134	C	0.562407	0.379056	0.500057
C135	C	0.150563	-0.108775	0.000042
C136	C	0.650563	0.391225	0.500042
C137	C	0.151076	-0.159187	0.000038
C138	C	0.651076	0.340813	0.500038
C139	C	0.107253	-0.190477	0.000044
C140	C	0.607253	0.309523	0.500044
C141	C	0.062919	-0.171356	0.000054
C142	C	0.562919	0.328644	0.500054
C143	C	-0.025757	-0.133117	0.000079
C144	C	0.474243	0.366883	0.500079
C145	C	-0.025240	-0.183535	0.000080
C146	C	0.474760	0.316465	0.500080
C147	C	0.019098	-0.202655	0.000069
C148	C	0.519098	0.297345	0.500069
C149	C	0.019609	-0.253059	0.000056
C150	C	0.519609	0.246941	0.500056
N151	N	0.063944	-0.272183	0.000050
N152	N	0.563944	0.227817	0.500050
C153	C	0.107766	-0.240892	0.000044
C154	C	0.607766	0.259108	0.500044
C155	C	0.014943	0.205709	0.000069
C156	C	0.514943	0.705709	0.500069
C157	C	0.014430	0.256124	0.000068
C158	C	0.514430	0.756124	0.500068
C159	C	0.102591	0.268291	0.000056
C160	C	0.602591	0.768291	0.500056
C161	C	0.103104	0.217876	0.000053
C162	C	0.603104	0.717876	0.500053
C163	C	0.059278	0.186585	0.000063
C164	C	0.559278	0.686585	0.500063
C165	C	0.108839	-0.346761	0.000036
C166	C	0.608839	0.153239	0.500036
C167	C	0.109347	-0.397178	0.000030
C168	C	0.609347	0.102822	0.500030
C169	C	0.021186	-0.409341	0.000044
C170	C	0.521186	0.090659	0.500044
C171	C	0.020678	-0.358929	0.000048
C172	C	0.520678	0.141071	0.500048
C173	C	0.064508	-0.327639	0.000045
C174	C	0.564508	0.172361	0.500045
O175	O	-0.017592	-0.284343	0.000045
O176	O	0.482408	0.215657	0.500045
O177	O	0.145518	-0.261794	0.000045
O178	O	0.645518	0.238206	0.500045
C179	C	0.105716	-0.039242	0.000055
C180	C	0.605716	0.460758	0.500055
C181	C	0.061382	-0.020120	0.000065
C182	C	0.561382	0.479880	0.500065
C183	C	0.017560	-0.051411	0.000071
C184	C	0.517560	0.448589	0.500071
C185	C	0.060869	0.030294	0.000065
C186	C	0.560869	0.530294	0.500065
C187	C	0.104691	0.061585	0.000059
C188	C	0.604691	0.561585	0.500059
C189	C	0.149026	0.042461	0.000053
C190	C	0.649026	0.542461	0.500053
C191	C	0.149539	-0.007951	0.000049
C192	C	0.649539	0.492049	0.500049
C193	C	-0.026775	-0.032287	0.000077
C194	C	0.473225	0.467713	0.500077
C195	C	-0.027284	0.018125	0.000080
C196	C	0.472716	0.518125	0.500080
C197	C	0.016538	0.049416	0.000074
C198	C	0.516538	0.549416	0.500074
N199	N	0.061867	-0.570549	-0.129196
N200	N	0.561867	-0.070549	0.370804
C201	C	0.028781	-0.603640	0.473932
C202	C	0.528781	-0.103640	0.973932
C203	C	0.028774	-0.603652	0.682810
C204	C	0.528774	-0.103652	1.182810
O205	O	0.000613	-0.631801	0.709820
O206	O	0.500613	-0.131801	1.209820
N207	N	0.061870	-0.570539	0.708925
N208	N	0.561870	-0.070539	1.208925
C209	C	0.094969	-0.537419	0.682818
C210	C	0.594969	-0.037419	1.182818
O211	O	0.123116	-0.509252	0.709824
O212	O	0.623116	-0.009252	1.209824
C213	C	0.094974	-0.537406	0.473941
C214	C	0.594974	-0.037406	0.973941
C215	C	0.061878	-0.570524	0.447829
C216	C	0.561878	-0.070524	0.947829
C217	C	-0.004312	-0.636755	0.447819
C218	C	0.495688	-0.136755	0.947819
C219	C	-0.004308	-0.636754	0.395603
C220	C	0.495692	-0.136754	0.895603
C221	C	0.028789	-0.603637	0.369500
C222	C	0.528789	-0.103637	0.869500
C223	C	0.061882	-0.570522	0.395612
C224	C	0.561882	-0.070522	0.895612
C225	C	0.128070	-0.504284	0.447835
C226	C	0.628070	-0.004284	0.947835
C227	C	0.128067	-0.504283	0.395613
C228	C	0.628067	-0.004283	0.895613
C229	C	0.094972	-0.537401	0.369500
C230	C	0.594972	-0.037401	0.869500
C231	C	0.094983	-0.537405	0.317293
C232	C	0.594983	-0.037405	0.817293
N233	N	0.061887	-0.570517	0.291177
N234	N	0.561887	-0.070517	0.791177
C235	C	0.028790	-0.603633	0.317281
C236	C	0.528790	-0.103633	0.817281
C237	C	0.094965	-0.537429	0.792481
C238	C	0.594965	-0.037429	1.292481
C239	C	0.094964	-0.537433	0.844700
C240	C	0.594964	-0.037433	1.344700
C241	C	0.028768	-0.603665	0.844689
C242	C	0.528768	-0.103665	1.344689
C243	C	0.028772	-0.603663	0.792469
C244	C	0.528772	-0.103663	1.292469
C245	C	0.061868	-0.570542	0.766366
C246	C	0.561868	-0.070542	1.266366
C247	C	0.028801	-0.603628	0.207623
C248	C	0.528801	-0.103628	0.707623
C249	C	0.028809	-0.603625	0.155402
C250	C	0.528809	-0.103625	0.655402
C251	C	0.095003	-0.537392	0.155418
C252	C	0.595003	-0.037392	0.655418
C253	C	0.094997	-0.537396	0.207635
C254	C	0.594997	-0.037396	0.707635
C255	C	0.061892	-0.570516	0.233735
C256	C	0.561892	-0.070516	0.733735
O257	O	0.123126	-0.509266	0.290250
O258	O	0.623126	-0.009266	0.790250
O259	O	0.000640	-0.631789	0.290266
O260	O	0.500640	-0.131789	0.790266
C261	C	0.028777	-0.603642	0.526149
C262	C	0.528777	-0.103642	1.026149
C263	C	0.061870	-0.570527	0.552261
C264	C	0.561870	-0.070527	1.052261
C265	C	0.094968	-0.537410	0.526158
C266	C	0.594968	-0.037410	1.026158
C267	C	0.061870	-0.570531	0.604480
C268	C	0.561870	-0.070531	1.104480
C269	C	0.028773	-0.603647	0.630584
C270	C	0.528773	-0.103647	1.130584
C271	C	-0.004324	-0.636759	0.604468
C272	C	0.495676	-0.136759	1.104468
C273	C	-0.004320	-0.636758	0.552252
C274	C	0.495680	-0.136758	1.052252
C275	C	0.128064	-0.504298	0.552273
C276	C	0.628064	-0.004298	1.052273
C277	C	0.128058	-0.504303	0.604489
C278	C	0.628058	-0.004303	1.104489
C279	C	0.094961	-0.537419	0.630593
C280	C	0.594961	-0.037419	1.130593
H281	H	-0.095896	-0.654093	0.000080
H282	H	0.404104	-0.154093	0.500080
H283	H	-0.020747	0.180236	0.000077
H284	H	0.479253	0.680236	0.500077
Br285	Br	-0.671889	-0.464098	0.000014
Br286	Br	-0.171889	0.035902	0.500014
Br287	Br	-0.049237	-0.681706	0.516821
Br288	Br	0.450763	-0.181706	1.016821
H289	H	0.121919	-0.510471	0.865958
H290	H	0.621919	-0.010471	1.365958
Br291	Br	-0.175661	-0.469143	0.000053
Br292	Br	0.324339	0.030857	0.500053
Br293	Br	-0.056822	-0.470355	0.000053
Br294	Br	0.443178	0.029645	0.500053
Br295	Br	0.208499	0.084937	0.000041
Br296	Br	0.708499	0.584937	0.500041
H297	H	-0.061861	-0.117558	0.000088
H298	H	0.438139	0.382442	0.500088
H299	H	0.187180	-0.174750	0.000029
H300	H	0.687180	0.325250	0.500029
Br301	Br	-0.204334	-0.676962	0.000065
Br302	Br	0.295666	-0.176962	0.500065
H303	H	0.155019	-0.477317	0.469089
H304	H	0.655019	0.022683	0.969089
Br305	Br	-0.433892	-0.422384	0.000014
Br306	Br	0.066108	0.077616	0.500014
Br307	Br	0.172980	-0.459356	0.639923
Br308	Br	0.672980	0.040644	1.139923
H309	H	-0.299629	-0.447710	0.000014
H310	H	0.200371	0.052290	0.500014
H311	H	0.145454	-0.412743	0.000021
H312	H	0.645454	0.087257	0.500021
Br313	Br	-0.474746	-0.718354	0.000055
Br314	Br	0.025254	-0.218354	0.500055
H315	H	0.185643	-0.023514	0.000042
H316	H	0.685643	0.476486	0.500042
H317	H	0.121917	-0.510457	0.771232
H318	H	0.621917	-0.010457	1.271232
H319	H	-0.060929	-0.209009	0.000089
H320	H	0.439071	0.290991	0.500089
H321	H	-0.031271	-0.663726	0.625730
H322	H	0.468729	-0.163726	1.125730
Br323	Br	-0.087463	0.044068	0.000086
Br324	Br	0.412537	0.544068	0.500086
H325	H	-0.062462	-0.057760	0.000083
H326	H	0.437538	0.442240	0.500083
H327	H	-0.802415	-0.646911	0.000040
H328	H	-0.302415	-0.146911	0.500040
H329	H	0.186251	-0.083302	0.000038
H330	H	0.686251	0.416698	0.500038
Br331	Br	0.139920	-0.492456	0.243072
Br332	Br	0.639920	0.007544	0.743072
Br333	Br	0.172985	-0.459350	0.516854
Br334	Br	0.672985	0.040650	1.016854
H335	H	0.139207	0.202311	0.000047
H336	H	0.639207	0.702311	0.500047
H337	H	0.144530	-0.321291	0.000035
H338	H	0.644530	0.178709	0.500035
Br339	Br	-0.016145	-0.648610	0.757036
Br340	Br	0.483855	-0.148610	1.257036
Br341	Br	0.162064	0.310766	0.000049
Br342	Br	0.662064	0.810766	0.500049
H343	H	0.121952	-0.510430	0.134157
H344	H	0.621952	-0.010430	0.634157
Br345	Br	-0.593575	-0.717137	0.000051
Br346	Br	-0.093575	-0.217137	0.500051
Br347	Br	-0.045745	0.282067	0.000067
Br348	Br	0.454255	0.782067	0.500067
Br349	Br	-0.016107	-0.648575	0.119966
Br350	Br	0.483893	-0.148575	0.619966
Br351	Br	-0.790705	-0.462893	0.000026
Br352	Br	-0.290705	0.037107	0.500026
Br353	Br	-0.039496	-0.332978	0.000063
Br354	Br	0.460504	0.167022	0.500063
H355	H	0.001843	-0.630597	0.228868
H356	H	0.501843	-0.130597	0.728868
Br357	Br	-0.049227	-0.681698	0.360170
Br358	Br	0.450773	-0.181698	0.860170
Br359	Br	-0.016148	-0.648608	0.880125
Br360	Br	0.483852	-0.148608	1.380125
H361	H	-0.391080	-0.446777	0.000011
H362	H	0.108920	0.053223	0.500011
Br363	Br	0.172985	-0.459328	0.360191
Br364	Br	0.672985	0.040672	0.860191
H365	H	-0.425336	-0.694889	0.000056
H366	H	0.074664	-0.194889	0.500056
H367	H	-0.333889	-0.695819	0.000065
H368	H	0.166111	-0.195819	0.500065
Br369	Br	-0.552706	-0.421176	0.000010
Br370	Br	-0.052706	0.078824	0.500010
H371	H	-0.014492	-0.434827	0.000047
H372	H	0.485508	0.065173	0.500047
H373	H	-0.710950	-0.647846	0.000047
H374	H	-0.210950	-0.147846	0.500047
H375	H	-0.031266	-0.663722	0.469068
H376	H	0.468734	-0.163722	0.969068
