data_functionalizedCrystal
_audit_creation_method	'MofGen! by Chris Wilmer'
_symmetry_space_group_name_H-M	'P1'
_symmetry_Int_Tables_number	1
_symmetry_cell_setting	triclinic
loop_
_symmetry_equiv_pos_as_xyz
  x,y,z
_cell_length_a	6.817900
_cell_length_b	19.551136
_cell_length_c	14.125286
_cell_angle_alpha	96.326221
_cell_angle_beta	100.396688
_cell_angle_gamma	101.650842
loop_
_atom_site_label
_atom_site_type_symbol
_atom_site_fract_x
_atom_site_fract_y
_atom_site_fract_z
V1	V	-3.982308	-0.096136	-0.300462
O2	O	-3.980015	0.005175	-0.294255
O3	O	-3.925138	-0.191156	-0.298876
O4	O	-3.918621	-0.094414	-0.431289
O5	O	-3.986578	-0.092237	-0.160924
V6	V	-4.469053	-0.084047	-0.283715
O7	O	-4.236498	-0.122655	-0.337197
O8	O	-4.665060	-0.057528	-0.246979
O9	O	-4.303016	0.010973	-0.285301
O10	O	-4.588742	-0.185358	-0.289922
O11	O	-4.582180	-0.087946	-0.423252
O12	O	-4.309533	-0.085769	-0.152887
C13	C	-3.768500	-0.214327	-0.294257
C14	C	-3.802942	-0.292006	-0.293832
C15	C	-3.790207	-0.318655	-0.205461
C16	C	-3.822644	-0.391640	-0.205033
C17	C	-3.867775	-0.437973	-0.292979
C18	C	-3.880521	-0.411316	-0.381362
C19	C	-3.848105	-0.338333	-0.381788
C20	C	-3.824836	-0.558869	-0.356747
C21	C	-3.857238	-0.631851	-0.356316
C22	C	-3.967770	-0.663079	-0.291667
C23	C	-4.045864	-0.621315	-0.227431
C24	C	-4.013447	-0.548331	-0.227858
C25	C	-3.902931	-0.517113	-0.292526
C26	C	-3.990207	-0.768867	-0.202826
C27	C	-4.022658	-0.841854	-0.202401
C28	C	-4.080516	-0.861529	-0.378732
C29	C	-4.048085	-0.788543	-0.379154
C30	C	-4.002922	-0.742216	-0.291198
C31	C	-3.760186	-0.090922	-0.463162
C32	C	-3.789341	-0.090143	-0.570118
C33	C	-4.027979	-0.091559	-0.818247
C34	C	-3.842762	-0.088623	-0.765918
C35	C	-3.813039	-0.089469	-0.656965
C36	C	-4.057710	-0.090713	-0.927210
C37	C	-4.122996	0.034140	-0.289917
C38	C	-4.067791	0.111818	-0.290348
C39	C	-4.131310	-0.089263	-0.121009
C40	C	-4.081395	-0.090039	-0.014053
H41	H	-3.734828	-0.533450	-0.409396
H42	H	-3.706515	-0.085473	-0.802944
O43	O	-4.208458	-0.095737	-0.769215
H44	H	-4.156419	-0.095762	-0.690095
H45	H	-4.117264	-0.899253	-0.450339
O46	O	-3.929207	-0.461289	-0.476217
H47	H	-3.932634	-0.430494	-0.537742
H48	H	-3.753448	-0.280939	-0.133841
H49	H	-4.077039	-0.514330	-0.175557
O50	O	-3.808888	-0.420396	-0.109715
H51	H	-3.772022	-0.375921	-0.048627
O52	O	-3.773024	-0.676891	-0.425603
H53	H	-3.603883	-0.658655	-0.411472
O54	O	-4.008910	-0.870602	-0.107082
H55	H	-3.972035	-0.826124	-0.045997
H56	H	-4.135851	-0.646738	-0.174782
H57	H	-3.953432	-0.731145	-0.131206
O58	O	-4.061779	-0.759792	-0.474468
H59	H	-4.098592	-0.804269	-0.535552
H60	H	-3.858483	-0.316637	-0.453753
