data_functionalizedCrystal
_audit_creation_method	'MofGen! by Chris Wilmer'
_symmetry_space_group_name_H-M	'P1'
_symmetry_Int_Tables_number	1
_symmetry_cell_setting	triclinic
loop_
_symmetry_equiv_pos_as_xyz
  x,y,z
_cell_length_a	16.974800
_cell_length_b	10.654541
_cell_length_c	16.053934
_cell_angle_alpha	87.400873
_cell_angle_beta	96.214647
_cell_angle_gamma	83.935819
loop_
_atom_site_label
_atom_site_type_symbol
_atom_site_fract_x
_atom_site_fract_y
_atom_site_fract_z
O1	O	1.050098	0.159850	0.001551
O2	O	1.550098	0.659850	0.501551
O3	O	0.819262	0.181446	-0.014054
O4	O	1.319262	0.681446	0.485946
O5	O	0.939989	-0.012202	-0.005888
O6	O	1.439989	0.487798	0.494112
O7	O	0.929372	0.353498	-0.006615
O8	O	1.429372	0.853498	0.493385
O9	O	0.946598	-0.022824	0.133416
O10	O	1.446598	0.477176	0.633416
O11	O	0.825871	0.170824	0.125250
O12	O	1.325871	0.670824	0.625250
O13	O	1.056707	0.149228	0.140854
O14	O	1.556707	0.649228	0.640854
Zn15	Zn	0.942338	0.158340	0.155169
Zn16	Zn	1.442338	0.658340	0.655169
Zn17	Zn	0.933631	0.172335	-0.028369
Zn18	Zn	1.433631	0.672335	0.471631
O19	O	0.935980	0.342876	0.132688
O20	O	1.435980	0.842876	0.632688
C21	C	0.793009	0.175514	0.053600
C22	C	1.293009	0.675514	0.553600
C23	C	0.704936	0.173650	0.047646
C24	C	1.204936	0.673650	0.547646
C25	C	0.667167	0.166981	0.120786
C26	C	1.167167	0.666981	0.620786
C27	C	0.584415	0.165209	0.115194
C28	C	1.084415	0.665209	0.615194
C29	C	0.539434	0.170115	0.036462
C30	C	1.039434	0.670115	0.536462
C31	C	0.577209	0.176781	-0.036682
C32	C	1.077209	0.676781	0.463318
C33	C	0.659960	0.178544	-0.031090
C34	C	1.159960	0.678544	0.468910
C35	C	0.291559	0.165454	0.011594
C36	C	0.791559	0.665454	0.511594
C37	C	0.208802	0.163694	0.006007
C38	C	0.708802	0.663694	0.506007
C39	C	0.216014	0.152120	0.157884
C40	C	0.716014	0.652120	0.657884
C41	C	0.298766	0.153891	0.163470
C42	C	0.798766	0.653891	0.663470
C43	C	0.336534	0.160550	0.090325
C44	C	0.836534	0.660550	0.590325
N45	N	0.454848	0.168307	0.030745
N46	N	0.954848	0.668307	0.530745
N47	N	0.421120	0.162348	0.096043
N48	N	0.921120	0.662348	0.596043
C49	C	0.942514	-0.064295	0.063711
C50	C	1.442514	0.435705	0.563711
C51	C	0.940183	-0.203690	0.063552
C52	C	1.440183	0.296310	0.563552
C53	C	1.084545	-0.234657	0.073321
C54	C	1.584545	0.265343	0.573321
C55	C	1.155628	-0.315626	0.078133
C56	C	1.655628	0.184374	0.578133
C57	C	1.153432	-0.446599	0.077982
C58	C	1.653432	0.053401	0.577982
C59	C	1.080146	-0.496602	0.073016
C60	C	1.580146	0.003398	0.573016
C61	C	1.009064	-0.415633	0.068204
C62	C	1.509064	0.084367	0.568204
C63	C	1.011267	-0.284659	0.068358
C64	C	1.511267	0.215341	0.568358
C65	C	0.864703	-0.384666	0.058429
C66	C	1.364703	0.115334	0.558429
C67	C	0.866897	-0.253693	0.058586
C68	C	1.366897	0.246307	0.558586
C69	C	0.791417	-0.434669	0.053463
C70	C	1.291417	0.065331	0.553463
C71	C	0.720333	-0.353700	0.048656
C72	C	1.220333	0.146300	0.548656
C73	C	0.722532	-0.222720	0.048809
C74	C	1.222532	0.277280	0.548809
C75	C	0.795815	-0.172724	0.053774
C76	C	1.295815	0.327276	0.553774
C77	C	1.082960	0.155160	0.073199
C78	C	1.582960	0.655160	0.573199
C79	C	1.171033	0.157025	0.079147
C80	C	1.671033	0.657025	0.579147
C81	C	0.933455	0.394969	0.063087
C82	C	1.433455	0.894969	0.563087
C83	C	0.935786	0.534365	0.063241
C84	C	1.435786	1.034365	0.563241
N85	N	0.948287	0.148788	0.280429
N86	N	1.448287	0.648788	0.780429
N87	N	0.927689	0.181877	-0.153629
N88	N	1.427689	0.681877	0.346371
C89	C	0.896907	0.231155	0.320669
C90	C	1.396907	0.731155	0.820669
C91	C	0.901091	0.224468	0.408357
C92	C	1.401091	0.724468	0.908357
C93	C	0.956652	0.135406	0.455804
C94	C	1.456652	0.635406	0.955804
C95	C	1.008037	0.053035	0.415559
C96	C	1.508037	0.553035	0.915559
C97	C	1.003856	0.059730	0.327873
C98	C	1.503856	0.559730	0.827873
C99	C	0.974893	0.106200	0.718440
C100	C	1.474893	0.606200	1.218440
C101	C	0.979068	0.099509	0.806132
C102	C	1.479068	0.599509	1.306132
C103	C	0.872123	0.270944	0.798924
C104	C	1.372123	0.770944	1.298924
C105	C	0.867944	0.277625	0.711236
C106	C	1.367944	0.777625	1.211236
C107	C	0.919332	0.195259	0.670999
C108	C	1.419332	0.695259	1.170999
N109	N	0.960928	0.128566	0.545435
N110	N	1.460928	0.628566	1.045435
N111	N	0.915059	0.202106	0.581369
N112	N	1.415059	0.702106	1.081369
H113	H	0.185255	0.146696	0.217434
H114	H	0.685255	0.646696	0.717434
F115	F	0.817438	0.358602	0.841753
F116	F	1.317438	0.858602	1.341753
F117	F	0.642346	-0.406924	0.043363
F118	F	1.142346	0.093076	0.543363
F119	F	0.544221	0.158128	0.193039
F120	F	1.044221	0.658128	0.693039
F121	F	0.331744	0.172543	-0.066254
F122	F	0.831744	0.672543	0.433746
H123	H	0.859255	0.291538	0.441119
H124	H	1.359255	0.791538	0.941119
F125	F	1.038206	0.004710	0.856624
F126	F	1.538206	0.504710	1.356624
F127	F	1.067173	-0.041746	0.466057
F128	F	1.567173	0.458254	0.966057
H129	H	0.664647	-0.156800	0.044886
H130	H	1.164647	0.343200	0.544886
H131	H	0.822702	0.350146	0.672606
H132	H	1.322702	0.850146	1.172606
F133	F	1.086888	-0.095267	0.073499
F134	F	1.586888	0.404733	0.573499
F135	F	0.346633	0.148676	0.247267
F136	F	0.846633	0.648676	0.747267
F137	F	0.837768	0.325942	0.270179
F138	F	1.337768	0.825942	0.770179
F139	F	1.233620	-0.262400	0.083414
F140	F	1.733620	0.237600	0.583414
F141	F	0.700156	0.185637	-0.108935
F142	F	1.200156	0.685637	0.391065
F143	F	0.160930	0.168920	-0.077793
F144	F	0.660930	0.668920	0.422207
F145	F	1.029581	0.018537	0.675623
F146	F	1.529581	0.518537	1.175623
F147	F	0.529337	0.181964	-0.120475
F148	F	1.029337	0.681964	0.379525
H149	H	1.045696	-0.007341	0.295111
H150	H	1.545696	0.492659	0.795111
F151	F	0.715032	0.161767	0.204583
F152	F	1.215032	0.661767	0.704583
F153	F	1.229085	-0.532775	0.083097
F154	F	1.729085	-0.032775	0.583097
H155	H	0.789635	-0.541314	0.053335
H156	H	1.289635	-0.041314	0.553335
F157	F	1.077812	-0.635992	0.072810
F158	F	1.577812	-0.135992	0.572810
H159	H	0.797612	-0.066082	0.053903
H160	H	1.297612	0.433918	0.553903
