data_functionalizedCrystal
_audit_creation_method	'MofGen! by Chris Wilmer'
_symmetry_space_group_name_H-M	'P1'
_symmetry_Int_Tables_number	1
_symmetry_cell_setting	triclinic
loop_
_symmetry_equiv_pos_as_xyz
  x,y,z
_cell_length_a	14.853567
_cell_length_b	14.044220
_cell_length_c	13.930277
_cell_angle_alpha	89.994760
_cell_angle_beta	89.995755
_cell_angle_gamma	88.411904
loop_
_atom_site_label
_atom_site_type_symbol
_atom_site_fract_x
_atom_site_fract_y
_atom_site_fract_z
O1	O	1.206174	0.123767	-0.079767
O2	O	0.944883	0.138510	-0.079784
O3	O	1.071607	-0.006851	-0.079766
O4	O	1.079450	0.269128	-0.079785
O5	O	1.071587	-0.006854	0.079896
O6	O	0.944863	0.138507	0.079878
O7	O	1.206155	0.123764	0.079895
Zn8	Zn	1.075506	0.131135	0.105236
Zn9	Zn	1.075532	0.131139	-0.105125
O10	O	1.079431	0.269125	0.079877
C11	C	0.911231	0.137841	0.000045
C12	C	0.810989	0.135839	0.000039
C13	C	0.390944	0.041029	0.000067
C14	C	0.383345	0.213721	0.000054
C15	C	0.477528	0.215604	0.000051
C16	C	0.528423	0.130197	0.000054
C17	C	0.485135	0.042908	0.000061
C18	C	0.520822	0.302891	0.000035
C19	C	0.615011	0.304777	0.000031
C20	C	0.665908	0.219369	0.000041
C21	C	0.622615	0.132077	0.000048
C22	C	0.673510	0.046670	0.000052
C23	C	0.630218	-0.040623	0.000066
C24	C	0.536032	-0.042499	0.000071
C25	C	0.760094	0.221246	0.000036
C26	C	0.767702	0.048550	0.000046
C27	C	1.068163	-0.042172	0.000065
C28	C	1.057921	-0.147411	0.000066
C29	C	1.039197	-0.340097	0.000051
C30	C	1.111836	-0.397635	0.000052
C31	C	1.101418	-0.504852	0.000044
C32	C	1.049614	-0.232870	0.000059
C33	C	1.239806	0.124433	0.000064
C34	C	1.340048	0.126435	0.000064
C35	C	1.082874	0.304446	0.000044
C36	C	1.093116	0.409685	0.000037
N37	N	1.075495	0.131132	0.248802
N38	N	1.075549	0.131135	-0.248691
C39	C	1.019414	0.195480	0.701064
C40	C	1.131673	0.066791	0.701049
C41	C	1.131663	0.066788	0.600553
C42	C	1.075527	0.131133	0.550308
C43	C	1.019403	0.195481	0.600559
C44	C	1.187792	0.002448	0.550295
C45	C	1.187784	0.002443	0.449793
C46	C	1.131644	0.066784	0.399546
C47	C	1.075517	0.131134	0.449803
C48	C	1.019382	0.195479	0.399558
C49	C	0.963249	0.259825	0.449813
C50	C	0.963263	0.259822	0.550312
C51	C	1.131630	0.066787	0.299047
C52	C	1.019371	0.195480	0.299053
H53	H	0.479377	0.372424	0.000023
H54	H	1.181849	-0.366371	-0.000008
H55	H	1.177382	0.014408	0.741962
C56	C	1.192707	-0.002901	0.244448
C57	C	1.251962	0.047727	0.186766
C58	C	1.308259	-0.016436	0.136473
H59	H	1.157226	-0.042469	0.205167
H60	H	1.226196	-0.041193	0.288746
H61	H	1.218475	0.086002	0.142473
H62	H	1.287462	0.087291	0.226023
H63	H	1.341748	-0.054728	0.180771
H64	H	1.272771	-0.056001	0.097198
H65	H	1.348475	0.017905	0.097337
H66	H	0.650251	0.375856	0.000019
C67	C	0.343781	-0.053648	0.000033
C68	C	0.250402	-0.037022	0.000018
C69	C	0.206927	-0.124215	-0.000027
H70	H	0.360677	-0.088891	0.055696
H71	H	0.360727	-0.088825	-0.055667
H72	H	0.233464	-0.001860	0.055711
H73	H	0.233481	-0.001794	-0.055642
H74	H	0.223873	-0.159393	-0.055726
H75	H	0.223830	-0.159451	0.055637
H76	H	0.143566	-0.112947	-0.000046
H77	H	0.917547	0.312219	0.408892
C78	C	0.685436	-0.133378	-0.000132
C79	C	0.664837	-0.185919	-0.082280
C80	C	0.715699	-0.271360	-0.082503
H81	H	0.671616	-0.169281	0.055485
H82	H	0.747739	-0.119789	-0.000195
H83	H	0.602548	-0.199511	-0.082208
H84	H	0.678661	-0.150045	-0.137910
H85	H	0.778001	-0.257771	-0.082566
H86	H	0.701874	-0.307255	-0.026882
H87	H	0.701735	-0.307016	-0.138243
H88	H	0.500776	-0.113569	0.000105
C89	C	0.327976	0.306370	-0.000100
C90	C	0.273669	0.310326	-0.082229
C91	C	0.222638	0.395657	-0.082395
H92	H	0.367139	0.358705	-0.000152
H93	H	0.291021	0.309228	0.055550
H94	H	0.310621	0.307478	-0.137864
H95	H	0.234489	0.258012	-0.082194
H96	H	0.185682	0.398515	-0.026745
H97	H	0.261808	0.447985	-0.082444
H98	H	0.185779	0.398349	-0.138113
H99	H	0.973709	0.247867	0.741984
H100	H	1.233501	-0.049936	0.591208
H101	H	0.969191	-0.371358	0.000044
C102	C	1.248750	-0.067528	0.395409
C103	C	1.297896	-0.123892	0.460923
C104	C	1.354055	-0.188371	0.410858
H105	H	1.289096	-0.033469	0.356184
H106	H	1.213155	-0.107107	0.356240
H107	H	1.333488	-0.084319	0.500075
H108	H	1.257574	-0.157973	0.500149
H109	H	1.318460	-0.227949	0.371689
H110	H	1.394395	-0.154303	0.371635
H111	H	1.387401	-0.226627	0.455302
H112	H	0.809134	-0.021000	0.000052
C113	C	0.958391	0.265449	0.244678
C114	C	0.909256	0.321810	0.310202
C115	C	0.853081	0.386284	0.260148
H116	H	0.918038	0.231387	0.205477
H117	H	0.993974	0.305030	0.205487
H118	H	0.873675	0.282234	0.349377
H119	H	0.949584	0.355893	0.349406
H120	H	0.888665	0.425866	0.220957
H121	H	0.812735	0.352214	0.220949
H122	H	0.819743	0.424538	0.304598
C123	C	0.902275	0.329531	0.605002
C124	C	0.843050	0.278924	0.662740
C125	C	0.786867	0.343108	0.713148
H126	H	0.868751	0.367881	0.560801
H127	H	0.937866	0.369039	0.644249
H128	H	0.807463	0.239432	0.623496
H129	H	0.876549	0.240577	0.706958
H130	H	0.822458	0.382616	0.752395
H131	H	0.753350	0.381455	0.668940
H132	H	0.746682	0.308781	0.752335
C133	C	0.806929	0.316106	0.000067
C134	C	0.742198	0.390498	0.000081
C135	C	0.785308	0.477902	0.000124
H136	H	0.843514	0.320561	-0.055597
H137	H	0.843489	0.320484	0.055765
H138	H	0.705654	0.386123	-0.055612
H139	H	0.705610	0.386075	0.055741
H140	H	0.821868	0.482280	0.055822
H141	H	0.821892	0.482347	-0.055541
H142	H	0.741395	0.528387	0.000143
