data_functionalizedCrystal
_audit_creation_method	'MofGen! by Chris Wilmer'
_symmetry_space_group_name_H-M	'P1'
_symmetry_Int_Tables_number	1
_symmetry_cell_setting	triclinic
loop_
_symmetry_equiv_pos_as_xyz
  x,y,z
_cell_length_a	27.732064
_cell_length_b	27.732064
_cell_length_c	26.809956
_cell_angle_alpha	90.008400
_cell_angle_beta	89.998878
_cell_angle_gamma	82.649423
loop_
_atom_site_label
_atom_site_type_symbol
_atom_site_fract_x
_atom_site_fract_y
_atom_site_fract_z
O1	O	0.640929	0.057548	-0.041387
O2	O	0.500137	0.066285	-0.041406
O3	O	0.574902	-0.008480	-0.041398
O4	O	0.566165	0.132312	-0.041395
O5	O	0.574888	-0.008468	0.041561
O6	O	0.500123	0.066296	0.041553
O7	O	0.640915	0.057559	0.041573
Zn8	Zn	0.570517	0.061930	0.054734
Zn9	Zn	0.570535	0.061915	-0.054568
O10	O	0.566151	0.132324	0.041564
C11	C	0.574710	-0.026481	0.000080
C12	C	0.574154	-0.080135	0.000076
C13	C	0.482124	0.066106	0.000071
C14	C	0.428469	0.065550	0.000063
C15	C	0.526187	-0.457211	0.000067
C16	C	0.528234	-0.255550	0.000066
O17	O	0.491013	-0.224300	0.000041
N18	N	0.572567	-0.236420	0.000073
C19	C	0.616393	-0.267709	0.000076
O20	O	0.654149	-0.246810	0.000076
C21	C	0.614346	-0.469368	0.000072
C22	C	0.570009	-0.488495	0.000071
C23	C	0.481854	-0.476338	0.000065
C24	C	0.481343	-0.526750	0.000068
C25	C	0.525165	-0.558035	0.000072
C26	C	0.569498	-0.538907	0.000074
C27	C	0.658171	-0.500656	0.000072
C28	C	0.657656	-0.551073	0.000070
C29	C	0.613319	-0.570200	0.000069
C30	C	0.612809	-0.620604	0.000081
N31	N	0.568475	-0.639734	0.000075
C32	C	0.524653	-0.608450	0.000071
C33	C	0.617464	-0.161834	0.000078
C34	C	0.617976	-0.111420	0.000080
C35	C	0.529817	-0.099265	0.000070
C36	C	0.529305	-0.149680	0.000072
C37	C	0.573130	-0.180964	0.000072
C38	C	0.523583	-0.714319	0.000077
C39	C	0.523076	-0.764736	0.000082
C40	C	0.611236	-0.776887	0.000089
C41	C	0.611743	-0.726474	0.000087
C42	C	0.567913	-0.695191	0.000079
O43	O	0.650010	-0.651883	0.000101
O44	O	0.486903	-0.629358	0.000060
C45	C	0.526698	-0.406799	0.000064
C46	C	0.571032	-0.387671	0.000066
C47	C	0.614854	-0.418955	0.000070
C48	C	0.571543	-0.337256	0.000067
C49	C	0.527721	-0.305972	0.000063
C50	C	0.483387	-0.325102	0.000057
C51	C	0.482876	-0.375514	0.000059
C52	C	0.659188	-0.399825	0.000076
C53	C	0.659695	-0.349413	0.000074
C54	C	0.615873	-0.318128	0.000070
C55	C	0.051393	0.017583	0.000090
C56	C	0.253054	0.019629	0.000077
O57	O	0.284304	-0.017591	0.000095
N58	N	0.272184	0.063963	0.000076
C59	C	0.240895	0.107789	0.000081
O60	O	0.261794	0.145545	0.000085
C61	C	0.039236	0.105742	0.000098
C62	C	0.020109	0.061405	0.000094
C63	C	0.032266	-0.026750	0.000087
C64	C	-0.018146	-0.027261	0.000088
C65	C	-0.049431	0.016561	0.000091
C66	C	-0.030303	0.060894	0.000094
C67	C	0.007949	0.149567	0.000106
C68	C	-0.042469	0.149051	0.000112
C69	C	-0.061596	0.104715	0.000108
C70	C	-0.112000	0.104205	0.000099
N71	N	-0.131130	0.059871	0.000100
C72	C	-0.099845	0.016049	0.000096
C73	C	0.346770	0.108860	0.000071
C74	C	0.397185	0.109372	0.000066
C75	C	0.409339	0.021212	0.000064
C76	C	0.358924	0.020701	0.000065
C77	C	0.327640	0.064526	0.000073
C78	C	-0.205715	0.014979	0.000097
C79	C	-0.256132	0.014472	0.000095
C80	C	-0.268283	0.102631	0.000101
C81	C	-0.217870	0.103139	0.000100
C82	C	-0.186587	0.059309	0.000100
O83	O	-0.143279	0.141406	0.000086
O84	O	-0.120753	-0.021701	0.000104
C85	C	0.101806	0.018094	0.000090
C86	C	0.120933	0.062427	0.000093
C87	C	0.089649	0.106250	0.000097
C88	C	0.171348	0.062939	0.000088
C89	C	0.202632	0.019117	0.000084
C90	C	0.183502	-0.025217	0.000086
C91	C	0.133090	-0.025728	0.000086
C92	C	0.108779	0.150584	0.000095
C93	C	0.159192	0.151091	0.000094
C94	C	0.190476	0.107269	0.000090
C95	C	0.658929	0.057738	0.000095
C96	C	0.712583	0.058294	0.000099
C97	C	0.566342	0.150325	0.000085
C98	C	0.566898	0.203979	0.000086
N99	N	0.570508	0.061940	0.129330
N100	N	0.570548	0.061901	-0.129164
C101	C	0.603637	0.028817	0.473960
C102	C	0.603648	0.028810	0.682838
O103	O	0.631796	0.000651	0.709845
N104	N	0.570538	0.061904	0.708957
C105	C	0.537421	0.095000	0.682854
O106	O	0.509255	0.123146	0.709863
C107	C	0.537407	0.095005	0.473978
C108	C	0.570523	0.061912	0.447861
C109	C	0.636749	-0.004274	0.447843
C110	C	0.636748	-0.004270	0.395627
C111	C	0.603634	0.028825	0.369528
C112	C	0.570521	0.061916	0.395644
C113	C	0.504288	0.128099	0.447875
C114	C	0.504287	0.128096	0.395653
C115	C	0.537402	0.095003	0.369536
C116	C	0.537406	0.095015	0.317329
N117	N	0.570516	0.061920	0.291209
C118	C	0.603630	0.028825	0.317309
C119	C	0.537431	0.094996	0.792518
C120	C	0.537434	0.094996	0.844737
C121	C	0.603662	0.028804	0.844717
C122	C	0.603660	0.028807	0.792497
C123	C	0.570541	0.061902	0.766398
C124	C	0.603625	0.028836	0.207651
C125	C	0.603622	0.028845	0.155430
C126	C	0.537393	0.095034	0.155454
C127	C	0.537398	0.095028	0.207671
C128	C	0.570515	0.061925	0.233768
O129	O	0.509269	0.123155	0.290290
O130	O	0.631784	0.000677	0.290291
C131	C	0.603638	0.028813	0.526176
C132	C	0.570526	0.061904	0.552293
C133	C	0.537412	0.094999	0.526194
C134	C	0.570530	0.061903	0.604512
C135	C	0.603644	0.028809	0.630612
C136	C	0.636754	-0.004286	0.604492
C137	C	0.636752	-0.004282	0.552276
C138	C	0.504302	0.128093	0.552313
C139	C	0.504306	0.128087	0.604530
C140	C	0.537420	0.094992	0.630629
H141	H	0.487893	-0.688854	0.000070
H142	H	0.646914	-0.802368	0.000096
C143	C	0.668055	-0.225579	-0.042567
C144	C	0.665643	-0.196216	0.000081
H145	H	0.697800	-0.246801	-0.042565
H146	H	0.641587	-0.244192	-0.042567
H147	H	0.666422	-0.205657	-0.071493
H148	H	0.667273	-0.216138	0.029006
H149	H	0.692118	-0.177602	0.000086
H150	H	0.663718	-0.031231	0.625751
H151	H	-0.271702	-0.021634	0.000091
C152	C	0.708226	-0.614813	0.042718
C153	C	0.705830	-0.585461	0.000071
H154	H	0.737966	-0.636044	0.042717
H155	H	0.706592	-0.594888	0.071641
H156	H	0.681749	-0.633420	0.042712
H157	H	0.732306	-0.566851	0.000079
H158	H	0.707469	-0.605389	-0.028859
H159	H	0.663718	-0.031229	0.531015
H160	H	0.446773	-0.391082	0.000059
H161	H	0.477340	0.155039	0.625791
H162	H	0.630590	0.001896	0.134167
H163	H	0.510460	0.121947	0.771272
H164	H	0.630592	0.001881	0.228893
H165	H	0.343354	-0.015402	0.000062
H166	H	0.695802	-0.333845	0.000079
H167	H	0.477335	0.155042	0.531067
C168	C	-0.198778	-0.072215	0.000084
C169	C	-0.171334	-0.033199	0.000090
H170	H	-0.177552	-0.101957	0.000073
H171	H	-0.218691	-0.070578	0.029014
H172	H	-0.218698	-0.070572	-0.028846
H173	H	-0.151416	-0.034839	0.029022
H174	H	-0.151412	-0.034836	-0.028843
C175	C	-0.001053	-0.114348	0.000094
C176	C	-0.039166	-0.075998	0.000093
H177	H	-0.014028	-0.144438	0.000103
H178	H	0.018354	-0.112319	-0.028837
H179	H	0.018360	-0.112301	0.029023
H180	H	-0.058577	-0.078043	-0.028837
H181	H	-0.058581	-0.078028	0.029027
C182	C	-0.294170	0.177617	0.042754
C183	C	-0.302675	0.150801	0.000106
H184	H	-0.315401	0.207356	0.042756
H185	H	-0.299934	0.159422	0.071676
H186	H	-0.261407	0.184266	0.042747
H187	H	-0.335437	0.144149	0.000115
H188	H	-0.296914	0.169000	-0.028824
H189	H	0.694275	-0.485092	0.000072
C190	C	0.705065	-0.128510	0.000085
C191	C	0.666713	-0.090399	0.000085
H192	H	0.735153	-0.115533	0.000083
H193	H	0.703028	-0.147915	0.029014
H194	H	0.703028	-0.147926	-0.028846
H195	H	0.668748	-0.070985	0.029019
H196	H	0.668751	-0.070986	-0.028846
H197	H	0.446167	-0.450871	0.000060
C198	C	0.447781	-0.769903	-0.042574
C199	C	0.474338	-0.785761	0.000077
H200	H	0.417695	-0.782884	-0.042579
H201	H	0.441817	-0.735404	-0.042573
H202	H	0.465818	-0.780673	-0.071498
H203	H	0.456303	-0.774987	0.029000
H204	H	0.480301	-0.820266	0.000080
C205	C	0.394256	-0.509657	0.000052
C206	C	0.432606	-0.547770	0.000059
H207	H	0.364166	-0.522632	0.000042
H208	H	0.396286	-0.490244	0.028981
H209	H	0.396302	-0.490250	-0.028879
H210	H	0.430562	-0.567175	0.028992
H211	H	0.430575	-0.567191	-0.028873
H212	H	0.493202	-0.165250	0.000073
H213	H	0.447706	-0.299621	0.000056
H214	H	0.494135	-0.073784	0.000068
H215	H	0.647846	-0.710900	0.000095
H216	H	0.663712	-0.031218	0.374366
H217	H	0.057733	-0.062437	0.000086
C218	C	0.101839	0.237773	0.000092
C219	C	0.074395	0.198757	0.000095
H220	H	0.080612	0.267515	0.000086
H221	H	0.121752	0.236142	0.029021
H222	H	0.121759	0.236126	-0.028839
H223	H	0.054477	0.200402	0.029028
H224	H	0.054474	0.200389	-0.028837
H225	H	0.694874	-0.425293	0.000080
H226	H	0.023513	0.185671	0.000107
H227	H	0.434820	-0.014469	0.000059
H228	H	0.477322	0.155046	0.469133
C229	C	0.380094	0.196461	0.000073
C230	C	0.418205	0.158108	0.000066
H231	H	0.393071	0.226549	0.000078
H232	H	0.360684	0.194424	-0.028853
H233	H	0.360684	0.194423	0.029006
H234	H	0.437613	0.160144	-0.028869
H235	H	0.437623	0.160146	0.028996
H236	H	0.174759	0.187198	0.000094
H237	H	0.321302	0.144550	0.000077
C238	C	-0.049416	0.236246	0.000116
C239	C	-0.076856	0.197227	0.000116
H240	H	-0.070645	0.265986	0.000114
H241	H	-0.029502	0.234614	0.029044
H242	H	-0.029497	0.234604	-0.028816
H243	H	-0.096772	0.198867	0.029049
H244	H	-0.096778	0.198860	-0.028815
H245	H	-0.202296	0.139241	0.000102
H246	H	0.117522	-0.061831	0.000083
H247	H	0.477315	0.155045	0.374406
C248	C	0.266185	-0.063568	0.000085
C249	C	0.217897	-0.073387	0.000084
H250	H	0.287419	-0.093306	0.000089
H251	H	0.271945	-0.045381	-0.028843
H252	H	0.271940	-0.045367	0.029016
H253	H	0.212141	-0.091586	-0.028849
H254	H	0.212135	-0.091583	0.029015
H255	H	0.663715	-0.031226	0.469089
H256	H	0.630625	0.001860	0.771235
H257	H	0.630625	0.001858	0.865975
C258	C	0.471970	0.160419	0.839498
C259	C	0.501035	0.131375	0.873441
H260	H	0.449494	0.182875	0.857219
H261	H	0.491959	0.177669	0.819134
H262	H	0.454737	0.140408	0.819127
H263	H	0.518271	0.151386	0.893809
H264	H	0.481043	0.114123	0.893813
H265	H	0.510436	0.121980	0.228935
H266	H	0.510433	0.121981	0.134196
