data_functionalizedCrystal
_audit_creation_method	'MofGen! by Chris Wilmer'
_symmetry_space_group_name_H-M	'P1'
_symmetry_Int_Tables_number	1
_symmetry_cell_setting	triclinic
loop_
_symmetry_equiv_pos_as_xyz
  x,y,z
_cell_length_a	19.188900
_cell_length_b	19.188930
_cell_length_c	15.021413
_cell_angle_alpha	90.001111
_cell_angle_beta	89.984330
_cell_angle_gamma	96.861366
loop_
_atom_site_label
_atom_site_type_symbol
_atom_site_fract_x
_atom_site_fract_y
_atom_site_fract_z
O1	O	-0.926162	0.087058	0.074215
O2	O	-0.722848	0.098814	0.074180
O3	O	-0.830372	-0.008720	0.074181
O4	O	-0.818638	0.194593	0.074214
O5	O	-0.830355	-0.008705	-0.073883
O6	O	-0.722831	0.098830	-0.073884
O7	O	-0.926145	0.087074	-0.073850
Zn8	Zn	-0.824485	0.092954	-0.097375
Zn9	Zn	-0.824508	0.092934	0.097706
O10	O	-0.818621	0.194608	-0.073851
C11	C	-0.696828	0.098445	0.000143
C12	C	-0.619322	0.097313	0.000129
C13	C	-0.829984	-0.034723	0.000146
C14	C	-0.828843	-0.112228	0.000138
C15	C	-0.582940	0.096760	0.080840
C16	C	-0.510116	0.095689	0.080849
C17	C	-0.473679	0.095155	0.000142
C18	C	-0.510070	0.095712	-0.080580
C19	C	-0.582892	0.096790	-0.080586
N20	N	-0.364652	0.053735	-0.059929
N21	N	-0.295475	0.052709	-0.059917
C22	C	-0.254272	0.091907	0.000157
N23	N	-0.284861	0.132161	0.060233
N24	N	-0.354045	0.133184	0.060224
C25	C	-0.394717	0.093986	0.000140
C26	C	-0.138926	0.090193	0.080883
C27	C	-0.066100	0.089126	0.080889
C28	C	-0.066056	0.089142	-0.080542
C29	C	-0.138880	0.090216	-0.080545
C30	C	-0.175310	0.090738	0.000170
C31	C	0.047836	0.087448	0.000182
C32	C	-0.029668	0.088594	0.000181
C33	C	-0.891935	-0.157158	0.000145
C34	C	-0.890863	-0.229982	0.000159
C35	C	-0.826696	-0.257872	0.000149
C36	C	-0.763596	-0.212931	0.000147
C37	C	-0.764669	-0.140109	0.000142
N38	N	-0.777642	-0.365866	-0.050249
N39	N	-0.776627	-0.435045	-0.050246
C40	C	-0.823458	-0.477280	0.000166
N41	N	-0.871353	-0.447725	0.050564
N42	N	-0.872371	-0.378540	0.050557
C43	C	-0.825525	-0.336834	0.000155
C44	C	-0.885392	-0.601175	0.000189
C45	C	-0.884318	-0.674000	0.000209
C46	C	-0.757049	-0.656947	0.000188
C47	C	-0.758125	-0.584124	0.000177
C48	C	-0.822298	-0.556243	0.000174
C49	C	-0.819009	0.220611	0.000186
C50	C	-0.820150	0.298116	0.000200
N51	N	-0.824475	0.092967	-0.230513
C52	C	-0.774748	0.142668	-0.470197
C53	C	-0.837797	0.156020	-0.529518
C54	C	-0.824493	0.092950	-0.412120
C55	C	-0.761461	0.079614	-0.529541
C56	C	-0.824504	0.092935	-0.587544
C57	C	-0.887574	0.106333	-0.470134
C58	C	-0.811196	0.029900	-0.470152
C59	C	-0.874291	0.043224	-0.529446
C60	C	-0.824485	0.092961	-0.311063
C61	C	-0.824519	0.092924	-0.688599
N62	N	-0.824524	0.092915	0.230843
H63	H	-0.480487	0.095240	0.146576
H64	H	-0.708150	0.068341	-0.555637
O65	O	-0.797783	-0.033650	-0.438860
C66	C	-0.798589	-0.032927	-0.345010
H67	H	-0.831027	0.009388	-0.320807
H68	H	-0.822799	-0.086291	-0.319315
H69	H	-0.742594	-0.021295	-0.319017
O70	O	-0.174315	0.090650	-0.158893
C71	C	-0.224527	0.030808	-0.163743
H72	H	-0.238158	0.010809	-0.093669
H73	H	-0.273903	0.045163	-0.197908
H74	H	-0.202123	-0.011938	-0.203574
O75	O	-0.945591	-0.717676	0.000377
C76	C	-0.948785	-0.760313	0.077057
H77	H	-0.913007	-0.733526	0.130648
H78	H	-1.005056	-0.768674	0.102801
H79	H	-0.930875	-0.813216	0.059728
O80	O	-0.696901	-0.540375	0.000201
C81	C	-0.711607	-0.470121	0.000176
H82	H	-0.766444	-0.467500	0.028215
H83	H	-0.671383	-0.436998	0.043156
H84	H	-0.708887	-0.449054	-0.070860
H85	H	-0.849055	0.209334	-0.555593
H86	H	-0.937646	-0.578473	0.000190
H87	H	-0.036478	0.088680	0.146616
O88	O	-0.694698	-0.683996	0.000337
C89	C	-0.656252	-0.660994	0.077001
H90	H	-0.693786	-0.645960	0.130602
H91	H	-0.626684	-0.705014	0.102743
H92	H	-0.617198	-0.613408	0.059654
H93	H	-0.612514	0.097241	-0.146313
H94	H	-0.916409	0.001170	-0.555298
H95	H	-0.612597	0.097186	0.146565
H96	H	-0.942242	-0.266572	0.000168
H97	H	-0.480399	0.095279	-0.146292
O98	O	-0.951228	0.119752	-0.439162
C99	C	-1.003634	0.067595	-0.470048
H100	H	-0.978953	0.018091	-0.487083
H101	H	-1.044961	0.055168	-0.415990
H102	H	-1.029364	0.087351	-0.532043
H103	H	-0.168588	0.090626	0.146606
O104	O	-0.724688	0.192955	-0.439191
C105	C	-0.738976	0.259335	-0.469460
H106	H	-0.797157	0.257181	-0.486083
H107	H	-0.724847	0.300107	-0.415190
H108	H	-0.706481	0.274394	-0.531580
H109	H	-0.713291	-0.103526	0.000136
H110	H	-0.944190	-0.134462	0.000145
O111	O	-0.030659	0.088495	-0.158921
C112	C	0.003375	0.027424	-0.163745
H113	H	-0.024245	-0.014508	-0.117946
H114	H	0.001496	0.007122	-0.235132
H115	H	0.060392	0.040273	-0.142060
O116	O	-0.701308	-0.240103	0.000254
C117	C	-0.696883	-0.281701	0.076950
H118	H	-0.751973	-0.300011	0.102523
H119	H	-0.669195	-0.329302	0.059701
H120	H	-0.665902	-0.249428	0.130642
