data_functionalizedCrystal
_audit_creation_method	'MofGen! by Chris Wilmer'
_symmetry_space_group_name_H-M	'P1'
_symmetry_Int_Tables_number	1
_symmetry_cell_setting	triclinic
loop_
_symmetry_equiv_pos_as_xyz
  x,y,z
_cell_length_a	21.395362
_cell_length_b	21.295417
_cell_length_c	21.395356
_cell_angle_alpha	90.030622
_cell_angle_beta	90.042977
_cell_angle_gamma	90.046383
loop_
_atom_site_label
_atom_site_type_symbol
_atom_site_fract_x
_atom_site_fract_y
_atom_site_fract_z
Zn1	Zn	0.957854	-0.250358	0.354573
Zn2	Zn	0.957759	-0.355627	0.249790
Zn3	Zn	0.853071	-0.250404	0.249774
Zn4	Zn	0.853039	-0.355623	0.354495
O5	O	0.905431	-0.303003	0.302158
O6	O	1.045520	-0.264305	0.340713
O7	O	0.943846	-0.341690	0.162110
O8	O	0.867024	-0.162309	0.263702
O9	O	1.045450	-0.341645	0.263729
O10	O	0.944008	-0.162275	0.340697
O11	O	0.866932	-0.264383	0.162098
O12	O	0.765389	-0.264380	0.263626
O13	O	0.866969	-0.341638	0.442183
O14	O	0.765365	-0.341683	0.340564
O15	O	0.943977	-0.264301	0.442240
O16	O	0.943814	-0.443716	0.263653
O17	O	0.866877	-0.443713	0.340579
C18	C	0.742643	-0.303036	0.302085
C19	C	0.673002	-0.303066	0.302069
C20	C	0.640293	-0.343371	0.342070
C21	C	0.574858	-0.343356	0.342098
C22	C	0.542134	-0.303042	0.302114
C23	C	0.574851	-0.262728	0.262109
C24	C	0.640285	-0.262741	0.262087
C25	C	0.438410	-0.297979	0.245709
C26	C	0.372977	-0.297972	0.245730
C27	C	0.340313	-0.303000	0.302183
C28	C	0.373090	-0.308050	0.358616
C29	C	0.438524	-0.308062	0.358594
C30	C	0.471181	-0.303024	0.302134
C31	C	0.236651	-0.343291	0.342218
C32	C	0.171215	-0.343271	0.342247
C33	C	0.171209	-0.262647	0.262252
C34	C	0.236645	-0.262664	0.262229
C35	C	0.269362	-0.302989	0.302211
C36	C	0.905349	-0.466555	0.302123
C37	C	0.905371	-0.536523	0.302129
C38	C	0.945468	-0.569370	0.262115
C39	C	0.945497	-0.635113	0.262129
C40	C	0.905418	-0.668005	0.302151
C41	C	0.865319	-0.635150	0.342173
C42	C	0.865295	-0.569409	0.342162
N43	N	0.850609	-0.771286	0.306903
N44	N	0.850633	-0.833738	0.306910
C45	C	0.905489	-0.866080	0.302187
N46	N	0.960320	-0.833611	0.297445
N47	N	0.960295	-0.771154	0.297435
C48	C	0.905440	-0.739291	0.302167
C49	C	0.945621	-0.970213	0.262186
C50	C	0.945651	-1.035956	0.262204
C51	C	0.865467	-1.035993	0.342245
C52	C	0.865442	-0.970250	0.342230
C53	C	0.905518	-0.937364	0.302197
C54	C	1.068854	-0.302970	0.302231
C55	C	1.138496	-0.302956	0.302262
C56	C	0.905480	-0.302964	0.465581
C57	C	0.905501	-0.302947	0.535223
C58	C	0.905530	-0.138813	0.302206
C59	C	0.905573	-0.068845	0.302227
C60	C	0.905418	-0.302997	0.139370
C61	C	0.905518	-0.302836	0.069729
C62	C	0.865463	-0.262689	0.567920
C63	C	0.865461	-0.262678	0.633355
C64	C	0.905508	-0.302917	0.666091
C65	C	0.945549	-0.343183	0.633386
C66	C	0.945546	-0.343198	0.567952
C67	C	0.961960	-0.307851	0.769796
C68	C	0.961965	-0.307831	0.835229
C69	C	0.905518	-0.302875	0.867912
C70	C	0.849066	-0.297925	0.835153
C71	C	0.849063	-0.297940	0.769719
C72	C	0.905516	-0.302906	0.737043
C73	C	0.865474	-0.262602	0.971562
C74	C	0.865471	-0.262595	1.036998
C75	C	0.945565	-0.343097	1.037028
C76	C	0.945563	-0.343108	0.971592
C77	C	0.905518	-0.302857	0.938863
H78	H	0.263277	-0.229846	0.229652
C79	C	0.538858	-0.218383	0.218124
C80	C	0.466883	-0.218371	0.218144
C81	C	0.430890	-0.174021	0.174159
C82	C	0.466873	-0.129685	0.130155
C83	C	0.538852	-0.129695	0.130135
C84	C	0.574844	-0.174045	0.174119
H85	H	0.440242	-0.251193	0.250719
H86	H	0.377607	-0.174014	0.174175
H87	H	0.440230	-0.096855	0.097596
H88	H	0.565493	-0.096873	0.097559
H89	H	0.628128	-0.174052	0.174103
H90	H	0.548221	-0.376177	0.374675
H91	H	0.666916	-0.229917	0.229513
C92	C	0.786970	-0.292464	0.871095
C93	C	0.724878	-0.287014	0.835064
C94	C	0.662785	-0.281547	0.871009
C95	C	0.662783	-0.281529	0.942984
C96	C	0.724877	-0.286980	0.979019
C97	C	0.786970	-0.292447	0.943074
H98	H	0.724877	-0.287027	0.781781
H99	H	0.616819	-0.277512	0.844333
H100	H	0.616818	-0.277482	0.969592
H101	H	0.724878	-0.286967	1.032302
H102	H	0.832937	-0.296482	0.969750
C103	C	0.989557	-0.533199	0.218084
C104	C	0.984483	-0.542298	0.146852
C105	C	1.028574	-0.506127	0.102822
C106	C	1.077738	-0.460857	0.130023
C107	C	1.082814	-0.451756	0.201258
C108	C	1.038723	-0.487927	0.245289
H109	H	0.948087	-0.575812	0.126713
H110	H	1.024816	-0.512865	0.050088
H111	H	1.110376	-0.434081	0.097429
H112	H	1.119210	-0.418242	0.221397
H113	H	1.042481	-0.481189	0.298022
H114	H	0.978156	-0.375947	0.660043
H115	H	0.978174	-0.375860	1.063680
C116	C	0.821419	-0.218337	0.935554
C117	C	0.821416	-0.218348	0.863579
C118	C	0.777359	-0.174084	0.827574
C119	C	0.733307	-0.129808	0.863544
C120	C	0.733309	-0.129795	0.935523
C121	C	0.777365	-0.174059	0.971528
H122	H	0.854028	-0.251126	0.836949
H123	H	0.777358	-0.174094	0.774290
H124	H	0.700693	-0.097041	0.836891
H125	H	0.700697	-0.097017	0.962154
H126	H	0.777366	-0.174049	1.024812
C127	C	0.989598	-0.387479	0.531983
C128	C	1.038804	-0.360197	0.487046
C129	C	1.082859	-0.404476	0.451076
C130	C	1.077708	-0.476037	0.460043
C131	C	1.028500	-0.503323	0.504982
C132	C	0.984445	-0.459044	0.540952
H133	H	1.042618	-0.307220	0.480406
H134	H	1.119286	-0.384277	0.417809
H135	H	1.110320	-0.508816	0.433416
H136	H	1.024685	-0.556301	0.511622
H137	H	0.948018	-0.479243	0.574219
C138	C	0.989765	-1.072091	0.218189
C139	C	1.033845	-1.035914	0.174158
C140	C	1.077960	-1.072050	0.130143
C141	C	1.077995	-1.144363	0.130159
C142	C	1.033913	-1.180544	0.174191
C143	C	0.989798	-1.144408	0.218206
H144	H	1.033821	-0.982380	0.174145
H145	H	1.110593	-1.045266	0.097547
H146	H	1.110652	-1.171113	0.097577
H147	H	1.033937	-1.234078	0.174205
H148	H	0.957165	-1.171192	0.250802
H149	H	0.978151	-0.661862	0.229545
H150	H	0.666927	-0.376206	0.374628
C151	C	0.989613	-0.387387	0.935621
C152	C	1.033665	-0.431651	0.971625
C153	C	1.077715	-0.475933	0.935653
C154	C	1.077713	-0.475952	0.863678
C155	C	1.033659	-0.431686	0.827671
C156	C	0.989609	-0.387403	0.863642
H157	H	1.033668	-0.431639	1.024909
H158	H	1.110327	-0.508702	0.962309
H159	H	1.110322	-0.508733	0.837050
H160	H	1.033656	-0.431698	0.774387
H161	H	0.956997	-0.354635	0.836986
H162	H	0.803097	-0.293910	0.743050
H163	H	0.832688	-0.661936	0.374760
C164	C	0.336925	-0.292423	0.183655
C165	C	0.372851	-0.286883	0.121559
C166	C	0.336801	-0.281337	0.059482
C167	C	0.264826	-0.281331	0.059503
C168	C	0.228897	-0.286872	0.121602
C169	C	0.264946	-0.292418	0.183678
H170	H	0.426134	-0.286887	0.121542
H171	H	0.363398	-0.277235	0.013513
H172	H	0.238140	-0.277225	0.013550
H173	H	0.175613	-0.286868	0.121619
H174	H	0.238349	-0.296520	0.229648
H175	H	1.007929	-0.311882	0.743191
C176	C	0.821425	-0.218308	1.072967
C177	C	0.772213	-0.245580	1.117904
C178	C	0.728166	-0.201292	1.153872
C179	C	0.733330	-0.129732	1.144904
C180	C	0.782544	-0.102456	1.099965
C181	C	0.826591	-0.146744	1.063996
H182	H	0.768389	-0.298557	1.124544
H183	H	0.691735	-0.221484	1.187139
H184	H	0.700724	-0.096947	1.171530
H185	H	0.786369	-0.049479	1.093324
H186	H	0.863022	-0.126552	1.030729
H187	H	0.832643	-0.542664	0.374747
C188	C	0.821379	-1.072165	0.386272
C189	C	0.750151	-1.063212	0.381068
C190	C	0.706064	-1.099387	0.425099
C191	C	0.733204	-1.144515	0.474333
C192	C	0.804436	-1.153469	0.479538
C193	C	0.848523	-1.117294	0.435507
H194	H	0.730057	-1.029804	0.344621
H195	H	0.653333	-1.092758	0.421245
H196	H	0.700568	-1.171293	0.506927
H197	H	0.824530	-1.186877	0.515986
H198	H	0.901254	-1.123924	0.439361
H199	H	0.832789	-0.943504	0.374811
C200	C	0.989708	-0.934031	0.218159
C201	C	0.984640	-0.943127	0.146926
C202	C	1.028728	-0.906946	0.102900
C203	C	1.077883	-0.861669	0.130107
C204	C	1.082952	-0.852571	0.201343
C205	C	1.038865	-0.888751	0.245369
H206	H	0.948251	-0.976646	0.126783
H207	H	1.024975	-0.913682	0.050167
H208	H	1.110519	-0.834886	0.097516
H209	H	1.119341	-0.819052	0.221486
H210	H	1.042618	-0.882016	0.298103
H211	H	0.464999	-0.293882	0.199735
C212	C	0.272647	-0.387639	0.386202
C213	C	0.317550	-0.437036	0.358948
C214	C	0.353544	-0.481383	0.402933
C215	C	0.344635	-0.476333	0.474173
C216	C	0.299730	-0.426934	0.501431
C217	C	0.263736	-0.382587	0.457446
H218	H	0.324147	-0.440776	0.306208
H219	H	0.386786	-0.517951	0.382754
H220	H	0.371280	-0.509161	0.506733
H221	H	0.293134	-0.423194	0.554171
H222	H	0.230494	-0.346019	0.477625
H223	H	0.832853	-0.229916	0.541276
C224	C	0.821419	-0.218390	0.669334
C225	C	0.750187	-0.223534	0.660291
C226	C	0.706146	-0.179246	0.696269
C227	C	0.733337	-0.129815	0.741288
C228	C	0.804573	-0.124670	0.750332
C229	C	0.848614	-0.168957	0.714355
H230	H	0.730055	-0.260127	0.626964
H231	H	0.653412	-0.183055	0.689573
H232	H	0.700736	-0.097031	0.767920
H233	H	0.824705	-0.088076	0.783660
H234	H	0.901348	-0.165148	0.721051
C235	C	1.024061	-0.313264	0.871260
C236	C	1.086150	-0.318720	0.835314
C237	C	1.148249	-0.324147	0.871343
C238	C	1.148257	-0.324118	0.943318
C239	C	1.086165	-0.318661	0.979268
C240	C	1.024067	-0.313234	0.943239
H241	H	1.086146	-0.318742	0.782030
H242	H	1.194213	-0.328186	0.844730
H243	H	1.194226	-0.328135	0.969989
H244	H	1.086170	-0.318639	1.032552
H245	H	0.978102	-0.309195	0.969852
C246	C	0.474579	-0.313608	0.420667
C247	C	0.465574	-0.371781	0.462434
C248	C	0.501628	-0.377324	0.524508
C249	C	0.546687	-0.324694	0.544815
C250	C	0.555694	-0.266517	0.503047
C251	C	0.519639	-0.260975	0.440973
H252	H	0.432217	-0.410745	0.447402
H253	H	0.494961	-0.420391	0.555427
H254	H	0.573377	-0.328797	0.590766
H255	H	0.589051	-0.227554	0.518078
H256	H	0.526307	-0.217908	0.410053
H257	H	0.346497	-0.312144	0.404586
H258	H	0.144566	-0.229820	0.229699
H259	H	0.144584	-0.376091	0.374825
