data_functionalizedCrystal
_audit_creation_method	'MofGen! by Chris Wilmer'
_symmetry_space_group_name_H-M	'P1'
_symmetry_Int_Tables_number	1
_symmetry_cell_setting	triclinic
loop_
_symmetry_equiv_pos_as_xyz
  x,y,z
_cell_length_a	19.851628
_cell_length_b	14.560438
_cell_length_c	14.560438
_cell_angle_alpha	60.000069
_cell_angle_beta	90.003174
_cell_angle_gamma	59.997979
loop_
_atom_site_label
_atom_site_type_symbol
_atom_site_fract_x
_atom_site_fract_y
_atom_site_fract_z
Zr1	Zr	0.648978	1.005173	-0.120400
O2	O	0.541412	1.196794	-0.267063
O3	O	0.681953	0.813566	-0.075442
O4	O	0.681953	1.005170	-0.267043
O5	O	0.541412	1.005187	0.075679
O6	O	0.792815	1.005153	-0.267025
O7	O	0.541412	1.005189	-0.075462
O8	O	0.792815	0.662408	0.075714
O9	O	0.541412	1.347931	-0.267060
O10	O	0.778752	0.892359	-0.056252
O11	O	0.696017	0.892370	0.056529
O12	O	0.696017	1.117959	-0.169056
O13	O	0.613282	1.117970	-0.056275
Zr14	Zr	0.825790	1.005140	0.120682
Zr15	Zr	0.825790	1.005145	-0.120370
Zr16	Zr	0.648979	1.005169	0.120653
Zr17	Zr	0.648979	1.246221	-0.120395
Zr18	Zr	0.825790	0.764093	0.120677
O19	O	0.792816	1.196747	0.075724
O20	O	0.792815	1.196753	-0.267021
O21	O	0.541412	1.196787	0.075683
O22	O	0.933357	0.813520	0.267345
O23	O	0.933357	0.813526	-0.075400
O24	O	0.681954	0.813560	0.267303
O25	O	0.933357	1.005127	-0.075397
O26	O	0.792816	1.005143	0.267325
O27	O	0.681954	1.005161	0.267307
O28	O	0.933357	1.005124	0.075744
O29	O	0.681954	1.347909	-0.267036
O30	O	0.792815	0.662404	0.267319
O31	O	0.933357	0.662382	0.267342
O32	O	0.933357	0.662385	0.075738
O33	O	0.541412	1.347928	-0.075455
O34	O	0.681954	1.347906	-0.075432
O35	O	0.778752	0.892355	0.169338
O36	O	0.861487	0.892343	0.056557
O37	O	0.778752	1.117944	-0.056247
O38	O	0.696017	1.117955	0.056534
C39	C	0.737384	0.703643	0.000135
C40	C	0.737384	0.601312	0.000133
C41	C	0.780569	0.553230	-0.058737
C42	C	0.780572	0.457071	-0.058727
C43	C	0.694199	0.457087	0.059027
C44	C	0.694201	0.553238	0.059022
C45	C	0.516220	1.005192	0.000104
C46	C	0.441159	1.005204	0.000092
C47	C	0.214703	1.128182	-0.061376
C48	C	0.192342	1.066696	-0.105945
C49	C	0.303752	1.005170	0.000124
C50	C	0.192373	1.066665	0.044672
C51	C	0.171020	1.005147	0.000155
C52	C	0.282379	0.943684	-0.044507
C53	C	0.282408	0.943670	0.106169
C54	C	0.260099	0.882094	0.061627
C55	C	0.380214	1.005188	0.000104
C56	C	0.094563	1.005120	0.000173
C57	C	0.958549	1.005121	0.000178
C58	C	1.033610	1.005109	0.000190
C59	C	0.737384	1.005162	-0.301379
C60	C	0.737384	1.005164	-0.403712
C61	C	0.737385	1.306671	0.000147
C62	C	0.737385	1.409002	0.000149
C63	C	0.798458	1.005155	-0.451777
C64	C	0.798461	1.005143	-0.547923
C65	C	0.676307	1.005154	-0.547932
C66	C	0.676309	1.005157	-0.451783
C67	C	0.737385	1.005151	0.301661
C68	C	0.737385	1.005150	0.403994
C69	C	0.958549	0.703607	0.000172
C70	C	1.033610	0.601264	0.000183
C71	C	0.737384	0.703638	0.301655
C72	C	0.737384	0.601305	0.403986
C73	C	0.958549	0.703602	0.301692
C74	C	1.033610	0.601257	0.404035
C75	C	0.516220	1.306711	-0.301410
C76	C	0.441159	1.409056	-0.403753
C77	C	0.516220	1.306706	0.000110
C78	C	0.441159	1.409049	0.000100
C79	C	0.737385	1.306676	-0.301373
C80	C	0.737385	1.409009	-0.403704
C81	C	1.025672	0.553211	-0.058707
C82	C	1.096193	0.457062	-0.058720
C83	C	1.174651	0.408962	0.000165
C84	C	1.182587	0.457025	0.059056
C85	C	1.112066	0.553179	0.059062
C86	C	1.112054	0.553189	0.393226
C87	C	1.182588	0.457039	0.489380
C88	C	1.174678	0.408952	0.596341
C89	C	1.096226	0.457029	0.607148
C90	C	1.025693	0.553184	0.510995
C91	C	0.362715	1.457136	-0.392944
C92	C	0.292180	1.553316	-0.489097
C93	C	0.300091	1.601408	-0.596059
C94	C	0.378543	1.553325	-0.606865
C95	C	0.449076	1.457153	-0.510713
C96	C	0.449097	1.457112	0.058980
C97	C	0.378575	1.553288	0.058966
C98	C	0.300118	1.601391	0.000078
C99	C	0.292182	1.553324	-0.058810
C100	C	0.362702	1.457157	-0.058802
C101	C	0.780570	0.553219	0.510946
C102	C	0.780561	0.457075	0.607093
C103	C	0.694178	0.457108	0.489306
C104	C	0.694183	0.553257	0.393162
H105	H	0.815733	0.592367	-0.106686
N106	N	0.864328	1.005156	-0.599773
H107	H	0.896430	0.925071	-0.599619
H108	H	0.902955	1.005214	-0.554691
H109	H	1.246476	0.417848	0.106998
H110	H	0.512946	1.418007	-0.519527
N111	N	1.087700	0.405157	0.722516
H112	H	1.144290	0.336946	0.781778
H113	H	1.056521	0.365326	0.731424
N114	N	0.387149	1.605133	0.122467
H115	H	0.330574	1.673370	0.113518
H116	H	0.418347	1.644925	0.091540
H117	H	0.961823	0.592309	0.519812
H118	H	0.278706	0.777997	0.113637
H119	H	0.242652	1.679717	-0.674343
H120	H	0.356258	1.417984	-0.305860
N121	N	0.387065	1.605193	-0.722236
H122	H	0.447461	1.560148	-0.714506
H123	H	0.359683	1.701718	-0.764692
H124	H	0.659012	0.592412	0.306064
N125	N	0.207557	1.605193	-0.122299
H126	H	0.176362	1.701719	-0.181547
H127	H	0.176459	1.588362	-0.068197
N128	N	0.207572	1.605163	-0.477427
H129	H	0.213270	1.560088	-0.395076
H130	H	0.176422	1.588447	-0.514766
N131	N	1.120633	0.604998	0.122587
H132	H	1.181038	0.559927	0.159887
H133	H	1.093262	0.588255	0.181784
H134	H	0.196252	1.232194	-0.113459
N135	N	0.827152	0.405207	-0.122220
H136	H	0.854506	0.450255	-0.159524
H137	H	0.787495	0.421942	-0.181413
H138	H	0.321216	0.891724	0.195819
H139	H	0.512974	1.417954	0.106941
H140	H	0.153572	1.118677	0.082335
N141	N	0.224060	1.705114	0.000074
H142	H	0.241001	1.728253	0.046316
H143	H	0.190145	1.671587	0.033554
H144	H	1.118510	0.592328	0.306142
N145	N	0.647597	0.405269	0.477632
H146	H	0.587181	0.478636	0.435149
H147	H	0.654214	0.337039	0.554805
H148	H	0.356228	1.418026	-0.106746
N149	N	0.333628	0.874885	-0.094546
H150	H	0.299970	0.920991	-0.174413
H151	H	0.350909	0.782224	-0.048394
N152	N	0.864330	1.005146	-0.399907
H153	H	0.861668	1.085222	-0.456676
H154	H	0.920367	0.925000	-0.376579
H155	H	0.815744	0.592341	0.519766
H156	H	0.626580	1.005151	-0.587083
N157	N	0.647624	0.405237	0.122539
H158	H	0.654174	0.337031	0.113608
H159	H	0.587229	0.478680	0.091618
N160	N	0.647628	0.605096	0.122532
H161	H	0.620268	0.560059	0.159833
H162	H	0.604212	0.701624	0.068467
N163	N	0.610438	1.005150	-0.399924
H164	H	0.571745	1.005152	-0.444969
H165	H	0.578406	1.085235	-0.400072
N166	N	1.087615	0.405242	-0.122243
H167	H	1.056463	0.365352	-0.091351
H168	H	1.144216	0.337086	-0.113309
H169	H	0.815726	0.417929	0.694182
N170	N	0.140937	1.135550	-0.224718
H171	H	0.123170	1.228473	-0.271129
H172	H	0.090564	1.134195	-0.223667
H173	H	0.961794	0.592373	-0.106672
H174	H	1.232066	0.330666	0.000152
H175	H	1.232117	0.330656	0.674625
N176	N	1.267197	0.405193	0.477709
H177	H	1.261499	0.450242	0.395358
H178	H	1.298345	0.308667	0.515044
