data_functionalizedCrystal
_audit_creation_method	'MofGen! by Chris Wilmer'
_symmetry_space_group_name_H-M	'P1'
_symmetry_Int_Tables_number	1
_symmetry_cell_setting	triclinic
loop_
_symmetry_equiv_pos_as_xyz
  x,y,z
_cell_length_a	15.297475
_cell_length_b	21.295417
_cell_length_c	21.295412
_cell_angle_alpha	89.969332
_cell_angle_beta	80.312011
_cell_angle_gamma	80.332118
loop_
_atom_site_label
_atom_site_type_symbol
_atom_site_fract_x
_atom_site_fract_y
_atom_site_fract_z
Zn1	Zn	1.379196	-0.417430	-0.522152
Zn2	Zn	1.712529	-0.084097	-0.188818
Zn3	Zn	2.045863	0.249237	0.144515
Zn4	Zn	1.379059	-0.522682	-0.416860
Zn5	Zn	1.712392	-0.189348	-0.083527
Zn6	Zn	2.045726	0.143985	0.249806
Zn7	Zn	1.228321	-0.399200	-0.398711
Zn8	Zn	1.561654	-0.065866	-0.065378
Zn9	Zn	1.894987	0.267467	0.267956
Zn10	Zn	1.228274	-0.504412	-0.503918
Zn11	Zn	1.561608	-0.171079	-0.170584
Zn12	Zn	1.894941	0.162254	0.162749
O13	O	1.303713	-0.460931	-0.460410
O14	O	1.637046	-0.127598	-0.127077
O15	O	1.970379	0.205736	0.206256
O16	O	1.505424	-0.446667	-0.523411
O17	O	1.838757	-0.113334	-0.190078
O18	O	2.172090	0.219999	0.143255
O19	O	1.359025	-0.506318	-0.326359
O20	O	1.692359	-0.172985	0.006974
O21	O	2.025692	0.160349	0.340308
O22	O	1.248412	-0.313538	-0.415121
O23	O	1.581745	0.019796	-0.081788
O24	O	1.915078	0.353129	0.251546
O25	O	1.505323	-0.523995	-0.446054
O26	O	1.838656	-0.190662	-0.112721
O27	O	2.171990	0.142671	0.220612
O28	O	1.359259	-0.326932	-0.505812
O29	O	1.692592	0.006402	-0.172479
O30	O	2.025926	0.339735	0.160854
O31	O	1.248279	-0.415596	-0.313025
O32	O	1.581612	-0.082263	0.020309
O33	O	1.914945	0.251070	0.353642
O34	O	1.102069	-0.397881	-0.397440
O35	O	1.435402	-0.064548	-0.064107
O36	O	1.768735	0.268786	0.269226
O37	O	1.248332	-0.492857	-0.594430
O38	O	1.581666	-0.159524	-0.261097
O39	O	1.914999	0.173809	0.072236
O40	O	1.102035	-0.475180	-0.474735
O41	O	1.435368	-0.141847	-0.141402
O42	O	1.768701	0.191487	0.191932
O43	O	1.359214	-0.428952	-0.607827
O44	O	1.692547	-0.095619	-0.274493
O45	O	2.025881	0.237715	0.058840
O46	O	1.358980	-0.608338	-0.428373
O47	O	1.692313	-0.275005	-0.095040
O48	O	2.025647	0.058328	0.238293
O49	O	1.248199	-0.594916	-0.492334
O50	O	1.581533	-0.261582	-0.159000
O51	O	1.914866	0.071751	0.174333
C52	C	1.069318	-0.432570	-0.432140
C53	C	1.402651	-0.099237	-0.098807
C54	C	1.735984	0.234096	0.234527
C55	C	0.969042	-0.420453	-0.420061
C56	C	1.302376	-0.087119	-0.086727
C57	C	1.635709	0.246214	0.246606
C58	C	1.303594	-0.624468	-0.460361
C59	C	1.636928	-0.291135	-0.127028
C60	C	1.970261	0.042198	0.206306
C61	C	1.303626	-0.694440	-0.460371
C62	C	1.636960	-0.361107	-0.127038
C63	C	1.970293	-0.027774	0.206296
C64	C	0.686412	-0.547542	-0.546744
C65	C	1.019745	-0.214209	-0.213410
C66	C	1.353078	0.119125	0.119923
C67	C	0.780625	-0.558932	-0.558091
C68	C	1.113959	-0.225599	-0.224758
C69	C	1.447292	0.107735	0.108576
C70	C	0.827734	-0.524313	-0.523585
C71	C	1.161068	-0.190980	-0.190251
C72	C	1.494401	0.142354	0.143082
C73	C	0.780620	-0.478302	-0.477729
C74	C	1.113954	-0.144969	-0.144395
C75	C	1.447287	0.188364	0.188938
C76	C	0.686398	-0.466915	-0.466377
C77	C	1.019731	-0.133582	-0.133043
C78	C	1.353064	0.199752	0.200290
C79	C	0.827720	-0.443686	-0.443218
C80	C	1.161053	-0.110353	-0.109884
C81	C	1.494387	0.222981	0.223449
C82	C	0.780606	-0.397675	-0.397362
C83	C	1.113939	-0.064342	-0.064028
C84	C	1.447273	0.268991	0.269305
C85	C	0.686393	-0.386290	-0.386012
C86	C	1.019726	-0.052956	-0.052679
C87	C	1.353059	0.280377	0.280655
C88	C	0.639284	-0.420909	-0.420518
C89	C	0.972617	-0.087575	-0.087185
C90	C	1.305950	0.245758	0.246148
C91	C	0.921943	-0.455073	-0.454569
C92	C	1.255276	-0.121740	-0.121236
C93	C	1.588609	0.211593	0.212097
C94	C	0.921928	-0.374446	-0.374202
C95	C	1.255262	-0.041113	-0.040869
C96	C	1.588595	0.292220	0.292464
C97	C	0.827715	-0.363056	-0.362855
C98	C	1.161048	-0.029723	-0.029522
C99	C	1.494382	0.303610	0.303812
C100	C	1.361361	-0.734281	-0.427114
C101	C	1.694694	-0.400948	-0.093781
C102	C	2.028028	-0.067615	0.239552
C103	C	1.361403	-0.800029	-0.427134
C104	C	1.694737	-0.466696	-0.093800
C105	C	2.028070	-0.133362	0.239533
C106	C	1.303695	-0.825931	-0.460401
C107	C	1.637028	-0.492598	-0.127068
C108	C	1.970361	-0.159264	0.206266
C109	C	1.245956	-0.786081	-0.493665
C110	C	1.579289	-0.452748	-0.160332
C111	C	1.912622	-0.119415	0.173002
C112	C	1.245921	-0.720336	-0.493650
C113	C	1.579255	-0.387003	-0.160317
C114	C	1.912588	-0.053669	0.173017
N115	N	1.224775	-0.919652	-0.455681
N116	N	1.558108	-0.586319	-0.122348
N117	N	1.891442	-0.252985	0.210985
N118	N	1.224810	-0.982108	-0.455692
N119	N	1.558143	-0.648774	-0.122359
N120	N	1.891477	-0.315441	0.210974
C121	C	1.303796	-1.024018	-0.460449
C122	C	1.637129	-0.690685	-0.127116
C123	C	1.970462	-0.357351	0.206217
N124	N	1.382747	-1.001113	-0.465183
N125	N	1.716080	-0.667780	-0.131850
N126	N	2.049413	-0.334447	0.201484
N127	N	1.382711	-0.938652	-0.465169
N128	N	1.716044	-0.605318	-0.131835
N129	N	2.049377	-0.271985	0.201498
C130	C	1.303726	-0.897220	-0.460421
C131	C	1.637059	-0.563887	-0.127088
C132	C	1.970392	-0.230553	0.206245
C133	C	1.361581	-1.135151	-0.427212
C134	C	1.694915	-0.801817	-0.093879
C135	C	2.028248	-0.468484	0.239455
C136	C	1.361625	-1.200900	-0.427236
C137	C	1.694958	-0.867566	-0.093902
C138	C	2.028292	-0.534233	0.239431
C139	C	1.246169	-1.186950	-0.493763
C140	C	1.579503	-0.853617	-0.160430
C141	C	1.912836	-0.520283	0.172904
C142	C	1.246134	-1.121203	-0.493743
C143	C	1.579467	-0.787870	-0.160410
C144	C	1.912800	-0.454536	0.172923
C145	C	1.303838	-1.095307	-0.460464
C146	C	1.637172	-0.761974	-0.127131
C147	C	1.970505	-0.428641	0.206202
C148	C	1.539023	-0.489403	-0.488791
C149	C	1.872356	-0.156069	-0.155458
C150	C	2.205689	0.177264	0.177875
C151	C	1.639298	-0.501536	-0.500886
C152	C	1.972631	-0.168202	-0.167552
C153	C	2.305965	0.165131	0.165781
C154	C	1.303783	-0.460900	-0.624609
C155	C	1.637116	-0.127567	-0.291276
C156	C	1.970450	0.205766	0.042058
C157	C	1.303813	-0.460887	-0.694581
C158	C	1.637147	-0.127554	-0.361247
C159	C	1.970480	0.205779	-0.027914
C160	C	1.303856	-0.296758	-0.460476
C161	C	1.637189	0.036575	-0.127143
C162	C	1.970522	0.369909	0.206190
C163	C	1.303917	-0.226797	-0.460504
C164	C	1.637250	0.106536	-0.127171
C165	C	1.970584	0.439869	0.206162
C166	C	1.246163	-0.413646	-0.720496
C167	C	1.579496	-0.080312	-0.387163
C168	C	1.912829	0.253021	-0.053830
C169	C	1.246160	-0.413634	-0.786238
C170	C	1.579493	-0.080300	-0.452905
C171	C	1.912826	0.253033	-0.119572
C172	C	1.303823	-0.460858	-0.826065
C173	C	1.637156	-0.127525	-0.492731
C174	C	1.970490	0.205808	-0.159398
C175	C	1.361477	-0.508108	-0.800142
C176	C	1.694811	-0.174775	-0.466808
C177	C	2.028144	0.158558	-0.133475
C178	C	1.361473	-0.508123	-0.734400
C179	C	1.694806	-0.174789	-0.401066
C180	C	2.028139	0.158544	-0.067733
N181	N	1.382796	-0.475217	-0.938822
N182	N	1.716130	-0.141884	-0.605488
N183	N	2.049463	0.191449	-0.272155
N184	N	1.382798	-0.475200	-1.001273
N185	N	1.716132	-0.141866	-0.667940
N186	N	2.049465	0.191467	-0.334607
C187	C	1.303840	-0.460819	-1.024141
C188	C	1.637173	-0.127485	-0.690808
C189	C	1.970506	0.205848	-0.357475
N190	N	1.224877	-0.446443	-0.982198
N191	N	1.558210	-0.113110	-0.648865
N192	N	1.891544	0.220223	-0.315531
N193	N	1.224876	-0.446458	-0.919741
N194	N	1.558209	-0.113125	-0.586407
N195	N	1.891543	0.220209	-0.253074
C196	C	1.303834	-0.460848	-0.897351
C197	C	1.637167	-0.127515	-0.564018
C198	C	1.970501	0.205818	-0.230685
C199	C	1.246181	-0.413561	-1.121341
C200	C	1.579514	-0.080228	-0.788008
C201	C	1.912847	0.253106	-0.454675
C202	C	1.246176	-0.413553	-1.187085
C203	C	1.579509	-0.080220	-0.853751
C204	C	1.912843	0.253113	-0.520418
C205	C	1.361502	-0.508026	-1.200988
C206	C	1.694835	-0.174692	-0.867654
C207	C	2.028169	0.158641	-0.534321
C208	C	1.361499	-0.508036	-1.135245
C209	C	1.694832	-0.174702	-0.801911
C210	C	2.028165	0.158631	-0.468578
C211	C	1.303839	-0.460800	-1.095426
C212	C	1.637173	-0.127467	-0.762092
C213	C	1.970506	0.205866	-0.428759
C214	C	1.303694	-0.460922	-0.296856
C215	C	1.637027	-0.127589	0.036477
C216	C	1.970361	0.205744	0.369810
C217	C	1.303839	-0.460779	-0.226906
C218	C	1.637172	-0.127446	0.106427
C219	C	1.970506	0.205888	0.439761
H220	H	0.960294	-0.492535	-0.491906
H221	H	1.293627	-0.159202	-0.158573
H222	H	1.626960	0.174132	0.174760
H223	H	1.408350	-0.713199	-0.400018
H224	H	1.741683	-0.379866	-0.066685
H225	H	2.075016	-0.046533	0.266648
H226	H	0.904447	-0.533589	-0.532827
H227	H	1.237781	-0.200256	-0.199493
H228	H	1.571114	0.133078	0.133840
H229	H	0.789341	-0.325594	-0.325518
H230	H	1.122675	0.007739	0.007815
H231	H	1.456008	0.341072	0.341148
Cl232	Cl	0.627166	-0.328453	-0.328359
Cl233	Cl	0.960499	0.004880	0.004974
Cl234	Cl	1.293832	0.338214	0.338307
H235	H	1.199209	-0.375185	-0.688079
H236	H	1.532542	-0.041851	-0.354745
H237	H	1.865875	0.291482	-0.021412
H238	H	1.408421	-0.832474	-0.400052
H239	H	1.741755	-0.499141	-0.066719
H240	H	2.075088	-0.165807	0.266614
H241	H	0.818979	-0.596395	-0.595426
H242	H	1.152312	-0.263062	-0.262092
H243	H	1.485645	0.070272	0.071241
Cl244	Cl	1.173668	-0.354173	-1.219661
Cl245	Cl	1.507002	-0.020839	-0.886327
Cl246	Cl	1.840335	0.312494	-0.552994
Cl247	Cl	1.434122	-1.102593	-0.385376
Cl248	Cl	1.767455	-0.769259	-0.052043
Cl249	Cl	2.100789	-0.435926	0.281291
H250	H	1.199230	-0.375100	-1.088919
H251	H	1.532564	-0.041766	-0.755585
H252	H	1.865897	0.291567	-0.422252
Cl253	Cl	1.433984	-0.567425	-1.102664
Cl254	Cl	1.767317	-0.234092	-0.769331
Cl255	Cl	2.100651	0.099242	-0.435998
Cl256	Cl	1.433988	-0.567398	-1.251048
Cl257	Cl	1.767321	-0.234065	-0.917715
Cl258	Cl	2.100655	0.099269	-0.584381
H259	H	1.408645	-1.233339	-0.400156
H260	H	1.741979	-0.900005	-0.066823
H261	H	2.075312	-0.566672	0.266511
Cl262	Cl	0.627186	-0.591071	-0.590104
Cl263	Cl	0.960519	-0.257737	-0.256770
Cl264	Cl	1.293852	0.075596	0.076563
Cl265	Cl	0.520839	-0.406588	-0.406259
Cl266	Cl	0.854172	-0.073255	-0.072926
Cl267	Cl	1.187505	0.260079	0.260408
Cl268	Cl	0.981144	-0.330926	-0.330817
Cl269	Cl	1.314477	0.002408	0.002516
Cl270	Cl	1.647811	0.335741	0.335849
Cl271	Cl	1.433964	-0.567479	-0.850207
Cl272	Cl	1.767298	-0.234146	-0.516874
Cl273	Cl	2.100631	0.099188	-0.183541
Cl274	Cl	1.173412	-0.818644	-0.535490
Cl275	Cl	1.506745	-0.485310	-0.202157
Cl276	Cl	1.840078	-0.151977	0.131176
H277	H	1.198906	-0.687896	-0.520732
H278	H	1.532239	-0.354563	-0.187399
H279	H	1.865573	-0.021229	0.145934
Cl280	Cl	1.173699	-0.354228	-0.818828
Cl281	Cl	1.507032	-0.020895	-0.485495
Cl282	Cl	1.840366	0.312439	-0.152162
Cl283	Cl	1.173627	-1.219507	-0.535591
Cl284	Cl	1.506960	-0.886174	-0.202257
Cl285	Cl	1.840293	-0.552840	0.131076
H286	H	1.199117	-1.088762	-0.520821
H287	H	1.532450	-0.755428	-0.187488
H288	H	1.865783	-0.422095	0.145846
Cl289	Cl	1.433955	-0.567516	-0.701819
Cl290	Cl	1.767289	-0.234183	-0.368486
Cl291	Cl	2.100622	0.099150	-0.035152
