data_functionalizedCrystal
_audit_creation_method	'MofGen! by Chris Wilmer'
_symmetry_space_group_name_H-M	'P1'
_symmetry_Int_Tables_number	1
_symmetry_cell_setting	triclinic
loop_
_symmetry_equiv_pos_as_xyz
  x,y,z
_cell_length_a	9.798715
_cell_length_b	9.065218
_cell_length_c	9.065218
_cell_angle_alpha	94.984115
_cell_angle_beta	89.998697
_cell_angle_gamma	90.003772
loop_
_atom_site_label
_atom_site_type_symbol
_atom_site_fract_x
_atom_site_fract_y
_atom_site_fract_z
O1	O	-0.113488	-1.960400	0.216354
O2	O	0.219845	-1.627067	0.549687
O3	O	0.553178	-1.293733	0.883020
O4	O	-0.113490	-1.531115	0.234100
O5	O	0.219843	-1.197782	0.567433
O6	O	0.553177	-0.864449	0.900767
O7	O	-0.113486	-1.754631	0.010584
O8	O	0.219847	-1.421298	0.343918
O9	O	0.553180	-1.087964	0.677251
O10	O	-0.113492	-1.736884	0.439869
O11	O	0.219841	-1.403551	0.773203
O12	O	0.553175	-1.070218	1.106536
O13	O	0.113496	-1.754614	0.010584
O14	O	0.446829	-1.421281	0.343917
O15	O	0.780163	-1.087947	0.677250
O16	O	0.113492	-1.531098	0.234099
O17	O	0.446826	-1.197765	0.567433
O18	O	0.780159	-0.864432	0.900766
O19	O	0.113494	-1.960383	0.216353
O20	O	0.446827	-1.627050	0.549686
O21	O	0.780160	-1.293717	0.883020
Zn22	Zn	0.149531	-1.745738	0.225226
Zn23	Zn	0.482865	-1.412405	0.558559
Zn24	Zn	0.816198	-1.079072	0.891893
Zn25	Zn	-0.149527	-1.745760	0.225227
Zn26	Zn	0.183806	-1.412427	0.558560
Zn27	Zn	0.517139	-1.079094	0.891894
O28	O	0.113490	-1.736868	0.439869
O29	O	0.446824	-1.403534	0.773202
O30	O	0.780157	-1.070201	1.106535
C31	C	0.000001	-1.476120	0.232394
C32	C	0.333334	-1.142787	0.565727
C33	C	0.666668	-0.809454	0.899061
C34	C	0.000000	-1.312277	0.227294
C35	C	0.333334	-0.978944	0.560628
C36	C	0.666667	-0.645611	0.893961
N37	N	0.353631	-1.745734	0.225225
N38	N	0.686964	-1.412400	0.558558
N39	N	1.020298	-1.079067	0.891891
N40	N	-0.353627	-1.745776	0.225217
N41	N	-0.020294	-1.412443	0.558550
N42	N	0.313040	-1.079110	0.891883
C43	C	0.421409	-1.839580	0.130961
C44	C	0.754743	-1.506247	0.464294
C45	C	1.088076	-1.172913	0.797628
C46	C	0.578572	-1.839604	0.130956
C47	C	0.911905	-1.506270	0.464289
C48	C	1.245239	-1.172937	0.797623
C49	C	0.000003	-1.752917	-0.044403
C50	C	0.333336	-1.419584	0.288931
C51	C	0.666669	-1.086250	0.622264
C52	C	-0.000004	-1.747817	-0.208245
C53	C	0.333329	-1.414484	0.125088
C54	C	0.666663	-1.081151	0.458421
C55	C	-0.000000	-2.015378	0.218059
C56	C	0.333333	-1.682045	0.551392
C57	C	0.666667	-1.348712	0.884725
C58	C	-0.000008	-2.179221	0.223158
C59	C	0.333325	-1.845888	0.556492
C60	C	0.666658	-1.512555	0.889825
C61	C	-0.000002	-1.738582	0.494855
C62	C	0.333332	-1.405248	0.828189
C63	C	0.666665	-1.071915	1.161522
C64	C	-0.000004	-1.743681	0.658698
C65	C	0.333329	-1.410348	0.992032
C66	C	0.666663	-1.077015	1.325365
H67	H	0.363088	-1.919903	0.050255
H68	H	0.696421	-1.586570	0.383589
H69	H	1.029755	-1.253237	0.716922
Cl70	Cl	0.668556	-1.963665	0.006358
Cl71	Cl	1.001890	-1.630332	0.339692
Cl72	Cl	1.335223	-1.296998	0.673025
H73	H	0.588095	-1.665432	0.305929
H74	H	0.921429	-1.332099	0.639263
H75	H	1.254762	-0.998765	0.972596
Cl76	Cl	0.443668	-1.621700	0.349816
Cl77	Cl	0.777001	-1.288366	0.683150
Cl78	Cl	1.110335	-0.955033	1.016483
