data_functionalizedCrystal
_audit_creation_method	'MofGen! by Chris Wilmer'
_symmetry_space_group_name_H-M	'P1'
_symmetry_Int_Tables_number	1
_symmetry_cell_setting	triclinic
loop_
_symmetry_equiv_pos_as_xyz
  x,y,z
_cell_length_a	10.654550
_cell_length_b	19.188930
_cell_length_c	9.130313
_cell_angle_alpha	89.993647
_cell_angle_beta	89.996220
_cell_angle_gamma	83.814841
loop_
_atom_site_label
_atom_site_type_symbol
_atom_site_fract_x
_atom_site_fract_y
_atom_site_fract_z
O1	O	1.665759	0.098059	-0.121938
O2	O	1.300083	0.107401	-0.121916
O3	O	1.493474	0.001143	-0.121899
O4	O	1.472368	0.204317	-0.121955
O5	O	1.493471	0.001146	0.121700
O6	O	1.300081	0.107404	0.121682
O7	O	1.665757	0.098062	0.121661
Cu8	Cu	1.482918	0.102733	0.143914
Cu9	Cu	1.482921	0.102730	-0.144170
O10	O	1.472366	0.204320	0.121644
C11	C	1.253298	0.106717	-0.000114
C12	C	1.113898	0.104664	-0.000104
C13	C	1.492789	-0.024871	-0.000096
C14	C	1.490737	-0.102389	-0.000083
C15	C	1.033089	0.167227	-0.000143
C16	C	0.902109	0.165295	-0.000168
C17	C	0.932761	0.038231	-0.000121
C18	C	1.063738	0.040164	-0.000086
C19	C	1.015391	0.240587	-0.000176
C20	C	0.884411	0.238654	-0.000201
C21	C	1.604213	-0.146570	-0.000083
C22	C	1.602285	-0.219407	-0.000106
C23	C	1.486876	-0.248058	-0.000100
C24	C	1.373386	-0.203867	-0.000109
C25	C	1.375316	-0.131032	-0.000100
N26	N	1.398658	-0.356639	0.082806
N27	N	1.396832	-0.425830	0.082801
C28	C	1.481052	-0.467505	-0.000129
N29	N	1.567186	-0.437377	-0.083037
N30	N	1.569016	-0.368180	-0.083025
C31	C	1.484770	-0.327034	-0.000110
C32	C	1.592445	-0.590665	-0.000157
C33	C	1.590513	-0.663502	-0.000189
C34	C	1.361610	-0.647960	-0.000177
C35	C	1.363545	-0.575125	-0.000159
C36	C	1.478966	-0.546481	-0.000142
C37	C	1.712541	0.098746	-0.000145
C38	C	1.851941	0.100798	-0.000164
C39	C	1.473051	0.230334	-0.000163
C40	C	1.475102	0.307852	-0.000186
N41	N	1.482926	0.102735	0.346537
N42	N	1.482924	0.102722	-0.346792
C43	C	1.568581	0.055700	0.423196
C44	C	1.568577	0.055692	0.576533
C45	C	1.397260	0.149759	0.576537
C46	C	1.397258	0.149764	0.423203
C47	C	1.667493	0.001393	0.423195
C48	C	1.667490	0.001385	0.576532
H49	H	0.891904	-0.014283	-0.000129
C50	C	1.628065	-0.066236	0.639745
C51	C	1.505903	-0.075161	0.592155
C52	C	1.469561	-0.137451	0.650334
H53	H	1.629308	-0.063995	0.743658
H54	H	1.685031	-0.104684	0.607554
H55	H	1.448952	-0.036723	0.624355
H56	H	1.504628	-0.077415	0.488251
H57	H	1.526528	-0.175899	0.618143
H58	H	1.470812	-0.135204	0.754245
H59	H	1.386677	-0.143518	0.618043
H60	H	1.686428	-0.567342	-0.000149
H61	H	1.271141	-0.539151	-0.000151
C62	C	1.252011	-0.083141	-0.000318
C63	C	1.182482	-0.096169	-0.125627
C64	C	1.068879	-0.052071	-0.125865
H65	H	1.269511	-0.035638	-0.000383
H66	H	1.204599	-0.091904	0.084585
H67	H	1.229885	-0.087401	-0.210509
H68	H	1.164949	-0.143664	-0.125589
H69	H	1.021467	-0.060834	-0.040962
H70	H	1.086392	-0.004571	-0.125927
H71	H	1.021685	-0.060909	-0.210878
H72	H	1.763748	0.013347	0.618139
C73	C	1.053460	0.278831	0.135876
C74	C	0.945803	0.300293	0.219063
C75	C	0.980825	0.335515	0.344410
H76	H	1.093368	0.318708	0.107751
H77	H	1.110327	0.248280	0.192617
H78	H	0.888957	0.330843	0.162332
H79	H	0.905882	0.260431	0.247225
H80	H	1.037692	0.304964	0.401151
H81	H	1.020734	0.375388	0.316271
H82	H	0.907788	0.350076	0.400874
H83	H	1.647186	-0.052270	0.381591
C84	C	1.788712	0.024046	0.360033
C85	C	1.869014	0.039055	0.474491
C86	C	1.980696	0.059917	0.416361
H87	H	1.769506	0.064721	0.301491
H88	H	1.829220	-0.012670	0.301518
H89	H	1.828513	0.075767	0.532982
H90	H	1.888255	-0.001611	0.533043
H91	H	2.021205	0.023202	0.357846
H92	H	1.961477	0.100591	0.357820
H93	H	2.035199	0.070098	0.494011
H94	H	1.050553	0.263945	-0.105354
C95	C	1.304114	0.200848	0.659514
C96	C	1.229079	0.242029	0.559554
C97	C	1.143246	0.289094	0.635934
H98	H	1.348968	0.230211	0.719336
H99	H	1.251915	0.175473	0.719298
H100	H	1.281272	0.267402	0.499795
H101	H	1.184198	0.212686	0.499729
H102	H	1.091047	0.263718	0.695718
H103	H	1.188110	0.318451	0.695753
H104	H	1.092317	0.317036	0.568124
H105	H	1.129530	-0.010781	-0.000034
H106	H	0.842095	0.266294	-0.102162
H107	H	0.838270	0.260826	0.104961
H108	H	1.327501	0.188057	0.360788
H109	H	1.698197	-0.123254	-0.000074
C110	C	1.247991	-0.234874	0.000125
C111	C	1.179393	-0.212463	0.125433
C112	C	1.063862	-0.241004	0.125679
H113	H	1.262911	-0.284579	0.000199
H114	H	1.201220	-0.219720	-0.084779
H115	H	1.226154	-0.227621	0.210315
H116	H	1.164438	-0.162762	0.125386
H117	H	1.017091	-0.225849	0.040775
H118	H	1.078795	-0.290707	0.125748
H119	H	1.017300	-0.225797	0.210691
H120	H	1.694693	-0.255386	-0.000112
H121	H	1.682922	-0.699475	-0.000197
H122	H	1.267641	-0.671287	-0.000180
