data_functionalizedCrystal
_audit_creation_method	'MofGen! by Chris Wilmer'
_symmetry_space_group_name_H-M	'P1'
_symmetry_Int_Tables_number	1
_symmetry_cell_setting	triclinic
loop_
_symmetry_equiv_pos_as_xyz
  x,y,z
_cell_length_a	12.759401
_cell_length_b	16.120444
_cell_length_c	12.759393
_cell_angle_alpha	92.863572
_cell_angle_beta	89.981298
_cell_angle_gamma	92.925534
loop_
_atom_site_label
_atom_site_type_symbol
_atom_site_fract_x
_atom_site_fract_y
_atom_site_fract_z
Zn1	Zn	1.584962	-0.331878	-0.615159
Zn2	Zn	1.575911	-0.471316	-0.448375
Zn3	Zn	1.409262	-0.331919	-0.439501
Zn4	Zn	1.400311	-0.471249	-0.624011
O5	O	1.492611	-0.401590	-0.531762
O6	O	1.730782	-0.350385	-0.593044
O7	O	1.553762	-0.452870	-0.300179
O8	O	1.440103	-0.215248	-0.455384
O9	O	1.724132	-0.452830	-0.470508
O10	O	1.569189	-0.215217	-0.584440
O11	O	1.431326	-0.350455	-0.293660
O12	O	1.261054	-0.350390	-0.463967
O13	O	1.424848	-0.452716	-0.769855
O14	O	1.254478	-0.452756	-0.599526
O15	O	1.560510	-0.350320	-0.763352
O16	O	1.545083	-0.587973	-0.479091
O17	O	1.416071	-0.587923	-0.608131
C18	C	1.219645	-0.401571	-0.531745
C19	C	1.102868	-0.401583	-0.531764
C20	C	1.478652	-0.618198	-0.545557
C21	C	1.472776	-0.710864	-0.551495
C22	C	0.941725	-0.348355	-0.595687
C23	C	1.051450	-0.348339	-0.595679
C24	C	1.044555	-0.454852	-0.467861
C25	C	0.934831	-0.454872	-0.467875
C26	C	1.203361	-0.318640	-0.717737
C27	C	1.261671	-0.265363	-0.781627
C28	C	1.231286	-0.184037	-0.792751
C29	C	1.142595	-0.155970	-0.739968
C30	C	1.084291	-0.209242	-0.676069
C31	C	1.114673	-0.290580	-0.664966
C32	C	0.782918	-0.484562	-0.345815
C33	C	0.724613	-0.537831	-0.281911
C34	C	0.754995	-0.619159	-0.270776
C35	C	0.843690	-0.647223	-0.323540
C36	C	0.901996	-0.593954	-0.387445
C37	C	0.871606	-0.512627	-0.398581
C38	C	1.523350	-0.921810	-0.501189
C39	C	1.462068	-0.880520	-0.562345
C40	C	1.468028	-0.786114	-0.556306
C41	C	1.517391	-1.016223	-0.507226
C42	C	1.766643	-0.401610	-0.531779
C43	C	1.883419	-0.401619	-0.531786
C44	C	1.492690	-0.401506	-0.805790
C45	C	1.492724	-0.401470	-0.922564
C46	C	1.506654	-0.184137	-0.517935
C47	C	1.512638	-0.091471	-0.512042
C48	C	1.428996	-0.348133	-0.974030
C49	C	1.429022	-0.348107	-1.083753
C50	C	1.556513	-0.454758	-1.090533
C51	C	1.556480	-0.454787	-0.980813
C52	C	1.307086	-0.318269	-1.231802
C53	C	1.243368	-0.264919	-1.283271
C54	C	1.232483	-0.183579	-1.242492
C55	C	1.285331	-0.155572	-1.150246
C56	C	1.349057	-0.208918	-1.098782
C57	C	1.359922	-0.290269	-1.139560
C58	C	1.678418	-0.484617	-0.832762
C59	C	1.742150	-0.537959	-0.781296
C60	C	1.753047	-0.619301	-0.822072
C61	C	1.700217	-0.647304	-0.914322
C62	C	1.636485	-0.593962	-0.965788
C63	C	1.625587	-0.512622	-0.925004
C64	C	1.492597	-0.401614	-0.258796
C65	C	1.492782	-0.401415	-0.142007
H66	H	1.011981	-0.186434	-0.633230
H67	H	1.086428	-0.498207	-0.415825
H68	H	0.868431	-0.713446	-0.314471
N69	N	1.711320	-0.730394	-0.955989
N70	N	1.664141	-0.755387	-1.038352
H71	H	1.671985	-0.814070	-1.067779
N72	N	1.111586	-0.072886	-0.751326
N73	N	1.163654	-0.025330	-0.808378
H74	H	1.141752	0.033350	-0.816402
H75	H	1.405126	-0.916071	-0.619239
N76	N	1.234401	-0.401719	-0.706405
N77	N	1.313590	-0.426760	-0.753533
H78	H	1.335517	-0.485436	-0.745531
H79	H	0.899869	-0.304993	-0.647727
N80	N	1.290862	-0.129624	-0.858010
N81	N	1.370049	-0.154688	-0.905121
H82	H	1.412128	-0.116263	-0.951214
N83	N	1.796110	-0.509227	-0.687110
N84	N	1.778745	-0.545002	-0.603701
H85	H	1.816855	-0.524662	-0.537203
H86	H	1.608422	-0.498166	-1.137973
H87	H	1.580287	-0.886262	-0.444298
H88	H	1.593469	-0.616769	-1.040905
N89	N	0.634003	-0.509183	-0.228011
N90	N	0.581954	-0.556751	-0.170960
H91	H	0.517959	-0.536521	-0.132895
H92	H	1.804953	-0.662728	-0.780164
N93	N	1.363872	-0.293664	-0.914545
N94	N	1.306980	-0.246044	-0.960516
H95	H	1.260984	-0.207572	-0.918508
N96	N	0.992600	-0.622629	-0.441331
N97	N	1.019725	-0.695244	-0.431379
H98	H	1.083715	-0.715496	-0.469433
N99	N	1.403096	-0.180363	-1.004578
N100	N	1.501032	-0.179644	-1.000820
H101	H	1.539212	-0.159489	-0.934288
H102	H	1.276473	-0.089333	-1.117057
N103	N	1.167400	-0.129091	-1.295081
N104	N	1.120230	-0.154101	-1.377443
H105	H	1.074262	-0.115624	-1.414588
N106	N	0.695441	-0.673556	-0.205473
N107	N	0.616264	-0.648489	-0.158346
H108	H	0.574208	-0.686906	-0.112224
N109	N	1.189396	-0.293537	-1.377495
N110	N	1.199110	-0.366171	-1.413891
H111	H	1.160996	-0.386379	-1.480439
H112	H	1.315930	-0.384506	-1.265005
H113	H	1.669522	-0.418391	-0.799532
H114	H	0.758170	-0.418339	-0.354879
N115	N	1.352263	-0.294042	-0.835532
N116	N	1.379377	-0.366664	-0.825605
H117	H	1.443360	-0.386915	-0.863672
