data_functionalizedCrystal
_audit_creation_method	'MofGen! by Chris Wilmer'
_symmetry_space_group_name_H-M	'P1'
_symmetry_Int_Tables_number	1
_symmetry_cell_setting	triclinic
loop_
_symmetry_equiv_pos_as_xyz
  x,y,z
_cell_length_a	16.625548
_cell_length_b	10.686285
_cell_length_c	10.685880
_cell_angle_alpha	90.361115
_cell_angle_beta	94.396574
_cell_angle_gamma	85.632645
loop_
_atom_site_label
_atom_site_type_symbol
_atom_site_fract_x
_atom_site_fract_y
_atom_site_fract_z
Zn1	Zn	-1.292816	0.553669	-0.671108
Zn2	Zn	-1.291179	0.747406	-0.445280
Zn3	Zn	-1.146907	0.537664	-0.461348
Zn4	Zn	-1.167475	0.763384	-0.654995
O5	O	-1.224594	0.650531	-0.558183
O6	O	-1.405433	0.579380	-0.641170
O7	O	-1.262748	0.706199	-0.271860
O8	O	-1.158340	0.364242	-0.502641
O9	O	-1.404230	0.721718	-0.475255
O10	O	-1.265539	0.376001	-0.656751
O11	O	-1.156753	0.552102	-0.283665
O12	O	-1.036802	0.567594	-0.487018
O13	O	-1.193394	0.748949	-0.832684
O14	O	-1.051912	0.733430	-0.629289
O15	O	-1.285482	0.594873	-0.844522
O16	O	-1.282691	0.925070	-0.459631
O17	O	-1.191806	0.936809	-0.613708
C18	C	-1.015101	0.650510	-0.558149
C19	C	-0.925481	0.650534	-0.558162
C20	C	-1.239326	0.976458	-0.533205
C21	C	-1.245705	1.115895	-0.522561
C22	C	-1.434906	0.650552	-0.558217
C23	C	-1.524528	0.650561	-0.558232
C24	C	-0.597309	0.650546	-0.558215
C25	C	-0.688616	0.650539	-0.558197
C26	C	-0.761392	0.650540	-0.558188
C27	C	-0.852705	0.650532	-0.558171
C28	C	-1.241915	0.675479	-0.885395
C29	C	-1.249295	0.686110	-1.024833
C30	C	-1.209828	0.323332	-0.583286
C31	C	-1.203535	0.183900	-0.593983
C32	C	-1.207383	0.625589	-0.232251
C33	C	-1.200143	0.614604	-0.092841
H34	H	-1.286684	1.164351	-0.453257
C35	C	-1.135656	0.520908	-1.027398
C36	C	-1.128108	0.510043	-0.883278
C37	C	-1.063620	0.416345	-0.817826
C38	C	-1.006680	0.333511	-0.896495
C39	C	-1.014227	0.344373	-1.040623
C40	C	-1.078714	0.438071	-1.106075
H41	H	-1.170260	0.571364	-0.825035
H42	H	-1.058034	0.408305	-0.711132
H43	H	-0.958943	0.264150	-0.848044
H44	H	-0.972075	0.283052	-1.098866
H45	H	-1.084300	0.446112	-1.212769
C46	C	-1.148173	1.118457	-0.687603
C47	C	-1.056781	1.135681	-0.675874
C48	C	-1.001418	1.070229	-0.769496
C49	C	-1.037447	0.987552	-0.874846
C50	C	-1.128843	0.970324	-0.886579
C51	C	-1.184206	1.035776	-0.792958
H52	H	-1.030106	1.196886	-0.597884
H53	H	-0.933760	1.082982	-0.760810
H54	H	-0.996463	0.939100	-0.944150
H55	H	-1.155518	0.909119	-0.964570
H56	H	-1.251864	1.023023	-0.801644
C57	C	-1.313786	0.779812	-1.090280
C58	C	-1.288011	0.885088	-1.172835
C59	C	-1.352499	0.978787	-1.238282
C60	C	-1.442763	0.967211	-1.221175
C61	C	-1.468542	0.861930	-1.138617
C62	C	-1.404054	0.768231	-1.073170
H63	H	-1.221188	0.893661	-1.185501
H64	H	-1.333415	1.056723	-1.299397
H65	H	-1.490501	1.036573	-1.269623
H66	H	-1.535365	0.853357	-1.125950
H67	H	-1.423138	0.690295	-1.012055
