data_functionalizedCrystal
_audit_creation_method	'MofGen! by Chris Wilmer'
_symmetry_space_group_name_H-M	'P1'
_symmetry_Int_Tables_number	1
_symmetry_cell_setting	triclinic
loop_
_symmetry_equiv_pos_as_xyz
  x,y,z
_cell_length_a	15.944556
_cell_length_b	14.519710
_cell_length_c	13.596369
_cell_angle_alpha	89.995619
_cell_angle_beta	90.017613
_cell_angle_gamma	96.409243
loop_
_atom_site_label
_atom_site_type_symbol
_atom_site_fract_x
_atom_site_fract_y
_atom_site_fract_z
O1	O	-0.110109	1.223679	-0.081796
O2	O	-0.123075	0.955179	-0.081806
O3	O	0.005672	1.096758	-0.081765
O4	O	-0.238856	1.082100	-0.081837
O5	O	0.005679	1.096744	0.081818
O6	O	-0.123068	0.955165	0.081777
O7	O	-0.110102	1.223665	0.081787
Zn8	Zn	-0.116584	1.089413	0.107754
Zn9	Zn	-0.116593	1.089431	-0.107773
O10	O	-0.238849	1.082086	0.081746
C11	C	0.036970	1.096141	0.000033
C12	C	0.130218	1.094314	0.000054
C13	C	-0.122467	0.920814	-0.000015
C14	C	-0.120657	0.818435	-0.000017
C15	C	-0.110710	1.258030	-0.000006
C16	C	-0.112520	1.360408	-0.000011
C17	C	0.400985	1.001093	0.000084
C18	C	0.350331	1.046040	-0.080580
C19	C	0.465870	1.087797	0.000091
C20	C	0.350365	1.046049	0.080700
C21	C	0.300953	1.090994	0.000075
C22	C	0.416444	1.132720	-0.080639
C23	C	0.416482	1.132717	0.080713
C24	C	0.365861	1.177727	0.000030
C25	C	0.560874	1.085952	0.000100
C26	C	0.205951	1.092845	0.000059
C27	C	0.729851	1.082690	-0.000005
C28	C	0.636599	1.084480	0.000113
N29	N	-0.116577	1.089407	0.254846
C30	C	-0.119187	1.735293	-0.000013
C31	C	-0.117336	1.630988	-0.000013
C32	C	-0.115854	1.547854	-0.000013
C33	C	-0.114002	1.443543	-0.000011
N34	N	-0.116593	1.089444	-0.254865
C35	C	-0.116594	1.089430	0.656137
C36	C	-0.116592	1.089421	0.544486
C37	C	-0.116586	1.089419	0.455495
C38	C	-0.116583	1.089409	0.343837
H39	H	0.416746	0.926419	0.000007
O40	O	0.316033	1.002222	0.162019
C41	C	0.333559	0.909168	0.161701
H42	H	0.391635	0.902473	0.114482
H43	H	0.345992	0.886480	0.240140
H44	H	0.277224	0.863304	0.130225
O45	O	0.347149	1.266844	-0.000151
C46	C	0.299195	1.282312	-0.084497
H47	H	0.266414	1.213423	-0.112277
H48	H	0.249798	1.330374	-0.065119
H49	H	0.342596	1.315646	-0.144296
H50	H	0.321447	1.009428	-0.148775
H51	H	0.445381	1.169296	0.148911
H52	H	0.445194	1.169316	-0.148896
