data_functionalizedCrystal
_audit_creation_method	'MofGen! by Chris Wilmer'
_symmetry_space_group_name_H-M	'P1'
_symmetry_Int_Tables_number	1
_symmetry_cell_setting	triclinic
loop_
_symmetry_equiv_pos_as_xyz
  x,y,z
_cell_length_a	17.699083
_cell_length_b	14.853567
_cell_length_c	16.776229
_cell_angle_alpha	89.997147
_cell_angle_beta	89.998886
_cell_angle_gamma	83.458972
loop_
_atom_site_label
_atom_site_type_symbol
_atom_site_fract_x
_atom_site_fract_y
_atom_site_fract_z
O1	O	1.004374	0.114008	-0.066170
O2	O	0.784034	0.128841	-0.066195
O3	O	0.900090	-0.009827	-0.066184
O4	O	0.888319	0.252676	-0.066181
O5	O	0.900075	-0.009835	0.066392
O6	O	0.784019	0.128832	0.066381
O7	O	1.004359	0.114000	0.066407
Zn8	Zn	0.894187	0.121415	0.087443
Zn9	Zn	0.894207	0.121426	-0.087232
O10	O	0.888303	0.252667	0.066396
C11	C	0.755828	0.128305	0.000090
C12	C	0.671806	0.126711	0.000080
C13	C	0.623396	0.208106	0.000081
C14	C	0.544449	0.206602	0.000092
C15	C	0.513913	0.123703	0.000095
C16	C	0.562329	0.042301	0.000096
C17	C	0.641275	0.043806	0.000091
C18	C	0.243950	0.036232	0.000116
C19	C	0.164999	0.034734	0.000118
C20	C	0.147125	0.199028	0.000116
C21	C	0.226070	0.200533	0.000111
C22	C	0.274479	0.119132	0.000116
C23	C	0.360083	0.120763	0.000107
C24	C	0.428311	0.122070	0.000099
C25	C	0.899549	-0.043418	0.000102
C26	C	0.897951	-0.143496	0.000095
C27	C	0.822255	-0.555751	0.000101
C28	C	0.960131	-0.577539	0.000117
C29	C	0.961634	-0.483511	0.000112
C30	C	0.893446	-0.425598	0.000103
C31	C	0.823756	-0.461714	0.000099
C32	C	1.031324	-0.447389	0.000125
C33	C	1.032829	-0.353355	0.000121
C34	C	0.964641	-0.295441	0.000107
C35	C	0.894947	-0.331561	0.000101
C36	C	0.826759	-0.273648	0.000092
C37	C	0.757065	-0.309767	0.000081
C38	C	0.755567	-0.403799	0.000084
C39	C	0.966139	-0.201409	0.000104
C40	C	0.828260	-0.179611	0.000090
C41	C	1.032565	0.114535	0.000120
C42	C	1.116587	0.116130	0.000125
C43	C	0.888844	0.286258	0.000108
C44	C	0.890443	0.386336	0.000110
N45	N	0.894178	0.121406	0.206655
N46	N	0.894221	0.121427	-0.206443
C47	C	0.945583	0.060029	0.248377
C48	C	0.945587	0.060029	0.331829
C49	C	0.894190	0.121410	0.373558
C50	C	0.842779	0.182790	0.331830
C51	C	0.842772	0.182786	0.248379
C52	C	0.842806	0.182808	0.668377
C53	C	0.842819	0.182809	0.751834
C54	C	0.945622	0.060051	0.751827
C55	C	0.945615	0.060046	0.668376
C56	C	0.894202	0.121423	0.626656
C57	C	0.894197	0.121422	0.536167
C58	C	0.894198	0.121416	0.464044
H59	H	0.772732	-0.132463	0.000079
O60	O	0.787392	0.249029	0.796846
H61	H	0.751640	0.291708	0.753817
H62	H	1.089579	-0.323956	0.000129
O63	O	0.132065	-0.054687	0.000128
H64	H	0.069037	-0.042054	0.000122
O65	O	0.656326	0.297522	0.000087
H66	H	0.636879	0.336637	-0.053942
H67	H	0.283356	-0.030050	0.000121
O68	O	0.529393	-0.047112	0.000105
H69	H	0.576321	-0.103458	0.000112
H70	H	0.987445	0.010050	0.365798
O71	O	1.041298	-0.162447	0.000110
H72	H	1.088461	-0.218515	0.000114
O73	O	1.001046	-0.006161	0.623366
H74	H	1.036787	-0.048849	0.666399
O75	O	1.001070	-0.006153	0.796832
H76	H	1.060077	0.005260	0.780812
H77	H	0.765511	-0.585163	0.000089
H78	H	0.800946	0.232784	0.634415
O79	O	0.094906	0.286825	0.000124
H80	H	0.105762	0.326505	-0.053917
H81	H	0.680690	-0.022475	0.000090
O82	O	1.033672	-0.640002	0.000132
H83	H	1.082384	-0.599089	0.000141
H84	H	0.701546	-0.262602	0.000080
O85	O	0.492233	0.294392	0.000093
H86	H	0.526729	0.352289	0.000081
H87	H	0.698825	-0.433216	0.000076
H88	H	0.987440	0.010050	0.214407
H89	H	0.800912	0.232764	0.214410
H90	H	1.086839	-0.494548	0.000140
O91	O	0.787346	0.249004	0.376832
H92	H	0.750530	0.211117	0.414869
O93	O	0.259008	0.289945	0.000119
H94	H	0.212082	0.346293	0.000133
