data_functionalizedCrystal
_audit_creation_method	'MofGen! by Chris Wilmer'
_symmetry_space_group_name_H-M	'P1'
_symmetry_Int_Tables_number	1
_symmetry_cell_setting	triclinic
loop_
_symmetry_equiv_pos_as_xyz
  x,y,z
_cell_length_a	19.188925
_cell_length_b	19.188930
_cell_length_c	15.021413
_cell_angle_alpha	89.998889
_cell_angle_beta	89.991764
_cell_angle_gamma	83.143665
loop_
_atom_site_label
_atom_site_type_symbol
_atom_site_fract_x
_atom_site_fract_y
_atom_site_fract_z
O1	O	0.926151	0.087140	-0.074061
O2	O	1.259484	0.420473	0.259272
O3	O	1.592818	0.753807	0.592606
O4	O	0.722839	0.098878	-0.074060
O5	O	1.056173	0.432212	0.259273
O6	O	1.389506	0.765545	0.592607
O7	O	0.830362	-0.008647	-0.074043
O8	O	1.163696	0.324687	0.259290
O9	O	1.497029	0.658020	0.592623
O10	O	0.818628	0.194665	-0.074078
O11	O	1.151961	0.527998	0.259255
O12	O	1.485295	0.861332	0.592589
O13	O	0.830345	-0.008631	0.074021
O14	O	1.163679	0.324702	0.407354
O15	O	1.497012	0.658036	0.740688
O16	O	0.722822	0.098894	0.074004
O17	O	1.056156	0.432227	0.407337
O18	O	1.389489	0.765560	0.740671
O19	O	0.926134	0.087155	0.074003
O20	O	1.259467	0.420489	0.407336
O21	O	1.592801	0.753822	0.740670
Zn22	Zn	0.824475	0.093027	0.097512
Zn23	Zn	1.157809	0.426360	0.430845
Zn24	Zn	1.491142	0.759694	0.764179
Zn25	Zn	0.824498	0.093007	-0.097569
Zn26	Zn	1.157831	0.426340	0.235764
Zn27	Zn	1.491165	0.759673	0.569098
O28	O	0.818611	0.194680	0.073986
O29	O	1.151944	0.528014	0.407320
O30	O	1.485278	0.861347	0.740653
C31	C	0.696820	0.098507	-0.000028
C32	C	1.030153	0.431840	0.333306
C33	C	1.363486	0.765173	0.666639
C34	C	0.619315	0.097367	-0.000026
C35	C	0.952648	0.430701	0.333307
C36	C	1.285982	0.764034	0.666640
C37	C	0.057545	0.152831	-0.000038
C38	C	0.390878	0.486165	0.333295
C39	C	0.724211	0.819498	0.666629
C40	C	0.130368	0.153908	-0.000043
C41	C	0.463701	0.487241	0.333290
C42	C	0.797035	0.820575	0.666624
C43	C	0.175302	0.090816	-0.000031
C44	C	0.508636	0.424149	0.333303
C45	C	0.841969	0.757482	0.666636
C46	C	0.147408	0.026642	-0.000036
C47	C	0.480742	0.359976	0.333297
C48	C	0.814075	0.693309	0.666631
C49	C	0.074586	0.025568	-0.000040
C50	C	0.407920	0.358901	0.333293
C51	C	0.741253	0.692234	0.666627
N52	N	0.295974	0.045145	0.050379
N53	N	0.629307	0.378478	0.383713
N54	N	0.962640	0.711811	0.717046
N55	N	0.365151	0.046170	0.050385
N56	N	0.698484	0.379503	0.383718
N57	N	1.031818	0.712837	0.717052
C58	C	0.394712	0.094050	-0.000021
C59	C	0.728045	0.427383	0.333313
C60	C	1.061378	0.760716	0.666646
N61	N	0.352480	0.140876	-0.050421
N62	N	0.685813	0.474210	0.282912
N63	N	1.019147	0.807543	0.616246
N64	N	0.283296	0.139853	-0.050423
N65	N	0.616629	0.473186	0.282911
N66	N	0.949963	0.806520	0.616244
C67	C	0.254267	0.091974	-0.000027
C68	C	0.587600	0.425307	0.333306
C69	C	0.920933	0.758641	0.666640
C70	C	0.501561	0.159386	-0.000027
C71	C	0.834894	0.492720	0.333307
C72	C	1.168227	0.826053	0.666640
C73	C	0.574385	0.160460	-0.000037
C74	C	0.907719	0.493794	0.333296
C75	C	1.241052	0.827127	0.666629
C76	C	0.591425	0.033193	-0.000021
C77	C	0.924758	0.366526	0.333312
C78	C	1.258091	0.699859	0.666645
C79	C	0.518601	0.032121	-0.000020
C80	C	0.851934	0.365454	0.333313
C81	C	1.185268	0.698787	0.666647
C82	C	0.473673	0.095220	-0.000018
C83	C	0.807006	0.428553	0.333315
C84	C	1.140340	0.761886	0.666648
C85	C	0.829974	-0.034650	-0.000009
C86	C	1.163307	0.298683	0.333325
C87	C	1.496640	0.632017	0.666658
C88	C	0.828833	-0.112154	-0.000001
C89	C	1.162166	0.221179	0.333332
C90	C	1.495500	0.554512	0.666666
C91	C	0.891924	-0.157079	0.000003
C92	C	1.225257	0.176254	0.333336
C93	C	1.558591	0.509587	0.666670
C94	C	0.890852	-0.229903	-0.000011
C95	C	1.224186	0.103430	0.333322
C96	C	1.557519	0.436763	0.666655
C97	C	0.826686	-0.257799	-0.000012
C98	C	1.160020	0.075535	0.333322
C99	C	1.493353	0.408868	0.666655
C100	C	0.763587	-0.212864	-0.000021
C101	C	1.096920	0.120470	0.333313
C102	C	1.430254	0.453803	0.666646
C103	C	0.764660	-0.140041	-0.000015
C104	C	1.097994	0.193292	0.333318
C105	C	1.431327	0.526625	0.666651
N106	N	0.777633	-0.365797	0.050378
N107	N	1.110966	-0.032464	0.383711
N108	N	1.444300	0.300869	0.717044
N109	N	0.776617	-0.434976	0.050375
N110	N	1.109951	-0.101643	0.383708
N111	N	1.443284	0.231691	0.717041
C112	C	0.823448	-0.477207	-0.000030
C113	C	1.156781	-0.143874	0.333304
C114	C	1.490115	0.189459	0.666637
N115	N	0.871343	-0.447648	-0.050419
N116	N	1.204676	-0.114315	0.282914
N117	N	1.538010	0.219019	0.616247
N118	N	0.872361	-0.378463	-0.050412
N119	N	1.205694	-0.045130	0.282921
N120	N	1.539027	0.288203	0.616255
C121	C	0.825515	-0.336761	-0.000018
C122	C	1.158848	-0.003428	0.333315
C123	C	1.492182	0.329906	0.666649
C124	C	0.885381	-0.601097	-0.000042
C125	C	1.218715	-0.267763	0.333291
C126	C	1.552048	0.065570	0.666624
C127	C	0.884307	-0.673922	-0.000062
C128	C	1.217640	-0.340588	0.333271
C129	C	1.550974	-0.007255	0.666605
C130	C	0.757040	-0.656880	-0.000062
C131	C	1.090373	-0.323547	0.333271
C132	C	1.423706	0.009786	0.666604
C133	C	0.758116	-0.584057	-0.000052
C134	C	1.091449	-0.250724	0.333282
C135	C	1.424783	0.082610	0.666615
C136	C	0.822289	-0.556170	-0.000037
C137	C	1.155622	-0.222837	0.333296
C138	C	1.488955	0.110497	0.666629
C139	C	0.952154	0.087527	-0.000031
C140	C	1.285487	0.420861	0.333302
C141	C	1.618820	0.754194	0.666635
C142	C	1.029658	0.088666	-0.000038
C143	C	1.362992	0.422000	0.333295
C144	C	1.696325	0.755333	0.666628
C145	C	0.819000	0.220684	-0.000050
C146	C	1.152333	0.554017	0.333283
C147	C	1.485666	0.887350	0.666616
C148	C	0.820140	0.298188	-0.000064
C149	C	1.153474	0.631522	0.333269
C150	C	1.486807	0.964855	0.666603
N151	N	0.824465	0.093040	0.230650
N152	N	1.157798	0.426374	0.563983
N153	N	1.491132	0.759707	0.897316
N154	N	0.824514	0.092988	-0.230707
N155	N	1.157847	0.426321	0.102627
N156	N	1.491180	0.759655	0.435960
C157	C	0.774739	0.142737	0.470325
C158	C	1.108072	0.476070	0.803658
C159	C	1.441406	0.809403	1.136992
C160	C	0.837788	0.156094	0.529656
C161	C	1.171121	0.489427	0.862990
C162	C	1.504454	0.822761	1.196323
C163	C	0.824483	0.093023	0.412256
C164	C	1.157816	0.426356	0.745590
C165	C	1.491150	0.759690	1.078923
C166	C	0.761451	0.079681	0.529667
C167	C	1.094785	0.413014	0.863000
C168	C	1.428118	0.746348	1.196334
C169	C	0.824495	0.093008	0.587681
C170	C	1.157828	0.426341	0.921014
C171	C	1.491161	0.759674	1.254347
C172	C	0.887563	0.106412	0.470281
C173	C	1.220897	0.439745	0.803615
C174	C	1.554230	0.773078	1.136948
C175	C	0.811186	0.029971	0.470287
C176	C	1.144519	0.363305	0.803620
C177	C	1.477853	0.696638	1.136953
C178	C	0.874280	0.043302	0.529591
C179	C	1.207614	0.376635	0.862925
C180	C	1.540947	0.709968	1.196258
C181	C	0.824475	0.093034	0.311199
C182	C	1.157809	0.426367	0.644532
C183	C	1.491142	0.759700	0.977866
C184	C	0.824510	0.092996	0.688736
C185	C	1.157843	0.426330	1.022069
C186	C	1.491176	0.759663	1.355402
H187	H	0.597088	0.212713	-0.000044
H188	H	0.930421	0.546046	0.333289
H189	H	1.263755	0.879380	0.666622
Br190	Br	0.208389	-0.058984	-0.000027
Br191	Br	0.541722	0.274350	0.333306
Br192	Br	0.875055	0.607683	0.666640
H193	H	0.628010	-0.018178	-0.000018
H194	H	0.961343	0.315155	0.333315
H195	H	1.294676	0.648489	0.666648
Br196	Br	0.669955	-0.694730	-0.000072
Br197	Br	1.003288	-0.361397	0.333262
Br198	Br	1.336622	-0.028063	0.666595
Br199	Br	0.480752	-0.054965	-0.000028
Br200	Br	0.814085	0.278368	0.333305
Br201	Br	1.147419	0.611701	0.666639
Br202	Br	0.440583	0.245018	-0.000025
Br203	Br	0.773916	0.578351	0.333308
Br204	Br	1.107250	0.911684	0.666641
Br205	Br	0.672487	-0.523083	-0.000056
Br206	Br	1.005821	-0.189750	0.333277
Br207	Br	1.339154	0.143584	0.666611
Br208	Br	0.036738	-0.061520	-0.000046
Br209	Br	0.370071	0.271813	0.333287
Br210	Br	0.703404	0.605146	0.666621
Br211	Br	0.979015	-0.119236	-0.000002
Br212	Br	1.312348	0.214098	0.333331
Br213	Br	1.645682	0.547431	0.666664
H214	H	0.711342	-0.235581	-0.000023
H215	H	1.044676	0.097753	0.333311
H216	H	1.378009	0.431086	0.666644
H217	H	0.708142	0.068403	0.555755
H218	H	1.041475	0.401737	0.889088
H219	H	1.374809	0.735070	1.222421
H220	H	0.942230	-0.266488	-0.000012
H221	H	1.275564	0.066845	0.333322
H222	H	1.608897	0.400178	0.666655
Br223	Br	0.679030	-0.079067	-0.000023
Br224	Br	1.012363	0.254266	0.333310
Br225	Br	1.345697	0.587600	0.666644
Br226	Br	0.704695	0.212860	0.426947
Br227	Br	1.038028	0.546193	0.760281
Br228	Br	1.371361	0.879527	1.093614
Br229	Br	0.972470	-0.563245	-0.000014
Br230	Br	1.305804	-0.229912	0.333319
Br231	Br	1.639137	0.103421	0.666653
H232	H	0.849045	0.209409	0.555734
H233	H	1.182378	0.542742	0.889067
H234	H	1.515712	0.876075	1.222401
H235	H	0.935686	-0.710500	-0.000064
H236	H	1.269019	-0.377166	0.333269
H237	H	1.602352	-0.043833	0.666603
Br238	Br	0.976438	0.125311	0.426994
Br239	Br	1.309771	0.458645	0.760327
Br240	Br	1.643105	0.791978	1.093661
H241	H	0.916398	0.001251	0.555450
H242	H	1.249731	0.334585	0.888783
H243	H	1.583065	0.667918	1.222117
H244	H	0.799909	-0.023326	0.444188
H245	H	1.133242	0.310007	0.777521
H246	H	1.466575	0.643340	1.110855
H247	H	0.153078	0.206160	-0.000034
H248	H	0.486411	0.539494	0.333299
H249	H	0.819744	0.872827	0.666632
Br250	Br	-0.003426	0.238465	-0.000046
Br251	Br	0.329908	0.571798	0.333287
Br252	Br	0.663241	0.905131	0.666621
