data_functionalizedCrystal
_audit_creation_method	'MofGen! by Chris Wilmer'
_symmetry_space_group_name_H-M	'P1'
_symmetry_Int_Tables_number	1
_symmetry_cell_setting	triclinic
loop_
_symmetry_equiv_pos_as_xyz
  x,y,z
_cell_length_a	16.109296
_cell_length_b	17.699083
_cell_length_c	14.586319
_cell_angle_alpha	90.002525
_cell_angle_beta	90.004442
_cell_angle_gamma	96.628848
loop_
_atom_site_label
_atom_site_type_symbol
_atom_site_fract_x
_atom_site_fract_y
_atom_site_fract_z
O1	O	-0.105137	1.004223	-0.076113
O2	O	0.394863	1.504223	0.423887
O3	O	-0.118816	0.783864	-0.076143
O4	O	0.381184	1.283864	0.423857
O5	O	0.009066	0.900099	-0.076120
O6	O	0.509066	1.400099	0.423880
O7	O	-0.233018	0.887988	-0.076137
O8	O	0.266982	1.387988	0.423863
O9	O	0.009067	0.900091	0.076361
O10	O	0.509067	1.400091	0.576361
O11	O	-0.118814	0.783856	0.076337
O12	O	0.381186	1.283856	0.576337
O13	O	-0.105135	1.004215	0.076368
O14	O	0.394865	1.504215	0.576368
Cu15	Cu	-0.111974	0.894035	0.090275
Cu16	Cu	0.388026	1.394035	0.590275
Cu17	Cu	-0.111976	0.894044	-0.090051
Cu18	Cu	0.388024	1.394044	0.409949
O19	O	-0.233016	0.887980	0.076344
O20	O	0.266984	1.387980	0.576344
C21	C	-0.118325	0.755662	0.000093
C22	C	0.381675	1.255662	0.500093
C23	C	-0.116854	0.671642	0.000082
C24	C	0.383146	1.171642	0.500082
C25	C	-0.191918	0.623127	0.000077
C26	C	0.308082	1.123127	0.500077
C27	C	-0.190531	0.544182	0.000089
C28	C	0.309469	1.044182	0.500089
C29	C	-0.114080	0.513753	0.000099
C30	C	0.385920	1.013753	0.500099
C31	C	-0.039011	0.562274	0.000107
C32	C	0.460989	1.062274	0.500107
C33	C	-0.040398	0.641218	0.000102
C34	C	0.459602	1.141218	0.500102
C35	C	-0.033414	0.243903	0.000130
C36	C	0.466586	0.743903	0.500130
C37	C	-0.032032	0.164954	0.000133
C38	C	0.467968	0.664954	0.500133
C39	C	-0.183547	0.146867	0.000117
C40	C	0.316453	0.646867	0.500117
C41	C	-0.184934	0.225811	0.000112
C42	C	0.315066	0.725811	0.500112
C43	C	-0.109865	0.274325	0.000125
C44	C	0.390135	0.774325	0.500125
C45	C	-0.111370	0.359926	0.000113
C46	C	0.388630	0.859926	0.500113
C47	C	-0.112575	0.428153	0.000104
C48	C	0.387425	0.928153	0.500104
C49	C	0.040041	0.899605	0.000120
C50	C	0.540041	1.399605	0.500120
C51	C	0.132334	0.898136	0.000120
C52	C	0.632334	1.398136	0.500120
C53	C	0.441443	0.962306	0.000117
C54	C	0.941443	1.462306	0.500117
C55	C	0.354725	0.963693	0.000121
C56	C	0.854725	1.463693	0.500121
C57	C	0.334614	0.825786	0.000114
C58	C	0.834614	1.325786	0.500114
C59	C	0.421331	0.824400	0.000117
C60	C	0.921331	1.324400	0.500117
C61	C	0.474743	0.892662	0.000113
C62	C	0.974743	1.392662	0.500113
C63	C	0.301309	0.895435	0.000115
C64	C	0.801309	1.395435	0.500115
C65	C	0.207285	0.896939	0.000120
C66	C	0.707285	1.396939	0.500120
C67	C	0.568773	0.891159	0.000110
C68	C	1.068773	1.391159	0.500110
C69	C	0.736010	0.888478	0.000105
C70	C	1.236010	1.388478	0.500105
C71	C	0.643719	0.889961	0.000108
C72	C	1.143719	1.389961	0.500108
C73	C	-0.105626	1.032417	0.000129
C74	C	0.394374	1.532417	0.500129
C75	C	-0.107096	1.116437	0.000134
C76	C	0.392904	1.616437	0.500134
N77	N	-0.111972	0.894034	0.217107
N78	N	0.388028	1.394034	0.717107
N79	N	-0.111972	0.894051	-0.216883
N80	N	0.388028	1.394051	0.283117
C81	C	-0.055365	0.945519	0.452124
C82	C	0.444635	1.445519	0.952124
C83	C	-0.055363	0.945522	0.548105
C84	C	0.444637	1.445522	1.048105
C85	C	-0.168581	0.842560	0.548094
C86	C	0.331419	1.342560	1.048094
C87	C	-0.168579	0.842555	0.452114
C88	C	0.331421	1.342555	0.952114
C89	C	-0.111972	0.894039	0.404132
C90	C	0.388028	1.394039	0.904132
C91	C	-0.111972	0.894046	0.596093
C92	C	0.388028	1.394046	1.096093
C93	C	-0.111971	0.894048	0.700160
C94	C	0.388029	1.394048	1.200160
C95	C	-0.111972	0.894036	0.300058
C96	C	0.388028	1.394036	0.800058
H97	H	-0.244671	0.107357	0.000112
H98	H	0.255329	0.607357	0.500112
H99	H	-0.214675	0.800629	0.413036
H100	H	0.285325	1.300629	0.913036
H101	H	0.027712	0.283395	0.000141
H102	H	0.527712	0.783395	0.500141
C103	C	0.109512	0.651172	0.000102
C104	C	0.609512	1.151172	0.500102
C105	C	0.042114	0.694549	0.000098
C106	C	0.542114	1.194549	0.500098
H107	H	0.160452	0.684098	0.000097
H108	H	0.660452	1.184098	0.500097
H109	H	0.106904	0.620012	0.053275
H110	H	0.606904	1.120012	0.553275
H111	H	0.106893	0.619998	-0.053073
H112	H	0.606893	1.119998	0.446927
H113	H	0.044729	0.725720	0.053277
H114	H	0.544729	1.225720	0.553277
H115	H	0.044723	0.725723	-0.053079
H116	H	0.544723	1.225723	0.446921
C117	C	0.550638	1.040749	0.078505
C118	C	1.050638	1.540749	0.578505
C119	C	0.500157	1.037337	0.000122
C120	C	1.000157	1.537337	0.500122
H121	H	0.586887	1.087069	0.078505
H122	H	1.086887	1.587069	0.578505
H123	H	0.516394	1.038425	0.131668
H124	H	1.016394	1.538425	0.631668
H125	H	0.582880	0.999070	0.078491
H126	H	1.082880	1.499070	0.578491
H127	H	0.467911	1.079013	0.000139
H128	H	0.967911	1.579013	0.500139
H129	H	0.534405	1.039668	-0.053055
H130	H	1.034405	1.539668	0.446945
C131	C	0.430895	0.706426	-0.078281
C132	C	0.930895	1.206426	0.421719
C133	C	0.457942	0.747842	0.000109
C134	C	0.957942	1.247842	0.500109
H135	H	0.453503	0.659167	-0.078284
H136	H	0.953503	1.159167	0.421716
H137	H	0.371613	0.697481	-0.078276
H138	H	0.871613	1.197481	0.421724
H139	H	0.449240	0.734539	-0.131445
H140	H	0.949240	1.234539	0.368555
H141	H	0.439591	0.719731	0.053273
H142	H	0.939591	1.219731	0.553273
H143	H	0.517236	0.756785	0.000113
H144	H	1.017236	1.256785	0.500113
H145	H	0.327617	1.020404	0.000126
H146	H	0.827617	1.520404	0.500126
C147	C	0.030395	0.449292	0.000114
C148	C	0.530395	0.949292	0.500114
C149	C	0.045027	0.528829	0.000116
C150	C	0.545027	1.028829	0.500116
H151	H	0.082279	0.428648	0.000112
H152	H	0.582279	0.928648	0.500112
H153	H	-0.000498	0.432645	0.053282
H154	H	0.499502	0.932645	0.553282
H155	H	-0.000507	0.432643	-0.053065
H156	H	0.499493	0.932643	0.446935
H157	H	0.075924	0.545479	0.053299
H158	H	0.575924	1.045479	0.553299
H159	H	0.075933	0.545483	-0.053057
H160	H	0.575933	1.045483	0.446943
H161	H	-0.009271	0.987440	0.413059
H162	H	0.490729	1.487440	0.913059
H163	H	0.291116	0.770210	0.000115
H164	H	0.791116	1.270210	0.500115
C165	C	0.056539	1.047300	0.538469
C166	C	0.556539	1.547300	1.038469
C167	C	0.006857	1.002114	0.600858
C168	C	0.506857	1.502114	1.100858
H169	H	0.094949	1.082241	0.571038
H170	H	0.594949	1.582241	1.071038
H171	H	0.086401	1.015805	0.501039
H172	H	0.586401	1.515805	1.001039
H173	H	0.021957	1.074508	0.501029
H174	H	0.521957	1.574508	1.001029
H175	H	0.041438	0.974902	0.638294
H176	H	0.541438	1.474902	1.138294
H177	H	-0.023008	1.033613	0.638304
H178	H	0.476992	1.533613	1.138304
H179	H	-0.214671	0.800644	0.587171
H180	H	0.285329	1.300644	1.087171
H181	H	-0.254173	0.647895	0.000068
H182	H	0.245827	1.147895	0.500068
H183	H	-0.251656	0.504683	0.000084
H184	H	0.248344	1.004683	0.500084
H185	H	0.030227	0.140182	0.000142
H186	H	0.530227	0.640182	0.500142
C187	C	-0.334566	0.200001	0.000109
C188	C	0.165434	0.700001	0.500109
C189	C	-0.268971	0.259257	0.000105
C190	C	0.231029	0.759257	0.500105
H191	H	-0.386447	0.220650	0.000113
H192	H	0.113553	0.720650	0.500113
H193	H	-0.330879	0.169585	-0.053060
H194	H	0.169121	0.669585	0.446940
H195	H	-0.330865	0.169588	0.053287
H196	H	0.169135	0.669588	0.553287
H197	H	-0.272669	0.289666	-0.053077
H198	H	0.227331	0.789666	0.446923
H199	H	-0.272661	0.289686	0.053280
H200	H	0.227339	0.789686	0.553280
