data_functionalizedCrystal
_audit_creation_method	'MofGen! by Chris Wilmer'
_symmetry_space_group_name_H-M	'P1'
_symmetry_Int_Tables_number	1
_symmetry_cell_setting	triclinic
loop_
_symmetry_equiv_pos_as_xyz
  x,y,z
_cell_length_a	10.654550
_cell_length_b	16.776229
_cell_length_c	10.654551
_cell_angle_alpha	90.004858
_cell_angle_beta	84.485180
_cell_angle_gamma	90.003878
loop_
_atom_site_label
_atom_site_type_symbol
_atom_site_fract_x
_atom_site_fract_y
_atom_site_fract_z
O1	O	1.667846	0.066225	0.176402
O2	O	2.167846	0.566225	0.676402
O3	O	1.302368	0.066240	0.193208
O4	O	1.802368	0.566240	0.693208
O5	O	1.493509	0.066230	0.002066
O6	O	1.993509	0.566230	0.502066
O7	O	1.476705	0.066235	0.367544
O8	O	1.976705	0.566235	0.867544
O9	O	1.493484	-0.066346	0.002054
O10	O	1.993484	0.433654	0.502054
O11	O	1.302342	-0.066337	0.193196
O12	O	1.802342	0.433663	0.693196
O13	O	1.667821	-0.066351	0.176390
O14	O	2.167821	0.433649	0.676390
Zn15	Zn	1.485077	-0.087393	0.184791
Zn16	Zn	1.985077	0.412607	0.684791
Zn17	Zn	1.485111	0.087282	0.184807
Zn18	Zn	1.985111	0.587282	0.684807
O19	O	1.476679	-0.066342	0.367532
O20	O	1.976679	0.433658	0.867532
C21	C	1.255557	-0.000047	0.191968
C22	C	1.755557	0.499953	0.691968
C23	C	1.116114	-0.000041	0.188276
C24	C	1.616114	0.499959	0.688276
N25	N	1.485064	-0.206605	0.184779
N26	N	1.985064	0.293395	0.684779
C27	C	1.036629	-0.000042	0.300818
C28	C	1.536629	0.499958	0.800818
C29	C	0.905608	-0.000056	0.297341
C30	C	1.405608	0.499944	0.797341
C31	C	0.933570	-0.000065	0.068772
C32	C	1.433570	0.499935	0.568772
C33	C	1.064589	-0.000056	0.072249
C34	C	1.564589	0.499944	0.572249
C35	C	1.569727	-0.248326	0.100177
C36	C	2.069727	0.251674	0.600177
C37	C	1.569734	-0.331778	0.100176
C38	C	2.069734	0.168222	0.600176
C39	C	1.485083	-0.373508	0.184784
C40	C	1.985083	0.126492	0.684784
C41	C	1.400410	-0.331781	0.269391
C42	C	1.900410	0.168219	0.769391
C43	C	1.400398	-0.248330	0.269385
C44	C	1.900398	0.251670	0.769385
C45	C	1.400455	-0.668328	0.269416
C46	C	1.900455	-0.168328	0.769416
C47	C	1.400476	-0.751784	0.269418
C48	C	1.900476	-0.251784	0.769418
C49	C	1.569792	-0.751776	0.100207
C50	C	2.069792	-0.251776	0.600207
C51	C	1.569780	-0.668325	0.100201
C52	C	2.069780	-0.168325	0.600201
C53	C	1.485103	-0.626605	0.184802
C54	C	1.985103	-0.126605	0.684802
C55	C	1.485095	-0.536117	0.184801
C56	C	1.985095	-0.036117	0.684801
C57	C	1.485096	-0.463994	0.184793
C58	C	1.985096	0.036006	0.684793
C59	C	1.714632	-0.000063	0.177630
C60	C	2.214632	0.499937	0.677630
C61	C	1.854075	-0.000063	0.181322
C62	C	2.354075	0.499937	0.681322
C63	C	1.492262	-0.000057	-0.044738
C64	C	1.992262	0.499943	0.455262
C65	C	1.488570	-0.000053	-0.184181
C66	C	1.988570	0.499947	0.315819
N67	N	1.485135	0.206493	0.184809
N68	N	1.985135	0.706493	0.684809
C69	C	1.486851	0.072216	-0.249679
C70	C	1.986851	0.572216	0.250321
C71	C	1.483371	0.072216	-0.380699
C72	C	1.983371	0.572216	0.119301
C73	C	1.483334	-0.072326	-0.380714
C74	C	1.983334	0.427674	0.119286
C75	C	1.486805	-0.072326	-0.249695
C76	C	1.986805	0.427674	0.250305
C77	C	1.477926	-0.000053	0.414336
C78	C	1.977926	0.499947	0.914336
C79	C	1.481619	-0.000052	0.553779
C80	C	1.981619	0.499948	1.053779
H81	H	1.078576	-0.000036	0.395294
H82	H	1.578576	0.499964	0.895294
Br83	Br	1.684628	-0.191702	-0.014647
Br84	Br	2.184628	0.308298	0.485353
H85	H	1.331538	-0.785759	0.338319
H86	H	1.831538	-0.285759	0.838319
H87	H	0.840896	-0.000059	0.388984
H88	H	1.340896	0.499941	0.888984
Br89	Br	1.172471	-0.000065	-0.080497
Br90	Br	1.672471	0.499935	0.419503
Br91	Br	0.863634	-0.000082	-0.088685
Br92	Br	1.363634	0.499918	0.411315
Br93	Br	1.684632	-0.388402	-0.014648
Br94	Br	2.184632	0.111598	0.485352
H95	H	1.638715	-0.634352	0.031309
H96	H	2.138715	-0.134352	0.531309
H97	H	1.481900	-0.131168	-0.434071
H98	H	1.981900	0.368832	0.065929
H99	H	1.331511	-0.634366	0.338304
H100	H	1.831511	-0.134366	0.838304
Br101	Br	1.489118	-0.170411	-0.160795
Br102	Br	1.989118	0.329589	0.339205
Br103	Br	1.489242	0.170300	-0.160770
Br104	Br	1.989242	0.670300	0.339230
Br105	Br	1.684712	-0.808399	-0.014614
Br106	Br	2.184712	-0.308399	0.485386
Br107	Br	1.285513	-0.388410	0.384211
Br108	Br	1.785513	0.111590	0.884211
H109	H	1.331454	-0.214361	0.338275
H110	H	1.831454	0.285639	0.838275
Br111	Br	1.481030	0.170299	-0.469583
Br112	Br	1.981030	0.670299	0.030417
