data_functionalizedCrystal
_audit_creation_method	'MofGen! by Chris Wilmer'
_symmetry_space_group_name_H-M	'P1'
_symmetry_Int_Tables_number	1
_symmetry_cell_setting	triclinic
loop_
_symmetry_equiv_pos_as_xyz
  x,y,z
_cell_length_a	23.096457
_cell_length_b	23.096457
_cell_length_c	23.096457
_cell_angle_alpha	90.011518
_cell_angle_beta	119.991963
_cell_angle_gamma	119.999678
loop_
_atom_site_label
_atom_site_type_symbol
_atom_site_fract_x
_atom_site_fract_y
_atom_site_fract_z
Zr1	Zr	-0.633745	0.557761	-0.075984
O2	O	-0.754532	0.465294	-0.168428
O3	O	-0.512958	0.586106	-0.047648
O4	O	-0.633747	0.586080	-0.168436
O5	O	-0.633741	0.465342	0.047642
O6	O	-0.633749	0.681360	-0.168439
O7	O	-0.633743	0.465320	-0.047640
O8	O	-0.417679	0.681407	0.047628
O9	O	-0.849810	0.465296	-0.168425
O10	O	-0.562641	0.669303	-0.035563
O11	O	-0.562638	0.598214	0.035548
O12	O	-0.704852	0.598183	-0.106664
O13	O	-0.704849	0.527093	-0.035553
Zr14	Zr	-0.633745	0.709759	0.075974
Zr15	Zr	-0.633747	0.709723	-0.075990
Zr16	Zr	-0.633742	0.557798	0.075979
Zr17	Zr	-0.785703	0.557765	-0.075980
Zr18	Zr	-0.481786	0.709755	0.075969
O19	O	-0.754532	0.681414	0.047637
O20	O	-0.754535	0.681363	-0.168436
O21	O	-0.754528	0.465345	0.047645
O22	O	-0.512958	0.802226	0.168417
O23	O	-0.512962	0.802175	-0.047656
O24	O	-0.512954	0.586157	0.168425
O25	O	-0.633749	0.802178	-0.047652
O26	O	-0.633743	0.681440	0.168425
O27	O	-0.633741	0.586160	0.168428
O28	O	-0.633747	0.802201	0.047630
O29	O	-0.849812	0.586085	-0.168429
O30	O	-0.417677	0.681435	0.168419
O31	O	-0.417679	0.802224	0.168414
O32	O	-0.417681	0.802195	0.047623
O33	O	-0.849808	0.465325	-0.047634
O34	O	-0.849810	0.586114	-0.047638
O35	O	-0.562638	0.669337	0.106653
O36	O	-0.562641	0.740427	0.035543
O37	O	-0.704852	0.669307	-0.035559
O38	O	-0.704849	0.598217	0.035552
C39	C	-0.443668	0.633756	-0.000011
C40	C	-0.379157	0.633754	-0.000013
C41	C	0.028871	0.581270	-0.052503
C42	C	-0.031747	0.581264	-0.052502
C43	C	-0.009570	0.633766	-0.000014
C44	C	0.073236	0.686268	0.052488
C45	C	0.133851	0.686269	0.052489
N46	N	-0.065672	0.696017	0.015878
N47	N	-0.123258	0.696014	0.015872
C48	C	-0.192198	0.633767	-0.000014
N49	N	-0.201386	0.571519	-0.015908
N50	N	-0.143797	0.571523	-0.015905
C51	C	-0.075291	0.633771	-0.000009
C52	C	-0.340722	0.581259	-0.052508
C53	C	-0.401340	0.581252	-0.052502
C54	C	-0.296354	0.686262	0.052485
C55	C	-0.235740	0.686263	0.052482
C56	C	-0.257929	0.633761	-0.000018
C57	C	-0.633742	0.443680	0.000002
C58	C	-0.633741	0.379168	0.000004
C59	C	0.176177	0.633765	-0.000003
C60	C	0.111662	0.633768	-0.000011
C61	C	-0.559510	0.385987	0.037111
C62	C	-0.559509	0.325371	0.037114
C63	C	-0.633742	0.257938	-0.000004
C64	C	-0.707983	0.251122	-0.037113
C65	C	-0.707982	0.311737	-0.037109
N66	N	-0.688999	0.135129	-0.060413
N67	N	-0.688995	0.077549	-0.060416
C68	C	-0.633750	0.075305	-0.000016
N69	N	-0.578497	0.132821	0.060385
N70	N	-0.578498	0.190407	0.060386
C71	C	-0.633752	0.192206	-0.000012
C72	C	-0.559513	0.016400	0.037098
C73	C	-0.559515	-0.044218	0.037103
C74	C	-0.707991	-0.118468	-0.037131
C75	C	-0.707987	-0.057850	-0.037129
C76	C	-0.633746	0.009581	-0.000016
C77	C	-0.633748	0.633715	-0.190089
C78	C	-0.633749	0.633700	-0.254601
C79	C	-0.633748	0.823840	-0.000012
C80	C	-0.633749	0.888352	-0.000015
C81	C	-0.707980	0.596579	-0.322019
C82	C	-0.707981	0.596597	-0.382636
C83	C	-0.633747	0.633726	-0.375830
C84	C	-0.559507	0.670855	-0.308400
C85	C	-0.559508	0.670842	-0.247786
N86	N	-0.578491	0.628603	-0.443387
N87	N	-0.578495	0.628611	-0.500971
C88	C	-0.633740	0.633770	-0.558456
N89	N	-0.688993	0.638905	-0.556188
N90	N	-0.688991	0.638893	-0.498600
C91	C	-0.633738	0.633745	-0.441552
C92	C	-0.707977	0.596667	-0.691603
C93	C	-0.707975	0.596690	-0.752219
C94	C	-0.559499	0.670943	-0.677982
C95	C	-0.559503	0.670925	-0.617368
C96	C	-0.633744	0.633783	-0.624183
C97	C	-0.633742	0.633805	0.190078
C98	C	-0.633741	0.633821	0.254591
C99	C	-0.443671	0.823836	-0.000018
C100	C	-0.379162	0.888346	-0.000022
C101	C	-0.443665	0.633801	0.190073
C102	C	-0.379153	0.633815	0.254584
C103	C	-0.443668	0.823881	0.190066
C104	C	-0.379157	0.888406	0.254574
C105	C	-0.823822	0.443639	-0.190077
C106	C	-0.888332	0.379114	-0.254585
C107	C	-0.823819	0.443684	0.000007
C108	C	-0.888328	0.379174	0.000011
C109	C	-0.823825	0.633719	-0.190083
C110	C	-0.888337	0.633706	-0.254594
C111	C	-0.348868	0.881515	-0.037146
C112	C	-0.288263	0.942123	-0.037165
C113	C	-0.257949	1.009562	-0.000054
C114	C	-0.288249	1.016391	0.037072
C115	C	-0.348857	0.955784	0.037086
C116	C	-0.348858	0.670947	0.322001
C117	C	-0.288251	0.670957	0.382622
C118	C	-0.257936	0.633839	0.375823
C119	C	-0.288238	0.596702	0.308399
C120	C	-0.348848	0.596688	0.247780
C121	C	-0.348864	0.955823	0.247749
C122	C	-0.288258	1.016457	0.308356
C123	C	-0.257943	1.009673	0.375787
C124	C	-0.288242	0.942250	0.382611
C125	C	-0.348851	0.881617	0.322005
C126	C	-0.918633	0.311697	-0.247760
C127	C	-0.979258	0.251063	-0.308367
C128	C	-1.009577	0.257847	-0.375798
C129	C	-0.979273	0.325270	-0.382621
C130	C	-0.918654	0.385903	-0.322015
C131	C	-0.918629	0.386005	0.037129
C132	C	-0.979250	0.325397	0.037131
C133	C	-1.009566	0.257959	0.000018
C134	C	-0.979263	0.251129	-0.037105
C135	C	-0.918647	0.311736	-0.037110
C136	C	-0.918632	0.670831	-0.247773
C137	C	-0.979239	0.670832	-0.308382
C138	C	-1.009554	0.633703	-0.375811
C139	C	-0.979253	0.596576	-0.382631
C140	C	-0.918642	0.596580	-0.322023
H141	H	0.201267	0.729020	0.095237
Br142	Br	-0.877528	0.302452	-0.087486
Br143	Br	-0.513707	0.509992	-0.123742
Br144	Br	-1.020413	0.159599	-0.087468
Br145	Br	-0.247148	1.107951	0.299078
H146	H	-0.263599	0.936548	-0.067396
Br147	Br	-0.175694	1.091809	-0.000079
H148	H	-0.358791	0.538508	-0.095256
H149	H	-0.768430	0.566367	-0.437537
H150	H	-0.768433	0.566338	-0.327575
H151	H	-0.499066	0.701086	-0.302863
H152	H	-0.263559	1.071308	0.067286
Br153	Br	-0.175679	0.633865	0.458100
H154	H	-0.373515	0.961356	0.067321
H155	H	-0.278296	0.729007	0.095226
Br156	Br	-0.247140	0.721362	0.474117
H157	H	-1.058924	0.208614	0.000028
Br158	Br	-0.247087	0.546331	0.299184
H159	H	-0.373506	0.566453	0.192887
Br160	Br	-0.458751	0.721346	-0.668738
Br161	Br	-0.389997	0.965049	0.156243
H162	H	-0.499061	0.071306	0.067332
H163	H	-0.208591	1.059050	0.425131
Br164	Br	-1.020361	0.334683	0.087517
Br165	Br	0.103336	0.757517	0.123728
H166	H	-1.003945	0.566347	-0.437541
H167	H	-1.003904	0.701064	-0.302815
Br168	Br	-0.247091	0.933056	0.474130
Br169	Br	-0.001245	0.510015	-0.123749
H170	H	-0.499065	-0.038660	0.067325
H171	H	-1.058937	0.208470	-0.425141
H172	H	-0.373533	0.701173	0.327550
H173	H	-0.168325	0.729014	0.095225
Br174	Br	-0.389953	0.790126	0.331280
H175	H	-0.499059	0.701070	-0.192889
H176	H	-0.893959	0.701066	-0.192874
Br177	Br	-0.877498	0.302471	-0.156254
H178	H	-0.768428	0.566425	-0.697153
Br179	Br	-1.020427	0.334465	-0.474141
Br180	Br	-0.877541	0.546184	-0.331294
Br181	Br	-0.808725	0.546314	-0.843721
H182	H	-1.003921	0.196170	-0.302797
H183	H	-0.893983	0.440795	-0.327581
H184	H	-0.499057	0.440888	0.067327
H185	H	-0.499057	0.701149	-0.562472
Br186	Br	-0.389996	0.789998	-0.087520
H187	H	-0.099168	0.538505	-0.095241
Br188	Br	-0.877502	0.477522	0.087501
H189	H	-0.499060	0.330923	0.067332
Br190	Br	-0.808729	0.159606	-0.087481
H191	H	-0.768431	0.306180	-0.067324
Br192	Br	-0.808738	-0.209979	-0.087499
H193	H	-0.768433	-0.063405	-0.067351
Br194	Br	-1.091813	0.633704	-0.458059
