data_functionalizedCrystal
_audit_creation_method	'MofGen! by Chris Wilmer'
_symmetry_space_group_name_H-M	'P1'
_symmetry_Int_Tables_number	1
_symmetry_cell_setting	triclinic
loop_
_symmetry_equiv_pos_as_xyz
  x,y,z
_cell_length_a	13.897448
_cell_length_b	10.685969
_cell_length_c	13.897431
_cell_angle_alpha	85.675917
_cell_angle_beta	89.924096
_cell_angle_gamma	94.348258
loop_
_atom_site_label
_atom_site_type_symbol
_atom_site_fract_x
_atom_site_fract_y
_atom_site_fract_z
Zn1	Zn	-0.496635	-1.929333	-0.432099
Zn2	Zn	-0.163301	-1.595999	-0.098766
Zn3	Zn	0.170032	-1.262666	0.234567
Zn4	Zn	-0.658070	-1.929087	-0.270815
Zn5	Zn	-0.324736	-1.595754	0.062519
Zn6	Zn	0.008597	-1.262421	0.395852
Zn7	Zn	-0.484431	-1.718225	-0.283213
Zn8	Zn	-0.151098	-1.384891	0.050121
Zn9	Zn	0.182235	-1.051558	0.383454
Zn10	Zn	-0.645521	-1.718308	-0.444444
Zn11	Zn	-0.312188	-1.384974	-0.111110
Zn12	Zn	0.021146	-1.051641	0.222223
O13	O	-0.571164	-1.823738	-0.357643
O14	O	-0.237831	-1.490405	-0.024309
O15	O	0.095503	-1.157071	0.309024
O16	O	-0.528408	-2.105862	-0.400350
O17	O	-0.195075	-1.772528	-0.067016
O18	O	0.138258	-1.439195	0.266317
O19	O	-0.635181	-1.900978	-0.137485
O20	O	-0.301847	-1.567645	0.195848
O21	O	0.031486	-1.234312	0.529181
O22	O	-0.351072	-1.746297	-0.302985
O23	O	-0.017739	-1.412963	0.030348
O24	O	0.315594	-1.079630	0.363681
O25	O	-0.647014	-2.105681	-0.281855
O26	O	-0.313681	-1.772348	0.051479
O27	O	0.019653	-1.439015	0.384812
O28	O	-0.360038	-1.901397	-0.412372
O29	O	-0.026705	-1.568064	-0.079038
O30	O	0.306628	-1.234730	0.254295
O31	O	-0.507609	-1.746059	-0.146594
O32	O	-0.174276	-1.412725	0.186739
O33	O	0.159057	-1.079392	0.520072
O34	O	-0.495441	-1.541674	-0.314955
O35	O	-0.162108	-1.208341	0.018378
O36	O	0.171225	-0.875008	0.351711
O37	O	-0.625626	-1.746438	-0.577780
O38	O	-0.292293	-1.413105	-0.244447
O39	O	0.041040	-1.079771	0.088887
O40	O	-0.613793	-1.541735	-0.433411
O41	O	-0.280460	-1.208402	-0.100078
O42	O	0.052874	-0.875068	0.233256
O43	O	-0.516240	-1.901477	-0.568711
O44	O	-0.182907	-1.568144	-0.235377
O45	O	0.150426	-1.234811	0.097956
O46	O	-0.791383	-1.901059	-0.293825
O47	O	-0.458049	-1.567725	0.039509
O48	O	-0.124716	-1.234392	0.372842
O49	O	-0.782163	-1.746200	-0.421389
O50	O	-0.448830	-1.412867	-0.088056
O51	O	-0.115497	-1.079533	0.245277
C52	C	-0.551932	-1.495924	-0.376869
C53	C	-0.218599	-1.162591	-0.043535
C54	C	0.114735	-0.829258	0.289798
C55	C	-0.543727	-1.355684	-0.385116
C56	C	-0.210394	-1.022351	-0.051783
C57	C	0.122939	-0.689017	0.281550
C58	C	-0.821773	-1.823646	-0.357620
C59	C	-0.488440	-1.490313	-0.024287
C60	C	-0.155106	-1.156979	0.309047
C61	C	-0.928991	-1.823722	-0.357636
C62	C	-0.595658	-1.490389	-0.024303
C63	C	-0.262325	-1.157055	0.309031
C64	C	-1.125294	-1.823855	-0.357689
C65	C	-0.791961	-1.490521	-0.024355
C66	C	-0.458628	-1.157188	0.308978
C67	C	-1.016057	-1.823777	-0.357663
C68	C	-0.682724	-1.490444	-0.024329
C69	C	-0.349391	-1.157111	0.309004
C70	C	-0.319579	-1.823865	-0.357684
C71	C	0.013755	-1.490532	-0.024351
C72	C	0.347088	-1.157198	0.308982
C73	C	-0.212368	-1.823919	-0.357702
C74	C	0.120966	-1.490586	-0.024369
C75	C	0.454299	-1.157252	0.308965
C76	C	-0.570895	-1.823994	-0.609221
C77	C	-0.237562	-1.490661	-0.275888
C78	C	0.095772	-1.157328	0.057445
C79	C	-0.570780	-1.824104	-0.716429
C80	C	-0.237447	-1.490770	-0.383096
C81	C	0.095886	-1.157437	-0.049762
C82	C	-0.590463	-1.152832	-0.338331
C83	C	-0.257130	-0.819499	-0.004998
C84	C	0.076204	-0.486165	0.328335
C85	C	-0.598663	-1.293072	-0.330074
C86	C	-0.265330	-0.959739	0.003260
C87	C	0.068004	-0.626405	0.336593
C88	C	-0.571367	-1.823555	-0.107039
C89	C	-0.238034	-1.490222	0.226295
C90	C	0.095300	-1.156889	0.559628
C91	C	-0.571224	-1.823691	0.000183
C92	C	-0.237891	-1.490357	0.333516
C93	C	0.095442	-1.157024	0.666850
C94	C	-0.571095	-1.823822	0.087260
C95	C	-0.237761	-1.490488	0.420593
C96	C	0.095572	-1.157155	0.753927
C97	C	-0.570923	-1.823982	0.196502
C98	C	-0.237590	-1.490649	0.529835
C99	C	0.095744	-1.157315	0.863168
H100	H	-0.651983	-1.346762	-0.276639
H101	H	-0.318650	-1.013428	0.056695
H102	H	0.014684	-0.680095	0.390028
C103	C	-0.521813	-1.207517	-0.523504
C104	C	-0.188480	-0.874183	-0.190170
C105	C	0.144854	-0.540850	0.143163
C106	C	-0.471757	-1.283220	-0.457258
C107	C	-0.138424	-0.949887	-0.123924
C108	C	0.194909	-0.616553	0.209409
H109	H	-0.477379	-1.162770	-0.568037
H110	H	-0.144045	-0.829437	-0.234704
H111	H	0.189288	-0.496104	0.098630
H112	H	-0.566820	-1.258969	-0.557333
H113	H	-0.233486	-0.925636	-0.223999
H114	H	0.099847	-0.592302	0.109334
H115	H	-0.555175	-1.149454	-0.490067
H116	H	-0.221842	-0.816121	-0.156734
H117	H	0.111491	-0.482788	0.176600
H118	H	-0.438401	-1.341289	-0.490694
H119	H	-0.105067	-1.007956	-0.157361
H120	H	0.228266	-0.674623	0.175972
H121	H	-0.426734	-1.231763	-0.423426
H122	H	-0.093400	-0.898430	-0.090092
H123	H	0.239933	-0.565097	0.243241
