data_functionalizedCrystal
_audit_creation_method	'MofGen! by Chris Wilmer'
_symmetry_space_group_name_H-M	'P1'
_symmetry_Int_Tables_number	1
_symmetry_cell_setting	triclinic
loop_
_symmetry_equiv_pos_as_xyz
  x,y,z
_cell_length_a	10.654550
_cell_length_b	15.995350
_cell_length_c	9.130313
_cell_angle_alpha	90.000982
_cell_angle_beta	89.996220
_cell_angle_gamma	83.988639
loop_
_atom_site_label
_atom_site_type_symbol
_atom_site_fract_x
_atom_site_fract_y
_atom_site_fract_z
O1	O	1.666298	0.117599	-0.121912
O2	O	1.300673	0.128803	-0.121888
O3	O	1.493480	0.001371	-0.121899
O4	O	1.473491	0.245030	-0.121900
O5	O	1.493478	0.001375	0.121700
O6	O	1.300671	0.128807	0.121711
O7	O	1.666295	0.117602	0.121687
Cu8	Cu	1.483483	0.123205	0.143942
Cu9	Cu	1.483486	0.123201	-0.144142
O10	O	1.473488	0.245034	0.121698
C11	C	1.253885	0.127982	-0.000085
C12	C	1.114473	0.125521	-0.000076
C13	C	1.034008	0.200551	-0.000098
C14	C	0.903017	0.198233	-0.000123
C15	C	0.932971	0.045849	-0.000111
C16	C	1.063959	0.048168	-0.000075
C17	C	1.084522	0.277904	-0.000099
C18	C	1.004055	0.352940	-0.000122
C19	C	0.873064	0.350622	-0.000147
C20	C	0.822541	0.273268	-0.000149
C21	C	1.492652	-0.029827	-0.000102
C22	C	1.490175	-0.122791	-0.000110
C23	C	1.481278	-0.460591	-0.000105
C24	C	1.343964	-0.413954	-0.000642
C25	C	1.346442	-0.317249	-0.000093
C26	C	1.485691	-0.293004	-0.000108
C27	C	1.553417	-0.333687	0.138991
C28	C	1.549968	-0.430342	0.139108
C29	C	1.552807	-0.430688	-0.137910
C30	C	1.552775	-0.333743	-0.139748
C31	C	1.488192	-0.198292	-0.000106
C32	C	1.478780	-0.555303	-0.000098
C33	C	1.713084	0.118423	-0.000119
C34	C	1.852495	0.120884	-0.000137
C35	C	1.474316	0.276232	-0.000101
C36	C	1.476793	0.369197	-0.000103
N37	N	1.483490	0.123207	0.346564
N38	N	1.483488	0.123192	-0.346765
C39	C	1.568887	0.066800	0.423211
C40	C	1.568883	0.066789	0.576548
C41	C	1.398083	0.179602	0.576578
C42	C	1.398081	0.179607	0.423244
C43	C	1.654296	0.010399	0.346532
C44	C	1.739700	-0.046012	0.423179
C45	C	1.739697	-0.046022	0.576516
C46	C	1.654289	0.010379	0.653206
H47	H	0.715878	0.271387	-0.000147
H48	H	0.891824	-0.017129	-0.000137
C49	C	1.274528	-0.279264	-0.134791
H50	H	1.275956	-0.219977	-0.134639
H51	H	1.189595	-0.292249	-0.131348
H52	H	1.313686	-0.302129	-0.221495
C53	C	0.784549	0.433153	-0.000168
H54	H	0.699301	0.420697	-0.000175
H55	H	0.799883	0.464834	-0.085115
H56	H	0.799844	0.464841	0.084792
H57	H	1.655720	-0.318967	0.144153
H58	H	1.650782	-0.462005	0.145409
C59	C	1.270148	-0.440838	0.133376
H60	H	1.322651	-0.480358	0.189659
H61	H	1.197858	-0.465803	0.101402
H62	H	1.244419	-0.392933	0.191770
H63	H	1.809230	-0.091937	0.360730
C64	C	1.269809	-0.439428	-0.135380
H65	H	1.321919	-0.478738	-0.192514
H66	H	1.244554	-0.391000	-0.192664
H67	H	1.197207	-0.464284	-0.104081
C68	C	1.059626	0.438021	-0.000118
H69	H	1.149162	0.428658	-0.000114
H70	H	1.031988	0.468952	0.084822
H71	H	1.032021	0.468941	-0.085086
H72	H	1.654285	0.010361	0.778063
C73	C	1.152476	-0.034363	-0.000072
H74	H	1.103633	-0.080764	-0.000102
H75	H	1.204181	-0.036628	0.084886
H76	H	1.204211	-0.036620	-0.085022
H77	H	1.328548	0.225522	0.639028
C78	C	1.304147	0.241650	0.338919
H79	H	1.316370	0.233567	0.236618
H80	H	1.317768	0.297619	0.364046
H81	H	1.220338	0.232025	0.364056
C82	C	1.228606	0.280457	-0.000064
H83	H	1.247168	0.337269	-0.000057
H84	H	1.263790	0.252835	-0.084999
H85	H	1.263746	0.252849	0.084908
C86	C	1.274056	-0.280020	0.134858
H87	H	1.243029	-0.324009	0.189566
H88	H	1.205331	-0.241448	0.103854
H89	H	1.329168	-0.251647	0.194434
C90	C	1.689572	-0.472798	-0.139204
H91	H	1.732317	-0.454479	-0.222714
H92	H	1.689097	-0.532117	-0.142776
H93	H	1.731680	-0.457763	-0.052911
H94	H	1.506376	-0.305577	0.242515
H95	H	1.809228	-0.091960	0.638920
C96	C	1.483237	-0.455460	0.279573
H97	H	1.480549	-0.514635	0.280886
H98	H	1.399681	-0.428145	0.281742
H99	H	1.528331	-0.439103	0.362758
C100	C	1.492159	-0.458781	-0.280338
H101	H	1.422638	-0.489013	-0.257086
H102	H	1.552749	-0.493905	-0.334661
H103	H	1.463641	-0.410749	-0.337119
C104	C	1.485981	-0.297252	-0.278768
H105	H	1.417501	-0.257352	-0.251838
H106	H	1.455136	-0.341332	-0.333386
H107	H	1.544103	-0.270539	-0.336834
H108	H	1.654321	-0.317791	-0.148158
H109	H	1.654308	0.010404	0.221678
