data_functionalizedCrystal
_audit_creation_method	'MofGen! by Chris Wilmer'
_symmetry_space_group_name_H-M	'P1'
_symmetry_Int_Tables_number	1
_symmetry_cell_setting	triclinic
loop_
_symmetry_equiv_pos_as_xyz
  x,y,z
_cell_length_a	12.759395
_cell_length_b	25.639240
_cell_length_c	12.759387
_cell_angle_alpha	90.043601
_cell_angle_beta	90.019431
_cell_angle_gamma	90.032603
loop_
_atom_site_label
_atom_site_type_symbol
_atom_site_fract_x
_atom_site_fract_y
_atom_site_fract_z
Zn1	Zn	1.606137	-0.208125	0.593881
Zn2	Zn	1.605972	-0.295571	0.418163
Zn3	Zn	1.430435	-0.208151	0.418222
Zn4	Zn	1.430372	-0.295531	0.593805
O5	O	1.518229	-0.251845	0.506018
O6	O	1.753136	-0.219731	0.570579
O7	O	1.582644	-0.284002	0.271149
O8	O	1.453838	-0.134983	0.441580
O9	O	1.753015	-0.283977	0.441479
O10	O	1.582925	-0.134964	0.570636
O11	O	1.453678	-0.219775	0.271193
O12	O	1.283406	-0.219737	0.441506
O13	O	1.453730	-0.283909	0.740836
O14	O	1.283359	-0.283934	0.570506
O15	O	1.582864	-0.219693	0.740892
O16	O	1.582583	-0.368731	0.441405
O17	O	1.453570	-0.368702	0.570449
C18	C	1.245261	-0.251834	0.506005
C19	C	1.128485	-0.251843	0.506024
C20	C	1.128591	-0.185051	0.640673
C21	C	1.073784	-0.151662	0.708006
C22	C	0.964062	-0.151671	0.708019
C23	C	0.909146	-0.185072	0.640690
C24	C	0.963953	-0.218462	0.573357
C25	C	1.073677	-0.218450	0.573353
C26	C	0.963846	-0.285250	0.438704
C27	C	1.073568	-0.285244	0.438695
C28	C	0.908930	-0.318651	0.371375
C29	C	0.963737	-0.352043	0.304046
C30	C	1.073466	-0.352033	0.304036
C31	C	1.128376	-0.318633	0.371362
C32	C	1.518080	-0.387687	0.505935
C33	C	1.518113	-0.445801	0.505935
C34	C	1.585478	-0.806116	0.573339
C35	C	1.585509	-0.860720	0.573360
O36	O	1.642609	-0.888916	0.630584
N37	N	1.518375	-0.888084	0.506119
C38	C	1.451197	-0.860840	0.438860
O39	O	1.394097	-0.889129	0.381669
C40	C	1.451162	-0.806237	0.438845
C41	C	1.518308	-0.778876	0.506083
C42	C	1.652618	-0.778755	0.640572
C43	C	1.652588	-0.724155	0.640549
C44	C	1.585418	-0.696915	0.573293
C45	C	1.518278	-0.724276	0.506060
C46	C	1.383980	-0.778994	0.371592
C47	C	1.383950	-0.724387	0.371583
C48	C	1.451096	-0.697027	0.438821
C49	C	1.451079	-0.642435	0.438781
N50	N	1.518213	-0.615072	0.506021
C51	C	1.585383	-0.642312	0.573277
C52	C	1.451276	-0.975511	0.438899
C53	C	1.451316	-1.030113	0.438908
C54	C	1.585626	-1.029990	0.573409
C55	C	1.585591	-0.975386	0.573394
C56	C	1.518410	-0.948147	0.506139
C57	C	1.585316	-0.527647	0.573223
C58	C	1.585283	-0.473041	0.573191
C59	C	1.450969	-0.473170	0.438694
C60	C	1.451005	-0.527770	0.438722
C61	C	1.518182	-0.555007	0.505995
O62	O	1.394005	-0.614205	0.381589
O63	O	1.642464	-0.614016	0.630468
C64	C	1.792262	-0.251856	0.506031
C65	C	1.909039	-0.251860	0.506037
C66	C	1.518308	-0.251794	0.780051
C67	C	1.518342	-0.251772	0.896828
C68	C	1.518407	-0.115472	0.506123
C69	C	1.518482	-0.057358	0.506168
C70	C	1.518210	-0.251858	0.233050
C71	C	1.518380	-0.251733	0.116274
C72	C	1.652818	-0.184907	0.896906
C73	C	1.720071	-0.151467	0.951806
C74	C	1.720096	-0.151448	1.061528
C75	C	1.652860	-0.184872	1.116352
C76	C	1.585607	-0.218312	1.061452
C77	C	1.585591	-0.218328	0.951728
C78	C	1.451128	-0.285173	1.061374
C79	C	1.451106	-0.285195	0.951652
C80	C	1.383891	-0.318596	1.116198
C81	C	1.316642	-0.352040	1.061298
C82	C	1.316620	-0.352058	0.951570
C83	C	1.383853	-0.318635	0.896752
H84	H	1.118083	-0.379221	0.249202
O85	O	1.127293	-0.119267	0.773374
C86	C	1.296372	-0.089628	0.832996
C87	C	1.235911	-0.126351	0.758935
H88	H	1.384200	-0.095334	0.821332
H89	H	1.274906	-0.098867	0.917699
H90	H	1.274760	-0.047465	0.814734
H91	H	1.257490	-0.168526	0.777103
H92	H	1.257383	-0.117067	0.674254
O93	O	1.251264	-0.384596	0.898406
C94	C	1.117847	-0.450898	0.909922
C95	C	1.191822	-0.414081	0.970255
H96	H	1.069754	-0.474739	0.967986
H97	H	1.165989	-0.478286	0.858574
H98	H	1.062980	-0.426895	0.858528
H99	H	1.246704	-0.438042	1.021705
H100	H	1.143615	-0.386693	1.021536
O101	O	1.785272	-0.118928	0.898594
C102	C	1.836449	-0.030005	0.865147
C103	C	1.762531	-0.066795	0.925452
H104	H	1.818104	0.012151	0.886856
H105	H	1.824879	-0.035717	0.777284
H106	H	1.921148	-0.039219	0.886713
H107	H	1.677804	-0.057604	0.903975
H108	H	1.774192	-0.061076	1.013301
O109	O	1.385687	-0.554271	0.373370
C110	C	1.252506	-0.548624	0.239923
C111	C	1.326418	-0.518553	0.313888
H112	H	1.204583	-0.519759	0.191796
H113	H	1.197485	-0.574169	0.288075
H114	H	1.300794	-0.574212	0.185086
H115	H	1.278214	-0.492936	0.368740
H116	H	1.381442	-0.493040	0.265670
H117	H	1.217933	-0.185038	0.640664
H118	H	1.329303	-0.801262	0.316839
O119	O	0.910556	-0.384503	0.238551
C120	C	0.922017	-0.450775	0.105043
C121	C	0.982380	-0.414032	0.179143
H122	H	0.980061	-0.474667	0.057007
H123	H	0.870678	-0.426765	0.050136
H124	H	0.870613	-0.478123	0.153191
H125	H	1.033842	-0.386677	0.131079
H126	H	1.033654	-0.438074	0.234052
O127	O	1.650922	-0.948788	0.638565
C128	C	1.792685	-0.887051	0.652828
C129	C	1.718780	-0.917146	0.578896
H130	H	1.847552	-0.861453	0.604617
H131	H	1.840773	-0.915882	0.700876
H132	H	1.744384	-0.861509	0.707742
H133	H	1.767000	-0.942688	0.523919
H134	H	1.670689	-0.888286	0.530922
H135	H	1.261898	-0.379248	1.105945
H136	H	0.919438	-0.124480	0.762841
O137	O	1.650621	-0.446441	0.638363
C138	C	1.792388	-0.384705	0.652610
C139	C	1.718482	-0.414804	0.578685
H140	H	1.847258	-0.359112	0.604392
H141	H	1.840473	-0.413534	0.700667
H142	H	1.744088	-0.359159	0.707515
H143	H	1.766701	-0.440351	0.523717
H144	H	1.670394	-0.385947	0.530703
H145	H	0.819805	-0.185073	0.640698
O146	O	1.785475	-0.119037	1.114978
C147	C	1.927393	-0.112001	1.238843
C148	C	1.853404	-0.148764	1.178395
H149	H	1.982347	-0.136020	1.290112
H150	H	1.879263	-0.084660	1.290301
H151	H	1.975394	-0.088102	1.180797
H152	H	1.805387	-0.172696	1.236364
H153	H	1.901594	-0.176070	1.126920
H154	H	0.819589	-0.318654	0.371388
O155	O	1.383919	-0.318675	1.222781
C156	C	1.410929	-0.368772	1.380193
C157	C	1.410911	-0.368756	1.259488
H158	H	1.432771	-0.409256	1.409907
H159	H	1.329589	-0.357944	1.410042
H160	H	1.470517	-0.339111	1.409990
H161	H	1.351374	-0.398417	1.229602
H162	H	1.492288	-0.379561	1.229711
O163	O	1.650665	-0.554019	0.638609
C164	C	1.783827	-0.548119	0.772062
C165	C	1.709890	-0.518188	0.698053
H166	H	1.831714	-0.519163	0.820158
H167	H	1.838880	-0.573670	0.723947
H168	H	1.735561	-0.573689	0.826926
H169	H	1.758072	-0.492590	0.643174
H170	H	1.654834	-0.492670	0.746233
H171	H	1.217717	-0.318619	0.371356
H172	H	1.707261	-0.701881	0.695302
H173	H	1.707316	-0.800928	0.695346
O174	O	1.650772	-1.056537	0.638717
C175	C	1.710369	-1.140608	0.698302
C176	C	1.636527	-1.110608	0.624312
H177	H	1.698894	-1.184330	0.686666
H178	H	1.691863	-1.129882	0.783022
H179	H	1.795081	-1.129817	0.679941
H180	H	1.551791	-1.121383	0.642578
H181	H	1.655124	-1.121336	0.539614
O182	O	1.385999	-1.056607	0.373551
C183	C	1.252824	-1.050952	0.240099
C184	C	1.326732	-1.020885	0.314076
H185	H	1.204902	-1.022083	0.191979
H186	H	1.197801	-1.076501	0.288242
H187	H	1.301115	-1.076536	0.185257
H188	H	1.278525	-0.995273	0.368933
H189	H	1.381757	-0.995369	0.265868
H190	H	1.383846	-0.318649	0.807411
O191	O	1.318835	-0.697872	0.306196
C192	C	1.304725	-0.636326	0.164262
C193	C	1.378582	-0.666311	0.238264
H194	H	1.353001	-0.610811	0.109306
H195	H	1.249765	-0.610728	0.212382
H196	H	1.256723	-0.665276	0.116265
H197	H	1.426652	-0.637399	0.286277
H198	H	1.433472	-0.691917	0.190084
O199	O	1.385911	-0.949029	0.373702
C200	C	1.244065	-0.887433	0.359400
C201	C	1.318008	-0.917396	0.433352
H202	H	1.189161	-0.861842	0.407596
H203	H	1.196018	-0.916350	0.311367
H204	H	1.292334	-0.861897	0.304475
H205	H	1.269820	-0.942932	0.488341
H206	H	1.366058	-0.888450	0.481312
O207	O	1.385609	-0.446678	0.373520
C208	C	1.243787	-0.385065	0.359280
C209	C	1.317732	-0.415045	0.433200
H210	H	1.188905	-0.359474	0.407500
H211	H	1.195718	-0.413971	0.311240
H212	H	1.292056	-0.359527	0.304358
H213	H	1.269544	-0.440584	0.488185
H214	H	1.365805	-0.386111	0.481165
H215	H	1.652878	-0.184849	1.205693
H216	H	1.652814	-0.184924	0.807565
