data_functionalizedCrystal
_audit_creation_method	'MofGen! by Chris Wilmer'
_symmetry_space_group_name_H-M	'P1'
_symmetry_Int_Tables_number	1
_symmetry_cell_setting	triclinic
loop_
_symmetry_equiv_pos_as_xyz
  x,y,z
_cell_length_a	12.837932
_cell_length_b	12.811415
_cell_length_c	8.140239
_cell_angle_alpha	84.565620
_cell_angle_beta	89.997493
_cell_angle_gamma	89.412215
loop_
_atom_site_label
_atom_site_type_symbol
_atom_site_fract_x
_atom_site_fract_y
_atom_site_fract_z
O1	O	1.376630	0.272985	-0.177280
O2	O	1.074766	0.259498	-0.175274
O3	O	1.233292	0.114209	-0.153620
O4	O	1.218104	0.418274	-0.198934
O5	O	1.233283	0.114206	0.119608
O6	O	1.074757	0.259495	0.097954
O7	O	1.376621	0.272982	0.095947
Zn8	Zn	1.225688	0.266238	0.140331
Zn9	Zn	1.225699	0.266242	-0.219658
O10	O	1.218095	0.418271	0.074294
C11	C	1.036121	0.254941	-0.037982
C12	C	0.920986	0.241354	-0.035958
C13	C	0.770653	0.127793	-0.019032
C14	C	0.878834	0.140553	-0.020934
C15	C	0.854947	0.329403	-0.049077
C16	C	0.746766	0.316644	-0.047175
C17	C	0.704623	0.215836	-0.032154
C18	C	0.596440	0.203077	-0.030264
C19	C	0.572555	0.391927	-0.058395
C20	C	0.680736	0.404686	-0.060297
C21	C	1.232437	0.075018	-0.011169
C22	C	1.229888	-0.041755	0.006222
C23	C	1.225089	-0.261172	-0.259003
C24	C	1.222695	-0.370890	-0.242670
C25	C	1.222696	-0.370913	0.055221
C26	C	1.225091	-0.261194	0.038887
C27	C	1.226289	-0.206327	-0.118230
C28	C	1.228691	-0.096607	-0.134561
C29	C	1.228685	-0.096632	0.163328
C30	C	1.226290	-0.206350	0.179661
C31	C	1.415266	0.277539	-0.041348
C32	C	1.530402	0.291126	-0.043382
C33	C	1.218951	0.457462	-0.068161
C34	C	1.221499	0.574235	-0.085563
N35	N	1.225688	0.266236	0.386014
N36	N	1.225708	0.266237	-0.465340
H37	H	0.562129	0.120994	-0.018040
H38	H	1.229670	-0.051936	-0.262494
H39	H	1.226074	-0.216498	-0.386934
O40	O	1.221666	-0.424281	-0.379300
C41	C	1.310002	-0.490641	-0.378377
H42	H	1.339556	-0.508068	-0.246474
H43	H	1.288138	-0.567131	-0.430036
H44	H	1.373741	-0.450387	-0.457873
H45	H	0.715065	0.486761	-0.072521
H46	H	0.518781	0.463617	-0.069081
O47	O	0.729587	0.029927	-0.004240
C48	C	0.667743	0.016877	0.139230
H49	H	0.641167	0.096944	0.174489
H50	H	0.596725	-0.032056	0.114690
H51	H	0.715327	-0.024810	0.244524
O52	O	1.221408	-0.424344	0.207734
C53	C	1.130307	-0.484886	0.225693
H54	H	1.100020	-0.500319	0.098682
H55	H	1.148816	-0.562711	0.300270
H56	H	1.068421	-0.440586	0.292649
H57	H	1.225311	-0.251038	0.307581
O58	O	1.229715	-0.043470	0.300211
C59	C	1.139413	-0.067348	0.394379
H60	H	1.107753	-0.146030	0.363741
H61	H	1.159518	-0.071776	0.531287
H62	H	1.077948	-0.003547	0.364258
O63	O	0.942933	0.054997	-0.008482
C64	C	0.923747	-0.005575	-0.140941
H65	H	0.887021	0.046168	-0.247555
H66	H	1.000309	-0.040014	-0.183312
H67	H	0.868398	-0.071857	-0.099070
O68	O	0.896067	0.427246	-0.063684
C69	C	1.005710	0.419621	-0.062474
H70	H	1.030751	0.340225	-0.102406
H71	H	1.039215	0.484789	-0.151463
H72	H	1.035823	0.427684	0.067420
