data_functionalizedCrystal
_audit_creation_method	'MofGen! by Chris Wilmer'
_symmetry_space_group_name_H-M	'P1'
_symmetry_Int_Tables_number	1
_symmetry_cell_setting	triclinic
loop_
_symmetry_equiv_pos_as_xyz
  x,y,z
_cell_length_a	17.038272
_cell_length_b	17.019234
_cell_length_c	9.130313
_cell_angle_alpha	86.117456
_cell_angle_beta	90.005249
_cell_angle_gamma	87.240293
loop_
_atom_site_label
_atom_site_type_symbol
_atom_site_fract_x
_atom_site_fract_y
_atom_site_fract_z
O1	O	1.037203	0.171284	-0.143229
O2	O	0.809575	0.168564	-0.142928
O3	O	0.929748	0.055517	-0.128632
O4	O	0.917030	0.284331	-0.157525
O5	O	0.929746	0.055520	0.114966
O6	O	0.809573	0.168567	0.100670
O7	O	1.037201	0.171287	0.100370
Cu8	Cu	0.923387	0.169927	0.122762
Cu9	Cu	0.923389	0.169924	-0.165321
O10	O	0.917029	0.284334	0.086074
C11	C	0.780448	0.166092	-0.020823
C12	C	0.693662	0.158711	-0.019907
C13	C	0.929267	0.026097	-0.003121
C14	C	0.927829	-0.061571	0.007938
C15	C	0.919625	-0.557400	0.077086
C16	C	0.920984	-0.475027	0.066702
C17	C	0.921670	-0.433834	-0.071280
C18	C	0.920989	-0.475017	-0.198884
C19	C	0.919625	-0.557388	-0.188499
C20	C	0.925784	-0.185126	-0.109281
C21	C	0.927151	-0.102749	-0.119657
C22	C	0.927144	-0.102764	0.145930
C23	C	0.925784	-0.185137	0.156304
C24	C	0.925100	-0.226313	0.028699
C25	C	0.923061	-0.349636	-0.081897
C26	C	0.923703	-0.310510	0.039318
C27	C	0.643485	0.226472	-0.028463
C28	C	0.561941	0.219533	-0.027566
C29	C	0.530575	0.144832	-0.018125
C30	C	0.580759	0.077066	-0.009565
C31	C	0.662302	0.084006	-0.010451
C32	C	0.284840	0.120314	-0.014990
C33	C	0.203291	0.113379	-0.014109
C34	C	0.184479	0.255846	-0.032107
C35	C	0.266024	0.262780	-0.033001
C36	C	0.316200	0.195014	-0.024434
C37	C	0.447225	0.137737	-0.017213
C38	C	0.399549	0.202110	-0.025335
C39	C	1.066328	0.173759	-0.021739
C40	C	1.153114	0.181140	-0.022664
C41	C	0.917509	0.313755	-0.039440
C42	C	0.918947	0.401422	-0.050509
N43	N	0.923392	0.169930	0.325385
N44	N	0.923391	0.169915	-0.367943
C45	C	0.976618	0.119892	0.408365
C46	C	0.976616	0.119882	0.561703
C47	C	0.870159	0.219956	0.549067
C48	C	0.870158	0.219961	0.395732
C49	C	1.029851	0.069861	0.338018
C50	C	1.083082	0.019819	0.420998
C51	C	1.083080	0.019809	0.574336
C52	C	1.029847	0.069841	0.644694
H53	H	0.919070	-0.590933	0.189445
F54	F	0.813510	0.273202	0.623950
H55	H	1.126419	-0.020921	0.363706
H56	H	0.291555	0.323609	-0.040706
F57	F	0.921732	-0.431175	-0.345735
H58	H	0.826816	0.260706	0.328169
H59	H	0.143617	0.311017	-0.039080
H60	H	0.325685	0.065134	-0.008012
H61	H	0.921547	-0.441504	0.170604
H62	H	1.029859	0.069865	0.213162
H63	H	0.923140	-0.344052	0.151661
F64	F	0.925052	-0.228972	0.303162
H65	H	0.927709	-0.069212	-0.232024
F66	F	0.927870	-0.058936	0.281726
F67	F	0.715704	0.011886	-0.001340
F68	F	0.918900	-0.601212	-0.324304
H69	H	0.925234	-0.218642	-0.213186
F70	F	0.923823	-0.305790	-0.228743
H71	H	1.126418	-0.020942	0.641898
H72	H	0.669015	0.287301	-0.036152
H73	H	0.421678	0.076915	-0.009485
H74	H	0.177758	0.052546	-0.006422
F75	F	0.508541	0.291654	-0.036678
H76	H	0.555215	0.016243	-0.001857
H77	H	1.029845	0.069824	0.769553
H78	H	0.425091	0.262931	-0.033014
