data_functionalizedCrystal
_audit_creation_method	'MofGen! by Chris Wilmer'
_symmetry_space_group_name_H-M	'P1'
_symmetry_Int_Tables_number	1
_symmetry_cell_setting	triclinic
loop_
_symmetry_equiv_pos_as_xyz
  x,y,z
_cell_length_a	14.560432
_cell_length_b	14.628931
_cell_length_c	14.628931
_cell_angle_alpha	60.000000
_cell_angle_beta	90.001120
_cell_angle_gamma	59.999957
loop_
_atom_site_label
_atom_site_type_symbol
_atom_site_fract_x
_atom_site_fract_y
_atom_site_fract_z
Zr1	Zr	0.884766	1.000566	-0.119940
O2	O	0.738116	1.191274	-0.265905
O3	O	0.929722	0.809859	-0.075194
O4	O	0.929721	1.000565	-0.265900
O5	O	0.738117	1.000568	0.075233
O6	O	1.080862	1.000563	-0.265896
O7	O	0.738117	1.000568	-0.075199
O8	O	1.080863	0.659424	0.075242
O9	O	0.738116	1.341706	-0.265905
O10	O	1.061689	0.888297	-0.056107
O11	O	0.948895	0.888299	0.056155
O12	O	0.948894	1.112831	-0.168376
O13	O	0.836100	1.112832	-0.056114
Zr14	Zr	1.125818	1.000562	0.119988
Zr15	Zr	1.125818	1.000562	-0.119934
Zr16	Zr	0.884766	1.000566	0.119981
Zr17	Zr	0.884765	1.240488	-0.119941
Zr18	Zr	1.125819	0.760640	0.119988
O19	O	1.080862	1.191269	0.075241
O20	O	1.080861	1.191269	-0.265896
O21	O	0.738117	1.191274	0.075232
O22	O	1.272468	0.809853	0.265953
O23	O	1.272467	0.809853	-0.075185
O24	O	0.929722	0.809859	0.265944
O25	O	1.272467	1.000559	-0.075185
O26	O	1.080863	1.000563	0.265947
O27	O	0.929722	1.000565	0.265943
O28	O	1.272467	1.000559	0.075247
O29	O	0.929720	1.341703	-0.265900
O30	O	1.080864	0.659424	0.265948
O31	O	1.272468	0.659421	0.265953
O32	O	1.272468	0.659421	0.075247
O33	O	0.738116	1.341706	-0.075200
O34	O	0.929721	1.341703	-0.075195
O35	O	1.061690	0.888297	0.168424
O36	O	1.174484	0.888295	0.056161
O37	O	1.061689	1.112829	-0.056108
O38	O	0.948894	1.112831	0.056155
C39	C	1.005293	0.700458	0.000024
C40	C	1.005293	0.598605	0.000025
C41	C	0.926162	0.631956	-0.078737
C42	C	0.926160	0.526688	-0.078739
C43	C	0.703772	1.000569	0.000016
C44	C	0.601439	1.000571	0.000013
C45	C	0.601415	1.000586	-0.165749
C46	C	0.553325	1.000598	-0.248630
C47	C	0.457175	1.000598	-0.248627
C48	C	0.409115	1.000582	-0.165731
C49	C	0.457205	1.000570	-0.082850
C50	C	0.553354	1.000574	-0.082865
C51	C	0.457234	1.000545	0.082915
C52	C	0.553379	1.000554	0.082909
C53	C	0.409174	1.000528	0.165811
C54	C	0.457259	1.000525	0.248689
C55	C	0.553413	1.000527	0.248681
C56	C	0.601469	1.000542	0.165790
C57	C	1.306812	1.000559	0.000032
C58	C	1.409145	1.000557	0.000034
C59	C	1.005291	1.000564	-0.300081
C60	C	1.005291	1.000564	-0.401934
C61	C	1.005291	1.300670	0.000023
C62	C	1.005291	1.402523	0.000023
C63	C	1.084422	1.000562	-0.447342
C64	C	1.084423	1.000562	-0.552612
C65	C	1.005293	1.000564	0.300129
C66	C	1.005293	1.000564	0.401982
C67	C	1.306812	0.700453	0.000032
C68	C	1.409145	0.598598	0.000035
C69	C	1.005293	0.700458	0.300130
C70	C	1.005294	0.598605	0.401983
C71	C	1.306813	0.700453	0.300137
C72	C	1.409146	0.598598	0.401993
C73	C	0.703771	1.300675	-0.300090
C74	C	0.601438	1.402530	-0.401946
C75	C	0.703772	1.300675	0.000015
C76	C	0.601439	1.402530	0.000013
C77	C	1.005291	1.300670	-0.300082
C78	C	1.005290	1.402523	-0.401935
C79	C	1.398815	0.553189	-0.055656
C80	C	1.504580	0.447917	-0.055655
C81	C	1.061248	0.553194	0.503085
C82	C	1.061249	0.447924	0.608357
C83	C	1.510723	0.553187	0.391714
C84	C	1.616492	0.447915	0.496986
H85	H	1.073037	0.374134	0.067461
H86	H	0.418024	1.000601	-0.316112
C87	C	1.378716	0.457323	-0.171516
C88	C	1.492863	0.395205	-0.120022
H89	H	1.371485	0.424772	-0.211248
H90	H	1.343628	0.547667	-0.222131
H91	H	1.343627	0.441638	-0.116086
H92	H	1.527951	0.410899	-0.175453
H93	H	1.527965	0.304840	-0.069404
H94	H	1.519387	0.592248	0.304979
H95	H	1.614830	0.441547	0.047730
C96	C	1.240110	0.504696	0.573331
C97	C	1.125912	0.605914	0.514749
H98	H	1.280026	0.537244	0.580542
H99	H	1.269170	0.467337	0.533591
H100	H	1.248581	0.440870	0.645598
H101	H	1.117440	0.669736	0.442478
H102	H	1.096842	0.643293	0.554488
C103	C	0.327034	0.889907	-0.065319
C104	C	0.303475	1.000484	-0.165713
H105	H	0.261830	0.889820	-0.065310
H106	H	0.348741	0.889941	-0.004114
H107	H	0.386501	0.814966	-0.058460
H108	H	0.244014	1.075425	-0.172568
H109	H	0.281753	1.000462	-0.226934
H110	H	1.152167	1.000568	-0.591664
C111	C	1.046238	0.394837	0.151314
C112	C	1.096752	0.454855	0.091061
H113	H	1.102705	0.306094	0.207522
H114	H	0.996605	0.402119	0.101900
H115	H	1.005161	0.435585	0.185399
H116	H	1.137822	0.414113	0.056969
H117	H	1.146404	0.447565	0.140483
H118	H	0.679697	1.000602	-0.165769
C119	C	1.816131	0.301146	0.591871
C120	C	1.734123	0.395221	0.485329
H121	H	1.888753	0.268626	0.584671
H122	H	1.807651	0.232485	0.631591
H123	H	1.807615	0.338537	0.631598
H124	H	1.742633	0.357827	0.445604
H125	H	1.742606	0.463894	0.445591
C126	C	1.170782	1.111121	-0.473026
C127	C	1.175886	1.000583	-0.394660
H128	H	1.227257	1.111134	-0.440514
H129	H	1.098889	1.186080	-0.494853
H130	H	1.182759	1.111102	-0.536850
H131	H	1.163902	1.000607	-0.330838
H132	H	1.247796	0.925605	-0.372817
C133	C	0.543642	1.000619	-0.412487
C134	C	0.606154	1.000614	-0.339746
H135	H	0.576262	1.000617	-0.468731
H136	H	0.468478	1.075594	-0.446521
H137	H	0.543809	0.925632	-0.371540
H138	H	0.605981	1.075605	-0.380692
H139	H	0.681338	0.925631	-0.305711
H140	H	1.400486	0.559544	0.488730
H141	H	0.937539	1.000572	-0.558979
H142	H	1.519021	0.441550	0.606715
H143	H	0.679755	1.000550	0.165773
C144	C	0.885213	0.835730	-0.230019
C145	C	0.834702	0.775708	-0.169767
H146	H	0.828746	0.924478	-0.286213
H147	H	0.926277	0.795001	-0.264111
H148	H	0.934860	0.828434	-0.180592
H149	H	0.785062	0.782995	-0.219192
H150	H	0.793619	0.816449	-0.135674
C151	C	0.852341	0.453312	-0.152096
C152	C	0.834657	0.565012	-0.169733
H153	H	0.795839	0.476976	-0.208266
H154	H	0.848954	0.403596	-0.080517
H155	H	0.924219	0.403620	-0.155562
H156	H	0.762782	0.614700	-0.166258
H157	H	0.838034	0.614749	-0.241330
H158	H	1.496291	0.559543	0.047711
H159	H	0.957386	0.559552	0.393361
H160	H	1.311669	0.592253	-0.103342
H161	H	0.330888	1.000520	0.165814
H162	H	1.109155	0.408871	0.695088
H163	H	0.957395	0.441561	0.511340
H164	H	0.418126	1.000503	0.316181
C165	C	0.964348	0.890034	-0.454423
C166	C	0.913833	1.000564	-0.454656
H167	H	0.907882	0.890041	-0.486976
H168	H	1.005414	0.815070	-0.379599
H169	H	1.013993	0.890046	-0.496553
H170	H	0.864194	1.000548	-0.412519
H171	H	0.872748	1.075549	-0.529492
C172	C	0.527503	1.111057	0.334697
C173	C	0.606269	1.000529	0.339777
H174	H	0.560135	1.111064	0.390929
H175	H	0.463379	1.111036	0.346573
H176	H	0.505591	1.186031	0.263145
H177	H	0.628175	0.925555	0.411326
H178	H	0.670413	1.000539	0.327909
