data_functionalizedCrystal
_audit_creation_method	'MofGen! by Chris Wilmer'
_symmetry_space_group_name_H-M	'P1'
_symmetry_Int_Tables_number	1
_symmetry_cell_setting	triclinic
loop_
_symmetry_equiv_pos_as_xyz
  x,y,z
_cell_length_a	6.817900
_cell_length_b	9.514072
_cell_length_c	9.514088
_cell_angle_alpha	83.785444
_cell_angle_beta	118.843545
_cell_angle_gamma	118.843421
loop_
_atom_site_label
_atom_site_type_symbol
_atom_site_fract_x
_atom_site_fract_y
_atom_site_fract_z
V1	V	-4.303761	-0.225059	-0.502017
O2	O	-4.198339	0.007885	-0.491166
O3	O	-4.337695	-0.443436	-0.499829
O4	O	-4.337705	-0.222882	-0.720396
O5	O	-4.198329	-0.214195	-0.269072
V6	V	-4.766051	-0.197044	-0.474004
O7	O	-4.611597	-0.286511	-0.563467
O8	O	-4.908413	-0.135592	-0.412554
O9	O	-4.508911	0.021333	-0.476192
O10	O	-4.988870	-0.429988	-0.484855
O11	O	-4.988881	-0.207908	-0.706949
O12	O	-4.508901	-0.199220	-0.255625
C13	C	-4.200061	-0.496631	-0.492231
C14	C	-4.309641	-0.675166	-0.491898
C15	C	-4.200071	-0.215291	-0.773584
C16	C	-4.309652	-0.214957	-0.952118
C17	C	-4.309889	0.074520	-0.483786
C18	C	-4.179551	0.253053	-0.484130
C19	C	-4.309876	-0.206816	-0.202429
C20	C	-4.179530	-0.207143	-0.023893
H21	H	-3.984305	-0.200723	-0.948761
O22	O	-4.542777	-0.764670	-0.499833
C23	C	-4.732398	-0.751345	-0.644681
H24	H	-4.637587	-0.634664	-0.689196
H25	H	-4.834182	-0.860360	-0.741368
C26	C	-5.046563	-0.890455	-0.557491
C27	C	-4.930115	-0.747138	-0.612157
H28	H	-5.168532	-0.887868	-0.537433
H29	H	-4.918815	-0.899439	-0.459906
H30	H	-5.131362	-0.981286	-0.638072
H31	H	-4.845292	-0.656313	-0.531569
H32	H	-5.057854	-0.738140	-0.709728
O33	O	-3.946390	-0.657341	-0.476122
C34	C	-3.756800	-0.670742	-0.331315
H35	H	-3.825357	-0.706042	-0.238209
H36	H	-3.721574	-0.767962	-0.357776
C37	C	-3.420474	-0.463008	-0.377516
C38	C	-3.504668	-0.506351	-0.263156
H39	H	-3.264943	-0.361608	-0.335474
H40	H	-3.548204	-0.453983	-0.475079
H41	H	-3.391139	-0.544038	-0.399557
H42	H	-3.534033	-0.425333	-0.241132
H43	H	-3.376938	-0.515359	-0.165587
O44	O	-4.542799	-0.222925	-1.041730
C45	C	-4.732446	-0.367759	-1.028411
H46	H	-4.663928	-0.460886	-0.993164
H47	H	-4.767710	-0.341357	-0.931186
C48	C	-5.068682	-0.321457	-1.236102
C49	C	-4.984536	-0.435841	-1.192824
H50	H	-5.224188	-0.363451	-1.337516
H51	H	-4.940914	-0.223876	-1.245072
H52	H	-5.098049	-0.299465	-1.155068
H53	H	-4.955140	-0.457815	-1.273847
H54	H	-5.112305	-0.533428	-1.183871
