data_functionalizedCrystal
_audit_creation_method	'MofGen! by Chris Wilmer'
_symmetry_space_group_name_H-M	'P1'
_symmetry_Int_Tables_number	1
_symmetry_cell_setting	triclinic
loop_
_symmetry_equiv_pos_as_xyz
  x,y,z
_cell_length_a	14.908795
_cell_length_b	14.908178
_cell_length_c	12.759393
_cell_angle_alpha	86.667587
_cell_angle_beta	86.678446
_cell_angle_gamma	96.402092
loop_
_atom_site_label
_atom_site_type_symbol
_atom_site_fract_x
_atom_site_fract_y
_atom_site_fract_z
Zn1	Zn	1.363093	-0.280584	-0.666918
Zn2	Zn	1.354256	-0.431993	-0.480453
Zn3	Zn	1.211713	-0.289354	-0.480470
Zn4	Zn	1.202965	-0.440642	-0.645321
O5	O	1.283007	-0.360643	-0.568290
O6	O	1.488589	-0.293379	-0.651214
O7	O	1.335311	-0.413123	-0.333428
O8	O	1.239154	-0.161512	-0.514248
O9	O	1.482097	-0.404618	-0.514219
O10	O	1.350371	-0.155068	-0.651230
O11	O	1.230585	-0.308327	-0.333441
O12	O	1.083884	-0.316713	-0.493307
O13	O	1.224243	-0.419359	-0.795213
O14	O	1.077456	-0.427863	-0.614422
O15	O	1.341888	-0.301765	-0.811080
O16	O	1.326828	-0.559820	-0.493278
O17	O	1.215674	-0.566174	-0.614406
C18	C	1.047826	-0.374179	-0.551523
C19	C	0.947214	-0.379991	-0.544374
C20	C	0.802032	-0.446003	-0.462874
C21	C	0.896566	-0.440546	-0.469591
C22	C	0.903321	-0.324888	-0.612442
C23	C	0.808787	-0.330346	-0.605725
C24	C	0.758146	-0.390907	-0.530940
C25	C	0.663609	-0.396368	-0.524228
C26	C	0.670366	-0.280707	-0.667074
C27	C	0.764900	-0.275249	-0.673791
C28	C	1.269367	-0.595842	-0.551521
C29	C	1.263615	-0.696456	-0.544388
C30	C	1.368530	-0.878666	-0.673763
C31	C	1.363128	-0.973202	-0.667064
C32	C	1.247407	-0.980066	-0.524299
C33	C	1.252808	-0.885530	-0.530998
C34	C	1.313373	-0.834833	-0.605731
C35	C	1.318778	-0.740296	-0.612423
C36	C	1.203053	-0.747161	-0.469664
C37	C	1.197651	-0.841697	-0.462966
C38	C	1.519105	-0.347055	-0.585124
C39	C	1.619717	-0.341265	-0.592297
C40	C	1.283075	-0.360548	-0.842335
C41	C	1.283105	-0.360508	-0.959116
C42	C	1.296724	-0.124525	-0.585150
C43	C	1.302570	-0.023905	-0.592334
C44	C	1.344371	-0.299271	-1.022243
C45	C	1.344394	-0.299237	-1.131971
C46	C	1.221882	-0.421685	-1.115435
C47	C	1.221855	-0.421714	-1.005709
C48	C	1.415105	-0.228579	-1.031790
C49	C	1.415128	-0.228545	-1.141518
C50	C	1.282994	-0.360670	-0.295320
C51	C	1.283155	-0.360445	-0.178570
H52	H	0.806145	-0.225940	-0.734676
H53	H	1.148339	-0.882987	-0.402123
H54	H	1.171963	-0.471576	-0.954315
H55	H	1.158143	-0.711461	-0.414265
H56	H	0.932295	-0.485411	-0.414164
H57	H	1.480228	-0.249875	-1.000708
H58	H	1.368095	-0.699019	-0.673272
H59	H	1.393892	-0.163379	-1.178521
H60	H	1.172013	-0.471515	-1.153385
H61	H	1.400399	-0.159554	-1.005689
H62	H	1.484150	-0.243282	-1.174954
H63	H	0.944570	-0.275578	-0.673323
H64	H	0.760799	-0.495321	-0.401988
H65	H	0.622378	-0.445683	-0.463337
H66	H	0.634624	-0.235844	-0.722499
H67	H	1.408038	-1.008888	-0.722468
H68	H	1.198094	-1.021359	-0.463460
H69	H	1.417850	-0.837388	-0.734606
