data_functionalizedCrystal
_audit_creation_method	'MofGen! by Chris Wilmer'
_symmetry_space_group_name_H-M	'P1'
_symmetry_Int_Tables_number	1
_symmetry_cell_setting	triclinic
loop_
_symmetry_equiv_pos_as_xyz
  x,y,z
_cell_length_a	13.262390
_cell_length_b	17.019294
_cell_length_c	11.804365
_cell_angle_alpha	98.044273
_cell_angle_beta	62.657606
_cell_angle_gamma	82.863057
loop_
_atom_site_label
_atom_site_type_symbol
_atom_site_fract_x
_atom_site_fract_y
_atom_site_fract_z
O1	O	1.519525	0.011398	-0.592345
O2	O	1.191780	0.039487	-0.489076
O3	O	1.362137	-0.087838	-0.531189
O4	O	1.349168	0.138722	-0.550232
O5	O	1.317288	-0.054350	-0.322043
O6	O	1.146931	0.072975	-0.279930
O7	O	1.474676	0.044886	-0.383199
Cu8	Cu	1.306708	0.061988	-0.312468
Cu9	Cu	1.359748	0.022385	-0.559807
O10	O	1.304319	0.172210	-0.341086
C11	C	1.127369	0.057736	-0.371059
C12	C	1.002264	0.062213	-0.330999
C13	C	0.747416	0.001799	-0.674118
C14	C	0.864959	-0.002411	-0.711758
C15	C	0.899291	0.013745	-0.616571
C16	C	0.816068	0.034110	-0.483738
C17	C	0.698514	0.038314	-0.446094
C18	C	0.850390	0.050260	-0.388548
C19	C	0.767167	0.070626	-0.255715
C20	C	0.649625	0.074830	-0.218077
C21	C	0.615293	0.058674	-0.313264
C22	C	0.967944	0.046057	-0.426192
C23	C	0.919043	0.082572	-0.198169
C24	C	0.801499	0.086782	-0.160529
C25	C	1.338336	-0.099940	-0.423213
C26	C	1.334222	-0.185893	-0.413070
C27	C	1.356739	-0.244523	-0.522311
C28	C	1.352865	-0.325283	-0.512774
C29	C	1.326483	-0.347412	-0.393998
C30	C	1.303961	-0.288774	-0.284749
C31	C	1.307827	-0.208014	-0.294284
C32	C	1.313580	-0.590339	-0.359502
C33	C	1.309719	-0.671106	-0.349976
C34	C	1.358622	-0.707609	-0.578001
C35	C	1.362493	-0.626848	-0.587528
C36	C	1.339965	-0.568216	-0.478277
C37	C	1.322526	-0.429962	-0.384248
C38	C	1.343913	-0.485667	-0.488025
C39	C	1.539087	0.026636	-0.501219
C40	C	1.664194	0.022158	-0.541287
C41	C	1.328121	0.184312	-0.449065
C42	C	1.332236	0.270264	-0.459216
N43	N	1.269412	0.089842	-0.138505
N44	N	1.397053	-0.005476	-0.733772
C45	C	1.486616	-0.072379	0.181738
C46	C	1.514830	-0.093454	0.050100
C47	C	1.453477	-0.047632	0.002942
C48	C	1.363907	0.019269	0.087435
C49	C	1.335697	0.040350	0.219083
C50	C	1.302558	0.065097	0.040288
C51	C	1.212988	0.131998	0.124780
C52	C	1.184781	0.153075	0.256415
C53	C	1.246134	0.107253	0.303573
C54	C	1.330768	0.044016	-0.091360
C55	C	1.179849	0.156745	-0.054015
C56	C	1.151635	0.177820	0.077622
H57	H	0.581869	0.091399	-0.109916
H58	H	0.995002	0.010317	-0.647226
H59	H	1.035694	0.029476	-0.534345
Cl60	Cl	1.276557	-0.698923	-0.200648
Cl61	Cl	0.696865	0.112383	0.006456
H62	H	0.932712	-0.018997	-0.819910
H63	H	0.946994	0.095726	-0.120660
H64	H	1.476453	-0.064794	-0.104244
Cl65	Cl	1.389915	-0.216715	-0.671639
H66	H	0.719450	-0.011361	-0.751603
H67	H	1.078705	0.232293	0.146432
H68	H	1.111857	0.207555	0.325207
Cl69	Cl	1.102720	0.214357	-0.113292
Cl70	Cl	1.381176	-0.398988	-0.650113
H71	H	1.282473	-0.306796	-0.188037
H72	H	1.295259	-0.542613	-0.270548
Cl73	Cl	1.563746	-0.129972	0.241021
H74	H	1.289475	-0.160274	-0.205324
H75	H	1.365386	-0.467645	-0.584729
Cl76	Cl	1.395664	-0.599036	-0.736853
H77	H	1.301049	-0.447988	-0.287542
Cl78	Cl	1.210659	0.133746	0.469069
H79	H	1.376961	-0.755355	-0.666947
Cl80	Cl	1.443365	-0.040085	-0.197562
Cl81	Cl	1.627426	-0.177553	-0.056115
H82	H	0.519581	0.062103	-0.282624
