data_functionalizedCrystal
_audit_creation_method	'MofGen! by Chris Wilmer'
_symmetry_space_group_name_H-M	'P1'
_symmetry_Int_Tables_number	1
_symmetry_cell_setting	triclinic
loop_
_symmetry_equiv_pos_as_xyz
  x,y,z
_cell_length_a	13.448316
_cell_length_b	14.971486
_cell_length_c	14.971494
_cell_angle_alpha	96.384157
_cell_angle_beta	89.995115
_cell_angle_gamma	90.001801
loop_
_atom_site_label
_atom_site_type_symbol
_atom_site_fract_x
_atom_site_fract_y
_atom_site_fract_z
O1	O	-0.082574	-1.186951	0.116564
O2	O	0.250760	-0.853618	0.449898
O3	O	0.584093	-0.520284	0.783231
O4	O	-0.082600	-0.926551	0.130523
O5	O	0.250733	-0.593218	0.463856
O6	O	0.584066	-0.259884	0.797190
O7	O	-0.082584	-1.063726	-0.006656
O8	O	0.250749	-0.730393	0.326677
O9	O	0.584083	-0.397060	0.660011
O10	O	-0.082590	-1.049776	0.253743
O11	O	0.250743	-0.716442	0.587077
O12	O	0.584077	-0.383109	0.920410
O13	O	0.082800	-1.063709	-0.006664
O14	O	0.416133	-0.730376	0.326669
O15	O	0.749466	-0.397043	0.660002
O16	O	0.082784	-0.926534	0.130515
O17	O	0.416117	-0.593201	0.463848
O18	O	0.749450	-0.259867	0.797181
O19	O	0.082810	-1.186934	0.116556
O20	O	0.416144	-0.853600	0.449889
O21	O	0.749477	-0.520267	0.783223
Cu22	Cu	0.097898	-1.056732	0.123534
Cu23	Cu	0.431231	-0.723399	0.456868
Cu24	Cu	0.764564	-0.390066	0.790201
Cu25	Cu	-0.097688	-1.056753	0.123544
Cu26	Cu	0.235646	-0.723419	0.456878
Cu27	Cu	0.568979	-0.390086	0.790211
O28	O	0.082794	-1.049758	0.253735
O29	O	0.416127	-0.716425	0.587068
O30	O	0.749461	-0.383092	0.920401
C31	C	0.000088	-0.893218	0.129895
C32	C	0.333422	-0.559884	0.463228
C33	C	0.666755	-0.226551	0.796561
C34	C	0.000078	-0.793921	0.128024
C35	C	0.333411	-0.460587	0.461357
C36	C	0.666745	-0.127254	0.794691
N37	N	0.235462	-1.056724	0.123527
N38	N	0.568795	-0.723391	0.456860
N39	N	0.902129	-0.390058	0.790194
C40	C	0.000106	-1.063093	-0.039985
C41	C	0.333440	-0.729759	0.293349
C42	C	0.666773	-0.396426	0.626682
C43	C	0.000102	-1.061219	-0.139281
C44	C	0.333435	-0.727886	0.194052
C45	C	0.666768	-0.394552	0.527385
N46	N	-0.235252	-1.056768	0.123545
N47	N	0.098081	-0.723434	0.456878
N48	N	0.431415	-0.390101	0.790212
C49	C	0.287510	-1.117484	0.062809
C50	C	0.620843	-0.784151	0.396142
C51	C	0.954176	-0.450818	0.729476
C52	C	0.391613	-1.117490	0.062808
C53	C	0.724946	-0.784157	0.396142
C54	C	1.058280	-0.450823	0.729475
C55	C	0.443667	-1.056739	0.123530
C56	C	0.777000	-0.723406	0.456864
C57	C	1.110333	-0.390072	0.790197
C58	C	0.391612	-0.995973	0.184251
C59	C	0.724945	-0.662639	0.517584
C60	C	1.058278	-0.329306	0.850918
C61	C	0.287510	-0.995963	0.184247
C62	C	0.620844	-0.662630	0.517580
C63	C	0.954177	-0.329297	0.850914
C64	C	0.608592	-0.995997	0.184257
C65	C	0.941925	-0.662664	0.517590
C66	C	1.275259	-0.329331	0.850924
C67	C	0.712700	-0.996007	0.184263
C68	C	1.046034	-0.662674	0.517596
C69	C	1.379367	-0.329341	0.850929
C70	C	0.712694	-1.117524	0.062819
C71	C	1.046028	-0.784191	0.396152
C72	C	1.379361	-0.450857	0.729485
C73	C	0.608593	-1.117515	0.062814
C74	C	0.941926	-0.784182	0.396148
C75	C	1.275260	-0.450848	0.729481
C76	C	0.556545	-1.056749	0.123536
C77	C	0.889879	-0.723416	0.456870
C78	C	1.223212	-0.390083	0.790203
C79	C	0.000120	-1.220267	0.117184
C80	C	0.333453	-0.886934	0.450518
C81	C	0.666786	-0.553600	0.783851
C82	C	0.000123	-1.319564	0.119055
C83	C	0.333457	-0.986231	0.452388
C84	C	0.666790	-0.652897	0.785722
C85	C	0.000078	-0.736698	0.208613
C86	C	0.333411	-0.403364	0.541946
C87	C	0.666744	-0.070031	0.875279
C88	C	0.000092	-0.643398	0.206850
C89	C	0.333426	-0.310065	0.540183
C90	C	0.666759	0.023268	0.873516
C91	C	0.000101	-0.607323	0.124497
C92	C	0.333434	-0.273990	0.457830
C93	C	0.666767	0.059343	0.791163
C94	C	0.000104	-0.664554	0.043902
C95	C	0.333437	-0.331220	0.377235
C96	C	0.666771	0.002113	0.710568
C97	C	0.000096	-0.757851	0.045666
C98	C	0.333430	-0.424518	0.378999
C99	C	0.666763	-0.091185	0.712332
C100	C	0.000118	-0.470091	0.040231
C101	C	0.333451	-0.136758	0.373564
C102	C	0.666784	0.196576	0.706897
C103	C	0.000124	-0.376787	0.038466
C104	C	0.333457	-0.043454	0.371799
C105	C	0.666790	0.289880	0.705133
C106	C	0.000114	-0.355638	0.201415
C107	C	0.333447	-0.022305	0.534748
C108	C	0.666781	0.311029	0.868081
C109	C	0.000106	-0.448936	0.203179
C110	C	0.333440	-0.115602	0.536512
C111	C	0.666773	0.217731	0.869845
C112	C	0.000108	-0.506160	0.122583
C113	C	0.333441	-0.172826	0.455916
C114	C	0.666774	0.160507	0.789250
C115	C	-0.090050	-1.060350	-0.185921
C116	C	0.243283	-0.727017	0.147412
C117	C	0.576616	-0.393683	0.480745
C118	C	-0.090052	-1.058584	-0.279221
C119	C	0.243282	-0.725250	0.054113
C120	C	0.576615	-0.391917	0.387446
C121	C	0.000100	-1.057693	-0.325879
C122	C	0.333433	-0.724359	0.007455
C123	C	0.666766	-0.391026	0.340788
C124	C	0.090259	-1.058559	-0.279232
C125	C	0.423592	-0.725226	0.054102
C126	C	0.756925	-0.391892	0.387435
C127	C	0.090259	-1.060319	-0.185933
C128	C	0.423592	-0.726985	0.147400
C129	C	0.756926	-0.393652	0.480733
C130	C	0.090252	-1.054893	-0.473695
C131	C	0.423585	-0.721560	-0.140361
C132	C	0.756918	-0.388226	0.192972
C133	C	0.090252	-1.053135	-0.567000
C134	C	0.423585	-0.719801	-0.233666
C135	C	0.756918	-0.386468	0.099667
C136	C	-0.090059	-1.053158	-0.566982
C137	C	0.243274	-0.719825	-0.233649
C138	C	0.576607	-0.386491	0.099685
C139	C	-0.090059	-1.054918	-0.473684
C140	C	0.243274	-0.721585	-0.140350
C141	C	0.576608	-0.388251	0.192983
C142	C	0.000100	-1.055786	-0.427043
C143	C	0.333434	-0.722452	-0.093710
C144	C	0.666767	-0.389119	0.239623
C145	C	0.000101	-1.050392	0.287064
C146	C	0.333435	-0.717059	0.620397
C147	C	0.666768	-0.383725	0.953730
C148	C	0.000100	-1.052266	0.386360
C149	C	0.333433	-0.718933	0.719694
C150	C	0.666766	-0.385599	1.053027
H151	H	0.245134	-1.166959	0.013366
H152	H	0.578468	-0.833625	0.346699
H153	H	0.911801	-0.500292	0.680033
H154	H	0.000096	-0.804442	-0.019958
H155	H	0.333429	-0.471109	0.313375
H156	H	0.666763	-0.137776	0.646708
H157	H	0.000090	-0.478304	0.270238
H158	H	0.333423	-0.144971	0.603571
H159	H	0.666757	0.188362	0.936904
H160	H	0.163662	-1.057828	-0.317227
H161	H	0.496995	-0.724495	0.016106
H162	H	0.830328	-0.391161	0.349439
H163	H	0.434000	-0.946503	0.233689
H164	H	0.767333	-0.613170	0.567023
H165	H	1.100667	-0.279837	0.900356
H166	H	0.245134	-0.946485	0.233688
H167	H	0.578468	-0.613152	0.567022
H168	H	0.911801	-0.279819	0.900355
H169	H	0.755077	-0.946537	0.233708
H170	H	1.088411	-0.613203	0.567041
H171	H	1.421744	-0.279870	0.900375
H172	H	0.000117	-0.309041	0.267038
H173	H	0.333450	0.024292	0.600372
H174	H	0.666784	0.357625	0.933705
H175	H	0.755078	-1.167001	0.013377
H176	H	1.088411	-0.833668	0.346710
H177	H	1.421744	-0.500334	0.680043
H178	H	-0.163463	-1.061080	-0.147940
H179	H	0.169871	-0.727747	0.185394
H180	H	0.503204	-0.394414	0.518727
H181	H	-0.163463	-1.057880	-0.317191
H182	H	0.169871	-0.724547	0.016142
H183	H	0.503204	-0.391213	0.349475
H184	H	0.000125	-0.635174	-0.023152
H185	H	0.333458	-0.301841	0.310182
H186	H	0.666792	0.031492	0.643515
H187	H	0.163669	-1.055580	-0.435721
H188	H	0.497002	-0.722247	-0.102387
H189	H	0.830336	-0.388913	0.230946
H190	H	-0.163468	-1.055650	-0.435698
H191	H	0.169865	-0.722317	-0.102365
H192	H	0.503198	-0.388983	0.230969
H193	H	-0.163470	-1.052449	-0.604961
H194	H	0.169863	-0.719116	-0.271627
H195	H	0.503196	-0.385783	0.061706
H196	H	0.000132	-0.347418	-0.028593
H197	H	0.333465	-0.014085	0.304741
H198	H	0.666798	0.319248	0.638074
H199	H	0.163661	-1.052402	-0.604985
H200	H	0.496994	-0.719068	-0.271652
H201	H	0.830328	-0.385735	0.061682
H202	H	0.163670	-1.061014	-0.147959
H203	H	0.497003	-0.727680	0.185375
H204	H	0.830337	-0.394347	0.518708
H205	H	0.000091	-0.596810	0.272473
H206	H	0.333424	-0.263477	0.605807
H207	H	0.666758	0.069856	0.939140
H208	H	0.433990	-1.166965	0.013367
H209	H	0.767323	-0.833632	0.346700
H210	H	1.100656	-0.500298	0.680033
H211	H	0.566211	-1.166987	0.013374
H212	H	0.899544	-0.833654	0.346708
H213	H	1.232878	-0.500320	0.680041
H214	H	0.566218	-0.946512	0.233701
H215	H	0.899551	-0.613179	0.567034
H216	H	1.232885	-0.279846	0.900367
H217	H	0.000070	-0.766062	0.275674
H218	H	0.333404	-0.432729	0.609007
H219	H	0.666737	-0.099395	0.942341
H220	H	0.000121	-0.516681	-0.025399
H221	H	0.333454	-0.183348	0.307934
H222	H	0.666787	0.149986	0.641268
