data_functionalizedCrystal
_audit_creation_method	'MofGen! by Chris Wilmer'
_symmetry_space_group_name_H-M	'P1'
_symmetry_Int_Tables_number	1
_symmetry_cell_setting	triclinic
loop_
_symmetry_equiv_pos_as_xyz
  x,y,z
_cell_length_a	19.121747
_cell_length_b	21.395362
_cell_length_c	21.395355
_cell_angle_alpha	89.956060
_cell_angle_beta	92.423270
_cell_angle_gamma	87.607996
loop_
_atom_site_label
_atom_site_type_symbol
_atom_site_fract_x
_atom_site_fract_y
_atom_site_fract_z
Zn1	Zn	-0.279375	0.968491	-0.365231
Zn2	Zn	0.053958	1.301825	-0.031898
Zn3	Zn	0.387292	1.635158	0.301435
Zn4	Zn	-0.396799	0.972862	-0.264928
Zn5	Zn	-0.063465	1.306196	0.068405
Zn6	Zn	0.269868	1.639529	0.401738
Zn7	Zn	-0.279408	0.863707	-0.260434
Zn8	Zn	0.053926	1.197041	0.072899
Zn9	Zn	0.387259	1.530374	0.406233
Zn10	Zn	-0.396813	0.868145	-0.369634
Zn11	Zn	-0.063480	1.201478	-0.036300
Zn12	Zn	0.269854	1.534811	0.297033
O13	O	-0.338099	0.918301	-0.315057
O14	O	-0.004765	1.251635	0.018276
O15	O	0.328568	1.584968	0.351610
O16	O	-0.294932	1.056748	-0.351965
O17	O	0.038401	1.390082	-0.018631
O18	O	0.371735	1.723415	0.314702
O19	O	-0.381234	0.958355	-0.176655
O20	O	-0.047901	1.291689	0.156679
O21	O	0.285433	1.625022	0.490012
O22	O	-0.181127	0.873921	-0.270612
O23	O	0.152207	1.207254	0.062721
O24	O	0.485540	1.540588	0.396054
O25	O	-0.381202	1.059960	-0.278272
O26	O	-0.047869	1.393293	0.055061
O27	O	0.285464	1.726626	0.388394
O28	O	-0.181103	0.950905	-0.347606
O29	O	0.152231	1.284239	-0.014273
O30	O	0.485564	1.617572	0.319060
O31	O	-0.294988	0.878160	-0.173353
O32	O	0.038346	1.211493	0.159981
O33	O	0.371679	1.544826	0.493314
O34	O	-0.295002	0.776619	-0.274881
O35	O	0.038332	1.109952	0.058452
O36	O	0.371665	1.443286	0.391786
O37	O	-0.381227	0.881483	-0.456727
O38	O	-0.047894	1.214817	-0.123394
O39	O	0.285440	1.548150	0.209939
O40	O	-0.381259	0.779879	-0.355110
O41	O	-0.047925	1.113212	-0.021776
O42	O	0.285408	1.446546	0.311557
O43	O	-0.294946	0.955208	-0.453493
O44	O	0.038387	1.288541	-0.120160
O45	O	0.371721	1.621874	0.213174
O46	O	-0.495077	0.962658	-0.282541
O47	O	-0.161744	1.295991	0.050792
O48	O	0.171589	1.629324	0.384126
O49	O	-0.495088	0.885722	-0.359468
O50	O	-0.161755	1.219055	-0.026134
O51	O	0.171579	1.552389	0.307199
C52	C	-0.338136	0.755515	-0.314986
C53	C	-0.004802	1.088849	0.018348
C54	C	0.328531	1.422182	0.351681
C55	C	-0.338169	0.685875	-0.314971
C56	C	-0.004835	1.019208	0.018363
C57	C	0.328498	1.352542	0.351696
C58	C	-0.383142	0.654878	-0.356688
C59	C	-0.049809	0.988211	-0.023355
C60	C	0.283524	1.321545	0.309979
C61	C	-0.383125	0.589442	-0.356715
C62	C	-0.049792	0.922775	-0.023382
C63	C	0.283542	1.256109	0.309951
C64	C	-0.338142	0.555006	-0.315014
C65	C	-0.004808	0.888339	0.018319
C66	C	0.328525	1.221673	0.351652
C67	C	-0.293159	0.586010	-0.273294
C68	C	0.040174	0.919344	0.060040
C69	C	0.373507	1.252677	0.393373
C70	C	-0.293173	0.651445	-0.273272
C71	C	0.040161	0.984778	0.060061
C72	C	0.373494	1.318112	0.393395
C73	C	-0.332484	0.451066	-0.258393
C74	C	0.000849	0.784399	0.074940
C75	C	0.334183	1.117732	0.408273
C76	C	-0.332475	0.385633	-0.258414
C77	C	0.000858	0.718966	0.074919
C78	C	0.334191	1.052299	0.408252
C79	C	-0.338096	0.353183	-0.315082
C80	C	-0.004762	0.686517	0.018252
C81	C	0.328571	1.019850	0.351585
C82	C	-0.343739	0.386176	-0.371730
C83	C	-0.010406	0.719510	-0.038397
C84	C	0.322927	1.052843	0.294936
C85	C	-0.343753	0.451611	-0.371709
C86	C	-0.010420	0.784944	-0.038375
C87	C	0.322914	1.118277	0.294958
C88	C	-0.338122	0.484053	-0.315033
C89	C	-0.004788	0.817386	0.018300
C90	C	0.328545	1.150719	0.351633
C91	C	-0.383053	0.251233	-0.356832
C92	C	-0.049720	0.584567	-0.023499
C93	C	0.283614	0.917900	0.309835
C94	C	-0.383031	0.185796	-0.356860
C95	C	-0.049698	0.519129	-0.023527
C96	C	0.283636	0.852463	0.309807
C97	C	-0.293069	0.182366	-0.273433
C98	C	0.040264	0.515699	0.059900
C99	C	0.373598	0.849032	0.393233
C100	C	-0.293087	0.247802	-0.273411
C101	C	0.040246	0.581135	0.059923
C102	C	0.373579	0.914468	0.393256
C103	C	-0.338083	0.282232	-0.315109
C104	C	-0.004750	0.615565	0.018224
C105	C	0.328584	0.948898	0.351557
C106	C	-0.520565	0.925163	-0.321984
C107	C	-0.187231	1.258496	0.011350
C108	C	0.146102	1.591829	0.344683
C109	C	-0.598624	0.928155	-0.324968
C110	C	-0.265291	1.261488	0.008366
C111	C	0.068042	1.594822	0.341699
C112	C	-1.040110	0.947139	-0.343871
C113	C	-0.706777	1.280473	-0.010538
C114	C	-0.373444	1.613806	0.322796
C115	C	-0.966765	0.944320	-0.341061
C116	C	-0.633432	1.277654	-0.007728
C117	C	-0.300098	1.610987	0.325605
C118	C	-0.930171	0.902862	-0.299543
C119	C	-0.596838	1.236195	0.033790
C120	C	-0.263504	1.569528	0.367123
C121	C	-0.966926	0.864223	-0.260828
C122	C	-0.633593	1.197557	0.072506
C123	C	-0.300260	1.530890	0.405839
C124	C	-1.040270	0.867046	-0.263634
C125	C	-0.706937	1.200379	0.069699
C126	C	-0.373604	1.533712	0.403032
C127	C	-0.708723	0.892339	-0.289059
C128	C	-0.375390	1.225673	0.044275
C129	C	-0.042057	1.559006	0.377608
C130	C	-0.635374	0.889519	-0.286256
C131	C	-0.302041	1.222852	0.047077
C132	C	0.031292	1.556185	0.380410
C133	C	-0.635218	0.969617	-0.366490
C134	C	-0.301885	1.302950	-0.033156
C135	C	0.031449	1.636284	0.300177
C136	C	-0.708564	0.972433	-0.369295
C137	C	-0.375230	1.305766	-0.035962
C138	C	-0.041897	1.639099	0.297371
C139	C	-0.745312	0.933797	-0.330578
C140	C	-0.411979	1.267130	0.002756
C141	C	-0.078646	1.600464	0.336089
C142	C	-0.855200	0.899978	-0.296672
C143	C	-0.521867	1.233311	0.036661
C144	C	-0.188534	1.566645	0.369995
C145	C	-0.820282	0.936684	-0.333446
C146	C	-0.486948	1.270018	-0.000113
C147	C	-0.153615	1.603351	0.333221
C148	C	-0.154920	0.911431	-0.308117
C149	C	0.178413	1.244764	0.025216
C150	C	0.511746	1.578097	0.358550
C151	C	-0.076860	0.908503	-0.305160
C152	C	0.256473	1.241836	0.028174
C153	C	0.589806	1.575169	0.361507
C154	C	-0.338084	0.918353	-0.478480
C155	C	-0.004751	1.251686	-0.145146
C156	C	0.328582	1.585020	0.188187
C157	C	-0.338078	0.918375	-0.548121
C158	C	-0.004745	1.251708	-0.214787
C159	C	0.328588	1.585042	0.118546
C160	C	-0.338062	1.081723	-0.315129
C161	C	-0.004729	1.415057	0.018205
C162	C	0.328605	1.748390	0.351538
C163	C	-0.338046	1.151364	-0.315159
C164	C	-0.004713	1.484697	0.018174
C165	C	0.328620	1.818031	0.351507
C166	C	-0.293150	0.956761	-0.579151
C167	C	0.040183	1.290095	-0.245817
C168	C	0.373517	1.623428	0.087516
C169	C	-0.293120	0.956759	-0.644585
C170	C	0.040214	1.290093	-0.311252
C171	C	0.373547	1.623426	0.022082
C172	C	-0.338031	0.918378	-0.678987
C173	C	-0.004697	1.251711	-0.345654
C174	C	0.328636	1.585045	-0.012321
C175	C	-0.382962	0.879984	-0.647950
C176	C	-0.049629	1.213317	-0.314616
C177	C	0.283704	1.546650	0.018717
C178	C	-0.382986	0.879982	-0.582516
C179	C	-0.049653	1.213316	-0.249183
C180	C	0.283681	1.546649	0.084150
C181	C	-0.401267	0.915808	-0.785061
C182	C	-0.067934	1.249142	-0.451728
C183	C	0.265400	1.582475	-0.118394
C184	C	-0.401244	0.915814	-0.850493
C185	C	-0.067911	1.249148	-0.517160
C186	C	0.265422	1.582481	-0.183826
C187	C	-0.337956	0.918379	-0.880805
C188	C	-0.004623	1.251712	-0.547472
C189	C	0.328710	1.585046	-0.214139
C190	C	-0.274689	0.920951	-0.845677
C191	C	0.058644	1.254284	-0.512344
C192	C	0.391978	1.587617	-0.179011
C193	C	-0.274713	0.920949	-0.780244
C194	C	0.058620	1.254282	-0.446911
C195	C	0.391954	1.587616	-0.113578
C196	C	-0.338009	0.918375	-0.749939
C197	C	-0.004676	1.251708	-0.416606
C198	C	0.328657	1.585042	-0.083272
C199	C	-0.292991	0.956765	-0.982786
C200	C	0.040342	1.290099	-0.649453
C201	C	0.373675	1.623432	-0.316120
C202	C	-0.292960	0.956759	-1.048222
C203	C	0.040373	1.290092	-0.714889
C204	C	0.373707	1.623425	-0.381555
C205	C	-0.382809	0.879987	-1.051586
C206	C	-0.049475	1.213320	-0.718252
C207	C	0.283858	1.546654	-0.384919
C208	C	-0.382834	0.879990	-0.986151
C209	C	-0.049500	1.213323	-0.652818
C210	C	0.283833	1.546656	-0.319484
C211	C	-0.337926	0.918382	-0.951756
C212	C	-0.004593	1.251716	-0.618422
C213	C	0.328741	1.585049	-0.285089
C214	C	-0.338062	0.918284	-0.152268
C215	C	-0.004729	1.251618	0.181065
C216	C	0.328605	1.584951	0.514399
C217	C	-0.337870	0.918376	-0.082620
C218	C	-0.004537	1.251710	0.250714
C219	C	0.328796	1.585043	0.584047
H220	H	-0.327884	0.358775	-0.212288
H221	H	0.005449	0.692108	0.121046
H222	H	0.338782	1.025442	0.454379
C223	C	-0.748811	1.018050	-0.414959
C224	C	-0.415478	1.351384	-0.081626
C225	C	-0.082145	1.684717	0.251707
N226	N	-0.779126	1.052412	-0.449352
N227	N	-0.445793	1.385746	-0.116019
N228	N	-0.112459	1.719079	0.217315
H229	H	-0.419748	0.564199	-0.390689
H230	H	-0.086414	0.897533	-0.057355
H231	H	0.246919	1.230866	0.275978
C232	C	-0.205066	0.923770	-0.879016
C233	C	0.128267	1.257104	-0.545682
C234	C	0.461600	1.590437	-0.212349
N235	N	-0.152628	0.925895	-0.904129
N236	N	0.180705	1.259228	-0.570796
N237	N	0.514038	1.592562	-0.237463
H238	H	-0.850080	0.970442	-0.367248
H239	H	-0.516746	1.303775	-0.033914
H240	H	-0.183413	1.637109	0.299419
C241	C	-0.594789	1.012119	-0.409071
C242	C	-0.261455	1.345452	-0.075738
C243	C	0.071878	1.678785	0.257595
N244	N	-0.564337	1.044135	-0.441143
N245	N	-0.231003	1.377469	-0.107809
N246	N	0.102330	1.710802	0.225524
C247	C	-0.470839	0.912985	-0.889127
C248	C	-0.137506	1.246319	-0.555794
C249	C	0.195828	1.579652	-0.222461
N250	N	-0.523260	0.910853	-0.918225
N251	N	-0.189926	1.244186	-0.584892
N252	N	0.143407	1.577519	-0.251559
C253	C	-0.349960	0.487900	-0.434021
C254	C	-0.016627	0.821234	-0.100687
C255	C	0.316706	1.154567	0.232646
N256	N	-0.354635	0.515233	-0.480955
N257	N	-0.021301	0.848567	-0.147622
N258	N	0.312032	1.181900	0.185712
H259	H	-0.348315	0.359758	-0.417874
H260	H	-0.014982	0.693091	-0.084541
H261	H	0.318352	1.026424	0.248792
H262	H	-0.256421	0.988023	-0.954780
H263	H	0.076913	1.321356	-0.621447
H264	H	0.410246	1.654690	-0.288113
C265	C	-0.926343	0.986833	-0.383638
C266	C	-0.593010	1.320167	-0.050305
C267	C	-0.259677	1.653500	0.283028
N268	N	-0.895898	1.018860	-0.415706
N269	N	-0.562565	1.352193	-0.082372
N270	N	-0.229231	1.685526	0.250961
H271	H	-0.256370	0.988017	-1.073485
H272	H	0.076964	1.321350	-0.740152
H273	H	0.410297	1.654683	-0.406818
H274	H	-1.070191	0.835584	-0.232111
H275	H	-0.736858	1.168917	0.101222
H276	H	-0.403525	1.502250	0.434556
H277	H	-0.937127	0.830469	-0.227019
H278	H	-0.603794	1.163802	0.106314
H279	H	-0.270461	1.497135	0.439648
C280	C	-0.432212	0.837767	-1.089424
C281	C	-0.098879	1.171100	-0.756091
C282	C	0.234455	1.504434	-0.422758
N283	N	-0.469423	0.805966	-1.117928
N284	N	-0.136090	1.139299	-0.784594
N285	N	0.197243	1.472632	-0.451261
C286	C	-0.432262	0.837764	-0.952017
C287	C	-0.098929	1.171097	-0.618684
C288	C	0.234404	1.504431	-0.285350
N289	N	-0.469493	0.805956	-0.926308
N290	N	-0.136159	1.139289	-0.592974
N291	N	0.197174	1.472622	-0.259641
C292	C	-0.814940	0.854369	-0.251008
C293	C	-0.481606	1.187702	0.082326
C294	C	-0.148273	1.521036	0.415659
N295	N	-0.784613	0.820016	-0.216614
N296	N	-0.451280	1.153350	0.116720
N297	N	-0.117946	1.486683	0.450053
H298	H	-0.419571	0.848720	-0.557252
H299	H	-0.086238	1.182054	-0.223919
H300	H	0.247095	1.515387	0.109414
C301	C	-0.432541	0.289108	-0.402708
C302	C	-0.099208	0.622442	-0.069374
C303	C	0.234126	0.955775	0.263959
N304	N	-0.469814	0.317634	-0.437263
N305	N	-0.136481	0.650967	-0.103930
N306	N	0.196853	0.984301	0.229404
H307	H	-0.452791	0.913552	-0.760386
H308	H	-0.119457	1.246885	-0.427053
H309	H	0.213876	1.580219	-0.093719
H310	H	-0.419527	0.848731	-0.675964
H311	H	-0.086193	1.182065	-0.342631
H312	H	0.247140	1.515398	-0.009297
H313	H	-0.605583	0.855755	-0.252445
H314	H	-0.272250	1.189089	0.080888
H315	H	0.061084	1.522422	0.414221
H316	H	-1.069900	0.980893	-0.377686
H317	H	-0.736567	1.314227	-0.044353
H318	H	-0.403233	1.647560	0.288981
C319	C	-0.326304	0.486753	-0.196051
C320	C	0.007030	0.820087	0.137283
C321	C	0.340363	1.153420	0.470616
N322	N	-0.321650	0.513632	-0.149095
N323	N	0.011683	0.846966	0.184238
N324	N	0.345017	1.180299	0.517571
H325	H	-0.419780	0.682907	-0.390643
H326	H	-0.086447	1.016240	-0.057310
H327	H	0.246886	1.349574	0.276024
H328	H	-0.738636	0.860879	-0.257532
H329	H	-0.405302	1.194212	0.075801
H330	H	-0.071969	1.527546	0.409135
C331	C	-0.243740	0.998986	-0.541319
C332	C	0.089593	1.332319	-0.207986
C333	C	0.422926	1.665652	0.125348
N334	N	-0.206522	1.030787	-0.512823
N335	N	0.126812	1.364120	-0.179490
N336	N	0.460145	1.697453	0.153844
H337	H	-0.419653	0.160559	-0.390835
H338	H	-0.086319	0.493893	-0.057502
H339	H	0.247014	0.827226	0.275831
C340	C	-0.243586	0.144489	-0.227562
C341	C	0.089748	0.477823	0.105771
C342	C	0.423081	0.811156	0.439105
N343	N	-0.206313	0.115958	-0.193011
N344	N	0.127020	0.449291	0.140322
N345	N	0.460354	0.782625	0.473656
H346	H	-0.256532	0.557968	-0.239342
H347	H	0.076801	0.891302	0.093992
H348	H	0.410135	1.224635	0.427325
C349	C	-0.243618	0.281900	-0.227512
C350	C	0.089715	0.615233	0.105821
C351	C	0.423048	0.948566	0.439155
N352	N	-0.206356	0.307582	-0.192940
N353	N	0.126978	0.640916	0.140394
N354	N	0.460311	0.974249	0.473727
H355	H	-0.256548	0.676682	-0.239301
H356	H	0.076786	1.010016	0.094033
H357	H	0.410119	1.343349	0.427366
C358	C	-0.243697	0.998993	-0.678725
C359	C	0.089636	1.332326	-0.345392
C360	C	0.422970	1.665660	-0.012058
N361	N	-0.206474	1.030805	-0.704438
N362	N	0.126860	1.364139	-0.371104
N363	N	0.460193	1.697472	-0.037771
H364	H	-0.223199	0.923041	-0.751646
H365	H	0.110135	1.256375	-0.418312
H366	H	0.443468	1.589708	-0.084979
