data_functionalizedCrystal
_audit_creation_method	'MofGen! by Chris Wilmer'
_symmetry_space_group_name_H-M	'P1'
_symmetry_Int_Tables_number	1
_symmetry_cell_setting	triclinic
loop_
_symmetry_equiv_pos_as_xyz
  x,y,z
_cell_length_a	14.908520
_cell_length_b	19.077220
_cell_length_c	14.908294
_cell_angle_alpha	89.157972
_cell_angle_beta	96.360837
_cell_angle_gamma	84.261754
loop_
_atom_site_label
_atom_site_type_symbol
_atom_site_fract_x
_atom_site_fract_y
_atom_site_fract_z
Zn1	Zn	-0.339680	-1.034461	-0.583138
Zn2	Zn	-0.006347	-0.701127	-0.249805
Zn3	Zn	0.326986	-0.367794	0.083529
Zn4	Zn	-0.482329	-1.034381	-0.440504
Zn5	Zn	-0.148996	-0.701048	-0.107171
Zn6	Zn	0.184337	-0.367715	0.226162
Zn7	Zn	-0.336344	-0.923971	-0.426394
Zn8	Zn	-0.003010	-0.590638	-0.093061
Zn9	Zn	0.330323	-0.257304	0.240272
Zn10	Zn	-0.497061	-0.909531	-0.585710
Zn11	Zn	-0.163727	-0.576198	-0.252377
Zn12	Zn	0.169606	-0.242864	0.080957
O13	O	-0.413854	-0.975586	-0.508937
O14	O	-0.080520	-0.642253	-0.175603
O15	O	0.252813	-0.308919	0.157730
O16	O	-0.353834	-1.132941	-0.569046
O17	O	-0.020501	-0.799607	-0.235713
O18	O	0.312832	-0.466274	0.097621
O19	O	-0.455402	-1.025745	-0.312266
O20	O	-0.122069	-0.692412	0.021068
O21	O	0.211264	-0.359079	0.354401
O22	O	-0.209827	-0.944704	-0.440205
O23	O	0.123506	-0.611371	-0.106872
O24	O	0.456840	-0.278038	0.226462
O25	O	-0.458638	-1.132883	-0.464254
O26	O	-0.125305	-0.799549	-0.130920
O27	O	0.208029	-0.466216	0.202413
O28	O	-0.212278	-1.025880	-0.555364
O29	O	0.121055	-0.692547	-0.222031
O30	O	0.454388	-0.359214	0.111303
O31	O	-0.348148	-0.944627	-0.301899
O32	O	-0.014814	-0.611294	0.031434
O33	O	0.318519	-0.277961	0.364768
O34	O	-0.362432	-0.823565	-0.442699
O35	O	-0.029099	-0.490232	-0.109366
O36	O	0.304235	-0.156898	0.223967
O37	O	-0.483745	-0.920093	-0.711736
O38	O	-0.150412	-0.586760	-0.378402
O39	O	0.182921	-0.253426	-0.045069
O40	O	-0.480510	-0.812956	-0.559748
O41	O	-0.147177	-0.479622	-0.226415
O42	O	0.186157	-0.146289	0.106919
O43	O	-0.368119	-1.011878	-0.709846
O44	O	-0.034785	-0.678545	-0.376513
O45	O	0.298548	-0.345212	-0.043179
O46	O	-0.611243	-1.011743	-0.466748
O47	O	-0.277910	-0.678410	-0.133414
O48	O	0.055424	-0.345077	0.199919
O49	O	-0.622066	-0.920016	-0.573430
O50	O	-0.288733	-0.586683	-0.240096
O51	O	0.044601	-0.253349	0.093237
C52	C	-0.422708	-0.792723	-0.499972
C53	C	-0.089375	-0.459390	-0.166639
C54	C	0.243959	-0.126056	0.166695
C55	C	-0.426519	-0.714491	-0.496160
C56	C	-0.093186	-0.381158	-0.162826
C57	C	0.240147	-0.047824	0.170507
C58	C	-0.453821	-0.274125	-0.468861
C59	C	-0.120488	0.059208	-0.135528
C60	C	0.212845	0.392542	0.197805
C61	C	-0.450235	-0.347633	-0.472436
C62	C	-0.116902	-0.014299	-0.139103
C63	C	0.216432	0.319034	0.194230
C64	C	-0.393977	-0.384410	-0.528883
C65	C	-0.060643	-0.051076	-0.195550
C66	C	0.272690	0.282257	0.137784
C67	C	-0.341295	-0.347676	-0.581751
C68	C	-0.007961	-0.014343	-0.248418
C69	C	0.325372	0.318991	0.084915
C70	C	-0.344877	-0.274170	-0.578171
C71	C	-0.011543	0.059163	-0.244837
C72	C	0.321790	0.392496	0.088496
C73	C	-0.377419	-0.604252	-0.545448
C74	C	-0.044086	-0.270918	-0.212114
C75	C	0.289248	0.062415	0.121219
C76	C	-0.373843	-0.677762	-0.549026
C77	C	-0.040510	-0.344429	-0.215693
C78	C	0.292824	-0.011096	0.117641
C79	C	-0.482783	-0.677714	-0.439709
C80	C	-0.149449	-0.344381	-0.106376
C81	C	0.183884	-0.011047	0.226957
C82	C	-0.486364	-0.604206	-0.436138
C83	C	-0.153030	-0.270873	-0.102805
C84	C	0.180303	0.062460	0.230529
C85	C	-0.433678	-0.567479	-0.489003
C86	C	-0.100345	-0.234146	-0.155669
C87	C	0.232989	0.099187	0.177664
N88	N	-0.390312	-0.459546	-0.532541
N89	N	-0.056979	-0.126213	-0.199207
N90	N	0.276355	0.207121	0.134126
N91	N	-0.437339	-0.492345	-0.485339
N92	N	-0.104005	-0.159012	-0.152006
N93	N	0.229328	0.174322	0.181327
C94	C	-0.649574	-0.964322	-0.521920
C95	C	-0.316241	-0.630989	-0.188586
C96	C	0.017093	-0.297656	0.144747
C97	C	-0.750415	-0.959567	-0.527507
C98	C	-0.417081	-0.626233	-0.194174
C99	C	-0.083748	-0.292900	0.139160
C100	C	-0.928575	-1.046234	-0.427016
C101	C	-0.595242	-0.712900	-0.093683
C102	C	-0.261909	-0.379567	0.239651
C103	C	-1.023324	-1.041768	-0.432263
C104	C	-0.689991	-0.708435	-0.098930
C105	C	-0.356658	-0.375101	0.234404
C106	C	-1.034663	-0.946173	-0.543253
C107	C	-0.701329	-0.612839	-0.209919
C108	C	-0.367996	-0.279506	0.123414
C109	C	-0.939914	-0.950639	-0.538005
C110	C	-0.606581	-0.617305	-0.204672
C111	C	-0.273247	-0.283972	0.128661
C112	C	-0.886873	-1.000670	-0.479884
C113	C	-0.553540	-0.667337	-0.146551
C114	C	-0.220207	-0.334003	0.186782
C115	C	-0.792123	-1.005132	-0.474633
C116	C	-0.458790	-0.671799	-0.141300
C117	C	-0.125456	-0.338466	0.192034
C118	C	-0.803463	-0.909541	-0.585626
C119	C	-0.470130	-0.576208	-0.252293
C120	C	-0.136796	-0.242874	0.081040
C121	C	-0.898212	-0.905075	-0.590874
C122	C	-0.564879	-0.571742	-0.257540
C123	C	-0.231545	-0.238408	0.075793
C124	C	-0.177213	-0.986912	-0.495924
C125	C	0.156120	-0.653579	-0.162590
C126	C	0.489454	-0.320245	0.170743
C127	C	-0.076371	-0.991738	-0.490378
C128	C	0.256963	-0.658405	-0.157045
C129	C	0.590296	-0.325072	0.176288
C130	C	-0.427947	-0.964384	-0.744473
C131	C	-0.094614	-0.631050	-0.411139
C132	C	0.238719	-0.297717	-0.077806
C133	C	-0.433953	-0.959610	-0.844844
C134	C	-0.100620	-0.626277	-0.511511
C135	C	0.232713	-0.292943	-0.178177
C136	C	-0.404957	-0.159164	-0.517926
C137	C	-0.071624	0.174169	-0.184592
C138	C	0.261710	0.507503	0.148741
C139	C	-0.401145	-0.237396	-0.521728
C140	C	-0.067812	0.095937	-0.188394
C141	C	0.265522	0.429270	0.144939
C142	C	-0.502608	-0.905096	-0.987298
C143	C	-0.169274	-0.571763	-0.653964
C144	C	0.164059	-0.238429	-0.320631
C145	C	-0.496971	-0.909580	-0.892990
C146	C	-0.163638	-0.576246	-0.559657
C147	C	0.169695	-0.242913	-0.226323
C148	C	-0.376566	-1.005158	-0.891012
C149	C	-0.043232	-0.671825	-0.557679
C150	C	0.290101	-0.338492	-0.224345
C151	C	-0.382202	-1.000674	-0.985320
C152	C	-0.048869	-0.667341	-0.651986
C153	C	0.284464	-0.334008	-0.318653
C154	C	-0.445226	-0.950642	-1.033459
C155	C	-0.111893	-0.617309	-0.700126
C156	C	0.221440	-0.283976	-0.366793
C157	C	-0.450867	-0.946162	-1.127769
C158	C	-0.117533	-0.612829	-0.794436
C159	C	0.215800	-0.279496	-0.461102
C160	C	-0.330457	-1.041737	-1.125789
C161	C	0.002876	-0.708404	-0.792456
C162	C	0.336210	-0.375070	-0.459122
C163	C	-0.324821	-1.046221	-1.031481
C164	C	0.008513	-0.712887	-0.698148
C165	C	0.341846	-0.379554	-0.364815
C166	C	-0.399747	-0.986788	-0.274315
C167	C	-0.066414	-0.653455	0.059018
C168	C	0.266920	-0.320122	0.392351
C169	C	-0.393479	-0.991711	-0.173937
C170	C	-0.060146	-0.658377	0.159396
C171	C	0.273188	-0.325044	0.492730
H172	H	-0.493128	-0.377534	-0.429385
H173	H	-0.159795	-0.044201	-0.096052
H174	H	0.173539	0.289133	0.237281
F175	F	-0.313961	-0.716902	-0.609106
F176	F	0.019372	-0.383569	-0.275772
F177	F	0.352705	-0.050235	0.057561
F178	F	-0.288808	-0.235082	-0.634435
F179	F	0.044526	0.098252	-0.301102
F180	F	0.377859	0.431585	0.032232
F181	F	-0.269388	-1.090217	-1.174925
F182	F	0.063946	-0.756884	-0.841591
F183	F	0.397279	-0.423551	-0.508258
H184	H	-0.334523	-0.574357	-0.588498
H185	H	-0.001190	-0.241024	-0.255165
H186	H	0.332144	0.092310	0.078168
F187	F	-1.091127	-0.892938	-0.605114
F188	F	-0.757793	-0.559604	-0.271781
F189	F	-0.424460	-0.226271	0.061552
F190	F	-1.067703	-1.090264	-0.375996
F191	F	-0.734370	-0.756931	-0.042662
F192	F	-0.401036	-0.423598	0.290671
F193	F	-0.735675	-1.058377	-0.412772
F194	F	-0.402341	-0.725043	-0.079439
F195	F	-0.069008	-0.391710	0.253894
F196	F	-0.538848	-0.716807	-0.383449
F197	F	-0.205515	-0.383473	-0.050115
F198	F	0.127819	-0.050140	0.283218
F199	F	-0.872124	-1.099471	-0.365148
F200	F	-0.538790	-0.766138	-0.031815
F201	F	-0.205457	-0.432805	0.301518
H202	H	-0.295484	-0.377626	-0.627707
H203	H	0.037849	-0.044293	-0.294374
H204	H	0.371183	0.289040	0.038959
F205	F	-0.954671	-0.851833	-0.652730
F206	F	-0.621337	-0.518500	-0.319397
F207	F	-0.288004	-0.185167	0.013937
F208	F	-0.759074	-0.861039	-0.641886
F209	F	-0.425741	-0.527705	-0.308553
F210	F	-0.092408	-0.194372	0.024780
F211	F	-0.546220	-0.565073	-0.376038
F212	F	-0.212886	-0.231739	-0.042705
F213	F	0.120447	0.101594	0.290628
H214	H	-0.543692	-0.872487	-0.855408
H215	H	-0.210359	-0.539154	-0.522075
H216	H	0.122975	-0.205820	-0.188742
F217	F	-0.517943	-0.892916	-1.179002
F218	F	-0.184610	-0.559583	-0.845668
F219	F	0.148724	-0.226249	-0.512335
F220	F	-0.569688	-0.851854	-1.038534
F221	F	-0.236354	-0.518521	-0.705201
F222	F	0.096979	-0.185187	-0.371867
F223	F	-0.257735	-1.099454	-0.980237
F224	F	0.075599	-0.766121	-0.646903
F225	F	0.408932	-0.432787	-0.313570
H226	H	-0.499638	-0.244186	-0.422901
H227	H	-0.166304	0.089147	-0.089567
H228	H	0.167029	0.422481	0.243766
F229	F	-0.309454	-1.058369	-0.839760
F230	F	0.023879	-0.725036	-0.506426
F231	F	0.357212	-0.391702	-0.173093
