data_functionalizedCrystal
_audit_creation_method	'MofGen! by Chris Wilmer'
_symmetry_space_group_name_H-M	'P1'
_symmetry_Int_Tables_number	1
_symmetry_cell_setting	triclinic
loop_
_symmetry_equiv_pos_as_xyz
  x,y,z
_cell_length_a	16.120490
_cell_length_b	16.120256
_cell_length_c	16.625546
_cell_angle_alpha	92.872129
_cell_angle_beta	87.114737
_cell_angle_gamma	90.129807
loop_
_atom_site_label
_atom_site_type_symbol
_atom_site_fract_x
_atom_site_fract_y
_atom_site_fract_z
Zn1	Zn	1.247455	-0.534520	-0.408579
Zn2	Zn	1.497455	-0.284520	-0.158579
Zn3	Zn	1.747455	-0.034520	0.091421
Zn4	Zn	1.997455	0.215480	0.341421
Zn5	Zn	1.254409	-0.395457	-0.536934
Zn6	Zn	1.504409	-0.145457	-0.286934
Zn7	Zn	1.754409	0.104543	-0.036934
Zn8	Zn	2.004409	0.354543	0.213066
Zn9	Zn	1.115444	-0.388441	-0.394943
Zn10	Zn	1.365444	-0.138441	-0.144943
Zn11	Zn	1.615444	0.111559	0.105057
Zn12	Zn	1.865444	0.361559	0.355057
Zn13	Zn	1.108364	-0.527430	-0.536187
Zn14	Zn	1.358364	-0.277430	-0.286187
Zn15	Zn	1.608364	-0.027430	-0.036187
Zn16	Zn	1.858364	0.222570	0.213813
O17	O	1.181418	-0.461462	-0.469161
O18	O	1.431418	-0.211462	-0.219161
O19	O	1.681418	0.038538	0.030839
O20	O	1.931418	0.288538	0.280839
O21	O	1.364744	-0.521976	-0.431625
O22	O	1.614744	-0.271976	-0.181625
O23	O	1.864744	-0.021976	0.068375
O24	O	2.114744	0.228024	0.318375
O25	O	1.241848	-0.278160	-0.512704
O26	O	1.491848	-0.028160	-0.262704
O27	O	1.741848	0.221840	-0.012704
O28	O	1.991848	0.471840	0.237296
O29	O	1.133009	-0.407850	-0.283923
O30	O	1.383009	-0.157850	-0.033923
O31	O	1.633009	0.092150	0.216077
O32	O	1.883009	0.342150	0.466077
O33	O	1.369853	-0.419807	-0.525926
O34	O	1.619853	-0.169807	-0.275926
O35	O	1.869853	0.080193	-0.025926
O36	O	2.119853	0.330193	0.224074
O37	O	1.229997	-0.515174	-0.293942
O38	O	1.479997	-0.265174	-0.043942
O39	O	1.729997	-0.015174	0.206058
O40	O	1.979997	0.234826	0.456058
O41	O	1.139752	-0.273006	-0.408384
O42	O	1.389752	-0.023006	-0.158384
O43	O	1.639752	0.226994	0.091616
O44	O	1.889752	0.476994	0.341616
O45	O	0.998138	-0.400975	-0.407660
O46	O	1.248138	-0.150975	-0.157660
O47	O	1.498138	0.099025	0.092340
O48	O	1.748138	0.349025	0.342340
O49	O	1.120942	-0.644737	-0.524654
O50	O	1.370942	-0.394737	-0.274654
O51	O	1.620942	-0.144737	-0.024654
O52	O	1.870942	0.105263	0.225346
O53	O	0.992936	-0.503090	-0.511432
O54	O	1.242936	-0.253090	-0.261432
O55	O	1.492936	-0.003090	-0.011432
O56	O	1.742936	0.246910	0.238568
O57	O	1.223131	-0.649946	-0.430901
O58	O	1.473131	-0.399946	-0.180901
O59	O	1.723131	-0.149946	0.069099
O60	O	1.973131	0.100054	0.319099
O61	O	1.234982	-0.412932	-0.649663
O62	O	1.484982	-0.162932	-0.399663
O63	O	1.734982	0.087068	-0.149663
O64	O	1.984982	0.337068	0.100337
O65	O	1.127684	-0.509892	-0.649115
O66	O	1.377684	-0.259892	-0.399115
O67	O	1.627684	-0.009892	-0.149115
O68	O	1.877684	0.240108	0.100885
C69	C	0.965365	-0.450502	-0.457986
C70	C	1.215365	-0.200502	-0.207986
C71	C	1.465365	0.049498	0.042014
C72	C	1.715365	0.299498	0.292014
C73	C	0.872935	-0.445834	-0.453225
C74	C	1.122935	-0.195834	-0.203225
C75	C	1.372935	0.054166	0.046775
C76	C	1.622935	0.304166	0.296775
C77	C	0.659974	-0.485682	-0.493847
C78	C	0.909974	-0.235682	-0.243847
C79	C	1.159974	0.014318	0.006153
C80	C	1.409974	0.264318	0.256153
C81	C	0.703710	-0.437308	-0.444542
C82	C	0.953710	-0.187308	-0.194542
C83	C	1.203710	0.062692	0.055458
C84	C	1.453710	0.312692	0.305458
C85	C	0.797875	-0.442053	-0.449375
C86	C	1.047875	-0.192053	-0.199375
C87	C	1.297875	0.057947	0.050625
C88	C	1.547875	0.307947	0.300625
C89	C	0.565800	-0.480938	-0.489015
C90	C	0.815800	-0.230938	-0.239015
C91	C	1.065800	0.019062	0.010985
C92	C	1.315800	0.269062	0.260985
C93	C	1.170471	-0.678357	-0.479216
C94	C	1.420471	-0.428357	-0.229216
C95	C	1.670471	-0.178357	0.020784
C96	C	1.920471	0.071643	0.270784
C97	C	1.165806	-0.770785	-0.483500
C98	C	1.415806	-0.520785	-0.233500
C99	C	1.665806	-0.270785	0.016500
C100	C	1.915806	-0.020785	0.266500
C101	C	1.205744	-0.983769	-0.446795
C102	C	1.455744	-0.733769	-0.196795
C103	C	1.705744	-0.483769	0.053205
C104	C	1.955744	-0.233769	0.303205
C105	C	1.157261	-0.940005	-0.491289
C106	C	1.407261	-0.690005	-0.241289
C107	C	1.657261	-0.440005	0.008711
C108	C	1.907261	-0.190005	0.258711
C109	C	1.162017	-0.845842	-0.486954
C110	C	1.412017	-0.595842	-0.236954
C111	C	1.662017	-0.345842	0.013046
C112	C	1.912017	-0.095842	0.263046
C113	C	1.200989	-1.077941	-0.451129
C114	C	1.450989	-0.827941	-0.201129
C115	C	1.700989	-0.577941	0.048871
C116	C	1.950989	-0.327941	0.298871
C117	C	1.398315	-0.472465	-0.480380
C118	C	1.648315	-0.222465	-0.230380
C119	C	1.898315	0.027535	0.019620
C120	C	2.148315	0.277535	0.269620
C121	C	1.490744	-0.477154	-0.485161
C122	C	1.740744	-0.227154	-0.235161
C123	C	1.990744	0.022846	0.014839
C124	C	2.240744	0.272846	0.264839
C125	C	1.181341	-0.461423	-0.678646
C126	C	1.431341	-0.211423	-0.428646
C127	C	1.681341	0.038577	-0.178646
C128	C	1.931341	0.288577	0.071354
C129	C	1.181383	-0.461438	-0.768270
C130	C	1.431383	-0.211438	-0.518270
C131	C	1.681383	0.038562	-0.268270
C132	C	1.931383	0.288562	-0.018270
C133	C	1.192370	-0.245413	-0.459089
C134	C	1.442370	0.004587	-0.209089
C135	C	1.692370	0.254587	0.040911
C136	C	1.942370	0.504587	0.290911
C137	C	1.197197	-0.152994	-0.454586
C138	C	1.447197	0.097006	-0.204586
C139	C	1.697197	0.347006	0.045414
C140	C	1.947197	0.597006	0.295414
C141	C	1.181524	-0.461532	-1.096457
C142	C	1.431524	-0.211532	-0.846457
C143	C	1.681524	0.038468	-0.596457
C144	C	1.931524	0.288468	-0.346457
C145	C	1.181482	-0.461508	-1.005145
C146	C	1.431482	-0.211508	-0.755145
C147	C	1.681482	0.038492	-0.505145
C148	C	1.931482	0.288492	-0.255145
C149	C	1.181453	-0.461485	-0.932366
C150	C	1.431453	-0.211485	-0.682366
C151	C	1.681453	0.038515	-0.432366
C152	C	1.931453	0.288515	-0.182366
C153	C	1.181412	-0.461462	-0.841049
C154	C	1.431412	-0.211462	-0.591049
C155	C	1.681412	0.038538	-0.341049
C156	C	1.931412	0.288538	-0.091049
C157	C	1.181517	-0.461520	-0.258860
C158	C	1.431517	-0.211520	-0.008860
C159	C	1.681517	0.038480	0.241140
C160	C	1.931517	0.288480	0.491140
C161	C	1.181559	-0.461545	-0.169242
C162	C	1.431559	-0.211545	0.080758
C163	C	1.681559	0.038455	0.330758
C164	C	1.931559	0.288455	0.580758
H165	H	0.693249	-0.530655	-0.539686
H166	H	0.943249	-0.280655	-0.289686
H167	H	1.193249	-0.030655	-0.039686
H168	H	1.443249	0.219345	0.210314
H169	H	1.112177	-0.973255	-0.532631
H170	H	1.362177	-0.723255	-0.282631
H171	H	1.612177	-0.473255	-0.032631
H172	H	1.862177	-0.223255	0.217369
C173	C	1.247665	-0.958888	-0.311148
C174	C	1.497665	-0.708888	-0.061148
C175	C	1.747665	-0.458888	0.188852
C176	C	1.997665	-0.208888	0.438852
C177	C	1.266602	-0.938887	-0.390986
C178	C	1.516602	-0.688887	-0.140986
C179	C	1.766602	-0.438887	0.109014
C180	C	2.016602	-0.188887	0.359014
H181	H	1.285235	-0.931167	-0.276697
H182	H	1.535235	-0.681167	-0.026697
H183	H	1.785235	-0.431167	0.223303
H184	H	2.035235	-0.181167	0.473303
H185	H	1.252420	-1.017188	-0.306775
H186	H	1.502420	-0.767188	-0.056775
H187	H	1.752420	-0.517188	0.193225
H188	H	2.002420	-0.267188	0.443225
H189	H	1.192500	-0.941858	-0.295823
H190	H	1.442500	-0.691858	-0.045823
H191	H	1.692500	-0.441858	0.204177
H192	H	1.942500	-0.191858	0.454177
H193	H	1.321765	-0.955923	-0.406313
H194	H	1.571765	-0.705923	-0.156313
H195	H	1.821765	-0.455923	0.093687
H196	H	2.071765	-0.205923	0.343687
H197	H	1.261855	-0.880574	-0.395362
H198	H	1.511855	-0.630574	-0.145362
H199	H	1.761855	-0.380574	0.104638
H200	H	2.011855	-0.130574	0.354638
C201	C	0.572854	-0.383530	-0.389830
C202	C	0.822854	-0.133530	-0.139830
C203	C	1.072854	0.116470	0.110170
C204	C	1.322854	0.366470	0.360170
C205	C	0.658796	-0.376554	-0.382687
C206	C	0.908796	-0.126554	-0.132687
C207	C	1.158796	0.123446	0.117313
C208	C	1.408796	0.373446	0.367313
H209	H	0.545126	-0.346011	-0.351657
H210	H	0.795126	-0.096011	-0.101657
H211	H	1.045126	0.153989	0.148343
H212	H	1.295126	0.403989	0.398343
H213	H	0.555852	-0.438705	-0.379957
H214	H	0.805852	-0.188705	-0.129957
H215	H	1.055852	0.061295	0.120043
H216	H	1.305852	0.311295	0.370043
H217	H	0.559300	-0.370592	-0.442721
H218	H	0.809300	-0.120592	-0.192721
H219	H	1.059300	0.129408	0.057279
H220	H	1.309300	0.379408	0.307279
H221	H	0.672351	-0.389499	-0.329798
H222	H	0.922351	-0.139499	-0.079798
H223	H	1.172351	0.110501	0.170202
H224	H	1.422351	0.360501	0.420202
H225	H	0.675804	-0.321367	-0.392554
H226	H	0.925804	-0.071367	-0.142554
H227	H	1.175804	0.178633	0.107446
H228	H	1.425804	0.428633	0.357446
