data_functionalizedCrystal
_audit_creation_method	'MofGen! by Chris Wilmer'
_symmetry_space_group_name_H-M	'P1'
_symmetry_Int_Tables_number	1
_symmetry_cell_setting	triclinic
loop_
_symmetry_equiv_pos_as_xyz
  x,y,z
_cell_length_a	19.188930
_cell_length_b	14.519709
_cell_length_c	12.996460
_cell_angle_alpha	90.007090
_cell_angle_beta	90.019467
_cell_angle_gamma	83.412462
loop_
_atom_site_label
_atom_site_type_symbol
_atom_site_fract_x
_atom_site_fract_y
_atom_site_fract_z
O1	O	-0.926556	-0.115137	-0.085900
O2	O	-0.593222	0.218196	0.247433
O3	O	-0.259889	0.551530	0.580767
O4	O	-0.723300	-0.130636	-0.085830
O5	O	-0.389966	0.202697	0.247504
O6	O	-0.056633	0.536030	0.580837
O7	O	-0.830317	0.011385	-0.085857
O8	O	-0.496983	0.344719	0.247476
O9	O	-0.163650	0.678052	0.580809
O10	O	-0.819539	-0.257159	-0.085872
O11	O	-0.486205	0.076175	0.247461
O12	O	-0.152872	0.409508	0.580794
O13	O	-0.830306	0.011393	0.085276
O14	O	-0.496972	0.344726	0.418610
O15	O	-0.163639	0.678060	0.751943
O16	O	-0.723288	-0.130629	0.085304
O17	O	-0.389955	0.202705	0.418637
O18	O	-0.056622	0.536038	0.751971
O19	O	-0.926545	-0.115129	0.085234
O20	O	-0.593211	0.218204	0.418567
O21	O	-0.259878	0.551537	0.751901
Cu22	Cu	-0.824915	-0.122878	0.100895
Cu23	Cu	-0.491582	0.210455	0.434228
Cu24	Cu	-0.158249	0.543788	0.767562
Cu25	Cu	-0.824929	-0.122887	-0.101491
Cu26	Cu	-0.491595	0.210446	0.231843
Cu27	Cu	-0.158262	0.543779	0.565176
O28	O	-0.819527	-0.257151	0.085262
O29	O	-0.486194	0.076182	0.418595
O30	O	-0.152861	0.409516	0.751928
C31	C	-0.697281	-0.130131	-0.000254
C32	C	-0.363948	0.203203	0.333080
C33	C	-0.030615	0.536536	0.666413
C34	C	-0.619771	-0.128624	-0.000227
C35	C	-0.286438	0.204710	0.333107
C36	C	0.046895	0.538043	0.666440
C37	C	-0.829809	0.045746	-0.000290
C38	C	-0.496475	0.379079	0.333043
C39	C	-0.163142	0.712412	0.666377
C40	C	-0.828304	0.148118	-0.000289
C41	C	-0.494970	0.481451	0.333044
C42	C	-0.161637	0.814784	0.666378
C43	C	-0.952563	-0.115635	-0.000344
C44	C	-0.619230	0.217698	0.332989
C45	C	-0.285896	0.551032	0.666322
C46	C	-1.030073	-0.117142	-0.000378
C47	C	-0.696740	0.216191	0.332955
C48	C	-0.363406	0.549525	0.666288
C49	C	-0.575144	-0.211957	-0.000247
C50	C	-0.241811	0.121376	0.333086
C51	C	0.091523	0.454709	0.666419
C52	C	-0.502315	-0.210542	-0.000259
C53	C	-0.168982	0.122791	0.333075
C54	C	0.164351	0.456125	0.666408
C55	C	-0.474117	-0.125788	-0.000270
C56	C	-0.140784	0.207545	0.333064
C57	C	0.192550	0.540879	0.666397
C58	C	-0.518754	-0.042444	-0.000243
C59	C	-0.185421	0.290890	0.333090
C60	C	0.147913	0.624223	0.666423
C61	C	-0.591581	-0.043861	-0.000222
C62	C	-0.258248	0.289472	0.333112
C63	C	0.075085	0.622805	0.666445
N64	N	-0.365910	-0.061007	-0.058552
N65	N	-0.032577	0.272326	0.274781
N66	N	0.300757	0.605660	0.608115
N67	N	-0.296727	-0.059666	-0.058575
N68	N	0.036607	0.273668	0.274759
N69	N	0.369940	0.607001	0.608092
C70	C	-0.254693	-0.121511	-0.000332
C71	C	0.078640	0.211822	0.333001
C72	C	0.411974	0.545156	0.666334
N73	N	-0.284455	-0.184762	0.057920
N74	N	0.048878	0.148571	0.391254
N75	N	0.382211	0.481904	0.724587
N76	N	-0.353645	-0.186106	0.057938
N77	N	-0.020311	0.147227	0.391272
N78	N	0.313022	0.480560	0.724605
C79	C	-0.395149	-0.124241	-0.000292
C80	C	-0.061816	0.209092	0.333041
C81	C	0.271518	0.542425	0.666374
C82	C	-0.131096	-0.203315	-0.000364
C83	C	0.202237	0.130018	0.332969
C84	C	0.535571	0.463351	0.666303
C85	C	-0.058266	-0.201896	-0.000369
C86	C	0.275067	0.131437	0.332965
C87	C	0.608401	0.464770	0.666298
C88	C	-0.074706	-0.033796	-0.000364
C89	C	0.258627	0.299538	0.332970
C90	C	0.591960	0.632871	0.666303
C91	C	-0.147535	-0.035217	-0.000348
C92	C	0.185799	0.298116	0.332985
C93	C	0.519132	0.631450	0.666318
C94	C	-0.175725	-0.119980	-0.000353
C95	C	0.157609	0.213354	0.332980
C96	C	0.490942	0.546687	0.666313
C97	C	-0.820035	-0.291511	-0.000308
C98	C	-0.486702	0.041822	0.333025
C99	C	-0.153369	0.375155	0.666359
C100	C	-0.821541	-0.393883	-0.000316
C101	C	-0.488207	-0.060550	0.333018
C102	C	-0.154874	0.272783	0.666351
N103	N	-0.824911	-0.122871	0.243242
N104	N	-0.491578	0.210462	0.576575
N105	N	-0.158245	0.543795	0.909909
C106	C	-0.822762	0.522979	-0.000314
C107	C	-0.489429	0.856312	0.333019
C108	C	-0.156096	1.189646	0.666353
C109	C	-0.824301	0.418681	-0.000307
C110	C	-0.490968	0.752014	0.333027
C111	C	-0.157634	1.085347	0.666360
C112	C	-0.825533	0.335552	-0.000300
C113	C	-0.492199	0.668885	0.333033
C114	C	-0.158866	1.002218	0.666366
C115	C	-0.827072	0.231247	-0.000295
C116	C	-0.493739	0.564580	0.333038
C117	C	-0.160405	0.897913	0.666371
N118	N	-0.824938	-0.122887	-0.243838
N119	N	-0.491605	0.210446	0.089496
N120	N	-0.158272	0.543779	0.422829
C121	C	-0.824928	-0.122888	0.663056
C122	C	-0.491594	0.210445	0.996390
C123	C	-0.158261	0.543778	1.329723
C124	C	-0.824921	-0.122887	0.546251
C125	C	-0.491588	0.210447	0.879584
C126	C	-0.158254	0.543780	1.212918
C127	C	-0.824920	-0.122880	0.453153
C128	C	-0.491587	0.210453	0.786486
C129	C	-0.158253	0.543786	1.119820
C130	C	-0.824913	-0.122877	0.336340
C131	C	-0.491579	0.210456	0.669674
C132	C	-0.158246	0.543789	1.003007
H133	H	-0.598091	-0.280978	-0.000253
H134	H	-0.264758	0.052356	0.333080
H135	H	0.068575	0.385689	0.666413
C136	C	-0.184000	0.107612	-0.088322
C137	C	0.149333	0.440946	0.245012
C138	C	0.482667	0.774279	0.578345
C139	C	-0.196595	0.056387	-0.000342
C140	C	0.136739	0.389720	0.332991
C141	C	0.470072	0.723053	0.666324
H142	H	-0.214291	0.164165	-0.088316
H143	H	0.119042	0.497498	0.245017
H144	H	0.452375	0.830831	0.578350
H145	H	-0.136598	0.120584	-0.088326
H146	H	0.196736	0.453918	0.245007
H147	H	0.530069	0.787251	0.578340
H148	H	-0.192582	0.072832	-0.147989
H149	H	0.140751	0.406165	0.185344
H150	H	0.474085	0.739498	0.518677
H151	H	-0.188008	0.091165	0.059326
H152	H	0.145326	0.424498	0.392659
H153	H	0.478659	0.757831	0.725992
H154	H	-0.244008	0.043417	-0.000328
H155	H	0.089325	0.376751	0.333005
H156	H	0.422659	0.710084	0.666339
H157	H	-0.465973	-0.278404	-0.000273
H158	H	-0.132640	0.054929	0.333061
H159	H	0.200694	0.388262	0.666394
C160	C	-0.414413	0.034367	-0.000293
C161	C	-0.081080	0.367701	0.333041
C162	C	0.252253	0.701034	0.666374
C163	C	-0.487761	0.050720	-0.000261
C164	C	-0.154428	0.384053	0.333072
C165	C	0.178905	0.717387	0.666405
H166	H	-0.395282	0.091886	-0.000307
H167	H	-0.061949	0.425219	0.333026
H168	H	0.271384	0.758553	0.666360
H169	H	-0.399082	0.000076	0.059377
H170	H	-0.065749	0.333410	0.392710
H171	H	0.267584	0.666743	0.726043
H172	H	-0.399132	0.000062	-0.059980
H173	H	-0.065799	0.333395	0.273353
H174	H	0.267534	0.666728	0.606686
H175	H	-0.503043	0.085020	0.059431
H176	H	-0.169709	0.418353	0.392764
H177	H	0.163624	0.751687	0.726097
H178	H	-0.503099	0.085026	-0.059937
H179	H	-0.169765	0.418359	0.273397
H180	H	0.163568	0.751692	0.606730
H181	H	-0.051748	0.035213	-0.000437
H182	H	0.281585	0.368546	0.332897
H183	H	0.614918	0.701879	0.666230
C184	C	-0.683047	0.052053	-0.088171
C185	C	-0.349714	0.385386	0.245162
C186	C	-0.016381	0.718720	0.578495
C187	C	-0.640642	0.047744	-0.000208
C188	C	-0.307309	0.381077	0.333125
C189	C	0.026024	0.714411	0.666459
H190	H	-0.713339	0.108605	-0.088159
H191	H	-0.380006	0.441938	0.245174
H192	H	-0.046672	0.775272	0.578507
H193	H	-0.654314	0.049115	-0.147843
H194	H	-0.320980	0.382448	0.185490
H195	H	0.012353	0.715782	0.518823
H196	H	-0.710257	0.001367	-0.088155
H197	H	-0.376924	0.334700	0.245178
H198	H	-0.043590	0.668034	0.578512
H199	H	-0.613428	0.098427	-0.000228
H200	H	-0.280095	0.431760	0.333105
H201	H	0.053238	0.765093	0.666439
H202	H	-0.669379	0.050691	0.059480
H203	H	-0.336046	0.384025	0.392813
H204	H	-0.002713	0.717358	0.726146
H205	H	-0.154049	-0.272334	-0.000353
H206	H	0.179284	0.060999	0.332980
H207	H	0.512617	0.394333	0.666314
C208	C	0.033198	-0.297828	0.087572
C209	C	0.366531	0.035505	0.420905
C210	C	0.699864	0.368839	0.754238
C211	C	-0.009207	-0.293504	-0.000392
C212	C	0.324126	0.039830	0.332941
C213	C	0.657460	0.373163	0.666274
H214	H	0.063482	-0.354386	0.087557
H215	H	0.396815	-0.021053	0.420890
H216	H	0.730149	0.312280	0.754223
H217	H	0.060409	-0.247154	0.087566
H218	H	0.393742	0.086179	0.420899
H219	H	0.727075	0.419513	0.754232
H220	H	0.004458	-0.294892	0.147250
H221	H	0.337792	0.038441	0.480583
H222	H	0.671125	0.371774	0.813916
H223	H	0.019532	-0.296433	-0.060071
H224	H	0.352866	0.036901	0.273263
H225	H	0.686199	0.370234	0.606596
H226	H	-0.036421	-0.344192	-0.000396
H227	H	0.296913	-0.010859	0.332938
H228	H	0.630246	0.322475	0.666271
