data_functionalizedCrystal
_audit_creation_method	'MofGen! by Chris Wilmer'
_symmetry_space_group_name_H-M	'P1'
_symmetry_Int_Tables_number	1
_symmetry_cell_setting	triclinic
loop_
_symmetry_equiv_pos_as_xyz
  x,y,z
_cell_length_a	8.597340
_cell_length_b	10.723024
_cell_length_c	7.681481
_cell_angle_alpha	95.796286
_cell_angle_beta	103.474906
_cell_angle_gamma	95.098064
loop_
_atom_site_label
_atom_site_type_symbol
_atom_site_fract_x
_atom_site_fract_y
_atom_site_fract_z
O1	O	2.101733	-0.172565	0.172444
O2	O	1.637890	-0.192447	0.102067
O3	O	1.880512	-0.000857	0.138888
O4	O	1.859111	-0.364155	0.135623
O5	O	1.910374	0.022778	0.436278
O6	O	1.667752	-0.168812	0.399457
O7	O	2.131596	-0.148930	0.469834
Zn8	Zn	1.904415	-0.155118	0.481862
Zn9	Zn	1.865070	-0.186259	0.090038
O10	O	1.888974	-0.340520	0.433012
C11	C	1.593428	-0.179811	0.241751
C12	C	1.416457	-0.177357	0.214900
C13	C	1.893886	0.057450	0.287345
C14	C	1.889226	0.195972	0.286634
C15	C	2.024984	0.271870	0.307231
C16	C	2.020171	0.415041	0.306497
C17	C	2.176057	-0.161566	0.330146
C18	C	2.353027	-0.164021	0.356985
C19	C	1.875600	0.601173	0.284555
C20	C	1.880259	0.462651	0.285266
N21	N	1.931278	-0.133865	0.749273
N22	N	1.838220	-0.207502	-0.177371
H23	H	1.335366	-0.186898	0.072696
H24	H	2.136391	0.480258	0.324137
H25	H	1.434111	-0.154472	0.499179
Br26	Br	1.686535	0.353969	0.255896
H27	H	1.743225	-0.282662	0.733016
H28	H	2.144775	0.230857	0.325416
Br29	Br	2.089644	-0.008600	0.898643
H30	H	1.769435	0.236985	0.268448
