data_functionalizedCrystal
_audit_creation_method	'MofGen! by Chris Wilmer'
_symmetry_space_group_name_H-M	'P1'
_symmetry_Int_Tables_number	1
_symmetry_cell_setting	triclinic
loop_
_symmetry_equiv_pos_as_xyz
  x,y,z
_cell_length_a	15.538191
_cell_length_b	16.109301
_cell_length_c	14.750778
_cell_angle_alpha	77.392532
_cell_angle_beta	82.395899
_cell_angle_gamma	114.633213
loop_
_atom_site_label
_atom_site_type_symbol
_atom_site_fract_x
_atom_site_fract_y
_atom_site_fract_z
O1	O	1.270470	0.294248	-0.079826
O2	O	0.996182	0.198241	-0.079828
O3	O	1.140858	0.369545	-0.079817
O4	O	1.125794	0.122944	-0.079837
O5	O	1.099897	0.321160	0.079830
O6	O	0.955221	0.149856	0.079819
O7	O	1.229509	0.245863	0.079821
Zn8	Zn	1.085861	0.190177	0.105167
Zn9	Zn	1.139829	0.253927	-0.105175
O10	O	1.084832	0.074559	0.079810
C11	C	0.940603	0.164004	-0.000005
C12	C	0.836020	0.134083	-0.000006
C13	C	1.119767	0.376143	0.000007
C14	C	1.117937	0.467886	0.000008
N15	N	1.176662	0.297440	-0.248728
C16	C	0.548319	0.431334	0.000003
C17	C	0.450045	0.403199	0.000000
C18	C	0.427557	0.244945	-0.000012
C19	C	0.525829	0.273065	-0.000005
C20	C	0.586203	0.366261	0.000002
C21	C	0.563714	0.207992	-0.000006
C22	C	0.661979	0.236112	-0.000003
C23	C	0.722360	0.329305	0.000001
C24	C	0.684469	0.394381	0.000005
C25	C	0.503340	0.114798	-0.000019
C26	C	0.541224	0.049726	-0.000020
C27	C	0.639490	0.077843	-0.000011
C28	C	0.699870	0.171036	-0.000007
C29	C	0.677381	0.012767	-0.000015
C30	C	0.775646	0.040887	-0.000012
C31	C	0.798136	0.199156	-0.000005
C32	C	1.285088	0.280101	-0.000004
C33	C	1.389673	0.310023	-0.000010
C34	C	1.105924	0.067962	-0.000016
C35	C	1.107756	-0.023779	-0.000024
C36	C	1.199535	0.714766	-0.000006
C37	C	1.197810	0.800968	-0.000014
C38	C	1.026152	0.729332	-0.000012
C39	C	1.027880	0.643134	-0.000011
C40	C	1.114573	0.635853	-0.000003
C41	C	1.111120	0.808253	-0.000012
C42	C	1.109249	0.901717	-0.000021
C43	C	1.116445	0.542384	0.000003
C44	C	0.946126	0.025208	-0.600563
C45	C	0.971960	0.055686	-0.701060
C46	C	1.100312	0.207216	-0.701013
C47	C	1.074492	0.176750	-0.600514
C48	C	0.997397	0.085745	-0.550297
C49	C	1.125763	0.237287	-0.550248
C50	C	1.099941	0.206824	-0.449758
C51	C	1.022847	0.115824	-0.399533
C52	C	0.971575	0.055282	-0.449807
C53	C	1.202852	0.328293	-0.600467
C54	C	1.254123	0.388830	-0.550201
C55	C	1.228306	0.358365	-0.449708
C56	C	1.151213	0.267366	-0.399484
C57	C	1.279578	0.418907	-0.399435
C58	C	1.253756	0.388445	-0.298945
C59	C	1.125391	0.236903	-0.298994
N60	N	1.049037	0.146673	0.248720
H61	H	0.847295	0.275044	0.000006
H62	H	0.958690	0.578877	-0.000011
H63	H	1.062619	0.162794	-0.258105
F64	F	0.995362	0.083406	-0.292581
H65	H	0.908804	-0.018827	-0.408918
H66	H	0.628213	-0.063110	-0.000030
H67	H	0.806490	-0.012105	-0.000004
H68	H	0.802377	0.352202	-0.000010
H69	H	1.270126	0.708844	-0.000002
F70	F	0.612576	0.530521	0.000021
H71	H	1.163081	0.281315	-0.741912
F72	F	1.361830	0.515637	-0.452892
H73	H	0.883355	-0.048901	-0.559675
F74	F	0.363295	0.145763	-0.000025
H75	H	0.930201	0.006381	-0.741982
F76	F	0.398756	0.084873	-0.000023
H77	H	1.223870	0.353094	-0.682293
F78	F	1.336393	0.485550	-0.603655
H79	H	0.733628	0.470269	0.000016
F80	F	1.308324	0.452878	-0.245447
F81	F	0.476962	-0.049456	-0.000033
F82	F	0.409727	0.472462	0.000013
H83	H	1.266995	0.865220	-0.000019
F84	F	0.933893	0.737091	-0.000021
