data_functionalizedCrystal
_audit_creation_method	'MofGen! by Chris Wilmer'
_symmetry_space_group_name_H-M	'P1'
_symmetry_Int_Tables_number	1
_symmetry_cell_setting	triclinic
loop_
_symmetry_equiv_pos_as_xyz
  x,y,z
_cell_length_a	10.654549
_cell_length_b	9.016244
_cell_length_c	10.654550
_cell_angle_alpha	89.997946
_cell_angle_beta	95.515146
_cell_angle_gamma	90.006341
loop_
_atom_site_label
_atom_site_type_symbol
_atom_site_fract_x
_atom_site_fract_y
_atom_site_fract_z
O1	O	1.667847	0.123306	-0.176392
O2	O	1.302369	0.123316	-0.193198
O3	O	1.493511	0.123301	-0.002056
O4	O	1.476705	0.123320	-0.367534
O5	O	1.493483	-0.123379	-0.002060
O6	O	1.302341	-0.123365	-0.193202
O7	O	1.667819	-0.123375	-0.176396
Cu8	Cu	1.485077	-0.145894	-0.184800
Cu9	Cu	1.485110	0.145835	-0.184795
O10	O	1.476677	-0.123360	-0.367538
C11	C	1.255557	-0.000023	-0.191966
C12	C	1.116113	-0.000019	-0.188275
C13	C	0.905599	-0.000019	-0.297338
C14	C	1.036619	-0.000010	-0.300816
C15	C	1.064581	-0.000022	-0.072247
C16	C	0.933563	-0.000020	-0.068770
N17	N	1.485063	-0.351080	-0.184802
C18	C	1.382501	-0.586105	-0.286708
C19	C	1.382728	-0.414213	-0.287090
C20	C	1.616360	-0.413420	-0.214568
C21	C	1.615800	-0.585365	-0.215289
C22	C	1.457632	-0.585629	-0.052797
C23	C	1.454619	-0.413675	-0.053654
C24	C	1.714631	-0.000033	-0.177628
C25	C	1.854074	-0.000027	-0.181319
C26	C	1.492263	-0.000038	0.044740
C27	C	1.488571	-0.000036	0.184183
N28	N	1.485135	0.351021	-0.184782
C29	C	1.477925	-0.000017	-0.414334
C30	C	1.481617	-0.000010	-0.553777
C31	C	1.601113	-0.000038	0.263669
C32	C	1.597636	-0.000020	0.394690
C33	C	1.369067	-0.000003	0.366727
C34	C	1.372544	-0.000011	0.235708
H35	H	1.284637	-0.627496	-0.269081
H36	H	1.399945	-0.629293	-0.384076
C37	C	1.262245	-0.000003	0.555153
C38	C	1.241534	0.000003	0.423368
H39	H	1.183508	-0.000012	0.590116
H40	H	1.308630	0.086015	0.582359
H41	H	1.308625	-0.086032	0.582358
H42	H	1.195162	0.086038	0.396162
H43	H	1.195129	-0.086024	0.396150
C44	C	1.277840	-0.000048	0.023914
C45	C	1.151959	-0.000037	0.051463
H46	H	1.331779	-0.000070	0.100291
H47	H	1.293574	0.085974	-0.023597
H48	H	1.293541	-0.086073	-0.023619
H49	H	1.136255	0.085994	0.098988
H50	H	1.136218	-0.086068	0.098995
H51	H	1.524422	-0.370705	0.025835
C52	C	1.533400	-0.583557	0.166848
C53	C	1.558641	-0.640521	0.049624
H54	H	1.595766	-0.617445	0.230067
H55	H	1.452691	-0.616320	0.186021
H56	H	1.534647	-0.478267	0.163958
H57	H	1.557384	-0.745811	0.052511
H58	H	1.639371	-0.607766	0.030447
C59	C	1.806558	-0.727510	-0.180858
C60	C	1.722076	-0.641506	-0.118965
H61	H	1.872166	-0.762165	-0.121391
H62	H	1.841608	-0.668947	-0.242870
H63	H	1.763197	-0.809761	-0.220270
H64	H	1.765436	-0.559249	-0.079560
H65	H	1.687024	-0.700072	-0.056930
C66	C	0.802463	0.126793	0.067745
C67	C	0.876921	-0.000023	0.058770
H68	H	0.767503	0.126798	0.146483
H69	H	0.736380	0.126785	0.001223
H70	H	0.853020	0.212802	0.061636
H71	H	0.826363	-0.086033	0.064869
H72	H	0.943014	-0.000029	0.125310
H73	H	1.285169	-0.372068	-0.269187
H74	H	1.640958	-0.370338	-0.309770
C75	C	1.233671	-0.600803	-0.104657
C76	C	1.331090	-0.644214	-0.014556
H77	H	1.155546	-0.636964	-0.081052
H78	H	1.248475	-0.640366	-0.184528
H79	H	1.230911	-0.495631	-0.109477
H80	H	1.333856	-0.749387	-0.009743
H81	H	1.316282	-0.604658	0.065337
C82	C	1.791410	0.126766	0.458835
C83	C	1.721348	-0.000029	0.482057
H84	H	1.867791	0.126755	0.512768
H85	H	1.743900	0.212780	0.474565
H86	H	1.810070	0.126738	0.373426
H87	H	1.702680	0.000005	0.567465
H88	H	1.768867	-0.086065	0.466338
C89	C	1.668040	-0.517029	-0.421775
C90	C	1.648266	-0.639490	-0.345280
H91	H	1.688073	-0.550442	-0.502030
H92	H	1.735764	-0.459217	-0.383485
H93	H	1.593679	-0.458390	-0.431705
H94	H	1.722630	-0.698123	-0.335342
H95	H	1.580536	-0.697326	-0.383579
C96	C	0.742045	0.126799	-0.426017
C97	C	0.818220	-0.000009	-0.421048
H98	H	0.688099	0.126802	-0.502390
H99	H	0.793748	0.212805	-0.422623
H100	H	0.692611	0.126775	-0.356417
H101	H	0.867662	0.000021	-0.490643
H102	H	0.766511	-0.086036	-0.424454
C103	C	1.420761	-0.480247	-0.498432
C104	C	1.406601	-0.358646	-0.419275
H105	H	1.435513	-0.445939	-0.580036
H106	H	1.346174	-0.538542	-0.504046
H107	H	1.490217	-0.538714	-0.464902
H108	H	1.337139	-0.300185	-0.452799
H109	H	1.481197	-0.300326	-0.413664
H110	H	1.078563	-0.000003	-0.395290
C111	C	1.670261	-0.267229	-0.028834
C112	C	1.721988	-0.358204	-0.117095
H113	H	1.735473	-0.233133	0.031336
H114	H	1.610455	-0.322147	0.012793
H115	H	1.629792	-0.184692	-0.070774
H116	H	1.762449	-0.440747	-0.075156
H117	H	1.781816	-0.303284	-0.158726
C118	C	1.337199	-0.276488	0.088819
C119	C	1.324230	-0.358674	-0.023187
H120	H	1.256699	-0.242534	0.107625
H121	H	1.390691	-0.193837	0.079087
H122	H	1.372984	-0.337369	0.155710
H123	H	1.288453	-0.297790	-0.090081
H124	H	1.270718	-0.441337	-0.013464
C125	C	1.146254	-0.000008	0.221216
C126	C	1.248829	-0.000013	0.148326
H127	H	1.069883	-0.000015	0.167268
H128	H	1.149660	0.086012	0.272892
H129	H	1.149646	-0.086035	0.272907
H130	H	1.245442	0.086020	0.096642
H131	H	1.245421	-0.086041	0.096628
H132	H	1.695589	-0.000056	0.221722
