data_functionalizedCrystal
_audit_creation_method	'MofGen! by Chris Wilmer'
_symmetry_space_group_name_H-M	'P1'
_symmetry_Int_Tables_number	1
_symmetry_cell_setting	triclinic
loop_
_symmetry_equiv_pos_as_xyz
  x,y,z
_cell_length_a	8.497365
_cell_length_b	21.395364
_cell_length_c	21.395361
_cell_angle_alpha	89.970959
_cell_angle_beta	90.058682
_cell_angle_gamma	89.965426
loop_
_atom_site_label
_atom_site_type_symbol
_atom_site_fract_x
_atom_site_fract_y
_atom_site_fract_z
Zn1	Zn	-0.891963	0.957920	0.249309
Zn2	Zn	-0.628132	0.957804	0.354137
Zn3	Zn	-0.628181	0.853117	0.249374
Zn4	Zn	-0.891855	0.853104	0.354050
O5	O	-0.760033	0.905486	0.301718
O6	O	-0.856990	1.045583	0.263224
O7	O	-0.407376	0.943874	0.340304
O8	O	-0.663238	0.867073	0.161688
O9	O	-0.663155	1.045498	0.340241
O10	O	-0.857038	0.944071	0.161640
O11	O	-0.407411	0.866961	0.263335
O12	O	-0.663133	0.765437	0.263250
O13	O	-1.112632	0.867051	0.340092
O14	O	-0.856853	0.765428	0.340155
O15	O	-1.112711	0.944059	0.263140
O16	O	-0.663049	0.943862	0.441803
O17	O	-0.856805	0.866939	0.441739
C18	C	-0.759987	0.742699	0.301701
C19	C	-0.760005	0.673058	0.301709
C20	C	-0.759945	0.905404	0.464505
C21	C	-0.759960	0.905426	0.534146
C22	C	-0.860805	0.171273	0.341835
C23	C	-0.860788	0.236708	0.341835
C24	C	-0.760083	0.269419	0.301731
C25	C	-0.659357	0.236689	0.261635
C26	C	-0.659365	0.171255	0.261641
C27	C	-0.747875	0.373107	0.245269
C28	C	-0.747878	0.438540	0.245263
C29	C	-0.760048	0.471240	0.301715
C30	C	-0.772248	0.438499	0.358175
C31	C	-0.772257	0.373065	0.358181
C32	C	-0.760062	0.340372	0.301721
C33	C	-0.860741	0.574915	0.341811
C34	C	-0.860714	0.640351	0.341813
C35	C	-0.659291	0.640331	0.261607
C36	C	-0.659310	0.574896	0.261611
C37	C	-0.760044	0.542191	0.301713
C38	C	-0.350152	0.905441	0.301786
C39	C	-0.171509	0.905530	0.301657
C40	C	-0.760079	1.068910	0.301735
C41	C	-0.760099	1.138551	0.301742
C42	C	-0.760155	0.905587	0.138294
C43	C	-0.760207	0.905629	0.068653
C44	C	-0.659175	0.945515	0.566872
C45	C	-0.659210	0.945544	0.632307
C46	C	-0.760014	0.905473	0.665015
C47	C	-0.860819	0.865381	0.632281
C48	C	-0.860792	0.865357	0.566847
C49	C	-0.772376	0.849059	0.768725
C50	C	-0.772392	0.849081	0.834158
C51	C	-0.760107	0.905546	0.866835
C52	C	-0.747772	0.961989	0.834072
C53	C	-0.747745	0.961966	0.768638
C54	C	-0.760055	0.905494	0.735967
C55	C	-0.659354	0.945670	0.970514
C56	C	-0.659400	0.945700	1.035950
C57	C	-0.861001	0.865531	1.035923
C58	C	-0.860963	0.865507	0.970487
C59	C	-0.760131	0.905575	0.937787
H60	H	-0.942825	0.144649	0.374491
O61	O	-0.550435	0.988739	0.531607
H62	H	-0.470083	0.960697	0.501860
O63	O	-0.785370	0.337754	0.419076
H64	H	-0.897488	0.350332	0.442496
H65	H	-0.577359	0.263327	0.228983
O66	O	-0.969350	0.675645	0.385056
H67	H	-0.898605	0.705420	0.416918
H68	H	-0.942801	0.263356	0.374484
O69	O	-0.550756	0.135956	0.218391
H70	H	-0.480728	0.169692	0.190500
H71	H	-0.782170	0.465121	0.404143
H72	H	-0.737768	1.007968	0.860676
O73	O	-0.550489	0.988779	0.667617
H74	H	-0.480363	1.016633	0.633885
H75	H	-0.943026	0.832860	0.943840
O76	O	-0.734718	0.337844	0.184376
H77	H	-0.736746	0.286844	0.193865
O78	O	-0.550692	0.539596	0.218368
H79	H	-0.621444	0.509810	0.186519
O80	O	-0.969320	0.539633	0.385085
H81	H	-1.039312	0.573383	0.412979
O82	O	-0.550669	0.675601	0.218348
H83	H	-0.567586	0.726600	0.225077
H84	H	-0.737962	0.465193	0.199289
H85	H	-0.737706	1.007923	0.741963
H86	H	-0.577255	0.978298	0.943888
O87	O	-0.969735	0.822312	1.071191
H88	H	-0.942565	0.773137	1.058683
O89	O	-0.550689	0.988940	1.071252
H90	H	-0.480563	1.016791	1.037518
H91	H	-0.782420	0.803121	0.860829
O92	O	-0.785618	0.788154	0.733481
H93	H	-0.794170	0.748911	0.767255
O94	O	-0.969530	0.822152	0.667552
H95	H	-0.952601	0.828897	0.718552
O96	O	-0.969470	0.822105	0.531544
H97	H	-1.039564	0.794240	0.565277
