data_functionalizedCrystal
_audit_creation_method	'MofGen! by Chris Wilmer'
_symmetry_space_group_name_H-M	'P1'
_symmetry_Int_Tables_number	1
_symmetry_cell_setting	triclinic
loop_
_symmetry_equiv_pos_as_xyz
  x,y,z
_cell_length_a	21.295420
_cell_length_b	21.295417
_cell_length_c	21.295411
_cell_angle_alpha	89.978356
_cell_angle_beta	89.975307
_cell_angle_gamma	90.028757
loop_
_atom_site_label
_atom_site_type_symbol
_atom_site_fract_x
_atom_site_fract_y
_atom_site_fract_z
Zn1	Zn	0.962355	-0.250710	-0.355914
Zn2	Zn	1.212355	-0.000710	-0.105914
Zn3	Zn	1.462355	0.249290	0.144086
Zn4	Zn	1.712355	0.499290	0.394086
Zn5	Zn	0.962258	-0.355962	-0.250639
Zn6	Zn	1.212258	-0.105962	-0.000639
Zn7	Zn	1.462258	0.144038	0.249361
Zn8	Zn	1.712258	0.394038	0.499361
Zn9	Zn	0.857079	-0.250708	-0.250658
Zn10	Zn	1.107079	-0.000708	-0.000658
Zn11	Zn	1.357079	0.249292	0.249342
Zn12	Zn	1.607079	0.499292	0.499342
Zn13	Zn	0.857048	-0.355942	-0.355870
Zn14	Zn	1.107048	-0.105942	-0.105870
Zn15	Zn	1.357048	0.144058	0.144130
Zn16	Zn	1.607048	0.394058	0.394130
O17	O	0.909685	-0.303331	-0.303270
O18	O	1.159685	-0.053331	-0.053270
O19	O	1.409685	0.196669	0.196730
O20	O	1.659685	0.446669	0.446730
O21	O	1.050432	-0.264682	-0.341959
O22	O	1.300432	-0.014682	-0.091959
O23	O	1.550432	0.235318	0.158041
O24	O	1.800432	0.485318	0.408041
O25	O	0.948277	-0.342007	-0.162552
O26	O	1.198277	-0.092007	0.087448
O27	O	1.448277	0.157993	0.337448
O28	O	1.698277	0.407993	0.587448
O29	O	0.871097	-0.162619	-0.264647
O30	O	1.121097	0.087381	-0.014647
O31	O	1.371097	0.337381	0.235353
O32	O	1.621097	0.587381	0.485353
O33	O	1.050360	-0.342010	-0.264614
O34	O	1.300360	-0.092010	-0.014614
O35	O	1.550360	0.157990	0.235386
O36	O	1.800360	0.407990	0.485386
O37	O	0.948444	-0.162621	-0.341977
O38	O	1.198444	0.087379	-0.091977
O39	O	1.448444	0.337379	0.158023
O40	O	1.698444	0.587379	0.408023
O41	O	0.871003	-0.264677	-0.162566
O42	O	1.121003	-0.014677	0.087434
O43	O	1.371003	0.235323	0.337434
O44	O	1.621003	0.485323	0.587434
O45	O	0.768985	-0.264658	-0.264605
O46	O	1.018985	-0.014658	-0.014605
O47	O	1.268985	0.235342	0.235395
O48	O	1.518985	0.485342	0.485395
O49	O	0.871045	-0.341976	-0.443966
O50	O	1.121045	-0.091976	-0.193966
O51	O	1.371045	0.158024	0.056034
O52	O	1.621045	0.408024	0.306034
O53	O	0.768963	-0.341973	-0.341904
O54	O	1.018963	-0.091973	-0.091904
O55	O	1.268963	0.158027	0.158096
O56	O	1.518963	0.408027	0.408096
O57	O	0.948414	-0.264662	-0.443997
O58	O	1.198414	-0.014662	-0.193997
O59	O	1.448414	0.235338	0.056003
O60	O	1.698414	0.485338	0.306003
O61	O	0.948248	-0.444049	-0.264572
O62	O	1.198248	-0.194049	-0.014572
O63	O	1.448248	0.055951	0.235428
O64	O	1.698248	0.305951	0.485428
O65	O	0.870951	-0.444034	-0.341885
O66	O	1.120951	-0.194034	-0.091885
O67	O	1.370951	0.055966	0.158115
O68	O	1.620951	0.305966	0.408115
C69	C	0.746133	-0.303314	-0.303252
C70	C	0.996133	-0.053314	-0.053252
C71	C	1.246133	0.196686	0.196748
C72	C	1.496133	0.446686	0.446748
C73	C	0.676165	-0.303321	-0.303260
C74	C	0.926165	-0.053321	-0.053260
C75	C	1.176165	0.196679	0.196740
C76	C	1.426165	0.446679	0.446740
C77	C	0.909602	-0.466882	-0.303236
C78	C	1.159602	-0.216882	-0.053236
C79	C	1.409602	0.033118	0.196764
C80	C	1.659602	0.283118	0.446764
C81	C	0.909625	-0.536850	-0.303242
C82	C	1.159625	-0.286850	-0.053242
C83	C	1.409625	-0.036850	0.196758
C84	C	1.659625	0.213150	0.446758
C85	C	0.176712	-0.343663	-0.343481
C86	C	0.426712	-0.093663	-0.093481
C87	C	0.676712	0.156337	0.156519
C88	C	0.926712	0.406337	0.406519
C89	C	0.242454	-0.343663	-0.343474
C90	C	0.492454	-0.093663	-0.093474
C91	C	0.742454	0.156337	0.156526
C92	C	0.992454	0.406337	0.406526
C93	C	0.275326	-0.303345	-0.303290
C94	C	0.525326	-0.053345	-0.053290
C95	C	0.775326	0.196655	0.196710
C96	C	1.025326	0.446655	0.446710
C97	C	0.242449	-0.263035	-0.263098
C98	C	0.492449	-0.013035	-0.013098
C99	C	0.742449	0.236965	0.236902
C100	C	0.992449	0.486965	0.486902
C101	C	0.176708	-0.263040	-0.263102
C102	C	0.426708	-0.013040	-0.013102
C103	C	0.676708	0.236960	0.236898
C104	C	0.926708	0.486960	0.486898
N105	N	0.378566	-0.248227	-0.298558
N106	N	0.628566	0.001773	-0.048558
N107	N	0.878566	0.251773	0.201442
N108	N	1.128566	0.501773	0.451442
N109	N	0.441018	-0.248224	-0.298558
N110	N	0.691018	0.001776	-0.048558
N111	N	0.941018	0.251776	0.201442
N112	N	1.191018	0.501776	0.451442
C113	C	0.473400	-0.303327	-0.303277
C114	C	0.723400	-0.053327	-0.053277
C115	C	0.973400	0.196673	0.196723
C116	C	1.223400	0.446673	0.446723
N117	N	0.440972	-0.358435	-0.308007
N118	N	0.690972	-0.108435	-0.058007
N119	N	0.940972	0.141565	0.191993
N120	N	1.190972	0.391565	0.441993
N121	N	0.378515	-0.358438	-0.308010
N122	N	0.628515	-0.108438	-0.058010
N123	N	0.878515	0.141562	0.191990
N124	N	1.128515	0.391562	0.441990
C125	C	0.346611	-0.303335	-0.303282
C126	C	0.596611	-0.053335	-0.053282
C127	C	0.846611	0.196665	0.196718
C128	C	1.096611	0.446665	0.446718
C129	C	0.577555	-0.343638	-0.343456
C130	C	0.827555	-0.093638	-0.093456
C131	C	1.077555	0.156362	0.156544
C132	C	1.327555	0.406362	0.406544
C133	C	0.643298	-0.343639	-0.343445
C134	C	0.893298	-0.093639	-0.093445
C135	C	1.143298	0.156361	0.156555
C136	C	1.393298	0.406361	0.406555
C137	C	0.643292	-0.263005	-0.263072
C138	C	0.893292	-0.013005	-0.013072
C139	C	1.143292	0.236995	0.236928
C140	C	1.393292	0.486995	0.486928
C141	C	0.577549	-0.263010	-0.263080
C142	C	0.827549	-0.013010	-0.013080
C143	C	1.077549	0.236990	0.236920
C144	C	1.327549	0.486990	0.486920
C145	C	0.544685	-0.303325	-0.303275
C146	C	0.794685	-0.053325	-0.053275
C147	C	1.044685	0.196675	0.196725
C148	C	1.294685	0.446675	0.446725
C149	C	0.949909	-0.569704	-0.263026
C150	C	1.199909	-0.319704	-0.013026
C151	C	1.449909	-0.069704	0.236974
C152	C	1.699909	0.180296	0.486974
C153	C	0.949939	-0.635446	-0.263040
C154	C	1.199939	-0.385446	-0.013040
C155	C	1.449939	-0.135446	0.236960
C156	C	1.699939	0.114554	0.486960
C157	C	0.909672	-0.668333	-0.303263
C158	C	1.159672	-0.418333	-0.053263
C159	C	1.409672	-0.168333	0.196737
C160	C	1.659672	0.081667	0.446737
C161	C	0.869385	-0.635472	-0.343487
C162	C	1.119385	-0.385472	-0.093487
C163	C	1.369385	-0.135472	0.156513
C164	C	1.619385	0.114528	0.406513
C165	C	0.869361	-0.569730	-0.343476
C166	C	1.119361	-0.319730	-0.093476
C167	C	1.369361	-0.069730	0.156524
C168	C	1.619361	0.180270	0.406524
N169	N	0.854605	-0.771598	-0.308056
N170	N	1.104605	-0.521598	-0.058056
N171	N	1.354605	-0.271598	0.191944
N172	N	1.604605	-0.021598	0.441944
N173	N	0.854630	-0.834049	-0.308063
N174	N	1.104630	-0.584049	-0.058063
N175	N	1.354630	-0.334049	0.191937
N176	N	1.604630	-0.084049	0.441937
C177	C	0.909743	-0.866407	-0.303299
C178	C	1.159743	-0.616407	-0.053299
C179	C	1.409743	-0.366407	0.196701
C180	C	1.659743	-0.116407	0.446701
N181	N	0.964832	-0.833955	-0.298517
N182	N	1.214832	-0.583955	-0.048517
N183	N	1.464832	-0.333955	0.201483
N184	N	1.714832	-0.083955	0.451483
N185	N	0.964807	-0.771498	-0.298507
N186	N	1.214807	-0.521498	-0.048507
N187	N	1.464807	-0.271498	0.201493
N188	N	1.714807	-0.021498	0.451493
C189	C	0.909694	-0.739618	-0.303280
C190	C	1.159694	-0.489618	-0.053280
C191	C	1.409694	-0.239618	0.196720
C192	C	1.659694	0.010382	0.446720
C193	C	0.950063	-0.970546	-0.263097
C194	C	1.200063	-0.720546	-0.013097
C195	C	1.450063	-0.470546	0.236903
C196	C	1.700063	-0.220546	0.486903
C197	C	0.950093	-1.036290	-0.263116
C198	C	1.200093	-0.786290	-0.013116
C199	C	1.450093	-0.536290	0.236884
C200	C	1.700093	-0.286290	0.486884
C201	C	0.869534	-1.036314	-0.343559
C202	C	1.119534	-0.786314	-0.093559
C203	C	1.369534	-0.536314	0.156441
C204	C	1.619534	-0.286314	0.406441
C205	C	0.869509	-0.970572	-0.343544
C206	C	1.119509	-0.720572	-0.093544
C207	C	1.369509	-0.470572	0.156456
C208	C	1.619509	-0.220572	0.406456
C209	C	0.909773	-0.937692	-0.303309
C210	C	1.159773	-0.687692	-0.053309
C211	C	1.409773	-0.437692	0.196691
C212	C	1.659773	-0.187692	0.446691
C213	C	1.073875	-0.303348	-0.303289
C214	C	1.323875	-0.053348	-0.053289
C215	C	1.573875	0.196652	0.196711
C216	C	1.823875	0.446652	0.446711
C217	C	1.143843	-0.303356	-0.303297
C218	C	1.393843	-0.053356	-0.053297
C219	C	1.643843	0.196644	0.196703
C220	C	1.893843	0.446644	0.446703
C221	C	0.909737	-0.303317	-0.467461
C222	C	1.159737	-0.053317	-0.217461
C223	C	1.409737	0.196683	0.032539
C224	C	1.659737	0.446683	0.282539
C225	C	0.909759	-0.303312	-0.537429
C226	C	1.159759	-0.053312	-0.287429
C227	C	1.409759	0.196688	-0.037429
C228	C	1.659759	0.446688	0.212571
C229	C	0.909785	-0.139140	-0.303319
C230	C	1.159785	0.110860	-0.053319
C231	C	1.409785	0.360860	0.196681
C232	C	1.659785	0.610860	0.446681
C233	C	0.909827	-0.069172	-0.303340
C234	C	1.159827	0.180828	-0.053340
C235	C	1.409827	0.430828	0.196660
C236	C	1.659827	0.680828	0.446660
C237	C	0.950044	-0.263053	-0.570313
C238	C	1.200044	-0.013053	-0.320313
C239	C	1.450044	0.236947	-0.070313
C240	C	1.700044	0.486947	0.179687
C241	C	0.950043	-0.263025	-0.636056
C242	C	1.200043	-0.013025	-0.386056
C243	C	1.450043	0.236975	-0.136056
C244	C	1.700043	0.486975	0.113944
C245	C	0.909764	-0.303268	-0.668911
C246	C	1.159764	-0.053268	-0.418911
C247	C	1.409764	0.196732	-0.168911
C248	C	1.659764	0.446732	0.081089
C249	C	0.869472	-0.343530	-0.636019
C250	C	1.119472	-0.093530	-0.386019
C251	C	1.369472	0.156470	-0.136019
C252	C	1.619472	0.406470	0.113981
C253	C	0.869470	-0.343552	-0.570278
C254	C	1.119470	-0.093552	-0.320278
C255	C	1.369470	0.156448	-0.070278
C256	C	1.619470	0.406448	0.179722
N257	N	0.904908	-0.358336	-0.772127
N258	N	1.154908	-0.108336	-0.522127
N259	N	1.404908	0.141664	-0.272127
N260	N	1.654908	0.391664	-0.022127
N261	N	0.904914	-0.358314	-0.834578
N262	N	1.154914	-0.108314	-0.584578
N263	N	1.404914	0.141686	-0.334578
N264	N	1.654914	0.391686	-0.084578
C265	C	0.909768	-0.303204	-0.866986
C266	C	1.159768	-0.053204	-0.616986
C267	C	1.409768	0.196796	-0.366986
C268	C	1.659768	0.446796	-0.116986
N269	N	0.914629	-0.248117	-0.834584
N270	N	1.164629	0.001883	-0.584584
N271	N	1.414629	0.251883	-0.334584
N272	N	1.664629	0.501883	-0.084584
N273	N	0.914626	-0.248141	-0.772126
N274	N	1.164626	0.001859	-0.522126
N275	N	1.414626	0.251859	-0.272126
N276	N	1.664626	0.501859	-0.022126
C277	C	0.909762	-0.303249	-0.740197
C278	C	1.159762	-0.053249	-0.490197
C279	C	1.409762	0.196751	-0.240197
C280	C	1.659762	0.446751	0.009803
C281	C	0.950054	-0.262913	-0.971156
C282	C	1.200054	-0.012913	-0.721156
C283	C	1.450054	0.237087	-0.471156
C284	C	1.700054	0.487087	-0.221156
C285	C	0.950048	-0.262884	-1.036900
C286	C	1.200048	-0.012884	-0.786900
C287	C	1.450048	0.237116	-0.536900
C288	C	1.700048	0.487116	-0.286900
C289	C	0.869481	-0.343395	-1.036862
C290	C	1.119481	-0.093395	-0.786862
C291	C	1.369481	0.156605	-0.536862
C292	C	1.619481	0.406605	-0.286862
C293	C	0.869483	-0.343417	-0.971120
C294	C	1.119483	-0.093417	-0.721120
C295	C	1.369483	0.156583	-0.471120
C296	C	1.619483	0.406583	-0.221120
C297	C	0.909773	-0.303177	-0.938271
C298	C	1.159773	-0.053177	-0.688271
C299	C	1.409773	0.196823	-0.438271
C300	C	1.659773	0.446823	-0.188271
C301	C	0.909669	-0.303298	-0.139719
C302	C	1.159669	-0.053298	0.110281
C303	C	1.409669	0.196702	0.360281
C304	C	1.659669	0.446702	0.610281
C305	C	0.909769	-0.303127	-0.069751
C306	C	1.159769	-0.053127	0.180249
C307	C	1.409769	0.196873	0.430249
C308	C	1.659769	0.446873	0.680249
H309	H	0.269221	-0.376486	-0.376199
H310	H	0.519221	-0.126486	-0.126199
H311	H	0.769221	0.123514	0.123801
H312	H	1.019221	0.373514	0.373801
N313	N	0.826033	-0.386849	-0.935659
N314	N	1.076033	-0.136849	-0.685659
N315	N	1.326033	0.113151	-0.435659
N316	N	1.576033	0.363151	-0.185659
H317	H	0.851591	-0.416036	-0.908391
H318	H	1.101591	-0.166036	-0.658391
H319	H	1.351591	0.083964	-0.408391
H320	H	1.601591	0.333964	-0.158391
H321	H	0.796880	-0.361231	-0.908411
H322	H	1.046880	-0.111231	-0.658411
H323	H	1.296880	0.138769	-0.408411
H324	H	1.546880	0.388769	-0.158411
H325	H	0.982745	-0.662201	-0.230292
H326	H	1.232745	-0.412201	0.019708
H327	H	1.482745	-0.162201	0.269708
H328	H	1.732745	0.087799	0.519708
N329	N	0.542109	-0.387128	-0.386801
N330	N	0.792109	-0.137128	-0.136801
N331	N	1.042109	0.112872	0.113199
N332	N	1.292109	0.362872	0.363199
H333	H	0.514806	-0.416264	-0.361168
H334	H	0.764806	-0.166264	-0.111168
H335	H	1.014806	0.083736	0.138832
H336	H	1.264806	0.333736	0.388832
H337	H	0.514896	-0.361548	-0.416017
H338	H	0.764896	-0.111548	-0.166017
H339	H	1.014896	0.138452	0.083983
H340	H	1.264896	0.388452	0.333983
H341	H	0.269217	-0.230208	-0.230379
H342	H	0.519217	0.019792	0.019621
H343	H	0.769217	0.269792	0.269621
H344	H	1.019217	0.519792	0.519621
H345	H	0.836679	-0.376155	-1.063613
H346	H	1.086679	-0.126155	-0.813613
H347	H	1.336679	0.123845	-0.563613
H348	H	1.586679	0.373845	-0.313613
N349	N	0.141252	-0.219565	-0.219758
N350	N	0.391252	0.030435	0.030242
N351	N	0.641252	0.280435	0.280242
N352	N	0.891252	0.530435	0.530242
H353	H	0.172049	-0.194024	-0.194297
H354	H	0.422049	0.055976	0.055703
H355	H	0.672049	0.305976	0.305703
H356	H	0.922049	0.555976	0.555703
H357	H	0.114001	-0.190471	-0.245436
H358	H	0.364001	0.059529	0.004564
H359	H	0.614001	0.309529	0.254564
H360	H	0.864001	0.559529	0.504564
N361	N	0.993501	-0.219607	-0.671532
N362	N	1.243501	0.030393	-0.421532
N363	N	1.493501	0.280393	-0.171532
N364	N	1.743501	0.530393	0.078468
H365	H	0.987389	-0.225702	-0.718163
H366	H	1.237389	0.024298	-0.468163
H367	H	1.487389	0.274298	-0.218163
H368	H	1.737389	0.524298	0.031837
H369	H	0.983738	-0.174650	-0.660043
H370	H	1.233738	0.075350	-0.410043
H371	H	1.483738	0.325350	-0.160043
H372	H	1.733738	0.575350	0.089957
H373	H	0.836663	-0.376335	-0.543504
H374	H	1.086663	-0.126335	-0.293504
H375	H	1.336663	0.123665	-0.043504
H376	H	1.586663	0.373665	0.206496
H377	H	0.982695	-0.542935	-0.230266
H378	H	1.232695	-0.292935	0.019734
H379	H	1.482695	-0.042935	0.269734
H380	H	1.732695	0.207065	0.519734
N381	N	0.825904	-0.534289	-0.386845
N382	N	1.075904	-0.284289	-0.136845
N383	N	1.325904	-0.034289	0.113155
N384	N	1.575904	0.215711	0.363155
H385	H	0.851459	-0.506972	-0.416035
H386	H	1.101459	-0.256972	-0.166035
H387	H	1.351459	-0.006972	0.083965
H388	H	1.601459	0.243028	0.333965
H389	H	0.800407	-0.565134	-0.412289
H390	H	1.050407	-0.315134	-0.162289
H391	H	1.300407	-0.065134	0.087711
H392	H	1.550407	0.184866	0.337711
N393	N	0.542099	-0.219525	-0.219743
N394	N	0.792099	0.030475	0.030257
N395	N	1.042099	0.280475	0.280257
N396	N	1.292099	0.530475	0.530257
H397	H	0.514848	-0.190393	-0.245380
H398	H	0.764848	0.059607	0.004620
H399	H	1.014848	0.309607	0.254620
H400	H	1.264848	0.559607	0.504620
H401	H	0.514834	-0.245110	-0.190533
H402	H	0.764834	0.004890	0.059467
H403	H	1.014834	0.254890	0.309467
H404	H	1.264834	0.504890	0.559467
N405	N	0.678753	-0.387121	-0.386783
N406	N	0.928753	-0.137121	-0.136783
N407	N	1.178753	0.112879	0.113217
N408	N	1.428753	0.362879	0.363217
H409	H	0.647955	-0.412659	-0.412245
H410	H	0.897955	-0.162659	-0.162245
H411	H	1.147955	0.087341	0.087755
H412	H	1.397955	0.337341	0.337755
H413	H	0.706058	-0.361537	-0.415956
H414	H	0.956058	-0.111537	-0.165956
H415	H	1.206058	0.138463	0.084044
H416	H	1.456058	0.388463	0.334044
N417	N	0.993504	-0.219512	-0.935720
N418	N	1.243504	0.030488	-0.685720
N419	N	1.493504	0.280488	-0.435720
N420	N	1.743504	0.530488	-0.185720
H421	H	1.019021	-0.193999	-0.966531
H422	H	1.269021	0.056001	-0.716531
H423	H	1.519021	0.306001	-0.466531
H424	H	1.769021	0.556001	-0.216531
H425	H	0.967898	-0.190388	-0.908432
H426	H	1.217898	0.059612	-0.658432
H427	H	1.467898	0.309612	-0.408432
H428	H	1.717898	0.559612	-0.158432
N429	N	0.825956	-0.670937	-0.386873
N430	N	1.075956	-0.420937	-0.136873
N431	N	1.325956	-0.170937	0.113127
N432	N	1.575956	0.079063	0.363127
H433	H	0.832082	-0.717570	-0.380776
H434	H	1.082082	-0.467570	-0.130776
H435	H	1.332082	-0.217570	0.119224
H436	H	1.582082	0.032430	0.369224
H437	H	0.781000	-0.659489	-0.377033
H438	H	1.031000	-0.409489	-0.127033
H439	H	1.281000	-0.159489	0.122967
H440	H	1.531000	0.090511	0.372967
N441	N	0.678736	-0.219523	-0.219724
N442	N	0.928736	0.030477	0.030276
N443	N	1.178736	0.280477	0.280276
N444	N	1.428736	0.530477	0.530276
H445	H	0.725371	-0.225636	-0.225818
H446	H	0.975371	0.024364	0.024182
H447	H	1.225371	0.274364	0.274182
H448	H	1.475371	0.524364	0.524182
H449	H	0.667270	-0.174580	-0.229602
H450	H	0.917270	0.075420	0.020398
H451	H	1.167270	0.325420	0.270398
H452	H	1.417270	0.575420	0.520398
N453	N	0.993488	-0.935077	-0.219706
N454	N	1.243488	-0.685077	0.030294
N455	N	1.493488	-0.435077	0.280294
N456	N	1.743488	-0.185077	0.530294
H457	H	1.019017	-0.965868	-0.194234
H458	H	1.269017	-0.715868	0.055766
H459	H	1.519017	-0.465868	0.305766
H460	H	1.769017	-0.215868	0.555766
H461	H	1.022595	-0.907758	-0.245350
H462	H	1.272595	-0.657758	0.004650
H463	H	1.522595	-0.407758	0.254650
H464	H	1.772595	-0.157758	0.504650
H465	H	0.982902	-1.063038	-0.230368
H466	H	1.232902	-0.813038	0.019632
H467	H	1.482902	-0.563038	0.269632
H468	H	1.732902	-0.313038	0.519632
H469	H	0.836703	-0.943821	-0.376289
H470	H	1.086703	-0.693821	-0.126289
H471	H	1.336703	-0.443821	0.123711
H472	H	1.586703	-0.193821	0.373711
H473	H	0.982850	-0.230285	-0.543571
H474	H	1.232850	0.019715	-0.293571
H475	H	1.482850	0.269715	-0.043571
H476	H	1.732850	0.519715	0.206429
N477	N	0.826108	-1.071775	-0.386949
N478	N	1.076108	-0.821775	-0.136949
N479	N	1.326108	-0.571775	0.113051
N480	N	1.576108	-0.321775	0.363051
H481	H	0.832237	-1.118408	-0.380856
H482	H	1.082237	-0.868408	-0.130856
H483	H	1.332237	-0.618408	0.119144
H484	H	1.582237	-0.368408	0.369144
H485	H	0.781150	-1.060330	-0.377109
H486	H	1.031150	-0.810330	-0.127109
H487	H	1.281150	-0.560330	0.122891
H488	H	1.531150	-0.310330	0.372891
H489	H	0.836675	-0.376294	-0.662775
H490	H	1.086675	-0.126294	-0.412775
H491	H	1.336675	0.123706	-0.162775
H492	H	1.586675	0.373706	0.087225
N493	N	0.993503	-0.219455	-1.072361
N494	N	1.243503	0.030545	-0.822361
N495	N	1.493503	0.280545	-0.572361
N496	N	1.743503	0.530545	-0.322361
H497	H	1.022658	-0.245030	-1.099651
H498	H	1.272658	0.004970	-0.849651
H499	H	1.522658	0.254970	-0.599651
H500	H	1.772658	0.504970	-0.349651
H501	H	0.967899	-0.190273	-1.099589
H502	H	1.217899	0.059727	-0.849589
H503	H	1.467899	0.309727	-0.599589
H504	H	1.717899	0.559727	-0.349589
N505	N	0.141265	-0.387154	-0.386822
N506	N	0.391265	-0.137154	-0.136822
N507	N	0.641265	0.112846	0.113178
N508	N	0.891265	0.362846	0.363178
H509	H	0.172067	-0.412693	-0.412274
H510	H	0.422067	-0.162693	-0.162274
H511	H	0.672067	0.087307	0.087726
H512	H	0.922067	0.337307	0.337726
H513	H	0.113970	-0.416250	-0.361138
H514	H	0.363970	-0.166250	-0.111138
H515	H	0.613970	0.083750	0.138862
H516	H	0.863970	0.333750	0.388862
