data_functionalizedCrystal
_audit_creation_method	'MofGen! by Chris Wilmer'
_symmetry_space_group_name_H-M	'P1'
_symmetry_Int_Tables_number	1
_symmetry_cell_setting	triclinic
loop_
_symmetry_equiv_pos_as_xyz
  x,y,z
_cell_length_a	10.654550
_cell_length_b	10.654551
_cell_length_c	9.730223
_cell_angle_alpha	90.001469
_cell_angle_beta	89.996251
_cell_angle_gamma	84.485132
loop_
_atom_site_label
_atom_site_type_symbol
_atom_site_fract_x
_atom_site_fract_y
_atom_site_fract_z
O1	O	1.667835	0.176393	-0.114394
O2	O	1.302356	0.193199	-0.114371
O3	O	1.493498	0.002057	-0.114383
O4	O	1.476693	0.367535	-0.114381
O5	O	1.493496	0.002062	0.114197
O6	O	1.302354	0.193204	0.114209
O7	O	1.667832	0.176398	0.114186
Zn8	Zn	1.485093	0.184802	0.150490
Zn9	Zn	1.485096	0.184795	-0.150674
O10	O	1.476691	0.367540	0.114199
C11	C	1.255557	0.191968	-0.000078
C12	C	1.116114	0.188276	-0.000069
C13	C	1.036629	0.300817	-0.000089
C14	C	0.905608	0.297341	-0.000113
C15	C	0.933570	0.068771	-0.000104
C16	C	1.064589	0.072249	-0.000070
C17	C	1.088154	0.416844	-0.000088
C18	C	1.008667	0.529395	-0.000109
C19	C	0.877647	0.525918	-0.000133
C20	C	0.826112	0.409891	-0.000136
C21	C	1.492263	-0.044739	-0.000096
C22	C	1.488570	-0.184182	-0.000105
C23	C	1.486839	-0.249696	-0.124702
C24	C	1.483359	-0.380717	-0.124695
C25	C	1.483346	-0.380697	0.124515
C26	C	1.486817	-0.249678	0.124507
C27	C	1.488592	-0.184200	-0.249314
C28	C	1.486862	-0.249715	-0.373921
C29	C	1.483382	-0.380735	-0.373914
C30	C	1.481631	-0.446241	-0.249301
C31	C	1.714632	0.177629	-0.000109
C32	C	1.854075	0.181321	-0.000127
C33	C	1.477926	0.414336	-0.000091
C34	C	1.481619	0.553779	-0.000091
N35	N	1.485100	0.184805	0.356026
N36	N	1.485099	0.184782	-0.356211
C37	C	1.569760	0.100197	0.427947
C38	C	1.569756	0.100181	0.571830
C39	C	1.400430	0.269395	0.571859
C40	C	1.400428	0.269403	0.427979
C41	C	1.654431	0.015599	0.355994
C42	C	1.739099	-0.069016	0.427915
C43	C	1.739095	-0.069031	0.571798
C44	C	1.654425	0.015568	0.643760
H45	H	0.812931	0.617562	-0.000136
O46	O	1.215406	0.420385	-0.000246
C47	C	1.251538	0.484193	-0.118647
H48	H	1.167880	0.548915	-0.158135
H49	H	1.332312	0.542705	-0.092013
H50	H	1.283640	0.412558	-0.201531
O51	O	1.141939	-0.036986	-0.000240
C52	C	1.218574	-0.041825	-0.118620
H53	H	1.226064	0.057920	-0.158086
H54	H	1.316620	-0.087736	-0.091969
H55	H	1.175010	-0.099571	-0.201529
O56	O	0.698831	0.406575	-0.000399
C57	C	0.647413	0.468125	-0.118774
H58	H	0.723182	0.468115	-0.201501
H59	H	0.565795	0.416556	-0.158531
H60	H	0.611683	0.569473	-0.092012
O61	O	1.654669	0.015603	0.216228
C62	C	1.774089	0.042288	0.168164
H63	H	1.847855	0.017236	0.251075
H64	H	1.799303	-0.015723	0.071897
H65	H	1.771676	0.146924	0.142652
O66	O	0.883452	-0.043898	-0.000363
C67	C	0.808513	-0.052733	-0.118751
H68	H	0.840090	0.013166	-0.201482
H69	H	0.819400	-0.153849	-0.158492
H70	H	0.705453	-0.024662	-0.092015
O71	O	1.491745	-0.056901	-0.249396
C72	C	1.384353	0.000147	-0.317784
H73	H	1.306457	-0.066070	-0.315586
H74	H	1.350229	0.092264	-0.264105
H75	H	1.409531	0.020381	-0.428957
H76	H	1.808028	-0.137901	0.369316
O77	O	1.488668	-0.185922	0.245457
C78	C	1.599264	-0.123431	0.252939
H79	H	1.635995	-0.108228	0.144757
H80	H	1.577274	-0.028313	0.305677
H81	H	1.673953	-0.183219	0.314432
O82	O	1.821452	-0.151271	0.641450
C83	C	1.896156	-0.225955	0.547084
H84	H	1.898017	-0.174438	0.444529
H85	H	1.996284	-0.244180	0.588647
H86	H	1.854577	-0.319635	0.531770
H87	H	1.488276	-0.196370	-0.475376
O88	O	1.654417	0.015318	0.783529
C89	C	1.627825	-0.104132	0.831577
H90	H	1.652929	-0.177881	0.748651
H91	H	1.685851	-0.129310	0.927833
H92	H	1.523194	-0.101799	0.857101
H93	H	1.331496	0.338273	0.630460
O94	O	1.318322	0.351768	0.358165
C95	C	1.339787	0.476286	0.393352
H96	H	1.440338	0.477839	0.432902
H97	H	1.325890	0.539182	0.298732
H98	H	1.270493	0.512526	0.476870
O99	O	1.058573	0.642174	-0.000286
C100	C	1.018101	0.710829	-0.118694
H101	H	0.926958	0.675805	-0.158178
H102	H	1.000820	0.815260	-0.092073
H103	H	1.093796	0.696942	-0.201577
H104	H	1.481961	-0.434073	-0.475375
O105	O	1.481827	-0.444211	0.245642
C106	C	1.591266	-0.425495	0.321424
H107	H	1.629985	-0.334793	0.285993
H108	H	1.566963	-0.418024	0.435415
H109	H	1.665345	-0.508531	0.304147
H110	H	1.478779	-0.552924	-0.249306
