data_functionalizedCrystal
_audit_creation_method	'MofGen! by Chris Wilmer'
_symmetry_space_group_name_H-M	'P1'
_symmetry_Int_Tables_number	1
_symmetry_cell_setting	triclinic
loop_
_symmetry_equiv_pos_as_xyz
  x,y,z
_cell_length_a	8.559649
_cell_length_b	17.019294
_cell_length_c	7.088929
_cell_angle_alpha	79.934307
_cell_angle_beta	95.325015
_cell_angle_gamma	76.602604
loop_
_atom_site_label
_atom_site_type_symbol
_atom_site_fract_x
_atom_site_fract_y
_atom_site_fract_z
O1	O	2.104072	-0.017831	-0.156021
O2	O	1.638075	0.023302	-0.162803
O3	O	1.886039	-0.113984	-0.140187
O4	O	1.856107	0.119456	-0.178638
O5	O	1.919178	-0.132368	0.180817
O6	O	1.671213	0.004918	0.158201
O7	O	2.137211	-0.036214	0.164982
Cu8	Cu	1.907238	-0.017327	0.190902
Cu9	Cu	1.868047	0.004415	-0.188722
O10	O	1.889246	0.101072	0.142366
C11	C	1.595054	0.017228	-0.002816
C12	C	1.417495	0.026506	-0.004347
C13	C	1.902127	-0.152785	0.025188
C14	C	1.900674	-0.241008	0.039707
C15	C	1.881931	-0.272430	-0.128450
C16	C	1.880556	-0.355324	-0.114801
C17	C	1.897936	-0.406795	0.067006
C18	C	1.916675	-0.375368	0.235175
C19	C	1.918039	-0.292474	0.221524
C20	C	1.894712	-0.657582	0.116974
C21	C	1.893352	-0.740481	0.130612
C22	C	1.857230	-0.720431	-0.219366
C23	C	1.858605	-0.637538	-0.233000
C24	C	1.877336	-0.606116	-0.064831
C25	C	1.896536	-0.491527	0.080961
C26	C	1.878724	-0.521384	-0.078788
C27	C	2.180231	-0.030139	0.004991
C28	C	2.357789	-0.039417	0.006509
C29	C	1.873157	0.139873	-0.023013
C30	C	1.874609	0.228097	-0.037545
N31	N	1.934814	-0.032619	0.457909
N32	N	1.840484	0.019700	-0.455728
H33	H	1.442509	-0.102956	0.016965
H34	H	1.910691	-0.533446	0.228989
Cl35	Cl	2.085779	-0.116328	0.597759
Cl36	Cl	1.689542	0.103412	0.404428
H37	H	1.864563	-0.479471	-0.226814
H38	H	1.332763	0.090050	-0.014823
H39	H	1.865301	-0.380904	-0.251733
Cl40	Cl	1.860093	-0.207731	-0.357019
H41	H	1.844455	-0.595634	-0.381046
Cl42	Cl	1.941600	-0.252972	0.432931
Cl43	Cl	1.833681	-0.759937	-0.430764
Cl44	Cl	1.915212	-0.805190	0.359187
H45	H	1.930816	-0.417282	0.383206
Cl46	Cl	1.918235	-0.618088	0.328389
