data_functionalizedCrystal
_audit_creation_method	'MofGen! by Chris Wilmer'
_symmetry_space_group_name_H-M	'P1'
_symmetry_Int_Tables_number	1
_symmetry_cell_setting	triclinic
loop_
_symmetry_equiv_pos_as_xyz
  x,y,z
_cell_length_a	14.044191
_cell_length_b	14.044191
_cell_length_c	13.101039
_cell_angle_alpha	86.337551
_cell_angle_beta	86.327793
_cell_angle_gamma	86.808224
loop_
_atom_site_label
_atom_site_type_symbol
_atom_site_fract_x
_atom_site_fract_y
_atom_site_fract_z
O1	O	-0.225379	1.281981	-0.085150
O2	O	0.107954	1.615314	0.248184
O3	O	0.441287	1.948648	0.581517
O4	O	-0.217066	1.005309	-0.085163
O5	O	0.116268	1.338642	0.248170
O6	O	0.449601	1.671976	0.581504
O7	O	-0.082886	1.139489	-0.085159
O8	O	0.250447	1.472822	0.248175
O9	O	0.583781	1.806155	0.581508
O10	O	-0.359559	1.147801	-0.085154
O11	O	-0.026226	1.481135	0.248179
O12	O	0.307108	1.814468	0.581512
O13	O	-0.092531	1.129863	0.085271
O14	O	0.240803	1.463196	0.418604
O15	O	0.574136	1.796530	0.751938
O16	O	-0.226710	0.995683	0.085266
O17	O	0.106623	1.329017	0.418600
O18	O	0.439956	1.662350	0.751933
O19	O	-0.235024	1.272355	0.085280
O20	O	0.098309	1.605689	0.418613
O21	O	0.431643	1.939022	0.751947
Zn22	Zn	-0.232398	1.132491	0.112332
Zn23	Zn	0.100935	1.465824	0.445666
Zn24	Zn	0.434268	1.799158	0.778999
Zn25	Zn	-0.219691	1.145173	-0.112216
Zn26	Zn	0.113642	1.478507	0.221118
Zn27	Zn	0.446975	1.811840	0.554451
O28	O	-0.369204	1.138176	0.085275
O29	O	-0.035870	1.471509	0.418609
O30	O	0.297463	1.804842	0.751942
C31	C	-0.218251	0.964874	0.000050
C32	C	0.115082	1.298208	0.333383
C33	C	0.448415	1.631541	0.666716
C34	C	-0.207404	0.858731	0.000044
C35	C	0.125930	1.192065	0.333378
C36	C	0.459263	1.525398	0.666711
C37	C	-0.264505	0.613274	0.000055
C38	C	0.068828	0.946607	0.333389
C39	C	0.402162	1.279940	0.666722
C40	C	-0.187588	0.664397	0.000052
C41	C	0.145745	0.997731	0.333386
C42	C	0.479078	1.331064	0.666719
C43	C	-0.198616	0.772535	0.000048
C44	C	0.134717	1.105868	0.333381
C45	C	0.468050	1.439201	0.666715
C46	C	-0.253479	0.505126	0.000060
C47	C	0.079855	0.838460	0.333393
C48	C	0.413188	1.171793	0.666727
C49	C	-0.400003	1.146625	0.000061
C50	C	-0.066670	1.479958	0.333394
C51	C	0.266663	1.813292	0.666728
C52	C	-0.506147	1.157472	0.000063
C53	C	-0.172814	1.490805	0.333396
C54	C	0.160520	1.824139	0.666730
C55	C	-0.751603	1.100372	0.000051
C56	C	-0.418270	1.433706	0.333384
C57	C	-0.084937	1.767039	0.666718
C58	C	-0.700480	1.177288	0.000057
C59	C	-0.367147	1.510622	0.333390
C60	C	-0.033813	1.843955	0.666723
C61	C	-0.592343	1.166260	0.000060
C62	C	-0.259010	1.499593	0.333393
C63	C	0.074324	1.832927	0.666727
C64	C	-0.859750	1.111399	0.000048
C65	C	-0.526417	1.444732	0.333381
C66	C	-0.193083	1.778066	0.666714
C67	C	-0.052086	1.131040	0.000053
C68	C	0.281247	1.464373	0.333387
C69	C	0.614581	1.797706	0.666720
C70	C	0.054058	1.120193	0.000045
C71	C	0.387391	1.453526	0.333378
C72	C	0.720724	1.786859	0.666712
C73	C	-0.233838	1.312790	0.000065
C74	C	0.099495	1.646124	0.333398
C75	C	0.432829	1.979457	0.666731
C76	C	-0.244685	1.418934	0.000064
C77	C	0.088648	1.752267	0.333397
C78	C	0.421981	2.085600	0.666730
N79	N	-0.241071	1.123843	0.265581
N80	N	0.092263	1.457176	0.598914
N81	N	0.425596	1.790509	0.932247
N82	N	-0.211012	1.153829	-0.265464
N83	N	0.122321	1.487162	0.067869
N84	N	0.455655	1.820495	0.401203
C85	C	-0.252879	1.112077	0.474623
C86	C	0.080455	1.445410	0.807956
C87	C	0.413788	1.778743	1.141290
C88	C	-0.199207	1.165592	0.525500
C89	C	0.134126	1.498925	0.858834
C90	C	0.467460	1.832258	1.192167
C91	C	-0.205777	1.159045	0.641819
C92	C	0.127556	1.492378	0.975152
C93	C	0.460890	1.825712	1.308485
C94	C	-0.246310	1.118622	0.358294
C95	C	0.087024	1.451956	0.691628
C96	C	0.420357	1.785289	1.024961
H97	H	-0.113451	0.626956	-0.000021
H98	H	0.219882	0.960289	0.333312
H99	H	0.553215	1.293623	0.666646
H100	H	-0.148324	1.216325	0.481700
H101	H	0.185009	1.549658	0.815033
H102	H	0.518343	1.882991	1.148367
Br103	Br	-0.689195	0.976819	0.000045
Br104	Br	-0.355861	1.310153	0.333378
Br105	Br	-0.022528	1.643486	0.666711
H106	H	-0.338632	0.650717	0.000053
H107	H	-0.005298	0.984050	0.333387
H108	H	0.328035	1.317383	0.666720
Br109	Br	-0.762886	1.300849	0.000063
Br110	Br	-0.429553	1.634183	0.333396
Br111	Br	-0.096220	1.967516	0.666730
Br112	Br	-0.337686	1.027524	0.547620
Br113	Br	-0.004353	1.360858	0.880953
Br114	Br	0.328980	1.694191	1.214287
