data_functionalizedCrystal
_audit_creation_method	'MofGen! by Chris Wilmer'
_symmetry_space_group_name_H-M	'P1'
_symmetry_Int_Tables_number	1
_symmetry_cell_setting	triclinic
loop_
_symmetry_equiv_pos_as_xyz
  x,y,z
_cell_length_a	6.817900
_cell_length_b	11.168129
_cell_length_c	16.255661
_cell_angle_alpha	93.883722
_cell_angle_beta	103.488922
_cell_angle_gamma	108.508637
loop_
_atom_site_label
_atom_site_type_symbol
_atom_site_fract_x
_atom_site_fract_y
_atom_site_fract_z
V1	V	-4.052429	-0.175725	-0.263878
O2	O	-4.013108	0.007395	-0.258848
O3	O	-4.029109	-0.347423	-0.262081
O4	O	-4.003663	-0.173482	-0.378962
O5	O	-4.038731	-0.167750	-0.141158
V6	V	-4.532855	-0.153767	-0.249199
O7	O	-4.320482	-0.223891	-0.296079
O8	O	-4.714999	-0.105601	-0.216999
O9	O	-4.332968	0.017931	-0.250997
O10	O	-4.689573	-0.336887	-0.254230
O11	O	-4.663951	-0.161742	-0.371920
O12	O	-4.358415	-0.156010	-0.134116
C13	C	-3.880223	-0.389265	-0.257920
C14	C	-3.942441	-0.529634	-0.257218
C15	C	-3.929402	-0.574794	-0.183250
C16	C	-3.993706	-0.719872	-0.182522
C17	C	-3.847763	-0.167385	-0.407012
C18	C	-3.889341	-0.166687	-0.501093
C19	C	-3.798678	-0.158357	-0.723911
C20	C	-3.970828	-0.265869	-0.793392
C21	C	-3.965534	-0.165380	-0.673342
C22	C	-3.867494	-0.056637	-0.771498
C23	C	-4.039116	-0.164111	-0.839725
C24	C	-4.137180	-0.272988	-0.741592
C25	C	-4.033769	-0.063661	-0.719683
C26	C	-4.206061	-0.171203	-0.789144
C27	C	-3.923140	-0.166112	-0.577492
C28	C	-4.081528	-0.163389	-0.935574
C29	C	-4.145198	0.059767	-0.255155
C30	C	-4.062218	0.200134	-0.255863
C31	C	-4.177658	-0.162111	-0.106061
C32	C	-4.115317	-0.162802	-0.011979
H33	H	-4.073270	-0.760971	-0.319194
N34	N	-3.979799	-0.768639	-0.103065
N35	N	-3.803018	-0.736737	-0.047962
H36	H	-3.793194	-0.771178	0.008158
N37	N	-4.016145	-0.615877	-0.335980
N38	N	-3.916759	-0.688597	-0.349569
H39	H	-3.968812	-0.749507	-0.405196
H40	H	-3.870645	-0.506052	-0.120463
N41	N	-3.582248	-0.151727	-0.688188
N42	N	-3.518624	-0.237571	-0.712942
H43	H	-3.365775	-0.232895	-0.687712
N44	N	-4.422684	-0.178081	-0.824715
N45	N	-4.547361	-0.268877	-0.881484
H46	H	-4.700356	-0.273745	-0.906608
H47	H	-3.944667	-0.351359	-0.825481
N48	N	-4.066444	0.043597	-0.679384
N49	N	-3.915849	0.123723	-0.622957
H50	H	-3.938902	0.199485	-0.594490
H51	H	-4.250792	-0.364520	-0.728129
H52	H	-3.753881	0.034772	-0.785104
