data_functionalizedCrystal
_audit_creation_method	'MofGen! by Chris Wilmer'
_symmetry_space_group_name_H-M	'P1'
_symmetry_Int_Tables_number	1
_symmetry_cell_setting	triclinic
loop_
_symmetry_equiv_pos_as_xyz
  x,y,z
_cell_length_a	14.560438
_cell_length_b	14.628931
_cell_length_c	14.628931
_cell_angle_alpha	59.999807
_cell_angle_beta	60.001476
_cell_angle_gamma	90.001411
loop_
_atom_site_label
_atom_site_type_symbol
_atom_site_fract_x
_atom_site_fract_y
_atom_site_fract_z
Zr1	Zr	0.884754	-0.119948	1.000594
O2	O	0.738108	-0.265912	1.191297
O3	O	0.929709	-0.075202	0.809889
O4	O	0.929709	-0.265909	1.000595
O5	O	0.738108	0.075226	1.000591
O6	O	1.080847	-0.265906	1.000598
O7	O	0.738108	-0.075206	1.000591
O8	O	1.080847	0.075232	0.659459
O9	O	0.738108	-0.265912	1.341729
O10	O	1.061674	-0.056117	0.888331
O11	O	0.948882	0.056147	0.888329
O12	O	0.948882	-0.168385	1.112861
O13	O	0.836089	-0.056121	1.112858
Zr14	Zr	1.125802	0.119977	1.000597
Zr15	Zr	1.125802	-0.119944	1.000598
Zr16	Zr	0.884754	0.119974	1.000593
Zr17	Zr	0.884754	-0.119949	1.240515
Zr18	Zr	1.125802	0.119978	0.760676
O19	O	1.080848	0.075232	1.191302
O20	O	1.080847	-0.265906	1.191303
O21	O	0.738108	0.075226	1.191296
O22	O	1.272448	0.265941	0.809894
O23	O	1.272448	-0.075197	0.809895
O24	O	0.929709	0.265936	0.809888
O25	O	1.272448	-0.075197	1.000600
O26	O	1.080848	0.265938	1.000596
O27	O	0.929709	0.265935	1.000594
O28	O	1.272448	0.075235	1.000600
O29	O	0.929709	-0.265909	1.341733
O30	O	1.080847	0.265938	0.659459
O31	O	1.272448	0.265941	0.659462
O32	O	1.272448	0.075235	0.659462
O33	O	0.738108	-0.075206	1.341729
O34	O	0.929709	-0.075203	1.341732
O35	O	1.061675	0.168414	0.888330
O36	O	1.174467	0.056150	0.888333
O37	O	1.061675	-0.056118	1.112862
O38	O	0.948882	0.056146	1.112860
C39	C	0.703764	0.000010	1.000590
C40	C	0.601433	0.000008	1.000589
C41	C	1.005278	0.000015	0.700490
C42	C	1.005277	0.000015	0.598637
C43	C	1.005279	0.300120	1.000595
C44	C	1.005279	0.401973	1.000594
C45	C	0.612231	0.058611	0.883389
C46	C	0.516076	0.058621	0.883395
C47	C	0.398328	-0.058583	1.117811
C48	C	0.494482	-0.058586	1.117804
C49	C	0.719181	0.117205	0.766174
C50	C	0.729984	0.175811	0.648964
C51	C	0.633829	0.175821	0.648970
C52	C	0.526872	0.117225	0.766186
C53	C	1.306792	0.000019	1.000601
C54	C	1.409124	0.000021	1.000602
C55	C	1.005278	-0.300091	1.000596
C56	C	1.005277	-0.401944	1.000597
C57	C	0.949326	0.391690	1.111976
C58	C	0.949325	0.496959	1.111978
C59	C	1.061230	-0.055675	0.553229
C60	C	1.061231	-0.055676	0.447959
C61	C	1.005279	0.000014	1.300701
C62	C	1.005279	0.000014	1.402554
C63	C	1.306792	0.000020	0.700495
C64	C	1.409123	0.000022	0.598644
C65	C	1.005278	0.300121	0.700489
C66	C	1.005278	0.401974	0.598636
C67	C	1.306792	0.300126	0.700495
C68	C	1.409124	0.401980	0.598643
C69	C	0.703764	-0.300096	1.300697
C70	C	0.601433	-0.401951	1.402548
C71	C	0.703764	0.000009	1.300696
C72	C	0.601433	0.000008	1.402547
C73	C	1.005278	-0.300091	1.300702
C74	C	1.005278	-0.401945	1.402555
C75	C	1.398793	-0.055670	0.553235
C76	C	1.504556	-0.055669	0.447966
C77	C	1.061231	0.503076	0.553228
C78	C	1.061232	0.608348	0.447957
C79	C	1.510699	0.391700	0.553236
C80	C	1.616465	0.496971	0.447967
H81	H	0.797482	0.117201	0.766155
H82	H	1.518995	0.606702	0.441598
H83	H	1.496267	0.047697	0.559592
H84	H	1.109138	-0.103349	0.592281
H85	H	0.311238	-0.106292	1.213243
H86	H	1.495887	-0.103345	0.408912
H87	H	0.901426	0.488330	1.207336
H88	H	0.901419	0.304953	1.207332
H89	H	1.703602	0.488343	0.408913
H90	H	1.053175	0.488711	0.905238
H91	H	1.109130	-0.103360	0.408915
H92	H	1.614803	0.047714	0.441600
H93	H	1.400463	0.488717	0.559589
H94	H	1.109129	0.511697	0.592291
H95	H	1.109137	0.695079	0.408905
H96	H	0.957380	0.511332	0.441591
H97	H	0.957378	0.047696	0.559576
H98	H	0.957371	0.393353	0.559582
H99	H	1.519363	0.304965	0.592297
H100	H	0.642630	0.223550	0.553533
H101	H	0.817073	0.223525	0.553532
H102	H	1.053186	0.606694	0.905234
H103	H	0.485686	-0.106284	1.213238
H104	H	0.448580	0.117245	0.766181
H105	H	1.311649	-0.103355	0.592297
H106	H	0.957368	0.047690	0.441603
