data_functionalizedCrystal
_audit_creation_method	'MofGen! by Chris Wilmer'
_symmetry_space_group_name_H-M	'P1'
_symmetry_Int_Tables_number	1
_symmetry_cell_setting	triclinic
loop_
_symmetry_equiv_pos_as_xyz
  x,y,z
_cell_length_a	15.944493
_cell_length_b	15.021413
_cell_length_c	12.837942
_cell_angle_alpha	89.994069
_cell_angle_beta	90.848008
_cell_angle_gamma	89.992483
loop_
_atom_site_label
_atom_site_type_symbol
_atom_site_fract_x
_atom_site_fract_y
_atom_site_fract_z
O1	O	1.125231	-0.074020	-0.133392
O2	O	1.375231	0.175980	0.116608
O3	O	1.625231	0.425980	0.366608
O4	O	1.875231	0.675980	0.616608
O5	O	0.881999	-0.074024	-0.149937
O6	O	1.131999	0.175976	0.100063
O7	O	1.381999	0.425976	0.350063
O8	O	1.631999	0.675976	0.600063
O9	O	0.998221	-0.074016	0.009237
O10	O	1.248221	0.175984	0.259237
O11	O	1.498221	0.425984	0.509237
O12	O	1.748221	0.675984	0.759237
O13	O	1.009008	-0.074027	-0.292566
O14	O	1.259008	0.175973	-0.042566
O15	O	1.509008	0.425973	0.207434
O16	O	1.759008	0.675973	0.457434
O17	O	0.998201	0.074048	0.009212
O18	O	1.248201	0.324048	0.259212
O19	O	1.498201	0.574048	0.509212
O20	O	1.748201	0.824048	0.759212
O21	O	0.881978	0.074040	-0.149963
O22	O	1.131978	0.324040	0.100037
O23	O	1.381978	0.574040	0.350037
O24	O	1.631978	0.824040	0.600037
O25	O	1.125211	0.074044	-0.133417
O26	O	1.375211	0.324044	0.116583
O27	O	1.625211	0.574044	0.366583
O28	O	1.875211	0.824044	0.616583
Zn29	Zn	1.003591	0.097551	-0.141694
Zn30	Zn	1.253591	0.347551	0.108306
Zn31	Zn	1.503591	0.597551	0.358306
Zn32	Zn	1.753591	0.847551	0.608306
Zn33	Zn	1.003618	-0.097530	-0.141661
Zn34	Zn	1.253618	0.152470	0.108339
Zn35	Zn	1.503618	0.402470	0.358339
Zn36	Zn	1.753618	0.652470	0.608339
O37	O	1.008988	0.074037	-0.292592
O38	O	1.258988	0.324037	-0.042592
O39	O	1.508988	0.574037	0.207408
O40	O	1.758988	0.824037	0.457408
C41	C	0.850639	0.000008	-0.149274
C42	C	1.100639	0.250008	0.100726
C43	C	1.350639	0.500008	0.350726
C44	C	1.600639	0.750008	0.600726
C45	C	0.757229	0.000006	-0.147247
C46	C	1.007229	0.250006	0.102753
C47	C	1.257229	0.500006	0.352753
C48	C	1.507229	0.750006	0.602753
C49	C	0.528964	0.000002	-0.240940
C50	C	0.778964	0.250002	0.009060
C51	C	1.028964	0.500002	0.259060
C52	C	1.278964	0.750002	0.509060
C53	C	0.474353	0.073011	-0.190428
C54	C	0.724353	0.323011	0.059572
C55	C	0.974353	0.573011	0.309572
C56	C	1.224353	0.823011	0.559572
C57	C	0.586207	0.000008	-0.143490
C58	C	0.836207	0.250008	0.106510
C59	C	1.086207	0.500008	0.356510
C60	C	1.336207	0.750008	0.606510
C61	C	0.474376	-0.072969	-0.190379
C62	C	0.724376	0.177031	0.059621
C63	C	0.974376	0.427031	0.309621
C64	C	1.224376	0.677031	0.559621
C65	C	0.421008	0.000006	-0.139868
C66	C	0.671008	0.250006	0.110132
C67	C	0.921008	0.500006	0.360132
C68	C	1.171008	0.750006	0.610132
C69	C	0.532827	0.073077	-0.093003
C70	C	0.782827	0.323077	0.156997
C71	C	1.032827	0.573077	0.406997
C72	C	1.282827	0.823077	0.656997
C73	C	0.532854	-0.072968	-0.092969
C74	C	0.782854	0.177032	0.157031
C75	C	1.032854	0.427032	0.407031
C76	C	1.282854	0.677032	0.657031
C77	C	0.478271	0.000059	-0.042385
C78	C	0.728271	0.250059	0.207615
C79	C	0.978271	0.500059	0.457615
C80	C	1.228271	0.750059	0.707615
C81	C	0.681374	0.000010	-0.145579
C82	C	0.931374	0.250010	0.104421
C83	C	1.181374	0.500010	0.354421
C84	C	1.431374	0.750010	0.604421
C85	C	0.325843	0.000010	-0.137772
C86	C	0.575843	0.250010	0.112228
C87	C	0.825843	0.500010	0.362228
C88	C	1.075843	0.750010	0.612228
N89	N	1.003579	0.230688	-0.141717
N90	N	1.253579	0.480688	0.108283
N91	N	1.503579	0.730688	0.358283
N92	N	1.753579	0.980688	0.608283
C93	C	0.949822	0.470368	-0.215289
C94	C	1.199822	0.720368	0.034711
C95	C	1.449822	0.970368	0.284711
C96	C	1.699822	1.220368	0.534711
C97	C	1.027332	0.529703	-0.235396
C98	C	1.277332	0.779703	0.014604
C99	C	1.527332	1.029703	0.264604
C100	C	1.777332	1.279703	0.514604
C101	C	1.003596	0.412295	-0.141694
C102	C	1.253596	0.662295	0.108306
C103	C	1.503596	0.912295	0.358306
C104	C	1.753596	1.162295	0.608306
C105	C	0.926106	0.529702	-0.121615
C106	C	1.176106	0.779702	0.128385
C107	C	1.426106	1.029702	0.378385
C108	C	1.676106	1.279702	0.628385
C109	C	1.003605	0.587719	-0.141675
C110	C	1.253605	0.837719	0.108325
C111	C	1.503605	1.087719	0.358325
C112	C	1.753605	1.337719	0.608325
C113	C	1.081148	0.470324	-0.161847
C114	C	1.331148	0.720324	0.088153
C115	C	1.581148	0.970324	0.338153
C116	C	1.831148	1.220324	0.588153
C117	C	0.979868	0.470317	-0.048026
C118	C	1.229868	0.720317	0.201974
C119	C	1.479868	0.970317	0.451974
C120	C	1.729868	1.220317	0.701974
C121	C	1.057430	0.529626	-0.068092
C122	C	1.307430	0.779626	0.181908
C123	C	1.557430	1.029626	0.431908
C124	C	1.807430	1.279626	0.681908
C125	C	1.003589	0.311238	-0.141708
C126	C	1.253589	0.561238	0.108292
C127	C	1.503589	0.811238	0.358292
C128	C	1.753589	1.061238	0.608292
C129	C	1.003621	0.688775	-0.141661
C130	C	1.253621	0.938775	0.108339
C131	C	1.503621	1.188775	0.358339
C132	C	1.753621	1.438775	0.608339
C133	C	1.156570	0.000011	-0.134081
C134	C	1.406570	0.250011	0.115919
C135	C	1.656570	0.500011	0.365919
C136	C	1.906570	0.750011	0.615919
C137	C	1.249981	0.000007	-0.136108
C138	C	1.499981	0.250007	0.113892
C139	C	1.749981	0.500007	0.363892
C140	C	1.999981	0.750007	0.613892
C141	C	0.994567	0.000015	0.047844
C142	C	1.244567	0.250015	0.297844
C143	C	1.494567	0.500015	0.547844
C144	C	1.744567	0.750015	0.797844
C145	C	0.983699	0.000013	0.162919
C146	C	1.233699	0.250013	0.412919
C147	C	1.483699	0.500013	0.662919
C148	C	1.733699	0.750013	0.912919
N149	N	1.003624	0.769332	-0.141650
N150	N	1.253624	1.019332	0.108350
N151	N	1.503624	1.269332	0.358350
N152	N	1.753624	1.519332	0.608350
C153	C	1.012642	0.000003	-0.331199
C154	C	1.262642	0.250003	-0.081199
C155	C	1.512642	0.500003	0.168801
C156	C	1.762642	0.750003	0.418801
C157	C	1.023510	-0.000001	-0.446274
C158	C	1.273510	0.249999	-0.196274
C159	C	1.523510	0.499999	0.053726
C160	C	1.773510	0.749999	0.303726
C161	C	1.114353	-0.000003	0.403902
C162	C	1.364353	0.249997	0.653902
C163	C	1.614353	0.499997	0.903902
C164	C	1.864353	0.749997	1.153902
C165	C	1.104145	-0.000005	0.512026
C166	C	1.354145	0.249995	0.762026
C167	C	1.604145	0.499995	1.012026
C168	C	1.854145	0.749995	1.262026
C169	C	0.953077	0.000002	0.487293
C170	C	1.203077	0.250002	0.737293
C171	C	1.453077	0.500002	0.987293
C172	C	1.703077	0.750002	1.237293
C173	C	0.963285	0.000004	0.379169
C174	C	1.213285	0.250004	0.629169
C175	C	1.463285	0.500004	0.879169
C176	C	1.713285	0.750004	1.129169
C177	C	1.043925	0.000003	0.337478
C178	C	1.293925	0.250003	0.587478
C179	C	1.543925	0.500003	0.837478
C180	C	1.793925	0.750003	1.087478
C181	C	1.054132	0.000011	0.229352
C182	C	1.304132	0.250011	0.479352
C183	C	1.554132	0.500011	0.729352
C184	C	1.804132	0.750011	0.979352
C185	C	0.903065	0.000011	0.204621
C186	C	1.153065	0.250011	0.454621
C187	C	1.403065	0.500011	0.704621
C188	C	1.653065	0.750011	0.954621
C189	C	0.892857	0.000009	0.312745
C190	C	1.142857	0.250009	0.562745
C191	C	1.392857	0.500009	0.812745
C192	C	1.642857	0.750009	1.062745
H193	H	0.551303	0.000067	-0.324884
H194	H	0.801303	0.250067	-0.074884
H195	H	1.051303	0.500067	0.175116
H196	H	1.301303	0.750067	0.425116
H197	H	0.904403	0.444350	-0.277575
H198	H	1.154403	0.694350	-0.027575
H199	H	1.404403	0.944350	0.222425
H200	H	1.654403	1.194350	0.472425
H201	H	0.456085	0.000104	0.041622
H202	H	0.706085	0.250104	0.291622
H203	H	0.956085	0.500104	0.541622
H204	H	1.206085	0.750104	0.791622
H205	H	1.102963	0.555481	-0.005844
H206	H	1.352963	0.805481	0.244156
H207	H	1.602963	1.055481	0.494156
H208	H	1.852963	1.305481	0.744156
H209	H	0.558519	-0.134691	-0.051835
H210	H	0.808519	0.115309	0.198165
H211	H	1.058519	0.365309	0.448165
H212	H	1.308519	0.615309	0.698165
H213	H	0.845718	0.000022	0.150526
H214	H	1.095718	0.250022	0.400526
H215	H	1.345718	0.500022	0.650526
H216	H	1.595718	0.750022	0.900526
H217	H	0.448700	0.134731	-0.231593
H218	H	0.698700	0.384731	0.018407
H219	H	0.948700	0.634731	0.268407
H220	H	1.198700	0.884731	0.518407
H221	H	0.558356	0.134862	-0.051884
H222	H	0.808356	0.384862	0.198116
H223	H	1.058356	0.634862	0.448116
H224	H	1.308356	0.884862	0.698116
H225	H	0.448740	-0.134683	-0.231543
H226	H	0.698740	0.115317	0.018457
H227	H	0.948740	0.365317	0.268457
H228	H	1.198740	0.615317	0.518457
H229	H	1.047411	0.555788	-0.314600
H230	H	1.297411	0.805788	-0.064600
H231	H	1.547411	1.055788	0.185400
H232	H	1.797411	1.305788	0.435400
H233	H	1.119793	0.000013	0.195409
H234	H	1.369793	0.250013	0.445409
H235	H	1.619793	0.500013	0.695409
H236	H	1.869793	0.750013	0.945409
H237	H	0.887424	-0.000007	0.521258
H238	H	1.137424	0.249993	0.771258
H239	H	1.387424	0.499993	1.021258
H240	H	1.637424	0.749993	1.271258
H241	H	1.180013	0.000005	0.369957
H242	H	1.430013	0.250005	0.619957
H243	H	1.680013	0.500005	0.869957
H244	H	1.930013	0.750005	1.119957
H245	H	1.161495	-0.000012	0.566106
H246	H	1.411495	0.249988	0.816106
H247	H	1.661495	0.499988	1.066106
H248	H	1.911495	0.749988	1.316106
H249	H	0.959768	0.444212	0.031154
H250	H	1.209768	0.694212	0.281154
H251	H	1.459768	0.944212	0.531154
H252	H	1.709768	1.194212	0.781154
H253	H	1.146705	0.444351	-0.178917
H254	H	1.396705	0.694351	0.071083
H255	H	1.646705	0.944351	0.321083
H256	H	1.896705	1.194351	0.571083
H257	H	0.860570	0.555787	-0.104640
H258	H	1.110570	0.805787	0.145360
H259	H	1.360570	1.055787	0.395360
H260	H	1.610570	1.305787	0.645360
H261	H	0.827202	0.000007	0.346705
H262	H	1.077202	0.250007	0.596705
H263	H	1.327202	0.500007	0.846705
H264	H	1.577202	0.750007	1.096705
