data_functionalizedCrystal
_audit_creation_method	'MofGen! by Chris Wilmer'
_symmetry_space_group_name_H-M	'P1'
_symmetry_Int_Tables_number	1
_symmetry_cell_setting	triclinic
loop_
_symmetry_equiv_pos_as_xyz
  x,y,z
_cell_length_a	10.654562
_cell_length_b	17.019294
_cell_length_c	15.500235
_cell_angle_alpha	88.964516
_cell_angle_beta	87.138702
_cell_angle_gamma	83.940708
loop_
_atom_site_label
_atom_site_type_symbol
_atom_site_fract_x
_atom_site_fract_y
_atom_site_fract_z
O1	O	1.672571	0.106793	-0.079956
O2	O	2.172571	0.606793	0.420044
O3	O	1.306992	0.117300	-0.080727
O4	O	1.806992	0.617300	0.419273
O5	O	1.499291	-0.002299	-0.071819
O6	O	1.999291	0.497701	0.428181
O7	O	1.480271	0.226392	-0.088864
O8	O	1.980271	0.726392	0.411136
O9	O	1.487667	0.004957	0.071529
O10	O	1.987667	0.504957	0.571529
O11	O	1.295368	0.124555	0.062621
O12	O	1.795368	0.624555	0.562621
O13	O	1.660947	0.114049	0.063392
O14	O	2.160947	0.614049	0.563392
Cu15	Cu	1.477096	0.119964	0.076095
Cu16	Cu	1.977096	0.619964	0.576095
Cu17	Cu	1.490843	0.111384	-0.093430
Cu18	Cu	1.990843	0.611384	0.406570
O19	O	1.468647	0.233647	0.054484
O20	O	1.968647	0.733647	0.554484
C21	C	1.254389	0.120154	-0.008994
C22	C	1.754389	0.620154	0.491006
C23	C	1.114969	0.117840	-0.008818
C24	C	1.614969	0.617840	0.491182
C25	C	1.043113	0.120715	0.069395
C26	C	1.543113	0.620715	0.569395
C27	C	0.912113	0.118546	0.069542
C28	C	1.412113	0.618546	0.569542
C29	C	0.924836	0.110630	-0.086743
C30	C	1.424836	0.610630	0.413257
C31	C	1.055835	0.112793	-0.086889
C32	C	1.555835	0.612793	0.413111
C33	C	1.102247	0.125762	0.147466
C34	C	1.602247	0.625762	0.647466
C35	C	1.030390	0.128638	0.225686
C36	C	1.530390	0.628638	0.725686
C37	C	0.899390	0.126469	0.225833
C38	C	1.399390	0.626469	0.725833
C39	C	0.840247	0.121424	0.147761
C40	C	1.340247	0.621424	0.647761
C41	C	1.492529	-0.027954	0.002036
C42	C	1.992529	0.472046	0.502036
C43	C	1.489682	-0.115208	0.008534
C44	C	1.989682	0.384792	0.508534
C45	C	1.494684	-0.160151	-0.066552
C46	C	1.994684	0.339849	0.433448
C47	C	1.492001	-0.242135	-0.060444
C48	C	1.992001	0.257865	0.439556
C49	C	1.484325	-0.279175	0.020751
C50	C	1.984325	0.220825	0.520751
C51	C	1.479319	-0.234226	0.095842
C52	C	1.979319	0.265774	0.595842
C53	C	1.481993	-0.152243	0.089733
C54	C	1.981993	0.347757	0.589733
C55	C	1.475925	-0.526512	0.043106
C56	C	1.975925	-0.026512	0.543106
C57	C	1.473255	-0.608501	0.049209
C58	C	1.973255	-0.108501	0.549209
C59	C	1.485935	-0.616404	-0.107077
C60	C	1.985935	-0.116404	0.392923
C61	C	1.488616	-0.534420	-0.113179
C62	C	1.988616	-0.034420	0.386821
C63	C	1.483603	-0.489478	-0.038088
C64	C	1.983603	0.010522	0.461912
C65	C	1.481586	-0.362976	0.026997
C66	C	1.981586	0.137024	0.526997
C67	C	1.486333	-0.405678	-0.044335
C68	C	1.986333	0.094322	0.455665
C69	C	1.713549	0.111194	-0.008342
C70	C	2.213549	0.611194	0.491658
C71	C	1.852970	0.113508	-0.008525
C72	C	2.352970	0.613508	0.491475
C73	C	1.475410	0.259302	-0.019373
C74	C	1.975410	0.759302	0.480627
C75	C	1.478257	0.346556	-0.025876
C76	C	1.978257	0.846556	0.474124
N77	N	1.467436	0.125999	0.195331
N78	N	1.967436	0.625999	0.695331
N79	N	1.500512	0.105343	-0.212665
N80	N	2.000512	0.605343	0.287335
C81	C	1.419009	0.156008	0.738283
C82	C	1.919009	0.656008	1.238283
C83	C	1.426342	0.151459	0.648049
C84	C	1.926342	0.651459	1.148049
C85	C	1.515185	0.096250	0.606868
C86	C	2.015185	0.596250	1.106868
C87	C	1.596691	0.045580	0.655927
C88	C	2.096691	0.545580	1.155927
C89	C	1.589352	0.050125	0.746159
C90	C	2.089352	0.550125	1.246159
C91	C	1.541603	0.079874	0.334622
C92	C	2.041603	0.579874	0.834622
C93	C	1.548939	0.075334	0.244382
C94	C	2.048939	0.575334	0.744382
C95	C	1.378587	0.181213	0.236511
C96	C	1.878587	0.681213	0.736511
C97	C	1.371260	0.185757	0.326745
C98	C	1.871260	0.685757	0.826745
C99	C	1.452762	0.135084	0.375796
C100	C	1.952762	0.635084	0.875796
C101	C	1.522685	0.091601	0.514635
C102	C	2.022685	0.591601	1.014635
C103	C	1.445255	0.139730	0.468028
C104	C	1.945255	0.639730	0.968028
H105	H	0.876671	0.106525	-0.150306
H106	H	1.376671	0.606525	0.349694
H107	H	1.078555	0.132740	0.289249
H108	H	1.578555	0.632740	0.789249
F109	F	1.465092	-0.647921	0.135632
F110	F	1.965092	-0.147921	0.635632
F111	F	1.132314	0.109732	-0.170132
F112	F	1.632314	0.609732	0.329868
F113	F	1.617240	0.032844	0.470802
F114	F	2.117240	0.532844	0.970802
H115	H	1.496079	-0.278724	-0.121587
H116	H	1.996079	0.221276	0.378413
H117	H	1.208912	0.127530	0.147355
H118	H	1.708912	0.627530	0.647355
F119	F	1.502862	-0.120738	-0.152971
F120	F	2.002862	0.379262	0.347029
F121	F	0.822919	0.129524	0.309079
F122	F	1.322919	0.629524	0.809079
H123	H	0.733577	0.119656	0.147887
H124	H	1.233577	0.619656	0.647887
H125	H	1.312231	0.222468	0.196566
H126	H	1.812231	0.722468	0.696566
H127	H	1.477902	-0.115650	0.150876
H128	H	1.977902	0.384350	0.650876
F129	F	1.496788	-0.495005	-0.199598
F130	F	1.996788	0.004995	0.300402
H131	H	1.490013	-0.653005	-0.168212
H132	H	1.990013	-0.153005	0.331788
H133	H	1.492574	-0.375515	-0.110443
H134	H	1.992574	0.124485	0.389557
F135	F	1.470574	-0.478691	0.123026
F136	F	1.970574	0.021309	0.623026
H137	H	1.473061	-0.264390	0.161953
H138	H	1.973061	0.235610	0.661953
H139	H	1.621291	0.030373	0.210858
H140	H	2.121291	0.530373	0.710858
F141	F	1.473412	-0.402404	0.113408
F142	F	1.973412	0.097596	0.613408
F143	F	1.324456	0.214774	0.782102
F144	F	1.824456	0.714774	1.282102
H145	H	1.359976	0.192714	0.608112
H146	H	1.859976	0.692714	1.108112
F147	F	1.276706	0.244518	0.370572
F148	F	1.776706	0.744518	0.870572
F149	F	1.628345	0.025947	0.386818
F150	F	2.128345	0.525947	0.886818
H151	H	1.669025	0.000623	0.622392
H152	H	2.169025	0.500623	1.122392
F153	F	1.676095	-0.003802	0.798363
F154	F	2.176095	0.496198	1.298363
H155	H	1.372915	0.184679	0.501561
H156	H	1.872915	0.684679	1.001561
