data_functionalizedCrystal
_audit_creation_method	'MofGen! by Chris Wilmer'
_symmetry_space_group_name_H-M	'P1'
_symmetry_Int_Tables_number	1
_symmetry_cell_setting	triclinic
loop_
_symmetry_equiv_pos_as_xyz
  x,y,z
_cell_length_a	10.654550
_cell_length_b	14.519709
_cell_length_c	9.730223
_cell_angle_alpha	89.997715
_cell_angle_beta	89.996251
_cell_angle_gamma	84.082524
loop_
_atom_site_label
_atom_site_type_symbol
_atom_site_fract_x
_atom_site_fract_y
_atom_site_fract_z
O1	O	1.666589	0.129528	-0.114406
O2	O	1.300991	0.141869	-0.114384
O3	O	1.493483	0.001510	-0.114384
O4	O	1.474097	0.269887	-0.114407
O5	O	1.493481	0.001514	0.114196
O6	O	1.300989	0.141873	0.114195
O7	O	1.666586	0.129532	0.114174
Zn8	Zn	1.483787	0.135703	0.150477
Zn9	Zn	1.483790	0.135698	-0.150687
O10	O	1.474094	0.269890	0.114173
C11	C	1.254201	0.140965	-0.000092
C12	C	1.114784	0.138254	-0.000083
C13	C	1.492579	-0.032852	-0.000093
C14	C	1.489871	-0.135247	-0.000092
C15	C	1.034504	0.220895	-0.000110
C16	C	0.903507	0.218342	-0.000134
C17	C	0.933085	0.050500	-0.000108
C18	C	1.064078	0.053054	-0.000075
C19	C	1.017426	0.317797	-0.000131
C20	C	0.886430	0.315244	-0.000154
C21	C	1.479904	-0.510195	-0.000127
C22	C	1.482672	-0.405873	-0.000117
C23	C	1.484887	-0.322725	-0.000109
C24	C	1.487656	-0.218396	-0.000101
C25	C	1.713377	0.130436	-0.000122
C26	C	1.852794	0.133147	-0.000140
C27	C	1.474999	0.304253	-0.000120
C28	C	1.477707	0.406648	-0.000130
N29	N	1.483795	0.135705	0.356013
N30	N	1.483793	0.135688	-0.356224
C31	C	1.569052	0.073576	0.427939
C32	C	1.569048	0.073565	0.571822
C33	C	1.398527	0.197821	0.571840
C34	C	1.398525	0.197827	0.427959
C35	C	1.667505	0.001840	0.427931
C36	C	1.667502	0.001829	0.571814
H37	H	1.129439	-0.014241	-0.000033
H38	H	1.758473	0.024302	0.383297
C39	C	1.305754	0.265158	0.649886
C40	C	1.182324	0.249339	0.614917
C41	C	1.096826	0.311344	0.686797
H42	H	1.319349	0.326845	0.626374
H43	H	1.317877	0.256249	0.745891
H44	H	1.170205	0.258255	0.518934
H45	H	1.168688	0.187664	0.638433
H46	H	1.108950	0.302435	0.782802
H47	H	1.110433	0.373027	0.663279
H48	H	1.013070	0.300614	0.663090
C49	C	1.639549	-0.092632	0.375940
C50	C	1.521155	-0.111808	0.424067
C51	C	1.495350	-0.198818	0.376191
H52	H	1.702410	-0.138621	0.408446
H53	H	1.639472	-0.092651	0.278301
H54	H	1.521243	-0.111796	0.521686
H55	H	1.458269	-0.065842	0.391565
H56	H	1.495272	-0.198838	0.278551
H57	H	1.558218	-0.244800	0.408699
H58	H	1.415013	-0.211837	0.408827
C59	C	1.627451	-0.087400	0.631385
C60	C	1.519436	-0.067188	0.712277
C61	C	1.482497	-0.149363	0.767154
H62	H	1.693674	-0.116561	0.686418
H63	H	1.609416	-0.127689	0.558696
H64	H	1.537477	-0.026915	0.784957
H65	H	1.453188	-0.038040	0.657276
H66	H	1.464462	-0.189652	0.694465
H67	H	1.548728	-0.178518	0.822180
H68	H	1.409199	-0.135662	0.822035
H69	H	0.891784	-0.018867	-0.000123
C70	C	1.056019	0.368170	0.127587
C71	C	1.020268	0.321453	0.244854
C72	C	1.055815	0.367819	0.362529
H73	H	1.015497	0.429589	0.127771
H74	H	1.144918	0.369879	0.127688
H75	H	0.931386	0.319755	0.244753
H76	H	1.060786	0.260037	0.244715
H77	H	1.144714	0.369528	0.362631
H78	H	1.015290	0.429237	0.362700
H79	H	1.031574	0.336124	0.442109
H80	H	1.329091	0.248409	0.369398
C81	C	1.796046	0.022950	0.623618
C82	C	1.874677	0.035882	0.511463
C83	C	1.993091	0.055349	0.559131
H84	H	1.832422	-0.027299	0.677812
H85	H	1.786655	0.077649	0.677824
H86	H	1.884072	-0.018811	0.457280
H87	H	1.838341	0.086133	0.457257
H88	H	1.983700	0.110047	0.613338
H89	H	2.029455	0.005097	0.613326
H90	H	2.046452	0.064134	0.483043
H91	H	1.052786	0.348651	-0.098821
H92	H	0.840476	0.344531	0.098527
C93	C	0.830552	0.363922	-0.127830
C94	C	0.927332	0.396248	-0.205904
C95	C	0.875907	0.441083	-0.323528
H96	H	0.772088	0.414673	-0.101446
H97	H	0.788497	0.321645	-0.181060
H98	H	0.969366	0.438522	-0.152684
H99	H	0.985803	0.345514	-0.232323
H100	H	0.833852	0.398806	-0.376758
H101	H	0.817443	0.491831	-0.297131
H102	H	0.941564	0.463015	-0.376522
