data_functionalizedCrystal
_audit_creation_method	'MofGen! by Chris Wilmer'
_symmetry_space_group_name_H-M	'P1'
_symmetry_Int_Tables_number	1
_symmetry_cell_setting	triclinic
loop_
_symmetry_equiv_pos_as_xyz
  x,y,z
_cell_length_a	10.540539
_cell_length_b	10.654550
_cell_length_c	9.730223
_cell_angle_alpha	90.003749
_cell_angle_beta	90.000775
_cell_angle_gamma	95.494803
loop_
_atom_site_label
_atom_site_type_symbol
_atom_site_fract_x
_atom_site_fract_y
_atom_site_fract_z
O1	O	0.178295	-1.667897	-0.114396
O2	O	0.195282	-1.302424	-0.114373
O3	O	0.002079	-1.493499	-0.114383
O4	O	0.371498	-1.476822	-0.114386
O5	O	0.002084	-1.493496	0.114197
O6	O	0.195287	-1.302422	0.114207
O7	O	0.178300	-1.667895	0.114184
Zn8	Zn	0.186794	-1.485158	0.150487
Zn9	Zn	0.186788	-1.485161	-0.150677
O10	O	0.371503	-1.476820	0.114194
C11	C	-0.045221	-1.492247	-0.000096
C12	C	-0.186168	-1.488505	-0.000103
C13	C	0.194038	-1.255625	-0.000080
C14	C	0.190306	-1.116180	-0.000072
C15	C	0.179545	-1.714694	-0.000112
C16	C	0.183276	-1.854139	-0.000129
C17	C	-0.369543	-1.345134	-0.000607
C18	C	-0.222926	-1.348927	-0.000093
C19	C	-0.247847	-1.555675	0.130423
C20	C	-0.394389	-1.550912	0.130533
C21	C	-0.394914	-1.553753	-0.129405
C22	C	-0.247933	-1.555039	-0.131131
C23	C	0.418803	-1.478072	-0.000096
C24	C	0.559750	-1.481813	-0.000098
N25	N	0.186798	-1.485165	0.356024
C26	C	0.304061	-1.036734	-0.000093
C27	C	0.300547	-0.905712	-0.000116
C28	C	0.069513	-0.933595	-0.000104
C29	C	0.073028	-1.064614	-0.000071
C30	C	0.437446	-1.020636	-0.000106
C31	C	0.433932	-0.889614	-0.000129
N32	N	0.186774	-1.485164	-0.356213
C33	C	0.101277	-1.569795	0.427945
C34	C	0.101261	-1.569791	0.571828
C35	C	0.272299	-1.400525	0.571855
C36	C	0.272308	-1.400523	0.427975
C37	C	0.002533	-1.667523	0.427931
C38	C	0.002518	-1.667520	0.571814
H39	H	-0.180306	-1.296074	-0.093659
H40	H	0.033451	-1.758718	0.383299
H41	H	-0.019602	-1.129295	-0.000034
Cl42	Cl	-0.213394	-1.713932	0.137915
H43	H	0.341918	-1.331611	0.630454
Cl44	Cl	-0.148107	-1.634363	0.367627
H45	H	0.474245	-0.843956	0.098554
Cl46	Cl	-0.139831	-1.620350	0.640713
Cl47	Cl	0.511518	-0.825201	-0.147828
H48	H	-0.442394	-1.651295	0.136449
H49	H	0.024268	-1.764039	0.610858
H50	H	0.341935	-1.331600	0.369418
H51	H	-0.205228	-1.509014	0.227563
Cl52	Cl	-0.184078	-1.479793	-0.280237
Cl53	Cl	0.517995	-1.065958	0.147585
Cl54	Cl	-0.413668	-1.260000	-0.145123
H55	H	-0.181149	-1.295701	0.093636
Cl56	Cl	-0.416690	-1.260111	0.142683
H57	H	-0.223748	-1.656802	-0.139019
Cl58	Cl	-0.443587	-1.483996	-0.282148
Cl59	Cl	-0.467885	-1.709404	-0.130775
Cl60	Cl	-0.437902	-1.474259	0.281180
Cl61	Cl	-0.077914	-0.868759	-0.000103
Cl62	Cl	0.503015	-1.075721	-0.152469
