data_functionalizedCrystal
_audit_creation_method	'MofGen! by Chris Wilmer'
_symmetry_space_group_name_H-M	'P1'
_symmetry_Int_Tables_number	1
_symmetry_cell_setting	triclinic
loop_
_symmetry_equiv_pos_as_xyz
  x,y,z
_cell_length_a	17.019311
_cell_length_b	16.098538
_cell_length_c	16.992695
_cell_angle_alpha	87.084303
_cell_angle_beta	87.024688
_cell_angle_gamma	96.609511
loop_
_atom_site_label
_atom_site_type_symbol
_atom_site_fract_x
_atom_site_fract_y
_atom_site_fract_z
O1	O	1.059922	0.145259	0.092561
O2	O	1.559922	0.645259	0.592561
O3	O	0.830272	0.128790	0.106126
O4	O	1.330272	0.628790	0.606126
O5	O	0.944177	0.136966	-0.014795
O6	O	1.444177	0.636966	0.485205
O7	O	0.946017	0.137083	0.213482
O8	O	1.446017	0.637083	0.713482
O9	O	0.937521	-0.002025	-0.007759
O10	O	1.437521	0.497975	0.492241
O11	O	0.823617	-0.010201	0.113162
O12	O	1.323617	0.489799	0.613162
O13	O	1.053266	0.006268	0.099597
O14	O	1.553266	0.506268	0.599597
Zn15	Zn	0.937385	-0.024034	0.107496
Zn16	Zn	1.437385	0.475966	0.607496
Zn17	Zn	0.946154	0.159092	0.098226
Zn18	Zn	1.446154	0.659092	0.598226
O19	O	0.939362	-0.001908	0.220518
O20	O	1.439362	0.498092	0.720518
C21	C	0.797424	0.057177	0.109267
C22	C	1.297424	0.557177	0.609267
C23	C	0.709460	0.050870	0.108136
C24	C	1.209460	0.550870	0.608136
C25	C	0.211774	0.011395	0.101954
C26	C	0.711774	0.511395	0.601954
C27	C	0.294425	0.017324	0.103017
C28	C	0.794425	0.517324	0.603017
C29	C	0.339379	0.096053	0.099707
C30	C	0.839379	0.596053	0.599707
C31	C	0.301678	0.168859	0.095342
C32	C	0.801678	0.668859	0.595342
C33	C	0.219028	0.162930	0.094285
C34	C	0.719028	0.662930	0.594285
C35	C	0.589109	0.117746	0.102713
C36	C	1.089109	0.617746	0.602713
C37	C	0.671765	0.123670	0.103768
C38	C	1.171765	0.623670	0.603768
C39	C	0.664506	-0.027866	0.111445
C40	C	1.164506	0.472134	0.611445
C41	C	0.581856	-0.033788	0.110382
C42	C	1.081856	0.466212	0.610382
C43	C	0.544161	0.039017	0.106021
C44	C	1.044161	0.539017	0.606021
C45	C	0.423862	0.102115	0.100791
C46	C	0.923862	0.602115	0.600791
C47	C	0.459679	0.032955	0.104943
C48	C	0.959679	0.532955	0.604943
N49	N	0.931406	-0.149012	0.113823
N50	N	1.431406	0.350988	0.613823
C51	C	0.979772	-0.189126	0.062517
C52	C	1.479772	0.310874	0.562517
C53	C	0.975597	-0.276614	0.066950
C54	C	1.475597	0.223386	0.566950
C55	C	0.923060	-0.323988	0.122693
C56	C	1.423060	0.176012	0.622693
C57	C	0.874689	-0.283869	0.174001
C58	C	1.374689	0.216131	0.674001
C59	C	0.878860	-0.196382	0.169564
C60	C	1.378860	0.303618	0.669564
C61	C	0.907939	-0.588323	0.138765
C62	C	1.407939	-0.088323	0.638765
C63	C	0.903773	-0.675816	0.143199
C64	C	1.403773	-0.175816	0.643199
C65	C	1.004680	-0.668556	0.036147
C66	C	1.504680	-0.168556	0.536147
C67	C	1.008850	-0.581067	0.031718
C68	C	1.508850	-0.081067	0.531718
C69	C	0.960476	-0.540956	0.083023
C70	C	1.460476	-0.040956	0.583023
C71	C	0.918794	-0.413415	0.127227
C72	C	1.418794	0.086585	0.627227
C73	C	0.964739	-0.451530	0.078485
C74	C	1.464739	0.048470	0.578485
C75	C	1.086115	0.077882	0.096455
C76	C	1.586115	0.577882	0.596455
C77	C	1.174078	0.084196	0.097587
C78	C	1.674078	0.584196	0.597587
C79	C	0.938481	0.067304	-0.040479
C80	C	1.438481	0.567304	0.459521
C81	C	0.931414	0.066808	-0.127490
C82	C	1.431414	0.566808	0.372510
N83	N	0.952138	0.284071	0.091894
N84	N	1.452138	0.784071	0.591894
C85	C	0.945058	0.067756	0.246201
C86	C	1.445058	0.567756	0.746201
C87	C	0.952125	0.068257	0.333213
C88	C	1.452125	0.568257	0.833213
C89	C	0.883936	0.063367	0.383775
C90	C	1.383936	0.563367	0.883775
C91	C	0.890582	0.063854	0.465530
C92	C	1.390582	0.563854	0.965530
C93	C	0.965417	0.069225	0.496721
C94	C	1.465417	0.569225	0.996721
C95	C	1.033611	0.074118	0.446152
C96	C	1.533611	0.574118	0.946152
C97	C	1.026965	0.073637	0.364398
C98	C	1.526965	0.573637	0.864398
C99	C	0.992962	0.071220	0.740187
C100	C	1.492962	0.571220	1.240187
C101	C	0.999603	0.071698	0.821947
C102	C	1.499603	0.571698	1.321947
C103	C	0.856573	0.061436	0.841320
C104	C	1.356573	0.561436	1.341320
C105	C	0.849933	0.060950	0.759564
C106	C	1.349933	0.560950	1.259564
C107	C	0.918128	0.065847	0.709002
C108	C	1.418128	0.565847	1.209002
N109	N	0.972211	0.069721	0.580287
N110	N	1.472211	0.569721	1.080287
N111	N	0.911333	0.065358	0.625437
N112	N	1.411333	0.565358	1.125437
H113	H	0.338285	0.232962	0.092652
H114	H	0.838285	0.732962	0.592652
Cl115	Cl	0.837721	-0.735365	0.213285
Cl116	Cl	1.337721	-0.235365	0.713285
H117	H	1.048491	0.075202	0.699029
H118	H	1.548491	0.575202	1.199029
Cl119	Cl	1.127690	0.080877	0.485363
Cl120	Cl	1.627690	0.580877	0.985363
Cl121	Cl	0.808638	-0.343422	0.244075
Cl122	Cl	1.308638	0.156578	0.744075
H123	H	0.708364	0.187784	0.101079
H124	H	1.208364	0.687784	0.601079
Cl125	Cl	0.525347	-0.132766	0.114561
Cl126	Cl	1.025347	0.367234	0.614561
Cl127	Cl	0.711898	-0.119387	0.116933
Cl128	Cl	1.211898	0.380613	0.616933
Cl129	Cl	0.804854	0.057715	0.529091
Cl130	Cl	1.304854	0.557715	1.029091
Cl131	Cl	1.036400	-0.327044	0.002449
Cl132	Cl	1.536400	0.172956	0.502449
H133	H	0.423074	-0.031146	0.107642
H134	H	0.923074	0.468854	0.607642
Cl135	Cl	0.541733	0.209274	0.097226
Cl136	Cl	1.041733	0.709274	0.597226
Cl137	Cl	1.030780	-0.391975	0.008408
Cl138	Cl	1.530780	0.108025	0.508408
Cl139	Cl	0.755851	0.054201	0.720359
Cl140	Cl	1.255851	0.554201	1.220359
Cl141	Cl	0.171638	0.254454	0.088798
Cl142	Cl	0.671638	0.754454	0.588798
H143	H	1.060545	0.076071	0.847339
H144	H	1.560545	0.576071	1.347339
H145	H	0.801053	0.057450	0.882495
H146	H	1.301053	0.557450	1.382495
Cl147	Cl	0.789852	0.056609	0.344572
Cl148	Cl	1.289852	0.556609	0.844572
H149	H	1.051629	-0.542497	-0.013672
H150	H	1.551629	-0.042497	0.486328
Cl151	Cl	0.480383	0.201086	0.096620
Cl152	Cl	0.980383	0.701086	0.596620
Cl153	Cl	0.818052	-0.145955	0.234063
Cl154	Cl	1.318052	0.354045	0.734063
Cl155	Cl	1.045826	-0.129579	-0.007560
Cl156	Cl	1.545826	0.370421	0.492440
Cl157	Cl	1.065486	-0.718985	-0.028350
Cl158	Cl	1.565486	-0.218985	0.471650
H159	H	0.325113	-0.041958	0.106571
H160	H	0.825113	0.458042	0.606571
H161	H	0.868552	-0.555671	0.180541
H162	H	1.368552	-0.055671	0.680541
H163	H	0.876019	-0.451994	0.172615
H164	H	1.376019	0.048006	0.672615
H165	H	0.175178	-0.052715	0.104653
H166	H	0.675178	0.447285	0.604653
Cl167	Cl	1.112692	0.079790	0.300833
Cl168	Cl	1.612692	0.579790	0.800833
