data_functionalizedCrystal
_audit_creation_method	'MofGen! by Chris Wilmer'
_symmetry_space_group_name_H-M	'P1'
_symmetry_Int_Tables_number	1
_symmetry_cell_setting	triclinic
loop_
_symmetry_equiv_pos_as_xyz
  x,y,z
_cell_length_a	11.169417
_cell_length_b	17.637651
_cell_length_c	11.169409
_cell_angle_alpha	101.252056
_cell_angle_beta	90.019513
_cell_angle_gamma	101.220701
loop_
_atom_site_label
_atom_site_type_symbol
_atom_site_fract_x
_atom_site_fract_y
_atom_site_fract_z
Zn1	Zn	1.738332	-0.314683	0.581808
Zn2	Zn	2.238332	0.185317	1.081808
Zn3	Zn	1.697612	-0.446928	0.340477
Zn4	Zn	2.197612	0.053072	0.840477
Zn5	Zn	1.537602	-0.314732	0.381129
Zn6	Zn	2.037602	0.185268	0.881129
Zn7	Zn	1.497035	-0.446865	0.541142
Zn8	Zn	1.997035	0.053135	1.041142
O9	O	1.617645	-0.380802	0.461139
O10	O	2.117645	0.119198	0.961139
O11	O	1.900878	-0.332232	0.549801
O12	O	2.400878	0.167768	1.049801
O13	O	1.676322	-0.429439	0.177905
O14	O	2.176322	0.070561	0.677905
O15	O	1.598248	-0.204082	0.441781
O16	O	2.098248	0.295918	0.941781
O17	O	1.870961	-0.429392	0.372496
O18	O	2.370961	0.070608	0.872496
O19	O	1.745723	-0.204046	0.589220
O20	O	2.245723	0.295954	1.089220
O21	O	1.558764	-0.332315	0.207772
O22	O	2.058764	0.167685	0.707772
O23	O	1.364273	-0.332254	0.402349
O24	O	1.864273	0.167746	0.902349
O25	O	1.529108	-0.429284	0.714501
O26	O	2.029108	0.070716	1.214501
O27	O	1.334469	-0.429331	0.519910
O28	O	1.834469	0.070669	1.019910
O29	O	1.706387	-0.332170	0.744378
O30	O	2.206387	0.167830	1.244378
O31	O	1.636986	-0.557563	0.333064
O32	O	2.136986	-0.057563	0.833064
O33	O	1.489624	-0.557516	0.480492
O34	O	1.989624	-0.057516	0.980492
C35	C	1.305824	-0.380791	0.461129
C36	C	1.805824	0.119209	0.961129
C37	C	1.172420	-0.380806	0.461147
C38	C	1.672420	0.119194	0.961147
C39	C	1.554517	-0.586228	0.397980
C40	C	2.054517	-0.086228	0.897980
C41	C	1.527620	-0.674110	0.371000
C42	C	2.027620	-0.174110	0.871000
C43	C	1.822757	-0.962756	0.666478
C44	C	2.322757	-0.462756	1.166478
C45	C	1.797446	-1.045334	0.641106
C46	C	2.297446	-0.545334	1.141106
C47	C	1.643982	-1.045479	0.487430
C48	C	2.143982	-0.545479	0.987430
C49	C	1.669285	-0.962899	0.512785
C50	C	2.169285	-0.462899	1.012785
C51	C	1.758673	-0.921544	0.602312
C52	C	2.258673	-0.421544	1.102312
C53	C	1.605201	-0.921687	0.448619
C54	C	2.105201	-0.421687	0.948619
C55	C	1.630498	-0.839114	0.473977
C56	C	2.130498	-0.339114	0.973977
C57	C	1.719879	-0.797753	0.563502
C58	C	2.219879	-0.297753	1.063502
C59	C	1.783970	-0.838970	0.627670
C60	C	2.283970	-0.338970	1.127670
C61	C	1.515808	-0.963044	0.359099
C62	C	2.015808	-0.463044	0.859099
C63	C	1.451723	-0.921831	0.294932
C64	C	1.951723	-0.421831	0.794932
C65	C	1.477026	-0.839257	0.320284
C66	C	1.977026	-0.339257	0.820284
C67	C	1.566407	-0.797896	0.409809
C68	C	2.066407	-0.297896	0.909809
C69	C	1.412935	-0.798039	0.256116
C70	C	1.912935	-0.298039	0.756116
C71	C	1.438232	-0.715466	0.281474
C72	C	1.938232	-0.215466	0.781474
C73	C	1.591704	-0.715323	0.435167
C74	C	2.091704	-0.215323	0.935167
C75	C	1.930684	-0.380813	0.461150
C76	C	2.430684	0.119187	0.961150
C77	C	2.064083	-0.380818	0.461155
C78	C	2.564083	0.119182	0.961155
C79	C	1.617764	-0.380714	0.774209
C80	C	2.117764	0.119286	1.274209
C81	C	1.617815	-0.380677	0.907620
C82	C	2.117815	0.119323	1.407620
C83	C	1.681053	-0.174574	0.524571
C84	C	2.181053	0.325426	1.024571
C85	C	1.708074	-0.086691	0.551602
C86	C	2.208074	0.413309	1.051602
C87	C	1.617613	-0.380832	0.149305
C88	C	2.117613	0.119168	0.649305
C89	C	1.617863	-0.380647	0.015962
C90	C	2.117863	0.119353	0.515962
H91	H	1.664502	-0.681649	0.508060
H92	H	2.164502	-0.181649	1.008060
F93	F	1.746505	-0.709870	0.590788
F94	F	2.246505	-0.209870	1.090788
F95	F	1.879121	-0.794952	0.722942
F96	F	2.379121	-0.294952	1.222942
H97	H	1.895555	-0.929083	0.739371
H98	H	2.395555	-0.429083	1.239371
F99	F	1.865666	-1.089193	0.709403
F100	F	2.365666	-0.589193	1.209403
H101	H	1.571200	-1.079162	0.414541
H102	H	2.071200	-0.579162	0.914541
H103	H	1.378941	-0.955514	0.222043
H104	H	1.878941	-0.455514	0.722043
F105	F	1.489027	-1.050926	0.331972
F106	F	1.989027	-0.550926	0.831972
F107	F	1.317790	-0.842062	0.160854
F108	F	1.817790	-0.342062	0.660854
F109	F	1.370030	-0.671602	0.213177
F110	F	1.870030	-0.171602	0.713177
