data_functionalizedCrystal
_audit_creation_method	'MofGen! by Chris Wilmer'
_symmetry_space_group_name_H-M	'P1'
_symmetry_Int_Tables_number	1
_symmetry_cell_setting	triclinic
loop_
_symmetry_equiv_pos_as_xyz
  x,y,z
_cell_length_a	16.109301
_cell_length_b	10.654550
_cell_length_c	9.730223
_cell_angle_alpha	90.004253
_cell_angle_beta	90.000571
_cell_angle_gamma	83.973206
loop_
_atom_site_label
_atom_site_type_symbol
_atom_site_fract_x
_atom_site_fract_y
_atom_site_fract_z
O1	O	-1.104090	-0.161420	-0.114203
O2	O	-0.862148	-0.181508	-0.114224
O3	O	-0.988682	0.011350	-0.114204
O4	O	-0.977556	-0.354279	-0.114223
O5	O	-0.988673	0.011356	0.114376
O6	O	-0.862139	-0.181503	0.114356
O7	O	-1.104082	-0.161415	0.114377
Zn8	Zn	-0.983109	-0.171458	0.150658
Zn9	Zn	-0.983120	-0.171465	-0.150505
O10	O	-0.977548	-0.354274	0.114357
C11	C	-0.831164	-0.180692	0.000063
C12	C	-0.738854	-0.178253	0.000055
N13	N	-0.983108	-0.171453	0.356195
C14	C	-1.135066	-0.162231	0.000087
C15	C	-1.227376	-0.164671	0.000086
C16	C	-0.517228	-0.287019	0.000065
C17	C	-0.430494	-0.284717	0.000074
C18	C	-0.449008	-0.055896	0.000080
C19	C	-0.535741	-0.058199	0.000081
C20	C	-0.569848	-0.173764	0.000066
C21	C	-0.396382	-0.169159	0.000075
C22	C	-0.302341	-0.166662	0.000084
C23	C	-0.663895	-0.176262	0.000059
C24	C	-0.987861	0.058140	0.000085
C25	C	-0.985417	0.197550	0.000083
C26	C	-0.978369	-0.401063	0.000065
C27	C	-0.980813	-0.540473	0.000058
C28	C	-1.059918	0.278046	0.000089
C29	C	-1.057616	0.409036	0.000072
C30	C	-0.906306	0.379020	0.000048
C31	C	-0.908608	0.248033	0.000055
N32	N	-0.983128	-0.171461	-0.356042
C33	C	-1.039157	-0.086091	0.428130
C34	C	-1.039165	-0.086091	0.572013
C35	C	-0.927074	-0.256827	0.572013
C36	C	-0.927062	-0.256819	0.428133
H37	H	-0.544996	-0.381119	0.000064
O38	O	-0.379499	-0.394848	0.000007
C39	C	-0.428206	-0.497335	0.000032
H40	H	-0.492745	-0.465435	-0.043245
H41	H	-0.434587	-0.532755	0.109691
C42	C	-0.306344	-0.643710	-0.036459
C43	C	-0.385609	-0.604533	-0.089624
H44	H	-0.280067	-0.709838	-0.091757
H45	H	-0.273528	-0.574664	-0.036471
H46	H	-0.311672	-0.673219	0.054922
H47	H	-0.380279	-0.575010	-0.180996
H48	H	-0.418423	-0.673576	-0.089629
O49	O	-1.093528	-0.003232	0.358035
C50	C	-1.081470	-0.021477	0.215616
H51	H	-1.051017	-0.121330	0.195933
H52	H	-1.039311	0.049580	0.174859
C53	C	-1.203787	0.120130	0.165863
C54	C	-1.166390	-0.002515	0.141688
H55	H	-1.256169	0.131832	0.120258
H56	H	-1.211909	0.132427	0.261813
H57	H	-1.168646	0.179330	0.131898
H58	H	-1.201526	-0.061712	0.175667
H59	H	-1.158276	-0.014821	0.045741
O60	O	-1.130065	0.487050	0.000143
C61	C	-1.198347	0.414398	0.000131
H62	H	-1.177804	0.316633	0.043412
H63	H	-1.221861	0.405065	-0.109524
C64	C	-1.294150	0.599785	0.036623
C65	C	-1.268920	0.479711	0.089792
H66	H	-1.337685	0.640075	0.091924
H67	H	-1.248148	0.648734	0.036626
H68	H	-1.313740	0.591991	-0.054756
H69	H	-1.249321	0.487508	0.181162
H70	H	-1.314921	0.430765	0.089806
O71	O	-0.586742	0.051939	0.000019
C72	C	-0.538042	0.154433	0.000054
H73	H	-0.473502	0.122540	-0.043225
H74	H	-0.531663	0.189862	0.109716
C75	C	-0.659912	0.300791	-0.036425
C76	C	-0.580645	0.261621	-0.089592
H77	H	-0.686193	0.366912	-0.091718
H78	H	-0.692723	0.231740	-0.036444
H79	H	-0.654585	0.330306	0.054959
H80	H	-0.585974	0.232092	-0.180968
H81	H	-0.547836	0.330670	-0.089591
O82	O	-1.093692	-0.003125	0.641677
C83	C	-1.143138	0.072240	0.547323
H84	H	-1.144363	0.020751	0.444754
H85	H	-1.115612	0.165548	0.532036
C86	C	-1.231176	0.161314	0.729436
C87	C	-1.232686	0.098069	0.603462
H88	H	-1.286412	0.177252	0.764066
H89	H	-1.197862	0.110543	0.793005
H90	H	-1.208233	0.239063	0.716679
H91	H	-1.255618	0.020315	0.616223
H92	H	-1.266006	0.148828	0.539896
O93	O	-0.831750	0.428213	-0.000149
C94	C	-0.825888	0.503049	-0.118551
H95	H	-0.891230	0.535697	-0.158013
H96	H	-0.789443	0.445157	-0.201451
C97	C	-0.700194	0.578799	-0.034129
C98	C	-0.780449	0.618907	-0.082590
H99	H	-0.672162	0.650263	-0.011950
H100	H	-0.704141	0.528377	0.045639
H101	H	-0.669834	0.530555	-0.103220
H102	H	-0.810810	0.667137	-0.013493
H103	H	-0.776506	0.669340	-0.162346
H104	H	-1.122460	0.236948	0.000108
H105	H	-0.847937	0.182489	0.000046
H106	H	-0.881443	-0.326332	0.630600
O107	O	-0.872583	-0.339868	0.358459
C108	C	-0.823108	-0.415202	0.452803
H109	H	-0.857208	-0.416651	0.555359
H110	H	-0.761118	-0.374392	0.468127
C111	C	-0.764860	-0.548886	0.270662
C112	C	-0.806744	-0.550674	0.396620
H113	H	-0.754762	-0.632449	0.236005
H114	H	-0.798189	-0.498129	0.207099
H115	H	-0.713206	-0.514871	0.283449
H116	H	-0.858401	-0.584672	0.383828
H117	H	-0.773423	-0.601439	0.460179
H118	H	-0.421227	0.038193	0.000100
