data_functionalizedCrystal
_audit_creation_method	'MofGen! by Chris Wilmer'
_symmetry_space_group_name_H-M	'P1'
_symmetry_Int_Tables_number	1
_symmetry_cell_setting	triclinic
loop_
_symmetry_equiv_pos_as_xyz
  x,y,z
_cell_length_a	8.559649
_cell_length_b	22.610064
_cell_length_c	8.634740
_cell_angle_alpha	90.009877
_cell_angle_beta	94.825514
_cell_angle_gamma	90.006035
loop_
_atom_site_label
_atom_site_type_symbol
_atom_site_fract_x
_atom_site_fract_y
_atom_site_fract_z
O1	O	2.112192	-0.049182	0.051356
O2	O	1.659029	-0.049183	-0.026855
O3	O	1.864160	-0.049182	0.234186
O4	O	1.907062	-0.049184	-0.209685
O5	O	1.864190	0.049187	0.234230
O6	O	1.659060	0.049186	-0.026811
O7	O	2.112223	0.049187	0.051400
Zn8	Zn	1.885646	0.064805	0.012302
Zn9	Zn	1.885606	-0.064801	0.012244
O10	O	1.907092	0.049185	-0.209641
C11	C	1.600427	0.000001	-0.032760
C12	C	1.425763	0.000001	-0.050402
N13	N	1.885578	-0.153253	0.012216
C14	C	1.976736	-0.561894	0.127690
C15	C	1.976746	-0.623814	0.127699
O16	O	2.054236	-0.655833	0.225814
N17	N	1.885679	-0.654791	0.012304
C18	C	1.794607	-0.623844	-0.103116
O19	O	1.717149	-0.655878	-0.201268
C20	C	1.794606	-0.561925	-0.103129
C21	C	1.885667	-0.530952	0.012282
C22	C	2.067791	-0.530921	0.243091
C23	C	2.067778	-0.469005	0.243084
C24	C	1.976709	-0.438063	0.127675
C25	C	1.885654	-0.469036	0.012274
C26	C	1.703544	-0.530980	-0.218554
C27	C	1.703552	-0.469057	-0.218559
C28	C	1.794613	-0.438083	-0.103148
C29	C	1.794572	-0.376178	-0.103141
N30	N	1.885640	-0.345202	0.012253
C31	C	1.976708	-0.376144	0.127662
C32	C	1.794618	-0.753878	-0.103080
C33	C	1.794609	-0.815795	-0.103061
C34	C	1.976751	-0.815761	0.127753
C35	C	1.976750	-0.753842	0.127739
C36	C	1.885686	-0.722901	0.012315
C37	C	1.976673	-0.246117	0.127638
C38	C	1.976646	-0.184196	0.127624
C39	C	1.794511	-0.184235	-0.103193
C40	C	1.794531	-0.246151	-0.103176
C41	C	1.885623	-0.277090	0.012247
O42	O	1.717127	-0.344121	-0.201210
O43	O	2.054169	-0.344103	0.225786
C44	C	2.170825	0.000001	0.057305
C45	C	2.345489	-0.000003	0.074948
C46	C	1.854456	0.000002	0.290508
C47	C	1.825478	-0.000001	0.458259
N48	N	1.885685	0.153257	0.012344
C49	C	1.916796	0.000001	-0.265962
C50	C	1.945774	-0.000000	-0.433714
H51	H	1.360866	-0.000005	-0.171217
Br52	Br	2.191374	-0.426977	0.399712
Br53	Br	1.453654	-0.000003	0.276332
H54	H	2.070943	-0.000022	0.530432
Br55	Br	2.100230	-0.142164	0.284268
Br56	Br	2.100300	-0.288096	0.284285
Br57	Br	2.191402	-0.572904	0.399735
Br58	Br	2.100338	-0.711814	0.284374
H59	H	2.050907	-0.840966	0.221723
Br60	Br	1.670993	-0.857823	-0.259674
H61	H	1.720359	-0.159032	-0.197154
H62	H	1.720449	-0.728688	-0.197069
Br63	Br	1.579956	-0.573002	-0.375191
H64	H	1.629398	-0.443867	-0.312556
H65	H	1.720363	-0.271370	-0.197141
H66	H	1.700317	-0.000004	0.494107
