data_functionalizedCrystal
_audit_creation_method	'MofGen! by Chris Wilmer'
_symmetry_space_group_name_H-M	'P1'
_symmetry_Int_Tables_number	1
_symmetry_cell_setting	triclinic
loop_
_symmetry_equiv_pos_as_xyz
  x,y,z
_cell_length_a	29.839131
_cell_length_b	16.959455
_cell_length_c	16.959447
_cell_angle_alpha	90.016944
_cell_angle_beta	89.966004
_cell_angle_gamma	89.961633
loop_
_atom_site_label
_atom_site_type_symbol
_atom_site_fract_x
_atom_site_fract_y
_atom_site_fract_z
Zn1	Zn	-0.178881	-1.208287	-0.446889
Zn2	Zn	-0.254014	-1.208154	-0.314702
Zn3	Zn	-0.178895	-1.076109	-0.314726
Zn4	Zn	-0.253980	-1.076031	-0.446841
O5	O	-0.216443	-1.142145	-0.380790
O6	O	-0.188855	-1.318880	-0.429364
O7	O	-0.244069	-1.190615	-0.204094
O8	O	-0.116026	-1.093731	-0.332288
O9	O	-0.244056	-1.318783	-0.332247
O10	O	-0.116015	-1.190842	-0.429388
O11	O	-0.188880	-1.093603	-0.204112
O12	O	-0.188847	-0.965488	-0.332242
O13	O	-0.243998	-1.093598	-0.557458
O14	O	-0.244012	-0.965430	-0.429305
O15	O	-0.188823	-1.190766	-0.557493
O16	O	-0.316877	-1.190539	-0.332200
O17	O	-0.316852	-1.093469	-0.429282
C18	C	-0.216428	-0.936779	-0.380771
C19	C	-0.216432	-0.848922	-0.380782
C20	C	-0.333165	-1.142003	-0.380750
C21	C	-0.383100	-1.142014	-0.380760
C22	C	-0.216405	-1.142188	-0.586958
C23	C	-0.216389	-1.142206	-0.674814
C24	C	-0.692743	-1.192782	-0.330313
C25	C	-0.880416	-1.192879	-0.330344
O26	O	-0.904681	-1.235931	-0.287422
N27	N	-0.903885	-1.142309	-0.380849
C28	C	-0.880432	-1.091715	-0.431354
O29	O	-0.904699	-1.048710	-0.474319
C30	C	-0.692760	-1.091622	-0.431327
C31	C	-0.669294	-1.142190	-0.380812
C32	C	-0.669277	-1.243346	-0.279803
C33	C	-0.622362	-1.243318	-0.279793
C34	C	-0.598912	-1.192726	-0.330293
C35	C	-0.622378	-1.142162	-0.380802
C36	C	-0.669308	-1.041032	-0.481835
C37	C	-0.622387	-1.041015	-0.481826
C38	C	-0.598921	-1.091582	-0.431311
C39	C	-0.552013	-1.091541	-0.431292
N40	N	-0.528545	-1.142112	-0.380786
C41	C	-0.551994	-1.192704	-0.330287
C42	C	-0.978962	-1.091766	-0.431364
C43	C	-1.025880	-1.091788	-0.431370
C44	C	-1.025861	-1.192954	-0.330360
C45	C	-0.978943	-1.192927	-0.330351
C46	C	-0.955494	-1.142336	-0.380858
C47	C	-0.453469	-1.192641	-0.330268
C48	C	-0.406549	-1.192606	-0.330260
C49	C	-0.406572	-1.091444	-0.431273
C50	C	-0.453487	-1.091475	-0.431278
C51	C	-0.476935	-1.142080	-0.380773
O52	O	-0.527719	-1.048519	-0.474197
O53	O	-0.527719	-1.235715	-0.287341
C54	C	-0.739659	-1.192810	-0.330323
C55	C	-0.763125	-1.142245	-0.380833
C56	C	-0.739675	-1.091653	-0.431332
C57	C	-0.810042	-1.142268	-0.380839
C58	C	-0.833492	-1.192860	-0.330339
C59	C	-0.810023	-1.243430	-0.279834
C60	C	-0.763108	-1.243402	-0.279824
C61	C	-0.763144	-1.041083	-0.481838
C62	C	-0.810059	-1.041114	-0.481843
C63	C	-0.833508	-1.091707	-0.431344
C64	C	-0.099264	-1.142310	-0.380846
C65	C	-0.049330	-1.142380	-0.380870
C66	C	-0.216458	-1.348313	-0.380808
C67	C	-0.216464	-1.436170	-0.380816
C68	C	-0.187695	-0.477453	-0.330354
C69	C	-0.245227	-0.477441	-0.431270
C70	C	-0.245221	-0.559987	-0.431265
C71	C	-0.216451	-0.601270	-0.380803
C72	C	-0.187688	-0.560006	-0.330346
C73	C	-0.273987	-0.601257	-0.481716
C74	C	-0.273982	-0.683808	-0.481713
C75	C	-0.245210	-0.725092	-0.431254
C76	C	-0.216445	-0.683823	-0.380795
C77	C	-0.187675	-0.725105	-0.330333
C78	C	-0.158908	-0.683838	-0.279878
C79	C	-0.158916	-0.601290	-0.279887
C80	C	-0.245202	-0.807640	-0.431245
C81	C	-0.187669	-0.807659	-0.330325
C82	C	-0.187607	-1.091765	-1.046306
C83	C	-0.245077	-1.192785	-1.046275
C84	C	-0.245087	-1.192772	-0.963729
C85	C	-0.216358	-1.142253	-0.922468
C86	C	-0.187618	-1.091748	-0.963752
C87	C	-0.273830	-1.243270	-0.922438
C88	C	-0.273842	-1.243258	-0.839887
C89	C	-0.245110	-1.192743	-0.798624
C90	C	-0.216368	-1.142236	-0.839914
C91	C	-0.187639	-1.091718	-0.798653
C92	C	-0.158895	-1.041215	-0.839941
C93	C	-0.158886	-1.041233	-0.922490
C94	C	-0.245119	-1.192724	-0.716076
C95	C	-0.187649	-1.091701	-0.716099
C96	C	-0.216447	-1.142149	-0.175423
C97	C	-0.216337	-1.142284	-0.087567
H98	H	-0.472554	-1.233850	-0.289144
H99	H	-0.135484	-1.000116	-0.956114
C100	C	-0.276872	-0.432031	-0.486776
C101	C	-0.312123	-0.375234	-0.452417
C102	C	-0.343767	-0.329819	-0.507927
C103	C	-0.340161	-0.341202	-0.597795
C104	C	-0.304909	-0.398003	-0.632159
C105	C	-0.273264	-0.443417	-0.576649
H106	H	-0.314793	-0.366805	-0.385887
H107	H	-0.369864	-0.287772	-0.482488
H108	H	-0.363587	-0.307584	-0.638887
H109	H	-0.302239	-0.406431	-0.698689
H110	H	-0.247168	-0.485464	-0.602087
H111	H	-0.744055	-0.999886	-0.522962
H112	H	-0.297413	-0.567639	-0.522794
H113	H	-0.744005	-1.284579	-0.238690
H114	H	-0.297406	-0.717400	-0.522797
H115	H	-0.135505	-1.000080	-0.806335
H116	H	-0.164252	-1.050566	-0.682510
C117	C	-0.276842	-0.853035	-0.486737
C118	C	-0.327910	-0.841637	-0.480118
C119	C	-0.359552	-0.887032	-0.535615
C120	C	-0.340126	-0.943825	-0.597731
C121	C	-0.289056	-0.955225	-0.604353
C122	C	-0.257414	-0.909830	-0.548856
H123	H	-0.342293	-0.799594	-0.434134
H124	H	-0.397358	-0.878593	-0.530712
H125	H	-0.363550	-0.977429	-0.638813
H126	H	-0.274673	-0.997269	-0.650337
H127	H	-0.219608	-0.918270	-0.553758
H128	H	-0.164203	-1.050649	-1.079926
C129	C	-0.156021	-0.853067	-0.274814
C130	C	-0.104955	-0.841769	-0.281431
C131	C	-0.073307	-0.887177	-0.225921
C132	C	-0.092726	-0.943881	-0.163793
C133	C	-0.143795	-0.955182	-0.157173
C134	C	-0.175443	-0.909774	-0.212684
H135	H	-0.090578	-0.799791	-0.327424
H136	H	-0.035503	-0.878811	-0.230821
H137	H	-0.069299	-0.977495	-0.122701
H138	H	-0.158172	-0.997160	-0.111180
H139	H	-0.213247	-0.918140	-0.207783
H140	H	-0.387444	-1.233784	-0.289123
H141	H	-0.959874	-1.050567	-0.472494
C142	C	-0.695066	-1.299001	-0.224244
C143	C	-0.727358	-1.264806	-0.162153
C144	C	-0.753142	-1.320460	-0.106584
C145	C	-0.746634	-1.410309	-0.113106
C146	C	-0.714340	-1.444509	-0.175201
C147	C	-0.688556	-1.388855	-0.230769
H148	H	-0.732177	-1.198290	-0.157322
H149	H	-0.777048	-1.295142	-0.060618
H150	H	-0.765721	-1.451507	-0.071971
H151	H	-0.709520	-1.511025	-0.180031
H152	H	-0.664649	-1.414173	-0.276735
H153	H	-0.603258	-1.284497	-0.238662
C154	C	-0.695110	-0.985408	-0.537409
C155	C	-0.688703	-0.895552	-0.530889
C156	C	-0.714503	-0.839926	-0.586469
C157	C	-0.746710	-0.874155	-0.648570
C158	C	-0.753119	-0.964016	-0.655093
C159	C	-0.727319	-1.019642	-0.599513
H160	H	-0.664860	-0.870210	-0.484916
H161	H	-0.709759	-0.773405	-0.581640
H162	H	-0.765809	-0.832977	-0.689714
H163	H	-0.776962	-0.989359	-0.701065
H164	H	-0.732063	-1.086163	-0.604342
H165	H	-0.268470	-1.233909	-1.079875
H166	H	-0.297225	-1.284390	-0.956039
H167	H	-0.387472	-1.050249	-0.472387
H168	H	-0.959839	-1.234104	-0.289218
C169	C	-0.127262	-0.729256	-0.224372
C170	C	-0.076195	-0.717969	-0.230991
C171	C	-0.044549	-0.763390	-0.175488
C172	C	-0.063971	-0.820098	-0.113366
C173	C	-0.115040	-0.831388	-0.106745
C174	C	-0.146686	-0.785966	-0.162247
H175	H	-0.061815	-0.675988	-0.276980
H176	H	-0.006744	-0.755033	-0.180391
H177	H	-0.040545	-0.853722	-0.072280
H178	H	-0.129420	-0.873369	-0.060756
H179	H	-0.184491	-0.794324	-0.157345
H180	H	-0.297248	-1.284379	-0.806277
H181	H	-1.044962	-1.234148	-0.289242
H182	H	-1.044982	-1.050603	-0.472496
H183	H	-0.603297	-0.999818	-0.522958
C184	C	-0.156052	-0.432062	-0.274856
C185	C	-0.120809	-0.375361	-0.309229
C186	C	-0.089167	-0.329968	-0.253732
C187	C	-0.092767	-0.341277	-0.163861
C188	C	-0.128012	-0.397980	-0.129483
C189	C	-0.159654	-0.443372	-0.184980
H190	H	-0.118143	-0.366988	-0.375761
H191	H	-0.063077	-0.287993	-0.279181
H192	H	-0.069344	-0.307674	-0.122778
H193	H	-0.130678	-0.406353	-0.062951
H194	H	-0.185744	-0.485348	-0.159531
H195	H	-0.472594	-1.050301	-0.472414
C196	C	-0.835824	-1.299084	-0.224285
C197	C	-0.868126	-1.264887	-0.162210
C198	C	-0.893929	-1.320541	-0.106669
C199	C	-0.887430	-1.410392	-0.113201
C200	C	-0.855126	-1.444593	-0.175279
C201	C	-0.829323	-1.388939	-0.230820
H202	H	-0.872939	-1.198370	-0.157372
H203	H	-0.917843	-1.295222	-0.060715
H204	H	-0.906531	-1.451590	-0.072086
H205	H	-0.850313	-1.511110	-0.180117
H206	H	-0.805409	-1.414258	-0.276774
H207	H	-0.829161	-0.999929	-0.522978
C208	C	-0.127278	-0.555891	-0.224389
C209	C	-0.092040	-0.499179	-0.258761
C210	C	-0.060404	-0.453774	-0.203263
C211	C	-0.064005	-0.465081	-0.113392
C212	C	-0.099244	-0.521795	-0.079015
C213	C	-0.130880	-0.567200	-0.134513
H214	H	-0.089373	-0.490807	-0.325293
H215	H	-0.034318	-0.411790	-0.228712
H216	H	-0.040586	-0.431470	-0.072309
H217	H	-0.101911	-0.530168	-0.012483
H218	H	-0.156966	-0.609184	-0.109064
H219	H	-0.268519	-1.233848	-0.682462
