data_functionalizedCrystal
_audit_creation_method	'MofGen! by Chris Wilmer'
_symmetry_space_group_name_H-M	'P1'
_symmetry_Int_Tables_number	1
_symmetry_cell_setting	triclinic
loop_
_symmetry_equiv_pos_as_xyz
  x,y,z
_cell_length_a	6.817900
_cell_length_b	13.212940
_cell_length_c	12.908943
_cell_angle_alpha	89.852885
_cell_angle_beta	100.860631
_cell_angle_gamma	106.299459
loop_
_atom_site_label
_atom_site_type_symbol
_atom_site_fract_x
_atom_site_fract_y
_atom_site_fract_z
V1	V	-4.004577	-0.143204	-0.315033
O2	O	-3.983829	0.008223	-0.323209
O3	O	-3.964596	-0.285240	-0.299247
O4	O	-3.942691	-0.140413	-0.458649
O5	O	-4.005887	-0.137607	-0.162704
V6	V	-4.488861	-0.125161	-0.298469
O7	O	-4.264165	-0.182783	-0.351367
O8	O	-4.679470	-0.085583	-0.262135
O9	O	-4.305635	0.016875	-0.314255
O10	O	-4.627005	-0.276589	-0.290293
O11	O	-4.604948	-0.130759	-0.450798
O12	O	-4.327541	-0.127953	-0.154854
C13	C	-3.812082	-0.319884	-0.290760
C14	C	-3.860590	-0.435996	-0.278811
C15	C	-4.015958	-0.683252	-0.446683
C16	C	-4.061538	-0.792350	-0.435460
C17	C	-3.997315	-0.763294	-0.245144
C18	C	-3.951735	-0.654195	-0.256367
C19	C	-3.961063	-0.614179	-0.357139
C20	C	-3.915497	-0.505078	-0.368361
C21	C	-3.851261	-0.476023	-0.178046
C22	C	-3.896840	-0.585122	-0.166823
C23	C	-3.784138	-0.135141	-0.494091
C24	C	-3.814878	-0.133798	-0.611408
C25	C	-4.236508	-0.141640	-0.841607
C26	C	-4.265401	-0.140380	-0.951837
C27	C	-3.901557	-0.130008	-0.942100
C28	C	-3.872664	-0.131269	-0.831870
C29	C	-4.040148	-0.137087	-0.781628
C30	C	-4.011256	-0.138355	-0.671396
C31	C	-3.647410	-0.127976	-0.661660
C32	C	-3.676303	-0.126716	-0.771890
C33	C	-4.121492	0.051513	-0.322738
C34	C	-4.052222	0.167624	-0.334694
C35	C	-4.149436	-0.133228	-0.119405
C36	C	-4.097934	-0.134565	-0.002088
H37	H	-3.923116	-0.472500	-0.450416
H38	H	-3.989717	-0.795895	-0.163099
H39	H	-4.106230	-0.848587	-0.508376
H40	H	-3.765205	-0.125265	-0.983026
H41	H	-3.889246	-0.617719	-0.084776
O42	O	-3.798174	-0.408829	-0.091140
C43	C	-3.942786	-0.349911	-0.096447
H44	H	-4.021464	-0.347857	-0.182254
H45	H	-4.065550	-0.388320	-0.048334
C46	C	-3.732002	-0.238968	0.054068
C47	C	-3.828623	-0.236437	-0.051324
H48	H	-3.661586	-0.168972	0.081905
H49	H	-3.634577	-0.278664	0.057646
H50	H	-3.834323	-0.270980	0.094148
H51	H	-3.726300	-0.204437	-0.091405
H52	H	-3.926029	-0.196732	-0.054909
H53	H	-4.372887	-0.146389	-0.800700
H54	H	-4.023595	-0.650671	-0.528737
H55	H	-3.539948	-0.121975	-0.812812
H56	H	-4.425294	-0.144088	-1.000669
H57	H	-4.147635	-0.143097	-0.630491
H58	H	-3.487518	-0.124273	-0.612813
