data_functionalizedCrystal
_audit_creation_method	'MofGen! by Chris Wilmer'
_symmetry_space_group_name_H-M	'P1'
_symmetry_Int_Tables_number	1
_symmetry_cell_setting	triclinic
loop_
_symmetry_equiv_pos_as_xyz
  x,y,z
_cell_length_a	11.026607
_cell_length_b	12.837942
_cell_length_c	10.065875
_cell_angle_alpha	99.723749
_cell_angle_beta	79.302338
_cell_angle_gamma	101.707478
loop_
_atom_site_label
_atom_site_type_symbol
_atom_site_fract_x
_atom_site_fract_y
_atom_site_fract_z
O1	O	1.677813	0.431471	-0.113501
O2	O	1.318665	0.380952	-0.113502
O3	O	1.490274	0.253824	-0.113493
O4	O	1.506204	0.558600	-0.113509
O5	O	1.457565	0.278190	0.113494
O6	O	1.285956	0.405318	0.113485
O7	O	1.645104	0.455838	0.113486
Zn8	Zn	1.460337	0.434446	0.149525
Zn9	Zn	1.503433	0.402343	-0.149540
O10	O	1.473495	0.582966	0.113478
C11	C	1.256022	0.383815	-0.000008
C12	C	1.118096	0.356032	-0.000008
C13	C	1.053161	0.432745	-0.000013
C14	C	0.910607	0.404032	-0.000014
C15	C	1.468539	0.226382	0.000000
C16	C	1.452492	0.108310	-0.000002
C17	C	1.645414	-0.096651	-0.000030
C18	C	1.630342	-0.207590	-0.000032
C19	C	1.407280	-0.224509	-0.000019
C20	C	1.422351	-0.113570	-0.000017
C21	C	1.541422	-0.049645	-0.000020
C22	C	1.556491	0.061297	-0.000008
C23	C	1.333431	0.044375	-0.000004
C24	C	1.318359	-0.066563	-0.000007
C25	C	1.707748	0.452974	-0.000010
C26	C	1.845676	0.480756	-0.000019
C27	C	1.495231	0.610407	-0.000018
C28	C	1.511279	0.728478	-0.000025
N29	N	1.430934	0.456357	0.353629
N30	N	1.532844	0.380426	-0.353644
C31	C	1.493194	0.409958	0.421411
C32	C	1.470575	0.426831	0.578577
H33	H	0.895613	0.567697	-0.000014
N34	N	1.742498	-0.258298	-0.000038
H35	H	1.806003	-0.244323	-0.084183
H36	H	1.781654	-0.226243	0.084161
H37	H	1.068156	0.269094	-0.000039
N38	N	1.585987	0.340787	0.344193
H39	H	1.559209	0.265583	0.369009
H40	H	1.588966	0.338613	0.242888
H41	H	0.860672	0.317088	-0.000044
N42	N	1.377772	0.495994	0.655811
H43	H	1.374766	0.498242	0.757137
H44	H	1.404594	0.571165	0.630902
H45	H	1.653444	0.113344	-0.000006
N46	N	1.119309	0.547901	-0.000031
H47	H	1.056390	0.595150	-0.000037
H48	H	1.160803	0.571794	0.084115
H49	H	1.742364	-0.044601	-0.000020
N50	N	1.278864	-0.293464	-0.000025
H51	H	1.279771	-0.348894	-0.084175
H52	H	1.255592	-0.330774	0.084169
N53	N	1.625631	0.311247	0.569125
H54	H	1.628637	0.308995	0.467799
H55	H	1.711513	0.342403	0.594009
H56	H	1.248752	0.082660	0.000015
N57	N	1.189940	-0.135514	-0.000007
H58	H	1.196170	-0.212927	-0.000012
H59	H	1.131754	-0.110787	0.084147
N60	N	1.338136	0.525516	0.430868
H61	H	1.335129	0.527764	0.532194
H62	H	1.364958	0.600687	0.405959
