data_functionalizedCrystal
_audit_creation_method	'MofGen! by Chris Wilmer'
_symmetry_space_group_name_H-M	'P1'
_symmetry_Int_Tables_number	1
_symmetry_cell_setting	triclinic
loop_
_symmetry_equiv_pos_as_xyz
  x,y,z
_cell_length_a	19.188925
_cell_length_b	19.188930
_cell_length_c	18.266242
_cell_angle_alpha	90.011475
_cell_angle_beta	89.990012
_cell_angle_gamma	96.856335
loop_
_atom_site_label
_atom_site_type_symbol
_atom_site_fract_x
_atom_site_fract_y
_atom_site_fract_z
O1	O	0.926152	-0.087151	-0.060905
O2	O	1.426152	0.412849	0.439095
O3	O	0.722840	-0.098889	-0.060904
O4	O	1.222840	0.401111	0.439096
O5	O	0.830363	0.008636	-0.060890
O6	O	1.330363	0.508636	0.439110
O7	O	0.818629	-0.194675	-0.060919
O8	O	1.318629	0.305325	0.439081
O9	O	0.830345	0.008642	0.060872
O10	O	1.330345	0.508642	0.560872
O11	O	0.722822	-0.098883	0.060858
O12	O	1.222822	0.401117	0.560858
O13	O	0.926133	-0.087145	0.060857
O14	O	1.426133	0.412855	0.560857
Zn15	Zn	0.824475	-0.093013	0.080190
Zn16	Zn	1.324475	0.406987	0.580190
Zn17	Zn	0.824499	-0.093021	-0.080237
Zn18	Zn	1.324499	0.406979	0.419763
O19	O	0.818610	-0.194670	0.060843
O20	O	1.318610	0.305330	0.560843
C21	C	0.696820	-0.098507	-0.000023
C22	C	1.196820	0.401493	0.499977
C23	C	0.619315	-0.097367	-0.000022
C24	C	1.119315	0.402633	0.499978
C25	C	0.057545	-0.152831	-0.000031
C26	C	0.557545	0.347169	0.499969
C27	C	0.130368	-0.153908	-0.000035
C28	C	0.630368	0.346092	0.499965
C29	C	0.175302	-0.090816	-0.000025
C30	C	0.675302	0.409184	0.499975
C31	C	0.147408	-0.026642	-0.000030
C32	C	0.647408	0.473358	0.499970
C33	C	0.074586	-0.025568	-0.000033
C34	C	0.574586	0.474432	0.499967
N35	N	0.295973	-0.045138	0.041430
N36	N	0.795973	0.454862	0.541430
N37	N	0.365151	-0.046163	0.041435
N38	N	0.865151	0.453837	0.541435
C39	C	0.394712	-0.094050	-0.000017
C40	C	0.894712	0.405950	0.499983
N41	N	0.352480	-0.140883	-0.041464
N42	N	0.852480	0.359117	0.458536
N43	N	0.283296	-0.139860	-0.041465
N44	N	0.783296	0.360140	0.458535
C45	C	0.254267	-0.091974	-0.000022
C46	C	0.754267	0.408026	0.499978
C47	C	0.501561	-0.159386	-0.000022
C48	C	1.001561	0.340614	0.499978
C49	C	0.574385	-0.160460	-0.000031
C50	C	1.074385	0.339540	0.499969
C51	C	0.591425	-0.033193	-0.000018
C52	C	1.091425	0.466807	0.499982
C53	C	0.518601	-0.032121	-0.000016
C54	C	1.018601	0.467879	0.499984
C55	C	0.473673	-0.095220	-0.000015
C56	C	0.973673	0.404780	0.499985
C57	C	0.829974	0.034650	-0.000007
C58	C	1.329974	0.534650	0.499993
C59	C	0.828833	0.112154	-0.000001
C60	C	1.328833	0.612154	0.499999
C61	C	0.952154	-0.087527	-0.000026
C62	C	1.452154	0.412473	0.499974
C63	C	1.029658	-0.088666	-0.000032
C64	C	1.529658	0.411334	0.499968
C65	C	0.819000	-0.220684	-0.000041
C66	C	1.319000	0.279316	0.499959
C67	C	0.820140	-0.298188	-0.000053
C68	C	1.320140	0.201812	0.499947
N69	N	0.824463	-0.093008	0.189677
N70	N	1.324463	0.406992	0.689677
C71	C	0.891924	0.157079	0.000002
C72	C	1.391924	0.657079	0.500002
C73	C	0.890852	0.229903	-0.000009
C74	C	1.390852	0.729903	0.499991
C75	C	0.826686	0.257799	-0.000010
C76	C	1.326686	0.757799	0.499990
C77	C	0.763587	0.212864	-0.000017
C78	C	1.263587	0.712864	0.499983
C79	C	0.764660	0.140041	-0.000012
C80	C	1.264660	0.640041	0.499988
N81	N	0.777633	0.365805	0.041429
N82	N	1.277633	0.865805	0.541429
N83	N	0.776617	0.434983	0.041426
N84	N	1.276617	0.934983	0.541426
C85	C	0.823448	0.477207	-0.000024
C86	C	1.323448	0.977207	0.499976
N87	N	0.871343	0.447641	-0.041463
N88	N	1.371343	0.947641	0.458537
N89	N	0.872361	0.378456	-0.041457
N90	N	1.372361	0.878456	0.458543
C91	C	0.825515	0.336761	-0.000015
C92	C	1.325515	0.836761	0.499985
C93	C	0.885381	0.601097	-0.000035
C94	C	1.385381	1.101097	0.499965
C95	C	0.884307	0.673922	-0.000051
C96	C	1.384307	1.173922	0.499949
C97	C	0.757040	0.656880	-0.000051
C98	C	1.257040	1.156880	0.499949
C99	C	0.758116	0.584057	-0.000042
C100	C	1.258116	1.084057	0.499958
C101	C	0.822289	0.556170	-0.000031
C102	C	1.322289	1.056170	0.499969
N103	N	0.824515	-0.093020	-0.189724
N104	N	1.324515	0.406980	0.310276
C105	C	0.872090	-0.045419	0.227992
C106	C	1.372090	0.454581	0.727992
C107	C	0.872095	-0.045416	0.304637
C108	C	1.372095	0.454584	0.804637
C109	C	0.824479	-0.093013	0.342964
C110	C	1.324479	0.406987	0.842964
C111	C	0.776843	-0.140606	0.304639
C112	C	1.276843	0.359394	0.804639
C113	C	0.776836	-0.140603	0.227996
C114	C	1.276836	0.359397	0.727996
N115	N	0.815403	-0.154821	0.463287
N116	N	1.315403	0.345179	0.963287
N117	N	0.815415	-0.154821	0.536096
N118	N	1.315415	0.345179	1.036096
C119	C	0.824499	-0.093024	0.573886
C120	C	1.324499	0.406976	1.073886
N121	N	0.833584	-0.031223	0.536118
N122	N	1.333584	0.468777	1.036118
N123	N	0.833576	-0.031223	0.463303
N124	N	1.333576	0.468777	0.963303
C125	C	0.824482	-0.093021	0.426071
C126	C	1.324482	0.406979	0.926071
C127	C	0.872133	-0.045427	0.695308
C128	C	1.372133	0.454573	1.195308
C129	C	0.872132	-0.045423	0.771955
C130	C	1.372132	0.454577	1.271955
C131	C	0.776884	-0.140619	0.771956
C132	C	1.276884	0.359381	1.271956
C133	C	0.776881	-0.140617	0.695311
C134	C	1.276881	0.359383	1.195311
C135	C	0.824509	-0.093022	0.656992
C136	C	1.324509	0.406978	1.156992
H137	H	0.051883	0.026685	-0.000033
H138	H	0.551883	0.526685	0.499967
C139	C	0.735462	-0.261577	0.204381
C140	C	1.235462	0.238423	0.704381
C141	C	0.724486	-0.192922	0.185875
C142	C	1.224486	0.307078	0.685875
H143	H	0.703146	-0.293876	0.178373
H144	H	1.203146	0.206124	0.678373
H145	H	0.728646	-0.268384	0.255505
H146	H	1.228646	0.231616	0.755505
H147	H	0.782035	-0.269034	0.191804
H148	H	1.282035	0.230966	0.691804
H149	H	0.677914	-0.185463	0.198457
H150	H	1.177914	0.314537	0.698457
H151	H	0.731296	-0.186112	0.134740
H152	H	1.231296	0.313888	0.634740
H153	H	0.910870	-0.006663	0.196795
H154	H	1.410870	0.493337	0.696795
C155	C	1.010211	0.683447	-0.000030
C156	C	1.510211	1.183447	0.499970
C157	C	0.953663	0.723307	-0.000046
C158	C	1.453663	1.223307	0.499954
H159	H	1.053028	0.713937	-0.000022
H160	H	1.553028	1.213937	0.499978
H161	H	1.007995	0.654680	-0.042486
H162	H	1.507995	1.154680	0.457514
H163	H	1.007966	0.654697	0.042437
H164	H	1.507966	1.154697	0.542437
H165	H	0.955905	0.752053	-0.042515
H166	H	1.455905	1.252053	0.457485
H167	H	0.955880	0.752086	0.042415
H168	H	1.455880	1.252086	0.542415
H169	H	0.711342	0.235581	-0.000019
H170	H	1.211342	0.735581	0.499981
H171	H	0.464978	-0.210765	-0.000022
H172	H	0.964978	0.289235	0.499978
C173	C	0.156937	0.099260	-0.000025
C174	C	0.656937	0.599260	0.499975
C175	C	0.196797	0.042711	-0.000021
C176	C	0.696797	0.542711	0.499979
H177	H	0.187429	0.142077	-0.000028
H178	H	0.687429	0.642077	0.499972
H179	H	0.128174	0.097040	0.042432
H180	H	0.628174	0.597040	0.542432
H181	H	0.128186	0.097021	-0.042491
H182	H	0.628186	0.597021	0.457509
H183	H	0.225545	0.044947	0.042447
H184	H	0.725545	0.544947	0.542447
H185	H	0.225573	0.044933	-0.042483
H186	H	0.725573	0.544933	0.457517
C187	C	0.692030	0.048276	0.062584
C188	C	1.192030	0.548276	0.562584
C189	C	0.695307	0.090652	-0.000012
C190	C	1.195307	0.590652	0.499988
H191	H	0.649216	0.017782	0.062581
H192	H	1.149216	0.517782	0.562581
H193	H	0.694244	0.077050	0.105034
H194	H	1.194244	0.577050	0.605034
H195	H	0.730404	0.021248	0.062581
H196	H	1.230404	0.521248	0.562581
H197	H	0.656935	0.117684	-0.000006
H198	H	1.156935	0.617684	0.499994
H199	H	0.693087	0.061874	-0.042473
H200	H	1.193087	0.561874	0.457527
C201	C	0.682736	-0.234712	0.764254
C202	C	1.182736	0.265288	1.264254
C203	C	0.724541	-0.192939	0.814075
C204	C	1.224541	0.307061	1.314075
H205	H	0.650417	-0.267008	0.790261
H206	H	1.150417	0.232992	1.290261
H207	H	0.711717	-0.259754	0.734349
H208	H	1.211717	0.240246	1.234349
H209	H	0.657713	-0.205702	0.734372
H210	H	1.157713	0.294298	1.234372
H211	H	0.749568	-0.221949	0.843954
H212	H	1.249568	0.278051	1.343954
H213	H	0.695557	-0.167895	0.843993
H214	H	1.195557	0.332105	1.343993
H215	H	0.153078	-0.206160	-0.000028
H216	H	0.653078	0.293840	0.499972
H217	H	0.944179	0.134379	0.000009
H218	H	1.444179	0.634379	0.500009
H219	H	0.738073	-0.179359	0.335849
H220	H	1.238073	0.320641	0.835849
H221	H	0.942230	0.266488	-0.000010
H222	H	1.442230	0.766488	0.499990
C223	C	0.960421	0.529061	-0.062619
C224	C	1.460421	1.029061	0.437381
C225	C	0.955915	0.570432	-0.000032
C226	C	1.455915	1.070432	0.499968
H227	H	1.003964	0.510129	-0.062615
H228	H	1.503964	1.010129	0.437385
H229	H	0.957367	0.557105	-0.105076
H230	H	1.457367	1.057105	0.394924
H231	H	0.922993	0.491885	-0.062606
H232	H	1.422993	0.991885	0.437394
H233	H	0.993341	0.607612	-0.000049
H234	H	1.493341	1.107612	0.499951
H235	H	0.958976	0.542387	0.042435
H236	H	1.458976	1.042387	0.542435
C237	C	0.761436	-0.235676	0.609101
C238	C	1.261436	0.264324	1.109101
C239	C	0.724537	-0.192938	0.653190
C240	C	1.224537	0.307062	1.153190
H241	H	0.729117	-0.267975	0.583096
H242	H	1.229117	0.232025	1.083096
H243	H	0.790417	-0.260715	0.638988
H244	H	1.290417	0.239285	1.138988
H245	H	0.789790	-0.207321	0.575310
H246	H	1.289790	0.292679	1.075310
H247	H	0.696186	-0.221293	0.686985
H248	H	1.196186	0.278707	1.186985
H249	H	0.695544	-0.167897	0.623301
H250	H	1.195544	0.332103	1.123301
H251	H	0.704794	0.679592	-0.000055
H252	H	1.204794	1.179592	0.499945
H253	H	0.628010	0.018178	-0.000015
H254	H	1.128010	0.518178	0.499985
C255	C	0.966247	0.048677	0.296945
C256	C	1.466247	0.548677	0.796945
C257	C	0.924447	0.006900	0.346764
C258	C	1.424447	0.506900	0.846764
H259	H	0.998567	0.080972	0.322953
H260	H	1.498567	0.580972	0.822953
H261	H	0.937262	0.073721	0.267067
H262	H	1.437262	0.573721	0.767067
H263	H	0.991267	0.019670	0.267036
H264	H	1.491267	0.519670	0.767036
H265	H	0.899423	0.035906	0.376670
H266	H	1.399423	0.535906	0.876670
H267	H	0.953435	-0.018146	0.376655
H268	H	1.453435	0.481854	0.876655
H269	H	0.597088	-0.212713	-0.000036
H270	H	1.097088	0.287287	0.499964
H271	H	0.020968	-0.204211	-0.000034
H272	H	0.520968	0.295789	0.499966
H273	H	0.495896	0.020129	-0.000012
H274	H	0.995896	0.520129	0.499988
C275	C	0.966275	0.048675	0.703002
C276	C	1.466275	0.548675	1.203002
C277	C	0.924476	0.006895	0.653182
C278	C	1.424476	0.506895	1.153182
H279	H	0.998586	0.080979	0.676995
H280	H	1.498586	0.580979	1.176995
H281	H	0.991301	0.019675	0.732881
H282	H	1.491301	0.519675	1.232881
H283	H	0.937284	0.073714	0.732911
H284	H	1.437284	0.573714	1.232911
H285	H	0.953466	-0.018148	0.623276
H286	H	1.453466	0.481852	1.123276
H287	H	0.899448	0.035899	0.623291
H288	H	1.399448	0.535899	1.123291
H289	H	0.706740	0.547478	-0.000041
H290	H	1.206740	1.047478	0.499959
C291	C	0.887597	0.049643	0.858156
C292	C	1.387597	0.549643	1.358156
C293	C	0.924488	0.006893	0.814071
C294	C	1.424488	0.506893	1.314071
H295	H	0.919921	0.081944	0.884153
H296	H	1.419921	0.581944	1.384153
H297	H	0.859243	0.021301	0.891947
H298	H	1.359243	0.521301	1.391947
H299	H	0.858616	0.074686	0.828261
H300	H	1.358616	0.574686	1.328261
H301	H	0.953465	-0.018154	0.843967
H302	H	1.453465	0.481846	1.343967
H303	H	0.952854	0.035239	0.780276
H304	H	1.452854	0.535239	1.280276
