data_functionalizedCrystal
_audit_creation_method	'MofGen! by Chris Wilmer'
_symmetry_space_group_name_H-M	'P1'
_symmetry_Int_Tables_number	1
_symmetry_cell_setting	triclinic
loop_
_symmetry_equiv_pos_as_xyz
  x,y,z
_cell_length_a	14.909351
_cell_length_b	17.077404
_cell_length_c	17.077395
_cell_angle_alpha	90.017597
_cell_angle_beta	93.274054
_cell_angle_gamma	93.275962
loop_
_atom_site_label
_atom_site_type_symbol
_atom_site_fract_x
_atom_site_fract_y
_atom_site_fract_z
Zn1	Zn	-0.359159	-1.218069	-0.461946
Zn2	Zn	-0.510013	-1.225564	-0.338266
Zn3	Zn	-0.359184	-1.086811	-0.330691
Zn4	Zn	-0.509960	-1.094345	-0.469483
O5	O	-0.434579	-1.156197	-0.400096
O6	O	-0.379181	-1.328910	-0.445556
O7	O	-0.490038	-1.207141	-0.227416
O8	O	-0.232948	-1.097933	-0.341777
O9	O	-0.490013	-1.334417	-0.354689
O10	O	-0.232929	-1.194367	-0.438210
O11	O	-0.379225	-1.105200	-0.221850
O12	O	-0.379173	-0.977963	-0.349085
O13	O	-0.489923	-1.110773	-0.578328
O14	O	-0.489947	-0.983498	-0.451055
O15	O	-0.379130	-1.201673	-0.572791
O16	O	-0.636239	-1.214447	-0.361997
O17	O	-0.636200	-1.118041	-0.458401
C18	C	-0.434558	-0.952248	-0.400067
C19	C	-0.434571	-0.864999	-0.400074
C20	C	-0.668950	-1.167896	-0.411856
C21	C	-0.769215	-1.172973	-0.416913
C22	C	-0.492337	-0.826916	-0.453092
C23	C	-0.492337	-0.744935	-0.453102
C24	C	-0.434575	-0.701040	-0.400089
C25	C	-0.376802	-0.739128	-0.347068
C26	C	-0.376798	-0.821107	-0.347063
C27	C	-0.376816	-0.568259	-0.347082
C28	C	-0.376821	-0.486274	-0.347086
C29	C	-0.492355	-0.492087	-0.453121
C30	C	-0.492351	-0.574066	-0.453115
C31	C	-0.434579	-0.612149	-0.400093
C32	C	-0.910452	-1.230284	-0.474279
C33	C	-0.816244	-1.225519	-0.469531
C34	C	-0.816401	-1.125189	-0.369038
C35	C	-0.910609	-1.129953	-0.373786
C36	C	-0.957631	-1.182502	-0.426408
C37	C	-1.051841	-1.187262	-0.431159
C38	C	-1.051997	-1.086936	-0.330663
C39	C	-0.957789	-1.082171	-0.325916
C40	C	-0.199292	-1.144474	-0.388308
C41	C	-0.099027	-1.139478	-0.383284
C42	C	-0.434518	-1.156228	-0.604838
C43	C	-0.434491	-1.156241	-0.692086
C44	C	-0.434595	-0.360942	-0.400118
C45	C	-0.434587	-0.448191	-0.400104
C46	C	-0.376679	-1.203653	-1.065013
C47	C	-0.376711	-1.203638	-0.983034
C48	C	-0.434406	-1.156301	-0.944931
C49	C	-0.492080	-1.108981	-0.988812
C50	C	-0.492052	-1.109000	-1.070790
C51	C	-0.492132	-1.108943	-0.817944
C52	C	-0.492159	-1.108922	-0.735961
C53	C	-0.376791	-1.203581	-0.730189
C54	C	-0.376763	-1.203600	-0.812166
C55	C	-0.434436	-1.156279	-0.856041
C56	C	-0.434575	-1.156208	-0.196148
C57	C	-0.434347	-1.156335	-0.108887
H58	H	-0.539377	-0.862650	-0.496259
C59	C	-0.555897	-0.622350	-0.511428
N60	N	-0.603760	-0.658718	-0.555351
H61	H	-0.777833	-1.264429	-0.508511
H62	H	-0.778104	-1.082411	-0.326189
C63	C	-0.906054	-1.024368	-0.268036
N64	N	-0.867088	-0.980827	-0.224443
H65	H	-0.329767	-0.703382	-0.303907
C66	C	-1.103902	-1.034350	-0.278025
N67	N	-1.142997	-0.994734	-0.238388
C68	C	-0.555489	-1.056944	-1.119052
N69	N	-0.603273	-1.017735	-1.155402
H70	H	-0.329754	-1.242172	-0.947314
H71	H	-0.329691	-1.242195	-1.096029
H72	H	-0.329779	-1.242143	-0.843187
C73	C	-0.555544	-1.056908	-0.946896
N74	N	-0.603343	-1.017682	-0.915325
H75	H	-0.539392	-0.461076	-0.496295
H76	H	-1.090125	-1.230043	-0.474014
H77	H	-0.948738	-1.273059	-0.517138
C78	C	-0.313276	-0.437990	-0.288772
N79	N	-0.265413	-0.401623	-0.244850
C80	C	-0.555640	-1.056861	-0.694050
N81	N	-0.603459	-1.017651	-0.662484
H82	H	-0.329829	-1.242110	-0.694461
H83	H	-0.539098	-1.070411	-0.853666
C84	C	-0.313266	-0.610148	-0.288753
N85	N	-0.265406	-0.641699	-0.244817
H86	H	-0.539377	-0.713932	-0.496274
C87	C	-0.313253	-0.862998	-0.288737
N88	N	-0.265387	-0.894549	-0.244805
