data_functionalizedCrystal
_audit_creation_method	'MofGen! by Chris Wilmer'
_symmetry_space_group_name_H-M	'P1'
_symmetry_Int_Tables_number	1
_symmetry_cell_setting	triclinic
loop_
_symmetry_equiv_pos_as_xyz
  x,y,z
_cell_length_a	12.645331
_cell_length_b	18.101395
_cell_length_c	12.645323
_cell_angle_alpha	89.971733
_cell_angle_beta	89.977324
_cell_angle_gamma	90.030083
loop_
_atom_site_label
_atom_site_type_symbol
_atom_site_fract_x
_atom_site_fract_y
_atom_site_fract_z
Zn1	Zn	1.620632	-0.294844	-0.599421
Zn2	Zn	1.620473	-0.418694	-0.422151
Zn3	Zn	1.443347	-0.294869	-0.422166
Zn4	Zn	1.443287	-0.418646	-0.599366
O5	O	1.531935	-0.356763	-0.510776
O6	O	1.768958	-0.311283	-0.575923
O7	O	1.596935	-0.402299	-0.273805
O8	O	1.466956	-0.191233	-0.445708
O9	O	1.768841	-0.402275	-0.445683
O10	O	1.597207	-0.191214	-0.575937
O11	O	1.466801	-0.311325	-0.273816
O12	O	1.294992	-0.311278	-0.445655
O13	O	1.466854	-0.402193	-0.747721
O14	O	1.294948	-0.402217	-0.575843
O15	O	1.597149	-0.311236	-0.747761
O16	O	1.596877	-0.522321	-0.445630
O17	O	1.466699	-0.522285	-0.575829
C18	C	1.256505	-0.356746	-0.510745
C19	C	1.138675	-0.356756	-0.510757
C20	C	0.971103	-0.299284	-0.429308
C21	C	1.093663	-0.299432	-0.428949
C22	C	1.094129	-0.434770	-0.480236
C23	C	0.971530	-0.434456	-0.479680
C24	C	0.971532	-0.336957	-0.623043
C25	C	1.094139	-0.335215	-0.622419
C26	C	1.531793	-0.549174	-0.510745
C27	C	1.531829	-0.631488	-0.510767
C28	C	1.532062	-0.930579	-0.510824
C29	C	1.450348	-0.899262	-0.592945
C30	C	1.449960	-0.813644	-0.592688
C31	C	1.531946	-0.782196	-0.510797
C32	C	1.501694	-0.813349	-0.399071
C33	C	1.501167	-0.898994	-0.399562
C34	C	1.644207	-0.898924	-0.539445
C35	C	1.643548	-0.813273	-0.541895
C36	C	1.531883	-0.698337	-0.510774
C37	C	1.532123	-1.014438	-0.510839
C38	C	1.808440	-0.356781	-0.510807
C39	C	1.926270	-0.356789	-0.510821
C40	C	1.532013	-0.356706	-0.787281
C41	C	1.532046	-0.356682	-0.905112
C42	C	1.532106	-0.163601	-0.510830
C43	C	1.532179	-0.081287	-0.510854
C44	C	1.449825	-0.413633	-1.072650
C45	C	1.450040	-0.413915	-0.950090
C46	C	1.643739	-0.377863	-0.949630
C47	C	1.643288	-0.378220	-1.072228
C48	C	1.503631	-0.278231	-1.072316
C49	C	1.501139	-0.278701	-0.949710
C50	C	1.531918	-0.356767	-0.235346
C51	C	1.532090	-0.356583	-0.117517
H52	H	0.942879	-0.451274	-0.397640
H53	H	1.706659	-0.338471	-1.101910
H54	H	1.418943	-0.262727	-0.920612
C55	C	1.728769	-0.323512	-0.910280
H56	H	1.795674	-0.337337	-0.938138
H57	H	1.731380	-0.324685	-0.835223
H58	H	1.711715	-0.274978	-0.933224
C59	C	1.576175	-0.218241	-0.908361
H60	H	1.627569	-0.239863	-0.863162
H61	H	1.536704	-0.182516	-0.870059
H62	H	1.610569	-0.195055	-0.966362
H63	H	1.123262	-0.277805	-0.645434
C64	C	1.474944	-0.491614	-1.114268
H65	H	1.424868	-0.525741	-1.086786
H66	H	1.543976	-0.505531	-1.092390
H67	H	1.471468	-0.491679	-1.189313
C68	C	1.674382	-0.785754	-0.652962
H69	H	1.619481	-0.755449	-0.680274
H70	H	1.684724	-0.826886	-0.698423
H71	H	1.737959	-0.757932	-0.648704
H72	H	1.468825	-0.472001	-0.920771
H73	H	1.423605	-0.258923	-1.103222
C74	C	1.675868	-0.455596	-1.110878
H75	H	1.689249	-0.486516	-1.051653
H76	H	1.738038	-0.451832	-1.152731
H77	H	1.620400	-0.476183	-1.152079
C78	C	1.390425	-0.926077	-0.366822
H79	H	1.389128	-0.978554	-0.366829
H80	H	1.339446	-0.907962	-0.415502
H81	H	1.374386	-0.908430	-0.297920
H82	H	1.124783	-0.374044	-0.686401
C83	C	1.579553	-0.785833	-0.314149
H84	H	1.559801	-0.805325	-0.247222
H85	H	1.577879	-0.733401	-0.311514
H86	H	1.649016	-0.801810	-0.331316
C87	C	1.676890	-0.454430	-0.908180
H88	H	1.622822	-0.473591	-0.863757
H89	H	1.740681	-0.450034	-0.869032
H90	H	1.687597	-0.486910	-0.966189
C91	C	1.584559	-0.220807	-1.111529
H92	H	1.635446	-0.244426	-1.155235
H93	H	1.619022	-0.198941	-1.052593
H94	H	1.549129	-0.183634	-1.150979
H95	H	1.123283	-0.478761	-0.537743
C96	C	0.929826	-0.261449	-0.660541
H97	H	0.884415	-0.241310	-0.608098
H98	H	0.891677	-0.267551	-0.724645
H99	H	0.987664	-0.228894	-0.671986
C100	C	1.133217	-0.317132	-0.316606
H101	H	1.074358	-0.324268	-0.271011
H102	H	1.174928	-0.277225	-0.291301
H103	H	1.174755	-0.360833	-0.318191
H104	H	0.941659	-0.241259	-0.448234
C105	C	1.134359	-0.221280	-0.454769
H106	H	1.075963	-0.189153	-0.465568
H107	H	1.176278	-0.222881	-0.517078
H108	H	1.175925	-0.203582	-0.397566
C109	C	1.726430	-0.926207	-0.458576
H110	H	1.692639	-0.956751	-0.407623
H111	H	1.757676	-0.884976	-0.424189
H112	H	1.779680	-0.953722	-0.494003
C113	C	1.135514	-0.457883	-0.370592
H114	H	1.108118	-0.505168	-0.352825
H115	H	1.113393	-0.422822	-0.319288
H116	H	1.210569	-0.459926	-0.372028
H117	H	1.469088	-0.919809	-0.676057
C118	C	0.932363	-0.393534	-0.705093
H119	H	0.888637	-0.429071	-0.671182
H120	H	0.991318	-0.417620	-0.736350
H121	H	0.892945	-0.368814	-0.758354
H122	H	1.671788	-0.920471	-0.619527
C123	C	1.338158	-0.396000	-0.909421
H124	H	1.292163	-0.388488	-0.967827
H125	H	1.340431	-0.352477	-0.867540
H126	H	1.312845	-0.435993	-0.867821
C127	C	1.337600	-0.395899	-1.112455
H128	H	1.339906	-0.353546	-1.156800
H129	H	1.292668	-0.386450	-1.053786
H130	H	1.310995	-0.436758	-1.151362
H131	H	0.940251	-0.312246	-0.346636
C132	C	1.578059	-0.926987	-0.314074
H133	H	1.609473	-0.886015	-0.279193
H134	H	1.631672	-0.956099	-0.346167
H135	H	1.540451	-0.956108	-0.264102
C136	C	1.475492	-0.785183	-0.704608
H137	H	1.486194	-0.825964	-0.750642
H138	H	1.537794	-0.755880	-0.702453
H139	H	1.418211	-0.756158	-0.729789
H140	H	1.707650	-0.791861	-0.486442
H141	H	1.367728	-0.920848	-0.574226
C142	C	0.931457	-0.494234	-0.556478
H143	H	0.990107	-0.518614	-0.587860
H144	H	0.889791	-0.471830	-0.610117
H145	H	0.889764	-0.529130	-0.518850
C146	C	1.337672	-0.786048	-0.567063
H147	H	1.292117	-0.827180	-0.556760
H148	H	1.312208	-0.756898	-0.624105
H149	H	1.339412	-0.757048	-0.504492
H150	H	1.420584	-0.791963	-0.374392
