data_functionalizedCrystal
_audit_creation_method	'MofGen! by Chris Wilmer'
_symmetry_space_group_name_H-M	'P1'
_symmetry_Int_Tables_number	1
_symmetry_cell_setting	triclinic
loop_
_symmetry_equiv_pos_as_xyz
  x,y,z
_cell_length_a	19.288864
_cell_length_b	19.188930
_cell_length_c	18.366186
_cell_angle_alpha	89.988632
_cell_angle_beta	89.977106
_cell_angle_gamma	83.140512
loop_
_atom_site_label
_atom_site_type_symbol
_atom_site_fract_x
_atom_site_fract_y
_atom_site_fract_z
O1	O	0.921359	0.087099	-0.060791
O2	O	1.254693	0.420432	0.272542
O3	O	1.588026	0.753766	0.605875
O4	O	0.719099	0.098849	-0.060743
O5	O	1.052433	0.432182	0.272591
O6	O	1.385766	0.765515	0.605924
O7	O	0.826066	-0.008682	-0.060754
O8	O	1.159400	0.324651	0.272579
O9	O	1.492733	0.657984	0.605913
O10	O	0.814393	0.194630	-0.060780
O11	O	1.147726	0.527963	0.272554
O12	O	1.481059	0.861297	0.605887
O13	O	0.826048	-0.008687	0.060345
O14	O	1.159381	0.324646	0.393679
O15	O	1.492715	0.657979	0.727012
O16	O	0.719081	0.098843	0.060357
O17	O	1.052415	0.432177	0.393690
O18	O	1.385748	0.765510	0.727023
O19	O	0.921341	0.087094	0.060308
O20	O	1.254674	0.420427	0.393641
O21	O	1.588008	0.753761	0.726975
Zn22	Zn	0.820208	0.092968	0.079560
Zn23	Zn	1.153542	0.426301	0.412893
Zn24	Zn	1.486875	0.759634	0.746226
Zn25	Zn	0.820232	0.092975	-0.079994
Zn26	Zn	1.153566	0.426308	0.253339
Zn27	Zn	1.486899	0.759641	0.586673
O28	O	0.814374	0.194625	0.060320
O29	O	1.147708	0.527958	0.393653
O30	O	1.481041	0.861291	0.726986
C31	C	0.693214	0.098468	-0.000186
C32	C	1.026547	0.431801	0.333147
C33	C	1.359881	0.765135	0.666480
C34	C	0.616110	0.097333	-0.000167
C35	C	0.949444	0.430666	0.333166
C36	C	1.282777	0.764000	0.666499
C37	C	0.571419	0.160427	-0.000187
C38	C	0.904752	0.493761	0.333147
C39	C	1.238085	0.827094	0.666480
C40	C	0.498972	0.159361	-0.000195
C41	C	0.832305	0.492694	0.333139
C42	C	1.165638	0.826028	0.666472
C43	C	0.471219	0.095197	-0.000198
C44	C	0.804553	0.428530	0.333136
C45	C	1.137886	0.761864	0.666469
C46	C	0.515921	0.032095	-0.000174
C47	C	0.849254	0.365428	0.333159
C48	C	1.182587	0.698761	0.666493
C49	C	0.588366	0.033163	-0.000159
C50	C	0.921700	0.366496	0.333174
C51	C	1.255033	0.699829	0.666508
C52	C	0.362960	0.044759	-0.042642
C53	C	0.696293	0.378092	0.290691
C54	C	1.029626	0.711426	0.624024
C55	C	0.290515	0.043694	-0.042662
C56	C	0.623849	0.377027	0.290671
C57	C	0.957182	0.710360	0.624005
C58	C	0.247773	0.091900	-0.000241
C59	C	0.581107	0.425234	0.333092
C60	C	0.914440	0.758567	0.666425
C61	C	0.277483	0.141184	0.042190
C62	C	0.610817	0.474518	0.375523
C63	C	0.944150	0.807851	0.708856
C64	C	0.349929	0.142253	0.042205
C65	C	0.683262	0.475586	0.375538
C66	C	1.016596	0.808919	0.708872
C67	C	0.392665	0.094032	-0.000214
C68	C	0.725998	0.427365	0.333120
C69	C	1.059332	0.760699	0.666453
C70	C	0.124526	0.153843	-0.000268
C71	C	0.457859	0.487176	0.333065
C72	C	0.791192	0.820510	0.666398
C73	C	0.052078	0.152774	-0.000272
C74	C	0.385411	0.486107	0.333062
C75	C	0.718744	0.819441	0.666395
C76	C	0.069028	0.025506	-0.000259
C77	C	0.402362	0.358839	0.333075
C78	C	0.735695	0.692172	0.666408
C79	C	0.141475	0.026576	-0.000248
C80	C	0.474808	0.359910	0.333085
C81	C	0.808142	0.693243	0.666419
C82	C	0.169219	0.090747	-0.000256
C83	C	0.502552	0.424080	0.333077
C84	C	0.835886	0.757414	0.666410
C85	C	0.825679	-0.034696	-0.000202
C86	C	1.159012	0.298638	0.333131
C87	C	1.492346	0.631971	0.666464
C88	C	0.824544	-0.112200	-0.000196
C89	C	1.157878	0.221133	0.333138
C90	C	1.491211	0.554466	0.666471
C91	C	0.887309	-0.157129	-0.000207
C92	C	1.220642	0.176204	0.333126
C93	C	1.553975	0.509538	0.666459
C94	C	0.886243	-0.229953	-0.000219
C95	C	1.219576	0.103381	0.333115
C96	C	1.552909	0.436714	0.666448
C97	C	0.822408	-0.257844	-0.000204
C98	C	1.155742	0.075489	0.333129
C99	C	1.489075	0.408822	0.666463
C100	C	0.759636	-0.212906	-0.000196
C101	C	1.092969	0.120427	0.333137
C102	C	1.426302	0.453761	0.666470
C103	C	0.760704	-0.140084	-0.000192
C104	C	1.094037	0.193250	0.333141
C105	C	1.427370	0.526583	0.666474
N106	N	0.773609	-0.365847	0.041020
N107	N	1.106942	-0.032514	0.374354
N108	N	1.440275	0.300819	0.707687
N109	N	0.772598	-0.435026	0.041018
N110	N	1.105932	-0.101693	0.374351
N111	N	1.439265	0.231641	0.707685
C112	C	0.819187	-0.477253	-0.000218
C113	C	1.152520	-0.143919	0.333116
C114	C	1.485854	0.189414	0.666449
N115	N	0.866835	-0.447689	-0.041442
N116	N	1.200168	-0.114356	0.291891
N117	N	1.533501	0.218978	0.625225
N118	N	0.867847	-0.378504	-0.041436
N119	N	1.201180	-0.045171	0.291897
N120	N	1.534514	0.288162	0.625230
C121	C	0.821243	-0.336807	-0.000209
C122	C	1.154577	-0.003473	0.333125
C123	C	1.487910	0.329860	0.666458
C124	C	0.880800	-0.601146	-0.000243
C125	C	1.214133	-0.267813	0.333090
C126	C	1.547467	0.065521	0.666424
C127	C	0.879731	-0.673971	-0.000259
C128	C	1.213065	-0.340637	0.333075
C129	C	1.546398	-0.007304	0.666408
C130	C	0.753122	-0.656922	-0.000229
C131	C	1.086456	-0.323589	0.333104
C132	C	1.419789	0.009745	0.666438
C133	C	0.754193	-0.584099	-0.000220
C134	C	1.087526	-0.250766	0.333113
C135	C	1.420860	0.082568	0.666446
C136	C	0.818034	-0.556216	-0.000224
C137	C	1.151367	-0.222882	0.333109
C138	C	1.484700	0.110451	0.666443
C139	C	0.947227	0.087475	-0.000250
C140	C	1.280560	0.420808	0.333084
C141	C	1.613893	0.754141	0.666417
C142	C	1.024330	0.088609	-0.000274
C143	C	1.357664	0.421943	0.333060
C144	C	1.690997	0.755276	0.666393
C145	C	0.814762	0.220638	-0.000234
C146	C	1.148095	0.553972	0.333100
C147	C	1.481428	0.887305	0.666433
C148	C	0.815896	0.298143	-0.000245
C149	C	1.149230	0.631476	0.333088
C150	C	1.482563	0.964809	0.666422
N151	N	0.820197	0.092963	0.188451
N152	N	1.153530	0.426296	0.521784
N153	N	1.486864	0.759629	0.855117
N154	N	0.820249	0.092974	-0.188885
N155	N	1.153582	0.426308	0.144448
N156	N	1.486916	0.759641	0.477781
C157	C	0.867577	0.045371	0.226546
C158	C	1.200911	0.378705	0.559879
C159	C	1.534244	0.712038	0.893213
C160	C	0.867582	0.045368	0.302774
C161	C	1.200915	0.378701	0.636107
C162	C	1.534249	0.712035	0.969441
C163	C	0.820213	0.092968	0.340903
C164	C	1.153546	0.426302	0.674237
C165	C	1.486879	0.759635	1.007570
C166	C	0.772823	0.140563	0.302799
C167	C	1.106157	0.473897	0.636132
C168	C	1.439490	0.807230	0.969466
C169	C	0.772816	0.140560	0.226573
C170	C	1.106149	0.473894	0.559906
C171	C	1.439482	0.807227	0.893239
C172	C	0.810919	0.156585	0.461657
C173	C	1.144252	0.489919	0.794990
C174	C	1.477586	0.823252	1.128324
C175	C	0.810932	0.156589	0.537882
C176	C	1.144265	0.489922	0.871215
C177	C	1.477598	0.823256	1.204549
C178	C	0.820232	0.092977	0.576011
C179	C	1.153566	0.426310	0.909344
C180	C	1.486899	0.759644	1.242678
C181	C	0.829535	0.029359	0.537906
C182	C	1.162868	0.362692	0.871239
C183	C	1.496202	0.696025	1.204572
C184	C	0.829527	0.029356	0.461679
C185	C	1.162861	0.362689	0.795013
C186	C	1.496194	0.696022	1.128346
C187	C	0.820215	0.092977	0.423558
C188	C	1.153549	0.426310	0.756892
C189	C	1.486882	0.759643	1.090225
C190	C	0.867620	0.045378	0.696761
C191	C	1.200953	0.378712	1.030095
C192	C	1.534287	0.712045	1.363428
C193	C	0.867620	0.045374	0.772990
C194	C	1.200953	0.378708	1.106324
C195	C	1.534286	0.712041	1.439657
C196	C	0.772864	0.140576	0.773014
C197	C	1.106198	0.473909	1.106347
C198	C	1.439531	0.807242	1.439681
C199	C	0.772862	0.140574	0.696786
C200	C	1.106195	0.473907	1.030120
C201	C	1.439528	0.807240	1.363453
C202	C	0.820243	0.092976	0.658664
C203	C	1.153576	0.426309	0.991998
C204	C	1.486910	0.759642	1.325331
H205	H	0.046433	-0.026738	-0.000306
H206	H	0.379767	0.306595	0.333027
H207	H	0.713100	0.639929	0.666360
O208	O	0.686493	-0.535638	-0.000200
O209	O	1.019827	-0.202305	0.333133
O210	O	1.353160	0.131029	0.666467
H211	H	0.697960	-0.480315	-0.000205
H212	H	1.031293	-0.146982	0.333128
H213	H	1.364626	0.186352	0.666462
O214	O	0.918696	-0.005957	0.343873
O215	O	1.252029	0.327376	0.677207
O216	O	1.585363	0.660709	1.010540
H217	H	0.910028	-0.060370	0.329263
H218	H	1.243361	0.272964	0.662596
H219	H	1.576695	0.606297	0.995929
O220	O	0.800878	0.225206	0.420547
O221	O	1.134211	0.558540	0.753880
O222	O	1.467544	0.891873	1.087213
H223	H	0.753600	0.226931	0.385853
H224	H	1.086933	0.560265	0.719187
H225	H	1.420266	0.893598	1.052520
H226	H	0.837100	-0.022445	0.430657
H227	H	1.170434	0.310889	0.763990
H228	H	1.503767	0.644222	1.097323
O229	O	0.953943	-0.278421	-0.000224
O230	O	1.287276	0.054912	0.333109
O231	O	1.620610	0.388245	0.666443
H232	H	0.956463	-0.312016	0.049132
H233	H	1.289797	0.021317	0.382466
H234	H	1.623130	0.354650	0.715799
O235	O	0.231394	0.193179	0.087954
O236	O	0.564727	0.526513	0.421287
O237	O	0.898060	0.859846	0.754621
H238	H	0.194016	0.225604	0.052167
H239	H	0.527350	0.558937	0.385501
H240	H	0.860683	0.892271	0.718834
O241	O	0.721737	0.191914	0.343915
O242	O	1.055070	0.525248	0.677248
O243	O	1.388403	0.858581	1.010581
H244	H	0.688075	0.162619	0.378679
H245	H	1.021408	0.495952	0.712012
H246	H	1.354741	0.829286	1.045345
H247	H	0.493320	-0.020148	-0.000187
H248	H	0.826653	0.313185	0.333147
H249	H	1.159987	0.646518	0.666480
H250	H	0.147116	0.206094	-0.000264
H251	H	0.480449	0.539428	0.333069
H252	H	0.813783	0.872761	0.666402
H253	H	0.374116	0.182379	0.076756
H254	H	0.707449	0.515712	0.410089
H255	H	1.040783	0.849046	0.743423
O256	O	0.839562	-0.039260	0.579016
O257	O	1.172895	0.294073	0.912350
O258	O	1.506228	0.627407	1.245683
H259	H	0.837994	-0.028574	0.638423
H260	H	1.171328	0.304760	0.971756
H261	H	1.504661	0.638093	1.305089
H262	H	0.734232	0.179316	0.195555
H263	H	1.067565	0.512649	0.528888
H264	H	1.400899	0.845982	0.862221
H265	H	0.906157	0.006613	0.195509
H266	H	1.239490	0.339946	0.528843
H267	H	1.572823	0.673279	0.862176
O268	O	0.918712	-0.005964	0.655635
O269	O	1.252045	0.327369	0.988968
O270	O	1.585378	0.660703	1.322302
H271	H	0.951652	-0.039068	0.694935
H272	H	1.284985	0.294265	1.028269
H273	H	1.618318	0.627599	1.361602
H274	H	0.803361	0.208391	0.568902
H275	H	1.136695	0.541724	0.902235
H276	H	1.470028	0.875058	1.235568
H277	H	0.939293	-0.134431	-0.000213
H278	H	1.272626	0.198902	0.333121
H279	H	1.605960	0.532235	0.666454
O280	O	0.636574	-0.034893	-0.000136
O281	O	0.969907	0.298440	0.333197
O282	O	1.303240	0.631774	0.666531
H283	H	0.670017	-0.037448	-0.049485
H284	H	1.003350	0.295885	0.283849
H285	H	1.336683	0.629218	0.617182
O286	O	0.450760	0.227418	-0.000213
O287	O	0.784093	0.560751	0.333121
O288	O	1.117426	0.894085	0.666454
H289	H	0.395723	0.215893	-0.000216
H290	H	0.729056	0.549226	0.333118
H291	H	1.062390	0.882559	0.666451
H292	H	0.906200	0.006616	0.804008
H293	H	1.239534	0.339949	1.137342
H294	H	1.572867	0.673283	1.470675
H295	H	0.594003	0.212680	-0.000195
H296	H	0.927336	0.546013	0.333139
H297	H	1.260670	0.879347	0.666472
O298	O	0.721772	0.191920	0.814127
O299	O	1.055105	0.525253	1.147460
O300	O	1.388439	0.858587	1.480794
H301	H	0.729739	0.183931	0.873533
H302	H	1.063073	0.517264	1.206866
H303	H	1.396406	0.850597	1.540200
O304	O	0.690783	-0.242982	-0.000172
O305	O	1.024117	0.090351	0.333161
O306	O	1.357450	0.423684	0.666495
H307	H	0.700585	-0.301169	-0.000167
H308	H	1.033918	0.032164	0.333167
H309	H	1.367251	0.365498	0.666500
H310	H	0.734283	0.179330	0.665767
H311	H	1.067616	0.512663	0.999100
H312	H	1.400949	0.845996	1.332434
H313	H	0.015690	0.204155	-0.000283
H314	H	0.349023	0.537488	0.333050
H315	H	0.682356	0.870822	0.666383
H316	H	0.709591	-0.103502	-0.000183
H317	H	1.042925	0.229831	0.333151
H318	H	1.376258	0.563165	0.666484
H319	H	0.177864	-0.024802	-0.000236
H320	H	0.511197	0.308531	0.333097
H321	H	0.844531	0.641865	0.666431
O322	O	0.949655	-0.571069	-0.000261
O323	O	1.282988	-0.237735	0.333072
O324	O	1.616322	0.095598	0.666405
H325	H	0.953170	-0.538317	0.049102
H326	H	1.286503	-0.204983	0.382435
H327	H	1.619837	0.128350	0.715769
O328	O	0.947430	-0.722436	-0.000265
O329	O	1.280763	-0.389102	0.333068
O330	O	1.614097	-0.055769	0.666401
H331	H	0.991998	-0.690808	-0.000258
H332	H	1.325332	-0.357475	0.333076
H333	H	1.658665	-0.024142	0.666409
H334	H	0.266331	0.003566	-0.077215
H335	H	0.599664	0.336900	0.256119
H336	H	0.932998	0.670233	0.589452
H337	H	0.397755	0.005502	-0.077191
H338	H	0.731089	0.338835	0.256143
H339	H	1.064422	0.672168	0.589476
H340	H	0.701147	-0.679631	-0.000221
H341	H	1.034481	-0.346297	0.333113
H342	H	1.367814	-0.012964	0.666446
