data_functionalizedCrystal
_audit_creation_method	'MofGen! by Chris Wilmer'
_symmetry_space_group_name_H-M	'P1'
_symmetry_Int_Tables_number	1
_symmetry_cell_setting	triclinic
loop_
_symmetry_equiv_pos_as_xyz
  x,y,z
_cell_length_a	19.288864
_cell_length_b	13.330367
_cell_length_c	19.288865
_cell_angle_alpha	90.009880
_cell_angle_beta	83.136245
_cell_angle_gamma	90.021397
loop_
_atom_site_label
_atom_site_type_symbol
_atom_site_fract_x
_atom_site_fract_y
_atom_site_fract_z
O1	O	0.921351	0.083757	0.086647
O2	O	1.254685	0.417090	0.419981
O3	O	1.588018	0.750423	0.753314
O4	O	0.719091	0.083690	0.098336
O5	O	1.052424	0.417023	0.431669
O6	O	1.385757	0.750356	0.765003
O7	O	0.826065	0.083705	-0.008639
O8	O	1.159399	0.417038	0.324695
O9	O	1.492732	0.750372	0.658028
O10	O	0.814377	0.083741	0.193622
O11	O	1.147710	0.417074	0.526955
O12	O	1.481043	0.750408	0.860289
O13	O	0.826050	-0.083142	-0.008641
O14	O	1.159383	0.250191	0.324692
O15	O	1.492717	0.583525	0.658026
O16	O	0.719075	-0.083158	0.098334
O17	O	1.052409	0.250176	0.431667
O18	O	1.385742	0.583509	0.765000
O19	O	0.921336	-0.083091	0.086645
O20	O	1.254669	0.250243	0.419978
O21	O	1.588003	0.583576	0.753312
Cu22	Cu	0.820204	-0.098359	0.092489
Cu23	Cu	1.153538	0.234975	0.425822
Cu24	Cu	1.486871	0.568308	0.759156
Cu25	Cu	0.820223	0.098958	0.092492
Cu26	Cu	1.153556	0.432291	0.425825
Cu27	Cu	1.486889	0.765624	0.759158
O28	O	0.814361	-0.083106	0.193620
O29	O	1.147695	0.250227	0.526953
O30	O	1.481028	0.583561	0.860286
C31	C	0.693207	0.000257	0.097959
C32	C	1.026540	0.333590	0.431292
C33	C	1.359873	0.666924	0.764625
C34	C	0.616103	0.000231	0.096830
C35	C	0.949436	0.333564	0.430163
C36	C	1.282770	0.666897	0.763496
N37	N	0.820196	-0.237140	0.092487
N38	N	1.153530	0.096193	0.425820
N39	N	1.486863	0.429527	0.759153
C40	C	0.571407	0.000258	0.159598
C41	C	0.904740	0.333591	0.492931
C42	C	1.238073	0.666924	0.826264
C43	C	0.498960	0.000268	0.158537
C44	C	0.832293	0.333602	0.491870
C45	C	1.165626	0.666935	0.825204
C46	C	0.471212	0.000273	0.094705
C47	C	0.804545	0.333606	0.428038
C48	C	1.137879	0.666939	0.761371
C49	C	0.515918	0.000240	0.031929
C50	C	0.849252	0.333573	0.365262
C51	C	1.182585	0.666907	0.698595
C52	C	0.588364	0.000219	0.032991
C53	C	0.921697	0.333552	0.366324
C54	C	1.255030	0.666886	0.699658
C55	C	0.362956	0.058751	0.044526
C56	C	0.696289	0.392085	0.377860
C57	C	1.029622	0.725418	0.711193
C58	C	0.290511	0.058779	0.043467
C59	C	0.623844	0.392112	0.376800
C60	C	0.957178	0.725445	0.710133
C61	C	0.247767	0.000333	0.091425
C62	C	0.581100	0.333666	0.424758
C63	C	0.914433	0.666999	0.758092
C64	C	0.277474	-0.058127	0.140455
C65	C	0.610807	0.275206	0.473789
C66	C	0.944141	0.608539	0.807122
C67	C	0.349919	-0.058148	0.141518
C68	C	0.683253	0.275185	0.474851
C69	C	1.016586	0.608518	0.808184
C70	C	0.392658	0.000295	0.093546
C71	C	0.725991	0.333628	0.426879
C72	C	1.059325	0.666961	0.760212
C73	C	0.124514	0.000370	0.153047
C74	C	0.457848	0.333703	0.486381
C75	C	0.791181	0.667037	0.819714
C76	C	0.052066	0.000375	0.151984
C77	C	0.385400	0.333708	0.485317
C78	C	0.718733	0.667041	0.818651
C79	C	0.069026	0.000356	0.025374
C80	C	0.402360	0.333690	0.358707
C81	C	0.735693	0.667023	0.692040
C82	C	0.141473	0.000342	0.026439
C83	C	0.474806	0.333675	0.359772
C84	C	0.808140	0.667008	0.693106
C85	C	0.169212	0.000353	0.090278
C86	C	0.502546	0.333687	0.423611
C87	C	0.835879	0.667020	0.756944
C88	C	0.772852	-0.709770	0.139842
C89	C	1.106185	-0.376436	0.473175
C90	C	1.439519	-0.043103	0.806508
C91	C	0.867612	-0.709724	0.045136
C92	C	1.200945	-0.376391	0.378470
C93	C	1.534278	-0.043057	0.711803
C94	C	0.867604	-0.604706	0.045134
C95	C	1.200937	-0.271372	0.378468
C96	C	1.534270	0.061961	0.711801
C97	C	0.820220	-0.552215	0.092487
C98	C	1.153553	-0.218881	0.425821
C99	C	1.486887	0.114452	0.759154
C100	C	0.772844	-0.604742	0.139842
C101	C	1.106178	-0.271408	0.473176
C102	C	1.439511	0.061925	0.806509
C103	C	0.914983	-0.552171	-0.002215
C104	C	1.248317	-0.218837	0.331118
C105	C	1.581650	0.114496	0.664451
C106	C	0.914978	-0.447146	-0.002219
C107	C	1.248311	-0.113812	0.331115
C108	C	1.581645	0.219521	0.664448
C109	C	0.867590	-0.394653	0.045132
C110	C	1.200924	-0.061319	0.378465
C111	C	1.534257	0.272014	0.711798
C112	C	0.820212	-0.447186	0.092488
C113	C	1.153546	-0.113853	0.425821
C114	C	1.486879	0.219480	0.759155
C115	C	0.772829	-0.394695	0.139841
C116	C	1.106162	-0.061362	0.473174
C117	C	1.439495	0.271971	0.806508
C118	C	0.725446	-0.447227	0.187195
C119	C	1.058780	-0.113894	0.520528
C120	C	1.392113	0.219440	0.853861
C121	C	0.725457	-0.552249	0.187193
C122	C	1.058790	-0.218915	0.520526
C123	C	1.392123	0.114418	0.853859
C124	C	0.867580	-0.289631	0.045134
C125	C	1.200913	0.043702	0.378467
C126	C	1.534247	0.377036	0.711800
C127	C	0.772821	-0.289667	0.139842
C128	C	1.106154	0.043666	0.473175
C129	C	1.439487	0.376999	0.806508
C130	C	0.947220	0.000344	0.087022
C131	C	1.280553	0.333677	0.420355
C132	C	1.613887	0.667011	0.753689
C133	C	1.024324	0.000377	0.088151
C134	C	1.357657	0.333711	0.421484
C135	C	1.690990	0.667044	0.754818
C136	C	0.825682	0.000278	-0.034516
C137	C	1.159015	0.333612	0.298817
C138	C	1.492348	0.666945	0.632150
C139	C	0.824553	0.000269	-0.111620
C140	C	1.157886	0.333603	0.221713
C141	C	1.491219	0.666936	0.555047
N142	N	0.820236	0.237739	0.092489
N143	N	1.153569	0.571072	0.425822
N144	N	1.486902	0.904406	0.759155
C145	C	0.887321	0.000285	-0.156316
C146	C	1.220654	0.333619	0.177017
C147	C	1.553987	0.666952	0.510350
C148	C	0.886260	0.000301	-0.228763
C149	C	1.219593	0.333634	0.104570
C150	C	1.552927	0.666967	0.437903
C151	C	0.822428	0.000280	-0.256511
C152	C	1.155761	0.333614	0.076822
C153	C	1.489094	0.666947	0.410156
C154	C	0.759652	0.000270	-0.211805
C155	C	1.092985	0.333603	0.121529
C156	C	1.426318	0.666937	0.454862
C157	C	0.760714	0.000264	-0.139359
C158	C	1.094047	0.333598	0.193974
C159	C	1.427381	0.666931	0.527307
C160	C	0.772243	-0.058179	-0.364799
C161	C	1.105576	0.275154	-0.031466
C162	C	1.438909	0.608487	0.301868
C163	C	0.771183	-0.058180	-0.437244
C164	C	1.104516	0.275153	-0.103910
C165	C	1.437850	0.608487	0.229423
C166	C	0.819148	0.000302	-0.479956
C167	C	1.152481	0.333635	-0.146623
C168	C	1.485815	0.666968	0.186710
C169	C	0.868185	0.058771	-0.450218
C170	C	1.201518	0.392104	-0.116884
C171	C	1.534852	0.725438	0.216449
C172	C	0.869247	0.058766	-0.377772
C173	C	1.202581	0.392099	-0.044439
C174	C	1.535914	0.725432	0.288895
C175	C	0.821269	0.000287	-0.335065
C176	C	1.154602	0.333620	-0.001732
C177	C	1.487935	0.666953	0.331602
C178	C	0.880770	0.000336	-0.603209
C179	C	1.214104	0.333669	-0.269875
C180	C	1.547437	0.667002	0.063458
C181	C	0.879707	0.000357	-0.675657
C182	C	1.213040	0.333691	-0.342323
C183	C	1.546374	0.667024	-0.008990
C184	C	0.753097	0.000317	-0.658697
C185	C	1.086430	0.333650	-0.325363
C186	C	1.419763	0.666983	0.007970
C187	C	0.754162	0.000305	-0.586250
C188	C	1.087495	0.333638	-0.252917
C189	C	1.420829	0.666972	0.080417
C190	C	0.818001	0.000310	-0.558511
C191	C	1.151334	0.333643	-0.225177
C192	C	1.484667	0.666976	0.108156
C193	C	0.814745	0.000323	0.219497
C194	C	1.148078	0.333656	0.552831
C195	C	1.481412	0.666989	0.886164
C196	C	0.815874	0.000339	0.296601
C197	C	1.149207	0.333672	0.629934
C198	C	1.482541	0.667005	0.963267
H199	H	0.593987	0.000269	0.211580
H200	H	0.927320	0.333602	0.544913
H201	H	1.260654	0.666936	0.878247
Cl202	Cl	0.675249	0.000280	-0.530057
Cl203	Cl	1.008582	0.333614	-0.196724
Cl204	Cl	1.341916	0.666947	0.136609
Cl205	Cl	0.713245	-0.223687	0.199371
Cl206	Cl	1.046579	0.109647	0.532705
Cl207	Cl	1.379912	0.442980	0.866038
Cl208	Cl	0.961023	0.000336	-0.568333
Cl209	Cl	1.294356	0.333669	-0.235000
Cl210	Cl	1.627689	0.667003	0.098334
H211	H	0.930822	0.000376	-0.712049
H212	H	1.264156	0.333709	-0.378715
H213	H	1.597489	0.667043	-0.045382
H214	H	0.701123	0.000305	-0.681288
H215	H	1.034457	0.333638	-0.347954
H216	H	1.367790	0.666971	-0.014621
H217	H	0.686869	-0.404477	0.225753
H218	H	1.020202	-0.071143	0.559086
H219	H	1.353536	0.262190	0.892420
H220	H	0.686880	-0.595027	0.225747
H221	H	1.020214	-0.261693	0.559080
H222	H	1.353547	0.071640	0.892414
Cl223	Cl	0.711939	-0.131710	-0.311110
Cl224	Cl	1.045272	0.201624	0.022223
Cl225	Cl	1.378606	0.534957	0.355557
H226	H	0.734272	-0.752544	0.178395
H227	H	1.067606	-0.419210	0.511728
H228	H	1.400939	-0.085877	0.845061
Cl229	Cl	0.927182	-0.775710	-0.014386
Cl230	Cl	1.260515	-0.442377	0.318947
Cl231	Cl	1.593848	-0.109043	0.652280
Cl232	Cl	0.974554	-0.618157	-0.061738
Cl233	Cl	1.307887	-0.284823	0.271595
Cl234	Cl	1.641220	0.048510	0.604929
Cl235	Cl	0.974540	-0.381113	-0.061749
Cl236	Cl	1.307873	-0.047779	0.271584
Cl237	Cl	1.641206	0.285554	0.604917
H238	H	0.177866	0.000325	-0.024674
H239	H	0.511199	0.333659	0.308660
H240	H	0.844533	0.666992	0.641993
H241	H	0.906161	-0.246865	0.006582
H242	H	1.239494	0.086469	0.339915
H243	H	1.572828	0.419802	0.673249
Cl244	Cl	0.967575	0.000320	-0.121448
Cl245	Cl	1.300908	0.333653	0.211886
Cl246	Cl	1.634241	0.666986	0.545219
H247	H	0.937375	0.000318	-0.265162
H248	H	1.270708	0.333651	0.068171
H249	H	1.604041	0.666984	0.401505
Cl250	Cl	0.930886	0.132273	-0.340387
Cl251	Cl	1.264219	0.465606	-0.007054
Cl252	Cl	1.597553	0.798940	0.326279
Cl253	Cl	0.928488	0.132298	-0.503906
Cl254	Cl	1.261821	0.465631	-0.170572
Cl255	Cl	1.595154	0.798965	0.162761
Cl256	Cl	0.416685	0.132233	-0.015771
Cl257	Cl	0.750018	0.465567	0.317563
Cl258	Cl	1.083351	0.798900	0.650896
Cl259	Cl	0.679405	0.000252	-0.246686
Cl260	Cl	1.012739	0.333586	0.086647
Cl261	Cl	1.346072	0.666919	0.419980
Cl262	Cl	0.034151	0.000350	-0.054873
Cl263	Cl	0.367484	0.333683	0.278460
Cl264	Cl	0.700817	0.667016	0.611793
Cl265	Cl	0.159390	0.000375	0.233300
Cl266	Cl	0.492723	0.333708	0.566633
Cl267	Cl	0.826057	0.667041	0.899966
Cl268	Cl	0.681799	0.000244	-0.083166
Cl269	Cl	1.015132	0.333577	0.250167
Cl270	Cl	1.348466	0.666911	0.583500
Cl271	Cl	0.709540	-0.131687	-0.474623
Cl272	Cl	1.042873	0.201646	-0.141289
Cl273	Cl	1.376207	0.534979	0.192044
H274	H	0.374104	-0.105752	0.181438
H275	H	0.707437	0.227582	0.514771
H276	H	1.040771	0.560915	0.848104
Cl277	Cl	0.442760	0.000300	0.237451
Cl278	Cl	0.776093	0.333633	0.570784
Cl279	Cl	1.109426	0.666967	0.904118
Cl280	Cl	0.481037	0.000239	-0.048318
Cl281	Cl	0.814370	0.333573	0.285016
Cl282	Cl	1.147703	0.666906	0.618349
Cl283	Cl	0.223746	-0.131607	0.200751
Cl284	Cl	0.557079	0.201726	0.534084
Cl285	Cl	0.890412	0.535060	0.867418
H286	H	0.266329	0.106384	0.003546
H287	H	0.599662	0.439717	0.336879
H288	H	0.932996	0.773051	0.670213
Cl289	Cl	-0.004125	0.000403	0.230900
Cl290	Cl	0.329208	0.333737	0.564233
Cl291	Cl	0.662541	0.667070	0.897566
H292	H	0.624756	0.000198	-0.018124
H293	H	0.958090	0.333531	0.315210
H294	H	1.291423	0.666864	0.648543
