data_functionalizedCrystal
_audit_creation_method	'MofGen! by Chris Wilmer'
_symmetry_space_group_name_H-M	'P1'
_symmetry_Int_Tables_number	1
_symmetry_cell_setting	triclinic
loop_
_symmetry_equiv_pos_as_xyz
  x,y,z
_cell_length_a	12.837943
_cell_length_b	12.784902
_cell_length_c	11.892113
_cell_angle_alpha	85.297765
_cell_angle_beta	93.959850
_cell_angle_gamma	96.031718
loop_
_atom_site_label
_atom_site_type_symbol
_atom_site_fract_x
_atom_site_fract_y
_atom_site_fract_z
O1	O	1.356090	-0.280414	0.093980
O2	O	1.856090	0.219586	0.593980
O3	O	1.055504	-0.266889	0.093986
O4	O	1.555504	0.233111	0.593986
O5	O	1.227792	-0.121151	0.093978
O6	O	1.727792	0.378849	0.593978
O7	O	1.183801	-0.426151	0.093988
O8	O	1.683801	0.073849	0.593988
O9	O	1.217144	-0.107944	-0.094030
O10	O	1.717144	0.392056	0.405970
O11	O	1.044855	-0.253681	-0.094021
O12	O	1.544855	0.246319	0.405979
O13	O	1.345441	-0.267207	-0.094028
O14	O	1.845441	0.232793	0.405972
Zn15	Zn	1.193457	-0.258347	-0.123875
Zn16	Zn	1.693457	0.241653	0.376125
Zn17	Zn	1.207487	-0.275748	0.123833
Zn18	Zn	1.707487	0.224252	0.623833
O19	O	1.173153	-0.412944	-0.094019
O20	O	1.673153	0.087056	0.405981
C21	C	1.011971	-0.255716	-0.000016
C22	C	1.511971	0.244284	0.499984
C23	C	0.898122	-0.242088	-0.000014
C24	C	1.398122	0.257912	0.499986
C25	C	1.225329	-0.075238	-0.000025
C26	C	1.725329	0.424762	0.499975
C27	C	1.233842	0.041893	-0.000021
C28	C	1.733842	0.541893	0.499979
C29	C	0.642396	-0.405919	-0.000024
C30	C	1.142396	0.094081	0.499976
C31	C	0.535424	-0.393119	-0.000023
C32	C	1.035424	0.106881	0.499977
C33	C	0.577203	-0.203690	-0.000017
C34	C	1.077203	0.296310	0.499983
C35	C	0.684175	-0.216489	-0.000019
C36	C	1.184175	0.283511	0.499981
C37	C	0.716767	-0.317607	-0.000021
C38	C	1.216767	0.182393	0.499979
C39	C	0.823742	-0.330406	-0.000014
C40	C	1.323742	0.169594	0.499986
C41	C	0.865519	-0.140977	-0.000017
C42	C	1.365519	0.359023	0.499983
C43	C	0.758547	-0.128178	-0.000015
C44	C	1.258547	0.371822	0.499985
C45	C	1.388974	-0.278380	-0.000023
C46	C	1.888974	0.221620	0.499977
C47	C	1.502823	-0.292008	-0.000018
C48	C	2.002823	0.207992	0.499982
N49	N	1.183890	-0.246471	-0.292929
N50	N	1.683890	0.253529	0.207071
C51	C	1.060398	0.255845	-0.000031
C52	C	1.560398	0.755845	0.499969
C53	C	1.068392	0.365900	-0.000027
C54	C	1.568392	0.865900	0.499973
C55	C	1.257822	0.372061	-0.000020
C56	C	1.757822	0.872061	0.499980
C57	C	1.249828	0.262006	-0.000023
C58	C	1.749828	0.762006	0.499977
C59	C	1.151113	0.203901	-0.000027
C60	C	1.651113	0.703901	0.499973
C61	C	1.143120	0.093844	-0.000022
C62	C	1.643120	0.593844	0.499978
C63	C	1.332549	0.100007	-0.000022
C64	C	1.832549	0.600007	0.499978
C65	C	1.340543	0.210063	-0.000019
C66	C	1.840543	0.710063	0.499981
C67	C	1.175615	0.541143	-0.000017
C68	C	1.675615	1.041143	0.499983
C69	C	1.167100	0.424012	-0.000020
C70	C	1.667100	0.924012	0.499980
C71	C	1.283622	-0.370307	-0.529576
C72	C	1.783622	0.129693	-0.029576
C73	C	1.276944	-0.361998	-0.647918
C74	C	1.776944	0.138002	-0.147918
C75	C	1.163861	-0.221538	-0.647957
C76	C	1.663861	0.278462	-0.147957
C77	C	1.170539	-0.229848	-0.529615
C78	C	1.670539	0.270152	-0.029615
C79	C	1.230421	-0.304236	-0.470429
C80	C	1.730421	0.195764	0.029571
C81	C	1.237093	-0.312549	-0.352085
C82	C	1.737093	0.187451	0.147915
C83	C	1.124016	-0.172085	-0.352125
C84	C	1.624016	0.327915	0.147875
C85	C	1.117338	-0.163776	-0.470467
C86	C	1.617338	0.336224	0.029533
N87	N	1.217064	-0.287617	0.292887
N88	N	1.717064	0.212383	0.792887
H89	H	0.850275	-0.412741	-0.000018
H90	H	1.350275	0.087259	0.499982
H91	H	0.926085	-0.069068	-0.000006
H92	H	1.426085	0.430932	0.499994
Cl93	Cl	0.683374	-0.533035	-0.000011
Cl94	Cl	1.183374	-0.033035	0.499989
Cl95	Cl	0.536210	-0.076580	-0.000030
Cl96	Cl	1.036210	0.423420	0.499970
H97	H	0.474873	-0.465032	-0.000029
H98	H	0.974873	0.034968	0.499971
Cl99	Cl	0.717562	-0.001065	-0.000016
Cl100	Cl	1.217562	0.498935	0.499984
H101	H	1.062742	0.046536	-0.000022
H102	H	1.562742	0.546536	0.499978
Cl103	Cl	1.381907	0.445126	-0.000046
Cl104	Cl	1.881907	0.945126	0.499954
H105	H	1.420913	0.257386	-0.000021
H106	H	1.920913	0.757386	0.499979
Cl107	Cl	1.088590	-0.128028	-0.722381
Cl108	Cl	1.588590	0.371972	-0.222381
H109	H	0.980021	0.208534	-0.000025
H110	H	1.480021	0.708534	0.499975
Cl111	Cl	1.343832	-0.445061	-0.722272
Cl112	Cl	1.843832	0.054939	-0.222272
Cl113	Cl	1.312373	-0.406063	-0.277681
Cl114	Cl	1.812373	0.093937	0.222319
H115	H	1.332370	-0.430886	-0.481386
H116	H	1.832370	0.069114	0.018614
Cl117	Cl	1.042061	-0.070266	-0.544883
Cl118	Cl	1.542061	0.429734	-0.044883
Cl119	Cl	1.057123	-0.089025	-0.277762
Cl120	Cl	1.557123	0.410975	0.222238
Cl121	Cl	0.954345	0.431197	-0.000036
Cl122	Cl	1.454345	0.931197	0.499964
Cl123	Cl	1.446598	0.034701	-0.000009
Cl124	Cl	1.946598	0.534701	0.499991
