data_functionalizedCrystal
_audit_creation_method	'MofGen! by Chris Wilmer'
_symmetry_space_group_name_H-M	'P1'
_symmetry_Int_Tables_number	1
_symmetry_cell_setting	triclinic
loop_
_symmetry_equiv_pos_as_xyz
  x,y,z
_cell_length_a	16.974800
_cell_length_b	8.559649
_cell_length_c	15.455313
_cell_angle_alpha	92.289439
_cell_angle_beta	90.973911
_cell_angle_gamma	76.598495
loop_
_atom_site_label
_atom_site_type_symbol
_atom_site_fract_x
_atom_site_fract_y
_atom_site_fract_z
O1	O	1.036750	0.203632	0.000677
O2	O	0.805841	0.228027	-0.015539
O3	O	0.941639	-0.016681	-0.006001
O4	O	0.900953	0.448340	-0.008860
O5	O	0.933877	-0.002745	0.137716
O6	O	0.798079	0.241963	0.128178
O7	O	1.028988	0.217568	0.144394
Cu8	Cu	0.912825	0.231038	0.149409
Cu9	Cu	0.922005	0.214557	-0.020553
O10	O	0.893191	0.462276	0.134857
C11	C	0.772673	0.233812	0.054263
C12	C	0.685406	0.230267	0.048134
C13	C	0.640181	0.236195	0.123597
C14	C	0.558188	0.232839	0.117841
C15	C	0.521418	0.223567	0.036621
C16	C	0.566649	0.217635	-0.038848
C17	C	0.648643	0.220979	-0.033091
C18	C	0.276649	0.212739	0.011003
C19	C	0.194649	0.209400	0.005251
C20	C	0.186193	0.224601	0.161940
C21	C	0.268187	0.227955	0.167690
C22	C	0.313412	0.222014	0.092222
N23	N	0.437607	0.220142	0.030735
N24	N	0.397223	0.225428	0.098108
C25	C	0.940842	-0.069229	0.066072
C26	C	0.950020	-0.246568	0.066712
C27	C	1.062157	0.211783	0.074591
C28	C	1.149425	0.215327	0.080714
C29	C	0.893988	0.514824	0.062781
C30	C	0.884810	0.692163	0.062136
N31	N	0.906375	0.242629	0.268951
N32	N	0.928462	0.202954	-0.140095
C33	C	0.964082	0.138706	0.318398
C34	C	0.959210	0.147487	0.408864
C35	C	0.896633	0.260198	0.449881
C36	C	0.838921	0.364125	0.400427
C37	C	0.843790	0.355336	0.309963
C38	C	0.875619	0.298092	0.719987
C39	C	0.870755	0.306876	0.810458
C40	C	0.991044	0.090235	0.818888
C41	C	0.995911	0.081463	0.728422
C42	C	0.938195	0.185384	0.678976
N43	N	0.891654	0.269179	0.542352
N44	N	0.943173	0.176394	0.586507
H45	H	0.821961	-0.224623	0.057725
N46	N	1.063404	-0.040102	0.684184
H47	H	1.099223	-0.104608	0.729237
H48	H	1.039543	-0.114539	0.644844
N49	N	0.154985	0.199376	-0.082350
H50	H	0.108777	0.296584	-0.089102
H51	H	0.196126	0.196059	-0.129238
N52	N	1.033279	-0.356787	0.072573
H53	H	1.028257	-0.472099	0.072227
H54	H	1.066519	-0.341096	0.021427
H55	H	0.819795	0.398666	0.843849
N56	N	1.021459	0.035412	0.462195
H57	H	1.008880	0.058074	0.525727
H58	H	1.020078	-0.079501	0.446234
H59	H	0.796798	0.439958	0.269703
H60	H	0.670111	0.243758	0.189734
H61	H	0.521372	0.237639	0.179291
H62	H	1.015041	0.046932	0.285009
N63	N	0.137412	0.230999	0.243330
H64	H	0.114670	0.132052	0.244725
H65	H	0.173457	0.235231	0.295623
N66	N	1.053291	-0.021846	0.872218
H67	H	1.040713	0.000818	0.935751
H68	H	1.051902	-0.136756	0.856257
H69	H	0.298120	0.235497	0.233828
H70	H	0.787966	0.455891	0.433828
N71	N	0.813368	0.410164	0.666662
H72	H	0.772990	0.482898	0.706376
H73	H	0.841262	0.477315	0.630927
H74	H	0.536707	0.210074	-0.104978
N75	N	0.325412	0.206328	-0.070398
H76	H	0.300612	0.301356	-0.106520
H77	H	0.382927	0.209787	-0.054370
N78	N	0.697426	0.214574	-0.114482
H79	H	0.661693	0.208194	-0.166808
H80	H	0.719254	0.314561	-0.116379
