data_functionalizedCrystal
_audit_creation_method	'MofGen! by Chris Wilmer'
_symmetry_space_group_name_H-M	'P1'
_symmetry_Int_Tables_number	1
_symmetry_cell_setting	triclinic
loop_
_symmetry_equiv_pos_as_xyz
  x,y,z
_cell_length_a	11.792241
_cell_length_b	10.268362
_cell_length_c	11.792241
_cell_angle_alpha	89.998512
_cell_angle_beta	95.806584
_cell_angle_gamma	90.000426
loop_
_atom_site_label
_atom_site_type_symbol
_atom_site_fract_x
_atom_site_fract_y
_atom_site_fract_z
O1	O	1.506910	0.108174	-0.155562
O2	O	1.840243	0.441508	0.177771
O3	O	2.173576	0.774841	0.511105
O4	O	1.176568	0.108205	-0.171595
O5	O	1.509902	0.441538	0.161738
O6	O	1.843235	0.774871	0.495072
O7	O	1.349755	0.108180	0.001592
O8	O	1.683089	0.441513	0.334925
O9	O	2.016422	0.774846	0.668259
O10	O	1.333723	0.108199	-0.328749
O11	O	1.667056	0.441533	0.004584
O12	O	2.000389	0.774866	0.337918
O13	O	1.349739	-0.108421	0.001586
O14	O	1.683072	0.224912	0.334919
O15	O	2.016405	0.558246	0.668253
O16	O	1.176552	-0.108396	-0.171601
O17	O	1.509885	0.224937	0.161732
O18	O	1.843218	0.558271	0.495066
O19	O	1.506893	-0.108426	-0.155568
O20	O	1.840226	0.224907	0.177765
O21	O	2.173560	0.558240	0.511099
Cu22	Cu	1.341721	-0.128188	-0.163585
Cu23	Cu	1.675054	0.205145	0.169748
Cu24	Cu	2.008387	0.538478	0.503082
Cu25	Cu	1.341741	0.127967	-0.163578
Cu26	Cu	1.675074	0.461300	0.169755
Cu27	Cu	2.008407	0.794634	0.503089
O28	O	1.333706	-0.108401	-0.328755
O29	O	1.667039	0.224932	0.004578
O30	O	2.000373	0.558265	0.337912
C31	C	1.134269	-0.000092	-0.170591
C32	C	1.467603	0.333242	0.162742
C33	C	1.800936	0.666575	0.496076
C34	C	1.008255	-0.000080	-0.167576
C35	C	1.341589	0.333253	0.165757
C36	C	1.674922	0.666586	0.499090
C37	C	0.777543	-0.000118	-0.162034
C38	C	1.110877	0.333215	0.171300
C39	C	1.444210	0.666549	0.504633
C40	C	0.905928	-0.000097	-0.165113
C41	C	1.239262	0.333236	0.168220
C42	C	1.572595	0.666569	0.501553
N43	N	1.341715	-0.308354	-0.163589
N44	N	1.675049	0.024979	0.169744
N45	N	2.008382	0.358312	0.503077
C46	C	1.341724	-0.426197	-0.163590
C47	C	1.675057	-0.092863	0.169743
C48	C	2.008390	0.240470	0.503077
C49	C	1.341738	-0.574035	-0.163580
C50	C	1.675071	-0.240701	0.169754
C51	C	2.008404	0.092632	0.503087
C52	C	1.549192	-0.000127	-0.156572
C53	C	1.882525	0.333206	0.176761
C54	C	2.215859	0.666540	0.510094
C55	C	1.675206	-0.000130	-0.159587
C56	C	2.008539	0.333204	0.173747
C57	C	2.341873	0.666537	0.507080
C58	C	1.348740	-0.000120	0.043880
C59	C	1.682073	0.333213	0.377213
C60	C	2.015407	0.666546	0.710547
C61	C	1.345726	-0.000119	0.169894
C62	C	1.679059	0.333215	0.503227
C63	C	2.012392	0.666548	0.836560
N64	N	1.341755	0.308133	-0.163565
N65	N	1.675088	0.641466	0.169768
N66	N	2.008422	0.974799	0.503102
C67	C	1.334721	-0.000099	-0.371043
C68	C	1.668055	0.333235	-0.037710
C69	C	2.001388	0.666568	0.295624
C70	C	1.337736	-0.000092	-0.497057
C71	C	1.671069	0.333242	-0.163723
C72	C	2.004402	0.666575	0.169610
C73	C	1.340183	-0.000096	0.400606
C74	C	1.673516	0.333237	0.733939
C75	C	2.006849	0.666570	1.067272
C76	C	1.343262	-0.000108	0.272221
C77	C	1.676596	0.333225	0.605554
C78	C	2.009929	0.666558	0.938887
