data_functionalizedCrystal
_audit_creation_method	'MofGen! by Chris Wilmer'
_symmetry_space_group_name_H-M	'P1'
_symmetry_Int_Tables_number	1
_symmetry_cell_setting	triclinic
loop_
_symmetry_equiv_pos_as_xyz
  x,y,z
_cell_length_a	21.295420
_cell_length_b	21.295417
_cell_length_c	21.295411
_cell_angle_alpha	89.978356
_cell_angle_beta	89.975307
_cell_angle_gamma	90.028757
loop_
_atom_site_label
_atom_site_type_symbol
_atom_site_fract_x
_atom_site_fract_y
_atom_site_fract_z
Zn1	Zn	0.962355	-0.250710	-0.355914
Zn2	Zn	1.462355	0.249290	0.144086
Zn3	Zn	0.962258	-0.355962	-0.250639
Zn4	Zn	1.462258	0.144038	0.249361
Zn5	Zn	0.857079	-0.250708	-0.250658
Zn6	Zn	1.357079	0.249292	0.249342
Zn7	Zn	0.857048	-0.355942	-0.355870
Zn8	Zn	1.357048	0.144058	0.144130
O9	O	0.909685	-0.303331	-0.303270
O10	O	1.409685	0.196669	0.196730
O11	O	1.050432	-0.264682	-0.341959
O12	O	1.550432	0.235318	0.158041
O13	O	0.948277	-0.342007	-0.162552
O14	O	1.448277	0.157993	0.337448
O15	O	0.871097	-0.162619	-0.264647
O16	O	1.371097	0.337381	0.235353
O17	O	1.050360	-0.342010	-0.264614
O18	O	1.550360	0.157990	0.235386
O19	O	0.948444	-0.162621	-0.341977
O20	O	1.448444	0.337379	0.158023
O21	O	0.871003	-0.264677	-0.162566
O22	O	1.371003	0.235323	0.337434
O23	O	0.768985	-0.264658	-0.264605
O24	O	1.268985	0.235342	0.235395
O25	O	0.871045	-0.341976	-0.443966
O26	O	1.371045	0.158024	0.056034
O27	O	0.768963	-0.341973	-0.341904
O28	O	1.268963	0.158027	0.158096
O29	O	0.948414	-0.264662	-0.443997
O30	O	1.448414	0.235338	0.056003
O31	O	0.948248	-0.444049	-0.264572
O32	O	1.448248	0.055951	0.235428
O33	O	0.870951	-0.444034	-0.341885
O34	O	1.370951	0.055966	0.158115
C35	C	0.746133	-0.303314	-0.303252
C36	C	1.246133	0.196686	0.196748
C37	C	0.676165	-0.303321	-0.303260
C38	C	1.176165	0.196679	0.196740
C39	C	0.176712	-0.343663	-0.343481
C40	C	0.676712	0.156337	0.156519
C41	C	0.242454	-0.343663	-0.343474
C42	C	0.742454	0.156337	0.156526
C43	C	0.275326	-0.303345	-0.303290
C44	C	0.775326	0.196655	0.196710
C45	C	0.242449	-0.263035	-0.263098
C46	C	0.742449	0.236965	0.236902
C47	C	0.176708	-0.263040	-0.263102
C48	C	0.676708	0.236960	0.236898
N49	N	0.378566	-0.248227	-0.298558
N50	N	0.878566	0.251773	0.201442
N51	N	0.441018	-0.248224	-0.298558
N52	N	0.941018	0.251776	0.201442
C53	C	0.473400	-0.303327	-0.303277
C54	C	0.973400	0.196673	0.196723
N55	N	0.440972	-0.358435	-0.308007
N56	N	0.940972	0.141565	0.191993
N57	N	0.378515	-0.358438	-0.308010
N58	N	0.878515	0.141562	0.191990
C59	C	0.346611	-0.303335	-0.303282
C60	C	0.846611	0.196665	0.196718
C61	C	0.577555	-0.343638	-0.343456
C62	C	1.077555	0.156362	0.156544
C63	C	0.643298	-0.343639	-0.343445
C64	C	1.143298	0.156361	0.156555
C65	C	0.643292	-0.263005	-0.263072
C66	C	1.143292	0.236995	0.236928
C67	C	0.577549	-0.263010	-0.263080
C68	C	1.077549	0.236990	0.236920
C69	C	0.544685	-0.303325	-0.303275
C70	C	1.044685	0.196675	0.196725
C71	C	0.909602	-0.466882	-0.303236
C72	C	1.409602	0.033118	0.196764
C73	C	0.909625	-0.536850	-0.303242
C74	C	1.409625	-0.036850	0.196758
C75	C	0.949909	-0.569704	-0.263026
C76	C	1.449909	-0.069704	0.236974
C77	C	0.949939	-0.635446	-0.263040
C78	C	1.449939	-0.135446	0.236960
C79	C	0.909672	-0.668333	-0.303263
C80	C	1.409672	-0.168333	0.196737
C81	C	0.869385	-0.635472	-0.343487
C82	C	1.369385	-0.135472	0.156513
C83	C	0.869361	-0.569730	-0.343476
C84	C	1.369361	-0.069730	0.156524
N85	N	0.854605	-0.771598	-0.308056
N86	N	1.354605	-0.271598	0.191944
N87	N	0.854630	-0.834049	-0.308063
N88	N	1.354630	-0.334049	0.191937
C89	C	0.909743	-0.866407	-0.303299
C90	C	1.409743	-0.366407	0.196701
N91	N	0.964832	-0.833955	-0.298517
N92	N	1.464832	-0.333955	0.201483
N93	N	0.964807	-0.771498	-0.298507
N94	N	1.464807	-0.271498	0.201493
C95	C	0.909694	-0.739618	-0.303280
C96	C	1.409694	-0.239618	0.196720
C97	C	0.950063	-0.970546	-0.263097
C98	C	1.450063	-0.470546	0.236903
C99	C	0.950093	-1.036290	-0.263116
C100	C	1.450093	-0.536290	0.236884
C101	C	0.869534	-1.036314	-0.343559
C102	C	1.369534	-0.536314	0.156441
C103	C	0.869509	-0.970572	-0.343544
C104	C	1.369509	-0.470572	0.156456
C105	C	0.909773	-0.937692	-0.303309
C106	C	1.409773	-0.437692	0.196691
C107	C	1.073875	-0.303348	-0.303289
C108	C	1.573875	0.196652	0.196711
C109	C	1.143843	-0.303356	-0.303297
C110	C	1.643843	0.196644	0.196703
C111	C	0.909785	-0.139140	-0.303319
C112	C	1.409785	0.360860	0.196681
C113	C	0.909827	-0.069172	-0.303340
C114	C	1.409827	0.430828	0.196660
C115	C	0.909737	-0.303317	-0.467461
C116	C	1.409737	0.196683	0.032539
C117	C	0.909759	-0.303312	-0.537429
C118	C	1.409759	0.196688	-0.037429
C119	C	0.950044	-0.263053	-0.570313
C120	C	1.450044	0.236947	-0.070313
C121	C	0.950043	-0.263025	-0.636056
C122	C	1.450043	0.236975	-0.136056
C123	C	0.909764	-0.303268	-0.668911
C124	C	1.409764	0.196732	-0.168911
C125	C	0.869472	-0.343530	-0.636019
C126	C	1.369472	0.156470	-0.136019
C127	C	0.869470	-0.343552	-0.570278
C128	C	1.369470	0.156448	-0.070278
N129	N	0.904908	-0.358336	-0.772127
N130	N	1.404908	0.141664	-0.272127
N131	N	0.904914	-0.358314	-0.834578
N132	N	1.404914	0.141686	-0.334578
C133	C	0.909768	-0.303204	-0.866986
C134	C	1.409768	0.196796	-0.366986
N135	N	0.914629	-0.248117	-0.834584
N136	N	1.414629	0.251883	-0.334584
N137	N	0.914626	-0.248141	-0.772126
N138	N	1.414626	0.251859	-0.272126
C139	C	0.909762	-0.303249	-0.740197
C140	C	1.409762	0.196751	-0.240197
C141	C	0.950054	-0.262913	-0.971156
C142	C	1.450054	0.237087	-0.471156
C143	C	0.950048	-0.262884	-1.036900
C144	C	1.450048	0.237116	-0.536900
C145	C	0.869481	-0.343395	-1.036862
C146	C	1.369481	0.156605	-0.536862
C147	C	0.869483	-0.343417	-0.971120
C148	C	1.369483	0.156583	-0.471120
C149	C	0.909773	-0.303177	-0.938271
C150	C	1.409773	0.196823	-0.438271
C151	C	0.909669	-0.303298	-0.139719
C152	C	1.409669	0.196702	0.360281
C153	C	0.909769	-0.303127	-0.069751
C154	C	1.409769	0.196873	0.430249
H155	H	0.670059	-0.376467	-0.376166
H156	H	1.170059	0.123533	0.123834
O157	O	0.545598	-0.223948	-0.223967
O158	O	1.045598	0.276052	0.276033
C159	C	0.507535	-0.259744	-0.183258
C160	C	1.007535	0.240256	0.316742
H161	H	0.527324	-0.309318	-0.179302
H162	H	1.027324	0.190682	0.320698
H163	H	0.457713	-0.261936	-0.202705
H164	H	0.957713	0.238064	0.297295
C165	C	0.482223	-0.168033	-0.122721
C166	C	0.982223	0.331967	0.377279
C167	C	0.506531	-0.228918	-0.117858
C168	C	1.006531	0.271082	0.382142
H169	H	0.481601	-0.149017	-0.082380
H170	H	0.981601	0.350983	0.417620
H171	H	0.507865	-0.143915	-0.150149
H172	H	1.007865	0.356085	0.349851
H173	H	0.440708	-0.169867	-0.138929
H174	H	0.940708	0.330133	0.361071
H175	H	0.548049	-0.227082	-0.101658
H176	H	1.048049	0.272918	0.398342
H177	H	0.480897	-0.253035	-0.090426
H178	H	0.980897	0.246965	0.409574
O179	O	0.830340	-0.938585	-0.382517
O180	O	1.330340	-0.438585	0.117483
C181	C	0.789677	-0.900624	-0.346631
C182	C	1.289677	-0.400624	0.153369
H183	H	0.811900	-0.890784	-0.298945
H184	H	1.311900	-0.390784	0.201055
H185	H	0.743040	-0.926004	-0.339676
H186	H	1.243040	-0.426004	0.160324
C187	C	0.750946	-0.850253	-0.439812
C188	C	1.250946	-0.350253	0.060188
C189	C	0.778242	-0.838162	-0.381245
C190	C	1.278242	-0.338162	0.118755
H191	H	0.743890	-0.811724	-0.461164
H192	H	1.243890	-0.311724	0.038836
H193	H	0.778340	-0.875829	-0.463989
H194	H	1.278340	-0.375829	0.036011
H195	H	0.712085	-0.871404	-0.434007
H196	H	1.212085	-0.371404	0.065993
H197	H	0.817106	-0.817018	-0.387050
H198	H	1.317106	-0.317018	0.112950
H199	H	0.750855	-0.812581	-0.357069
H200	H	1.250855	-0.312581	0.142931
O201	O	0.989249	-1.068109	-0.223989
O202	O	1.489249	-0.568109	0.276011
C203	C	1.024789	-1.024987	-0.188488
C204	C	1.524789	-0.524987	0.311512
H205	H	0.998987	-0.978149	-0.186277
H206	H	1.498987	-0.478149	0.313723
H207	H	1.072585	-1.017938	-0.211579
H208	H	1.572585	-0.517938	0.288421
C209	C	1.065589	-1.108203	-0.124220
C210	C	1.565589	-0.608203	0.375780
C211	C	1.033896	-1.050677	-0.121500
C212	C	1.533896	-0.550677	0.378500
H213	H	1.071210	-1.124050	-0.082899
H214	H	1.571210	-0.624050	0.417101
H215	H	1.041647	-1.137255	-0.148139
H216	H	1.541647	-0.637255	0.351861
H217	H	1.105416	-1.102321	-0.143465
H218	H	1.605416	-0.602321	0.356535
H219	H	0.994067	-1.056561	-0.102263
H220	H	1.494067	-0.556561	0.397737
H221	H	1.057832	-1.021626	-0.097576
H222	H	1.557832	-0.521626	0.402424
O223	O	0.675186	-0.223906	-0.223946
O224	O	1.175186	0.276094	0.276054
C225	C	0.659071	-0.237565	-0.161184
C226	C	1.159071	0.262435	0.338816
H227	H	0.640976	-0.287850	-0.157916
H228	H	1.140976	0.212150	0.342084
H229	H	0.620917	-0.203795	-0.144794
H230	H	1.120917	0.296205	0.355206
C231	C	0.739677	-0.168413	-0.123194
C232	C	1.239677	0.331587	0.376806
C233	C	0.717457	-0.230176	-0.119180
C234	C	1.217457	0.269824	0.380820
H235	H	0.775691	-0.163853	-0.097282
H236	H	1.275691	0.336147	0.402718
H237	H	0.750533	-0.159209	-0.165478
H238	H	1.250533	0.340791	0.334522
H239	H	0.707876	-0.140278	-0.109537
H240	H	1.207876	0.359722	0.390463
H241	H	0.749255	-0.258309	-0.132844
H242	H	1.249255	0.241691	0.367156
H243	H	0.706608	-0.239385	-0.076897
H244	H	1.206608	0.260615	0.423103
H245	H	0.836679	-0.376155	-1.063613
H246	H	1.336679	0.123845	-0.563613
H247	H	0.982745	-0.662201	-0.230292
H248	H	1.482745	-0.162201	0.269708
O249	O	0.989087	-0.938573	-0.223954
O250	O	1.489087	-0.438573	0.276046
C251	C	0.953253	-0.900590	-0.183266
C252	C	1.453253	-0.400590	0.316734
H253	H	0.903685	-0.920450	-0.179333
H254	H	1.403685	-0.420450	0.320667
H255	H	0.951053	-0.850757	-0.202718
H256	H	1.451053	-0.350757	0.297282
C257	C	1.044921	-0.875194	-0.122686
C258	C	1.544921	-0.375194	0.377314
C259	C	0.984043	-0.899590	-0.117851
C260	C	1.484043	-0.399590	0.382149
H261	H	1.063915	-0.874574	-0.082335
H262	H	1.563915	-0.374574	0.417665
H263	H	1.069064	-0.900782	-0.150099
H264	H	1.569064	-0.400782	0.349901
H265	H	1.043079	-0.833669	-0.138898
H266	H	1.543079	-0.333669	0.361102
H267	H	0.985886	-0.941117	-0.101646
H268	H	1.485886	-0.441117	0.398354
H269	H	0.959901	-0.874009	-0.090433
H270	H	1.459901	-0.374009	0.409567
O271	O	0.989085	-0.537863	-0.223930
O272	O	1.489085	-0.037863	0.276070
C273	C	1.024638	-0.580963	-0.188427
C274	C	1.524638	-0.080963	0.311573
H275	H	1.026818	-0.627811	-0.214220
H276	H	1.526818	-0.127811	0.285780
H277	H	1.001614	-0.587998	-0.140597
H278	H	1.501614	-0.087998	0.359403
C279	C	1.088956	-0.497718	-0.147737
C280	C	1.588956	0.002282	0.352263
C281	C	1.091637	-0.555256	-0.179419
C282	C	1.591637	-0.055256	0.320581
H283	H	1.130283	-0.481860	-0.142177
H284	H	1.630283	0.018140	0.357823
H285	H	1.065002	-0.468680	-0.171654
H286	H	1.565002	0.031320	0.328346
H287	H	1.069766	-0.503588	-0.107882
H288	H	1.569766	-0.003588	0.392118
H289	H	1.110819	-0.549383	-0.219276
H290	H	1.610819	-0.049383	0.280724
H291	H	1.115596	-0.584292	-0.155508
H292	H	1.615596	-0.084292	0.344492
H293	H	0.982846	-0.230238	-0.662835
H294	H	1.482846	0.269762	-0.162835
H295	H	0.836663	-0.376335	-0.543504
H296	H	1.336663	0.123665	-0.043504
O297	O	0.830378	-0.382711	-0.667863
O298	O	1.330378	0.117289	-0.167863
C299	C	0.844106	-0.445458	-0.651810
C300	C	1.344106	0.054542	-0.151810
H301	H	0.868300	-0.446779	-0.604086
H302	H	1.368300	0.053221	-0.104086
H303	H	0.876458	-0.466653	-0.688820
H304	H	1.376458	0.033347	-0.188820
C305	C	0.752997	-0.481959	-0.707362
C306	C	1.252997	0.018041	-0.207362
C307	C	0.782709	-0.483582	-0.648744
C308	C	1.282709	0.016418	-0.148744
H309	H	0.715126	-0.505477	-0.705473
H310	H	1.215126	-0.005477	-0.205473
H311	H	0.743750	-0.439686	-0.718179
H312	H	1.243750	0.060314	-0.218179
H313	H	0.779965	-0.499620	-0.738197
H314	H	1.279965	0.000380	-0.238197
H315	H	0.755745	-0.465914	-0.617911
H316	H	1.255745	0.034086	-0.117911
H317	H	0.791951	-0.525854	-0.637921
H318	H	1.291951	-0.025854	-0.137921
H319	H	0.269217	-0.230208	-0.230379
H320	H	0.769217	0.269792	0.269621
O321	O	0.989204	-0.223761	-0.939339
O322	O	1.489204	0.276239	-0.439339
C323	C	1.024767	-0.188226	-0.982465
C324	C	1.524767	0.311774	-0.482465
H325	H	0.998985	-0.186027	-1.029317
H326	H	1.498985	0.313973	-0.529317
H327	H	1.072563	-0.211279	-0.989477
H328	H	1.572563	0.288721	-0.489477
C329	C	1.065544	-0.123940	-0.899268
C330	C	1.565544	0.376060	-0.399268
C331	C	1.033875	-0.121235	-0.956811
C332	C	1.533875	0.378765	-0.456811
H333	H	1.071166	-0.082617	-0.883443
H334	H	1.571166	0.417383	-0.383443
H335	H	1.041587	-0.147882	-0.870213
H336	H	1.541587	0.352118	-0.370213
H337	H	1.105371	-0.143153	-0.905119
H338	H	1.605371	0.356847	-0.405119
H339	H	0.994047	-0.102029	-0.950957
H340	H	1.494047	0.397971	-0.450957
H341	H	1.057827	-0.097288	-0.985864
H342	H	1.557827	0.402712	-0.485864
O343	O	0.830337	-0.667387	-0.382649
O344	O	1.330337	-0.167387	0.117351
C345	C	0.844050	-0.651267	-0.445398
C346	C	1.344050	-0.151267	0.054602
H347	H	0.894330	-0.633150	-0.448619
H348	H	1.394330	-0.133150	0.051381
H349	H	0.810279	-0.613127	-0.461817
H350	H	1.310279	-0.113127	0.038183
C351	C	0.774969	-0.731902	-0.483455
C352	C	1.274969	-0.231902	0.016545
C353	C	0.836727	-0.709656	-0.487412
C354	C	1.336727	-0.209656	0.012588
H355	H	0.770450	-0.767918	-0.509372
H356	H	1.270450	-0.267918	-0.009372
H357	H	0.765729	-0.742762	-0.441180
H358	H	1.265729	-0.242762	0.058820
H359	H	0.746834	-0.700114	-0.497137
H360	H	1.246834	-0.200114	0.002863
H361	H	0.864860	-0.741441	-0.473723
H362	H	1.364860	-0.241441	0.026277
H363	H	0.845972	-0.698803	-0.529686
H364	H	1.345972	-0.198803	-0.029686
H365	H	0.269221	-0.376486	-0.376199
H366	H	0.769221	0.123514	0.123801
H367	H	0.836556	-0.542981	-0.376225
H368	H	1.336556	-0.042981	0.123775
O369	O	0.830442	-1.068350	-0.382576
O370	O	1.330442	-0.568350	0.117424
C371	C	0.839114	-1.133420	-0.373977
C372	C	1.339114	-0.633420	0.126023
H373	H	0.859755	-1.142410	-0.325417
H374	H	1.359755	-0.642410	0.174583
H375	H	0.872628	-1.152024	-0.411349
H376	H	1.372628	-0.652024	0.088651
C377	C	0.750082	-1.156186	-0.439341
C378	C	1.250082	-0.656186	0.060659
C379	C	0.775429	-1.167227	-0.379696
C380	C	1.275429	-0.667227	0.120304
H381	H	0.710799	-1.177041	-0.442871
H382	H	1.210799	-0.677041	0.057129
H383	H	0.744240	-1.112347	-0.445136
H384	H	1.244240	-0.612347	0.054864
H385	H	0.778016	-1.171689	-0.470477
H386	H	1.278016	-0.671689	0.029523
H387	H	0.747498	-1.151718	-0.348561
H388	H	1.247498	-0.651718	0.151439
H389	H	0.781264	-1.211065	-0.373896
H390	H	1.281264	-0.711065	0.126104
O391	O	0.989195	-0.223901	-0.538502
O392	O	1.489195	0.276099	-0.038502
C393	C	1.024762	-0.188372	-0.581629
C394	C	1.524762	0.311628	-0.081629
H395	H	0.998982	-0.186176	-0.628482
H396	H	1.498982	0.313824	-0.128482
H397	H	1.072557	-0.211427	-0.588638
H398	H	1.572557	0.288573	-0.088638
C399	C	1.065540	-0.124080	-0.498437
C400	C	1.565540	0.375920	0.001563
C401	C	1.033873	-0.121379	-0.555981
C402	C	1.533873	0.378621	-0.055981
H403	H	1.071163	-0.082756	-0.482615
H404	H	1.571163	0.417244	0.017385
H405	H	1.041580	-0.148018	-0.469380
H406	H	1.541580	0.351982	0.030620
H407	H	1.105365	-0.143296	-0.504285
H408	H	1.605365	0.356704	-0.004285
H409	H	0.994045	-0.102171	-0.550131
H410	H	1.494045	0.397829	-0.050131
H411	H	1.057827	-0.097436	-0.585036
H412	H	1.557827	0.402564	-0.085036
H413	H	0.149946	-0.230215	-0.230379
H414	H	0.649946	0.269785	0.269621
O415	O	0.830421	-0.382620	-0.939202
O416	O	1.330421	0.117380	-0.439202
C417	C	0.844129	-0.445355	-0.955281
C418	C	1.344129	0.054645	-0.455281
H419	H	0.894417	-0.448534	-0.973371
H420	H	1.394417	0.051466	-0.473371
H421	H	0.810371	-0.461792	-0.993428
H422	H	1.310371	0.038208	-0.493428
C423	C	0.775008	-0.483481	-0.874658
C424	C	1.275008	0.016519	-0.374658
C425	C	0.836774	-0.487386	-0.896872
C426	C	1.336774	0.012614	-0.396872
H427	H	0.770469	-0.509409	-0.838629
H428	H	1.270469	-0.009409	-0.338629
H429	H	0.765771	-0.441215	-0.863826
H430	H	1.265771	0.058785	-0.363826
H431	H	0.746884	-0.497177	-0.906452
H432	H	1.246884	0.002823	-0.406452
H433	H	0.864897	-0.473683	-0.865080
H434	H	1.364897	0.026317	-0.365080
H435	H	0.846016	-0.529651	-0.907697
H436	H	1.346016	-0.029651	-0.407697
O437	O	0.144886	-0.382892	-0.382537
O438	O	0.644886	0.117108	0.117463
C439	C	0.188000	-0.418460	-0.418012
C440	C	0.688000	0.081540	0.081988
H441	H	0.234851	-0.420591	-0.392224
H442	H	0.734851	0.079409	0.107776
H443	H	0.195020	-0.395480	-0.465865
H444	H	0.695020	0.104520	0.034135
C445	C	0.104782	-0.482857	-0.458630
C446	C	0.604782	0.017143	0.041370
C447	C	0.162323	-0.485479	-0.426954
C448	C	0.662323	0.014521	0.073046
H449	H	0.088943	-0.524197	-0.464149
H450	H	0.588943	-0.024197	0.035851
H451	H	0.075734	-0.458893	-0.434732
H452	H	0.575734	0.041107	0.065268
H453	H	0.110639	-0.463704	-0.498504
H454	H	0.610639	0.036296	0.001496
H455	H	0.156464	-0.504624	-0.387078
H456	H	0.656464	-0.004624	0.112922
H457	H	0.191369	-0.509448	-0.450846
H458	H	0.691369	-0.009448	0.049154
O459	O	0.545723	-0.382857	-0.382520
O460	O	1.045723	0.117143	0.117480
C461	C	0.588835	-0.418425	-0.417997
C462	C	1.088835	0.081575	0.082003
H463	H	0.635681	-0.420573	-0.392202
H464	H	1.135681	0.079427	0.107798
H465	H	0.595867	-0.395435	-0.465843
H466	H	1.095867	0.104565	0.034157
C467	C	0.505610	-0.482794	-0.458645
C468	C	1.005610	0.017206	0.041355
C469	C	0.563146	-0.485437	-0.426960
C470	C	1.063146	0.014563	0.073040
H471	H	0.489763	-0.524129	-0.464177
H472	H	0.989763	-0.024129	0.035823
H473	H	0.476564	-0.458830	-0.434745
H474	H	0.976564	0.041170	0.065255
H475	H	0.511478	-0.463633	-0.498513
H476	H	1.011478	0.036367	0.001487
H477	H	0.557275	-0.504591	-0.387090
H478	H	1.057275	-0.004591	0.112910
H479	H	0.592190	-0.509406	-0.450853
H480	H	1.092190	-0.009406	0.049147
H481	H	0.982852	-0.230097	-1.063673
H482	H	1.482852	0.269903	-0.563673
