data_functionalizedCrystal
_audit_creation_method	'MofGen! by Chris Wilmer'
_symmetry_space_group_name_H-M	'P1'
_symmetry_Int_Tables_number	1
_symmetry_cell_setting	triclinic
loop_
_symmetry_equiv_pos_as_xyz
  x,y,z
_cell_length_a	6.817900
_cell_length_b	16.418049
_cell_length_c	10.943624
_cell_angle_alpha	93.819405
_cell_angle_beta	108.838799
_cell_angle_gamma	103.389670
loop_
_atom_site_label
_atom_site_type_symbol
_atom_site_fract_x
_atom_site_fract_y
_atom_site_fract_z
V1	V	-4.087790	-0.115864	-0.403006
O2	O	-4.074541	0.005590	-0.394866
O3	O	-4.038505	-0.229761	-0.400699
O4	O	-4.066181	-0.114072	-0.578565
O5	O	-4.046673	-0.110899	-0.215769
V6	V	-4.568061	-0.101338	-0.380556
O7	O	-4.356181	-0.147728	-0.452251
O8	O	-4.749866	-0.069474	-0.331311
O9	O	-4.394139	0.012559	-0.382862
O10	O	-4.698706	-0.222792	-0.388695
O11	O	-4.726574	-0.106303	-0.567792
O12	O	-4.366463	-0.103130	-0.204997
C13	C	-3.882423	-0.257527	-0.394458
C14	C	-3.923593	-0.350638	-0.393742
C15	C	-4.201363	-0.569128	-0.398579
C16	C	-4.240036	-0.656617	-0.397918
C17	C	-3.873846	-0.648074	-0.384991
C18	C	-3.835181	-0.560587	-0.385662
C19	C	-3.998943	-0.521116	-0.392449
C20	C	-4.076282	-0.696092	-0.391118
C21	C	-4.118211	-0.790951	-0.390401
C22	C	-3.957012	-0.426250	-0.393168
C23	C	-3.917726	-0.109953	-0.621342
C24	C	-3.981336	-0.109241	-0.764865
C25	C	-3.827312	-0.104449	-0.841994
C26	C	-3.999661	-0.175581	-0.948263
C27	C	-3.922353	-0.036850	-0.914332
C28	C	-4.152880	-0.180440	-0.869258
C29	C	-4.075506	-0.041646	-0.835303
C30	C	-4.247988	-0.112798	-0.941543
C31	C	-4.213562	0.040320	-0.389100
C32	C	-4.151632	0.133431	-0.389824
C33	C	-4.178259	-0.107252	-0.162213
C34	C	-4.093887	-0.107959	-0.018688
H35	H	-3.670341	-0.521494	-0.380674
H36	H	-3.648932	-0.101014	-0.798532
H37	H	-3.825512	0.023821	-0.934856
O38	O	-4.268680	-0.252947	-0.845274
C39	C	-4.410033	-0.302983	-0.964666
H40	H	-4.441632	-0.260896	-1.043665
H41	H	-4.334437	-0.352695	-0.993797
C42	C	-4.585065	-0.399033	-0.851990
C43	C	-4.623889	-0.347339	-0.949016
H44	H	-4.716978	-0.426398	-0.842337
H45	H	-4.489828	-0.365325	-0.771552
H46	H	-4.522062	-0.440453	-0.876278
H47	H	-4.686865	-0.305915	-0.924720
H48	H	-4.719142	-0.381042	-1.029449
H49	H	-3.968259	-0.232203	-0.997434
O50	O	-4.436735	-0.703317	-0.404085
C51	C	-4.525389	-0.765551	-0.516445
H52	H	-4.448539	-0.744700	-0.591540
H53	H	-4.492980	-0.828138	-0.488795
C54	C	-4.864207	-0.802759	-0.482860
C55	C	-4.769832	-0.777147	-0.575097
H56	H	-5.014993	-0.809916	-0.519038
H57	H	-4.804479	-0.760833	-0.407158
H58	H	-4.837178	-0.854913	-0.459826
H59	H	-4.796839	-0.724989	-0.598118
H60	H	-4.829572	-0.819064	-0.650805
O61	O	-4.360358	-0.530710	-0.405352
C62	C	-4.404321	-0.491733	-0.518524
H63	H	-4.258006	-0.478699	-0.550476
H64	H	-4.548316	-0.535511	-0.600151
C65	C	-4.635184	-0.423633	-0.449474
C66	C	-4.455470	-0.407618	-0.488712
H67	H	-4.666745	-0.371749	-0.431089
H68	H	-4.605573	-0.449895	-0.373231
H69	H	-4.755159	-0.460118	-0.517504
H70	H	-4.335494	-0.371144	-0.420677
H71	H	-4.485063	-0.381349	-0.564945
O72	O	-4.460982	-0.117175	-0.993138
C73	C	-4.582374	-0.192915	-0.970617
H74	H	-4.484072	-0.241281	-0.954922
H75	H	-4.624734	-0.179555	-0.880024
C76	C	-4.911282	-0.168956	-1.108868
C77	C	-4.790552	-0.228363	-1.089603
H78	H	-5.039701	-0.190821	-1.182261
H79	H	-4.829500	-0.117927	-1.124038
H80	H	-4.946560	-0.157828	-1.033366
H81	H	-4.755253	-0.239481	-1.165098
H82	H	-4.872333	-0.279394	-1.074449
O83	O	-4.113157	0.025809	-0.776544
C84	C	-4.261507	-0.003260	-0.713929
H85	H	-4.360471	-0.070636	-0.761281
H86	H	-4.170930	-0.002565	-0.606035
C87	C	-4.290679	0.137811	-0.669154
C88	C	-4.412241	0.055062	-0.727321
H89	H	-4.383654	0.173789	-0.677409
H90	H	-4.190727	0.157397	-0.711335
H91	H	-4.215204	0.138379	-0.579248
H92	H	-4.487691	0.054494	-0.817229
H93	H	-4.512210	0.035477	-0.685156
H94	H	-3.740521	-0.680221	-0.379462
