data_functionalizedCrystal
_audit_creation_method	'MofGen! by Chris Wilmer'
_symmetry_space_group_name_H-M	'P1'
_symmetry_Int_Tables_number	1
_symmetry_cell_setting	triclinic
loop_
_symmetry_equiv_pos_as_xyz
  x,y,z
_cell_length_a	6.817900
_cell_length_b	16.256208
_cell_length_c	16.255661
_cell_angle_alpha	95.350611
_cell_angle_beta	103.488922
_cell_angle_gamma	103.499088
loop_
_atom_site_label
_atom_site_type_symbol
_atom_site_fract_x
_atom_site_fract_y
_atom_site_fract_z
V1	V	-4.026770	-0.117778	-0.264174
O2	O	-4.014188	0.004956	-0.258835
O3	O	-3.978378	-0.232858	-0.262666
O4	O	-3.978331	-0.116275	-0.379254
O5	O	-4.014235	-0.112433	-0.141440
V6	V	-4.510402	-0.103061	-0.249458
O7	O	-4.287789	-0.150061	-0.296455
O8	O	-4.699579	-0.070778	-0.217177
O9	O	-4.335587	0.012018	-0.250966
O10	O	-4.640380	-0.225796	-0.254797
O11	O	-4.640333	-0.108406	-0.372192
O12	O	-4.335634	-0.104564	-0.134379
C13	C	-3.823382	-0.260902	-0.258575
C14	C	-3.865103	-0.354983	-0.258109
C15	C	-3.823321	-0.112188	-0.407294
C16	C	-3.865001	-0.111721	-0.501374
C17	C	-4.180993	-0.643087	-0.261101
C18	C	-4.024588	-0.573415	-0.189040
C19	C	-4.015127	-0.693616	-0.256396
C20	C	-4.097310	-0.595653	-0.329275
C21	C	-3.941426	-0.527235	-0.257239
C22	C	-3.859240	-0.625174	-0.184270
C23	C	-3.932023	-0.647427	-0.324568
C24	C	-3.775481	-0.577774	-0.252486
C25	C	-4.057590	-0.789464	-0.255909
C26	C	-3.898947	-0.431387	-0.257719
C27	C	-3.775555	-0.106138	-0.724178
C28	C	-3.932006	-0.178197	-0.793840
C29	C	-3.941385	-0.110845	-0.673620
C30	C	-3.859223	-0.037961	-0.771594
C31	C	-4.015152	-0.109994	-0.840001
C32	C	-4.097318	-0.182968	-0.742052
C33	C	-4.024473	-0.042668	-0.719790
C34	C	-4.181062	-0.114748	-0.789432
C35	C	-3.898884	-0.111335	-0.577772
C36	C	-4.057670	-0.109510	-0.935849
C37	C	-4.153925	0.040058	-0.255055
C38	C	-4.091442	0.134138	-0.255526
C39	C	-4.153986	-0.108654	-0.106334
C40	C	-4.091545	-0.109117	-0.012253
H41	H	-4.063276	-0.541196	-0.131743
H42	H	-4.352936	-0.118407	-0.817788
N43	N	-4.396466	-0.678871	-0.265575
N44	N	-4.535588	-0.672043	-0.327983
H45	H	-4.687762	-0.697316	-0.331141
H46	H	-4.197565	-0.244317	-0.728743
N47	N	-4.223029	-0.578862	-0.406183
N48	N	-4.138031	-0.539881	-0.456793
H49	H	-4.226828	-0.528036	-0.511114
H50	H	-3.603799	-0.102591	-0.695688
H51	H	-3.893361	-0.235496	-0.826073
N52	N	-3.883614	-0.687893	-0.396448
N53	N	-3.906655	-0.767062	-0.407203
H54	H	-3.872483	-0.795645	-0.457975
N55	N	-4.072835	0.029222	-0.679325
N56	N	-3.978151	0.103589	-0.684249
H57	H	-4.012285	0.154369	-0.655666
N58	N	-3.733427	0.038895	-0.788464
N59	N	-3.538526	0.055463	-0.764211
H60	H	-3.449666	0.109732	-0.776137
H61	H	-3.603605	-0.549394	-0.248826
N62	N	-3.733485	-0.641865	-0.107317
N63	N	-3.745460	-0.717298	-0.094517
H64	H	-3.656650	-0.729090	-0.040169
