data_functionalizedCrystal
_audit_creation_method	'MofGen! by Chris Wilmer'
_symmetry_space_group_name_H-M	'P1'
_symmetry_Int_Tables_number	1
_symmetry_cell_setting	triclinic
loop_
_symmetry_equiv_pos_as_xyz
  x,y,z
_cell_length_a	12.837942
_cell_length_b	14.044220
_cell_length_c	11.892295
_cell_angle_alpha	94.249498
_cell_angle_beta	85.692371
_cell_angle_gamma	94.008909
loop_
_atom_site_label
_atom_site_type_symbol
_atom_site_fract_x
_atom_site_fract_y
_atom_site_fract_z
O1	O	0.258126	1.274970	-0.093879
O2	O	0.249034	0.998178	-0.093907
O3	O	0.102109	1.130437	-0.093887
O4	O	0.405051	1.142711	-0.093899
O5	O	0.089877	1.141438	0.094117
O6	O	0.236802	1.009179	0.094096
O7	O	0.245894	1.285971	0.094125
Zn8	Zn	0.239406	1.149322	0.123960
Zn9	Zn	0.255522	1.134828	-0.123743
O10	O	0.392819	1.153712	0.094104
C11	C	0.056989	1.131791	0.000114
C12	C	-0.059231	1.119423	0.000111
C13	C	0.238937	0.968004	0.000091
C14	C	0.227064	0.861705	0.000080
C15	C	-0.286441	1.268102	0.000103
C16	C	-0.395641	1.256486	0.000100
C17	C	-0.386832	1.084575	0.000094
C18	C	-0.277632	1.096191	0.000097
C19	C	-0.227441	1.187958	0.000103
C20	C	-0.118240	1.199573	0.000114
C21	C	-0.109432	1.027663	0.000100
C22	C	-0.218632	1.016047	0.000097
C23	C	0.205353	0.667085	0.000103
C24	C	0.289571	0.617058	0.000104
C25	C	0.277491	0.508764	0.000117
C26	C	0.217432	0.775388	0.000090
C27	C	0.437939	1.152358	0.000101
C28	C	0.554160	1.164726	0.000097
C29	C	0.255991	1.316145	0.000124
C30	C	0.267865	1.422443	0.000128
N31	N	0.228406	1.159220	0.293011
N32	N	0.266514	1.124936	-0.292793
C33	C	0.343095	1.055949	0.529694
C34	C	0.335398	1.062890	0.648033
C35	C	0.205324	1.180047	0.648032
C36	C	0.213020	1.173106	0.529692
C37	C	0.281907	1.111054	0.470527
C38	C	0.289597	1.104109	0.352186
C39	C	0.159528	1.221270	0.352186
C40	C	0.151832	1.228211	0.470526
H41	H	-0.245575	1.342822	0.000119
H42	H	0.370743	0.655560	0.000096
H43	H	0.149245	1.230575	0.696219
H44	H	0.385225	1.018019	0.696204
N45	N	-0.459276	1.342929	0.000117
H46	H	-0.536071	1.321649	0.000116
H47	H	-0.437575	1.378416	-0.069575
H48	H	0.124187	0.628585	0.000113
H49	H	0.345685	1.053581	0.304015
H50	H	0.399178	1.005417	0.481521
N51	N	-0.440975	0.985606	0.000074
H52	H	-0.519104	0.990412	0.000068
H53	H	-0.424511	0.954179	0.069770
H54	H	-0.077376	1.274294	0.000123
N55	N	0.077541	1.295140	0.534342
H56	H	0.081950	1.291178	0.618288
H57	H	0.003699	1.276184	0.513665
H58	H	0.109701	1.266138	0.304000
H59	H	-0.259513	0.941333	0.000087
H60	H	-0.061383	0.962405	0.000109
