data_functionalizedCrystal
_audit_creation_method	'MofGen! by Chris Wilmer'
_symmetry_space_group_name_H-M	'P1'
_symmetry_Int_Tables_number	1
_symmetry_cell_setting	triclinic
loop_
_symmetry_equiv_pos_as_xyz
  x,y,z
_cell_length_a	19.805407
_cell_length_b	12.759394
_cell_length_c	19.805399
_cell_angle_alpha	89.976033
_cell_angle_beta	89.979591
_cell_angle_gamma	90.016777
loop_
_atom_site_label
_atom_site_type_symbol
_atom_site_fract_x
_atom_site_fract_y
_atom_site_fract_z
Zn1	Zn	1.034790	-0.418236	-0.382752
Zn2	Zn	1.534790	0.081764	0.117248
Zn3	Zn	1.034728	-0.593930	-0.269571
Zn4	Zn	1.534728	-0.093930	0.230429
Zn5	Zn	0.921605	-0.418271	-0.269575
Zn6	Zn	1.421605	0.081729	0.230425
Zn7	Zn	0.921591	-0.593880	-0.382716
Zn8	Zn	1.421591	-0.093880	0.117284
O9	O	0.978178	-0.506079	-0.326153
O10	O	1.478178	-0.006079	0.173847
O11	O	1.129498	-0.441549	-0.367751
O12	O	1.629498	0.058451	0.132249
O13	O	1.019701	-0.570664	-0.174855
O14	O	1.519701	-0.070664	0.325145
O15	O	0.936651	-0.271246	-0.284605
O16	O	1.436651	0.228754	0.215395
O17	O	1.129453	-0.570630	-0.284598
O18	O	1.629453	-0.070630	0.215402
O19	O	1.019808	-0.271220	-0.367755
O20	O	1.519808	0.228780	0.132245
O21	O	0.936590	-0.441608	-0.174858
O22	O	1.436590	0.058392	0.325142
O23	O	0.826886	-0.441560	-0.284570
O24	O	1.326886	0.058440	0.215430
O25	O	0.936628	-0.570545	-0.477437
O26	O	1.436628	-0.070545	0.022563
O27	O	0.826876	-0.570579	-0.367694
O28	O	1.326876	-0.070579	0.132306
O29	O	1.019794	-0.441500	-0.477464
O30	O	1.519794	0.058500	0.022536
O31	O	1.019688	-0.740944	-0.284563
O32	O	1.519688	-0.240944	0.215437
O33	O	0.936567	-0.740908	-0.367690
O34	O	1.436567	-0.240908	0.132310
C35	C	0.802322	-0.506069	-0.326129
C36	C	1.302322	-0.006069	0.173871
C37	C	0.727090	-0.506089	-0.326134
C38	C	1.227090	-0.006089	0.173866
C39	C	0.265327	-0.438993	-0.369544
C40	C	0.765327	0.061007	0.130456
C41	C	0.336015	-0.438994	-0.369539
C42	C	0.836015	0.061006	0.130461
C43	C	0.371329	-0.506095	-0.326175
C44	C	0.871329	-0.006095	0.173825
C45	C	0.335950	-0.573206	-0.282818
C46	C	0.835950	-0.073206	0.217182
C47	C	0.265263	-0.573209	-0.282827
C48	C	0.765263	-0.073209	0.217173
C49	C	0.621023	-0.573198	-0.282782
C50	C	1.121023	-0.073198	0.217218
C51	C	0.691716	-0.573188	-0.282775
C52	C	1.191716	-0.073188	0.217225
C53	C	0.691776	-0.438984	-0.369494
C54	C	1.191776	0.061016	0.130506
C55	C	0.621088	-0.438986	-0.369503
C56	C	1.121088	0.061014	0.130497
C57	C	0.585716	-0.506101	-0.326149
C58	C	1.085716	-0.006101	0.173851
C59	C	0.509068	-0.506099	-0.326156
C60	C	1.009068	-0.006099	0.173844
C61	C	0.447976	-0.506092	-0.326164
C62	C	0.947976	-0.006092	0.173836
C63	C	0.978138	-0.779047	-0.326137
C64	C	1.478138	-0.279047	0.173863
C65	C	0.978182	-0.895824	-0.326153
C66	C	1.478182	-0.395824	0.173847
C67	C	1.064801	-0.895808	-0.239657
C68	C	1.564801	-0.395808	0.260343
C69	C	1.108128	-0.950662	-0.196417
C70	C	1.608128	-0.450662	0.303583
C71	C	1.108168	-1.060383	-0.196436
C72	C	1.608168	-0.560383	0.303564
C73	C	1.064877	-1.115254	-0.239700
C74	C	1.564877	-0.615254	0.260300
C75	C	1.021550	-1.060401	-0.282940
C76	C	1.521550	-0.560401	0.217060
C77	C	1.021514	-0.950677	-0.282915
C78	C	1.521514	-0.450677	0.217085
C79	C	0.934936	-1.060416	-0.369438
C80	C	1.434936	-0.560416	0.130562
C81	C	0.934892	-0.950694	-0.369417
C82	C	1.434892	-0.450694	0.130583
C83	C	0.891645	-1.115287	-0.412702
C84	C	1.391645	-0.615287	0.087298
C85	C	0.848314	-1.060434	-0.455939
C86	C	1.348314	-0.560434	0.044061
C87	C	0.848275	-0.950706	-0.455919
C88	C	1.348275	-0.450706	0.044081
C89	C	0.891565	-0.895841	-0.412657
C90	C	1.391565	-0.395841	0.087343
C91	C	1.154721	-0.506091	-0.326178
C92	C	1.654721	-0.006091	0.173822
C93	C	1.229953	-0.506096	-0.326189
C94	C	1.729953	-0.006096	0.173811
C95	C	0.978216	-0.506013	-0.502696
C96	C	1.478216	-0.006013	-0.002696
C97	C	0.978233	-0.505985	-0.577928
C98	C	1.478233	-0.005985	-0.077928
C99	C	0.978238	-0.232046	-0.326184
C100	C	1.478238	0.267954	0.173816
C101	C	0.978263	-0.115269	-0.326198
C102	C	1.478263	0.384731	0.173802
C103	C	1.021539	-0.438788	-0.613287
C104	C	1.521539	0.061212	-0.113287
C105	C	1.021545	-0.438758	-0.683976
C106	C	1.521545	0.061242	-0.183976
C107	C	0.978249	-0.505930	-0.719304
C108	C	1.478249	-0.005930	-0.219304
C109	C	0.934939	-0.573130	-0.683940
C110	C	1.434939	-0.073130	-0.183940
C111	C	0.934929	-0.573154	-0.613253
C112	C	1.434929	-0.073154	-0.113253
C113	C	0.934977	-0.573032	-0.969013
C114	C	1.434977	-0.073032	-0.469013
C115	C	0.934992	-0.573005	-1.039705
C116	C	1.434992	-0.073005	-0.539705
C117	C	1.021594	-0.438635	-1.039736
C118	C	1.521594	0.061365	-0.539736
C119	C	1.021584	-0.438660	-0.969049
C120	C	1.521584	0.061340	-0.469049
C121	C	0.978271	-0.505855	-0.933691
C122	C	1.478271	-0.005855	-0.433691
C123	C	0.978263	-0.505886	-0.857043
C124	C	1.478263	-0.005886	-0.357043
C125	C	0.978260	-0.505905	-0.795951
C126	C	1.478260	-0.005905	-0.295951
C127	C	0.978180	-0.506069	-0.150297
C128	C	1.478180	-0.006069	0.349703
C129	C	0.978295	-0.505802	-0.075066
C130	C	1.478295	-0.005802	0.424934
H131	H	0.364708	-0.627845	-0.247513
H132	H	0.864708	-0.127845	0.252487
H133	H	0.891533	-0.806500	-0.412631
H134	H	1.391533	-0.306500	0.087369
H135	H	0.899719	-0.627762	-0.940233
H136	H	1.399719	-0.127762	-0.440233
H137	H	0.812996	-0.906050	-0.491132
H138	H	1.312996	-0.406050	0.008868
O139	O	0.806288	-1.113896	-0.497899
O140	O	1.306288	-0.613896	0.002101
C141	C	0.815632	-1.222500	-0.488660
C142	C	1.315632	-0.722500	0.011340
H143	H	0.837833	-1.237513	-0.436448
H144	H	1.337833	-0.737513	0.063552
H145	H	0.764948	-1.264270	-0.493215
H146	H	1.264948	-0.764270	0.006785
H147	H	0.851669	-1.253538	-0.528846
H148	H	1.351669	-0.753538	-0.028846
H149	H	0.720584	-0.384339	-0.404797
H150	H	1.220584	0.115661	0.095203
O151	O	1.150114	-0.897197	-0.154413
O152	O	1.650114	-0.397197	0.345587
C153	C	1.140803	-0.788591	-0.163676
C154	C	1.640803	-0.288591	0.336324
H155	H	1.088553	-0.773648	-0.185797
H156	H	1.588553	-0.273648	0.314203
H157	H	1.145404	-0.746942	-0.112973
H158	H	1.645404	-0.246942	0.387027
H159	H	1.180923	-0.757362	-0.199748
H160	H	1.680923	-0.257362	0.300252
H161	H	1.056797	-0.384092	-0.584528
H162	H	1.556797	0.115908	-0.084528
O163	O	0.892960	-0.638484	-0.578824
O164	O	1.392960	-0.138484	-0.078824
C165	C	0.931480	-0.706369	-0.537948
C166	C	1.431480	-0.206369	-0.037948
H167	H	0.982781	-0.669319	-0.527380
H168	H	1.482781	-0.169319	-0.027380
H169	H	0.903905	-0.720459	-0.488230
H170	H	1.403905	-0.220459	0.011770
H171	H	0.938902	-0.784222	-0.565179
H172	H	1.438902	-0.284222	-0.065179
H173	H	1.056842	-0.383965	-0.940288
H174	H	1.556842	0.116035	-0.440288
O175	O	0.231131	-0.373777	-0.411733
O176	O	0.731131	0.126223	0.088267
C177	C	0.277514	-0.314534	-0.449987
C178	C	0.777514	0.185466	0.050013
H179	H	0.327896	-0.357571	-0.452274
H180	H	0.827896	0.142429	0.047726
H181	H	0.257120	-0.303439	-0.503331
H182	H	0.757120	0.196561	-0.003331
H183	H	0.285034	-0.234690	-0.425290
H184	H	0.785034	0.265310	0.074710
H185	H	0.592340	-0.384342	-0.404812
H186	H	1.092340	0.115658	0.095188
O187	O	0.370405	-0.373956	-0.411725
O188	O	0.870405	0.126044	0.088275
C189	C	0.411314	-0.433850	-0.455365
C190	C	0.911314	0.066150	0.044635
H191	H	0.390001	-0.516607	-0.459459
H192	H	0.890001	-0.016607	0.040541
H193	H	0.412141	-0.395951	-0.507495
H194	H	0.912141	0.104049	-0.007495
H195	H	0.464877	-0.437424	-0.434432
H196	H	0.964877	0.062576	0.065568
H197	H	0.899684	-0.627819	-0.712710
H198	H	1.399684	-0.127819	-0.212710
H199	H	1.056811	-0.384042	-0.712762
H200	H	1.556811	0.115958	-0.212762
O201	O	1.150277	-1.113510	-0.154370
O202	O	1.650277	-0.613510	0.345630
C203	C	1.188492	-1.041560	-0.116194
C204	C	1.688492	-0.541560	0.383806
H205	H	1.160746	-0.963381	-0.113809
H206	H	1.660746	-0.463381	0.386191
H207	H	1.195749	-1.073316	-0.062879
H208	H	1.695749	-0.573316	0.437121
H209	H	1.239881	-1.029801	-0.141022
H210	H	1.739881	-0.529801	0.358978
O211	O	0.725916	-0.638480	-0.240632
O212	O	1.225916	-0.138480	0.259368
C213	C	0.679538	-0.697702	-0.202357
C214	C	1.179538	-0.197702	0.297643
H215	H	0.629162	-0.701399	-0.230081
H216	H	1.129162	-0.201399	0.269919
H217	H	0.699949	-0.780463	-0.195050
H218	H	1.199949	-0.280463	0.304950
H219	H	0.672003	-0.659136	-0.150992
H220	H	1.172003	-0.159136	0.349008
H221	H	0.891684	-1.204628	-0.412717
H222	H	1.391684	-0.704628	0.087283
H223	H	0.899732	-0.627707	-1.068468
H224	H	1.399732	-0.127707	-0.568468
O225	O	0.586641	-0.638501	-0.240763
O226	O	1.086641	-0.138501	0.259237
C227	C	0.545751	-0.706428	-0.279226
C228	C	1.045751	-0.206428	0.220774
H229	H	0.567075	-0.713018	-0.332526
H230	H	1.067075	-0.213018	0.167474
H231	H	0.544933	-0.787234	-0.254658
H232	H	1.044933	-0.287234	0.245342
H233	H	0.492182	-0.673964	-0.281596
H234	H	0.992182	-0.173964	0.218404
O235	O	0.231003	-0.638426	-0.240648
O236	O	0.731003	-0.138426	0.259352
C237	C	0.277328	-0.697670	-0.202383
C238	C	0.777328	-0.197670	0.297617
H239	H	0.327722	-0.654629	-0.200077
H240	H	0.827722	-0.154629	0.299923
H241	H	0.256875	-0.708776	-0.149046
H242	H	0.756875	-0.208776	0.350954
H243	H	0.284846	-0.777510	-0.227083
H244	H	0.784846	-0.277510	0.272917
O245	O	1.063567	-0.373238	-1.074114
O246	O	1.563567	0.126762	-0.574114
C247	C	1.025054	-0.305374	-1.115012
C248	C	1.525054	0.194626	-0.615012
H249	H	0.971744	-0.298888	-1.093700
H250	H	1.471744	0.201112	-0.593700
H251	H	1.049554	-0.224523	-1.115825
H252	H	1.549554	0.275477	-0.615825
H253	H	1.022724	-0.337833	-1.168582
H254	H	1.522724	0.162167	-0.668582
O255	O	1.064650	-0.789226	-0.239576
O256	O	1.564650	-0.289226	0.260424
C257	C	0.999769	-0.752678	-0.222151
C258	C	1.499769	-0.252678	0.277849
H259	H	0.971826	-0.815981	-0.192633
H260	H	1.471826	-0.315981	0.307367
H261	H	1.004601	-0.679304	-0.189685
H262	H	1.504601	-0.179304	0.310315
H263	H	0.970418	-0.733196	-0.270042
H264	H	1.470418	-0.233196	0.229958
H265	H	1.064919	-1.204595	-0.239717
H266	H	1.564919	-0.704595	0.260283
