data_functionalizedCrystal
_audit_creation_method	'MofGen! by Chris Wilmer'
_symmetry_space_group_name_H-M	'P1'
_symmetry_Int_Tables_number	1
_symmetry_cell_setting	triclinic
loop_
_symmetry_equiv_pos_as_xyz
  x,y,z
_cell_length_a	11.792254
_cell_length_b	10.489746
_cell_length_c	10.268362
_cell_angle_alpha	89.994415
_cell_angle_beta	89.995475
_cell_angle_gamma	84.369949
loop_
_atom_site_label
_atom_site_type_symbol
_atom_site_fract_x
_atom_site_fract_y
_atom_site_fract_z
O1	O	1.507375	0.174909	-0.108300
O2	O	2.007375	0.674909	0.391700
O3	O	1.177085	0.192911	-0.108303
O4	O	1.677085	0.692911	0.391697
O5	O	1.349742	-0.001713	-0.108292
O6	O	1.849742	0.498287	0.391708
O7	O	1.334717	0.369533	-0.108311
O8	O	1.834717	0.869533	0.391689
O9	O	1.349727	-0.001721	0.108309
O10	O	1.849727	0.498279	0.608309
O11	O	1.177070	0.192902	0.108297
O12	O	1.677070	0.692902	0.608297
O13	O	1.507360	0.174901	0.108300
O14	O	2.007360	0.674901	0.608300
Cu15	Cu	1.342213	0.183901	0.128076
Cu16	Cu	1.842213	0.683901	0.628076
Cu17	Cu	1.342231	0.183911	-0.128079
Cu18	Cu	1.842231	0.683911	0.371921
O19	O	1.334702	0.369524	0.108289
O20	O	1.834702	0.869524	0.608289
C21	C	1.134783	0.191773	-0.000003
C22	C	1.634783	0.691773	0.499997
C23	C	1.008761	0.188378	-0.000004
C24	C	1.508761	0.688378	0.499996
C25	C	0.906417	0.185621	-0.000009
C26	C	1.406417	0.685621	0.499991
C27	C	0.778021	0.182172	-0.000010
C28	C	1.278021	0.682172	0.499990
C29	C	1.348599	-0.049245	0.000008
C30	C	1.848599	0.450755	0.500008
C31	C	1.345200	-0.190862	0.000007
C32	C	1.845200	0.309138	0.500007
C33	C	1.233331	-0.343345	-0.000010
C34	C	1.733331	0.156655	0.499990
C35	C	1.289268	-0.266136	-0.106802
C36	C	1.789268	0.233864	0.393198
C37	C	1.289280	-0.266185	0.106749
C38	C	1.789280	0.233815	0.606749
C39	C	1.395138	-0.365983	-0.106902
C40	C	1.895138	0.134017	0.393098
C41	C	1.395134	-0.366038	0.106745
C42	C	1.895134	0.133962	0.606745
C43	C	1.451149	-0.288879	-0.000073
C44	C	1.951149	0.211121	0.499927
C45	C	1.549661	0.176039	-0.000002
C46	C	2.049661	0.676039	0.499998
C47	C	1.675683	0.179433	-0.000010
C48	C	2.175683	0.679433	0.499990
C49	C	1.335846	0.417056	-0.000014
C50	C	1.835846	0.917056	0.499986
C51	C	1.339245	0.558674	-0.000021
C52	C	1.839245	1.058674	0.499979
N53	N	1.342209	0.183894	0.308242
N54	N	1.842209	0.683894	0.808242
N55	N	1.342245	0.183908	-0.308245
N56	N	1.842245	0.683908	0.191755
C57	C	1.342225	0.183908	0.573913
C58	C	1.842225	0.683908	1.073913
C59	C	1.342213	0.183904	0.426075
C60	C	1.842213	0.683904	0.926075
H61	H	1.141235	-0.367755	-0.000117
H62	H	1.641235	0.132245	0.499883
H63	H	1.543315	-0.264713	-0.000131
H64	H	2.043315	0.235287	0.499869
H65	H	1.439799	-0.409690	0.197037
H66	H	1.939799	0.090310	0.697037
O67	O	1.235761	-0.214327	0.214435
O68	O	1.735761	0.285673	0.714435
C69	C	1.121023	-0.241536	0.214009
C70	C	1.621023	0.258464	0.714009
H71	H	1.112073	-0.329773	0.151468
H72	H	1.612073	0.170227	0.651468
H73	H	1.092949	-0.260559	0.317867
H74	H	1.592949	0.239441	0.817867
H75	H	1.065268	-0.156278	0.172349
H76	H	1.565268	0.343722	0.672349
H77	H	1.244563	-0.222507	-0.197090
H78	H	1.744563	0.277493	0.302910
O79	O	1.448259	-0.417814	-0.214836
O80	O	1.948259	0.082186	0.285164
C81	C	1.370484	-0.481749	-0.288753
C82	C	1.870484	0.018251	0.211247
H83	H	1.279805	-0.440800	-0.264548
H84	H	1.779805	0.059200	0.235452
H85	H	1.387384	-0.467816	-0.396886
H86	H	1.887384	0.032184	0.103114
H87	H	1.381372	-0.588329	-0.264597
H88	H	1.881372	-0.088329	0.235403
