data_functionalizedCrystal
_audit_creation_method	'MofGen! by Chris Wilmer'
_symmetry_space_group_name_H-M	'P1'
_symmetry_Int_Tables_number	1
_symmetry_cell_setting	triclinic
loop_
_symmetry_equiv_pos_as_xyz
  x,y,z
_cell_length_a	10.654550
_cell_length_b	13.262508
_cell_length_c	9.130313
_cell_angle_alpha	105.917062
_cell_angle_beta	89.996220
_cell_angle_gamma	84.460192
loop_
_atom_site_label
_atom_site_type_symbol
_atom_site_fract_x
_atom_site_fract_y
_atom_site_fract_z
O1	O	1.667069	0.147419	-0.063189
O2	O	1.301517	0.161465	-0.057570
O3	O	1.493489	0.001719	-0.121214
O4	O	1.475097	0.307165	0.000456
O5	O	1.493487	0.001723	0.122386
O6	O	1.301515	0.161469	0.186031
O7	O	1.667066	0.147424	0.180412
Cu8	Cu	1.484290	0.154447	0.205464
Cu9	Cu	1.484293	0.154442	-0.082622
O10	O	1.475094	0.307170	0.244056
C11	C	1.254723	0.160436	0.063823
C12	C	1.115296	0.157350	0.062603
C13	C	1.035322	0.251406	0.100047
C14	C	0.904316	0.248501	0.098864
C15	C	0.933272	0.057475	0.022784
C16	C	1.064275	0.060382	0.023977
C17	C	1.018604	0.361693	0.143965
C18	C	0.887598	0.358788	0.142783
C19	C	1.492457	-0.037390	-0.014996
C20	C	1.489370	-0.153929	-0.061426
C21	C	1.480657	-0.482436	0.338858
C22	C	1.483548	-0.372941	0.382484
C23	C	1.485004	-0.318183	0.271510
C24	C	1.483569	-0.372930	0.116903
C25	C	1.480668	-0.482435	0.073274
C26	C	1.485015	-0.318181	0.005926
C27	C	1.483579	-0.372929	-0.148681
C28	C	1.480680	-0.482423	-0.192302
C29	C	1.479224	-0.537181	-0.081329
C30	C	1.487915	-0.208677	0.049555
C31	C	1.487926	-0.208675	-0.216029
C32	C	1.485036	-0.318170	-0.259654
C33	C	1.713860	0.148453	0.059016
C34	C	1.853287	0.151538	0.060226
C35	C	1.476126	0.346279	0.137835
C36	C	1.479213	0.462817	0.184255
N37	N	1.484297	0.154450	0.408088
N38	N	1.484296	0.154431	-0.285249
C39	C	1.569324	0.083739	0.456568
C40	C	1.569321	0.083726	0.609899
C41	C	1.399260	0.225145	0.666262
C42	C	1.399258	0.225152	0.512930
C43	C	1.667512	0.002094	0.424030
C44	C	1.667508	0.002082	0.577361
H45	H	0.891714	-0.021473	-0.008687
H46	H	1.487355	-0.229027	0.307039
F47	F	1.485057	-0.314681	0.547021
F48	F	1.149386	-0.039725	-0.015847
H49	H	0.845651	0.400341	0.057381
H50	H	1.047710	0.404828	0.263099
H51	H	1.054078	0.396809	0.052781
F52	F	1.628135	-0.097562	0.599828
F53	F	1.308748	0.300398	0.461331
F54	F	1.308759	0.300387	0.777853
H55	H	1.489072	-0.164111	0.175437
F56	F	0.827668	0.402356	0.297595
H57	H	1.479463	-0.527030	0.429196
F58	F	1.640032	-0.103353	0.327621
H59	H	1.758563	0.027658	0.386648
H60	H	1.763926	0.020066	0.626135
F61	F	1.476148	-0.653720	-0.127752
H62	H	1.489102	-0.164090	-0.306393
H63	H	1.479500	-0.526994	-0.318192
H64	H	1.483866	-0.362761	-0.385537
