data_functionalizedCrystal
_audit_creation_method	'MofGen! by Chris Wilmer'
_symmetry_space_group_name_H-M	'P1'
_symmetry_Int_Tables_number	1
_symmetry_cell_setting	triclinic
loop_
_symmetry_equiv_pos_as_xyz
  x,y,z
_cell_length_a	14.044220
_cell_length_b	22.610064
_cell_length_c	14.044202
_cell_angle_alpha	89.996699
_cell_angle_beta	86.809210
_cell_angle_gamma	90.004031
loop_
_atom_site_label
_atom_site_type_symbol
_atom_site_fract_x
_atom_site_fract_y
_atom_site_fract_z
O1	O	1.277181	0.049141	-0.230156
O2	O	1.777181	0.549141	0.269844
O3	O	1.000509	0.049155	-0.221850
O4	O	1.500509	0.549155	0.278150
O5	O	1.134688	0.049132	-0.087667
O6	O	1.634688	0.549132	0.412333
O7	O	1.143003	0.049164	-0.364339
O8	O	1.643003	0.549164	0.135661
O9	O	1.134664	-0.049237	-0.087686
O10	O	1.634664	0.450763	0.412314
O11	O	1.000485	-0.049214	-0.221869
O12	O	1.500485	0.450786	0.278131
O13	O	1.277157	-0.049228	-0.230175
O14	O	1.777157	0.450772	0.269825
Zn15	Zn	1.138817	-0.064839	-0.226025
Zn16	Zn	1.638817	0.435161	0.273975
Zn17	Zn	1.138849	0.064766	-0.226000
Zn18	Zn	1.638849	0.564766	0.274000
O19	O	1.142979	-0.049205	-0.364358
O20	O	1.642979	0.450795	0.135642
C21	C	0.964875	-0.000028	-0.218224
C22	C	1.464875	0.499972	0.281776
C23	C	0.858732	-0.000023	-0.207379
C24	C	1.358732	0.499977	0.292621
N25	N	1.138803	-0.153292	-0.226042
N26	N	1.638803	0.346708	0.273958
C27	C	0.664394	-0.000037	-0.187553
C28	C	1.164394	0.499963	0.312447
C29	C	0.613267	-0.000031	-0.264468
C30	C	1.113267	0.499969	0.235532
C31	C	0.505130	-0.000038	-0.253436
C32	C	1.005130	0.499962	0.246564
C33	C	0.772540	-0.000029	-0.198583
C34	C	1.272540	0.499971	0.301417
C35	C	1.198267	-0.561943	-0.166594
C36	C	1.698267	-0.061943	0.333406
C37	C	1.198271	-0.623863	-0.166587
C38	C	1.698271	-0.123863	0.333413
O39	O	1.248791	-0.655891	-0.116053
O40	O	1.748791	-0.155891	0.383947
N41	N	1.138847	-0.654829	-0.225980
N42	N	1.638847	-0.154829	0.274020
C43	C	1.079407	-0.623871	-0.285376
C44	C	1.579407	-0.123871	0.214624
O45	O	1.028861	-0.655896	-0.335893
O46	O	1.528861	-0.155896	0.164107
C47	C	1.079398	-0.561953	-0.285377
C48	C	1.579398	-0.061953	0.214623
C49	C	1.138834	-0.530990	-0.225987
C50	C	1.638834	-0.030990	0.274013
C51	C	1.257697	-0.530981	-0.107208
C52	C	1.757697	-0.030981	0.392792
C53	C	1.257694	-0.469065	-0.107216
C54	C	1.757694	0.030935	0.392784
C55	C	1.198261	-0.438112	-0.166610
C56	C	1.698261	0.061888	0.333390
C57	C	1.138831	-0.469075	-0.225995
C58	C	1.638831	0.030925	0.274005
C59	C	1.019954	-0.530996	-0.344768
C60	C	1.519954	-0.030996	0.155232
C61	C	1.019950	-0.469073	-0.344763
C62	C	1.519950	0.030927	0.155237
C63	C	1.079386	-0.438111	-0.285373
C64	C	1.579386	0.061889	0.214627
C65	C	1.079394	-0.376206	-0.285397
C66	C	1.579394	0.123794	0.214603
N67	N	1.138819	-0.345240	-0.226004
N68	N	1.638819	0.154760	0.273996
C69	C	1.198252	-0.376193	-0.166611
C70	C	1.698252	0.123807	0.333389
C71	C	1.079428	-0.753905	-0.285369
C72	C	1.579428	-0.253905	0.214631
C73	C	1.079441	-0.815823	-0.285374
C74	C	1.579441	-0.315823	0.214626
C75	C	1.198304	-0.815810	-0.166583
C76	C	1.698304	-0.315810	0.333417
C77	C	1.198296	-0.753891	-0.166584
C78	C	1.698296	-0.253891	0.333416
C79	C	1.138853	-0.722939	-0.225976
C80	C	1.638853	-0.222939	0.274024
C81	C	1.198241	-0.246166	-0.166633
C82	C	1.698241	0.253834	0.333367
C83	C	1.198236	-0.184245	-0.166649
C84	C	1.698236	0.315755	0.333351
C85	C	1.079369	-0.184263	-0.285435
C86	C	1.579369	0.315737	0.214565
C87	C	1.079378	-0.246178	-0.285423
C88	C	1.579378	0.253822	0.214577
C89	C	1.138817	-0.277128	-0.226014
C90	C	1.638817	0.222872	0.273986
O91	O	1.028898	-0.344139	-0.335903
O92	O	1.528898	0.155861	0.164097
O93	O	1.248780	-0.344161	-0.116093
O94	O	1.748780	0.155839	0.383907
C95	C	1.312791	-0.000044	-0.233801
C96	C	1.812791	0.499956	0.266199
C97	C	1.418934	-0.000045	-0.244646
C98	C	1.918934	0.499955	0.255354
C99	C	1.131039	-0.000055	-0.052054
C100	C	1.631039	0.499945	0.447946
C101	C	1.120191	-0.000063	0.054089
C102	C	1.620191	0.499937	0.554089
N103	N	1.138871	0.153219	-0.225976
N104	N	1.638871	0.653219	0.274024
C105	C	1.177289	-0.000051	0.299547
C106	C	1.677289	0.499949	0.799547
C107	C	1.100373	-0.000049	0.248422
C108	C	1.600373	0.499951	0.748422
C109	C	1.111402	-0.000057	0.140285
C110	C	1.611402	0.499943	0.640285
C111	C	1.166262	-0.000043	0.407694
C112	C	1.666262	0.499957	0.907694
C113	C	1.146626	-0.000025	0.600029
C114	C	1.646626	0.499975	1.100029
C115	C	1.157468	-0.000037	0.493886
C116	C	1.657468	0.499963	0.993886
H117	H	0.650708	-0.000019	-0.338601
H118	H	1.150708	0.499981	0.161399
H119	H	0.626955	-0.000049	-0.113425
H120	H	1.126955	0.499951	0.386575
C121	C	1.263619	-0.150190	-0.101309
C122	C	1.763619	0.349810	0.398691
N123	N	1.312861	-0.124542	-0.052094
N124	N	1.812861	0.375458	0.447906
C125	C	1.014079	-0.719863	-0.350757
C126	C	1.514079	-0.219863	0.149243
N127	N	0.964872	-0.694226	-0.400020
N128	N	1.464872	-0.194226	0.099980
C129	C	0.954561	-0.565041	-0.410094
C130	C	1.454561	-0.065041	0.089906
N131	N	0.905299	-0.590683	-0.459299
N132	N	1.405299	-0.090683	0.040701
H133	H	1.246693	-0.728685	-0.118223
H134	H	1.746693	-0.228685	0.381777
C135	C	1.263676	-0.849871	-0.101241
C136	C	1.763676	-0.349871	0.398759
N137	N	1.312909	-0.875527	-0.052028
N138	N	1.812909	-0.375527	0.447972
C139	C	1.323067	-0.435015	-0.041871
C140	C	1.823067	0.064985	0.458129
N141	N	1.372306	-0.409371	0.007355
N142	N	1.872306	0.090629	0.507355
C143	C	1.277433	-0.000069	0.248965
C144	C	1.777433	0.499931	0.748965
N145	N	1.352861	-0.000087	0.210855
N146	N	1.852861	0.499913	0.710855
H147	H	1.246641	-0.271359	-0.118255
H148	H	1.746641	0.228641	0.381745
H149	H	1.306094	-0.556177	-0.058838
H150	H	1.806094	-0.056177	0.441162
H151	H	0.971541	-0.443875	-0.393126
H152	H	1.471541	0.056125	0.106874
C153	C	1.014064	-0.849874	-0.350714
C154	C	1.514064	-0.349874	0.149286
N155	N	0.964815	-0.875520	-0.399926
N156	N	1.464815	-0.375520	0.100074
H157	H	1.030990	-0.271388	-0.333794
H158	H	1.530990	0.228612	0.166206
H159	H	1.026241	-0.000043	0.285865
H160	H	1.526241	0.499957	0.785865
C161	C	1.013992	-0.150202	-0.350762
C162	C	1.513992	0.349798	0.149238
N163	N	0.964744	-0.124546	-0.399960
N164	N	1.464744	0.375454	0.100040
