data_functionalizedCrystal
_audit_creation_method	'MofGen! by Chris Wilmer'
_symmetry_space_group_name_H-M	'P1'
_symmetry_Int_Tables_number	1
_symmetry_cell_setting	triclinic
loop_
_symmetry_equiv_pos_as_xyz
  x,y,z
_cell_length_a	17.699083
_cell_length_b	26.210047
_cell_length_c	27.732066
_cell_angle_alpha	89.991369
_cell_angle_beta	82.966558
_cell_angle_gamma	90.002540
loop_
_atom_site_label
_atom_site_type_symbol
_atom_site_fract_x
_atom_site_fract_y
_atom_site_fract_z
O1	O	-1.003549	-0.042348	-0.061118
O2	O	-0.503549	0.457652	0.438882
O3	O	-0.783102	-0.042365	-0.069071
O4	O	-0.283102	0.457635	0.430929
O5	O	-0.900165	-0.042358	0.005277
O6	O	-0.400165	0.457642	0.505277
O7	O	-0.886486	-0.042356	-0.135466
O8	O	-0.386486	0.457644	0.364534
O9	O	-0.900142	0.042500	0.005265
O10	O	-0.400142	0.542500	0.505265
O11	O	-0.783079	0.042493	-0.069083
O12	O	-0.283079	0.542493	0.430917
O13	O	-1.003527	0.042510	-0.061130
O14	O	-0.503527	0.542510	0.438870
Cu15	Cu	-0.893301	0.050249	-0.065108
Cu16	Cu	-0.393301	0.550249	0.434892
Cu17	Cu	-0.893328	-0.050105	-0.065093
Cu18	Cu	-0.393328	0.449895	0.434907
O19	O	-0.886464	0.042502	-0.135478
O20	O	-0.386464	0.542502	0.364522
C21	C	-0.754896	0.000061	-0.068792
C22	C	-0.254896	0.500061	0.431208
C23	C	-0.670885	0.000055	-0.067937
C24	C	-0.170885	0.500055	0.432063
C25	C	-0.621884	0.000055	-0.111578
C26	C	-0.121884	0.500055	0.388422
C27	C	-0.542948	0.000061	-0.110771
C28	C	-0.042948	0.500061	0.389229
C29	C	-0.513014	0.000063	-0.066324
C30	C	-0.013014	0.500063	0.433676
C31	C	-0.562022	0.000064	-0.022680
C32	C	-0.062022	0.500064	0.477320
C33	C	-0.640957	0.000062	-0.023487
C34	C	-0.140957	0.500062	0.476513
C35	C	-0.243687	0.000075	-0.019426
C36	C	0.256313	0.500075	0.480574
C37	C	-0.164746	0.000076	-0.018623
C38	C	0.335254	0.500076	0.481377
C39	C	-0.145678	0.000075	-0.106711
C40	C	0.354322	0.500075	0.393289
C41	C	-0.224613	0.000072	-0.107517
C42	C	0.275387	0.500072	0.392483
C43	C	-0.273614	0.000076	-0.063874
C44	C	0.226386	0.500076	0.436126
C45	C	-0.359205	0.000070	-0.064748
C46	C	0.140795	0.500070	0.435252
C47	C	-0.427424	0.000065	-0.065449
C48	C	0.072576	0.500065	0.434551
N49	N	-0.893288	0.120833	-0.065117
N50	N	-0.393288	0.620833	0.434883
C51	C	-0.945158	0.473351	-0.032183
C52	C	-0.445158	0.973351	0.467817
C53	C	-0.945174	0.687009	-0.032178
C54	C	-0.445174	1.187009	0.467822
O55	O	-0.989247	0.714634	-0.004176
O56	O	-0.489247	1.214634	0.495824
N57	N	-0.893331	0.713727	-0.065088
N58	N	-0.393331	1.213727	0.434912
C59	C	-0.841477	0.687027	-0.097999
C60	C	-0.341477	1.187027	0.402001
O61	O	-0.797377	0.714655	-0.125988
O62	O	-0.297377	1.214655	0.374012
C63	C	-0.841458	0.473370	-0.098002
C64	C	-0.341458	0.973370	0.401998
C65	C	-0.893309	0.446655	-0.065093
C66	C	-0.393309	0.946655	0.434907
C67	C	-0.997004	0.446636	0.000724
C68	C	-0.497004	0.946636	0.500724
C69	C	-0.997002	0.393224	0.000720
C70	C	-0.497002	0.893224	0.500720
C71	C	-0.945154	0.366528	-0.032190
C72	C	-0.445154	0.866528	0.467810
C73	C	-0.893307	0.393243	-0.065096
C74	C	-0.393307	0.893243	0.434904
C75	C	-0.789601	0.446671	-0.130911
C76	C	-0.289601	0.946671	0.369089
C77	C	-0.789599	0.393253	-0.130908
C78	C	-0.289599	0.893253	0.369092
C79	C	-0.841450	0.366538	-0.097999
C80	C	-0.341450	0.866538	0.402001
C81	C	-0.841457	0.313135	-0.098010
C82	C	-0.341457	0.813135	0.401990
N83	N	-0.893300	0.286417	-0.065100
N84	N	-0.393300	0.786417	0.434900
C85	C	-0.945148	0.313114	-0.032190
C86	C	-0.445148	0.813114	0.467810
C87	C	-0.841492	0.799201	-0.097996
C88	C	-0.341492	1.299201	0.402004
C89	C	-0.841498	0.852615	-0.097996
C90	C	-0.341498	1.352615	0.402004
C91	C	-0.945194	0.852593	-0.032174
C92	C	-0.445194	1.352593	0.467826
C93	C	-0.945191	0.799178	-0.032176
C94	C	-0.445191	1.299178	0.467824
C95	C	-0.893335	0.772483	-0.065086
C96	C	-0.393335	1.272483	0.434914
C97	C	-0.945141	0.200946	-0.032200
C98	C	-0.445141	0.700946	0.467800
C99	C	-0.945136	0.147530	-0.032207
C100	C	-0.445136	0.647530	0.467793
C101	C	-0.841438	0.147556	-0.098028
C102	C	-0.341438	0.647556	0.401972
C103	C	-0.841444	0.200967	-0.098022
C104	C	-0.341444	0.700967	0.401978
C105	C	-0.893299	0.227661	-0.065104
C106	C	-0.393299	0.727661	0.434896
O107	O	-0.797401	0.285478	-0.125993
O108	O	-0.297401	0.785478	0.374007
O109	O	-0.989231	0.285477	-0.004198
O110	O	-0.489231	0.785477	0.495802
C111	C	-0.945160	0.526762	-0.032179
C112	C	-0.445160	1.026762	0.467821
C113	C	-0.893313	0.553477	-0.065086
C114	C	-0.393313	1.053477	0.434914
C115	C	-0.841464	0.526781	-0.097996
C116	C	-0.341464	1.026781	0.402004
C117	C	-0.893319	0.606892	-0.065086
C118	C	-0.393319	1.106892	0.434914
C119	C	-0.945167	0.633588	-0.032176
C120	C	-0.445167	1.133588	0.467824
C121	C	-0.997010	0.606870	0.000734
C122	C	-0.497010	1.106870	0.500734
C123	C	-0.997008	0.553459	0.000731
C124	C	-0.497008	1.053459	0.500731
C125	C	-0.789621	0.553499	-0.130906
C126	C	-0.289621	1.053499	0.369094
C127	C	-0.789628	0.606911	-0.130900
C128	C	-0.289628	1.106911	0.369100
C129	C	-0.841477	0.633607	-0.097990
C130	C	-0.341477	1.133607	0.402010
C131	C	-0.031733	0.000081	-0.061409
C132	C	0.468267	0.500081	0.438591
C133	C	-0.115743	0.000080	-0.062264
C134	C	0.384257	0.500080	0.437736
C135	C	-0.899864	0.000070	0.023279
C136	C	-0.399864	0.500070	0.523279
C137	C	-0.898993	0.000065	0.076936
C138	C	-0.398993	0.500065	0.576936
N139	N	-0.893346	0.879311	-0.065086
N140	N	-0.393346	1.379311	0.434914
C141	C	-0.823885	0.000060	0.454279
C142	C	-0.323885	0.500060	0.954279
C143	C	-0.827091	0.000058	0.252607
C144	C	-0.327091	0.500058	0.752607
O145	O	-0.768812	0.000033	0.221564
O146	O	-0.268812	0.500033	0.721564
N147	N	-0.896508	0.000063	0.233230
N148	N	-0.396508	0.500063	0.733230
C149	C	-0.965128	0.000066	0.264275
C150	C	-0.465128	0.500066	0.764275
O151	O	-1.024245	0.000065	0.243166
O152	O	-0.524245	0.500065	0.743166
C153	C	-0.961922	0.000063	0.465945
C154	C	-0.461922	0.500063	0.965945
C155	C	-0.892500	0.000063	0.485319
C156	C	-0.392500	0.500063	0.985319
C157	C	-0.754469	0.000059	0.473654
C158	C	-0.254469	0.500059	0.973654
C159	C	-0.753668	0.000062	0.524068
C160	C	-0.253668	0.500062	1.024068
C161	C	-0.822284	0.000066	0.555109
C162	C	-0.322284	0.500066	1.055109
C163	C	-0.891699	0.000067	0.535734
C164	C	-0.391699	0.500067	1.035734
C165	C	-1.030541	0.000062	0.496988
C166	C	-0.530541	0.500062	0.996988
C167	C	-1.029733	0.000060	0.547409
C168	C	-0.529733	0.500060	1.047409
C169	C	-0.960312	0.000060	0.566783
C170	C	-0.460312	0.500060	1.066783
C171	C	-0.959514	0.000074	0.617189
C172	C	-0.459514	0.500074	1.117189
N173	N	-0.890097	0.000068	0.636567
N174	N	-0.390097	0.500068	1.136567
C175	C	-0.821482	0.000064	0.605526
C176	C	-0.321482	0.500064	1.105526
C177	C	-0.966807	0.000068	0.158394
C178	C	-0.466807	0.500068	0.658394
C179	C	-0.967609	0.000069	0.107977
C180	C	-0.467609	0.500069	0.607977
C181	C	-0.829571	0.000060	0.096313
C182	C	-0.329571	0.500060	0.596313
C183	C	-0.828770	0.000063	0.146731
C184	C	-0.328770	0.500063	0.646731
C185	C	-0.897390	0.000062	0.177771
C186	C	-0.397390	0.500062	0.677771
C187	C	-0.819805	0.000072	0.711402
C188	C	-0.319805	0.500072	1.211402
C189	C	-0.819011	0.000077	0.761822
C190	C	-0.319011	0.500077	1.261822
C191	C	-0.957048	0.000083	0.773481
C192	C	-0.457048	0.500083	1.273481
C193	C	-0.957843	0.000080	0.723065
C194	C	-0.457843	0.500080	1.223065
C195	C	-0.889216	0.000073	0.692027
C196	C	-0.389216	0.500073	1.192027
O197	O	-1.017761	0.000093	0.648261
O198	O	-0.517761	0.500093	1.148261
O199	O	-0.762373	0.000054	0.626645
O200	O	-0.262373	0.500054	1.126645
C201	C	-0.824686	0.000056	0.403864
C202	C	-0.324686	0.500056	0.903864
C203	C	-0.894101	0.000057	0.384489
C204	C	-0.394101	0.500057	0.884489
C205	C	-0.962717	0.000061	0.415530
C206	C	-0.462717	0.500061	0.915530
C207	C	-0.894903	0.000058	0.334072
C208	C	-0.394903	0.500058	0.834072
C209	C	-0.826288	0.000055	0.303032
C210	C	-0.326288	0.500055	0.803032
C211	C	-0.756871	0.000049	0.322409
C212	C	-0.256871	0.500049	0.822409
C213	C	-0.756071	0.000053	0.372824
C214	C	-0.256071	0.500053	0.872824
C215	C	-1.032134	0.000066	0.396153
C216	C	-0.532134	0.500066	0.896153
C217	C	-1.032929	0.000064	0.345737
C218	C	-0.532929	0.500064	0.845737
C219	C	-0.964314	0.000060	0.314697
C220	C	-0.464314	0.500060	0.814697
C221	C	-0.886762	0.000075	0.846520
C222	C	-0.386762	0.500075	1.346520
C223	C	-0.887626	0.000081	0.792862
C224	C	-0.387626	0.500081	1.292862
H225	H	-0.987364	0.222674	-0.005394
H226	H	-0.487364	0.722674	0.494606
H227	H	-0.680853	0.000061	0.012050
H228	H	-0.180853	0.500061	0.512050
H229	H	-1.087071	0.000062	0.481223
H230	H	-0.587071	0.500062	0.981223
H231	H	-0.503054	0.000061	-0.146308
H232	H	-0.003054	0.500061	0.353692
N233	N	-0.745793	0.000068	0.677924
N234	N	-0.245793	0.500068	1.177924
H235	H	-0.715482	-0.031388	0.684154
H236	H	-0.215482	0.468612	1.184154
H237	H	-0.715540	0.031547	0.684160
H238	H	-0.215540	0.531547	1.184160
N239	N	-1.001119	0.881392	0.003322
N240	N	-0.501119	1.381392	0.503322
H241	H	-0.993249	0.919282	-0.001674
H242	H	-0.493249	1.419282	0.498326
H243	H	-0.992770	0.872053	0.037606
H244	H	-0.492770	1.372053	0.537606
H245	H	-0.537644	0.000073	0.013510
H246	H	-0.037644	0.500073	0.513510
N247	N	-0.733697	0.524716	-0.166409
N248	N	-0.233697	1.024716	0.333591
H249	H	-0.762366	0.502559	-0.187791
H250	H	-0.262366	1.002559	0.312209
H251	H	-0.700406	0.502580	-0.147938
H252	H	-0.200406	1.002580	0.352062
N253	N	-0.682860	0.000042	0.288928
N254	N	-0.182860	0.500042	0.788928
H255	H	-0.652538	0.031497	0.295144
H256	H	-0.152538	0.531497	0.795144
H257	H	-0.693966	0.000021	0.254064
H258	H	-0.193966	0.500021	0.754064
H259	H	-0.140378	0.000078	0.017574
H260	H	0.359622	0.500078	0.517574
N261	N	-1.001066	0.118716	0.003287
N262	N	-0.501066	0.618716	0.503287
H263	H	-1.033909	0.143736	0.024136
H264	H	-0.533909	0.643736	0.524136
H265	H	-0.972342	0.096550	0.024633
H266	H	-0.472342	0.596550	0.524633
N267	N	-0.733671	0.364462	-0.166408
N268	N	-0.233671	0.864462	0.333592
H269	H	-0.741532	0.326570	-0.161419
H270	H	-0.241532	0.826570	0.338581
H271	H	-0.680048	0.373802	-0.160864
H272	H	-0.180048	0.873802	0.339136
H273	H	-1.014372	0.000088	0.707291
H274	H	-0.514372	0.500088	1.207291
N275	N	-0.296531	0.000082	0.027644
N276	N	0.203469	0.500082	0.527644
H277	H	-0.265589	0.000083	0.055922
H278	H	0.234411	0.500083	0.555922
H279	H	-0.329703	-0.031374	0.029237
H280	H	0.170297	0.468626	0.529237
H281	H	-1.039222	0.371476	0.027519
H282	H	-0.539222	0.871476	0.527519
H283	H	-1.085613	0.000057	0.572680
H284	H	-0.585613	0.500057	1.072680
N285	N	-0.678792	0.000066	0.544961
N286	N	-0.178792	0.500066	1.044961
H287	H	-0.635453	0.000063	0.517641
H288	H	-0.135453	0.500063	1.017641
H289	H	-0.675451	-0.031391	0.565631
H290	H	-0.175451	0.468609	1.065631
N291	N	-0.744132	0.000082	0.782718
N292	N	-0.244132	0.500082	1.282718
H293	H	-0.700788	0.000079	0.755400
H294	H	-0.200788	0.500079	1.255400
H295	H	-0.740794	-0.031373	0.803390
H296	H	-0.240794	0.468627	1.303390
N297	N	-0.256899	0.000063	-0.155456
N298	N	0.243101	0.500063	0.344544
H299	H	-0.213878	0.000064	-0.182981
H300	H	0.286122	0.500064	0.317019
H301	H	-0.289235	0.031519	-0.157716
H302	H	0.210765	0.531519	0.342284
H303	H	-0.747378	0.468415	-0.157708
H304	H	-0.247378	0.968415	0.342292
H305	H	-1.039225	0.468367	0.027525
H306	H	-0.539225	0.968367	0.527525
H307	H	-1.022689	0.000068	0.183663
H308	H	-0.522689	0.500068	0.683663
H309	H	-0.698591	0.000054	0.448385
H310	H	-0.198591	0.500054	0.948385
N311	N	-1.031052	0.000092	0.806965
N312	N	-0.531052	0.500092	1.306965
H313	H	-1.020004	0.000092	0.841843
H314	H	-0.520004	0.500092	1.341843
H315	H	-1.061337	-0.031366	0.800708
H316	H	-0.561337	0.468634	1.300708
H317	H	-1.089464	0.000068	0.329968
H318	H	-0.589464	0.500068	0.829968
N319	N	-1.001116	0.770366	0.003318
N320	N	-0.501116	1.270366	0.503318
H321	H	-1.033961	0.795388	0.024163
H322	H	-0.533961	1.295388	0.524163
H323	H	-0.972392	0.748204	0.024667
H324	H	-0.472392	1.248204	0.524667
H325	H	-1.088010	0.000069	0.421421
H326	H	-0.588010	0.500069	0.921421
H327	H	-0.699540	0.000053	0.388593
H328	H	-0.199540	0.500053	0.888593
H329	H	-0.799284	0.874363	-0.124799
H330	H	-0.299284	1.374363	0.375201
N331	N	-0.785525	0.229789	-0.133515
N332	N	-0.285525	0.729789	0.366485
H333	H	-0.814194	0.251957	-0.154891
H334	H	-0.314194	0.751957	0.345109
H335	H	-0.752692	0.204741	-0.154333
H336	H	-0.252692	0.704741	0.345667
H337	H	-0.799263	0.777469	-0.124796
H338	H	-0.299263	1.277469	0.375204
H339	H	-0.772241	0.000065	0.162502
H340	H	-0.272241	0.500065	0.662502
H341	H	-1.024138	0.000077	0.092207
H342	H	-0.524138	0.500077	0.592207
N343	N	-0.654167	0.000047	-0.159518
N344	N	-0.154167	0.500047	0.340482
H345	H	-0.611144	0.000049	-0.187041
H346	H	-0.111144	0.500049	0.312959
H347	H	-0.686503	0.031503	-0.161777
H348	H	-0.186503	0.531503	0.338223
H349	H	-0.799225	0.125812	-0.124824
H350	H	-0.299225	0.625812	0.375176
H351	H	-0.105772	0.000075	-0.142247
H352	H	0.394228	0.500075	0.357753
H353	H	-1.039230	0.531711	0.027528
H354	H	-0.539230	1.031711	0.527528
H355	H	-1.039230	0.628615	0.027529
H356	H	-0.539230	1.128615	0.527529
N357	N	-0.755563	0.000060	0.062829
N358	N	-0.255563	0.500060	0.562829
H359	H	-0.766611	0.000061	0.027951
H360	H	-0.266611	0.500061	0.527951
H361	H	-0.725292	-0.031402	0.069096
H362	H	-0.225292	0.468598	0.569096
N363	N	-0.733697	0.635722	-0.166396
N364	N	-0.233697	1.135722	0.333604
H365	H	-0.700850	0.610700	-0.187241
H366	H	-0.200850	1.110700	0.312759
H367	H	-0.700457	0.657876	-0.147910
H368	H	-0.200457	1.157876	0.352090
