data_functionalizedCrystal
_audit_creation_method	'MofGen! by Chris Wilmer'
_symmetry_space_group_name_H-M	'P1'
_symmetry_Int_Tables_number	1
_symmetry_cell_setting	triclinic
loop_
_symmetry_equiv_pos_as_xyz
  x,y,z
_cell_length_a	23.096457
_cell_length_b	23.096457
_cell_length_c	23.096457
_cell_angle_alpha	60.008701
_cell_angle_beta	90.011518
_cell_angle_gamma	60.000185
loop_
_atom_site_label
_atom_site_type_symbol
_atom_site_fract_x
_atom_site_fract_y
_atom_site_fract_z
Zr1	Zr	0.557763	0.633740	-0.075976
O2	O	0.465295	0.754526	-0.168417
O3	O	0.586107	0.512954	-0.047641
O4	O	0.586081	0.633742	-0.168427
O5	O	0.465344	0.633736	0.047651
O6	O	0.681361	0.633743	-0.168430
O7	O	0.465321	0.633738	-0.047631
O8	O	0.681407	0.417676	0.047634
O9	O	0.465298	0.849804	-0.168413
O10	O	0.669304	0.562636	-0.035555
O11	O	0.598215	0.562634	0.035556
O12	O	0.598184	0.704846	-0.106654
O13	O	0.527095	0.704844	-0.035543
Zr14	Zr	0.709760	0.633740	0.075983
Zr15	Zr	0.709724	0.633742	-0.075981
Zr16	Zr	0.557799	0.633737	0.075988
Zr17	Zr	0.557767	0.785697	-0.075969
Zr18	Zr	0.709756	0.481782	0.075976
O19	O	0.681416	0.754526	0.047648
O20	O	0.681365	0.754529	-0.168425
O21	O	0.465347	0.754522	0.047656
O22	O	0.802227	0.512954	0.168424
O23	O	0.802176	0.512958	-0.047649
O24	O	0.586158	0.512950	0.168432
O25	O	0.802179	0.633743	-0.047644
O26	O	0.681442	0.633738	0.168434
O27	O	0.586161	0.633736	0.168437
O28	O	0.802202	0.633742	0.047638
O29	O	0.586087	0.849806	-0.168418
O30	O	0.681436	0.417674	0.168425
O31	O	0.802225	0.417676	0.168420
O32	O	0.802196	0.417678	0.047629
O33	O	0.465326	0.849802	-0.047622
O34	O	0.586115	0.849804	-0.047627
O35	O	0.669338	0.562634	0.106661
O36	O	0.740428	0.562636	0.035551
O37	O	0.669308	0.704846	-0.035549
O38	O	0.598218	0.704844	0.035562
C39	C	0.633757	0.443664	-0.000004
C40	C	0.633755	0.379154	-0.000007
C41	C	0.670858	0.348855	-0.037129
C42	C	0.670865	0.288232	-0.037123
C43	C	0.633755	0.257924	-0.000005
C44	C	0.596650	0.288228	0.037124
C45	C	0.596650	0.348843	0.037123
N46	N	0.573349	0.195527	-0.005150
N47	N	0.573351	0.137946	-0.005153
C48	C	0.633754	0.075292	0.000001
N49	N	0.694155	0.072401	0.005145
N50	N	0.694152	0.129989	0.005144
C51	C	0.633751	0.192196	0.000000
C52	C	0.670868	-0.020742	-0.037116
C53	C	0.670877	-0.081369	-0.037105
C54	C	0.596655	-0.081367	0.037138
C55	C	0.596653	-0.020747	0.037132
C56	C	0.633758	0.009564	0.000001
C57	C	0.443681	0.633737	0.000011
C58	C	0.379170	0.633736	0.000013
C59	C	0.385988	0.559506	0.037119
C60	C	0.325372	0.559505	0.037122
C61	C	0.257939	0.633737	0.000005
C62	C	0.251123	0.707977	-0.037103
C63	C	0.311739	0.707976	-0.037099
N64	N	0.135130	0.688994	-0.060404
N65	N	0.077551	0.688989	-0.060406
C66	C	0.075306	0.633745	-0.000007
N67	N	0.132823	0.578492	0.060393
N68	N	0.190408	0.578494	0.060394
C69	C	0.192208	0.633747	-0.000003
C70	C	0.016401	0.559509	0.037106
C71	C	-0.044217	0.559511	0.037111
C72	C	-0.118466	0.707985	-0.037121
C73	C	-0.057848	0.707981	-0.037119
C74	C	0.009583	0.633741	-0.000008
C75	C	0.823842	0.633743	-0.000003
C76	C	0.888353	0.633744	-0.000006
C77	C	0.633716	0.633743	-0.190080
C78	C	0.633701	0.633744	-0.254593
C79	C	0.633766	0.823815	0.000012
C80	C	0.633768	0.888325	0.000014
C81	C	0.596581	0.707974	-0.322009
C82	C	0.596599	0.707975	-0.382626
C83	C	0.633727	0.633742	-0.375821
C84	C	0.670856	0.559503	-0.308392
C85	C	0.670843	0.559504	-0.247778
N86	N	0.628604	0.578486	-0.443379
N87	N	0.628613	0.578490	-0.500963
C88	C	0.633771	0.633735	-0.558447
N89	N	0.638907	0.688988	-0.556178
N90	N	0.638894	0.688986	-0.498590
C91	C	0.633746	0.633733	-0.441543
C92	C	0.596668	0.707971	-0.691593
C93	C	0.596692	0.707969	-0.752209
C94	C	0.670944	0.559495	-0.677974
C95	C	0.670926	0.559499	-0.617360
C96	C	0.633784	0.633739	-0.624174
C97	C	0.633806	0.633737	0.190087
C98	C	0.633822	0.633736	0.254600
C99	C	0.823837	0.443668	-0.000011
C100	C	0.888347	0.379159	-0.000017
C101	C	0.633802	0.443661	0.190079
C102	C	0.633815	0.379150	0.254589
C103	C	0.823882	0.443664	0.190072
C104	C	0.888407	0.379154	0.254580
C105	C	0.443641	0.823815	-0.190065
C106	C	0.379115	0.888325	-0.254573
C107	C	0.443686	0.823812	0.000019
C108	C	0.379176	0.888321	0.000024
C109	C	0.633721	0.823819	-0.190072
C110	C	0.633707	0.888329	-0.254582
C111	C	0.881515	0.348865	-0.037141
C112	C	0.942124	0.288260	-0.037160
C113	C	1.009562	0.257947	-0.000050
C114	C	1.016392	0.288247	0.037076
C115	C	0.955785	0.348854	0.037091
C116	C	0.670948	0.348855	0.322006
C117	C	0.670958	0.288249	0.382626
C118	C	0.633839	0.257934	0.375827
C119	C	0.596703	0.288235	0.308403
C120	C	0.596689	0.348845	0.247784
C121	C	0.955823	0.348861	0.247754
C122	C	1.016458	0.288256	0.308360
C123	C	1.009674	0.257941	0.375791
C124	C	0.942250	0.288240	0.382615
C125	C	0.881618	0.348848	0.322010
C126	C	0.311699	0.918626	-0.247747
C127	C	0.251065	0.979250	-0.308353
C128	C	0.257849	1.009568	-0.375784
C129	C	0.325272	0.979265	-0.382608
C130	C	0.385905	0.918646	-0.322003
C131	C	0.386007	0.918621	0.037142
C132	C	0.325399	0.979242	0.037145
C133	C	0.257960	1.009558	0.000032
C134	C	0.251131	0.979255	-0.037091
C135	C	0.311738	0.918639	-0.037097
C136	C	0.670833	0.918625	-0.247760
C137	C	0.670834	0.979232	-0.308368
C138	C	0.633705	1.009546	-0.375797
C139	C	0.596578	0.979245	-0.382618
C140	C	0.596582	0.918635	-0.322010
H141	H	0.566434	0.373513	0.067352
C142	C	0.304225	0.885289	-0.173578
C143	C	0.230060	0.918637	-0.166085
C144	C	0.222579	0.885309	-0.091918
C145	C	0.289262	0.818632	-0.025245
C146	C	0.363432	0.785280	-0.032735
C147	C	0.370913	0.818608	-0.106902
H148	H	0.180693	0.967999	-0.215443
H149	H	0.167673	0.909999	-0.086374
H150	H	0.283724	0.793961	0.029658
H151	H	0.412799	0.735918	0.016622
H152	H	0.425819	0.793918	-0.112447
H153	H	0.701201	0.263585	0.437519
C154	C	0.176906	1.012567	-0.300835
C155	C	0.154642	1.054209	-0.261852
C156	C	0.080485	1.087522	-0.254332
C157	C	0.028593	1.079195	-0.285794
C158	C	0.050857	1.037551	-0.324779
C159	C	0.125013	1.004238	-0.332299
H160	H	0.193056	1.060375	-0.238560
H161	H	0.064005	1.118349	-0.225473
H162	H	-0.026302	1.103855	-0.280227
H163	H	0.012442	1.031385	-0.348072
H164	H	0.141493	0.973411	-0.361159
C165	C	0.332725	1.012616	-0.456786
C166	C	0.371657	0.954288	-0.479089
C167	C	0.379107	0.987637	-0.553269
C168	C	0.347625	1.079313	-0.605145
C169	C	0.308690	1.137646	-0.582843
C170	C	0.301241	1.104298	-0.508663
H171	H	0.394964	0.886419	-0.440687
H172	H	0.407929	0.944454	-0.569779
H173	H	0.353140	1.103999	-0.660058
H174	H	0.285383	1.205515	-0.621246
H175	H	0.272418	1.147481	-0.492153
H176	H	0.306181	0.768425	-0.067314
H177	H	0.306166	0.893970	-0.067322
H178	H	0.566369	0.768424	-0.437527
H179	H	0.440796	0.893976	-0.327568
C180	C	0.555849	0.382157	0.173626
C181	C	0.555828	0.448821	0.106939
C182	C	0.514986	0.482129	0.032782
C183	C	0.474165	0.448772	0.025312
C184	C	0.474184	0.382104	0.092002
C185	C	0.515026	0.348796	0.166158
H186	H	0.586047	0.473517	0.112467
H187	H	0.514972	0.531481	-0.016586
H188	H	0.443931	0.473429	-0.029583
H189	H	0.443965	0.357409	0.086474
H190	H	0.515041	0.299444	0.215526
H191	H	0.208472	1.058928	-0.425126
C192	C	0.963298	0.382203	0.173585
C193	C	1.037462	0.348876	0.166092
C194	C	1.044944	0.382217	0.091926
C195	C	0.978261	0.448884	0.025252
C196	C	0.904091	0.482215	0.032742
C197	C	0.896610	0.448874	0.106909
H198	H	1.086830	0.299521	0.215450
H199	H	1.099850	0.357543	0.086381
H200	H	0.983799	0.473565	-0.029651
H201	H	0.854724	0.531570	-0.016615
H202	H	0.841704	0.473548	0.112454
H203	H	1.071351	0.263592	0.302791
H204	H	0.701176	0.499053	-0.672432
H205	H	0.071307	0.499058	0.067339
C206	C	0.460185	0.885287	0.077965
C207	C	0.467684	0.918636	0.118784
C208	C	0.541860	0.885311	0.159606
C209	C	0.608536	0.818637	0.159608
C210	C	0.601039	0.785285	0.118787
C211	C	0.526863	0.818610	0.077966
H212	H	0.418324	0.967995	0.118784
H213	H	0.547409	0.910001	0.189824
H214	H	0.663445	0.793968	0.189826
H215	H	0.650398	0.735926	0.118788
H216	H	0.521314	0.793920	0.047748
H217	H	0.330974	1.003905	0.067377
H218	H	0.566466	0.768418	-0.807105
C219	C	0.555734	0.885321	-0.329521
C220	C	0.555726	0.818654	-0.262865
C221	C	0.514877	0.785342	-0.270382
C222	C	0.474035	0.818697	-0.344555
C223	C	0.474041	0.885368	-0.411217
C224	C	0.514891	0.918679	-0.403700
H225	H	0.585961	0.793959	-0.207953
H226	H	0.514873	0.735988	-0.221034
H227	H	0.443796	0.794038	-0.350120
H228	H	0.443806	0.910062	-0.466129
H229	H	0.514895	0.968033	-0.453047
C230	C	0.176944	1.012601	-0.077904
C231	C	0.125047	1.104277	-0.138103
C232	C	0.050858	1.137619	-0.178909
C233	C	0.028566	1.079285	-0.159516
C234	C	0.080464	0.987604	-0.099313
C235	C	0.154653	0.954261	-0.058508
H236	H	0.141548	1.147464	-0.152462
H237	H	0.012439	1.205488	-0.223475
H238	H	-0.026354	1.103967	-0.189723
H239	H	0.063963	0.944416	-0.084954
H240	H	0.193071	0.886392	-0.013942
H241	H	0.701174	0.373530	0.327556
C242	C	1.090579	0.254886	0.077904
C243	C	1.142455	0.263207	0.038109
C244	C	1.216644	0.229837	0.078942
C245	C	1.238957	0.188147	0.159570
C246	C	1.187080	0.179825	0.199370
C247	C	1.112891	0.213194	0.158537
H248	H	1.125938	0.294070	-0.021581
H249	H	1.255046	0.235998	0.049479
H250	H	1.293876	0.163445	0.189798
H251	H	1.203597	0.148962	0.259060
H252	H	1.074489	0.207033	0.188000
H253	H	0.701073	0.373531	-0.067361
C254	C	0.332870	0.477844	0.077936
C255	C	0.301422	0.457411	0.138149
C256	C	0.308924	0.375750	0.178961
C257	C	0.347874	0.314522	0.159561
C258	C	0.379325	0.334954	0.099345
C259	C	0.371823	0.416615	0.058533
H260	H	0.272587	0.502737	0.152514
H261	H	0.285642	0.360626	0.223537
H262	H	0.353428	0.254072	0.189772
H263	H	0.408161	0.289628	0.084980
H264	H	0.395105	0.431739	0.013957
C265	C	0.807461	0.382159	0.329525
C266	C	0.740758	0.448823	0.262871
C267	C	0.666602	0.482131	0.270392
C268	C	0.659149	0.448774	0.344567
C269	C	0.725854	0.382106	0.411227
C270	C	0.800010	0.348799	0.403705
H271	H	0.746273	0.473519	0.207957
H272	H	0.617222	0.531483	0.221046
H273	H	0.604254	0.473430	0.350135
H274	H	0.720339	0.357410	0.466140
H275	H	0.849389	0.299447	0.453051
H276	H	0.701068	0.893952	-0.192861
C277	C	0.176948	0.789634	-0.077935
C278	C	0.154650	0.850877	-0.158559
C279	C	0.080474	0.932536	-0.199391
C280	C	0.028596	0.952952	-0.159599
C281	C	0.050892	0.891707	-0.078971
C282	C	0.125068	0.810048	-0.038139
H283	H	0.193055	0.835765	-0.188019
H284	H	0.063969	0.977874	-0.259077
H285	H	-0.026314	1.013401	-0.189825
H286	H	0.012488	0.906819	-0.049511
H287	H	0.141573	0.764711	0.021547
C288	C	0.711669	1.012561	-0.300855
C289	C	0.752495	0.979223	-0.226682
C290	C	0.793329	1.012552	-0.219167
C291	C	0.793335	1.079218	-0.285825
C292	C	0.752507	1.112560	-0.360002
C293	C	0.711674	1.079231	-0.367518
H294	H	0.752492	0.929870	-0.177334
H295	H	0.823552	0.987870	-0.164256
H296	H	0.823562	1.103890	-0.280261
H297	H	0.752510	1.161914	-0.409351
H298	H	0.681450	1.103913	-0.422429
C299	C	0.711750	0.477842	-0.543197
C300	C	0.792384	0.416596	-0.520889
C301	C	0.833212	0.334935	-0.446724
C302	C	0.793406	0.314520	-0.394868
C303	C	0.712768	0.375769	-0.417175
C304	C	0.671940	0.457430	-0.491340
H305	H	0.821855	0.431706	-0.559277
H306	H	0.892906	0.289595	-0.430211
H307	H	0.823629	0.254070	-0.339967
H308	H	0.683297	0.360658	-0.378787
H309	H	0.612246	0.502769	-0.507853
C310	C	-0.065347	0.789637	-0.077948
C311	C	-0.033893	0.810052	-0.138158
C312	C	-0.041395	0.891713	-0.178988
C313	C	-0.080351	0.952959	-0.159607
C314	C	-0.111807	0.932546	-0.099394
C315	C	-0.104306	0.850886	-0.058564
H316	H	-0.005053	0.764712	-0.152508
H317	H	-0.018109	0.906823	-0.223562
H318	H	-0.085904	1.013410	-0.189832
H319	H	-0.140647	0.977886	-0.085044
H320	H	-0.127592	0.835775	-0.013990
H321	H	0.633707	1.058899	-0.425142
C322	C	0.711683	0.012606	-0.077954
C323	C	0.692281	0.054270	-0.158579
C324	C	0.733093	0.087619	-0.199418
C325	C	0.793308	0.079304	-0.159633
C326	C	0.812713	0.037638	-0.079004
C327	C	0.771901	0.004289	-0.038164
H328	H	0.647704	0.060427	-0.188034
H329	H	0.718728	0.118463	-0.259105
H330	H	0.823520	0.103991	-0.189865
H331	H	0.857290	0.031481	-0.049548
H332	H	0.786266	-0.026556	0.021523
H333	H	-0.038659	0.499061	0.067332
H334	H	1.059051	0.208589	0.425134
H335	H	0.936738	0.263548	0.437525
H336	H	-0.173371	0.768427	-0.067343
H337	H	0.566340	0.768426	-0.327564
C338	C	0.555733	1.012603	-0.456794
C339	C	0.595519	1.004282	-0.508678
C340	C	0.554670	1.037648	-0.582856
C341	C	0.474036	1.079335	-0.605151
C342	C	0.434247	1.087658	-0.553266
C343	C	0.475095	1.054292	-0.479088
H344	H	0.655212	0.973421	-0.492175
H345	H	0.584125	1.031486	-0.621265
H346	H	0.443798	1.104034	-0.660063
H347	H	0.374553	1.118519	-0.569769
H348	H	0.445640	1.060454	-0.440679
H349	H	0.208616	1.058915	0.000042
H350	H	0.701080	0.263558	-0.067353
C351	C	0.807338	0.382203	-0.077969
C352	C	0.740662	0.448868	-0.077963
C353	C	0.666486	0.482205	-0.118796
C354	C	0.658987	0.448876	-0.159634
C355	C	0.725665	0.382207	-0.159641
C356	C	0.799841	0.348870	-0.118809
H357	H	0.746211	0.473544	-0.047731
H358	H	0.617126	0.531558	-0.118790
H359	H	0.604078	0.473553	-0.189861
H360	H	0.720116	0.357531	-0.189874
H361	H	0.849200	0.299517	-0.118814
C362	C	0.555827	0.254891	0.077954
C363	C	0.575231	0.213219	0.158580
C364	C	0.534410	0.179880	0.199414
C365	C	0.474186	0.188214	0.159622
C366	C	0.454780	0.229888	0.078992
C367	C	0.495600	0.263227	0.038158
H368	H	0.619815	0.207048	0.188040
H369	H	0.548776	0.149030	0.259102
H370	H	0.443968	0.163534	0.189850
H371	H	0.410196	0.236058	0.049531
H372	H	0.481234	0.294077	-0.021531
H373	H	0.701096	-0.106043	-0.067331
H374	H	0.566440	-0.106044	0.067360
H375	H	0.440889	0.499053	0.067334
C376	C	0.555834	0.012588	0.077964
C377	C	0.595645	0.004252	0.138177
C378	C	0.554827	0.037582	0.179015
C379	C	0.474198	0.079247	0.159642
C380	C	0.434381	0.087585	0.099426
C381	C	0.475199	0.054255	0.058587
H382	H	0.655336	-0.026592	0.152521
H383	H	0.584302	0.031410	0.223591
H384	H	0.443982	0.103920	0.189873
H385	H	0.374691	0.118429	0.085082
H386	H	0.445725	0.060427	0.014012
H387	H	0.701071	0.499055	-0.192882
C388	C	0.711694	0.477846	-0.300905
C389	C	0.771914	0.457430	-0.332353
C390	C	0.812756	0.375771	-0.324865
C391	C	0.793378	0.314527	-0.285928
C392	C	0.733155	0.334942	-0.254478
C393	C	0.692313	0.416601	-0.261966
H394	H	0.786262	0.502767	-0.361179
H395	H	0.857337	0.360659	-0.348147
H396	H	0.823611	0.254078	-0.280385
H397	H	0.718807	0.289604	-0.225652
H398	H	0.647732	0.431713	-0.238684
H399	H	0.936549	0.263597	-0.067393
C400	C	0.555823	0.789631	-0.699080
C401	C	0.595608	0.810044	-0.667590
C402	C	0.554763	0.891703	-0.675078
C403	C	0.474133	0.952949	-0.714057
C404	C	0.434344	0.932537	-0.745550
C405	C	0.475189	0.850878	-0.738061
H406	H	0.655299	0.764704	-0.638733
H407	H	0.584218	0.906812	-0.651765
H408	H	0.443897	1.013398	-0.719600
H409	H	0.374653	0.977877	-0.774406
H410	H	0.445733	0.835769	-0.761375
H411	H	0.961357	0.373512	0.067326
H412	H	1.058907	0.208596	-0.000067
H413	H	0.566482	0.263544	0.302877
H414	H	0.633856	0.208582	0.425192
