data_functionalizedCrystal
_audit_creation_method	'MofGen! by Chris Wilmer'
_symmetry_space_group_name_H-M	'P1'
_symmetry_Int_Tables_number	1
_symmetry_cell_setting	triclinic
loop_
_symmetry_equiv_pos_as_xyz
  x,y,z
_cell_length_a	17.699083
_cell_length_b	14.971486
_cell_length_c	13.448316
_cell_angle_alpha	89.998909
_cell_angle_beta	90.006047
_cell_angle_gamma	96.551595
loop_
_atom_site_label
_atom_site_type_symbol
_atom_site_fract_x
_atom_site_fract_y
_atom_site_fract_z
O1	O	-1.004357	0.113109	-0.082663
O2	O	-0.671024	0.446442	0.250670
O3	O	-0.337690	0.779776	0.584004
O4	O	-0.784015	0.127826	-0.082667
O5	O	-0.450681	0.461159	0.250666
O6	O	-0.117348	0.794493	0.584000
O7	O	-0.900091	-0.009753	-0.082672
O8	O	-0.566758	0.323580	0.250661
O9	O	-0.233425	0.656914	0.583994
O10	O	-0.888280	0.250688	-0.082658
O11	O	-0.554947	0.584021	0.250676
O12	O	-0.221613	0.917355	0.584009
O13	O	-0.900077	-0.009761	0.082712
O14	O	-0.566744	0.323572	0.416045
O15	O	-0.233410	0.656905	0.749378
O16	O	-0.784000	0.127818	0.082717
O17	O	-0.450667	0.461151	0.416050
O18	O	-0.117333	0.794484	0.749383
O19	O	-1.004342	0.113101	0.082721
O20	O	-0.671009	0.446434	0.416054
O21	O	-0.337676	0.779767	0.749388
Cu22	Cu	-0.894170	0.120458	0.097820
Cu23	Cu	-0.560836	0.453792	0.431153
Cu24	Cu	-0.227503	0.787125	0.764486
Cu25	Cu	-0.894187	0.120468	-0.097766
Cu26	Cu	-0.560854	0.453802	0.235568
Cu27	Cu	-0.227520	0.787135	0.568901
O28	O	-0.888265	0.250680	0.082726
O29	O	-0.554932	0.584013	0.416059
O30	O	-0.221599	0.917346	0.749393
C31	C	-0.755809	0.127295	0.000024
C32	C	-0.422476	0.460628	0.333357
C33	C	-0.089142	0.793961	0.666691
C34	C	-0.671787	0.125713	0.000022
C35	C	-0.338454	0.459046	0.333355
C36	C	-0.005120	0.792380	0.666689
C37	C	-0.899556	-0.043080	0.000016
C38	C	-0.566223	0.290253	0.333349
C39	C	-0.232889	0.623587	0.666682
C40	C	-0.897973	-0.142372	0.000004
C41	C	-0.564640	0.190962	0.333337
C42	C	-0.231306	0.524295	0.666670
C43	C	-0.632310	0.124963	0.090174
C44	C	-0.298977	0.458296	0.423507
C45	C	0.034357	0.791630	0.756840
C46	C	-0.553364	0.123463	0.090174
C47	C	-0.220031	0.456796	0.423508
C48	C	0.113303	0.790129	0.756841
C49	C	-0.513896	0.122719	0.000022
C50	C	-0.180562	0.456052	0.333356
C51	C	0.152771	0.789385	0.666689
C52	C	-0.553379	0.123466	-0.090136
C53	C	-0.220045	0.456799	0.243197
C54	C	0.113288	0.790132	0.576530
C55	C	-0.632324	0.124960	-0.090136
C56	C	-0.298991	0.458293	0.243197
C57	C	0.034343	0.791626	0.576531
C58	C	-0.235001	0.117440	-0.090140
C59	C	0.098332	0.450773	0.243194
C60	C	0.431665	0.784106	0.576527
C61	C	-0.156050	0.115948	-0.090133
C62	C	0.177283	0.449282	0.243200
C63	C	0.510617	0.782615	0.576534
C64	C	-0.156041	0.115942	0.090170
C65	C	0.177292	0.449276	0.423504
C66	C	0.510625	0.782609	0.756837
C67	C	-0.234987	0.117436	0.090171
C68	C	0.098347	0.450770	0.423504
C69	C	0.431680	0.784103	0.756838
C70	C	-0.274463	0.118179	0.000013
C71	C	0.058870	0.451512	0.333346
C72	C	0.392204	0.784845	0.666680
C73	C	-0.360065	0.119804	0.000013
C74	C	-0.026732	0.453137	0.333347
C75	C	0.306601	0.786471	0.666680
C76	C	-0.428294	0.121100	0.000021
C77	C	-0.094961	0.454433	0.333354
C78	C	0.238373	0.787766	0.666688
C79	C	-0.032548	0.113627	0.000027
C80	C	0.300785	0.446960	0.333360
C81	C	0.634118	0.780293	0.666693
C82	C	-0.116572	0.115192	0.000020
C83	C	0.216761	0.448525	0.333353
C84	C	0.550094	0.781859	0.666686
C85	C	-0.888801	0.284007	0.000036
C86	C	-0.555468	0.617340	0.333369
C87	C	-0.222134	0.950673	0.666703
C88	C	-0.890384	0.383298	0.000041
C89	C	-0.557051	0.716632	0.333375
C90	C	-0.223717	1.049965	0.666708
N91	N	-0.894163	0.120451	0.235384
N92	N	-0.560830	0.453784	0.568717
N93	N	-0.227496	0.787117	0.902051
C94	C	-0.822192	0.440758	0.000039
C95	C	-0.488858	0.774092	0.333372
C96	C	-0.155525	1.107425	0.666706
C97	C	-0.823684	0.534053	0.000026
C98	C	-0.490350	0.867386	0.333359
C99	C	-0.157017	1.200719	0.666692
C100	C	-0.893368	0.569885	0.000022
C101	C	-0.560035	0.903218	0.333355
C102	C	-0.226702	1.236552	0.666688
C103	C	-0.961566	0.512418	0.000021
C104	C	-0.628232	0.845751	0.333354
C105	C	-0.294899	1.179084	0.666688
C106	C	-0.960073	0.419125	0.000027
C107	C	-0.626740	0.752459	0.333361
C108	C	-0.293406	1.085792	0.666694
C109	C	-0.964672	0.706870	0.000010
C110	C	-0.631339	1.040203	0.333344
C111	C	-0.298005	1.373536	0.666677
C112	C	-0.966165	0.800168	0.000006
C113	C	-0.632832	1.133502	0.333339
C114	C	-0.299498	1.466835	0.666673
C115	C	-0.828283	0.821797	0.000009
C116	C	-0.494949	1.155130	0.333342
C117	C	-0.161616	1.488463	0.666676
C118	C	-0.826790	0.728504	0.000015
C119	C	-0.493457	1.061838	0.333348
C120	C	-0.160123	1.395171	0.666682
C121	C	-0.894988	0.671043	0.000016
C122	C	-0.561654	1.004377	0.333350
C123	C	-0.228321	1.337710	0.666683
N124	N	-0.894200	0.120469	-0.235330
N125	N	-0.560866	0.453802	0.098003
N126	N	-0.227533	0.787135	0.431337
C127	C	-0.945578	0.059556	0.287422
C128	C	-0.612245	0.392889	0.620755
C129	C	-0.278911	0.726222	0.954089
C130	C	-0.945583	0.059555	0.391525
C131	C	-0.612249	0.392888	0.724859
C132	C	-0.278916	0.726222	1.058192
C133	C	-0.894176	0.120454	0.443589
C134	C	-0.560842	0.453788	0.776922
C135	C	-0.227509	0.787121	1.110255
C136	C	-0.842755	0.181352	0.391543
C137	C	-0.509422	0.514685	0.724877
C138	C	-0.176089	0.848019	1.058210
C139	C	-0.842748	0.181348	0.287442
C140	C	-0.509414	0.514681	0.620775
C141	C	-0.176081	0.848015	0.954109
C142	C	-0.842776	0.181358	0.608523
C143	C	-0.509443	0.514691	0.941857
C144	C	-0.176110	0.848025	1.275190
C145	C	-0.842785	0.181364	0.712632
C146	C	-0.509452	0.514697	1.045965
C147	C	-0.176118	0.848030	1.379298
C148	C	-0.945611	0.059565	0.712607
C149	C	-0.612278	0.392899	1.045940
C150	C	-0.278945	0.726232	1.379273
C151	C	-0.945604	0.059561	0.608505
C152	C	-0.612270	0.392894	0.941839
C153	C	-0.278937	0.726228	1.275172
C154	C	-0.894184	0.120460	0.556467
C155	C	-0.560851	0.453794	0.889801
C156	C	-0.227517	0.787127	1.223134
H157	H	-0.664438	0.125576	0.163586
H158	H	-0.331105	0.458910	0.496919
H159	H	0.002228	0.792243	0.830253
H160	H	-0.987467	0.009977	0.566116
H161	H	-0.654133	0.343310	0.899449
H162	H	-0.320800	0.676643	1.232782
H163	H	-0.987479	0.009979	0.754982
H164	H	-0.654145	0.343312	1.088316
H165	H	-0.320812	0.676646	1.421649
Cl166	Cl	-1.010212	-0.017004	0.221982
Cl167	Cl	-0.676878	0.316329	0.555315
Cl168	Cl	-0.343545	0.649663	0.888649
Cl169	Cl	-1.010219	-0.017001	0.456946
Cl170	Cl	-0.676885	0.316333	0.790280
Cl171	Cl	-0.343552	0.649666	1.123613
Cl172	Cl	-0.778154	0.257924	0.778075
Cl173	Cl	-0.444821	0.591258	1.111408
Cl174	Cl	-0.111487	0.924591	1.444742
Cl175	Cl	-0.734583	0.395722	0.000052
Cl176	Cl	-0.401250	0.729055	0.333385
Cl177	Cl	-0.067916	1.062388	0.666718
H178	H	-0.800880	0.230934	0.245073
H179	H	-0.467546	0.564267	0.578407
H180	H	-0.134213	0.897600	0.911740
H181	H	-0.267134	0.118041	-0.163552
H182	H	0.066200	0.451375	0.169782
H183	H	0.399533	0.784708	0.503115
Cl184	Cl	-1.050408	0.634634	0.000006
Cl185	Cl	-0.717074	0.967968	0.333340
Cl186	Cl	-0.383741	1.301301	0.666673
Cl187	Cl	-0.778131	0.257917	0.543108
Cl188	Cl	-0.444797	0.591251	0.876441
Cl189	Cl	-0.111464	0.924584	1.209775
Cl190	Cl	-0.778124	0.257909	0.456992
Cl191	Cl	-0.444791	0.591242	0.790325
Cl192	Cl	-0.111458	0.924575	1.123659
H193	H	-0.664465	0.125572	-0.163547
H194	H	-0.331132	0.458905	0.169787
H195	H	0.002202	0.792239	0.503120
Cl196	Cl	-0.739185	0.683459	0.000027
Cl197	Cl	-0.405852	1.016792	0.333360
Cl198	Cl	-0.072518	1.350126	0.666694
Cl199	Cl	-0.503737	0.122536	0.203513
Cl200	Cl	-0.170404	0.455870	0.536846
Cl201	Cl	0.162930	0.789203	0.870180
H202	H	-1.022908	0.829340	0.000001
H203	H	-0.689575	1.162673	0.333334
H204	H	-0.356242	1.496007	0.666668
Cl205	Cl	-0.503765	0.122497	-0.203471
Cl206	Cl	-0.170431	0.455831	0.129862
Cl207	Cl	0.162902	0.789164	0.463196
H208	H	-0.267117	0.118047	0.163582
H209	H	0.066216	0.451380	0.496915
H210	H	0.399550	0.784713	0.830249
Cl211	Cl	-0.106434	0.115011	-0.203476
Cl212	Cl	0.226899	0.448344	0.129857
Cl213	Cl	0.560233	0.781678	0.463191
Cl214	Cl	-0.106409	0.115004	0.203514
Cl215	Cl	0.226924	0.448338	0.536847
Cl216	Cl	0.560257	0.781671	0.870181
Cl217	Cl	-1.049170	0.557465	0.000008
Cl218	Cl	-0.715837	0.890798	0.333342
Cl219	Cl	-0.382503	1.224131	0.666675
H220	H	-0.772754	0.868586	0.000012
H221	H	-0.439420	1.201920	0.333345
H222	H	-0.106087	1.535253	0.666678
H223	H	-0.768155	0.580833	0.000021
H224	H	-0.434821	0.914167	0.333354
H225	H	-0.101488	1.247500	0.666688
H226	H	-1.015602	0.372341	0.000025
H227	H	-0.682269	0.705675	0.333358
H228	H	-0.348935	1.039008	0.666692
