data_functionalizedCrystal
_audit_creation_method	'MofGen! by Chris Wilmer'
_symmetry_space_group_name_H-M	'P1'
_symmetry_Int_Tables_number	1
_symmetry_cell_setting	triclinic
loop_
_symmetry_equiv_pos_as_xyz
  x,y,z
_cell_length_a	12.759395
_cell_length_b	16.120484
_cell_length_c	16.120297
_cell_angle_alpha	95.614431
_cell_angle_beta	92.880569
_cell_angle_gamma	92.926975
loop_
_atom_site_label
_atom_site_type_symbol
_atom_site_fract_x
_atom_site_fract_y
_atom_site_fract_z
Zn1	Zn	1.552089	-0.356712	-0.489403
Zn2	Zn	2.052089	0.143288	0.010597
Zn3	Zn	1.551956	-0.489402	-0.356713
Zn4	Zn	2.051956	0.010598	0.143287
Zn5	Zn	1.385778	-0.349652	-0.349654
Zn6	Zn	1.885778	0.150348	0.150346
Zn7	Zn	1.366967	-0.496447	-0.496442
Zn8	Zn	1.866967	0.003553	0.003558
O9	O	1.464198	-0.423054	-0.423053
O10	O	1.964198	0.076946	0.076947
O11	O	1.699091	-0.374320	-0.471809
O12	O	2.199091	0.125680	0.028191
O13	O	1.537729	-0.464961	-0.238815
O14	O	2.037729	0.035039	0.261185
O15	O	1.415767	-0.233623	-0.362292
O16	O	1.915767	0.266377	0.137708
O17	O	1.698994	-0.471807	-0.374323
O18	O	2.198994	0.028193	0.125677
O19	O	1.537955	-0.238810	-0.464965
O20	O	2.037955	0.261190	0.035035
O21	O	1.415639	-0.362287	-0.233628
O22	O	1.915639	0.137713	0.266372
O23	O	1.236263	-0.369119	-0.369118
O24	O	1.736263	0.130881	0.130882
O25	O	1.383707	-0.483815	-0.612470
O26	O	1.883707	0.016185	-0.112470
O27	O	1.222442	-0.476969	-0.476962
O28	O	1.722442	0.023031	0.023038
O29	O	1.519715	-0.381152	-0.607298
O30	O	2.019715	0.118848	-0.107298
O31	O	1.519489	-0.607302	-0.381148
O32	O	2.019489	-0.107302	0.118852
O33	O	1.383578	-0.612478	-0.483806
O34	O	1.883578	-0.112478	0.016194
C35	C	1.191232	-0.423043	-0.423038
C36	C	1.691232	0.076957	0.076962
C37	C	1.074453	-0.423059	-0.423052
C38	C	1.574453	0.076941	0.076948
C39	C	1.060100	-0.535527	-0.535186
C40	C	1.560100	-0.035527	-0.035186
C41	C	0.998063	-0.591768	-0.591256
C42	C	1.498063	-0.091768	-0.091256
C43	C	0.888340	-0.591779	-0.591267
C44	C	1.388340	-0.091779	-0.091267
C45	C	0.840653	-0.535541	-0.535204
C46	C	1.340653	-0.035541	-0.035204
C47	C	0.902690	-0.479300	-0.479134
C48	C	1.402690	0.020700	0.020866
C49	C	1.012415	-0.479297	-0.479128
C50	C	1.512415	0.020703	0.020872
C51	C	0.917043	-0.366829	-0.367005
C52	C	1.417043	0.133171	0.132995
C53	C	1.026766	-0.366821	-0.366989
C54	C	1.526766	0.133179	0.133011
C55	C	0.869356	-0.310591	-0.310942
C56	C	1.369356	0.189409	0.189058
C57	C	0.931394	-0.254353	-0.254867
C58	C	1.431394	0.245647	0.245133
C59	C	1.041123	-0.254346	-0.254858
C60	C	1.541123	0.245654	0.245142
C61	C	1.088804	-0.310581	-0.310919
C62	C	1.588804	0.189419	0.189081
C63	C	1.449506	-0.640219	-0.434026
C64	C	1.949506	-0.140219	0.065974
C65	C	1.443314	-0.733125	-0.438748
C66	C	1.943314	-0.233125	0.061252
C67	C	1.432016	-0.903225	-0.447386
C68	C	1.932016	-0.403225	0.052614
C69	C	1.496566	-0.942042	-0.398733
C70	C	1.996566	-0.442042	0.101267
C71	C	1.490280	-1.036692	-0.403540
C72	C	1.990280	-0.536692	0.096460
C73	C	1.438301	-0.808567	-0.442581
C74	C	1.938301	-0.308567	0.057419
C75	C	1.738229	-0.423065	-0.423068
C76	C	2.238229	0.076935	0.076932
C77	C	1.855005	-0.423070	-0.423075
C78	C	2.355005	0.076930	0.076925
C79	C	1.449627	-0.434057	-0.641059
C80	C	1.949627	0.065943	-0.141059
C81	C	1.443418	-0.438746	-0.733961
C82	C	1.943418	0.061254	-0.233961
C83	C	1.478974	-0.205041	-0.412056
C84	C	1.978974	0.294959	0.087944
C85	C	1.485271	-0.112137	-0.407369
C86	C	1.985271	0.387863	0.092631
C87	C	1.432045	-0.447288	-0.904051
C88	C	1.932045	0.052712	-0.404051
C89	C	1.496574	-0.398569	-0.942894
C90	C	1.996574	0.101431	-0.442894
C91	C	1.490246	-0.403322	-1.037538
C92	C	1.990246	0.096678	-0.537538
C93	C	1.438372	-0.442536	-0.809398
C94	C	1.938372	0.057464	-0.309398
C95	C	1.478776	-0.412033	-0.205892
C96	C	1.978776	0.087967	0.294108
C97	C	1.485204	-0.407109	-0.112979
C98	C	1.985204	0.092891	0.387021
H99	H	1.036902	-0.637554	-0.636903
H100	H	1.536902	-0.137554	-0.136903
Br101	Br	1.596598	-0.323120	-0.879854
Br102	Br	2.096598	0.176880	-0.379854
H103	H	1.556550	-0.904190	-0.353470
H104	H	2.056550	-0.404190	0.146530
H105	H	1.372053	-0.492563	-0.941874
H106	H	1.872053	0.007437	-0.441874
Br107	Br	1.209011	-0.535531	-0.535162
Br108	Br	1.709011	-0.035531	-0.035162
Br109	Br	0.804141	-0.668098	-0.667368
Br110	Br	1.304141	-0.168098	-0.167368
H111	H	1.372036	-0.941074	-0.492644
H112	H	1.872036	-0.441074	0.007356
H113	H	0.892557	-0.208565	-0.209228
H114	H	1.392557	0.291435	0.290772
H115	H	0.780013	-0.310601	-0.310958
H116	H	1.280013	0.189399	0.189042
Br117	Br	1.125308	-0.178008	-0.178765
Br118	Br	1.625308	0.321992	0.321235
Br119	Br	1.237713	-0.310580	-0.310906
Br120	Br	1.737713	0.189420	0.189094
Br121	Br	0.691742	-0.535542	-0.535233
Br122	Br	1.191742	-0.035542	-0.035233
