data_functionalizedCrystal
_audit_creation_method	'MofGen! by Chris Wilmer'
_symmetry_space_group_name_H-M	'P1'
_symmetry_Int_Tables_number	1
_symmetry_cell_setting	triclinic
loop_
_symmetry_equiv_pos_as_xyz
  x,y,z
_cell_length_a	13.032831
_cell_length_b	15.297327
_cell_length_c	13.032268
_cell_angle_alpha	105.380838
_cell_angle_beta	90.886977
_cell_angle_gamma	93.742008
loop_
_atom_site_label
_atom_site_type_symbol
_atom_site_fract_x
_atom_site_fract_y
_atom_site_fract_z
Zn1	Zn	1.363663	-0.605893	-0.885100
Zn2	Zn	1.863663	-0.105893	-0.385100
Zn3	Zn	1.355662	-0.739564	-0.736122
Zn4	Zn	1.855662	-0.239564	-0.236122
Zn5	Zn	1.221861	-0.568414	-0.684891
Zn6	Zn	1.721861	-0.068414	-0.184891
Zn7	Zn	1.162990	-0.734713	-0.885413
Zn8	Zn	1.662990	-0.234713	-0.385413
O9	O	1.276044	-0.662146	-0.797881
O10	O	1.776044	-0.162146	-0.297881
O11	O	1.502581	-0.641340	-0.886647
O12	O	2.002581	-0.141340	-0.386647
O13	O	1.359203	-0.703205	-0.583060
O14	O	1.859203	-0.203205	-0.083060
O15	O	1.268657	-0.447848	-0.689878
O16	O	1.768657	0.052152	-0.189878
O17	O	1.496703	-0.739547	-0.777194
O18	O	1.996703	-0.239547	-0.277194
O19	O	1.372838	-0.475384	-0.836970
O20	O	1.872838	0.024616	-0.336970
O21	O	1.260899	-0.577463	-0.545420
O22	O	1.760899	-0.077463	-0.045420
O23	O	1.074072	-0.572759	-0.690181
O24	O	1.574072	-0.072759	-0.190181
O25	O	1.168320	-0.731280	-1.031638
O26	O	1.668320	-0.231280	-0.531638
O27	O	1.030820	-0.694938	-0.837504
O28	O	1.530820	-0.194938	-0.337504
O29	O	1.315754	-0.636636	-1.031408
O30	O	1.815754	-0.136636	-0.531408
O31	O	1.302118	-0.864458	-0.777497
O32	O	1.802118	-0.364458	-0.277497
O33	O	1.160562	-0.860894	-0.887180
O34	O	1.660562	-0.360894	-0.387180
C35	C	1.016151	-0.629256	-0.758318
C36	C	1.516151	-0.129256	-0.258318
C37	C	0.904960	-0.615209	-0.741421
C38	C	1.404960	-0.115209	-0.241421
C39	C	0.834008	-0.669477	-0.806700
C40	C	1.334008	-0.169477	-0.306700
C41	C	0.719086	-0.654961	-0.789238
C42	C	1.219086	-0.154961	-0.289238
C43	C	1.224108	-0.895233	-0.837959
C44	C	1.724108	-0.395233	-0.337959
C45	C	1.201976	-0.994963	-0.855153
C46	C	1.701976	-0.494963	-0.355153
C47	C	1.434586	-1.283427	-0.675411
C48	C	1.934586	-0.783427	-0.175411
C49	C	1.455381	-1.189725	-0.659251
C50	C	1.955381	-0.689725	-0.159251
C51	C	1.392032	-1.141030	-0.708225
C52	C	1.892032	-0.641030	-0.208225
C53	C	1.307884	-1.186046	-0.773362
C54	C	1.807884	-0.686046	-0.273362
C55	C	1.287082	-1.279756	-0.789517
C56	C	1.787082	-0.779756	-0.289517
C57	C	1.244528	-1.137359	-0.822332
C58	C	1.744528	-0.637359	-0.322332
C59	C	1.160380	-1.182375	-0.887469
C60	C	1.660380	-0.682375	-0.387469
C61	C	1.139583	-1.276076	-0.903621
C62	C	1.639583	-0.776076	-0.403621
C63	C	1.202932	-1.324771	-0.854647
C64	C	1.702932	-0.824771	-0.354647
C65	C	1.265329	-1.043649	-0.806176
C66	C	1.765329	-0.543649	-0.306176
C67	C	1.117825	-1.039978	-0.920283
C68	C	1.617825	-0.539978	-0.420283
C69	C	1.097031	-1.133680	-0.936443
C70	C	1.597031	-0.633680	-0.436443
C71	C	1.536951	-0.695165	-0.837600
C72	C	2.036951	-0.195165	-0.337600
C73	C	1.648135	-0.709236	-0.854526
C74	C	2.148135	-0.209236	-0.354526
C75	C	1.236363	-0.687598	-1.070508
C76	C	1.736363	-0.187598	-0.570508
C77	C	1.219453	-0.698444	-1.186686
C78	C	1.719453	-0.198444	-0.686686
C79	C	1.328207	-0.428155	-0.757674
C80	C	1.828207	0.071845	-0.257674
C81	C	1.350436	-0.328442	-0.740540
C82	C	1.850436	0.171558	-0.240540
C83	C	1.284861	-0.656451	-1.238367
C84	C	1.784861	-0.156451	-0.738367
C85	C	1.267385	-0.667660	-1.358443
C86	C	1.767385	-0.167660	-0.858443
C87	C	1.315643	-0.636736	-0.526313
C88	C	1.815643	-0.136736	-0.026313
C89	C	1.332803	-0.625662	-0.410122
C90	C	1.832803	-0.125662	0.089878
H91	H	0.672465	-0.766443	-0.923352
H92	H	1.172465	-0.266443	-0.423352
C93	C	1.377991	-0.596668	-1.178053
C94	C	1.877991	-0.096668	-0.678053
N95	N	1.448139	-0.551638	-1.132626
N96	N	1.948139	-0.051638	-0.632626
C97	C	0.872087	-0.537922	-0.648453
C98	C	1.372087	-0.037922	-0.148453
N99	N	0.847330	-0.479707	-0.578426
N100	N	1.347330	0.020293	-0.078426
C101	C	1.174245	-0.727440	-1.418751
C102	C	1.674245	-0.227440	-0.918751
N103	N	1.104094	-0.772465	-1.464177
N104	N	1.604094	-0.272465	-0.964177
H105	H	1.028516	-1.170345	-0.989478
H106	H	1.528516	-0.670345	-0.489478
C107	C	1.425941	-0.565879	-1.349815
C108	C	1.925941	-0.065879	-0.849815
N109	N	1.496094	-0.520853	-1.304392
N110	N	1.996094	-0.020853	-0.804392
H111	H	1.066239	-1.000330	-0.960160
H112	H	1.566239	-0.500330	-0.460160
H113	H	1.150512	-0.742686	-1.231332
H114	H	1.650512	-0.242686	-0.731332
C115	C	0.686219	-0.577669	-0.696264
C116	C	1.186219	-0.077669	-0.196264
N117	N	0.661461	-0.519455	-0.626238
N118	N	1.161461	-0.019455	-0.126238
C119	C	1.414924	-1.037959	-0.690468
C120	C	1.914924	-0.537959	-0.190468
N121	N	1.432178	-0.960324	-0.677100
N122	N	1.932178	-0.460324	-0.177100
C123	C	0.866881	-0.746766	-0.899667
C124	C	1.366881	-0.246766	-0.399667
N125	N	0.891638	-0.804984	-0.969691
N126	N	1.391638	-0.304984	-0.469691
H127	H	1.333843	-1.007005	-0.753141
H128	H	1.833843	-0.507005	-0.253141
H129	H	1.523892	-1.153076	-0.606215
H130	H	2.023892	-0.653076	-0.106215
C131	C	1.504251	-1.336995	-0.621534
C132	C	2.004251	-0.836995	-0.121534
N133	N	1.556724	-1.377343	-0.580947
N134	N	2.056724	-0.877343	-0.080947
C135	C	1.047010	-1.325589	-0.975263
C136	C	1.547010	-0.825589	-0.475263
N137	N	0.977284	-1.362880	-1.029225
N138	N	1.477284	-0.862880	-0.529225
C139	C	1.180059	-1.427849	-0.872415
C140	C	1.680059	-0.927849	-0.372415
N141	N	1.162831	-1.505488	-0.885794
N142	N	1.662831	-1.005488	-0.385794
