data_functionalizedCrystal
_audit_creation_method	'MofGen! by Chris Wilmer'
_symmetry_space_group_name_H-M	'P1'
_symmetry_Int_Tables_number	1
_symmetry_cell_setting	triclinic
loop_
_symmetry_equiv_pos_as_xyz
  x,y,z
_cell_length_a	13.596369
_cell_length_b	16.109301
_cell_length_c	16.109301
_cell_angle_alpha	83.461481
_cell_angle_beta	90.007411
_cell_angle_gamma	90.002607
loop_
_atom_site_label
_atom_site_type_symbol
_atom_site_fract_x
_atom_site_fract_y
_atom_site_fract_z
O1	O	-0.081732	-1.103133	-0.106869
O2	O	0.251601	-0.769799	0.226465
O3	O	0.584934	-0.436466	0.559798
O4	O	-0.081748	-0.861071	-0.120168
O5	O	0.251585	-0.527737	0.213165
O6	O	0.584918	-0.194404	0.546499
O7	O	-0.081730	-0.988751	0.007513
O8	O	0.251603	-0.655418	0.340846
O9	O	0.584937	-0.322085	0.674179
O10	O	-0.081751	-0.975452	-0.234549
O11	O	0.251583	-0.642119	0.098784
O12	O	0.584916	-0.308785	0.432118
O13	O	0.081853	-0.988739	0.007520
O14	O	0.415186	-0.655405	0.340853
O15	O	0.748520	-0.322072	0.674186
O16	O	0.081835	-0.861058	-0.120161
O17	O	0.415168	-0.527725	0.213172
O18	O	0.748501	-0.194391	0.546506
O19	O	0.081851	-1.103120	-0.106862
O20	O	0.415184	-0.769787	0.226472
O21	O	0.748517	-0.436453	0.559805
Zn22	Zn	0.107815	-0.982087	-0.113510
Zn23	Zn	0.441148	-0.648754	0.219823
Zn24	Zn	0.774482	-0.315420	0.553156
Zn25	Zn	-0.107713	-0.982104	-0.113519
Zn26	Zn	0.225621	-0.648770	0.219814
Zn27	Zn	0.558954	-0.315437	0.553147
O28	O	0.081832	-0.975439	-0.234542
O29	O	0.415165	-0.642106	0.098791
O30	O	0.748499	-0.308773	0.432124
C31	C	0.000041	-0.830090	-0.119626
C32	C	0.333374	-0.496756	0.213708
C33	C	0.666708	-0.163423	0.547041
C34	C	0.000035	-0.737794	-0.118011
C35	C	0.333369	-0.404461	0.215323
C36	C	0.666702	-0.071128	0.548656
N37	N	0.254907	-0.982082	-0.113504
N38	N	0.588240	-0.648748	0.219830
N39	N	0.921573	-0.315415	0.553163
N40	N	-0.254805	-0.982116	-0.113519
N41	N	0.078529	-0.648782	0.219814
N42	N	0.411862	-0.315449	0.553147
C43	C	0.656198	-0.982103	-0.113520
C44	C	0.989531	-0.648769	0.219813
C45	C	1.322864	-0.315436	0.553147
C46	C	0.544546	-0.982094	-0.113518
C47	C	0.877880	-0.648761	0.219815
C48	C	1.211213	-0.315428	0.553148
C49	C	0.455556	-0.982093	-0.113513
C50	C	0.788889	-0.648759	0.219821
C51	C	1.122222	-0.315426	0.553154
C52	C	0.343897	-0.982083	-0.113510
C53	C	0.677231	-0.648750	0.219824
C54	C	1.010564	-0.315417	0.553157
C55	C	0.000062	-0.988206	0.038491
C56	C	0.333395	-0.654873	0.371824
C57	C	0.666729	-0.321540	0.705158
C58	C	0.000063	-0.986591	0.130786
C59	C	0.333397	-0.653258	0.464120
C60	C	0.666730	-0.319925	0.797453
C61	C	0.000059	-1.134101	-0.107404
C62	C	0.333392	-0.800768	0.225929
C63	C	0.666726	-0.467435	0.559263
C64	C	0.000058	-1.226397	-0.109019
C65	C	0.333392	-0.893063	0.224314
C66	C	0.666725	-0.559730	0.557648
C67	C	0.000041	-0.515522	-0.190018
C68	C	0.333374	-0.182188	0.143315
C69	C	0.666707	0.151145	0.476648
C70	C	0.000047	-0.428801	-0.188494
C71	C	0.333380	-0.095468	0.144839
C72	C	0.666714	0.237865	0.478172
C73	C	0.000056	-0.448676	-0.037006
C74	C	0.333389	-0.115342	0.296328
C75	C	0.666723	0.217991	0.629661
C76	C	0.000057	-0.535394	-0.038530
C77	C	0.333390	-0.202061	0.294803
C78	C	0.666723	0.131272	0.628136
C79	C	0.000044	-0.568815	-0.115039
C80	C	0.333377	-0.235482	0.218294
C81	C	0.666711	0.097852	0.551627
C82	C	0.000050	-0.395376	-0.111990
C83	C	0.333383	-0.062042	0.221343
C84	C	0.666716	0.271291	0.554676
C85	C	0.000057	-0.301350	-0.110337
C86	C	0.333390	0.031984	0.222996
C87	C	0.666723	0.365317	0.556329
C88	C	0.000039	-0.662847	-0.116693
C89	C	0.333372	-0.329514	0.216641
C90	C	0.666705	0.003820	0.549974
C91	C	0.000038	-0.975984	-0.265521
C92	C	0.333371	-0.642651	0.067813
C93	C	0.666705	-0.309318	0.401146
C94	C	0.000030	-0.977600	-0.357816
C95	C	0.333364	-0.644266	-0.024483
C96	C	0.666697	-0.310933	0.308851
C97	C	0.000052	-1.058599	0.353059
C98	C	0.333386	-0.725266	0.686392
C99	C	0.666719	-0.391932	1.019725
C100	C	0.000044	-1.057075	0.439779
C101	C	0.333378	-0.723742	0.773112
C102	C	0.666711	-0.390408	1.106446
C103	C	0.000038	-0.905586	0.419905
C104	C	0.333371	-0.572253	0.753238
C105	C	0.666705	-0.238919	1.086571
C106	C	0.000039	-0.907111	0.333186
C107	C	0.333373	-0.573778	0.666519
C108	C	0.666706	-0.240444	0.999853
C109	C	0.000051	-0.983620	0.299766
C110	C	0.333385	-0.650287	0.633099
C111	C	0.666718	-0.316953	0.966432
C112	C	0.000042	-0.980571	0.473205
C113	C	0.333375	-0.647238	0.806538
C114	C	0.666709	-0.313904	1.139871
C115	C	0.000033	-0.978918	0.567231
C116	C	0.333367	-0.645585	0.900564
C117	C	0.666700	-0.312251	1.233897
C118	C	0.000058	-0.985273	0.205734
C119	C	0.333392	-0.651940	0.539067
C120	C	0.666725	-0.318607	0.872400
H121	H	0.000046	-0.385413	-0.249550
H122	H	0.333380	-0.052080	0.083783
H123	H	0.666713	0.281254	0.417117
H124	H	0.000062	-0.578788	0.022530
H125	H	0.333395	-0.245455	0.355864
H126	H	0.666729	0.087878	0.689197
C127	C	0.000057	-0.411910	0.047147
C128	C	0.333391	-0.078576	0.380480
C129	C	0.666724	0.254757	0.713814
H130	H	0.000046	-0.352630	0.037318
H131	H	0.333379	-0.019297	0.370651
H132	H	0.666712	0.314036	0.703985
H133	H	0.057102	-0.430201	0.078026
H134	H	0.390435	-0.096867	0.411360
H135	H	0.723769	0.236466	0.744693
H136	H	-0.056995	-0.430209	0.078010
H137	H	0.276338	-0.096875	0.411344
H138	H	0.609672	0.236458	0.744677
H139	H	0.000030	-0.843295	0.447127
H140	H	0.333363	-0.509962	0.780460
H141	H	0.666697	-0.176628	1.113793
H142	H	0.000060	-1.120897	0.325851
H143	H	0.333394	-0.787564	0.659184
H144	H	0.666727	-0.454231	0.992518
C145	C	0.000052	-1.139552	0.498398
C146	C	0.333385	-0.806218	0.831732
C147	C	0.666718	-0.472885	1.165065
H148	H	0.000066	-1.185333	0.466071
H149	H	0.333400	-0.851999	0.799404
H150	H	0.666733	-0.518666	1.132738
H151	H	-0.056994	-1.142114	0.532634
H152	H	0.276340	-0.808780	0.865967
H153	H	0.609673	-0.475447	1.199301
H154	H	0.057103	-1.142100	0.532646
H155	H	0.390437	-0.808766	0.865979
H156	H	0.723770	-0.475433	1.199312
C157	C	0.000041	-0.824630	0.274560
C158	C	0.333374	-0.491297	0.607893
C159	C	0.666708	-0.157963	0.941226
H160	H	0.000048	-0.778846	0.306882
H161	H	0.333381	-0.445513	0.640216
H162	H	0.666715	-0.112179	0.973549
H163	H	-0.057003	-0.822080	0.240311
H164	H	0.276330	-0.488747	0.573644
H165	H	0.609664	-0.155413	0.906977
H166	H	0.057094	-0.822077	0.240326
H167	H	0.390427	-0.488743	0.573659
H168	H	0.723761	-0.155410	0.906992
C169	C	0.000034	-0.552286	-0.274172
C170	C	0.333368	-0.218953	0.059162
C171	C	0.666701	0.114380	0.392495
H172	H	0.000026	-0.611566	-0.264344
H173	H	0.333359	-0.278233	0.068989
H174	H	0.666692	0.055101	0.402323
H175	H	0.057078	-0.533990	-0.305040
H176	H	0.390411	-0.200657	0.028294
H177	H	0.723744	0.132677	0.361627
H178	H	-0.057019	-0.533992	-0.305045
H179	H	0.276314	-0.200659	0.028288
H180	H	0.609647	0.132675	0.361621
