data_functionalizedCrystal
_audit_creation_method	'MofGen! by Chris Wilmer'
_symmetry_space_group_name_H-M	'P1'
_symmetry_Int_Tables_number	1
_symmetry_cell_setting	triclinic
loop_
_symmetry_equiv_pos_as_xyz
  x,y,z
_cell_length_a	23.532357
_cell_length_b	15.995300
_cell_length_c	22.010155
_cell_angle_alpha	89.982707
_cell_angle_beta	89.989917
_cell_angle_gamma	83.150049
loop_
_atom_site_label
_atom_site_type_symbol
_atom_site_fract_x
_atom_site_fract_y
_atom_site_fract_z
O1	O	0.073272	1.110397	-0.050555
O2	O	0.082367	0.866538	-0.050552
O3	O	-0.005087	0.995843	-0.050541
O4	O	0.160725	0.981092	-0.050566
O5	O	-0.005087	0.995804	0.050509
O6	O	0.082367	0.866499	0.050498
O7	O	0.073271	1.110358	0.050495
Cu8	Cu	0.077819	0.988425	0.059723
Cu9	Cu	0.077819	0.988471	-0.059780
O10	O	0.160725	0.981053	0.050484
C11	C	-0.026305	0.995454	-0.000014
C12	C	-0.089528	0.994345	-0.000008
C13	C	0.081996	0.835326	-0.000026
C14	C	0.080884	0.742383	-0.000025
C15	C	-0.481565	0.987402	-0.055124
C16	C	-0.540968	0.986348	-0.055127
O17	O	-0.571687	0.985792	-0.101973
N18	N	-0.570682	0.985804	-0.000045
C19	C	-0.540988	0.986306	0.055044
O20	O	-0.571716	0.985745	0.101895
C21	C	-0.481585	0.987354	0.055046
C22	C	-0.451875	0.987907	-0.000039
C23	C	-0.451855	0.987954	-0.110205
C24	C	-0.392456	0.989010	-0.110201
C25	C	-0.362767	0.989514	-0.055116
C26	C	-0.392476	0.988963	-0.000035
C27	C	-0.451891	0.987850	0.110135
C28	C	-0.392484	0.988898	0.110133
C29	C	-0.362775	0.989450	0.055047
C30	C	-0.303388	0.990523	0.055053
N31	N	-0.273674	0.991067	-0.000029
C32	C	-0.303364	0.990563	-0.055113
C33	C	-0.665737	0.984102	0.055033
C34	C	-0.725140	0.983060	0.055031
C35	C	-0.725116	0.983100	-0.055140
C36	C	-0.665713	0.984149	-0.055137
C37	C	-0.636024	0.984646	-0.000048
C38	C	-0.178621	0.992781	-0.055102
C39	C	-0.119217	0.993841	-0.055093
C40	C	-0.119246	0.993796	0.055078
C41	C	-0.178645	0.992741	0.055069
C42	C	-0.208331	0.992230	-0.000025
O43	O	-0.272631	0.991076	0.101875
O44	O	-0.272628	0.991112	-0.101957
C45	C	0.078830	0.572218	-0.000029
C46	C	0.141099	0.524217	-0.000037
C47	C	0.139963	0.427539	-0.000268
C48	C	0.076808	0.404678	-0.000033
C49	C	0.045915	0.446098	-0.057619
C50	C	0.047490	0.542718	-0.057666
C51	C	0.046568	0.542961	0.057251
C52	C	0.046574	0.446016	0.058007
C53	C	0.075663	0.309993	-0.000037
C54	C	0.079974	0.666903	-0.000029
C55	C	0.181943	0.981442	-0.000044
C56	C	0.245166	0.982551	-0.000054
C57	C	0.073642	1.141570	-0.000032
C58	C	0.074755	1.234513	-0.000037
N59	N	0.077819	0.988399	0.143776
N60	N	0.077815	0.988504	-0.143833
C61	C	0.112369	1.038957	0.563549
C62	C	0.112367	1.038967	0.627157
O63	O	0.141739	1.081924	0.660043
N64	N	0.077813	0.988487	0.658983
C65	C	0.043253	0.938000	0.627198
O66	O	0.013861	0.895065	0.660110
C67	C	0.043252	0.937996	0.563592
C68	C	0.077813	0.988473	0.531769
C69	C	0.146926	1.089431	0.531727
C70	C	0.146928	1.089420	0.468123
C71	C	0.112373	1.038935	0.436343
C72	C	0.077815	0.988461	0.468166
C73	C	0.008689	0.887514	0.531808
C74	C	0.008691	0.887514	0.468197
C75	C	0.043252	0.937991	0.436375
C76	C	0.043261	0.937965	0.372782
N77	N	0.077816	0.988445	0.340956
C78	C	0.112371	1.038930	0.372737
C79	C	0.043257	0.938015	0.760776
C80	C	0.043261	0.938015	0.824381
C81	C	0.112375	1.038983	0.824336
C82	C	0.112374	1.038979	0.760729
C83	C	0.077812	0.988496	0.728950
C84	C	0.112373	1.038902	0.239165
C85	C	0.112374	1.038884	0.175556
C86	C	0.043259	0.937919	0.175608
C87	C	0.043260	0.937934	0.239211
C88	C	0.077819	0.988432	0.270988
O89	O	0.013903	0.895033	0.339855
O90	O	0.141753	1.081867	0.339818
H91	H	-0.202785	0.992362	-0.099965
O92	O	0.174251	0.548413	0.054649
H93	H	0.152040	0.532050	0.096732
H94	H	-0.095062	0.994210	0.099926
O95	O	-0.014417	0.426220	0.062851
H96	H	-0.034478	0.456324	0.104277
O97	O	-0.028615	0.833100	0.433925
H98	H	-0.022825	0.841588	0.384348
H99	H	0.140521	1.079988	0.149649
O100	O	0.173749	0.549925	-0.054670
H101	H	0.212095	0.578238	-0.039269
H102	H	0.164238	0.398852	0.041003
H103	H	0.140514	1.080023	0.265031
H104	H	0.015115	0.896898	0.734905
O105	O	0.005974	0.883471	0.141342
H106	H	-0.039534	0.902105	0.153573
O107	O	-0.633674	0.984731	-0.114552
H108	H	-0.611697	1.042288	-0.117195
H109	H	0.015125	0.896821	0.265122
H110	H	-0.095031	0.994292	-0.099952
O111	O	0.171998	0.390425	-0.055274
H112	H	0.142699	0.357943	-0.084040
O113	O	-0.483869	0.987410	-0.169625
H114	H	-0.530168	0.986583	-0.160385
H115	H	-0.749300	0.982687	-0.099993
O116	O	-0.210687	0.992162	0.114486
H117	H	-0.242835	1.048762	0.117121
O118	O	0.005981	0.883565	0.858690
H119	H	0.033262	0.838318	0.887675
O120	O	0.184202	1.143866	0.433803
H121	H	0.208224	1.178974	0.466596
O122	O	-0.757182	0.982471	0.114444
H123	H	-0.726551	0.982994	0.152745
H124	H	0.069756	0.560863	-0.100883
O125	O	-0.013073	0.585999	-0.060920
H126	H	-0.043356	0.537890	-0.062458
O127	O	-0.633718	0.984661	0.114454
H128	H	-0.664364	0.984118	0.152750
O129	O	0.073982	0.408315	-0.114614
H130	H	0.090526	0.458611	-0.141829
O131	O	0.184203	1.143882	0.566000
H132	H	0.208232	1.178968	0.533175
O133	O	0.073723	0.569847	0.115090
H134	H	0.110521	0.604367	0.103653
O135	O	0.149646	1.093425	0.726407
H136	H	0.173671	1.128531	0.759198
O137	O	-0.028616	0.833097	0.566108
H138	H	-0.016266	0.766064	0.553911
O139	O	-0.360413	0.989583	-0.169614
H140	H	-0.391045	0.989042	-0.207913
H141	H	-0.476071	0.987401	0.154991
H142	H	0.140513	1.080090	0.850223
H143	H	-0.000490	0.432398	-0.059592
O144	O	-0.360462	0.989445	0.169551
H145	H	-0.391105	0.988893	0.207850
H146	H	0.069134	0.418467	0.100610
O147	O	-0.014242	0.585589	0.058008
H148	H	-0.021480	0.627415	0.017808
