data_functionalizedCrystal
_audit_creation_method	'MofGen! by Chris Wilmer'
_symmetry_space_group_name_H-M	'P1'
_symmetry_Int_Tables_number	1
_symmetry_cell_setting	triclinic
loop_
_symmetry_equiv_pos_as_xyz
  x,y,z
_cell_length_a	23.532355
_cell_length_b	14.519709
_cell_length_c	12.996460
_cell_angle_alpha	90.007090
_cell_angle_beta	90.000230
_cell_angle_gamma	96.746178
loop_
_atom_site_label
_atom_site_type_symbol
_atom_site_fract_x
_atom_site_fract_y
_atom_site_fract_z
O1	O	0.755784	-0.111723	-0.085429
O2	O	0.589989	-0.127971	-0.085462
O3	O	0.677282	0.014445	-0.085436
O4	O	0.668491	-0.254139	-0.085456
O5	O	0.677273	0.014452	0.085698
O6	O	0.589980	-0.127963	0.085672
O7	O	0.755774	-0.111715	0.085705
Cu8	Cu	0.672876	-0.119839	0.101314
Cu9	Cu	0.672887	-0.119848	-0.101072
O10	O	0.668482	-0.254131	0.085678
C11	C	0.568766	-0.127561	0.000101
C12	C	0.505542	-0.126340	0.000088
C13	C	0.113489	-0.118663	0.093417
C14	C	0.054084	-0.117502	0.093421
O15	O	0.023358	-0.116866	0.172755
N16	N	0.024378	-0.116930	0.000136
C17	C	0.054080	-0.117510	-0.093158
O18	O	0.023358	-0.116917	-0.172504
C19	C	0.113484	-0.118666	-0.093161
C20	C	0.143187	-0.119247	0.000129
C21	C	0.143191	-0.119244	0.186700
C22	C	0.202592	-0.120407	0.186696
C23	C	0.232290	-0.120990	0.093408
C24	C	0.202587	-0.120410	0.000125
C25	C	0.143186	-0.119239	-0.186455
C26	C	0.202595	-0.120394	-0.186450
C27	C	0.232297	-0.120975	-0.093159
C28	C	0.291686	-0.122157	-0.093167
N29	N	0.321392	-0.122729	0.000117
C30	C	0.291694	-0.122145	0.093405
C31	C	-0.070672	-0.115083	-0.093145
C32	C	-0.130076	-0.113935	-0.093143
C33	C	-0.130068	-0.113924	0.093437
C34	C	-0.070664	-0.115079	0.093434
C35	C	-0.040966	-0.115655	0.000140
C36	C	0.416439	-0.124589	0.093389
C37	C	0.475844	-0.125757	0.093376
C38	C	0.475831	-0.125762	-0.093203
C39	C	0.416431	-0.124600	-0.093191
C40	C	0.386736	-0.124010	0.000113
O41	O	0.322449	-0.122790	-0.172461
O42	O	0.322424	-0.122727	0.172737
C43	C	0.676868	0.048803	0.000131
C44	C	0.675640	0.151170	0.000132
C45	C	0.776997	-0.112125	0.000140
C46	C	0.840222	-0.113346	0.000145
C47	C	0.668896	-0.288490	0.000109
C48	C	0.670124	-0.390856	0.000102
N49	N	0.672873	-0.119832	0.243661
C50	C	0.671120	0.526011	0.000104
C51	C	0.672375	0.421718	0.000112
C52	C	0.673380	0.338594	0.000119
C53	C	0.674635	0.234294	0.000125
N54	N	0.672895	-0.119847	-0.243419
C55	C	0.672886	-0.119849	0.663475
C56	C	0.672881	-0.119847	0.546670
C57	C	0.672880	-0.119841	0.453572
C58	C	0.672874	-0.119838	0.336759
H59	H	0.119018	-0.118767	0.262670
H60	H	0.392245	-0.124142	-0.169156
F61	F	0.111588	-0.118619	-0.285750
F62	F	0.507452	-0.126378	0.192673
F63	F	0.384844	-0.123960	0.192694
H64	H	0.226771	-0.120863	-0.262423
H65	H	-0.154258	-0.113448	0.169397
F66	F	0.507449	-0.126380	-0.192482
H67	H	-0.046484	-0.115553	0.169399
F68	F	-0.161682	-0.113333	-0.192436
F69	F	0.234196	-0.121021	0.285989
H70	H	-0.046497	-0.115560	-0.169121
