data_functionalizedCrystal
_audit_creation_method	'MofGen! by Chris Wilmer'
_symmetry_space_group_name_H-M	'P1'
_symmetry_Int_Tables_number	1
_symmetry_cell_setting	triclinic
loop_
_symmetry_equiv_pos_as_xyz
  x,y,z
_cell_length_a	17.699083
_cell_length_b	10.489741
_cell_length_c	16.776229
_cell_angle_alpha	89.993659
_cell_angle_beta	89.998886
_cell_angle_gamma	83.911094
loop_
_atom_site_label
_atom_site_type_symbol
_atom_site_fract_x
_atom_site_fract_y
_atom_site_fract_z
O1	O	1.005134	0.161296	-0.066176
O2	O	0.784893	0.182281	-0.066202
O3	O	0.900025	-0.013903	-0.066184
O4	O	0.890002	0.357479	-0.066194
O5	O	0.900009	-0.013915	0.066393
O6	O	0.784877	0.182269	0.066375
O7	O	1.005118	0.161284	0.066401
Zn8	Zn	0.894995	0.171774	0.087437
Zn9	Zn	0.895016	0.171790	-0.087238
O10	O	0.889986	0.357467	0.066382
C11	C	0.756683	0.181523	0.000083
C12	C	0.672650	0.179267	0.000073
C13	C	0.624782	0.294422	0.000070
C14	C	0.545825	0.292295	0.000080
C15	C	0.514737	0.175011	0.000088
C16	C	0.562611	0.059847	0.000094
C17	C	0.641567	0.061975	0.000089
C18	C	0.244192	0.051260	0.000114
C19	C	0.165230	0.049140	0.000116
C20	C	0.148450	0.281580	0.000105
C21	C	0.227406	0.283709	0.000100
C22	C	0.275273	0.168545	0.000110
C23	C	0.360887	0.170853	0.000100
C24	C	0.429124	0.172702	0.000092
C25	C	0.899260	-0.061427	0.000104
C26	C	0.896995	-0.203014	0.000102
C27	C	0.823740	-0.269793	0.000088
C28	C	0.858337	-0.362564	0.065459
C29	C	0.858370	-0.362527	-0.065251
C30	C	0.931623	-0.293920	0.065528
C31	C	0.931645	-0.293874	-0.065241
C32	C	0.966296	-0.386619	0.000146
C33	C	1.033328	0.162042	0.000114
C34	C	1.117361	0.164297	0.000119
C35	C	0.890751	0.404991	0.000093
C36	C	0.893016	0.546578	0.000089
N37	N	0.894987	0.171763	0.206648
N38	N	0.895030	0.171791	-0.206450
C39	C	0.945983	0.084928	0.248373
C40	C	0.945987	0.084927	0.331826
C41	C	0.894998	0.171767	0.373551
C42	C	0.843996	0.258606	0.331820
C43	C	0.843989	0.258600	0.248369
C44	C	0.844024	0.258631	0.668367
C45	C	0.844037	0.258633	0.751824
C46	C	0.946022	0.084958	0.751823
C47	C	0.946015	0.084952	0.668373
C48	C	0.895011	0.171786	0.626649
C49	C	0.895006	0.171784	0.536161
C50	C	0.895006	0.171776	0.464038
H51	H	0.283156	-0.042514	0.000122
N52	N	0.789010	0.352288	0.623381
H53	H	0.798218	0.442796	0.637895
H54	H	0.796757	0.339006	0.564197
H55	H	0.537293	-0.035648	0.000111
N56	N	0.788982	0.352250	0.203361
H57	H	0.756682	0.407265	0.242456
H58	H	0.818255	0.408576	0.168725
H59	H	0.680540	-0.031796	0.000091
N60	N	0.743961	-0.202540	0.000155
H61	H	0.716384	-0.227327	0.049577
H62	H	0.746116	-0.106717	-0.000380
N63	N	0.817282	-0.402879	0.138664
H64	H	0.763435	-0.359941	0.138613
H65	H	0.816541	-0.499017	0.138349
N66	N	0.494164	0.416464	0.000089
H67	H	0.461045	0.420707	0.049245
H68	H	0.525859	0.491054	0.000055
N69	N	0.972673	-0.253486	-0.138440
H70	H	1.018709	-0.210786	-0.121781
H71	H	0.989291	-0.331439	-0.171937
H72	H	0.802476	0.329309	0.365798
H73	H	0.827371	-0.392910	-0.120523
H74	H	0.139922	-0.046372	0.000123
N75	N	1.000984	-0.008729	0.203372
H76	H	1.033289	-0.063739	0.242471
H77	H	0.971703	-0.065059	0.168756
H78	H	0.962585	-0.263669	0.120856
N79	N	0.260937	0.410206	0.000081
H80	H	0.218631	0.482837	0.000080
H81	H	0.293334	0.416152	0.049225
N82	N	1.046146	-0.453578	0.000195
H83	H	1.073701	-0.428656	0.049594
H84	H	1.044120	-0.549432	-0.000305
N85	N	0.658302	0.420930	0.000062
H86	H	0.690690	0.426992	0.049206
H87	H	0.690645	0.426927	-0.049119
N88	N	1.001007	-0.008707	0.623363
H89	H	1.054803	0.005864	0.637875
H90	H	0.991734	-0.099173	0.637912
N91	N	1.001016	-0.008686	0.376830
H92	H	1.033329	-0.063679	0.337734
H93	H	1.034727	0.040130	0.411430
N94	N	1.001035	-0.008704	0.796825
H95	H	0.993304	0.004469	0.856022
H96	H	0.991805	-0.099172	0.782246
N97	N	0.789033	0.352288	0.796833
H98	H	0.798227	0.442801	0.782301
H99	H	0.735264	0.337583	0.782303
H100	H	0.109467	0.375352	0.000101
