data_functionalizedCrystal
_audit_creation_method	'MofGen! by Chris Wilmer'
_symmetry_space_group_name_H-M	'P1'
_symmetry_Int_Tables_number	1
_symmetry_cell_setting	triclinic
loop_
_symmetry_equiv_pos_as_xyz
  x,y,z
_cell_length_a	17.077404
_cell_length_b	12.759394
_cell_length_c	17.077396
_cell_angle_alpha	89.973684
_cell_angle_beta	89.980499
_cell_angle_gamma	90.015062
loop_
_atom_site_label
_atom_site_type_symbol
_atom_site_fract_x
_atom_site_fract_y
_atom_site_fract_z
Zn1	Zn	1.200099	-0.418260	-0.443855
Zn2	Zn	1.200024	-0.593961	-0.312593
Zn3	Zn	1.068830	-0.418297	-0.312602
Zn4	Zn	1.068817	-0.593898	-0.443817
O5	O	1.134442	-0.506104	-0.378217
O6	O	1.309936	-0.441578	-0.426454
O7	O	1.182595	-0.570700	-0.202748
O8	O	1.086280	-0.271271	-0.330033
O9	O	1.309881	-0.570664	-0.330017
O10	O	1.182722	-0.271244	-0.426463
O11	O	1.086208	-0.441641	-0.202754
O12	O	0.958982	-0.441580	-0.329996
O13	O	1.086257	-0.570558	-0.553669
O14	O	0.958972	-0.570594	-0.426399
O15	O	1.182709	-0.441517	-0.553697
O16	O	1.182582	-0.740974	-0.329981
O17	O	1.086185	-0.740928	-0.426391
C18	C	0.930495	-0.506085	-0.378195
C19	C	0.843245	-0.506102	-0.378205
C20	C	0.802270	-0.573381	-0.428321
C21	C	0.720290	-0.573383	-0.428334
C22	C	0.679285	-0.506111	-0.378225
C23	C	0.720266	-0.438825	-0.328107
C24	C	0.802245	-0.438818	-0.328099
C25	C	0.549396	-0.438846	-0.328125
C26	C	0.467411	-0.438854	-0.328132
C27	C	0.467441	-0.573411	-0.428360
C28	C	0.549419	-0.573404	-0.428352
C29	C	0.590394	-0.506119	-0.378233
C30	C	1.134395	-0.779072	-0.378198
C31	C	1.134447	-0.895848	-0.378216
C32	C	1.234901	-0.895843	-0.277900
C33	C	1.285148	-0.950701	-0.227751
C34	C	1.285194	-1.060422	-0.227773
C35	C	1.234989	-1.115288	-0.277950
C36	C	1.184742	-1.060430	-0.328099
C37	C	1.184700	-0.950706	-0.328070
C38	C	1.084293	-1.060436	-0.428417
C39	C	1.084242	-0.950714	-0.428393
C40	C	1.034088	-1.115302	-0.478594
C41	C	0.983835	-1.060444	-0.528740
C42	C	0.983791	-0.950716	-0.528716
C43	C	1.033994	-0.895856	-0.478542
C44	C	1.339187	-0.506124	-0.378239
C45	C	1.426436	-0.506132	-0.378249
C46	C	1.134490	-0.506027	-0.582961
C47	C	1.134510	-0.505994	-0.670211
C48	C	1.134511	-0.232071	-0.378253
C49	C	1.134540	-0.115294	-0.378269
C50	C	1.184735	-0.438797	-0.711217
C51	C	1.184744	-0.438762	-0.793197
C52	C	1.134532	-0.505930	-0.834171
C53	C	1.084302	-0.573130	-0.793159
C54	C	1.084290	-0.573159	-0.711180
C55	C	1.084334	-0.573067	-0.964029
C56	C	1.084348	-0.573039	-1.046014
C57	C	1.184788	-0.438670	-1.046047
C58	C	1.184776	-0.438699	-0.964068
C59	C	1.134546	-0.505900	-0.923062
C60	C	1.134440	-0.506105	-0.174269
C61	C	1.134572	-0.505842	-0.087020
H62	H	0.434028	-0.384062	-0.287339
C63	C	1.234848	-0.775146	-0.277865
N64	N	1.234809	-0.684236	-0.277837
H65	H	0.835650	-0.628165	-0.469123
H66	H	1.043420	-0.627773	-0.930645
C67	C	1.240009	-0.364808	-0.918999
N68	N	1.281609	-0.309148	-0.885053
H69	H	0.942966	-1.105125	-0.569594
C70	C	0.675221	-0.647415	-0.483451
N71	N	0.641276	-0.703186	-0.524962
H72	H	0.942876	-0.906056	-0.569557
C73	C	0.422367	-0.647420	-0.483497
N74	N	0.388413	-0.703163	-0.525023
C75	C	0.594466	-0.364831	-0.272989
N76	N	0.628413	-0.309089	-0.231457
C77	C	1.029040	-0.647083	-0.666074
N78	N	0.987423	-0.702763	-0.632101
H79	H	1.225625	-0.384104	-0.677862
C80	C	1.034138	-1.235999	-0.478615
N81	N	1.034172	-1.326909	-0.478628
C82	C	1.240041	-0.364746	-1.091154
N83	N	1.281657	-0.309072	-1.125133
H84	H	1.033958	-0.806515	-0.478512
C85	C	0.847317	-0.364809	-0.272965
N86	N	0.881264	-0.309061	-0.231438
H87	H	1.225644	-0.384046	-0.826581
C88	C	1.340369	-0.890340	-0.172557
N89	N	1.381962	-0.844879	-0.130984
C90	C	1.340468	-1.120768	-0.172607
N91	N	1.382100	-1.166220	-0.131055
C92	C	1.029108	-0.646921	-1.091083
N93	N	0.987499	-0.702569	-1.125029
C94	C	1.235047	-1.235985	-0.277974
N95	N	1.235089	-1.326895	-0.277992
C96	C	1.029061	-0.647006	-0.838233
N97	N	0.987452	-0.702650	-0.872181
H98	H	0.686874	-0.384047	-0.287311
H99	H	0.582803	-0.628188	-0.469151
