data_functionalizedCrystal
_audit_creation_method	'MofGen! by Chris Wilmer'
_symmetry_space_group_name_H-M	'P1'
_symmetry_Int_Tables_number	1
_symmetry_cell_setting	triclinic
loop_
_symmetry_equiv_pos_as_xyz
  x,y,z
_cell_length_a	10.908878
_cell_length_b	10.967829
_cell_length_c	8.140239
_cell_angle_alpha	77.868595
_cell_angle_beta	89.997505
_cell_angle_gamma	72.684712
loop_
_atom_site_label
_atom_site_type_symbol
_atom_site_fract_x
_atom_site_fract_y
_atom_site_fract_z
O1	O	1.702155	-0.192380	-0.082123
O2	O	1.329148	-0.095114	-0.109667
O3	O	1.524254	-0.327182	-0.043958
O4	O	1.507049	0.039688	-0.147831
O5	O	1.524243	-0.327182	0.229269
O6	O	1.329138	-0.095114	0.163560
O7	O	1.702144	-0.192380	0.191104
Zn8	Zn	1.515639	-0.143747	0.220713
Zn9	Zn	1.515653	-0.143747	-0.139275
O10	O	1.507038	0.039688	0.125396
C11	C	1.281382	-0.086024	0.024372
C12	C	1.139068	-0.058953	0.016706
C13	C	1.089188	-0.157728	0.044671
C14	C	0.942099	-0.129752	0.036748
C15	C	1.522996	-0.373412	0.105741
C16	C	1.519248	-0.511158	0.144731
C17	C	1.517583	-0.572564	0.020573
C18	C	1.513709	-0.714933	0.060868
C19	C	1.749911	-0.201470	0.057062
C20	C	1.892225	-0.228541	0.064718
C21	C	1.508296	0.085918	-0.024307
C22	C	1.512044	0.223665	-0.063308
N23	N	1.515639	-0.143749	0.466396
N24	N	1.515664	-0.143756	-0.384955
H25	H	1.072877	0.046323	-0.013109
H26	H	1.155378	-0.263004	0.074471
H27	H	1.513471	-0.723509	-0.199447
C28	C	0.853922	0.010662	-0.003350
C29	C	0.877724	0.074894	-0.162125
C30	C	0.796507	0.204236	-0.199129
H31	H	0.869824	0.054625	0.079372
H32	H	0.766771	0.010864	-0.003499
H33	H	0.964854	0.074699	-0.161963
H34	H	0.861813	0.030971	-0.244881
H35	H	0.709357	0.204438	-0.199278
H36	H	0.812416	0.248186	-0.116397
H37	H	0.812637	0.247830	-0.306866
C38	C	0.980677	-0.368839	0.104519
C39	C	1.108982	-0.368700	0.104519
C40	C	1.190499	-0.497915	0.141197
H41	H	0.964860	-0.412758	0.021700
H42	H	0.964767	-0.412662	0.212246
H43	H	1.124886	-0.324896	-0.003192
H44	H	1.124839	-0.324807	0.187339
H45	H	1.174589	-0.541738	0.248923
H46	H	1.174671	-0.541824	0.058373
H47	H	1.277563	-0.497839	0.141217
C48	C	1.519333	-0.501909	-0.160880
C49	C	1.411301	-0.390689	-0.200939
C50	C	1.412890	-0.325562	-0.368072
H51	H	1.517733	-0.558725	-0.233748
H52	H	1.595293	-0.476337	-0.174204
H53	H	1.335361	-0.416263	-0.187632
H54	H	1.412879	-0.333842	-0.128115
H55	H	1.488849	-0.299990	-0.381395
H56	H	1.411292	-0.382388	-0.440925
H57	H	1.339598	-0.250086	-0.395269
H58	H	1.512259	-0.767753	0.197004
C59	C	1.517369	-0.581825	0.326146
C60	C	1.513934	-0.708996	0.330049
C61	C	1.512212	-0.774132	0.497143
H62	H	1.443339	-0.535826	0.374468
H63	H	1.592582	-0.585762	0.388523
H64	H	1.438729	-0.705052	0.267697
H65	H	1.587957	-0.755030	0.281762
H66	H	1.587425	-0.778069	0.559520
H67	H	1.438182	-0.728122	0.545451
H68	H	1.509894	-0.860428	0.499815
