data_functionalizedCrystal
_audit_creation_method	'MofGen! by Chris Wilmer'
_symmetry_space_group_name_H-M	'P1'
_symmetry_Int_Tables_number	1
_symmetry_cell_setting	triclinic
loop_
_symmetry_equiv_pos_as_xyz
  x,y,z
_cell_length_a	9.065215
_cell_length_b	14.044220
_cell_length_c	7.540329
_cell_angle_alpha	90.004342
_cell_angle_beta	90.001076
_cell_angle_gamma	89.101787
loop_
_atom_site_label
_atom_site_type_symbol
_atom_site_fract_x
_atom_site_fract_y
_atom_site_fract_z
O1	O	1.975816	0.139127	0.147468
O2	O	2.309150	0.472461	0.480801
O3	O	2.642483	0.805794	0.814134
O4	O	1.547796	0.150543	0.147476
O5	O	1.881129	0.483877	0.480809
O6	O	2.214463	0.817210	0.814143
O7	O	1.755382	0.006796	0.147454
O8	O	2.088715	0.340129	0.480788
O9	O	2.422048	0.673462	0.814121
O10	O	1.768231	0.282875	0.147489
O11	O	2.101564	0.616208	0.480823
O12	O	2.434897	0.949542	0.814156
O13	O	1.755374	0.006794	-0.147511
O14	O	2.088707	0.340128	0.185823
O15	O	2.422040	0.673461	0.519156
O16	O	1.547788	0.150542	-0.147489
O17	O	1.881122	0.483875	0.185844
O18	O	2.214455	0.817209	0.519178
O19	O	1.975808	0.139126	-0.147497
O20	O	2.309142	0.472460	0.185836
O21	O	2.642475	0.805793	0.519169
Cu22	Cu	1.761798	0.144834	-0.174426
Cu23	Cu	2.095131	0.478167	0.158908
Cu24	Cu	2.428464	0.811501	0.492241
Cu25	Cu	1.761807	0.144835	0.174405
Cu26	Cu	2.095140	0.478169	0.507738
Cu27	Cu	2.428474	0.811502	0.841071
O28	O	1.768223	0.282874	-0.147476
O29	O	2.101556	0.616207	0.185858
O30	O	2.434890	0.949541	0.519191
C31	C	1.492684	0.149446	-0.000005
C32	C	1.826017	0.482780	0.333328
C33	C	2.159351	0.816113	0.666661
C34	C	1.328478	0.146168	-0.000003
C35	C	1.661811	0.479501	0.333331
C36	C	1.995144	0.812834	0.666664
C37	C	1.749753	-0.028568	-0.000029
C38	C	2.083087	0.304766	0.333305
C39	C	2.416420	0.638099	0.666638
C40	C	1.732976	-0.133937	-0.000030
C41	C	2.066310	0.199396	0.333303
C42	C	2.399643	0.532729	0.666636
C43	C	1.702304	-0.326862	-0.000004
C44	C	2.035638	0.006471	0.333329
C45	C	2.368971	0.339805	0.666662
C46	C	1.821294	-0.383474	-0.000001
C47	C	2.154627	-0.050141	0.333332
C48	C	2.487960	0.283192	0.666665
C49	C	1.804227	-0.490824	0.000013
C50	C	2.137561	-0.157491	0.333347
C51	C	2.470894	0.175842	0.666680
C52	C	1.719368	-0.219502	-0.000019
C53	C	2.052702	0.113831	0.333314
C54	C	2.386035	0.447165	0.666648
C55	C	2.030921	0.140223	-0.000012
C56	C	2.364254	0.473557	0.333321
C57	C	2.697587	0.806890	0.666655
C58	C	2.195127	0.143502	-0.000003
C59	C	2.528460	0.476835	0.333330
C60	C	2.861794	0.810169	0.666664
C61	C	1.773851	0.318237	0.000011
C62	C	2.107185	0.651570	0.333345
C63	C	2.440518	0.984904	0.666678
C64	C	1.790628	0.423607	0.000025
C65	C	2.123962	0.756940	0.333358
C66	C	2.457295	1.090274	0.666691
N67	N	1.761802	0.144833	-0.419774
N68	N	2.095135	0.478166	-0.086441
N69	N	2.428468	0.811499	0.246892
N70	N	1.761814	0.144829	0.419753
N71	N	2.095147	0.478163	0.753086
N72	N	2.428480	0.811496	1.086420
H73	H	1.935981	-0.351319	0.000115
H74	H	2.269314	-0.017986	0.333449
H75	H	2.602647	0.315347	0.666782
H76	H	1.587627	-0.359015	0.000002
H77	H	1.920960	-0.025682	0.333336
H78	H	2.254293	0.307652	0.666669
