data_functionalizedCrystal
_audit_creation_method	'MofGen! by Chris Wilmer'
_symmetry_space_group_name_H-M	'P1'
_symmetry_Int_Tables_number	1
_symmetry_cell_setting	triclinic
loop_
_symmetry_equiv_pos_as_xyz
  x,y,z
_cell_length_a	18.050589
_cell_length_b	16.120530
_cell_length_c	16.120256
_cell_angle_alpha	90.128265
_cell_angle_beta	92.877403
_cell_angle_gamma	87.123928
loop_
_atom_site_label
_atom_site_type_symbol
_atom_site_fract_x
_atom_site_fract_y
_atom_site_fract_z
Zn1	Zn	-0.376262	1.247404	-0.534589
Zn2	Zn	-0.042929	1.580737	-0.201256
Zn3	Zn	0.290404	1.914071	0.132077
Zn4	Zn	-0.494483	1.254344	-0.395538
Zn5	Zn	-0.161150	1.587677	-0.062205
Zn6	Zn	0.172183	1.921010	0.271128
Zn7	Zn	-0.363709	1.115396	-0.388506
Zn8	Zn	-0.030376	1.448729	-0.055173
Zn9	Zn	0.302958	1.782062	0.278161
Zn10	Zn	-0.493803	1.108300	-0.527508
Zn11	Zn	-0.160470	1.441633	-0.194175
Zn12	Zn	0.172864	1.774967	0.139159
O13	O	-0.432065	1.181361	-0.461535
O14	O	-0.098731	1.514694	-0.128202
O15	O	0.234602	1.848027	0.205131
O16	O	-0.397483	1.364690	-0.522050
O17	O	-0.064150	1.698024	-0.188717
O18	O	0.269184	2.031357	0.144616
O19	O	-0.472167	1.241786	-0.278239
O20	O	-0.138834	1.575119	0.055094
O21	O	0.194500	1.908452	0.388428
O22	O	-0.261454	1.132972	-0.407905
O23	O	0.071880	1.466306	-0.074571
O24	O	0.405213	1.799639	0.258762
O25	O	-0.484340	1.369789	-0.419890
O26	O	-0.151006	1.703122	-0.086557
O27	O	0.182327	2.036455	0.246776
O28	O	-0.270677	1.229958	-0.515232
O29	O	0.062657	1.563292	-0.181898
O30	O	0.395990	1.896625	0.151435
O31	O	-0.376088	1.139701	-0.273073
O32	O	-0.042754	1.473035	0.060261
O33	O	0.290579	1.806368	0.393594
O34	O	-0.375428	0.998089	-0.401038
O35	O	-0.042095	1.331422	-0.067705
O36	O	0.291239	1.664755	0.265628
O37	O	-0.483180	1.120879	-0.644814
O38	O	-0.149847	1.454212	-0.311480
O39	O	0.183487	1.787545	0.021853
O40	O	-0.471007	0.992875	-0.503162
O41	O	-0.137674	1.326209	-0.169829
O42	O	0.195659	1.659542	0.163504
O43	O	-0.396823	1.223078	-0.650016
O44	O	-0.063490	1.556411	-0.316683
O45	O	0.269843	1.889744	0.016650
O46	O	-0.598314	1.234905	-0.413024
O47	O	-0.264981	1.568239	-0.079690
O48	O	0.068353	1.901572	0.253643
O49	O	-0.597814	1.127608	-0.509981
O50	O	-0.264481	1.460941	-0.176648
O51	O	0.068853	1.794274	0.156685
C52	C	-0.421782	0.965310	-0.450569
C53	C	-0.088449	1.298643	-0.117236
C54	C	0.244884	1.631976	0.216097
C55	C	-0.417402	0.872881	-0.445898
C56	C	-0.084069	1.206214	-0.112564
C57	C	0.249265	1.539548	0.220769
C58	C	-0.409388	0.703652	-0.437376
C59	C	-0.076055	1.036986	-0.104043
C60	C	0.257278	1.370319	0.229291
C61	C	-0.454798	0.659907	-0.485756
C62	C	-0.121465	0.993240	-0.152422
C63	C	0.211869	1.326573	0.180911
C64	C	-0.450339	0.565742	-0.481014
C65	C	-0.117006	0.899075	-0.147681
C66	C	0.216328	1.232409	0.185653
C67	C	-0.413846	0.797826	-0.442116
C68	C	-0.080513	1.131159	-0.108783
C69	C	0.252820	1.464492	0.224550
C70	C	-0.625011	1.181261	-0.461516
C71	C	-0.291678	1.514594	-0.128183
C72	C	0.041655	1.847928	0.205150
C73	C	-0.707560	1.181293	-0.461540
C74	C	-0.374226	1.514626	-0.128207
C75	C	-0.040893	1.847960	0.205127
C76	C	-0.906767	1.123000	-0.514249
C77	C	-0.573434	1.456334	-0.180916
C78	C	-0.240100	1.789667	0.152418
C79	C	-0.951987	1.106577	-0.437343
C80	C	-0.618654	1.439911	-0.104010
C81	C	-0.285320	1.773244	0.229324
C82	C	-0.858694	1.181374	-0.461555
C83	C	-0.525361	1.514708	-0.128222
C84	C	-0.192028	1.848041	0.205112
C85	C	-0.960558	1.197838	-0.538472
C86	C	-0.627225	1.531171	-0.205139
C87	C	-0.293892	1.864504	0.128195
C88	C	-1.004684	1.181451	-0.461576
C89	C	-0.671350	1.514784	-0.128243
C90	C	-0.338017	1.848117	0.205091
C91	C	-0.902823	1.164914	-0.384607
C92	C	-0.569490	1.498247	-0.051273
C93	C	-0.236157	1.831580	0.282060
C94	C	-0.911394	1.256206	-0.485789
C95	C	-0.578061	1.589540	-0.152455
C96	C	-0.244728	1.922873	0.180878
C97	C	-0.956591	1.239815	-0.408832
C98	C	-0.623258	1.573148	-0.075498
C99	C	-0.289924	1.906482	0.257835
C100	C	-0.774593	1.181328	-0.461544
C101	C	-0.441260	1.514661	-0.128211
C102	C	-0.107927	1.847995	0.205123
C103	C	-1.088783	1.181498	-0.461579
C104	C	-0.755449	1.514831	-0.128245
C105	C	-0.422116	1.848164	0.205088
C106	C	-0.238366	1.181483	-0.461574
C107	C	0.094967	1.514816	-0.128240
C108	C	0.428301	1.848149	0.205093
C109	C	-0.155823	1.181535	-0.461590
C110	C	0.177510	1.514868	-0.128257
C111	C	0.510843	1.848201	0.205077
C112	C	-0.441326	1.170413	-0.678431
C113	C	-0.107993	1.503746	-0.345098
C114	C	0.225341	1.837079	-0.011764
C115	C	-0.445273	1.165747	-0.770859
C116	C	-0.111940	1.499080	-0.437526
C117	C	0.221394	1.832414	-0.104192
C118	C	-0.442388	1.398256	-0.472545
C119	C	-0.109054	1.731589	-0.139211
C120	C	0.224279	2.064922	0.194122
C121	C	-0.446787	1.490683	-0.477236
C122	C	-0.113453	1.824016	-0.143903
C123	C	0.219880	2.157350	0.189431
C124	C	-0.411464	1.205689	-0.983841
C125	C	-0.078130	1.539022	-0.650508
C126	C	0.255203	1.872356	-0.317174
C127	C	-0.452447	1.157201	-0.940079
C128	C	-0.119113	1.490535	-0.606746
C129	C	0.214220	1.823868	-0.273413
C130	C	-0.448454	1.161958	-0.845916
C131	C	-0.115121	1.495291	-0.512583
C132	C	0.218213	1.828624	-0.179250
C133	C	-0.415455	1.200934	-1.078013
C134	C	-0.082122	1.534267	-0.744679
C135	C	0.251211	1.867601	-0.411346
C136	C	-0.422788	1.192314	-0.245486
C137	C	-0.089454	1.525648	0.087847
C138	C	0.243879	1.858981	0.421181
C139	C	-0.418639	1.197141	-0.153067
C140	C	-0.085306	1.530474	0.180267
C141	C	0.248027	1.863808	0.513600
H142	H	-0.884892	1.073570	-0.558741
H143	H	-0.551559	1.406903	-0.225407
H144	H	-0.218226	1.740236	0.107926
O145	O	-0.353462	0.659589	-0.377795
O146	O	-0.020129	0.992922	-0.044461
O147	O	0.313205	1.326255	0.288872
H148	H	-0.320879	0.706158	-0.343084
H149	H	0.012455	1.039491	-0.009751
H150	H	0.345788	1.372825	0.323582
H151	H	-0.373382	1.250770	-0.950590
H152	H	-0.040049	1.584103	-0.617256
H153	H	0.293285	1.917437	-0.283923
H154	H	-0.497023	0.693175	-0.530737
H155	H	-0.163689	1.026508	-0.197404
H156	H	0.169644	1.359842	0.135930
O157	O	-0.975802	1.022800	-0.410189
O158	O	-0.642469	1.356133	-0.076856
O159	O	-0.309135	1.689466	0.256478
H160	H	-0.955853	0.974416	-0.454013
H161	H	-0.622520	1.307750	-0.120680
H162	H	-0.289186	1.641083	0.212654
H163	H	-0.877689	1.150945	-0.319546
H164	H	-0.544355	1.484279	0.013787
H165	H	-0.211022	1.817612	0.347121
O166	O	-0.985384	1.305255	-0.349754
O167	O	-0.652051	1.638589	-0.016421
O168	O	-0.318717	1.971922	0.316912
H169	H	-0.962028	1.291422	-0.285995
H170	H	-0.628695	1.624755	0.047339
H171	H	-0.295361	1.958089	0.380672
O172	O	-0.887723	1.340064	-0.512868
O173	O	-0.554389	1.673397	-0.179535
O174	O	-0.221056	2.006731	0.153798
H175	H	-0.910987	1.353594	-0.576725
H176	H	-0.577653	1.686927	-0.243392
H177	H	-0.244320	2.020261	0.089941
H178	H	-0.985778	1.211732	-0.603511
H179	H	-0.652445	1.545066	-0.270178
H180	H	-0.319112	1.878399	0.063155
H181	H	-0.490527	1.112113	-0.973333
H182	H	-0.157194	1.445446	-0.639999
H183	H	0.176139	1.778780	-0.306666
