data_functionalizedCrystal
_audit_creation_method	'MofGen! by Chris Wilmer'
_symmetry_space_group_name_H-M	'P1'
_symmetry_Int_Tables_number	1
_symmetry_cell_setting	triclinic
loop_
_symmetry_equiv_pos_as_xyz
  x,y,z
_cell_length_a	23.532356
_cell_length_b	11.792254
_cell_length_c	10.268362
_cell_angle_alpha	89.995475
_cell_angle_beta	89.997129
_cell_angle_gamma	96.486822
loop_
_atom_site_label
_atom_site_type_symbol
_atom_site_fract_x
_atom_site_fract_y
_atom_site_fract_z
O1	O	-0.078091	1.505034	-0.108274
O2	O	0.421909	2.005034	0.391726
O3	O	-0.086128	1.174502	-0.108274
O4	O	0.413872	1.674502	0.391726
O5	O	0.000765	1.349765	-0.108292
O6	O	0.500765	1.849765	0.391708
O7	O	-0.164984	1.329770	-0.108255
O8	O	0.335016	1.829770	0.391745
O9	O	0.000768	1.349750	0.108308
O10	O	0.500768	1.849750	0.608308
O11	O	-0.086124	1.174487	0.108327
O12	O	0.413876	1.674487	0.608327
O13	O	-0.078087	1.505018	0.108327
O14	O	0.421913	2.005018	0.608327
Cu15	Cu	-0.082106	1.339751	0.128104
Cu16	Cu	0.417894	1.839751	0.628104
Cu17	Cu	-0.082110	1.339769	-0.128051
Cu18	Cu	0.417890	1.839769	0.371949
O19	O	-0.164980	1.329755	0.108345
O20	O	0.335020	1.829755	0.608345
C21	C	-0.085620	1.132216	0.000026
C22	C	0.414380	1.632216	0.500026
C23	C	-0.084105	1.006239	0.000025
C24	C	0.415895	1.506239	0.500025
C25	C	-0.082873	0.903932	0.000019
C26	C	0.417127	1.403932	0.500019
C27	C	-0.081334	0.775582	0.000018
C28	C	0.418666	1.275582	0.500018
C29	C	-0.186202	1.330263	0.000050
C30	C	0.313798	1.830263	0.500050
C31	C	-0.249429	1.331766	0.000064
C32	C	0.250571	1.831766	0.500064
C33	C	-0.641501	1.341215	-0.118069
C34	C	-0.141501	1.841215	0.381931
C35	C	-0.700909	1.342645	-0.118075
C36	C	-0.200909	1.842645	0.381925
O37	O	-0.731634	1.343430	-0.218487
O38	O	-0.231634	1.843430	0.281513
N39	N	-0.730620	1.343345	-0.000007
N40	N	-0.230620	1.843345	0.499993
C41	C	-0.700919	1.342628	0.118075
C42	C	-0.200919	1.842628	0.618075
O43	O	-0.731645	1.343356	0.218500
O44	O	-0.231645	1.843356	0.718500
C45	C	-0.641512	1.341206	0.118080
C46	C	-0.141512	1.841206	0.618080
C47	C	-0.611805	1.340494	0.000004
C48	C	-0.111805	1.840494	0.500004
C49	C	-0.611794	1.340504	-0.236135
C50	C	-0.111794	1.840504	0.263865
C51	C	-0.552390	1.339073	-0.236128
C52	C	-0.052390	1.839073	0.263872
C53	C	-0.522694	1.338352	-0.118055
C54	C	-0.022694	1.838352	0.381945
C55	C	-0.552401	1.339063	0.000011
C56	C	-0.052401	1.839063	0.500011
C57	C	-0.611811	1.340497	0.236161
C58	C	-0.111811	1.840497	0.736161
C59	C	-0.552400	1.339077	0.236155
C60	C	-0.052400	1.839077	0.736155
C61	C	-0.522693	1.338364	0.118080
C62	C	-0.022693	1.838364	0.618080
C63	C	-0.463301	1.336910	0.118091
C64	C	0.036699	1.836910	0.618091
N65	N	-0.433590	1.336210	0.000023
N66	N	0.066410	1.836210	0.500023
C67	C	-0.463286	1.336930	-0.118050
C68	C	0.036714	1.836930	0.381950
C69	C	-0.825678	1.345615	0.118056
C70	C	-0.325678	1.845615	0.618056
C71	C	-0.885085	1.347028	0.118052
C72	C	-0.385085	1.847028	0.618052
C73	C	-0.885071	1.347047	-0.118098
C74	C	-0.385071	1.847047	0.381902
C75	C	-0.825664	1.345626	-0.118094
C76	C	-0.325664	1.845626	0.381906
C77	C	-0.795967	1.344914	-0.000012
C78	C	-0.295967	1.844914	0.499988
C79	C	-0.338534	1.333923	-0.118027
C80	C	0.161466	1.833923	0.381973
C81	C	-0.279126	1.332486	-0.118009
C82	C	0.220874	1.832486	0.381991
C83	C	-0.279145	1.332474	0.118140
C84	C	0.220855	1.832474	0.618140
C85	C	-0.338548	1.333904	0.118124
C86	C	0.161452	1.833904	0.618124
C87	C	-0.368242	1.334632	0.000030
C88	C	0.131758	1.834632	0.500030
O89	O	-0.432538	1.336129	0.218452
O90	O	0.067462	1.836129	0.718452
O91	O	-0.432552	1.336217	-0.218458
O92	O	0.067448	1.836217	0.281542
C93	C	0.021986	1.349258	0.000001
C94	C	0.521986	1.849258	0.500001
C95	C	0.085214	1.347755	-0.000022
C96	C	0.585214	1.847755	0.499978
C97	C	-0.078596	1.547305	0.000024
C98	C	0.421404	2.047305	0.500024
C99	C	-0.080111	1.673281	0.000017
C100	C	0.419889	2.173281	0.500017
N101	N	-0.082102	1.339747	0.308270
N102	N	0.417898	1.839747	0.808270
N103	N	-0.082109	1.339783	-0.308217
N104	N	0.417891	1.839783	0.191783
C105	C	-0.082109	1.339764	0.573941
C106	C	0.417891	1.839764	1.073941
C107	C	-0.082107	1.339751	0.426103
C108	C	0.417893	1.839751	0.926103
H109	H	-0.254941	1.331902	-0.214165
H110	H	0.245059	1.831902	0.285835
H111	H	-0.528224	1.338498	0.332314
H112	H	-0.028224	1.838498	0.832314
O113	O	-0.370596	1.334668	0.245471
O114	O	0.129404	1.834668	0.745471
H115	H	-0.339962	1.333932	0.327575
H116	H	0.160038	1.833932	0.827575
H117	H	-0.801480	1.345043	-0.214241
H118	H	-0.301480	1.845043	0.285759
H119	H	-0.635967	1.341095	-0.332289
H120	H	-0.135967	1.841095	0.167711
O121	O	-0.247102	1.331722	0.245480
O122	O	0.252898	1.831722	0.745480
H123	H	-0.224867	1.253720	0.251137
H124	H	0.275133	1.753720	0.751137
H125	H	-0.362704	1.334517	-0.214190
H126	H	0.137296	1.834517	0.285810
H127	H	-0.528208	1.338501	-0.332277
H128	H	-0.028208	1.838501	0.167723
H129	H	-0.909261	1.347630	-0.214240
H130	H	-0.409261	1.847630	0.285760
O131	O	-0.643836	1.341280	0.363524
O132	O	-0.143836	1.841280	0.863524
H133	H	-0.675740	1.264564	0.369211
H134	H	-0.175740	1.764564	0.869211
H135	H	-0.909269	1.347586	0.214201
H136	H	-0.409269	1.847586	0.714201
H137	H	-0.801504	1.345026	0.214217
H138	H	-0.301504	1.845026	0.714217
