data_functionalizedCrystal
_audit_creation_method	'MofGen! by Chris Wilmer'
_symmetry_space_group_name_H-M	'P1'
_symmetry_Int_Tables_number	1
_symmetry_cell_setting	triclinic
loop_
_symmetry_equiv_pos_as_xyz
  x,y,z
_cell_length_a	15.995350
_cell_length_b	19.288865
_cell_length_c	18.366186
_cell_angle_alpha	90.010368
_cell_angle_beta	90.005438
_cell_angle_gamma	83.314311
loop_
_atom_site_label
_atom_site_type_symbol
_atom_site_fract_x
_atom_site_fract_y
_atom_site_fract_z
O1	O	-1.110653	-0.089530	-0.060497
O2	O	-0.777320	0.243803	0.272837
O3	O	-0.443987	0.577136	0.606170
O4	O	-0.866836	-0.100586	-0.060513
O5	O	-0.533503	0.232747	0.272821
O6	O	-0.200170	0.566080	0.606154
O7	O	-0.995790	0.006054	-0.060490
O8	O	-0.662457	0.339387	0.272844
O9	O	-0.329123	0.672720	0.606177
O10	O	-0.981700	-0.196170	-0.060519
O11	O	-0.648366	0.137163	0.272814
O12	O	-0.315033	0.470496	0.606147
O13	O	-0.995768	0.006057	0.060610
O14	O	-0.662434	0.339390	0.393943
O15	O	-0.329101	0.672723	0.727276
O16	O	-0.866814	-0.100583	0.060587
O17	O	-0.533481	0.232750	0.393920
O18	O	-0.200148	0.566083	0.727253
O19	O	-1.110631	-0.089527	0.060603
O20	O	-0.777298	0.243806	0.393936
O21	O	-0.443964	0.577139	0.727270
Zn22	Zn	-0.988719	-0.095055	0.079822
Zn23	Zn	-0.655386	0.238278	0.413155
Zn24	Zn	-0.322052	0.571612	0.746489
Zn25	Zn	-0.988748	-0.095059	-0.079732
Zn26	Zn	-0.655415	0.238274	0.253602
Zn27	Zn	-0.322082	0.571608	0.586935
O28	O	-0.981678	-0.196167	0.060580
O29	O	-0.648344	0.137166	0.393913
O30	O	-0.315011	0.470499	0.727247
C31	C	-0.835632	-0.100128	0.000035
C32	C	-0.502299	0.233206	0.333369
C33	C	-0.168966	0.566539	0.666702
C34	C	-0.742687	-0.098757	0.000030
C35	C	-0.409354	0.234576	0.333363
C36	C	-0.076020	0.567909	0.666696
C37	C	-0.995326	0.031933	0.000062
C38	C	-0.661992	0.365266	0.333395
C39	C	-0.328659	0.698599	0.666729
C40	C	-0.993965	0.109040	0.000068
C41	C	-0.660631	0.442373	0.333402
C42	C	-0.327298	0.775707	0.666735
C43	C	-1.141835	-0.089986	0.000053
C44	C	-0.808502	0.243347	0.333387
C45	C	-0.475169	0.576681	0.666720
C46	C	-1.234781	-0.091356	0.000054
C47	C	-0.901447	0.241977	0.333387
C48	C	-0.568114	0.575310	0.666721
C49	C	-0.404958	-0.093836	0.000046
C50	C	-0.071625	0.239497	0.333379
C51	C	0.261709	0.572830	0.666712
C52	C	-0.452679	-0.017889	0.000327
C53	C	-0.119345	0.315444	0.333660
C54	C	0.213988	0.648777	0.666994
C55	C	-0.549364	-0.019260	0.000049
C56	C	-0.216030	0.314073	0.333382
C57	C	0.117303	0.647407	0.666715
C58	C	-0.572509	-0.096277	0.000038
C59	C	-0.239176	0.237056	0.333372
C60	C	0.094157	0.570389	0.666705
C61	C	-0.531294	-0.133739	-0.069118
C62	C	-0.197960	0.199595	0.264215
C63	C	0.135373	0.532928	0.597549
C64	C	-0.434665	-0.131831	-0.069171
C65	C	-0.101332	0.201502	0.264163
C66	C	0.232001	0.534836	0.597496
C67	C	-0.434295	-0.133397	0.068542
C68	C	-0.100962	0.199937	0.401875
C69	C	0.232372	0.533270	0.735208
C70	C	-0.531240	-0.133379	0.069451
C71	C	-0.197907	0.199955	0.402784
C72	C	0.135426	0.533288	0.736117
C73	C	-0.667202	-0.097661	0.000032
C74	C	-0.333868	0.235672	0.333365
C75	C	-0.000535	0.569006	0.666698
C76	C	-0.310266	-0.092455	0.000047
C77	C	0.023068	0.240878	0.333381
C78	C	0.356401	0.574212	0.666714
C79	C	-0.982142	-0.222047	0.000027
C80	C	-0.648809	0.111287	0.333360
C81	C	-0.315475	0.444620	0.666693
C82	C	-0.983503	-0.299154	0.000015
C83	C	-0.650170	0.034180	0.333349
C84	C	-0.316836	0.367513	0.666682
N85	N	-0.988705	-0.095052	0.188713
N86	N	-0.655372	0.238282	0.522046
N87	N	-0.322039	0.571615	0.855380
C88	C	-1.069629	0.153540	0.000077
C89	C	-0.736295	0.486873	0.333410
C90	C	-0.402962	0.820206	0.666744
C91	C	-1.068350	0.225990	0.000065
C92	C	-0.735017	0.559323	0.333399
C93	C	-0.401683	0.892657	0.666732
C94	C	-0.991403	0.253937	0.000060
C95	C	-0.658070	0.587271	0.333393
C96	C	-0.324736	0.920604	0.666727
C97	C	-0.915729	0.209428	0.000047
C98	C	-0.582396	0.542761	0.333381
C99	C	-0.249062	0.876094	0.666714
C100	C	-0.917010	0.136979	0.000052
C101	C	-0.583676	0.470312	0.333385
C102	C	-0.250343	0.803646	0.666718
C103	C	-0.930906	0.362383	0.042474
C104	C	-0.597573	0.695716	0.375808
C105	C	-0.264239	1.029050	0.709141
C106	C	-0.929628	0.434831	0.042475
C107	C	-0.596295	0.768164	0.375808
C108	C	-0.262962	1.101497	0.709141
C109	C	-0.987450	0.477393	0.000043
C110	C	-0.654116	0.810727	0.333377
C111	C	-0.320783	1.144060	0.666710
C112	C	-1.046563	0.447501	-0.042379
C113	C	-0.713229	0.780834	0.290955
C114	C	-0.379896	1.114167	0.624288
C115	C	-1.047844	0.375052	-0.042374
C116	C	-0.714510	0.708385	0.290959
C117	C	-0.381177	1.041719	0.624292
C118	C	-0.990006	0.332495	0.000055
C119	C	-0.656672	0.665828	0.333388
C120	C	-0.323339	0.999162	0.666721
C121	C	-1.061733	0.600453	0.000038
C122	C	-0.728399	0.933786	0.333372
C123	C	-0.395066	1.267119	0.666705
C124	C	-1.060451	0.672904	0.000022
C125	C	-0.727117	1.006237	0.333355
C126	C	-0.393784	1.339571	0.666689
C127	C	-0.907827	0.656340	0.000011
C128	C	-0.574494	0.989673	0.333345
C129	C	-0.241161	1.323007	0.666678
C130	C	-0.909111	0.583890	0.000020
C131	C	-0.575778	0.917224	0.333353
C132	C	-0.242445	1.250557	0.666687
C133	C	-0.986066	0.555951	0.000037
C134	C	-0.652733	0.889285	0.333370
C135	C	-0.319400	1.222618	0.666704
N136	N	-0.988769	-0.095057	-0.188623
N137	N	-0.655436	0.238277	0.144710
N138	N	-0.322102	0.571610	0.478044
C139	C	-1.039320	-0.137207	0.226804
C140	C	-0.705986	0.196126	0.560138
C141	C	-0.372653	0.529460	0.893471
C142	C	-1.039333	-0.137205	0.303032
C143	C	-0.706000	0.196128	0.636366
C144	C	-0.372667	0.529462	0.969699
C145	C	-0.988717	-0.095056	0.341166
C146	C	-0.655384	0.238277	0.674499
C147	C	-0.322050	0.571611	1.007832
C148	C	-0.938099	-0.052892	0.303065
C149	C	-0.604766	0.280441	0.636399
C150	C	-0.271433	0.613774	0.969732
C151	C	-0.938094	-0.052890	0.226839
C152	C	-0.604760	0.280443	0.560172
C153	C	-0.271427	0.613777	0.893506
C154	C	-0.913241	-0.093103	0.461942
C155	C	-0.579908	0.240230	0.795276
C156	C	-0.246574	0.573563	1.128609
C157	C	-0.913245	-0.093110	0.538167
C158	C	-0.579912	0.240223	0.871501
C159	C	-0.246579	0.573556	1.204834
C160	C	-0.988736	-0.095058	0.576273
C161	C	-0.655402	0.238275	0.909607
C162	C	-0.322069	0.571608	1.242940
C163	C	-1.064224	-0.097014	0.538145
C164	C	-0.730890	0.236319	0.871478
C165	C	-0.397557	0.569653	1.204812
C166	C	-1.064218	-0.097012	0.461919
C167	C	-0.730884	0.236321	0.795252
C168	C	-0.397551	0.569655	1.128585
C169	C	-0.988718	-0.095053	0.423821
C170	C	-0.655385	0.238280	0.757154
C171	C	-0.322051	0.571613	1.090487
C172	C	-1.039369	-0.137214	0.697020
C173	C	-0.706036	0.196120	1.030353
C174	C	-0.372703	0.529453	1.363686
C175	C	-1.039385	-0.137207	0.773249
C176	C	-0.706051	0.196126	1.106582
C177	C	-0.372718	0.529460	1.439915
C178	C	-0.938143	-0.052898	0.773280
C179	C	-0.604810	0.280435	1.106614
C180	C	-0.271477	0.613769	1.439947
C181	C	-0.938136	-0.052901	0.697053
C182	C	-0.604802	0.280432	1.030386
C183	C	-0.271469	0.613766	1.363719
C184	C	-0.988747	-0.095063	0.658927
C185	C	-0.655414	0.238271	0.992260
C186	C	-0.322081	0.571604	1.325593
H187	H	-0.577895	0.010187	0.049623
H188	H	-0.244561	0.343520	0.382957
H189	H	0.088772	0.676853	0.716290
H190	H	-0.851778	-0.091522	0.569206
H191	H	-0.518445	0.241811	0.902539
H192	H	-0.185111	0.575145	1.235872
Cl193	Cl	-0.422614	0.028769	-0.075803
Cl194	Cl	-0.089281	0.362102	0.257530
Cl195	Cl	0.244052	0.695436	0.590863
H196	H	-0.434262	0.012470	0.049922
H197	H	-0.100929	0.345803	0.383256
H198	H	0.232405	0.679136	0.716589
H199	H	-1.124394	0.577704	0.000049
H200	H	-0.791060	0.911037	0.333382
H201	H	-0.457727	1.244370	0.666715
H202	H	-0.847497	0.547657	0.000017
H203	H	-0.514164	0.880991	0.333351
H204	H	-0.180831	1.214324	0.666684
Cl205	Cl	-1.103025	-0.190204	0.821136
Cl206	Cl	-0.769691	0.143130	1.154469
Cl207	Cl	-0.436358	0.476463	1.487802
H208	H	-0.413844	-0.108566	0.120960
H209	H	-0.080510	0.224767	0.454294
H210	H	0.252823	0.558100	0.787627
H211	H	-0.853078	0.232187	0.000041
H212	H	-0.519745	0.565520	0.333374
H213	H	-0.186411	0.898854	0.666708
Cl214	Cl	-0.874485	0.000084	0.649164
Cl215	Cl	-0.541152	0.333417	0.982497
Cl216	Cl	-0.207819	0.666750	1.315830
H217	H	-1.125695	-0.098604	0.569169
H218	H	-0.792361	0.234730	0.902502
H219	H	-0.459028	0.568063	1.235836
H220	H	-0.881491	0.459163	0.077013
H221	H	-0.548158	0.792496	0.410346
H222	H	-0.214825	1.125830	0.743680
H223	H	-0.896931	-0.018579	0.804328
H224	H	-0.563598	0.314755	1.137661
H225	H	-0.230265	0.648088	1.470995
Cl226	Cl	-0.384548	-0.217916	-0.074029
Cl227	Cl	-0.051215	0.115418	0.259304
Cl228	Cl	0.282118	0.448751	0.592637
Cl229	Cl	-0.592534	0.026306	-0.076742
Cl230	Cl	-0.259201	0.359639	0.256591
Cl231	Cl	0.074132	0.692973	0.589925
Cl232	Cl	-0.552797	-0.221092	-0.073119
Cl233	Cl	-0.219464	0.112242	0.260214
Cl234	Cl	0.113870	0.445575	0.593548
H235	H	-1.095974	0.350716	-0.076917
H236	H	-0.762640	0.684050	0.256416
H237	H	-0.429307	1.017383	0.589749
Cl238	Cl	-0.874470	0.000098	0.351004
Cl239	Cl	-0.541137	0.333431	0.684337
Cl240	Cl	-0.207804	0.666764	1.017670
Cl241	Cl	-1.155581	0.728849	0.000028
Cl242	Cl	-0.822247	1.062182	0.333361
Cl243	Cl	-0.488914	1.395515	0.666695
Cl244	Cl	-0.858211	0.308883	0.095824
Cl245	Cl	-0.524877	0.642216	0.429157
Cl246	Cl	-0.191544	0.975549	0.762491
Cl247	Cl	-0.811093	0.691467	0.000000
Cl248	Cl	-0.477759	1.024800	0.333333
Cl249	Cl	-0.144426	1.358133	0.666667
H250	H	-0.559776	-0.107722	-0.120578
H251	H	-0.226442	0.225611	0.212755
H252	H	0.106891	0.558944	0.546088
Cl253	Cl	-0.573456	-0.091088	0.148440
Cl254	Cl	-0.240123	0.242245	0.481774
Cl255	Cl	0.093211	0.575579	0.815107
Cl256	Cl	-0.821881	0.081033	0.000041
Cl257	Cl	-0.488548	0.414366	0.333375
Cl258	Cl	-0.155214	0.747700	0.666708
Cl259	Cl	-1.102968	-0.190204	0.350929
Cl260	Cl	-0.769635	0.143129	0.684262
Cl261	Cl	-0.436301	0.476463	1.017595
Cl262	Cl	-1.103013	-0.190200	0.649086
Cl263	Cl	-0.769680	0.143133	0.982420
Cl264	Cl	-0.436346	0.476467	1.315753
H265	H	-1.093646	0.482154	-0.076931
H266	H	-0.760313	0.815487	0.256403
H267	H	-0.426980	1.148821	0.589736
Cl268	Cl	-1.163478	0.281943	0.000076
Cl269	Cl	-0.830145	0.615277	0.333409
Cl270	Cl	-0.496811	0.948610	0.666742
H271	H	-1.080535	-0.171536	0.195767
H272	H	-0.747202	0.161798	0.529100
H273	H	-0.413868	0.495131	0.862434
Cl274	Cl	-1.166372	0.118420	0.000078
Cl275	Cl	-0.833038	0.451753	0.333411
Cl276	Cl	-0.499705	0.785087	0.666744
Cl277	Cl	-0.406568	-0.089656	-0.148972
Cl278	Cl	-0.073235	0.243677	0.184361
Cl279	Cl	0.260098	0.577011	0.517694
H280	H	-0.851762	-0.091522	0.430923
H281	H	-0.518429	0.241812	0.764256
H282	H	-0.185096	0.575145	1.097590
Cl283	Cl	-1.159112	-0.099468	0.413988
Cl284	Cl	-0.825778	0.233865	0.747321
Cl285	Cl	-0.492445	0.567198	1.080655
H286	H	-0.546393	-0.189542	0.073620
H287	H	-0.213060	0.143791	0.406953
H288	H	0.120274	0.477125	0.740287
H289	H	-0.402322	-0.189392	0.069002
H290	H	-0.068989	0.143942	0.402335
H291	H	0.264344	0.477275	0.735668
Cl292	Cl	-0.874453	0.000105	0.178950
Cl293	Cl	-0.541120	0.333438	0.512284
Cl294	Cl	-0.207787	0.666772	0.845617
