data_functionalizedCrystal
_audit_creation_method	'MofGen! by Chris Wilmer'
_symmetry_space_group_name_H-M	'P1'
_symmetry_Int_Tables_number	1
_symmetry_cell_setting	triclinic
loop_
_symmetry_equiv_pos_as_xyz
  x,y,z
_cell_length_a	23.532407
_cell_length_b	19.188930
_cell_length_c	17.666332
_cell_angle_alpha	89.989658
_cell_angle_beta	90.003914
_cell_angle_gamma	97.003270
loop_
_atom_site_label
_atom_site_type_symbol
_atom_site_fract_x
_atom_site_fract_y
_atom_site_fract_z
O1	O	0.755443	-0.084756	0.062862
O2	O	0.589606	-0.097020	0.062886
O3	O	0.677310	0.010783	0.062858
O4	O	0.667739	-0.192559	0.062889
O5	O	0.677295	0.010786	-0.063038
O6	O	0.589591	-0.097017	-0.063011
O7	O	0.755428	-0.084753	-0.063035
Cu8	Cu	0.672508	-0.090885	-0.074518
Cu9	Cu	0.672526	-0.090888	0.074369
O10	O	0.667724	-0.192556	-0.063007
C11	C	0.568382	-0.096706	-0.000060
C12	C	0.505163	-0.095767	-0.000052
N13	N	0.672499	-0.090882	-0.179238
C14	C	0.676993	0.036794	-0.000092
C15	C	0.676062	0.114296	-0.000098
C16	C	0.106183	-0.153674	-0.000077
C17	C	0.046780	-0.152801	-0.000082
O18	O	0.010150	-0.206481	-0.000101
N19	N	0.024018	-0.088713	-0.000090
C20	C	0.060662	-0.025492	-0.000102
O21	O	0.035846	0.029100	-0.000110
C22	C	0.120062	-0.026365	-0.000102
C23	C	0.142821	-0.090458	-0.000086
C24	C	0.128942	-0.217761	-0.000062
C25	C	0.188340	-0.218633	-0.000056
C26	C	0.224979	-0.155417	-0.000065
C27	C	0.202219	-0.091330	-0.000080
C28	C	0.156705	0.036855	-0.000119
C29	C	0.216109	0.035976	-0.000121
C30	C	0.238868	-0.028116	-0.000104
C31	C	0.298256	-0.028986	-0.000083
N32	N	0.321018	-0.093075	-0.000075
C33	C	0.284379	-0.156290	-0.000065
C34	C	-0.064085	-0.023664	-0.000102
C35	C	-0.123485	-0.022790	-0.000096
C36	C	-0.137362	-0.150099	-0.000077
C37	C	-0.077961	-0.150972	-0.000078
C38	C	-0.041323	-0.087752	-0.000093
C39	C	0.409120	-0.158117	-0.000052
C40	C	0.468524	-0.158983	-0.000043
C41	C	0.482396	-0.031674	-0.000065
C42	C	0.422997	-0.030807	-0.000070
C43	C	0.386360	-0.094034	-0.000066
O44	O	0.334921	0.024666	-0.000067
O45	O	0.309203	-0.210874	-0.000067
C46	C	0.776652	-0.085067	-0.000087
C47	C	0.839871	-0.086006	-0.000091
C48	C	0.668041	-0.218568	-0.000055
C49	C	0.668972	-0.296069	-0.000044
C50	C	0.727524	0.159384	-0.000109
C51	C	0.726650	0.232205	-0.000097
C52	C	0.674311	0.259935	-0.000089
C53	C	0.622842	0.214837	-0.000074
C54	C	0.623718	0.142017	-0.000079
N55	N	0.634299	0.367813	-0.042929
N56	N	0.633471	0.436989	-0.042926
C57	C	0.671670	0.479335	-0.000073
N58	N	0.710737	0.449893	0.042766
N59	N	0.711567	0.380711	0.042760
C60	C	0.673356	0.338894	-0.000084
C61	C	0.722188	0.603384	-0.000070
C62	C	0.721311	0.676206	-0.000053
C63	C	0.617502	0.658836	-0.000038
C64	C	0.618380	0.586016	-0.000047
C65	C	0.670724	0.558295	-0.000067
C66	C	0.706928	-0.133017	-0.218839
C67	C	0.706937	-0.133015	-0.298087
C68	C	0.672507	-0.090886	-0.337730
C69	C	0.638076	-0.048742	-0.298118
C70	C	0.638072	-0.048740	-0.218872
N71	N	0.622629	-0.089325	-0.462163
N72	N	0.622634	-0.089331	-0.537443
C73	C	0.672517	-0.090888	-0.576494
N74	N	0.722395	-0.092453	-0.537420
N75	N	0.722389	-0.092451	-0.462132
C76	C	0.672507	-0.090883	-0.423659
C77	C	0.706959	-0.133024	-0.702025
C78	C	0.706970	-0.133017	-0.781274
C79	C	0.638102	-0.048747	-0.781304
C80	C	0.638097	-0.048750	-0.702056
C81	C	0.672525	-0.090892	-0.662422
N82	N	0.672539	-0.090886	0.179089
H83	H	0.379297	-0.209602	-0.000051
H84	H	0.610059	-0.014442	-0.669812
O85	O	0.600964	-0.003306	-0.824048
H86	H	0.606747	-0.010389	-0.885807
O87	O	0.493068	-0.228117	-0.000038
H88	H	0.478333	-0.258479	0.051273
H89	H	0.581810	0.105305	-0.000070
O90	O	0.562874	0.537378	-0.000043
H91	H	0.560788	0.503794	-0.051356
O92	O	0.212884	-0.287761	-0.000061
H93	H	0.177420	-0.331566	-0.000068
H94	H	0.763220	0.712917	-0.000058
H95	H	0.770147	0.136819	-0.000123
O96	O	0.600936	-0.003304	-0.340869
H97	H	0.606717	-0.010390	-0.402628
H98	H	0.138185	0.089046	-0.000133
O99	O	0.089428	-0.285949	-0.000053
H100	H	0.097507	-0.316633	0.051270
O101	O	-0.053414	-0.220099	-0.000075
H102	H	-0.088876	-0.263907	-0.000075
H103	H	-0.142009	0.029401	-0.000097
H104	H	0.734964	-0.167330	-0.186574
H105	H	-0.167204	-0.201573	-0.000073
H106	H	0.768558	0.268923	-0.000103
O107	O	-0.024568	0.044528	-0.000107
H108	H	-0.050380	0.089234	-0.000107
O109	O	0.255627	0.104165	-0.000134
H110	H	0.229818	0.148874	-0.000140
O111	O	0.398444	0.038319	-0.000085
H112	H	0.433903	0.082129	-0.000094
O113	O	0.744068	-0.178469	-0.340816
H114	H	0.768003	-0.207776	-0.299941
O115	O	0.566391	0.244742	-0.000075
H116	H	0.563516	0.277502	0.051234
O117	O	0.600931	-0.003299	-0.176151
H118	H	0.576987	0.025996	-0.217027
H119	H	0.735010	-0.167326	-0.813516
O120	O	0.521918	0.036508	-0.000086
H121	H	0.567045	0.025128	-0.000091
O122	O	0.778641	0.573476	-0.000076
H123	H	0.814280	0.617066	-0.000067
H124	H	0.734992	-0.167338	-0.669753
H125	H	0.574886	0.681413	-0.000027
