data_functionalizedCrystal
_audit_creation_method	'MofGen! by Chris Wilmer'
_symmetry_space_group_name_H-M	'P1'
_symmetry_Int_Tables_number	1
_symmetry_cell_setting	triclinic
loop_
_symmetry_equiv_pos_as_xyz
  x,y,z
_cell_length_a	27.732048
_cell_length_b	17.699083
_cell_length_c	16.176319
_cell_angle_alpha	90.001389
_cell_angle_beta	89.988239
_cell_angle_gamma	97.037165
loop_
_atom_site_label
_atom_site_type_symbol
_atom_site_fract_x
_atom_site_fract_y
_atom_site_fract_z
O1	O	0.061127	-1.003540	-0.068640
O2	O	0.069080	-0.783091	-0.068668
O3	O	-0.005269	-0.900162	-0.068637
O4	O	0.135475	-0.886469	-0.068670
O5	O	-0.005273	-0.900146	0.068856
O6	O	0.069075	-0.783075	0.068825
O7	O	0.061122	-1.003524	0.068853
Cu8	Cu	0.065098	-0.893298	0.081394
Cu9	Cu	0.065104	-0.893317	-0.081208
O10	O	0.135471	-0.886453	0.068823
C11	C	0.068792	-0.754889	0.000075
C12	C	0.067938	-0.670878	0.000065
C13	C	-0.023279	-0.899867	0.000112
C14	C	-0.076937	-0.899001	0.000118
C15	C	0.061410	-1.031726	0.000108
C16	C	0.062264	-1.115737	0.000113
C17	C	-0.415523	-0.962734	0.000084
C18	C	-0.617194	-0.959522	0.000072
O19	O	-0.648240	-1.017801	0.000043
N20	N	-0.636567	-0.890104	0.000064
C21	C	-0.605520	-0.821484	0.000053
O22	O	-0.626625	-0.762366	0.000038
C23	C	-0.403849	-0.824696	0.000059
C24	C	-0.384479	-0.894119	0.000076
C25	C	-0.396152	-1.032151	0.000100
C26	C	-0.345737	-1.032953	0.000107
C27	C	-0.314693	-0.964338	0.000099
C28	C	-0.334064	-0.894921	0.000083
C29	C	-0.372802	-0.756076	0.000043
C30	C	-0.322382	-0.756886	0.000042
C31	C	-0.303012	-0.826308	0.000059
C32	C	-0.252605	-0.827108	0.000083
N33	N	-0.233232	-0.896526	0.000091
C34	C	-0.264276	-0.965141	0.000099
C35	C	-0.711400	-0.819802	0.000052
C36	C	-0.761817	-0.818999	0.000052
C37	C	-0.773488	-0.957038	0.000069
C38	C	-0.723070	-0.957840	0.000075
C39	C	-0.692026	-0.889220	0.000060
C40	C	-0.158401	-0.966820	0.000115
C41	C	-0.107981	-0.967616	0.000126
C42	C	-0.096314	-0.829578	0.000105
C43	C	-0.146730	-0.828781	0.000098
C44	C	-0.177772	-0.897409	0.000101
O45	O	-0.221531	-0.768860	0.000102
O46	O	-0.243161	-1.024251	0.000096
C47	C	-0.465938	-0.961931	0.000077
C48	C	-0.485309	-0.892514	0.000061
C49	C	-0.454265	-0.823899	0.000053
C50	C	-0.535726	-0.891711	0.000061
C51	C	-0.566770	-0.960326	0.000069
C52	C	-0.547397	-1.029744	0.000077
C53	C	-0.496982	-1.030546	0.000085
C54	C	-0.473638	-0.754481	0.000045
C55	C	-0.524053	-0.753685	0.000038
C56	C	-0.555097	-0.822300	0.000046
C57	C	0.153481	-0.886748	0.000072
C58	C	0.207139	-0.887614	0.000060
N59	N	0.065094	-0.893290	0.195759
C60	C	0.111579	-0.621873	0.000055
C61	C	0.110772	-0.542936	0.000066
C62	C	0.066325	-0.513007	0.000081
C63	C	0.022680	-0.562019	0.000094
C64	C	0.023487	-0.640954	0.000089
C65	C	0.019426	-0.243685	0.000115
C66	C	0.018623	-0.164744	0.000117
C67	C	0.106712	-0.145667	0.000092
C68	C	0.107518	-0.224602	0.000087
C69	C	0.063874	-0.273607	0.000104
C70	C	0.064749	-0.359199	0.000094
C71	C	0.065450	-0.427418	0.000085
N72	N	0.065104	-0.893331	-0.195573
C73	C	0.032186	-0.945145	0.239037
C74	C	0.032185	-0.945149	0.325584
C75	C	0.065096	-0.893301	0.368851
C76	C	0.098005	-0.841441	0.325568
C77	C	0.098003	-0.841434	0.239022
C78	C	0.098014	-0.841467	0.674596
C79	C	0.098015	-0.841479	0.761147
C80	C	0.032197	-0.945181	0.761157
C81	C	0.032194	-0.945174	0.674612
C82	C	0.065102	-0.893312	0.631336
C83	C	0.065102	-0.893308	0.537491
C84	C	0.065099	-0.893309	0.462694
H85	H	-0.092213	-1.024151	0.000142
H86	H	-0.777584	-0.762468	0.000053
F87	F	-0.028687	-0.132894	0.000133
F88	F	-0.580445	-1.102769	0.000090
F89	F	0.133029	-0.786257	0.371617
H90	H	0.124800	-0.799209	0.203786
H91	H	-0.297108	-0.701006	0.000029
H92	H	-0.388565	-0.699545	0.000024
F93	F	0.158887	-0.653718	0.000034
H94	H	-0.183670	-1.022703	0.000114
H95	H	0.146309	-0.503039	0.000057
F96	F	0.154825	-0.256450	0.000066
F97	F	-0.167346	-0.754895	0.000096
F98	F	0.133038	-0.786274	0.628545
F99	F	-0.027024	-0.295830	0.000133
F100	F	0.153162	-0.093506	0.000077
H101	H	-0.013510	-0.537645	0.000118
H102	H	-0.012050	-0.680855	0.000096
F103	F	-0.002831	-1.000360	0.628567
H104	H	0.005389	-0.987368	0.203814
F105	F	-0.002840	-1.000337	0.371643
H106	H	0.005400	-0.987408	0.796402
H107	H	-0.329971	-1.089484	0.000117
F108	F	-0.702459	-1.031728	0.000092
F109	F	-0.429185	-1.105187	0.000108
F110	F	-0.678366	-0.746762	0.000036
F111	F	-0.806536	-1.030063	0.000076
F112	F	-0.063267	-0.756557	0.000097
H113	H	0.124815	-0.799256	0.796374
H114	H	-0.481215	-1.087078	0.000098
F115	F	-0.544663	-0.679790	0.000026
H116	H	-0.448366	-0.698605	0.000036
