data_functionalizedCrystal
_audit_creation_method	'MofGen! by Chris Wilmer'
_symmetry_space_group_name_H-M	'P1'
_symmetry_Int_Tables_number	1
_symmetry_cell_setting	triclinic
loop_
_symmetry_equiv_pos_as_xyz
  x,y,z
_cell_length_a	10.540539
_cell_length_b	19.188930
_cell_length_c	9.616153
_cell_angle_alpha	89.992615
_cell_angle_beta	89.995174
_cell_angle_gamma	83.835137
loop_
_atom_site_label
_atom_site_type_symbol
_atom_site_fract_x
_atom_site_fract_y
_atom_site_fract_z
O1	O	1.683724	0.098389	-0.115598
O2	O	2.183724	0.598389	0.384402
O3	O	1.314107	0.107659	-0.115617
O4	O	1.814107	0.607659	0.384383
O5	O	1.509582	0.001439	-0.115579
O6	O	2.009582	0.501439	0.384421
O7	O	1.488249	0.204608	-0.115635
O8	O	1.988249	0.704608	0.384365
O9	O	1.509555	0.001441	0.115712
O10	O	2.009555	0.501441	0.615712
O11	O	1.314080	0.107661	0.115675
O12	O	1.814080	0.607661	0.615675
O13	O	1.683697	0.098391	0.115694
O14	O	2.183697	0.598391	0.615694
Zn15	Zn	1.498885	0.103026	0.152407
Zn16	Zn	1.998885	0.603026	0.652407
Zn17	Zn	1.498920	0.103023	-0.152330
Zn18	Zn	1.998920	0.603023	0.347670
O19	O	1.488222	0.204610	0.115657
O20	O	1.988222	0.704610	0.615657
C21	C	1.266806	0.106965	0.000027
C22	C	1.766806	0.606965	0.500027
C23	C	1.125904	0.104885	0.000021
C24	C	1.625904	0.604885	0.500021
C25	C	1.508878	-0.024575	0.000070
C26	C	2.008878	0.475425	0.500070
C27	C	1.506804	-0.102094	0.000082
C28	C	2.006804	0.397906	0.500082
C29	C	0.944233	0.025184	0.000583
C30	C	1.444233	0.525184	0.500583
C31	C	1.090805	0.027292	0.000047
C32	C	1.590805	0.527292	0.500047
C33	C	1.063423	0.142224	-0.132063
C34	C	1.563423	0.642224	0.367937
C35	C	0.916937	0.139576	-0.132158
C36	C	1.416937	0.639576	0.367842
C37	C	0.916384	0.141157	0.130863
C38	C	1.416384	0.641157	0.630863
C39	C	1.063350	0.141872	0.132594
C40	C	1.563350	0.641872	0.632594
C41	C	1.621502	-0.146253	0.000095
C42	C	2.121502	0.353747	0.500095
C43	C	1.619554	-0.219090	0.000072
C44	C	2.119554	0.280910	0.500072
C45	C	1.502901	-0.247764	0.000065
C46	C	2.002901	0.252236	0.500065
C47	C	1.388187	-0.203595	0.000045
C48	C	1.888187	0.296405	0.500045
C49	C	1.390139	-0.130760	0.000053
C50	C	1.890139	0.369240	0.500053
N51	N	1.413724	-0.356363	0.078774
N52	N	1.913724	0.143637	0.578774
N53	N	1.411878	-0.425554	0.078769
N54	N	1.911878	0.074446	0.578769
C55	C	1.497014	-0.467212	0.000037
C56	C	1.997014	0.032788	0.500037
N57	N	1.584085	-0.437067	-0.078672
N58	N	2.084085	0.062933	0.421328
N59	N	1.585935	-0.367870	-0.078661
N60	N	2.085935	0.132130	0.421339
C61	C	1.500772	-0.326741	0.000055
C62	C	2.000772	0.173259	0.500055
C63	C	1.609608	-0.590350	0.000023
C64	C	2.109608	-0.090350	0.500023
C65	C	1.607655	-0.663188	-0.000008
C66	C	2.107655	-0.163188	0.499992
C67	C	1.376285	-0.647691	-0.000021
C68	C	1.876285	-0.147691	0.499979
C69	C	1.378241	-0.574855	-0.000004
C70	C	1.878241	-0.074855	0.499996
C71	C	1.494906	-0.546189	0.000025
C72	C	1.994906	-0.046189	0.500025
C73	C	1.730998	0.099085	0.000047
C74	C	2.230998	0.599085	0.500047
C75	C	1.871901	0.101165	0.000044
C76	C	2.371901	0.601165	0.500044
C77	C	1.488927	0.230625	0.000004
C78	C	1.988927	0.730625	0.500004
C79	C	1.491000	0.308143	-0.000017
C80	C	1.991000	0.808143	0.499983
N81	N	1.498870	0.103028	0.360381
N82	N	1.998870	0.603028	0.860381
N83	N	1.498945	0.103016	-0.360304
N84	N	1.998945	0.603016	0.139696
C85	C	1.393992	0.159658	0.580731
C86	C	1.893992	0.659658	1.080731
C87	C	1.394216	0.159870	0.419564
C88	C	1.894216	0.659870	0.919564
C89	C	1.631228	0.119601	0.418832
C90	C	2.131228	0.619601	0.918832
C91	C	1.630655	0.120002	0.580050
C92	C	2.130655	0.620002	1.080050
C93	C	1.472715	0.029640	0.580311
C94	C	1.972715	0.529640	1.080311
C95	C	1.469658	0.030115	0.419084
C96	C	1.969658	0.530115	0.919084
H97	H	1.134055	-0.002088	0.094731
H98	H	1.634055	0.497912	0.594731
Cl99	Cl	1.127346	0.099686	0.283459
Cl100	Cl	1.627346	0.599686	0.783459
Cl101	Cl	1.156240	-0.018192	-0.146616
Cl102	Cl	1.656240	0.481808	0.353384
H103	H	0.914709	-0.005341	-0.093599
H104	H	1.414709	0.494659	0.406401
Cl105	Cl	0.874334	0.096964	-0.284570
Cl106	Cl	1.374334	0.596964	0.215430
H107	H	1.378326	0.013866	0.621048
H108	H	1.878326	0.513866	1.121048
Cl109	Cl	1.419440	0.243236	0.643204
Cl110	Cl	1.919440	0.743236	1.143204
H111	H	1.372296	0.017553	0.380883
H112	H	1.872296	0.517553	0.880883
H113	H	1.295819	0.149898	0.380047
H114	H	1.795819	0.649898	0.880047
Cl115	Cl	0.840974	0.225730	-0.141440
Cl116	Cl	1.340974	0.725730	0.358560
Cl117	Cl	1.096033	0.230194	-0.139710
Cl118	Cl	1.596033	0.730194	0.360290
Cl119	Cl	0.901118	-0.022143	0.146833
Cl120	Cl	1.401118	0.477857	0.646833
Cl121	Cl	1.130069	0.102176	-0.283812
Cl122	Cl	1.630069	0.602176	0.216188
H123	H	1.711167	0.079472	0.380494
H124	H	2.211167	0.579472	0.880494
H125	H	0.885379	0.116047	0.230981
H126	H	1.385379	0.616047	0.730981
H127	H	1.295284	0.149839	0.619541
H128	H	1.795284	0.649839	1.119541
H129	H	1.086329	0.198442	0.140553
H130	H	1.586329	0.698442	0.640553
H131	H	0.867922	0.197202	0.131740
H132	H	1.367922	0.697202	0.631740
H133	H	1.716500	-0.122918	0.000113
H134	H	2.216500	0.377082	0.500113
Cl135	Cl	1.756269	-0.554309	0.000067
Cl136	Cl	2.256269	-0.054309	0.500067
H137	H	1.549256	-0.012519	0.618442
H138	H	2.049256	0.487481	1.118442
H139	H	1.293208	-0.226946	0.000036
H140	H	1.793208	0.273054	0.500036
Cl141	Cl	1.580062	-0.038089	0.356918
Cl142	Cl	2.080062	0.461911	0.856918
Cl143	Cl	1.667873	0.201318	0.356458
Cl144	Cl	2.167873	0.701318	0.856458
H145	H	1.284841	-0.538899	-0.000006
H146	H	1.784841	-0.038899	0.499994
Cl147	Cl	1.666432	0.202653	0.638069
Cl148	Cl	2.166432	0.702653	1.138069
H149	H	1.712958	-0.255051	0.000077
H150	H	2.212958	0.244949	0.500077
Cl151	Cl	1.245934	-0.075242	0.000038
Cl152	Cl	1.745934	0.424758	0.500038
H153	H	1.701060	-0.699142	-0.000005
H154	H	2.201060	-0.199142	0.499995
H155	H	1.410915	0.214309	0.380970
H156	H	1.910915	0.714309	0.880970
Cl157	Cl	1.229633	-0.683732	-0.000038
Cl158	Cl	1.729633	-0.183732	0.499962
Cl159	Cl	1.754705	0.058715	0.640274
Cl160	Cl	2.254705	0.558715	1.140274
