data_functionalizedCrystal
_audit_creation_method	'MofGen! by Chris Wilmer'
_symmetry_space_group_name_H-M	'P1'
_symmetry_Int_Tables_number	1
_symmetry_cell_setting	triclinic
loop_
_symmetry_equiv_pos_as_xyz
  x,y,z
_cell_length_a	16.992694
_cell_length_b	8.559649
_cell_length_c	15.455313
_cell_angle_alpha	92.289439
_cell_angle_beta	87.142206
_cell_angle_gamma	80.223444
loop_
_atom_site_label
_atom_site_type_symbol
_atom_site_fract_x
_atom_site_fract_y
_atom_site_fract_z
O1	O	1.023967	0.329735	-0.072017
O2	O	0.795905	0.326044	-0.072043
O3	O	0.930028	0.097853	-0.072027
O4	O	0.889844	0.557925	-0.072033
O5	O	0.922362	0.110845	0.072234
O6	O	0.788239	0.339035	0.072218
O7	O	1.016301	0.342726	0.072244
Cu8	Cu	0.901570	0.342067	0.085403
Cu9	Cu	0.910636	0.326703	-0.085202
O10	O	0.882177	0.570917	0.072228
C11	C	0.763145	0.327794	0.000084
C12	C	0.676954	0.313635	0.000075
C13	C	0.618488	0.450242	0.000073
C14	C	0.537502	0.436931	0.000086
C15	C	0.514985	0.287010	0.000093
C16	C	0.573459	0.150392	0.000096
C17	C	0.654442	0.163706	0.000090
C18	C	0.274709	0.231831	0.000117
C19	C	0.193718	0.218527	0.000120
C20	C	0.157767	0.505067	0.000111
C21	C	0.238755	0.518367	0.000099
C22	C	0.297221	0.381750	0.000108
N23	N	0.432205	0.273400	0.000102
N24	N	0.379998	0.395362	0.000104
C25	C	0.929241	0.045208	0.000102
C26	C	0.938306	-0.131015	0.000099
C27	C	1.049061	0.340976	0.000115
C28	C	1.135252	0.355134	0.000119
C29	C	0.882965	0.623562	0.000097
C30	C	0.873900	0.799784	0.000095
N31	N	0.895199	0.352873	0.205398
N32	N	0.917014	0.315885	-0.205197
C33	C	0.952194	0.255970	0.250799
C34	C	0.947382	0.264158	0.341606
C35	C	0.885578	0.369258	0.387011
C36	C	0.828576	0.466164	0.341604
C37	C	0.833386	0.457968	0.250798
C38	C	0.864822	0.404595	0.658590
C39	C	0.860018	0.412788	0.749402
C40	C	0.978824	0.210778	0.749398
C41	C	0.983631	0.202598	0.658591
C42	C	0.926627	0.299499	0.613191
N43	N	0.880659	0.377633	0.479831
N44	N	0.931543	0.291114	0.520373
H45	H	0.489900	0.548172	0.000084
H46	H	0.811825	-0.124646	0.000091
H47	H	0.702046	0.052465	0.000091
H48	H	0.257081	0.640447	0.000084
H49	H	0.993792	0.185251	0.378571
N50	N	0.642767	0.611948	0.000072
H51	H	0.702942	0.599658	0.000067
H52	H	0.623594	0.667368	-0.053406
N53	N	1.020536	-0.231122	0.000112
H54	H	1.053406	-0.211519	-0.053364
H55	H	1.047654	-0.201822	0.053627
N56	N	0.094717	0.652424	0.000112
H57	H	0.063145	0.648487	-0.053361
H58	H	0.057537	0.658028	0.053630
N59	N	1.040297	0.106265	0.798370
H60	H	1.038954	-0.008856	0.782575
H61	H	1.095220	0.130354	0.782537
N62	N	1.050292	0.089242	0.609620
H63	H	1.085669	0.029093	0.652161
H64	H	1.026725	0.011903	0.571953
H65	H	1.002525	0.170394	0.213836
H66	H	0.555118	0.028324	0.000115
H67	H	0.809687	0.498379	0.786366
H68	H	0.818408	0.483499	0.621633
N69	N	0.169432	0.056818	0.000150
H70	H	0.109257	0.069121	0.000152
H71	H	0.194271	-0.008260	-0.053322
H72	H	0.322303	0.120586	0.000124
H73	H	0.778250	0.551733	0.378578
N74	N	0.771909	0.562475	0.201825
H75	H	0.732026	0.630300	0.244366
H76	H	0.799463	0.633015	0.164137
