data_functionalizedCrystal
_audit_creation_method	'MofGen! by Chris Wilmer'
_symmetry_space_group_name_H-M	'P1'
_symmetry_Int_Tables_number	1
_symmetry_cell_setting	triclinic
loop_
_symmetry_equiv_pos_as_xyz
  x,y,z
_cell_length_a	8.559649
_cell_length_b	10.723024
_cell_length_c	9.198806
_cell_angle_alpha	89.998000
_cell_angle_beta	89.996726
_cell_angle_gamma	77.123267
loop_
_atom_site_label
_atom_site_type_symbol
_atom_site_fract_x
_atom_site_fract_y
_atom_site_fract_z
O1	O	2.119663	-0.042290	-0.120869
O2	O	1.655165	0.022085	-0.120876
O3	O	1.898128	-0.192777	-0.120867
O4	O	1.876699	0.172572	-0.120878
O5	O	1.898110	-0.192776	0.120918
O6	O	1.655147	0.022086	0.120909
O7	O	2.119645	-0.042289	0.120916
Cu8	Cu	1.887394	-0.010101	0.142990
Cu9	Cu	1.887415	-0.010103	-0.142949
O10	O	1.876681	0.172574	0.120907
C11	C	1.595679	0.026964	0.000016
C12	C	1.418458	0.041486	0.000013
C13	C	1.896560	-0.239116	0.000024
C14	C	1.891894	-0.377192	0.000019
C15	C	2.179130	-0.047168	0.000021
C16	C	2.356351	-0.061689	0.000014
C17	C	2.027844	-0.466113	0.000019
C18	C	2.023025	-0.608822	0.000014
C19	C	1.878250	0.218913	0.000013
C20	C	1.882915	0.356989	0.000009
N21	N	1.887391	-0.010102	0.344104
N22	N	1.887431	-0.010113	-0.344063
C23	C	1.794339	-0.072926	0.416336
C24	C	1.794360	-0.072932	0.583748
H25	H	1.438758	-0.161132	0.000010
H26	H	1.336042	0.140935	0.000003
C27	C	2.080997	0.120600	0.329120
C28	C	1.994963	0.062507	0.427918
H29	H	2.147401	0.165432	0.380864
H30	H	2.145635	0.056928	0.269750
H31	H	2.008295	0.178853	0.269757
H32	H	2.067665	0.004246	0.487274
H33	H	1.930319	0.126187	0.487314
H34	H	2.147803	-0.436589	0.000030
C35	C	1.595313	-0.598849	0.000007
C36	C	1.725783	-0.539939	0.000011
H37	H	1.498309	-0.535208	0.000017
H38	H	1.599569	-0.650629	-0.084307
H39	H	1.599567	-0.650647	0.084326
H40	H	1.721536	-0.488148	-0.084314
H41	H	1.721525	-0.488137	0.084333
C42	C	2.186388	-0.788229	-0.124290
C43	C	2.180152	-0.711900	0.000007
H44	H	2.283401	-0.851860	-0.124296
H45	H	2.097875	-0.828176	-0.124279
H46	H	2.182144	-0.736413	-0.208593
H47	H	2.184384	-0.763714	0.084312
H48	H	2.268689	-0.671951	0.000010
C49	C	1.526217	-0.095713	0.369217
C50	C	1.686766	-0.145530	0.332515
H51	H	1.459807	-0.140534	0.317462
H52	H	1.512128	-0.105253	0.470712
H53	H	1.497828	-0.007568	0.344343
H54	H	1.715159	-0.233674	0.357399
H55	H	1.700863	-0.136001	0.230997
H56	H	1.771935	-0.406716	0.000008
H57	H	1.714699	-0.126721	0.645866
H58	H	1.967106	0.043671	0.593828
