data_functionalizedCrystal
_audit_creation_method	'MofGen! by Chris Wilmer'
_symmetry_space_group_name_H-M	'P1'
_symmetry_Int_Tables_number	1
_symmetry_cell_setting	triclinic
loop_
_symmetry_equiv_pos_as_xyz
  x,y,z
_cell_length_a	14.519709
_cell_length_b	14.421503
_cell_length_c	14.519709
_cell_angle_alpha	89.999403
_cell_angle_beta	83.680145
_cell_angle_gamma	89.987312
loop_
_atom_site_label
_atom_site_type_symbol
_atom_site_fract_x
_atom_site_fract_y
_atom_site_fract_z
O1	O	1.223853	0.076993	0.120884
O2	O	1.473853	0.326993	0.370884
O3	O	1.723853	0.576993	0.620884
O4	O	1.973853	0.826993	0.870884
O5	O	0.955376	0.077022	0.135121
O6	O	1.205376	0.327022	0.385121
O7	O	1.455376	0.577022	0.635121
O8	O	1.705376	0.827022	0.885121
O9	O	1.096733	0.076998	-0.006236
O10	O	1.346733	0.326998	0.243764
O11	O	1.596733	0.576998	0.493764
O12	O	1.846733	0.826998	0.743764
O13	O	1.082496	0.077016	0.262241
O14	O	1.332496	0.327016	0.512241
O15	O	1.582496	0.577016	0.762241
O16	O	1.832496	0.827016	1.012241
O17	O	1.096750	-0.077225	-0.006227
O18	O	1.346750	0.172775	0.243773
O19	O	1.596750	0.422775	0.493773
O20	O	1.846750	0.672775	0.743773
O21	O	0.955393	-0.077202	0.135130
O22	O	1.205393	0.172798	0.385130
O23	O	1.455393	0.422798	0.635130
O24	O	1.705393	0.672798	0.885130
O25	O	1.223870	-0.077230	0.120894
O26	O	1.473870	0.172770	0.370894
O27	O	1.723870	0.422770	0.620894
O28	O	1.973870	0.672770	0.870894
Cu29	Cu	1.089633	-0.091298	0.128013
Cu30	Cu	1.339633	0.158702	0.378013
Cu31	Cu	1.589633	0.408702	0.628013
Cu32	Cu	1.839633	0.658702	0.878013
Cu33	Cu	1.089613	0.091089	0.128002
Cu34	Cu	1.339613	0.341089	0.378002
Cu35	Cu	1.589613	0.591089	0.628002
Cu36	Cu	1.839613	0.841089	0.878002
O37	O	1.082513	-0.077207	0.262250
O38	O	1.332513	0.172793	0.512250
O39	O	1.582513	0.422793	0.762250
O40	O	1.832513	0.672793	1.012250
C41	C	0.921025	-0.000087	0.134462
C42	C	1.171025	0.249913	0.384462
C43	C	1.421025	0.499913	0.634462
C44	C	1.671025	0.749913	0.884462
C45	C	0.818643	-0.000076	0.132474
C46	C	1.068643	0.249924	0.382474
C47	C	1.318643	0.499924	0.632474
C48	C	1.568643	0.749924	0.882474
N49	N	1.089654	-0.219579	0.128020
N50	N	1.339654	0.030421	0.378020
N51	N	1.589654	0.280421	0.628020
N52	N	1.839654	0.530421	0.878020
C53	C	0.443748	-0.000119	0.125154
C54	C	0.693748	0.249881	0.375154
C55	C	0.943748	0.499881	0.625154
C56	C	1.193748	0.749881	0.875154
C57	C	0.548056	-0.000106	0.127187
C58	C	0.798056	0.249894	0.377187
C59	C	1.048056	0.499894	0.627187
C60	C	1.298056	0.749894	0.877187
C61	C	0.631192	-0.000096	0.128814
C62	C	0.881192	0.249904	0.378814
C63	C	1.131192	0.499904	0.628814
C64	C	1.381192	0.749904	0.878814
C65	C	0.735507	-0.000086	0.130847
C66	C	0.985507	0.249914	0.380847
C67	C	1.235507	0.499914	0.630847
C68	C	1.485507	0.749914	0.880847
C69	C	1.155032	-0.469219	0.062642
C70	C	1.405032	-0.219219	0.312642
C71	C	1.655032	0.030781	0.562642
C72	C	1.905032	0.280781	0.812642
C73	C	1.071670	-0.531008	0.044594
C74	C	1.321670	-0.281008	0.294594
C75	C	1.571670	-0.031008	0.544594
C76	C	1.821670	0.218992	0.794594
C77	C	1.089634	-0.408741	0.128009
C78	C	1.339634	-0.158741	0.378009
C79	C	1.589634	0.091259	0.628009
C80	C	1.839634	0.341259	0.878009
C81	C	1.172975	-0.531045	0.146003
C82	C	1.422975	-0.281045	0.396003
C83	C	1.672975	-0.031045	0.646003
C84	C	1.922975	0.218955	0.896003
C85	C	1.089621	-0.591462	0.127996
C86	C	1.339621	-0.341462	0.377996
C87	C	1.589621	-0.091462	0.627996
C88	C	1.839621	0.158538	0.877996
C89	C	1.006230	-0.469169	0.109919
C90	C	1.256230	-0.219169	0.359919
C91	C	1.506230	0.030831	0.609919
C92	C	1.756230	0.280831	0.859919
C93	C	1.107590	-0.469201	0.211364
C94	C	1.357590	-0.219201	0.461364
C95	C	1.607590	0.030799	0.711364
C96	C	1.857590	0.280799	0.961364
C97	C	1.024168	-0.530962	0.193352
C98	C	1.274168	-0.280962	0.443352
C99	C	1.524168	-0.030962	0.693352
C100	C	1.774168	0.219038	0.943352
C101	C	1.089642	-0.303480	0.128014
C102	C	1.339642	-0.053480	0.378014
C103	C	1.589642	0.196520	0.628014
C104	C	1.839642	0.446520	0.878014
C105	C	1.089603	-0.696721	0.127991
C106	C	1.339603	-0.446721	0.377991
C107	C	1.589603	-0.196721	0.627991
C108	C	1.839603	0.053279	0.877991
C109	C	1.258221	-0.000120	0.121553
C110	C	1.508221	0.249880	0.371553
C111	C	1.758221	0.499880	0.621553
C112	C	2.008221	0.749880	0.871553
C113	C	1.360602	-0.000125	0.123541
C114	C	1.610602	0.249875	0.373541
C115	C	1.860602	0.499875	0.623541
C116	C	2.110602	0.749875	0.873541
C117	C	1.096078	-0.000114	-0.040591
C118	C	1.346078	0.249886	0.209409
C119	C	1.596078	0.499886	0.459409
C120	C	1.846078	0.749886	0.709409
C121	C	1.094090	-0.000114	-0.142972
C122	C	1.344090	0.249886	0.107028
C123	C	1.594090	0.499886	0.357028
C124	C	1.844090	0.749886	0.607028
N125	N	1.089599	0.219370	0.127987
N126	N	1.339599	0.469370	0.377987
N127	N	1.589599	0.719370	0.627987
N128	N	1.839599	0.969370	0.877987
C129	C	1.086770	-0.000089	-0.517868
C130	C	1.336770	0.249911	-0.267868
C131	C	1.586770	0.499911	-0.017868
C132	C	1.836770	0.749911	0.232132
C133	C	1.088803	-0.000096	-0.413560
C134	C	1.338803	0.249904	-0.163560
C135	C	1.588803	0.499904	0.086440
C136	C	1.838803	0.749904	0.336440
C137	C	1.090430	-0.000102	-0.330423
C138	C	1.340430	0.249898	-0.080423
C139	C	1.590430	0.499898	0.169577
C140	C	1.840430	0.749898	0.419577
C141	C	1.092463	-0.000108	-0.226109
C142	C	1.342463	0.249892	0.023891
C143	C	1.592463	0.499892	0.273891
C144	C	1.842463	0.749892	0.523891
C145	C	1.083168	-0.000093	0.296606
C146	C	1.333168	0.249907	0.546606
C147	C	1.583168	0.499907	0.796606
C148	C	1.833168	0.749907	1.046606
C149	C	1.085156	-0.000087	0.398987
C150	C	1.335156	0.249913	0.648987
C151	C	1.585156	0.499913	0.898987
C152	C	1.835156	0.749913	1.148987
H153	H	1.210278	-0.442108	0.007333
H154	H	1.460278	-0.192108	0.257333
H155	H	1.710278	0.057892	0.507333
H156	H	1.960278	0.307892	0.757333
H157	H	1.122816	-0.442031	0.281840
H158	H	1.372816	-0.192031	0.531840
H159	H	1.622816	0.057969	0.781840
H160	H	1.872816	0.307969	1.031840
F161	F	0.914078	-0.433797	0.089912
F162	F	1.164078	-0.183797	0.339912
F163	F	1.414078	0.066203	0.589912
F164	F	1.664078	0.316203	0.839912
F165	F	0.951798	-0.566176	0.265603
F166	F	1.201798	-0.316176	0.515603
F167	F	1.451798	-0.066176	0.765603
F168	F	1.701798	0.183824	1.015603
H169	H	1.056470	-0.558158	-0.025903
H170	H	1.306470	-0.308158	0.224097
H171	H	1.556470	-0.058158	0.474097
H172	H	1.806470	0.191842	0.724097
F173	F	1.265104	-0.566575	0.165902
F174	F	1.515104	-0.316575	0.415902
F175	F	1.765104	-0.066575	0.665902
F176	F	2.015104	0.183425	0.915902
