data_functionalizedCrystal
_audit_creation_method	'MofGen! by Chris Wilmer'
_symmetry_space_group_name_H-M	'P1'
_symmetry_Int_Tables_number	1
_symmetry_cell_setting	triclinic
loop_
_symmetry_equiv_pos_as_xyz
  x,y,z
_cell_length_a	6.817900
_cell_length_b	19.453114
_cell_length_c	14.858565
_cell_angle_alpha	95.586354
_cell_angle_beta	104.523916
_cell_angle_gamma	101.709288
loop_
_atom_site_label
_atom_site_type_symbol
_atom_site_fract_x
_atom_site_fract_y
_atom_site_fract_z
V1	V	-4.012078	-0.219196	-0.129639
O2	O	-3.994529	-0.214822	0.005233
O3	O	-3.968832	-0.217891	-0.256094
O4	O	-3.954929	-0.314707	-0.128082
O5	O	-4.008528	-0.117336	-0.123665
V6	V	-4.496171	-0.206989	-0.113455
O7	O	-4.272084	-0.245973	-0.165140
O8	O	-4.686362	-0.180213	-0.077954
O9	O	-4.316211	-0.208295	0.013000
O10	O	-4.631117	-0.211364	-0.248328
O11	O	-4.617118	-0.308850	-0.119429
O12	O	-4.330113	-0.111479	-0.115012
C13	C	-3.815370	-0.214483	-0.286908
C14	C	-3.861240	-0.214052	-0.390289
C15	C	-4.029129	-0.212486	-0.768853
C16	C	-3.982409	-0.212921	-0.663525
C17	C	-3.945185	-0.213268	-0.579575
C18	C	-3.898463	-0.213705	-0.474240
C19	C	-3.797635	-0.337981	-0.123614
C20	C	-3.832227	-0.416062	-0.123178
C21	C	-4.030451	-0.456326	-0.127641
C22	C	-4.062955	-0.529692	-0.127231
C23	C	-3.897233	-0.562794	-0.122377
C24	C	-3.698978	-0.522520	-0.117908
C25	C	-3.666475	-0.449154	-0.118309
N26	N	-3.839491	-0.681658	-0.171490
N27	N	-3.870381	-0.751353	-0.171112
C28	C	-3.995150	-0.783840	-0.121168
N29	N	-4.087898	-0.744002	-0.071629
N30	N	-4.057014	-0.674301	-0.072012
C31	C	-3.932456	-0.642346	-0.121942
C32	C	-4.228630	-0.903656	-0.125186
C33	C	-4.261124	-0.977023	-0.124770
C34	C	-3.897146	-0.969850	-0.115456
C35	C	-3.864653	-0.896484	-0.115863
C36	C	-4.030405	-0.863392	-0.120732
C37	C	-4.133015	-0.211701	0.043809
C38	C	-4.066383	-0.212136	0.147189
C39	C	-4.150751	-0.088201	-0.119483
C40	C	-4.095396	-0.010119	-0.119914
H41	H	-4.165421	-0.429387	-0.131603
H42	H	-4.422541	-1.009804	-0.128398
C43	C	-4.281032	-0.573992	-0.132152
N44	N	-4.445290	-0.607358	-0.135862
H45	H	-3.564046	-0.549475	-0.113953
H46	H	-3.505052	-0.416370	-0.114667
C47	C	-4.410951	-0.867251	-0.130530
N48	N	-4.548277	-0.839833	-0.134553
H49	H	-3.762206	-0.996800	-0.111496
H50	H	-3.703244	-0.863701	-0.112238
