data_functionalizedCrystal
_audit_creation_method	'MofGen! by Chris Wilmer'
_symmetry_space_group_name_H-M	'P1'
_symmetry_Int_Tables_number	1
_symmetry_cell_setting	triclinic
loop_
_symmetry_equiv_pos_as_xyz
  x,y,z
_cell_length_a	27.732048
_cell_length_b	27.731996
_cell_length_c	22.010155
_cell_angle_alpha	89.998256
_cell_angle_beta	89.997107
_cell_angle_gamma	82.632022
loop_
_atom_site_label
_atom_site_type_symbol
_atom_site_fract_x
_atom_site_fract_y
_atom_site_fract_z
O1	O	0.640920	0.057512	-0.050455
O2	O	0.974253	0.390845	0.282879
O3	O	1.307587	0.724178	0.616212
O4	O	0.500125	0.066257	-0.050474
O5	O	0.833458	0.399591	0.282859
O6	O	1.166792	0.732924	0.616193
O7	O	0.574908	-0.008514	-0.050451
O8	O	0.908242	0.324819	0.282883
O9	O	1.241575	0.658153	0.616216
O10	O	0.566136	0.132283	-0.050478
O11	O	0.899470	0.465616	0.282855
O12	O	1.232803	0.798950	0.616189
O13	O	0.574895	-0.008503	0.050600
O14	O	0.908228	0.324831	0.383933
O15	O	1.241561	0.658164	0.717266
O16	O	0.500111	0.066269	0.050576
O17	O	0.833445	0.399602	0.383910
O18	O	1.166778	0.732935	0.717243
O19	O	0.640906	0.057523	0.050596
O20	O	0.974240	0.390856	0.383929
O21	O	1.307573	0.724190	0.717262
Cu22	Cu	0.570508	0.061897	0.059813
Cu23	Cu	0.903841	0.395230	0.393146
Cu24	Cu	1.237174	0.728564	0.726479
Cu25	Cu	0.570524	0.061884	-0.059691
Cu26	Cu	0.903857	0.395217	0.273642
Cu27	Cu	1.237190	0.728550	0.606976
O28	O	0.566123	0.132294	0.050572
O29	O	0.899456	0.465628	0.383906
O30	O	1.232790	0.798961	0.717239
C31	C	0.482111	0.066079	0.000049
C32	C	0.815445	0.399413	0.333382
C33	C	1.148778	0.732746	0.666715
C34	C	0.428456	0.065527	0.000042
C35	C	0.761790	0.398860	0.333375
C36	C	1.095123	0.732193	0.666709
C37	C	0.574721	-0.026516	0.000077
C38	C	0.908055	0.306818	0.333410
C39	C	1.241388	0.640151	0.666743
C40	C	0.574179	-0.080172	0.000083
C41	C	0.907512	0.253161	0.333416
C42	C	1.240845	0.586495	0.666749
C43	C	0.089634	0.106232	0.000060
C44	C	0.422967	0.439565	0.333394
C45	C	0.756300	0.772898	0.666727
C46	C	-0.112026	0.104180	0.000066
C47	C	0.221308	0.437514	0.333399
C48	C	0.554641	0.770847	0.666733
O49	O	-0.143288	0.141402	0.000085
O50	O	0.190045	0.474735	0.333419
O51	O	0.523379	0.808069	0.666752
N52	N	-0.131141	0.059844	0.000074
N53	N	0.202192	0.393177	0.333407
N54	N	0.535526	0.726511	0.666740
C55	C	-0.099838	0.016017	0.000084
C56	C	0.233495	0.349351	0.333417
C57	C	0.566829	0.682684	0.666750
O58	O	-0.120724	-0.021740	0.000097
O59	O	0.212609	0.311593	0.333430
O60	O	0.545943	0.644926	0.666763
C61	C	0.101820	0.018069	0.000082
C62	C	0.435153	0.351402	0.333416
C63	C	0.768487	0.684736	0.666749
C64	C	0.120933	0.062408	0.000069
C65	C	0.454266	0.395742	0.333402
C66	C	0.787599	0.729075	0.666735
C67	C	0.108747	0.150567	0.000047
C68	C	0.442080	0.483900	0.333381
C69	C	0.775413	0.817234	0.666714
C70	C	0.159159	0.151079	0.000042
C71	C	0.492492	0.484413	0.333376
C72	C	0.825825	0.817746	0.666709
C73	C	0.190457	0.107256	0.000051
C74	C	0.523791	0.440589	0.333384
C75	C	0.857124	0.773923	0.666717
C76	C	0.171344	0.062920	0.000064
C77	C	0.504678	0.396254	0.333397
C78	C	0.838011	0.729587	0.666730
C79	C	0.133122	-0.025757	0.000097
C80	C	0.466455	0.307576	0.333430
C81	C	0.799789	0.640909	0.666763
C82	C	0.183539	-0.025240	0.000098
C83	C	0.516873	0.308093	0.333431
C84	C	0.850206	0.641426	0.666765
C85	C	0.202652	0.019099	0.000084
C86	C	0.535985	0.352432	0.333418
C87	C	0.869318	0.685765	0.666751
C88	C	0.253055	0.019609	0.000067
C89	C	0.586388	0.352943	0.333401
C90	C	0.919722	0.686276	0.666734
N91	N	0.272171	0.063946	0.000060
N92	N	0.605504	0.397279	0.333393
N93	N	0.938837	0.730612	0.666726
C94	C	0.240872	0.107769	0.000051
C95	C	0.574205	0.441102	0.333385
C96	C	0.907538	0.774436	0.666718
C97	C	-0.205712	0.014943	0.000083
C98	C	0.127621	0.348277	0.333417
C99	C	0.460955	0.681610	0.666750
C100	C	-0.256126	0.014430	0.000083
C101	C	0.077207	0.347764	0.333416
C102	C	0.410540	0.681097	0.666749
C103	C	-0.268310	0.102594	0.000066
C104	C	0.065023	0.435927	0.333399
C105	C	0.398356	0.769260	0.666733
C106	C	-0.217895	0.103106	0.000062
C107	C	0.115438	0.436440	0.333396
C108	C	0.448772	0.769773	0.666729
C109	C	-0.186597	0.059280	0.000076
C110	C	0.146737	0.392613	0.333409
C111	C	0.480070	0.725946	0.666742
C112	C	0.346741	0.108842	0.000041
C113	C	0.680074	0.442175	0.333374
C114	C	1.013407	0.775508	0.666708
C115	C	0.397158	0.109350	0.000034
C116	C	0.730491	0.442683	0.333367
C117	C	1.063824	0.776017	0.666700
C118	C	0.409337	0.021187	0.000053
C119	C	0.742670	0.354520	0.333387
C120	C	1.076004	0.687854	0.666720
C121	C	0.358925	0.020678	0.000057
C122	C	0.692258	0.354012	0.333391
C123	C	1.025591	0.687345	0.666724
C124	C	0.327627	0.064510	0.000053
C125	C	0.660961	0.397843	0.333387
C126	C	0.994294	0.731176	0.666720
O127	O	0.284346	-0.017592	0.000055
O128	O	0.617679	0.315741	0.333388
O129	O	0.951013	0.649074	0.666722
O130	O	0.261767	0.145521	0.000052
O131	O	0.595101	0.478855	0.333385
O132	O	0.928434	0.812188	0.666719
C133	C	0.039222	0.105719	0.000065
C134	C	0.372555	0.439053	0.333398
C135	C	0.705889	0.772386	0.666732
C136	C	0.020109	0.061384	0.000078
C137	C	0.353442	0.394717	0.333411
C138	C	0.686776	0.728050	0.666745
C139	C	0.051408	0.017560	0.000086
C140	C	0.384741	0.350894	0.333420
C141	C	0.718074	0.684227	0.666753
C142	C	-0.030305	0.060871	0.000077
C143	C	0.303028	0.394204	0.333411
C144	C	0.636361	0.727537	0.666744
C145	C	-0.061604	0.104694	0.000069
C146	C	0.271729	0.438027	0.333402
C147	C	0.605062	0.771361	0.666736
C148	C	-0.042489	0.149030	0.000062
C149	C	0.290844	0.482364	0.333395
C150	C	0.624178	0.815697	0.666728
C151	C	0.007923	0.149543	0.000057
C152	C	0.341256	0.482876	0.333390
C153	C	0.674590	0.816209	0.666723
C154	C	0.032292	-0.026776	0.000094
C155	C	0.365626	0.306557	0.333427
C156	C	0.698959	0.639891	0.666761
C157	C	-0.018120	-0.027285	0.000098
C158	C	0.315213	0.306049	0.333431
C159	C	0.648547	0.639382	0.666765
C160	C	-0.049419	0.016539	0.000090
C161	C	0.283914	0.349872	0.333423
C162	C	0.617248	0.683205	0.666756
C163	C	0.570771	-0.412894	-0.055030
C164	C	0.904105	-0.079561	0.278303
C165	C	1.237438	0.253772	0.611637
C166	C	0.568710	-0.614553	-0.055041
C167	C	0.902044	-0.281219	0.278292
C168	C	1.235377	0.052114	0.611626
O169	O	0.568429	-0.640628	-0.101887
O170	O	0.901763	-0.307295	0.231446
O171	O	1.235096	0.026038	0.564780
N172	N	0.568447	-0.639764	0.000041
N173	N	0.901780	-0.306430	0.333374
N174	N	1.235114	0.026903	0.666708
C175	C	0.568696	-0.614557	0.055130
C176	C	0.902029	-0.281223	0.388463
C177	C	1.235362	0.052110	0.721796
O178	O	0.568419	-0.640627	0.101980
O179	O	0.901753	-0.307293	0.435313
O180	O	1.235086	0.026040	0.768647
C181	C	0.570753	-0.412899	0.055140
C182	C	0.904086	-0.079565	0.388473
C183	C	1.237420	0.253768	0.721807
C184	C	0.571021	-0.387691	0.000054
C185	C	0.904355	-0.054358	0.333388
C186	C	1.237688	0.278976	0.666721
C187	C	0.571039	-0.387687	-0.110111
C188	C	0.904372	-0.054353	0.223222
C189	C	1.237706	0.278980	0.556556
C190	C	0.571557	-0.337275	-0.110108
C191	C	0.904890	-0.003942	0.223226
C192	C	1.238224	0.329391	0.556559
C193	C	0.571807	-0.312072	-0.055023
C194	C	0.905140	0.021261	0.278310
C195	C	1.238474	0.354595	0.611643
C196	C	0.571539	-0.337280	0.000058
C197	C	0.904873	-0.003947	0.333391
C198	C	1.238206	0.329387	0.666724
C199	C	0.570998	-0.387692	0.110228
C200	C	0.904332	-0.054359	0.443561
C201	C	1.237665	0.278975	0.776895
C202	C	0.571512	-0.337274	0.110226
C203	C	0.904845	-0.003941	0.443559
C204	C	1.238178	0.329392	0.776892
C205	C	0.571780	-0.312067	0.055140
C206	C	0.905113	0.021267	0.388473
C207	C	1.238446	0.354600	0.721807
C208	C	0.572307	-0.261665	0.055145
C209	C	0.905641	0.071668	0.388479
C210	C	1.238974	0.405001	0.721812
N211	N	0.572571	-0.236454	0.000063
N212	N	0.905904	0.096879	0.333397
N213	N	1.239237	0.430212	0.666730
C214	C	0.572321	-0.261658	-0.055021
C215	C	0.905654	0.071676	0.278312
C216	C	1.238987	0.405009	0.611646
C217	C	0.567616	-0.720430	0.055120
C218	C	0.900950	-0.387097	0.388454
C219	C	1.234283	-0.053763	0.721787
C220	C	0.567103	-0.770844	0.055118
C221	C	0.900436	-0.437511	0.388451
C222	C	1.233769	-0.104178	0.721785
C223	C	0.567117	-0.770837	-0.055053
C224	C	0.900450	-0.437503	0.278280
C225	C	1.233783	-0.104170	0.611614
C226	C	0.567634	-0.720422	-0.055050
C227	C	0.900967	-0.387089	0.278283
C228	C	1.234300	-0.053755	0.611617
C229	C	0.567880	-0.695219	0.000038
C230	C	0.901213	-0.361886	0.333372
C231	C	1.234546	-0.028552	0.666705
C232	C	0.573409	-0.155791	-0.055010
C233	C	0.906742	0.177543	0.278323
C234	C	1.240075	0.510876	0.611657
C235	C	0.573928	-0.105375	-0.055002
C236	C	0.907262	0.227958	0.278332
C237	C	1.240595	0.561291	0.611665
C238	C	0.573912	-0.105387	0.055169
C239	C	0.907245	0.227946	0.388502
C240	C	1.240579	0.561280	0.721835
C241	C	0.573395	-0.155798	0.055161
C242	C	0.906728	0.177535	0.388494
C243	C	1.240061	0.510868	0.721828
C244	C	0.573141	-0.180999	0.000067
C245	C	0.906475	0.152335	0.333400
C246	C	1.239808	0.485668	0.666733
O247	O	0.572583	-0.235558	0.101967
O248	O	0.905916	0.097776	0.435300
O249	O	1.239250	0.431109	0.768634
O250	O	0.572586	-0.235578	-0.101864
O251	O	0.905919	0.097756	0.231469
O252	O	1.239253	0.431089	0.564802
C253	C	0.570253	-0.463306	-0.055033
C254	C	0.903587	-0.129972	0.278300
C255	C	1.236920	0.203361	0.611633
C256	C	0.569986	-0.488513	0.000048
C257	C	0.903319	-0.155180	0.333381
C258	C	1.236652	0.178153	0.666715
C259	C	0.570236	-0.463310	0.055132
C260	C	0.903569	-0.129977	0.388466
C261	C	1.236902	0.203357	0.721799
C262	C	0.569472	-0.538928	0.000045
C263	C	0.902805	-0.205594	0.333379
C264	C	1.236139	0.127739	0.666712
C265	C	0.569222	-0.564131	-0.055039
C266	C	0.902555	-0.230798	0.278294
C267	C	1.235889	0.102536	0.611628
C268	C	0.569485	-0.538920	-0.110121
C269	C	0.902819	-0.205587	0.223212
C270	C	1.236152	0.127747	0.556546
C271	C	0.570003	-0.488509	-0.110118
C272	C	0.903337	-0.155176	0.223216
C273	C	1.236670	0.178158	0.556549
C274	C	0.569972	-0.488521	0.110214
C275	C	0.903306	-0.155188	0.443548
C276	C	1.236639	0.178146	0.776881
C277	C	0.569455	-0.538932	0.110206
C278	C	0.902788	-0.205599	0.443540
C279	C	1.236122	0.127734	0.776873
C280	C	0.569205	-0.564136	0.055122
C281	C	0.902538	-0.230802	0.388455
C282	C	1.235872	0.102531	0.721789
C283	C	0.658920	0.057701	0.000072
C284	C	0.992253	0.391034	0.333405
C285	C	1.325587	0.724368	0.666738
C286	C	0.712575	0.058254	0.000074
C287	C	1.045908	0.391587	0.333408
C288	C	1.379241	0.724920	0.666741
C289	C	0.566310	0.150296	0.000044
C290	C	0.899643	0.483629	0.333377
C291	C	1.232977	0.816963	0.666710
C292	C	0.566853	0.203952	0.000034
C293	C	0.900186	0.537286	0.333367
C294	C	1.233519	0.870619	0.666700
N295	N	0.570500	0.061906	0.143865
N296	N	0.903833	0.395239	0.477199
N297	N	1.237167	0.728573	0.810532
N298	N	0.570535	0.061871	-0.143744
N299	N	0.903869	0.395204	0.189590
N300	N	1.237202	0.728537	0.522923
C301	C	0.603640	0.028779	0.563655
C302	C	0.936973	0.362113	0.896988
C303	C	1.270306	0.695446	1.230322
C304	C	0.603642	0.028776	0.627263
C305	C	0.936975	0.362109	0.960596
C306	C	1.270309	0.695443	1.293929
O307	O	0.631799	0.000617	0.660163
O308	O	0.965132	0.333951	0.993496
O309	O	1.298466	0.667284	1.326830
N310	N	0.570523	0.061873	0.659072
N311	N	0.903857	0.395207	0.992406
N312	N	1.237190	0.728540	1.325739
C313	C	0.537397	0.094973	0.627271
C314	C	0.870731	0.428306	0.960604
C315	C	1.204064	0.761640	1.293938
O316	O	0.509227	0.123124	0.660168
O317	O	0.842561	0.456458	0.993502
O318	O	1.175894	0.789791	1.326835
C319	C	0.537393	0.094974	0.563665
C320	C	0.870726	0.428307	0.896998
C321	C	1.204060	0.761640	1.230331
C322	C	0.570517	0.061877	0.531858
C323	C	0.903850	0.395211	0.865192
C324	C	1.237184	0.728544	1.198525
C325	C	0.636760	-0.004314	0.531848
C326	C	0.970094	0.329019	0.865182
C327	C	1.303427	0.662352	1.198515
C328	C	0.636759	-0.004310	0.468245
C329	C	0.970092	0.329023	0.801579
C330	C	1.303425	0.662356	1.134912
C331	C	0.603636	0.028788	0.436449
C332	C	0.936969	0.362121	0.769782
C333	C	1.270303	0.695454	1.103115
C334	C	0.570515	0.061881	0.468255
C335	C	0.903849	0.395215	0.801588
C336	C	1.237182	0.728548	1.134922
C337	C	0.504265	0.128071	0.531865
C338	C	0.837598	0.461404	0.865198
C339	C	1.170932	0.794737	1.198531
C340	C	0.504263	0.128068	0.468254
C341	C	0.837597	0.461401	0.801587
C342	C	1.170930	0.794735	1.134921
C343	C	0.537387	0.094972	0.436447
C344	C	0.870721	0.428305	0.769781
C345	C	1.204054	0.761639	1.103114
C346	C	0.537391	0.094984	0.372855
C347	C	0.870724	0.428317	0.706188
C348	C	1.204057	0.761650	1.039522
N349	N	0.570509	0.061886	0.341045
N350	N	0.903843	0.395220	0.674379
N351	N	1.237176	0.728553	1.007712
C352	C	0.603632	0.028788	0.372842
C353	C	0.936965	0.362122	0.706175
C354	C	1.270299	0.695455	1.039509
C355	C	0.537408	0.094969	0.760849
C356	C	0.870741	0.428302	1.094182
C357	C	1.204075	0.761635	1.427516
C358	C	0.537414	0.094971	0.824454
C359	C	0.870747	0.428304	1.157788
C360	C	1.204081	0.761637	1.491121
C361	C	0.603658	0.028773	0.824441
C362	C	0.936992	0.362106	1.157775
C363	C	1.270325	0.695440	1.491108
C364	C	0.603654	0.028774	0.760835
C365	C	0.936987	0.362107	1.094168
C366	C	1.270321	0.695440	1.427501
C367	C	0.570526	0.061871	0.729039
C368	C	0.903860	0.395205	1.062373
C369	C	1.237193	0.728538	1.395706
C370	C	0.603626	0.028800	0.239271
C371	C	0.936959	0.362133	0.572604
C372	C	1.270293	0.695466	0.905937
C373	C	0.603622	0.028808	0.175662
C374	C	0.936956	0.362141	0.508995
C375	C	1.270289	0.695475	0.842329
C376	C	0.537377	0.095004	0.175680
C377	C	0.870710	0.428337	0.509014
C378	C	1.204044	0.761670	0.842347
C379	C	0.537382	0.094997	0.239284
C380	C	0.870715	0.428331	0.572617
C381	C	1.204048	0.761664	0.905950
C382	C	0.570508	0.061891	0.271077
C383	C	0.903841	0.395224	0.604411
C384	C	1.237175	0.728558	0.937744
O385	O	0.509247	0.123127	0.339914
O386	O	0.842580	0.456460	0.673248
O387	O	1.175913	0.789793	1.006581
O388	O	0.631793	0.000637	0.339937
O389	O	0.965126	0.333971	0.673270
O390	O	1.298460	0.667304	1.006604
H391	H	0.412716	0.145458	0.000022
H392	H	0.746049	0.478791	0.333355
H393	H	1.079382	0.812125	0.666689
H394	H	0.477292	0.155020	0.557753
H395	H	0.810626	0.488353	0.891086
H396	H	1.143959	0.821687	1.224419
H397	H	0.510433	0.121925	0.734964
H398	H	0.843766	0.455258	1.068297
H399	H	1.177099	0.788591	1.401631
H400	H	0.566892	-0.791365	0.099974
H401	H	0.900225	-0.458032	0.433308
H402	H	1.233558	-0.124699	0.766641
C403	C	0.640061	-0.007604	0.140679
C404	C	0.973394	0.325730	0.474012
C405	C	1.306728	0.659063	0.807345
N406	N	0.667505	-0.035030	0.114331
N407	N	1.000838	0.298304	0.447665
N408	N	1.334172	0.631637	0.780998
C409	C	0.312320	0.157058	0.000033
C410	C	0.645654	0.490392	0.333366
C411	C	0.978987	0.823725	0.666700
N412	N	0.286395	0.193375	0.000022
N413	N	0.619729	0.526709	0.333356
N414	N	0.953062	0.860042	0.666689
C415	C	-0.196876	0.151882	0.000054
C416	C	0.136457	0.485215	0.333387
C417	C	0.469790	0.818549	0.666721
N418	N	-0.181048	0.188622	0.000050
N419	N	0.152285	0.521956	0.333384
N420	N	0.485619	0.855289	0.666717
C421	C	0.567924	-0.692698	-0.115648
C422	C	0.901258	-0.359364	0.217686
C423	C	1.234591	-0.026031	0.551019
N424	N	0.568141	-0.671818	-0.161293
N425	N	0.901475	-0.338484	0.172041
N426	N	1.234808	-0.005151	0.505374
C427	C	0.180175	0.199856	0.000040
C428	C	0.513508	0.533190	0.333374
C429	C	0.846842	0.866523	0.666707
N430	N	0.196001	0.236598	0.000043
N431	N	0.529335	0.569931	0.333377
N432	N	0.862668	0.903265	0.666710
C433	C	0.570785	-0.415405	-0.170714
C434	C	0.904118	-0.082072	0.162620
C435	C	1.237451	0.251262	0.495953
N436	N	0.570604	-0.436281	-0.216364
N437	N	0.903937	-0.102948	0.116970
N438	N	1.237271	0.230386	0.450303
H439	H	0.570221	-0.467989	-0.154974
H440	H	0.903555	-0.134656	0.178359
H441	H	1.236888	0.198677	0.511693
H442	H	0.566913	-0.791366	-0.099905
H443	H	0.900247	-0.458033	0.233428
H444	H	1.233580	-0.124699	0.566762
H445	H	-0.293803	0.138276	0.000060
H446	H	0.039531	0.471610	0.333393
H447	H	0.372864	0.804943	0.666726
C448	C	0.066715	-0.074988	0.000100
C449	C	0.400048	0.258345	0.333434
C450	C	0.733382	0.591679	0.666767
N451	N	0.092641	-0.111305	0.000101
N452	N	0.425974	0.222029	0.333434
N453	N	0.759307	0.555362	0.666768
C454	C	0.217965	-0.073454	0.000110
C455	C	0.551298	0.259879	0.333443
C456	C	0.884632	0.593212	0.666777
N457	N	0.243893	-0.109769	0.000117
N458	N	0.577227	0.223564	0.333450
N459	N	0.910560	0.556898	0.666783
H460	H	0.573181	-0.176324	0.100016
H461	H	0.906514	0.157009	0.433349
H462	H	1.239847	0.490343	0.766683
C463	C	-0.039137	-0.076065	0.000117
C464	C	0.294196	0.257268	0.333450
C465	C	0.627530	0.590602	0.666783
N466	N	-0.054965	-0.112805	0.000138
N467	N	0.278368	0.220528	0.333471
N468	N	0.611701	0.553862	0.666805
H469	H	0.630628	0.001822	0.850342
H470	H	0.963961	0.335155	1.183675
H471	H	1.297295	0.668489	1.517008
C472	C	0.573138	-0.183505	-0.115616
C473	C	0.906471	0.149828	0.217717
C474	C	1.239805	0.483162	0.551050
N475	N	0.572940	-0.204380	-0.161265
N476	N	0.906273	0.128954	0.172068
N477	N	1.239607	0.462287	0.505401
C478	C	0.640068	-0.007618	0.274234
C479	C	0.973401	0.325716	0.607568
C480	C	1.306735	0.659049	0.940901
N481	N	0.667518	-0.035045	0.300569
N482	N	1.000851	0.298288	0.633902
N483	N	1.334185	0.631622	0.967235
H484	H	0.567819	-0.699915	0.099982
H485	H	0.901152	-0.366581	0.433316
H486	H	1.234486	-0.033248	0.766649
H487	H	-0.271683	-0.021675	0.000084
H488	H	0.061651	0.311658	0.333418
H489	H	0.394984	0.644992	0.666751
C490	C	0.574182	-0.077653	0.115759
C491	C	0.907516	0.255680	0.449092
C492	C	1.240849	0.589014	0.782425
N493	N	0.574381	-0.056762	0.161396
N494	N	0.907714	0.276572	0.494729
N495	N	1.241048	0.609905	0.828062
H496	H	0.569284	-0.559450	-0.154973
H497	H	0.902617	-0.226116	0.178361
H498	H	1.235951	0.107217	0.511694
H499	H	0.663733	-0.031269	0.557732
H500	H	0.997066	0.302064	0.891065
H501	H	1.330400	0.635398	1.224398
H502	H	0.570781	-0.408208	0.155085
H503	H	0.904114	-0.074874	0.488418
H504	H	1.237447	0.258459	0.821751
H505	H	0.569240	-0.559453	0.155067
H506	H	0.902574	-0.226119	0.488400
H507	H	1.235907	0.107214	0.821734
H508	H	0.477285	0.155020	0.442369
H509	H	0.810619	0.488353	0.775702
H510	H	1.143952	0.821686	1.109036
H511	H	0.510414	0.121952	0.265181
H512	H	0.843747	0.455285	0.598514
H513	H	1.177081	0.788618	0.931848
H514	H	0.510447	0.121926	0.850347
H515	H	0.843780	0.455259	1.183680
H516	H	1.177113	0.788592	1.517013
H517	H	0.574148	-0.084854	-0.099861
H518	H	0.907481	0.248480	0.233472
H519	H	1.240815	0.581813	0.566806
H520	H	0.571705	-0.316756	0.155086
H521	H	0.905038	0.016578	0.488420
H522	H	1.238371	0.349911	0.821753
H523	H	0.117570	-0.061863	0.000108
H524	H	0.450903	0.271470	0.333442
H525	H	0.784237	0.604804	0.666775
H526	H	0.630626	0.001824	0.734942
H527	H	0.963959	0.335157	1.068275
H528	H	1.297293	0.668490	1.401608
C529	C	0.570249	-0.460805	0.170815
C530	C	0.903583	-0.127471	0.504148
C531	C	1.236916	0.205862	0.837482
N532	N	0.570461	-0.439931	0.216463
N533	N	0.903794	-0.106598	0.549797
N534	N	1.237128	0.226736	0.883130
H535	H	0.571774	-0.316755	-0.154964
H536	H	0.905107	0.016578	0.178369
H537	H	1.238440	0.349911	0.511702
C538	C	0.500942	0.131408	0.140692
C539	C	0.834275	0.464741	0.474025
C540	C	1.167609	0.798075	0.807358
N541	N	0.473496	0.158825	0.114337
N542	N	0.806830	0.492159	0.447670
N543	N	1.140163	0.825492	0.781003
C544	C	0.074325	0.198781	0.000040
C545	C	0.407658	0.532114	0.333374
C546	C	0.740991	0.865447	0.666707
N547	N	0.048401	0.235099	0.000032
N548	N	0.381734	0.568432	0.333365
N549	N	0.715068	0.901765	0.666698
C550	C	-0.171289	-0.033272	0.000093
C551	C	0.162044	0.300061	0.333427
C552	C	0.495377	0.633394	0.666760
N553	N	-0.145364	-0.069589	0.000098
N554	N	0.187969	0.263744	0.333431
N555	N	0.521303	0.597077	0.666764
C556	C	0.673193	-0.040724	0.433267
C557	C	1.006526	0.292609	0.766600
C558	C	1.339859	0.625942	1.099933
N559	N	0.700635	-0.068155	0.406924
N560	N	1.033968	0.265178	0.740258
N561	N	1.367302	0.598511	1.073591
H562	H	0.434830	-0.014493	0.000058
H563	H	0.768163	0.318841	0.333391
H564	H	1.101496	0.652174	0.666725
C565	C	-0.076927	0.197236	0.000055
C566	C	0.256406	0.530569	0.333388
C567	C	0.589739	0.863903	0.666721
N568	N	-0.102869	0.233542	0.000054
N569	N	0.230465	0.566876	0.333387
N570	N	0.563798	0.900209	0.666720
C571	C	0.337900	-0.028097	0.000065
C572	C	0.671234	0.305237	0.333398
C573	C	1.004567	0.638570	0.666731
N574	N	0.322069	-0.064835	0.000075
N575	N	0.655402	0.268498	0.333409
N576	N	0.988735	0.601832	0.666742
H577	H	0.023479	0.185648	0.000046
H578	H	0.356813	0.518981	0.333380
H579	H	0.690146	0.852315	0.666713
