data_functionalizedCrystal
_audit_creation_method	'MofGen! by Chris Wilmer'
_symmetry_space_group_name_H-M	'P1'
_symmetry_Int_Tables_number	1
_symmetry_cell_setting	triclinic
loop_
_symmetry_equiv_pos_as_xyz
  x,y,z
_cell_length_a	15.995350
_cell_length_b	15.995350
_cell_length_c	14.472310
_cell_angle_alpha	90.001162
_cell_angle_beta	89.990621
_cell_angle_gamma	83.492375
loop_
_atom_site_label
_atom_site_type_symbol
_atom_site_fract_x
_atom_site_fract_y
_atom_site_fract_z
O1	O	1.110997	0.107921	-0.076758
O2	O	0.867221	0.121248	-0.076776
O3	O	0.995773	-0.007303	-0.076766
O4	O	0.982445	0.236472	-0.076769
O5	O	0.995740	-0.007296	0.076916
O6	O	0.867188	0.121256	0.076906
O7	O	1.110963	0.107928	0.076924
Cu8	Cu	0.989073	0.114593	0.090947
Cu9	Cu	0.989112	0.114584	-0.090800
O10	O	0.982412	0.236480	0.076913
C11	C	0.836010	0.120701	0.000062
C12	C	0.743060	0.119049	0.000055
C13	C	0.405312	0.113117	0.000074
C14	C	0.452746	0.021565	0.000418
C15	C	0.549436	0.023217	0.000065
C16	C	0.572873	0.116060	0.000065
C17	C	0.531804	0.161212	-0.087692
C18	C	0.435169	0.158912	-0.087759
C19	C	0.434792	0.160812	0.087007
C20	C	0.531737	0.160790	0.088160
C21	C	0.667570	0.117727	0.000057
C22	C	0.310614	0.111452	0.000076
C23	C	0.995205	-0.038494	0.000073
C24	C	0.993553	-0.131444	0.000068
C25	C	0.987621	-0.469192	0.000071
C26	C	0.896069	-0.421758	-0.000281
C27	C	0.897721	-0.325068	0.000066
C28	C	0.990564	-0.301631	0.000069
C29	C	1.035701	-0.342705	0.087831
C30	C	1.033401	-0.439340	0.087904
C31	C	1.035330	-0.439707	-0.086861
C32	C	1.035309	-0.342762	-0.088021
C33	C	0.992231	-0.206934	0.000071
C34	C	0.985956	-0.563890	0.000075
C35	C	1.142175	0.108476	0.000083
C36	C	1.235125	0.110127	0.000084
C37	C	0.982980	0.267671	0.000072
C38	C	0.984631	0.360621	0.000071
N39	N	0.989051	0.114598	0.218778
N40	N	0.989140	0.114572	-0.218631
C41	C	0.989111	0.114581	0.592869
C42	C	0.920095	0.183135	0.553698
C43	C	0.920254	0.183385	0.446610
C44	C	0.989081	0.114590	0.407278
C45	C	1.076445	0.133671	0.446122
C46	C	1.076057	0.134159	0.553243
C47	C	0.971542	0.026741	0.553398
C48	C	0.969538	0.027327	0.446270
C49	C	0.989069	0.114593	0.302390
C50	C	0.989128	0.114579	0.697757
H51	H	0.577308	-0.012521	-0.062951
H52	H	0.909219	0.008392	0.580461
N53	N	1.121270	-0.324996	0.091955
N54	N	1.179637	-0.383993	0.091677
H55	H	1.240070	-0.371485	0.094592
H56	H	1.016541	-0.026079	0.419500
N57	N	0.585077	-0.021316	0.078980
N58	N	0.538547	-0.053839	0.134701
H59	H	0.563715	-0.085298	0.190435
H60	H	1.129029	0.085068	0.420643
H61	H	0.416874	0.125979	-0.153359
N62	N	0.394721	0.243234	-0.092754
N63	N	0.437890	0.303593	-0.096186
H64	H	0.409328	0.363145	-0.099717
H65	H	0.931473	0.248569	0.420976
H66	H	1.091540	0.198219	0.578220
H67	H	0.547101	0.228494	0.093461
H68	H	0.861973	-0.297200	0.063079
N69	N	0.394933	0.245484	0.087752
N70	N	0.316487	0.259425	0.090606
H71	H	0.288332	0.319222	0.091126
H72	H	1.129018	0.086196	0.579154
H73	H	0.859490	-0.440293	-0.063217
H74	H	0.862239	-0.296649	-0.062846
N75	N	0.409038	0.123272	0.170465
N76	N	0.426943	0.152830	0.246977
H77	H	0.408756	0.126310	0.305916
H78	H	0.905272	0.012845	0.420883
H79	H	1.002307	-0.315516	-0.152945
H80	H	0.859626	-0.441349	0.062299
N81	N	1.096327	0.213117	0.412449
N82	N	1.046301	0.255814	0.359855
H83	H	1.060338	0.311925	0.336073
N84	N	0.429541	-0.024307	0.079415
N85	N	0.377767	0.009934	0.136381
H86	H	0.361393	-0.022454	0.192192
N87	N	1.117712	-0.479815	0.092926
N88	N	1.131033	-0.558337	0.093879
H89	H	1.190576	-0.586921	0.097431
H90	H	1.000459	-0.457639	0.153505
H91	H	1.004324	-0.314320	0.153137
N92	N	0.997799	-0.465490	-0.170302
N93	N	0.935424	-0.505915	-0.166708
H94	H	0.908910	-0.524127	-0.225634
N95	N	0.838709	0.169220	0.413826
N96	N	0.830233	0.106867	0.364062
H97	H	0.772606	0.096901	0.340981
H98	H	0.545930	0.229421	-0.090955
H99	H	1.021872	-0.024275	0.578728
H100	H	0.559040	0.127830	0.153082
N101	N	1.120239	-0.323471	-0.094669
N102	N	1.149303	-0.278902	-0.034319
H103	H	1.209287	-0.265274	-0.039010
N104	N	1.120011	-0.479543	-0.087581
N105	N	1.145214	-0.529443	-0.024417
H106	H	1.205019	-0.557577	-0.024916
N107	N	0.933977	0.264454	0.587433
N108	N	0.947097	0.321427	0.531957
H109	H	0.956904	0.378859	0.555782
N110	N	0.567428	0.121898	-0.169636
N111	N	0.644629	0.119508	-0.184598
H112	H	0.669792	0.091749	-0.242473
N113	N	0.838367	0.169101	0.586045
N114	N	0.830028	0.108413	0.638350
H115	H	0.772305	0.098499	0.661200
H116	H	0.433166	-0.014865	-0.062168
