data_functionalizedCrystal
_audit_creation_method	'MofGen! by Chris Wilmer'
_symmetry_space_group_name_H-M	'P1'
_symmetry_Int_Tables_number	1
_symmetry_cell_setting	triclinic
loop_
_symmetry_equiv_pos_as_xyz
  x,y,z
_cell_length_a	15.455313
_cell_length_b	16.992694
_cell_length_c	16.992695
_cell_angle_alpha	89.331777
_cell_angle_beta	92.847427
_cell_angle_gamma	92.857794
loop_
_atom_site_label
_atom_site_type_symbol
_atom_site_fract_x
_atom_site_fract_y
_atom_site_fract_z
O1	O	-0.072023	-1.054080	0.163694
O2	O	-0.072048	-0.825681	0.161862
O3	O	-0.072029	-0.938965	0.048579
O4	O	-0.072042	-0.940797	0.276978
O5	O	0.072232	-0.932485	0.055028
O6	O	0.072213	-0.819202	0.168312
O7	O	0.072238	-1.047601	0.170144
Cu8	Cu	0.085398	-0.932809	0.169817
Cu9	Cu	-0.085207	-0.940473	0.162189
O10	O	0.072219	-0.934317	0.283428
C11	C	0.000079	-0.793081	0.162731
C12	C	0.000070	-0.705597	0.155702
N13	N	0.205392	-0.927425	0.175181
N14	N	-0.205202	-0.945863	0.156819
C15	C	0.000102	-0.933369	0.022443
C16	C	0.000101	-0.926341	-0.065041
C17	C	0.250795	-0.975571	0.127074
C18	C	0.341602	-0.971507	0.131139
C19	C	0.387005	-0.919301	0.183315
C20	C	0.341596	-0.871149	0.231424
C21	C	0.250791	-0.875210	0.227355
C22	C	0.658584	-0.901772	0.200858
C23	C	0.749395	-0.897717	0.204926
C24	C	0.749395	-0.998074	0.104639
C25	C	0.658588	-1.002133	0.100578
C26	C	0.613187	-0.953979	0.148684
N27	N	0.479825	-0.915147	0.187473
N28	N	0.520369	-0.958129	0.144522
C29	C	0.000109	-1.080201	0.169275
C30	C	0.000113	-1.167685	0.176304
C31	C	0.000066	-0.659607	0.223520
C32	C	0.000079	-0.577405	0.216911
C33	C	0.000088	-0.541197	0.142484
C34	C	0.000094	-0.587193	0.074661
C35	C	0.000088	-0.669393	0.081271
C36	C	0.000113	-0.295881	0.115091
C37	C	0.000116	-0.213676	0.108486
C38	C	0.000103	-0.203893	0.250737
C39	C	0.000091	-0.286095	0.257340
C40	C	0.000102	-0.332084	0.189517
N41	N	0.000098	-0.457174	0.135727
N42	N	0.000098	-0.416105	0.196275
C43	C	0.000109	-0.994158	-0.111032
C44	C	0.000100	-0.987550	-0.193233
C45	C	0.000089	-0.913123	-0.229442
C46	C	0.000078	-0.845300	-0.183445
C47	C	0.000081	-0.851910	-0.101246
C48	C	0.000074	-0.885729	-0.474757
C49	C	0.000074	-0.879124	-0.556962
C50	C	0.000094	-1.021375	-0.566744
C51	C	0.000102	-1.027977	-0.484543
C52	C	0.000087	-0.960155	-0.438554
N53	N	0.000082	-0.906366	-0.313464
N54	N	0.000087	-0.966913	-0.354533
C55	C	0.000087	-0.939913	0.309563
C56	C	0.000082	-0.946942	0.397047
H57	H	0.213834	-1.018087	0.084591
N58	N	0.201823	-0.823276	0.279240
H59	H	0.217611	-0.835131	0.336393
H60	H	0.137424	-0.833790	0.268679
N61	N	0.000046	-0.698658	0.303795
H62	H	0.000046	-0.657047	0.345754
H63	H	0.053521	-0.730157	0.312030
N64	N	0.000117	-1.060698	-0.242834
H65	H	0.053592	-1.058718	-0.274771
H66	H	-0.053398	-1.063493	-0.279496
N67	N	0.000173	-0.527796	0.290061
H68	H	0.000193	-0.563206	0.338214
H69	H	-0.053271	-0.495828	0.288083
N70	N	0.000061	-0.812581	-0.425160
H71	H	0.000058	-0.764431	-0.460574
H72	H	0.053540	-0.809821	-0.388454
N73	N	0.609633	-0.849831	0.252745
H74	H	0.625426	-0.861689	0.309896
H75	H	0.545233	-0.860337	0.242189
N76	N	0.390573	-1.023464	0.079282
H77	H	0.348031	-1.057166	0.045625
H78	H	0.428221	-1.058453	0.113339
H79	H	0.000073	-0.796685	-0.063801
N80	N	0.000098	-0.719001	0.008125
H81	H	0.000104	-0.683591	-0.040027
H82	H	-0.053381	-0.755716	0.005375
N83	N	0.000118	-0.548144	-0.005615
H84	H	0.000121	-0.489092	0.000487
H85	H	-0.053357	-0.567042	-0.037915
H86	H	0.000106	-1.076591	-0.604197
N87	N	0.000108	-0.345485	0.041946
H88	H	0.053584	-0.377413	0.043907
H89	H	0.000077	-0.310027	-0.006168
N90	N	0.609623	-1.058444	0.044303
H91	H	0.625424	-1.114171	0.057615
H92	H	0.625457	-1.045109	-0.011411
N93	N	0.798362	-1.050008	0.052756
H94	H	0.862776	-1.039516	0.063248
H95	H	0.782500	-1.038127	-0.004374
H96	H	0.786359	-0.855202	0.247417
H97	H	0.000063	-0.784700	-0.212933
H98	H	0.000074	-0.315570	0.317946
H99	H	0.000096	-0.166440	0.305954
H100	H	0.000123	-0.184198	0.047876
H101	H	0.378569	-0.828638	0.273904
N102	N	0.000092	-1.108248	-0.445481
H103	H	0.053567	-1.111762	-0.409204
H104	H	0.000057	-1.150169	-0.487131
H105	H	0.000124	-1.054764	-0.081557
N106	N	0.000060	-0.798846	-0.596019
H107	H	0.000048	-0.756883	-0.554413
H108	H	-0.053419	-0.795415	-0.632301
