data_functionalizedCrystal
_audit_creation_method	'MofGen! by Chris Wilmer'
_symmetry_space_group_name_H-M	'P1'
_symmetry_Int_Tables_number	1
_symmetry_cell_setting	triclinic
loop_
_symmetry_equiv_pos_as_xyz
  x,y,z
_cell_length_a	15.297327
_cell_length_b	10.686220
_cell_length_c	10.686551
_cell_angle_alpha	89.691918
_cell_angle_beta	96.042164
_cell_angle_gamma	76.759735
loop_
_atom_site_label
_atom_site_type_symbol
_atom_site_fract_x
_atom_site_fract_y
_atom_site_fract_z
Zn1	Zn	-0.219505	-1.923459	-0.619215
Zn2	Zn	-0.382469	-1.870979	-0.451647
Zn3	Zn	-0.242538	-1.692454	-0.431496
Zn4	Zn	-0.380644	-1.677815	-0.676952
O5	O	-0.306289	-1.791177	-0.544828
O6	O	-0.232247	-2.094014	-0.581257
O7	O	-0.374309	-1.831461	-0.276122
O8	O	-0.113484	-1.751187	-0.423800
O9	O	-0.351976	-2.055457	-0.458146
O10	O	-0.096562	-1.920905	-0.561717
O11	O	-0.271502	-1.700299	-0.261316
O12	O	-0.269733	-1.512996	-0.479786
O13	O	-0.348866	-1.726237	-0.842146
O14	O	-0.371200	-1.502241	-0.660122
O15	O	-0.230478	-1.906710	-0.799726
O16	O	-0.508226	-1.817266	-0.514131
O17	O	-0.506885	-1.675349	-0.679662
C18	C	-0.322768	-1.461590	-0.574033
C19	C	-0.329838	-1.320589	-0.586562
C20	C	-0.540222	-1.739061	-0.605372
C21	C	-0.640291	-1.716885	-0.631305
C22	C	-0.286900	-1.820695	-0.867008
C23	C	-0.278637	-1.833273	-1.004302
C24	C	-0.925010	-1.950230	-0.359860
C25	C	-0.830990	-1.971064	-0.335489
C26	C	-0.783311	-1.907522	-0.409441
C27	C	-0.829660	-1.823141	-0.507768
C28	C	-0.923690	-1.802297	-0.532135
C29	C	-0.781991	-1.759589	-0.581716
C30	C	-0.828341	-1.675208	-0.680043
C31	C	-0.922361	-1.654369	-0.704406
C32	C	-0.970040	-1.717911	-0.630454
C33	C	-0.687961	-1.780432	-0.557349
C34	C	-0.686642	-1.632499	-0.729624
C35	C	-0.780661	-1.611665	-0.753995
C36	C	-0.071439	-1.843533	-0.484070
C37	C	0.028640	-1.865844	-0.458179
C38	C	-0.289746	-2.122050	-0.515509
C39	C	-0.282696	-2.263049	-0.503015
C40	C	-0.325535	-1.761861	-0.223877
C41	C	-0.333531	-1.749584	-0.086497
H42	H	-0.650232	-1.849135	-0.477290
C43	C	-0.206602	-1.943071	-1.051129
N44	N	-0.152343	-2.025770	-1.086406
C45	C	-0.679884	-1.930468	-0.382649
N46	N	-0.601977	-1.947766	-0.362475
C47	C	-0.977464	-2.020102	-0.278513
N48	N	-1.016975	-2.072730	-0.217234
C49	C	-0.220857	-1.342224	-0.393437
N50	N	-0.174276	-1.401868	-0.310904
C51	C	-0.780015	-2.063857	-0.227314
N52	N	-0.741620	-2.133745	-0.145824
C53	C	-0.405567	-1.639777	-1.039665
N54	N	-0.459822	-1.557071	-1.004391
H55	H	-1.046599	-1.700956	-0.650294
C56	C	-0.973344	-1.561535	-0.812559
N57	N	-1.011743	-1.491612	-0.894020
H58	H	-0.818413	-1.542961	-0.834053
C59	C	-0.634198	-1.562600	-0.810979
N60	N	-0.594692	-1.509956	-0.872249
C61	C	-0.391678	-1.241409	-0.696149
N62	N	-0.438254	-1.181770	-0.778689
