data_functionalizedCrystal
_audit_creation_method	'MofGen! by Chris Wilmer'
_symmetry_space_group_name_H-M	'P1'
_symmetry_Int_Tables_number	1
_symmetry_cell_setting	triclinic
loop_
_symmetry_equiv_pos_as_xyz
  x,y,z
_cell_length_a	19.288859
_cell_length_b	14.044220
_cell_length_c	13.101039
_cell_angle_alpha	93.673600
_cell_angle_beta	86.652663
_cell_angle_gamma	88.161302
loop_
_atom_site_label
_atom_site_type_symbol
_atom_site_fract_x
_atom_site_fract_y
_atom_site_fract_z
O1	O	0.925436	0.123426	0.085238
O2	O	1.258770	0.456760	0.418572
O3	O	1.592103	0.790093	0.751905
O4	O	0.724200	0.139379	0.085236
O5	O	1.057534	0.472713	0.418570
O6	O	1.390867	0.806046	0.751903
O7	O	0.821798	-0.006569	0.085227
O8	O	1.155131	0.326764	0.418561
O9	O	1.488465	0.660097	0.751894
O10	O	0.827838	0.269375	0.085248
O11	O	1.161172	0.602708	0.418581
O12	O	1.494505	0.936042	0.751914
O13	O	0.828803	-0.017054	-0.085203
O14	O	1.162137	0.316279	0.248130
O15	O	1.495470	0.649613	0.581463
O16	O	0.731205	0.128895	-0.085194
O17	O	1.064539	0.462228	0.248139
O18	O	1.397872	0.795561	0.581473
O19	O	0.932441	0.112942	-0.085192
O20	O	1.265775	0.446275	0.248141
O21	O	1.599108	0.779609	0.581475
Zn22	Zn	0.832936	0.119254	-0.112253
Zn23	Zn	1.166269	0.452587	0.221081
Zn24	Zn	1.499602	0.785920	0.554414
Zn25	Zn	0.823706	0.133067	0.112297
Zn26	Zn	1.157039	0.466401	0.445630
Zn27	Zn	1.490373	0.799734	0.778964
O28	O	0.834843	0.258891	-0.085183
O29	O	1.168177	0.592224	0.248150
O30	O	1.501510	0.925557	0.581484
C31	C	0.701793	0.133625	0.000021
C32	C	1.035127	0.466958	0.333354
C33	C	1.368460	0.800291	0.666687
C34	C	0.624591	0.132087	0.000020
C35	C	0.957924	0.465420	0.333353
C36	C	1.291257	0.798753	0.666686
C37	C	0.065384	0.207319	0.000027
C38	C	0.398717	0.540652	0.333360
C39	C	0.732050	0.873985	0.666693
C40	C	0.137923	0.208772	0.000032
C41	C	0.471256	0.542106	0.333366
C42	C	0.804590	0.875439	0.666699
C43	C	0.177128	0.123136	0.000024
C44	C	0.510461	0.456470	0.333357
C45	C	0.843795	0.789803	0.666691
C46	C	0.143786	0.036041	0.000037
C47	C	0.477120	0.369375	0.333370
C48	C	0.810453	0.702708	0.666703
C49	C	0.071248	0.034591	0.000041
C50	C	0.404581	0.367924	0.333375
C51	C	0.737914	0.701257	0.666708
C52	C	0.296749	0.055596	-0.059694
C53	C	0.630083	0.388929	0.273639
C54	C	0.963416	0.722263	0.606973
C55	C	0.369287	0.057050	-0.059705
C56	C	0.702620	0.390383	0.273628
C57	C	1.035953	0.723716	0.606962
C58	C	0.400862	0.127607	0.000014
C59	C	0.734195	0.460941	0.333347
C60	C	1.067528	0.794274	0.666680
C61	C	0.359890	0.196726	0.059731
C62	C	0.693223	0.530059	0.393064
C63	C	1.026557	0.863393	0.726397
C64	C	0.287351	0.195275	0.059735
C65	C	0.620684	0.528609	0.393069
C66	C	0.954018	0.861942	0.726402
C67	C	0.255784	0.124700	0.000019
C68	C	0.589118	0.458033	0.333353
C69	C	0.922451	0.791366	0.666686
C70	C	0.512850	0.216273	0.000014
C71	C	0.846183	0.549606	0.333348
C72	C	1.179517	0.882940	0.666681
C73	C	0.585391	0.217724	0.000026
C74	C	0.918724	0.551057	0.333360
C75	C	1.252058	0.884390	0.666693
C76	C	0.591253	0.044990	0.000020
C77	C	0.924587	0.378323	0.333354
C78	C	1.257920	0.711656	0.666687
C79	C	0.518713	0.043542	0.000019
C80	C	0.852047	0.376875	0.333352
C81	C	1.185380	0.710209	0.666685
C82	C	0.479516	0.129186	0.000011
C83	C	0.812850	0.462520	0.333344
C84	C	1.146183	0.795853	0.666678
C85	C	0.822656	-0.047115	0.000012
C86	C	1.155990	0.286219	0.333345
C87	C	1.489323	0.619552	0.666678
C88	C	0.814769	-0.152307	0.000010
C89	C	1.148102	0.181027	0.333344
C90	C	1.481435	0.514360	0.666677
C91	C	0.800347	-0.344905	0.000025
C92	C	1.133681	-0.011572	0.333358
C93	C	1.467014	0.321762	0.666691
C94	C	0.856291	-0.402779	0.000028
C95	C	1.189624	-0.069445	0.333362
C96	C	1.522957	0.263888	0.666695
C97	C	0.848267	-0.509947	0.000037
C98	C	1.181600	-0.176614	0.333370
C99	C	1.514933	0.156720	0.666703
C100	C	0.808370	-0.237727	0.000017
C101	C	1.141704	0.095607	0.333350
C102	C	1.475037	0.428940	0.666683
C103	C	0.954848	0.118697	0.000026
C104	C	1.288182	0.452030	0.333359
C105	C	1.621515	0.785363	0.666692
C106	C	1.032051	0.120235	0.000034
C107	C	1.365384	0.453568	0.333367
C108	C	1.698717	0.786902	0.666700
C109	C	0.833985	0.299436	0.000035
C110	C	1.167319	0.632769	0.333368
C111	C	1.500652	0.966103	0.666702
C112	C	0.841873	0.404628	0.000043
C113	C	1.175206	0.737962	0.333376
C114	C	1.508539	1.071295	0.666710
N115	N	0.817407	0.142488	0.265546
N116	N	1.150741	0.475821	0.598879
N117	N	1.484074	0.809155	0.932213
N118	N	0.839239	0.109826	-0.265502
N119	N	1.172573	0.443159	0.067832
N120	N	1.505906	0.776492	0.401165
C121	C	0.808831	0.155305	0.474589
C122	C	1.142164	0.488639	0.807923
C123	C	1.475498	0.821972	1.141256
C124	C	0.847814	0.097012	0.525461
C125	C	1.181147	0.430345	0.858795
C126	C	1.514480	0.763678	1.192128
C127	C	0.843042	0.104143	0.641780
C128	C	1.176375	0.437477	0.975114
C129	C	1.509708	0.770810	1.308447
C130	C	0.813602	0.148175	0.358260
C131	C	1.146935	0.481508	0.691593
C132	C	1.480269	0.814841	1.024927
H133	H	0.033473	0.277058	0.000025
H134	H	0.366807	0.610391	0.333359
H135	H	0.700140	0.943724	0.666692
H136	H	0.884771	0.041748	0.481656
H137	H	1.218104	0.375082	0.814989
H138	H	1.551437	0.708415	1.148322
H139	H	0.385596	0.254183	0.108357
H140	H	0.718929	0.587516	0.441690
H141	H	1.052263	0.920849	0.775023
H142	H	0.253995	0.251553	0.108360
H143	H	0.587328	0.584886	0.441694
H144	H	0.920661	0.918219	0.775027
H145	H	0.771875	0.210564	0.518390
H146	H	1.105209	0.543897	0.851723
H147	H	1.438542	0.877230	1.185057
H148	H	0.746431	-0.375842	0.000027
H149	H	1.079764	-0.042509	0.333360
H150	H	1.413098	0.290824	0.666693
H151	H	0.165069	0.279688	0.000017
H152	H	0.498402	0.613021	0.333350
H153	H	0.831735	0.946355	0.666684
H154	H	0.910209	-0.371835	0.000098
H155	H	1.243542	-0.038502	0.333431
H156	H	1.576875	0.294831	0.666764
H157	H	0.480934	0.286010	0.000010
H158	H	0.814267	0.619343	0.333343
H159	H	1.147601	0.952677	0.666677
H160	H	0.623173	-0.024737	0.000022
H161	H	0.956506	0.308597	0.333355
H162	H	1.289840	0.641930	0.666688
H163	H	0.491574	-0.027371	0.000018
H164	H	0.824907	0.305962	0.333352
H165	H	1.158240	0.639295	0.666685
H166	H	0.612529	0.288641	0.000029
H167	H	0.945862	0.621974	0.333363
H168	H	1.279195	0.955308	0.666696
H169	H	0.402641	0.000773	-0.108335
H170	H	0.735974	0.334107	0.224998
H171	H	1.069307	0.667440	0.558331
H172	H	0.271048	-0.001865	-0.108326
H173	H	0.604381	0.331468	0.225007
H174	H	0.937715	0.664801	0.558341
H175	H	0.175712	-0.033684	0.000033
H176	H	0.509045	0.299649	0.333366
H177	H	0.842378	0.632983	0.666699
H178	H	0.044109	-0.036325	0.000047
H179	H	0.377442	0.297008	0.333380
H180	H	0.710775	0.630341	0.666714
