data_functionalizedCrystal
_audit_creation_method	'MofGen! by Chris Wilmer'
_symmetry_space_group_name_H-M	'P1'
_symmetry_Int_Tables_number	1
_symmetry_cell_setting	triclinic
loop_
_symmetry_equiv_pos_as_xyz
  x,y,z
_cell_length_a	6.817900
_cell_length_b	10.943574
_cell_length_c	10.943624
_cell_angle_alpha	91.772393
_cell_angle_beta	108.838799
_cell_angle_gamma	108.837846
loop_
_atom_site_label
_atom_site_type_symbol
_atom_site_fract_x
_atom_site_fract_y
_atom_site_fract_z
V1	V	-4.115492	-0.178596	-0.402524
O2	O	-4.073204	0.008617	-0.394890
O3	O	-4.093439	-0.354160	-0.399743
O4	O	-4.093454	-0.175834	-0.578091
O5	O	-4.073188	-0.170944	-0.215308
V6	V	-4.592290	-0.156205	-0.380134
O7	O	-4.391502	-0.227713	-0.451636
O8	O	-4.766477	-0.107089	-0.331022
O9	O	-4.391136	0.019358	-0.382915
O10	O	-4.751974	-0.343419	-0.387769
O11	O	-4.751990	-0.163858	-0.567350
O12	O	-4.391120	-0.158968	-0.204568
C13	C	-3.943996	-0.396959	-0.393386
C14	C	-4.007427	-0.540485	-0.392284
C15	C	-3.890258	-0.703489	-0.384276
C16	C	-4.003635	-0.637681	-0.495234
C17	C	-3.893183	-0.604393	-0.281389
C18	C	-4.233990	-0.730421	-0.501411
C19	C	-4.123465	-0.697124	-0.287470
C20	C	-4.237013	-0.631364	-0.398458
C21	C	-3.944014	-0.169485	-0.620884
C22	C	-4.007454	-0.168388	-0.764411
C23	C	-3.852284	-0.161001	-0.841560
C24	C	-4.041640	-0.270645	-0.947533
C25	C	-3.931163	-0.056802	-0.914179
C26	C	-4.196021	-0.278135	-0.868507
C27	C	-4.085464	-0.064194	-0.835130
C28	C	-4.274957	-0.173870	-0.941074
C29	C	-4.203921	0.062151	-0.389268
C30	C	-4.119730	0.205675	-0.390379
C31	C	-4.203902	-0.165321	-0.161767
C32	C	-4.119700	-0.166411	-0.018239
H33	H	-3.744387	-0.735399	-0.378404
O34	O	-4.488997	-0.180618	-0.992650
C35	C	-4.628498	-0.297365	-0.969814
H36	H	-4.541760	-0.371918	-0.953918
H37	H	-4.667664	-0.276772	-0.879277
C38	C	-4.951678	-0.260434	-1.108166
C39	C	-4.845151	-0.352005	-1.088653
H40	H	-5.085325	-0.294137	-1.181467
H41	H	-4.857695	-0.181776	-1.123547
H42	H	-4.984296	-0.243281	-1.032710
H43	H	-4.812511	-0.369144	-1.164101
H44	H	-4.939134	-0.430667	-1.073287
H45	H	-4.307402	-0.371779	-0.847949
H46	H	-4.378572	-0.784968	-0.594490
O47	O	-4.184155	-0.728745	-0.182513
C48	C	-4.004761	-0.663892	-0.066740
H49	H	-3.843241	-0.637926	-0.086801
H50	H	-4.023773	-0.570796	-0.031163
C51	C	-4.199689	-0.785779	0.063407
C52	C	-4.001305	-0.753896	0.038769
H53	H	-4.197560	-0.841294	0.128492
H54	H	-4.320554	-0.829469	-0.014591
H55	H	-4.215509	-0.708190	0.093048
H56	H	-3.985502	-0.831483	0.009113
H57	H	-3.880437	-0.710222	0.116765
H58	H	-3.673084	-0.155707	-0.798112
H59	H	-4.103243	0.023090	-0.786160
O60	O	-3.798002	0.054773	-0.938750
C61	C	-3.576194	0.061101	-0.887905
H62	H	-3.556386	-0.001780	-0.806820
H63	H	-3.529707	0.023558	-0.968983
C64	C	-3.447783	0.280899	-0.931960
C65	C	-3.423450	0.203677	-0.832363
H66	H	-3.353560	0.368847	-0.897705
H67	H	-3.597220	0.276635	-0.966221
H68	H	-3.409047	0.249598	-0.999518
H69	H	-3.462212	0.234968	-0.764816
H70	H	-3.274016	0.207949	-0.798090
H71	H	-4.383203	-0.599718	-0.404497
H72	H	-3.748452	-0.549682	-0.188433
H73	H	-4.023777	-0.357925	-0.996468
O74	O	-3.942147	-0.606036	-0.599934
C75	C	-3.758630	-0.642513	-0.592149
H76	H	-3.667952	-0.648719	-0.486232
H77	H	-3.818061	-0.741763	-0.654394
C78	C	-3.711748	-0.532280	-0.772729
C79	C	-3.600365	-0.539892	-0.642638
H80	H	-3.614125	-0.468984	-0.803878
H81	H	-3.835392	-0.507709	-0.777978
H82	H	-3.761268	-0.614996	-0.824583
H83	H	-3.550871	-0.457183	-0.590784
H84	H	-3.476708	-0.564447	-0.637382
