data_functionalizedCrystal
_audit_creation_method	'MofGen! by Chris Wilmer'
_symmetry_space_group_name_H-M	'P1'
_symmetry_Int_Tables_number	1
_symmetry_cell_setting	triclinic
loop_
_symmetry_equiv_pos_as_xyz
  x,y,z
_cell_length_a	19.805407
_cell_length_b	19.805405
_cell_length_c	17.077396
_cell_angle_alpha	89.968350
_cell_angle_beta	89.979457
_cell_angle_gamma	90.026410
loop_
_atom_site_label
_atom_site_type_symbol
_atom_site_fract_x
_atom_site_fract_y
_atom_site_fract_z
Zn1	Zn	1.034742	-0.269463	-0.443847
Zn2	Zn	1.534742	0.230537	0.056153
Zn3	Zn	1.034655	-0.382656	-0.312574
Zn4	Zn	1.534655	0.117344	0.187426
Zn5	Zn	0.921555	-0.269486	-0.312593
Zn6	Zn	1.421555	0.230514	0.187407
Zn7	Zn	0.921520	-0.382616	-0.443795
Zn8	Zn	1.421520	0.117384	0.056205
O9	O	0.978118	-0.326055	-0.378202
O10	O	1.478118	0.173945	0.121798
O11	O	1.129447	-0.284486	-0.426447
O12	O	1.629447	0.215514	0.073553
O13	O	1.019630	-0.367671	-0.202729
O14	O	1.519630	0.132329	0.297271
O15	O	0.936620	-0.174767	-0.330034
O16	O	1.436620	0.325233	0.169966
O17	O	1.129383	-0.367648	-0.330002
O18	O	1.629383	0.132352	0.169998
O19	O	1.019779	-0.174750	-0.426466
O20	O	1.519779	0.325250	0.073534
O21	O	0.936536	-0.284525	-0.202743
O22	O	1.436536	0.215475	0.297257
O23	O	0.826834	-0.284486	-0.329983
O24	O	1.326834	0.215514	0.170017
O25	O	0.936561	-0.367579	-0.553649
O26	O	1.436561	0.132421	-0.053649
O27	O	0.826808	-0.367602	-0.426377
O28	O	1.326808	0.132398	0.073623
O29	O	1.019745	-0.284446	-0.553687
O30	O	1.519745	0.215554	-0.053687
O31	O	1.019597	-0.477367	-0.329951
O32	O	1.519597	0.022633	0.170049
O33	O	0.936477	-0.477338	-0.426359
O34	O	1.436477	0.022662	0.073641
C35	C	0.802262	-0.326042	-0.378177
C36	C	1.302262	0.173958	0.121823
C37	C	0.727030	-0.326053	-0.378185
C38	C	1.227030	0.173947	0.121815
C39	C	0.691690	-0.369397	-0.428296
C40	C	1.191690	0.130603	0.071704
C41	C	0.621002	-0.369398	-0.428307
C42	C	1.121002	0.130602	0.071693
C43	C	0.585655	-0.326058	-0.378202
C44	C	1.085655	0.173942	0.121798
C45	C	0.620999	-0.282710	-0.328089
C46	C	1.120999	0.217290	0.171911
C47	C	0.691686	-0.282706	-0.328083
C48	C	1.191686	0.217294	0.171917
C49	C	0.335926	-0.282725	-0.328115
C50	C	0.835926	0.217275	0.171885
C51	C	0.265234	-0.282734	-0.328124
C52	C	0.765234	0.217266	0.171876
C53	C	0.265242	-0.369417	-0.428339
C54	C	0.765242	0.130583	0.071661
C55	C	0.335929	-0.369413	-0.428333
C56	C	0.835929	0.130587	0.071667
C57	C	0.371267	-0.326062	-0.378223
C58	C	0.871267	0.173938	0.121777
C59	C	0.447916	-0.326061	-0.378212
C60	C	0.947916	0.173939	0.121788
C61	C	0.509007	-0.326063	-0.378208
C62	C	1.009007	0.173937	0.121792
C63	C	0.978042	-0.501911	-0.378164
C64	C	1.478042	-0.001911	0.121836
C65	C	0.978071	-0.577143	-0.378174
C66	C	1.478071	-0.077143	0.121826
C67	C	1.021394	-0.612481	-0.328027
C68	C	1.521394	-0.112481	0.171973
C69	C	1.021422	-0.683169	-0.328045
C70	C	1.521422	-0.183169	0.171955
C71	C	0.978125	-0.718519	-0.378206
C72	C	1.478125	-0.218519	0.121794
C73	C	0.934801	-0.683177	-0.428358
C74	C	1.434801	-0.183177	0.071642
C75	C	0.934776	-0.612490	-0.428344
C76	C	1.434776	-0.112490	0.071656
C77	C	0.934900	-0.968250	-0.428416
C78	C	1.434900	-0.468250	0.071584
C79	C	0.934927	-1.038942	-0.428425
C80	C	1.434927	-0.538942	0.071575
C81	C	1.021547	-1.038929	-0.328117
C82	C	1.521547	-0.538929	0.171883
C83	C	1.021522	-0.968242	-0.328103
C84	C	1.521522	-0.468242	0.171897
C85	C	0.978201	-0.932906	-0.378258
C86	C	1.478201	-0.432906	0.121742
C87	C	0.978171	-0.856258	-0.378240
C88	C	1.478171	-0.356258	0.121760
C89	C	0.978151	-0.795166	-0.378221
C90	C	1.478151	-0.295166	0.121779
C91	C	1.154661	-0.326069	-0.378228
C92	C	1.654661	0.173931	0.121772
C93	C	1.229893	-0.326075	-0.378239
C94	C	1.729893	0.173925	0.121761
C95	C	0.978159	-0.326005	-0.582947
C96	C	1.478159	0.173995	-0.082947
C97	C	0.978177	-0.325984	-0.670197
C98	C	1.478177	0.174016	-0.170197
C99	C	0.978213	-0.149513	-0.378258
C100	C	1.478213	0.350487	0.121742
C101	C	0.978253	-0.074281	-0.378281
C102	C	1.478253	0.425719	0.121719
C103	C	1.021492	-0.282694	-0.711208
C104	C	1.521492	0.217306	-0.211208
C105	C	1.021500	-0.282671	-0.793188
C106	C	1.521500	0.217329	-0.293188
C107	C	0.978196	-0.325943	-0.834156
C108	C	1.478196	0.174057	-0.334156
C109	C	0.934876	-0.369236	-0.793139
C110	C	1.434876	0.130764	-0.293139
C111	C	0.934865	-0.369254	-0.711160
C112	C	1.434865	0.130746	-0.211160
C113	C	0.934903	-0.369195	-0.964009
C114	C	1.434903	0.130805	-0.464009
C115	C	0.934915	-0.369178	-1.045994
C116	C	1.434915	0.130822	-0.545994
C117	C	1.021538	-0.282612	-1.046038
C118	C	1.521538	0.217388	-0.546038
C119	C	1.021527	-0.282630	-0.964059
C120	C	1.521527	0.217370	-0.464059
C121	C	0.978208	-0.325924	-0.923047
C122	C	1.478208	0.174076	-0.423047
C123	C	0.978116	-0.326056	-0.174254
C124	C	1.478116	0.173944	0.325746
C125	C	0.978230	-0.325887	-0.087005
C126	C	1.478230	0.174113	0.412995
H127	H	0.364705	-0.404706	-0.469130
H128	H	0.864705	0.095294	0.030870
O129	O	0.729800	-0.235958	-0.274026
O130	O	1.229800	0.264042	0.225974
H131	H	0.762027	-0.201553	-0.309228
H132	H	1.262027	0.298447	0.190772
O133	O	1.068096	-0.574354	-0.273928
O134	O	1.568096	-0.074354	0.226072
H135	H	1.098231	-0.610805	-0.239068
H136	H	1.598231	-0.110805	0.260932
O137	O	1.068144	-0.721285	-0.273954
O138	O	1.568144	-0.221285	0.226046
H139	H	1.098240	-0.684829	-0.239063
H140	H	1.598240	-0.184829	0.260937
O141	O	0.888050	-0.574371	-0.482431
O142	O	1.388050	-0.074371	0.017569
H143	H	0.853625	-0.542210	-0.447253
H144	H	1.353625	-0.042210	0.052747
H145	H	0.720465	-0.404691	-0.469094
H146	H	1.220465	0.095309	0.030906
O147	O	1.068256	-0.235912	-1.090272
O148	O	1.568256	0.264088	-0.590272
H149	H	1.121370	-0.247536	-1.074555
H150	H	1.621370	0.252464	-0.574555
H151	H	0.236460	-0.404712	-0.469144
H152	H	0.736460	0.095288	0.030856
H153	H	1.056757	-0.247458	-0.677858
H154	H	1.556757	0.252542	-0.177858
O155	O	0.582956	-0.416210	-0.482349
O156	O	1.082956	0.083790	0.017651
H157	H	0.550769	-0.386035	-0.522417
H158	H	1.050769	0.113965	-0.022417
O159	O	0.582874	-0.235964	-0.274050
O160	O	1.082874	0.264036	0.225950
H161	H	0.619326	-0.205818	-0.239210
H162	H	1.119326	0.294182	0.260790
H163	H	1.056773	-0.247421	-0.826576
H164	H	1.556773	0.252579	-0.326576
O165	O	0.888225	-1.077066	-0.482535
O166	O	1.388225	-0.577066	0.017465
H167	H	0.853811	-1.109313	-0.447369
H168	H	1.353811	-0.609313	0.052631
O169	O	0.227104	-0.235982	-0.274087
O170	O	0.727104	0.264018	0.225913
H171	H	0.263552	-0.205831	-0.239248
H172	H	0.763552	0.294169	0.260752
H173	H	0.364690	-0.247432	-0.287306
H174	H	0.864690	0.252568	0.212694
H175	H	1.056777	-0.939463	-0.287255
H176	H	1.556777	-0.439463	0.212745
H177	H	1.056824	-1.067708	-0.287281
H178	H	1.556824	-0.567708	0.212719
H179	H	0.899625	-0.939485	-0.469253
H180	H	1.399625	-0.439485	0.030747
O181	O	1.068235	-0.235963	-0.919867
O182	O	1.568235	0.264037	-0.419867
H183	H	1.098357	-0.205852	-0.962155
H184	H	1.598357	0.294148	-0.462155
O185	O	0.888091	-0.721299	-0.482454
O186	O	1.388091	-0.221299	0.017546
H187	H	0.895378	-0.776389	-0.474031
H188	H	1.395378	-0.276389	0.025969
H189	H	0.899651	-0.404412	-1.079347
H190	H	1.399651	0.095588	-0.579347
O191	O	0.888177	-0.415885	-0.919770
O192	O	1.388177	0.084115	-0.419770
H193	H	0.858069	-0.445975	-0.962029
H194	H	1.358069	0.054025	-0.462029
H195	H	0.899614	-0.404466	-0.826501
H196	H	1.399614	0.095534	-0.326501
H197	H	0.899586	-0.404499	-0.677770
H198	H	1.399586	0.095501	-0.177770
