data_functionalizedCrystal
_audit_creation_method	'MofGen! by Chris Wilmer'
_symmetry_space_group_name_H-M	'P1'
_symmetry_Int_Tables_number	1
_symmetry_cell_setting	triclinic
loop_
_symmetry_equiv_pos_as_xyz
  x,y,z
_cell_length_a	12.594517
_cell_length_b	18.050589
_cell_length_c	12.594509
_cell_angle_alpha	89.972304
_cell_angle_beta	89.978673
_cell_angle_gamma	90.028021
loop_
_atom_site_label
_atom_site_type_symbol
_atom_site_fract_x
_atom_site_fract_y
_atom_site_fract_z
Zn1	Zn	1.627177	-0.295641	-0.601864
Zn2	Zn	1.627030	-0.419845	-0.423887
Zn3	Zn	1.449181	-0.295673	-0.423893
Zn4	Zn	1.449125	-0.419793	-0.601817
O5	O	1.538128	-0.357738	-0.512865
O6	O	1.776103	-0.312125	-0.578272
O7	O	1.603400	-0.403408	-0.274942
O8	O	1.472877	-0.191744	-0.447523
O9	O	1.775995	-0.403377	-0.447513
O10	O	1.603650	-0.191721	-0.578278
O11	O	1.472735	-0.312179	-0.274946
O12	O	1.300228	-0.312129	-0.447478
O13	O	1.472782	-0.403289	-0.750769
O14	O	1.300187	-0.403320	-0.578198
O15	O	1.603596	-0.312075	-0.750804
O16	O	1.603346	-0.523763	-0.447468
O17	O	1.472640	-0.523725	-0.578192
C18	C	1.261587	-0.357723	-0.512834
C19	C	1.143282	-0.357735	-0.512846
C20	C	1.538000	-0.550690	-0.512848
C21	C	1.538042	-0.633236	-0.512876
C22	C	1.074020	-0.308068	-0.441883
C23	C	1.003188	-0.375810	-0.415704
C24	C	1.003314	-0.290026	-0.539043
C25	C	1.074008	-0.425512	-0.486616
C26	C	1.074141	-0.339682	-0.610001
C27	C	1.003341	-0.407471	-0.583858
C28	C	1.467034	-0.832693	-0.583939
C29	C	1.441086	-0.882138	-0.486814
C30	C	1.538147	-0.784366	-0.512889
C31	C	1.564147	-0.882003	-0.610026
C32	C	1.538246	-0.930351	-0.512911
C33	C	1.512147	-0.832724	-0.415713
C34	C	1.635254	-0.832585	-0.538990
C35	C	1.609343	-0.882007	-0.441799
C36	C	1.538087	-0.700268	-0.512878
C37	C	1.538306	-1.014448	-0.512912
C38	C	1.815749	-0.357753	-0.512897
C39	C	1.934055	-0.357760	-0.512911
C40	C	1.538200	-0.357673	-0.790486
C41	C	1.538230	-0.357645	-0.908792
C42	C	1.538286	-0.164032	-0.512906
C43	C	1.538354	-0.081487	-0.512924
C44	C	1.467103	-0.407228	-0.978026
C45	C	1.564218	-0.425374	-1.048817
C46	C	1.441191	-0.339455	-1.048800
C47	C	1.635396	-0.375826	-0.978024
C48	C	1.512303	-0.289876	-0.978001
C49	C	1.609485	-0.307996	-1.048760
C50	C	1.538119	-0.357749	-0.236324
C51	C	1.538294	-0.357568	-0.118019
H52	H	1.105054	-0.266108	-0.381797
O53	O	1.590271	-0.493697	-1.086063
C54	C	1.506638	-0.521179	-1.149178
H55	H	1.457149	-0.472947	-1.180207
H56	H	1.454339	-0.559296	-1.099365
C57	C	1.613566	-0.624100	-1.205387
C58	C	1.552788	-0.564861	-1.243504
H59	H	1.642032	-0.651048	-1.263569
H60	H	1.669911	-0.605587	-1.162862
H61	H	1.569974	-0.655857	-1.163875
H62	H	1.596383	-0.533101	-1.285003
H63	H	1.496451	-0.583369	-1.286038
O64	O	1.111308	-0.321296	-0.707924
C65	C	1.075331	-0.249828	-0.735216
H66	H	1.055412	-0.217726	-0.659876
H67	H	1.001324	-0.254568	-0.786866
C68	C	1.187380	-0.248149	-0.889565
C69	C	1.162922	-0.208719	-0.797030
H70	H	1.241407	-0.222791	-0.927698
H71	H	1.211615	-0.296299	-0.871181
H72	H	1.125699	-0.252096	-0.932593
H73	H	1.224599	-0.204780	-0.753997
H74	H	1.138699	-0.160566	-0.815408
H75	H	1.669732	-0.266032	-1.079622
H76	H	1.490100	-0.811167	-0.333552
H77	H	1.490311	-0.232614	-0.946872
O78	O	1.395520	-0.457426	-0.941016
C79	C	1.423279	-0.528760	-0.977125
H80	H	1.511572	-0.530159	-0.996984
H81	H	1.375245	-0.542654	-1.051197
C82	C	1.290778	-0.584304	-0.865291
C83	C	1.399223	-0.586025	-0.889674
H84	H	1.275935	-0.619629	-0.811350
H85	H	1.272073	-0.536245	-0.840966
H86	H	1.250763	-0.595881	-0.927025
H87	H	1.439236	-0.574439	-0.827944
H88	H	1.417935	-0.634084	-0.913986
H89	H	0.972503	-0.449531	-0.643897
H90	H	1.717511	-0.391245	-0.947065
O91	O	0.966051	-0.393924	-0.317658
C92	C	1.002075	-0.341421	-0.243041
H93	H	1.021993	-0.287379	-0.285494
H94	H	1.076094	-0.363464	-0.201646
C95	C	0.890069	-0.393672	-0.107961
C96	C	0.914524	-0.327294	-0.160102
H97	H	0.836067	-0.384960	-0.056798
H98	H	0.865801	-0.429046	-0.158230
H99	H	0.951759	-0.412034	-0.073474
H100	H	0.852839	-0.308938	-0.194599
H101	H	0.938780	-0.291916	-0.109837
H102	H	0.972205	-0.232762	-0.561137
H103	H	1.406808	-0.811039	-0.643938
H104	H	1.104933	-0.482801	-0.464394
O105	O	1.343105	-0.908073	-0.460652
C106	C	1.268312	-0.882937	-0.535729
H107	H	1.310587	-0.869018	-0.613269
H108	H	1.226978	-0.831305	-0.504028
C109	C	1.133418	-0.961126	-0.460581
C110	C	1.185340	-0.944036	-0.555820
H111	H	1.082234	-0.998812	-0.472972
H112	H	1.183806	-0.978059	-0.409997
H113	H	1.098982	-0.918094	-0.434173
H114	H	1.219785	-0.987065	-0.582219
H115	H	1.134956	-0.927112	-0.606409
H116	H	1.669523	-0.903524	-0.381655
O117	O	1.733112	-0.806628	-0.565541
C118	C	1.760179	-0.831705	-0.668038
H119	H	1.684738	-0.845610	-0.713890
H120	H	1.811855	-0.883335	-0.661376
C121	C	1.914504	-0.753496	-0.670744
C122	C	1.821846	-0.770567	-0.727064
H123	H	1.952548	-0.715785	-0.707154
H124	H	1.896272	-0.736602	-0.601688
H125	H	1.957555	-0.796525	-0.665197
H126	H	1.778791	-0.727541	-0.732599
H127	H	1.840072	-0.787452	-0.796123
H128	H	1.586099	-0.903649	-0.692164
O129	O	1.343341	-0.321044	-1.086015
C130	C	1.350734	-0.255969	-1.147544
H131	H	1.435439	-0.249382	-1.178068
H132	H	1.328893	-0.206051	-1.096612
C133	C	1.169853	-0.269303	-1.204833
C134	C	1.273888	-0.261216	-1.242330
H135	H	1.122447	-0.272537	-1.263299
H136	H	1.164870	-0.313143	-1.163377
H137	H	1.151667	-0.227702	-1.162389
H138	H	1.292076	-0.302820	-1.284761
H139	H	1.278872	-0.217382	-1.283796
