data_functionalizedCrystal
_audit_creation_method	'MofGen! by Chris Wilmer'
_symmetry_space_group_name_H-M	'P1'
_symmetry_Int_Tables_number	1
_symmetry_cell_setting	triclinic
loop_
_symmetry_equiv_pos_as_xyz
  x,y,z
_cell_length_a	15.944551
_cell_length_b	16.992697
_cell_length_c	15.021413
_cell_angle_alpha	90.000840
_cell_angle_beta	89.995971
_cell_angle_gamma	87.083594
loop_
_atom_site_label
_atom_site_type_symbol
_atom_site_fract_x
_atom_site_fract_y
_atom_site_fract_z
O1	O	-0.178115	-1.040401	0.073887
O2	O	0.321885	-0.540401	0.573887
O3	O	-0.176160	-0.812116	0.073918
O4	O	0.323840	-0.312116	0.573918
O5	O	-0.055281	-0.932493	0.073907
O6	O	0.444719	-0.432493	0.573907
O7	O	-0.298994	-0.920025	0.073898
O8	O	0.201006	-0.420025	0.573898
O9	O	-0.055266	-0.932480	-0.074157
O10	O	0.444734	-0.432480	0.425843
O11	O	-0.176146	-0.812103	-0.074147
O12	O	0.323854	-0.312103	0.425853
O13	O	-0.178100	-1.040389	-0.074177
O14	O	0.321900	-0.540389	0.425823
Zn15	Zn	-0.177121	-0.926244	-0.097670
Zn16	Zn	0.322879	-0.426244	0.402330
Zn17	Zn	-0.177140	-0.926261	0.097411
Zn18	Zn	0.322860	-0.426261	0.597411
O19	O	-0.298980	-0.920012	-0.074166
O20	O	0.201020	-0.420012	0.425834
C21	C	-0.173639	-0.782897	-0.000111
C22	C	0.326361	-0.282897	0.499889
C23	C	-0.166139	-0.695853	-0.000099
C24	C	0.333861	-0.195853	0.499901
C25	C	-0.238504	-0.645616	-0.000101
C26	C	0.261496	-0.145616	0.499899
C27	C	-0.231452	-0.563829	-0.000112
C28	C	0.268548	-0.063829	0.499888
C29	C	-0.152034	-0.532280	-0.000114
C30	C	0.347966	-0.032280	0.499886
C31	C	-0.079664	-0.582523	-0.000114
C32	C	0.420336	-0.082523	0.499886
C33	C	-0.086717	-0.664309	-0.000109
C34	C	0.413283	-0.164309	0.499891
C35	C	-0.122802	-0.288681	-0.000132
C36	C	0.377198	0.211319	0.499868
C37	C	-0.115755	-0.206889	-0.000134
C38	C	0.384245	0.293111	0.499866
C39	C	-0.267543	-0.188200	-0.000134
C40	C	0.232457	0.311800	0.499866
C41	C	-0.274589	-0.269988	-0.000124
C42	C	0.225411	0.230012	0.499876
C43	C	-0.202219	-0.320224	-0.000129
C44	C	0.297781	0.179776	0.499871
N45	N	-0.144824	-0.448681	-0.000122
N46	N	0.355176	0.051319	0.499878
N47	N	-0.209430	-0.403822	-0.000127
N48	N	0.290570	0.096178	0.499873
C49	C	-0.330316	-0.920536	-0.000135
C50	C	0.169684	-0.420536	0.499865
C51	C	-0.423666	-0.922088	-0.000139
C52	C	0.076334	-0.422088	0.499861
C53	C	-0.643776	-1.000412	-0.000136
C54	C	-0.143776	-0.500412	0.499864
C55	C	-0.702345	-0.964035	-0.073136
C56	C	-0.202345	-0.464035	0.426864
C57	C	-0.594580	-0.924895	-0.000132
C58	C	-0.094580	-0.424895	0.499868
C59	C	-0.702344	-0.964029	0.072844
C60	C	-0.202344	-0.464029	0.572844
C61	C	-0.759675	-0.927612	-0.000121
C62	C	-0.259675	-0.427612	0.499879
C63	C	-0.651920	-0.888497	-0.073192
C64	C	-0.151920	-0.388497	0.426808
C65	C	-0.651913	-0.888502	0.072854
C66	C	-0.151913	-0.388502	0.572854
C67	C	-0.710462	-0.852070	-0.000163
C68	C	-0.210462	-0.352070	0.499837
C69	C	-0.499473	-0.923332	-0.000139
C70	C	0.000527	-0.423332	0.499861
C71	C	-0.854781	-0.929170	-0.000120
C72	C	-0.354781	-0.429170	0.499880
C73	C	-0.023945	-0.931969	-0.000122
C74	C	0.476055	-0.431969	0.499878
C75	C	0.069405	-0.930417	-0.000112
C76	C	0.569405	-0.430417	0.499888
C77	C	-0.180621	-0.069608	-0.000143
C78	C	0.319379	0.430392	0.499857
C79	C	-0.188119	-0.156653	-0.000136
C80	C	0.311881	0.343347	0.499864
N81	N	-0.177147	-0.926273	0.230548
N82	N	0.322853	-0.426273	0.730548
C83	C	-0.121343	-0.982045	0.470197
C84	C	0.378657	-0.482045	0.970197
C85	C	-0.198304	-0.997086	0.529560
C86	C	0.301696	-0.497086	1.029560
C87	C	-0.177136	-0.926262	0.412155
C88	C	0.322864	-0.426262	0.912155
C89	C	-0.100165	-0.911247	0.529534
C90	C	0.399835	-0.411247	1.029534
C91	C	-0.177118	-0.926253	0.587579
C92	C	0.322882	-0.426253	1.087579
C93	C	-0.254138	-0.941338	0.470212
C94	C	0.245862	-0.441338	0.970212
C95	C	-0.155947	-0.855467	0.470181
C96	C	0.344053	-0.355467	0.970181
C97	C	-0.232961	-0.870478	0.529517
C98	C	0.267039	-0.370478	1.029517
C99	C	-0.177145	-0.926269	0.311098
C100	C	0.322855	-0.426269	0.811098
C101	C	-0.177117	-0.926245	0.688635
C102	C	0.322883	-0.426245	1.188635
N103	N	-0.177108	-0.926239	0.769192
N104	N	0.322892	-0.426239	1.269192
H105	H	-0.303174	-0.671296	-0.000099
H106	H	0.196826	-0.171296	0.499901
Cl107	Cl	-0.598840	-1.097187	-0.000257
Cl108	Cl	-0.098840	-0.597187	0.499743
Cl109	Cl	-0.354655	-0.961053	0.430154
Cl110	Cl	0.145345	-0.461053	0.930154
H111	H	-0.724583	-0.995989	0.134556
H112	H	-0.224583	-0.495989	0.634556
H113	H	-0.216224	-1.056951	0.555643
H114	H	0.283776	-0.556951	1.055643
H115	H	-0.280191	-0.823297	0.555398
H116	H	0.219809	-0.323297	1.055398
H117	H	-0.074227	-1.029254	0.444153
H118	H	0.425773	-0.529254	0.944153
H119	H	-0.138005	-0.795621	0.444079
H120	H	0.361995	-0.295621	0.944079
H121	H	-0.290379	-0.522929	-0.000113
H122	H	0.209621	-0.022929	0.499887
H123	H	-0.339260	-0.295669	-0.000112
H124	H	0.160740	0.204331	0.499888
Cl125	Cl	-0.358517	-0.125043	-0.000131
Cl126	Cl	0.141483	0.374957	0.499869
Cl127	Cl	-0.617536	-0.839238	0.168156
Cl128	Cl	-0.117536	-0.339238	0.668156
H129	H	-0.027789	-0.705211	-0.000107
H130	H	0.472211	-0.205211	0.499893
H131	H	-0.035080	-0.898550	0.555593
H132	H	0.464920	-0.398550	1.055593
H133	H	-0.051080	-0.181206	-0.000134
H134	H	0.448920	0.318794	0.499866
H135	H	-0.629782	-0.856576	-0.134973
H136	H	-0.129782	-0.356576	0.365027
H137	H	-0.724588	-0.995970	-0.134860
H138	H	-0.224588	-0.495970	0.365140
Cl139	Cl	-0.031821	-0.351824	-0.000137
Cl140	Cl	0.468179	0.148176	0.499863
Cl141	Cl	-0.755154	-0.755207	-0.000204
Cl142	Cl	-0.255154	-0.255207	0.499796
H143	H	-0.015000	-0.556830	-0.000128
H144	H	0.485000	-0.056830	0.499872
