data_functionalizedCrystal
_audit_creation_method	'MofGen! by Chris Wilmer'
_symmetry_space_group_name_H-M	'P1'
_symmetry_Int_Tables_number	1
_symmetry_cell_setting	triclinic
loop_
_symmetry_equiv_pos_as_xyz
  x,y,z
_cell_length_a	13.635800
_cell_length_b	23.752966
_cell_length_c	11.102300
_cell_angle_alpha	84.894891
_cell_angle_beta	108.605850
_cell_angle_gamma	79.933465
loop_
_atom_site_label
_atom_site_type_symbol
_atom_site_fract_x
_atom_site_fract_y
_atom_site_fract_z
V1	V	2.034375	-0.079160	0.396970
O2	O	2.036309	0.003804	0.388679
O3	O	2.001740	-0.156961	0.394961
O4	O	2.023094	-0.077942	0.569780
O5	O	2.014807	-0.075762	0.212650
V6	V	2.275607	-0.069236	0.374838
O7	O	2.166164	-0.100928	0.445518
O8	O	2.368917	-0.047468	0.326290
O9	O	2.196639	0.008565	0.376847
O10	O	2.332371	-0.152200	0.383129
O11	O	2.353873	-0.072635	0.559158
O12	O	2.175285	-0.070454	0.202028
V13	V	2.534375	-0.079160	0.396970
O14	O	2.536309	0.003804	0.388679
O15	O	2.501740	-0.156961	0.394961
O16	O	2.523094	-0.077942	0.569780
O17	O	2.514807	-0.075762	0.212650
V18	V	2.775607	-0.069236	0.374838
O19	O	2.666164	-0.100928	0.445518
O20	O	2.868917	-0.047468	0.326290
O21	O	2.696639	0.008565	0.376847
O22	O	2.832371	-0.152200	0.383129
O23	O	2.853873	-0.072635	0.559158
O24	O	2.675285	-0.070454	0.202028
C25	C	1.921770	-0.175927	0.388881
C26	C	1.935817	-0.239530	0.388390
C27	C	2.114283	-0.636864	0.391854
C28	C	2.127500	-0.696627	0.391412
O29	O	2.211922	-0.730018	0.396644
N30	N	2.042888	-0.723603	0.384816
C31	C	1.945055	-0.690813	0.378674
O32	O	1.874300	-0.719246	0.373023
C33	C	1.931842	-0.631051	0.379124
C34	C	2.016457	-0.604078	0.385708
C35	C	2.198891	-0.609890	0.398439
C36	C	2.185674	-0.550130	0.398878
C37	C	2.087848	-0.517344	0.392732
C38	C	2.003240	-0.544318	0.386147
C39	C	1.834013	-0.598263	0.372991
C40	C	1.820806	-0.538497	0.373443
C41	C	1.905422	-0.511523	0.380027
C42	C	1.892197	-0.451772	0.380440
N43	N	1.976809	-0.424796	0.387037
C44	C	2.074635	-0.457582	0.393182
C45	C	1.972813	-0.816318	0.377730
C46	C	1.986023	-0.876078	0.377270
C47	C	2.168467	-0.881888	0.390011
C48	C	2.155254	-0.822126	0.390462
C49	C	2.057425	-0.789342	0.384326
C50	C	2.046870	-0.332082	0.394103
C51	C	2.033643	-0.272316	0.394536
C52	C	1.851202	-0.266512	0.381801
C53	C	1.864426	-0.326272	0.381361
C54	C	1.962269	-0.359056	0.387517
O55	O	1.807808	-0.418345	0.375217
O56	O	2.145379	-0.429143	0.398849
C57	C	1.949009	-0.075130	0.611878
C58	C	1.980372	-0.074649	0.753156
C59	C	2.108279	0.027528	0.382924
C60	C	2.083852	0.091130	0.383422
C61	C	2.081040	-0.073268	0.159923
C62	C	2.039296	-0.073746	0.018644
C63	C	2.421770	-0.175927	0.388881
C64	C	2.435817	-0.239530	0.388390
C65	C	2.086340	-0.077281	0.826028
C66	C	2.115802	-0.076827	0.958773
C67	C	1.933319	-0.071112	0.945761
C68	C	1.903857	-0.071562	0.813018
C69	C	2.533643	-0.272316	0.394536
C70	C	2.546860	-0.332080	0.394094
C71	C	2.462248	-0.359056	0.387498
C72	C	2.364415	-0.326266	0.381356
C73	C	2.351202	-0.266504	0.381806
C74	C	2.449009	-0.075130	0.611878
C75	C	2.480372	-0.074649	0.753156
C76	C	2.608279	0.027528	0.382924
C77	C	2.583852	0.091130	0.383422
C78	C	2.581040	-0.073268	0.159923
C79	C	2.539296	-0.073746	0.018644
C80	C	2.658520	0.123916	0.377280
C81	C	2.635575	0.183679	0.377728
C82	C	2.537964	0.210655	0.384327
C83	C	2.463290	0.177865	0.390466
C84	C	2.486232	0.118104	0.390009
C85	C	2.586340	-0.077281	0.826028
C86	C	2.615802	-0.076827	0.958773
C87	C	2.433319	-0.071112	0.945761
C88	C	2.403857	-0.071562	0.813018
H89	H	2.102550	-0.250357	0.399893
H90	H	2.602548	-0.250360	0.399899
C91	C	2.717750	0.219734	0.371028
N92	N	2.779650	0.246886	0.365999
C93	C	2.654481	-0.368137	0.400838
N94	N	2.735540	-0.395294	0.405913
H95	H	2.317561	-0.069415	0.753681
H96	H	2.702089	-0.078969	1.018100
C97	C	2.271345	-0.355947	0.374077
N98	N	2.201242	-0.378304	0.368581
C99	C	2.278779	-0.520472	0.406194
N100	N	2.348918	-0.498140	0.411732
H101	H	2.371028	-0.068600	0.994517
H102	H	2.271538	-0.239813	0.376795
C103	C	2.306512	-0.645945	0.405193
N104	N	2.387575	-0.673098	0.410270
C105	C	2.404087	0.082044	0.396784
N106	N	2.342210	0.054887	0.401890
C107	C	2.765899	0.094255	0.370010
N108	N	2.846777	0.071919	0.364525
C109	C	2.476798	-0.424796	0.386994
N110	N	2.487763	-0.474312	0.386610
H111	H	2.383814	0.199838	0.395838
C112	C	2.248344	-0.792463	0.397728
N113	N	2.318466	-0.770124	0.403209
H114	H	1.765104	-0.620213	0.367620
H115	H	2.519296	0.259317	0.384697
H116	H	1.741143	-0.511807	0.368453
C117	C	2.670508	-0.080670	0.760183
N118	N	2.733906	-0.083220	0.710591
H119	H	2.126542	-0.358768	0.399117
H120	H	1.917115	-0.898033	0.371892
C121	C	1.743592	-0.230435	0.375028
N122	N	1.662541	-0.203260	0.369930
C123	C	1.849144	-0.067662	1.011602
N124	N	1.785735	-0.065044	1.061185
C125	C	2.170508	-0.080670	0.760183
N126	N	2.233906	-0.083220	0.710591
H127	H	1.893143	-0.789627	0.372724
C128	C	2.232373	-0.079721	1.038927
N129	N	2.320177	-0.081899	1.099298
H130	H	2.248122	-0.908593	0.395005
H131	H	1.795527	-0.348235	0.376009
H132	H	1.817561	-0.069415	0.753681
