data_functionalizedCrystal
_audit_creation_method	'MofGen! by Chris Wilmer'
_symmetry_space_group_name_H-M	'P1'
_symmetry_Int_Tables_number	1
_symmetry_cell_setting	triclinic
loop_
_symmetry_equiv_pos_as_xyz
  x,y,z
_cell_length_a	17.638166
_cell_length_b	18.215407
_cell_length_c	18.215399
_cell_angle_alpha	90.019833
_cell_angle_beta	101.179426
_cell_angle_gamma	78.754997
loop_
_atom_site_label
_atom_site_type_symbol
_atom_site_fract_x
_atom_site_fract_y
_atom_site_fract_z
Zn1	Zn	-0.314699	-1.065799	-0.475319
Zn2	Zn	0.185301	-0.565799	0.024681
Zn3	Zn	-0.446893	-1.040809	-0.377122
Zn4	Zn	0.053107	-0.540809	0.122878
Zn5	Zn	-0.314725	-0.942727	-0.352272
Zn6	Zn	0.185275	-0.442727	0.147728
Zn7	Zn	-0.446849	-0.917807	-0.500139
Zn8	Zn	0.053151	-0.417807	-0.000139
O9	O	-0.380791	-0.991785	-0.426213
O10	O	0.119209	-0.491785	0.073787
O11	O	-0.332243	-1.165467	-0.462306
O12	O	0.167757	-0.665467	0.037694
O13	O	-0.429390	-1.027768	-0.270847
O14	O	0.070610	-0.527768	0.229153
O15	O	-0.204104	-0.979940	-0.347807
O16	O	0.295896	-0.479940	0.152193
O17	O	-0.429365	-1.147107	-0.390161
O18	O	0.070635	-0.647107	0.109839
O19	O	-0.204085	-1.070360	-0.438210
O20	O	0.295915	-0.570360	0.061790
O21	O	-0.332287	-0.955708	-0.252589
O22	O	0.167713	-0.455708	0.247411
O23	O	-0.332244	-0.836438	-0.371873
O24	O	0.167756	-0.336438	0.128127
O25	O	-0.429290	-0.937468	-0.599825
O26	O	0.070710	-0.437468	-0.099825
O27	O	-0.429315	-0.818130	-0.480511
O28	O	0.070685	-0.318130	0.019489
O29	O	-0.332200	-1.046197	-0.581590
O30	O	0.167800	-0.546197	-0.081590
O31	O	-0.557504	-1.003605	-0.414228
O32	O	-0.057504	-0.503605	0.085772
O33	O	-0.557472	-0.913236	-0.504608
O34	O	-0.057472	-0.413236	-0.004608
C35	C	-0.380778	-0.800582	-0.426189
C36	C	0.119222	-0.300582	0.073811
C37	C	-0.380791	-0.718780	-0.426200
C38	C	0.119209	-0.218780	0.073800
C39	C	-0.586170	-0.953025	-0.464824
C40	C	-0.086170	-0.453025	0.035176
C41	C	-0.674032	-0.936510	-0.481366
C42	C	-0.174032	-0.436510	0.018634
C43	C	-0.797881	-0.866144	-0.551699
C44	C	-0.297881	-0.366144	-0.051699
C45	C	-0.715322	-0.881667	-0.536150
C46	C	-0.215322	-0.381667	-0.036150
C47	C	-0.715292	-0.975849	-0.442106
C48	C	-0.215292	-0.475849	0.057894
C49	C	-0.797854	-0.960331	-0.457645
C50	C	-0.297854	-0.460331	0.042355
C51	C	-0.839142	-0.905478	-0.512443
C52	C	-0.339142	-0.405478	-0.012443
C53	C	-0.839114	-0.999665	-0.418389
C54	C	-0.339114	-0.499665	0.081611
C55	C	-0.921668	-0.984150	-0.433930
C56	C	-0.421668	-0.484150	0.066070
C57	C	-0.962962	-0.929301	-0.488726
C58	C	-0.462962	-0.429301	0.011274
C59	C	-0.921696	-0.889963	-0.527984
C60	C	-0.421696	-0.389963	-0.027984
C61	C	-0.797825	-1.054521	-0.363595
C62	C	-0.297825	-0.554521	0.136405
C63	C	-0.839085	-1.093855	-0.324339
C64	C	-0.339085	-0.593855	0.175661
C65	C	-0.921641	-1.078337	-0.339876
C66	C	-0.421641	-0.578337	0.160124
C67	C	-0.962934	-1.023488	-0.394672
C68	C	-0.462934	-0.523488	0.105328
C69	C	-0.962907	-1.117675	-0.300618
C70	C	-0.462907	-0.617675	0.199382
C71	C	-1.045461	-1.102160	-0.316159
C72	C	-0.545461	-0.602160	0.183841
C73	C	-1.045488	-1.007974	-0.410213
C74	C	-0.545488	-0.507974	0.089787
C75	C	-0.380737	-0.991840	-0.618156
C76	C	0.119263	-0.491840	-0.118156
C77	C	-0.380714	-0.991864	-0.699950
C78	C	0.119286	-0.491864	-0.199950
C79	C	-0.174611	-1.030717	-0.387468
C80	C	0.325389	-0.530717	0.112532
C81	C	-0.086749	-1.047308	-0.370957
C82	C	0.413251	-0.547308	0.129043
C83	C	-0.380806	-1.183736	-0.426237
C84	C	0.119194	-0.683736	0.073763
C85	C	-0.380812	-1.265533	-0.426248
C86	C	0.119188	-0.765533	0.073752
C87	C	-0.431415	-0.521058	-0.482724
C88	C	0.068585	-0.021058	0.017276
C89	C	-0.431418	-0.444198	-0.482733
C90	C	0.068582	0.055802	0.017267
C91	C	-0.330182	-0.463262	-0.369721
C92	C	0.169818	0.036738	0.130279
C93	C	-0.330176	-0.540121	-0.369715
C94	C	0.169824	-0.040121	0.130285
C95	C	-0.380797	-0.569016	-0.426216
C96	C	0.119203	-0.069016	0.073784
C97	C	-0.380806	-0.415298	-0.426232
C98	C	0.119194	0.084702	0.073768
C99	C	-0.380808	-0.331964	-0.426242
C100	C	0.119192	0.168036	0.073758
C101	C	-0.380794	-0.652355	-0.426207
C102	C	0.119206	-0.152355	0.073793
C103	C	-0.330112	-1.048505	-0.878642
C104	C	0.169888	-0.548505	-0.378642
C105	C	-0.330089	-1.048518	-0.955496
C106	C	0.169911	-0.548518	-0.455496
C107	C	-0.431193	-0.935298	-0.974474
C108	C	0.068807	-0.435298	-0.474474
C109	C	-0.431212	-0.935283	-0.897620
C110	C	0.068788	-0.435283	-0.397620
C111	C	-0.380672	-0.991890	-0.849706
C112	C	0.119328	-0.491890	-0.349706
C113	C	-0.380631	-0.991919	-1.003414
C114	C	0.119369	-0.491919	-0.503414
C115	C	-0.380606	-0.991932	-1.086743
C116	C	0.119394	-0.491932	-0.586743
C117	C	-0.380696	-0.991876	-0.766371
C118	C	0.119304	-0.491876	-0.266371
C119	C	-0.380789	-0.991784	-0.235006
C120	C	0.119211	-0.491784	0.264994
C121	C	-0.380589	-0.991945	-0.153170
C122	C	0.119411	-0.491945	0.346830
H123	H	-1.079107	-0.963310	-0.454838
H124	H	-0.579107	-0.463310	0.045162
Cl125	Cl	-0.494729	-0.864142	-1.034714
Cl126	Cl	0.005271	-0.364142	-0.534714
Cl127	Cl	-0.494774	-0.864100	-0.861240
Cl128	Cl	0.005226	-0.364100	-0.361240
Cl129	Cl	-0.266531	-1.119700	-0.991870
Cl130	Cl	0.233469	-0.619700	-0.491870
H131	H	-0.929279	-1.162341	-0.256007
H132	H	-0.429279	-0.662341	0.243993
Cl133	Cl	-0.495053	-0.383911	-0.553776
Cl134	Cl	0.004947	0.116089	-0.053776
Cl135	Cl	-0.663454	-0.832213	-0.585508
Cl136	Cl	-0.163454	-0.332213	-0.085508
Cl137	Cl	-1.066745	-0.909501	-0.507969
Cl138	Cl	-0.566745	-0.409501	-0.007969
H139	H	-0.288957	-1.094597	-0.839632
H140	H	0.211043	-0.594597	-0.339632
Cl141	Cl	-0.973607	-0.820990	-0.596860
Cl142	Cl	-0.473607	-0.320990	-0.096860
H143	H	-0.831500	-0.821481	-0.596325
H144	H	-0.331500	-0.321481	-0.096325
H145	H	-0.681666	-1.020512	-0.397492
H146	H	-0.181666	-0.520512	0.102508
H147	H	-0.805459	-1.138518	-0.279724
H148	H	-0.305459	-0.638518	0.220276
Cl149	Cl	-0.694041	-1.074094	-0.344128
Cl150	Cl	-0.194041	-0.574094	0.155872
Cl151	Cl	-1.097335	-1.151611	-0.266809
Cl152	Cl	-0.597335	-0.651611	0.233191
Cl153	Cl	-0.266549	-0.426931	-0.298694
Cl154	Cl	0.233451	0.073069	0.201306
H155	H	-0.472632	-0.544581	-0.528732
H156	H	0.027368	-0.044581	-0.028732
H157	H	-0.288952	-0.579171	-0.323699
H158	H	0.211048	-0.079171	0.176301
