data_functionalizedCrystal
_audit_creation_method	'MofGen! by Chris Wilmer'
_symmetry_space_group_name_H-M	'P1'
_symmetry_Int_Tables_number	1
_symmetry_cell_setting	triclinic
loop_
_symmetry_equiv_pos_as_xyz
  x,y,z
_cell_length_a	11.792254
_cell_length_b	17.666332
_cell_length_c	11.792241
_cell_angle_alpha	89.994673
_cell_angle_beta	95.803993
_cell_angle_gamma	90.009198
loop_
_atom_site_label
_atom_site_type_symbol
_atom_site_fract_x
_atom_site_fract_y
_atom_site_fract_z
O1	O	1.506908	0.062948	-0.155636
O2	O	1.176569	0.062950	-0.171654
O3	O	1.349755	0.062944	0.001525
O4	O	1.333722	0.062954	-0.328815
O5	O	1.349724	-0.062953	0.001530
O6	O	1.176538	-0.062947	-0.171649
O7	O	1.506877	-0.062949	-0.155631
Cu8	Cu	1.341705	-0.074443	-0.163639
Cu9	Cu	1.341741	0.074444	-0.163646
O10	O	1.333691	-0.062943	-0.328810
C11	C	1.134263	0.000002	-0.170642
C12	C	1.008250	0.000002	-0.167622
N13	N	1.341688	-0.179163	-0.163634
C14	C	0.905913	0.000005	-0.165168
C15	C	0.777527	0.000006	-0.162100
C16	C	1.410937	-0.218764	-0.232946
C17	C	1.410955	-0.298012	-0.232943
C18	C	1.341703	-0.337655	-0.163641
C19	C	1.272449	-0.298044	-0.094315
C20	C	1.272441	-0.218798	-0.094312
N21	N	1.242271	-0.462094	-0.159925
N22	N	1.242281	-0.537374	-0.159935
C23	C	1.341724	-0.576419	-0.163645
N24	N	1.441157	-0.537339	-0.167368
N25	N	1.441145	-0.462052	-0.167364
C26	C	1.341704	-0.423584	-0.163636
C27	C	1.410999	-0.701950	-0.232957
C28	C	1.411019	-0.781199	-0.232946
C29	C	1.272502	-0.781229	-0.094324
C30	C	1.272492	-0.701982	-0.094329
C31	C	1.341739	-0.662347	-0.163652
C32	C	1.549183	0.000001	-0.156643
C33	C	1.675196	0.000006	-0.159663
C34	C	1.348732	-0.000005	0.043819
C35	C	1.345718	-0.000004	0.169832
N36	N	1.341767	0.179164	-0.163642
C37	C	1.334714	0.000007	-0.371104
C38	C	1.337728	0.000011	-0.497118
C39	C	1.340175	0.000009	0.400545
C40	C	1.343255	0.000002	0.272160
H41	H	1.467328	-0.186498	-0.289390
C42	C	1.487122	-0.341583	-0.309200
H43	H	1.528354	-0.306627	-0.350491
H44	H	1.539077	-0.372497	-0.263056
H45	H	1.440911	-0.372494	-0.361120
H46	H	1.216117	-0.813506	-0.037896
H47	H	1.467384	-0.669677	-0.289403
H48	H	1.467419	-0.813441	-0.289385
C49	C	1.196269	-0.341648	-0.018089
H50	H	1.206182	-0.394516	-0.028026
H51	H	1.216880	-0.328667	0.059430
H52	H	1.118738	-0.328668	-0.038658
C53	C	1.196254	-0.175234	-0.018074
H54	H	1.155007	-0.210191	0.023198
H55	H	1.242438	-0.144313	0.033845
H56	H	1.144296	-0.144330	-0.064243
C57	C	1.196303	-0.658418	-0.018099
H58	H	1.155052	-0.693376	0.023169
H59	H	1.242486	-0.627499	0.033824
H60	H	1.144346	-0.627511	-0.064267
