data_functionalizedCrystal
_audit_creation_method	'MofGen! by Chris Wilmer'
_symmetry_space_group_name_H-M	'P1'
_symmetry_Int_Tables_number	1
_symmetry_cell_setting	triclinic
loop_
_symmetry_equiv_pos_as_xyz
  x,y,z
_cell_length_a	25.639243
_cell_length_b	25.639239
_cell_length_c	17.077396
_cell_angle_alpha	90.031074
_cell_angle_beta	90.022159
_cell_angle_gamma	90.041410
loop_
_atom_site_label
_atom_site_type_symbol
_atom_site_fract_x
_atom_site_fract_y
_atom_site_fract_z
Zn1	Zn	0.799257	-0.208113	0.443884
Zn2	Zn	1.299257	0.291887	0.943884
Zn3	Zn	0.799171	-0.295550	0.312612
Zn4	Zn	1.299171	0.204450	0.812612
Zn5	Zn	0.711824	-0.208135	0.312626
Zn6	Zn	1.211824	0.291865	0.812626
Zn7	Zn	0.711779	-0.295523	0.443830
Zn8	Zn	1.211779	0.204477	0.943830
O9	O	0.755508	-0.251830	0.378238
O10	O	1.255508	0.248170	0.878238
O11	O	0.872411	-0.219714	0.426488
O12	O	1.372411	0.280286	0.926488
O13	O	0.787567	-0.283975	0.202767
O14	O	1.287567	0.216025	0.702767
O15	O	0.723477	-0.134967	0.330066
O16	O	1.223477	0.365033	0.830066
O17	O	0.872348	-0.283954	0.330043
O18	O	1.372348	0.216046	0.830043
O19	O	0.787714	-0.134950	0.426501
O20	O	1.287714	0.365050	0.926501
O21	O	0.723394	-0.219751	0.202777
O22	O	1.223394	0.280249	0.702777
O23	O	0.638653	-0.219725	0.330014
O24	O	1.138653	0.280275	0.830014
O25	O	0.723400	-0.283907	0.553684
O26	O	1.223400	0.216093	1.053684
O27	O	0.638619	-0.283929	0.426408
O28	O	1.138619	0.216071	0.926408
O29	O	0.787670	-0.219687	0.553724
O30	O	1.287670	0.280313	1.053724
O31	O	0.787523	-0.368712	0.329990
O32	O	1.287523	0.131288	0.829990
O33	O	0.723316	-0.368692	0.426395
O34	O	1.223316	0.131308	0.926395
C35	C	0.619665	-0.251827	0.378207
C36	C	1.119665	0.248173	0.878207
C37	C	0.561551	-0.251838	0.378212
C38	C	1.061551	0.248162	0.878212
C39	C	0.201215	-0.218433	0.428541
C40	C	0.701215	0.281567	0.928541
C41	C	0.146611	-0.218433	0.428546
C42	C	0.646611	0.281567	0.928546
O43	O	0.118397	-0.190021	0.471298
O44	O	0.618397	0.309979	0.971298
N45	N	0.119269	-0.251829	0.378260
N46	N	0.619269	0.248171	0.878260
C47	C	0.146533	-0.285224	0.327960
C48	C	0.646533	0.214776	0.827960
O49	O	0.118262	-0.313629	0.285188
O50	O	0.618262	0.186371	0.785188
C51	C	0.201137	-0.285221	0.327952
C52	C	0.701137	0.214779	0.827952
C53	C	0.228476	-0.251827	0.378247
C54	C	0.728476	0.248173	0.878247
C55	C	0.228555	-0.185041	0.478831
C56	C	0.728555	0.314959	0.978831
C57	C	0.283155	-0.185042	0.478827
C58	C	0.783155	0.314958	0.978827
C59	C	0.310416	-0.218436	0.428533
C60	C	0.810416	0.281564	0.928533
C61	C	0.283077	-0.251828	0.378243
C62	C	0.783077	0.248172	0.878243
C63	C	0.228400	-0.318613	0.277649
C64	C	0.728400	0.181387	0.777649
C65	C	0.283007	-0.318608	0.277644
C66	C	0.783007	0.181392	0.777644
C67	C	0.310347	-0.285213	0.327939
C68	C	0.810347	0.214787	0.827939
C69	C	0.364938	-0.285223	0.327944
C70	C	0.864938	0.214777	0.827944
N71	N	0.392281	-0.251827	0.378230
N72	N	0.892281	0.248173	0.878230
C73	C	0.365020	-0.218433	0.428524
C74	C	0.865020	0.281567	0.928524
C75	C	0.031863	-0.285226	0.327980
C76	C	0.531863	0.214774	0.827980
C77	C	-0.022740	-0.285232	0.327992
C78	C	0.477260	0.214768	0.827992
C79	C	-0.022658	-0.218440	0.428576
C80	C	0.477342	0.281560	0.928576
C81	C	0.031945	-0.218437	0.428568
C82	C	0.531945	0.281563	0.928568
C83	C	0.059205	-0.251830	0.378266
C84	C	0.559205	0.248170	0.878266
C85	C	0.479685	-0.218439	0.428513
C86	C	0.979685	0.281561	0.928513
C87	C	0.534290	-0.218444	0.428506
C88	C	1.034290	0.281556	0.928506
C89	C	0.534204	-0.285234	0.327919
C90	C	1.034204	0.214766	0.827919
C91	C	0.479603	-0.285231	0.327928
C92	C	0.979603	0.214769	0.827928
C93	C	0.452345	-0.251829	0.378227
C94	C	0.952345	0.248171	0.878227
O95	O	0.393186	-0.313618	0.285212
O96	O	0.893186	0.186382	0.785212
O97	O	0.393297	-0.190027	0.471282
O98	O	0.893297	0.309973	0.971282
C99	C	0.755420	-0.387673	0.378202
C100	C	1.255420	0.112327	0.878202
C101	C	0.755430	-0.445787	0.378213
C102	C	1.255430	0.054213	0.878213
C103	C	0.789027	-0.806148	0.328126
C104	C	1.289027	-0.306148	0.828126
C105	C	0.789048	-0.860752	0.328136
C106	C	1.289048	-0.360752	0.828136
O107	O	0.817522	-0.888987	0.285511
O108	O	1.317522	-0.388987	0.785511
N109	N	0.755600	-0.888069	0.378290
N110	N	1.255600	-0.388069	0.878290
C111	C	0.722133	-0.860779	0.428443
C112	C	1.222133	-0.360779	0.928443
O113	O	0.693685	-0.889029	0.471104
O114	O	1.193685	-0.389029	0.971104
C115	C	0.722115	-0.806176	0.428435
C116	C	1.222115	-0.306176	0.928435
C117	C	0.755562	-0.778862	0.378272
C118	C	1.255562	-0.278862	0.878272
C119	C	0.822472	-0.778833	0.277967
C120	C	1.322472	-0.278833	0.777967
C121	C	0.822451	-0.724233	0.277956
C122	C	1.322451	-0.224233	0.777956
C123	C	0.788985	-0.696947	0.328103
C124	C	1.288985	-0.196947	0.828103
C125	C	0.755541	-0.724261	0.378261
C126	C	1.255541	-0.224261	0.878261
C127	C	0.688652	-0.778887	0.478591
C128	C	1.188652	-0.278887	0.978591
C129	C	0.688638	-0.724280	0.478580
C130	C	1.188638	-0.224280	0.978580
C131	C	0.722084	-0.696966	0.428417
C132	C	1.222084	-0.196966	0.928417
C133	C	0.722054	-0.642375	0.428397
C134	C	1.222054	-0.142375	0.928397
N135	N	0.755503	-0.615057	0.378243
N136	N	1.255503	-0.115057	0.878243
C137	C	0.788968	-0.642343	0.328096
C138	C	1.288968	-0.142343	0.828096
C139	C	0.722172	-0.975450	0.428455
C140	C	1.222172	-0.475450	0.928455
C141	C	0.722186	-1.030052	0.428458
C142	C	1.222186	-0.530052	0.928458
C143	C	0.789102	-1.030021	0.328153
C144	C	1.289102	-0.530021	0.828153
C145	C	0.789085	-0.975418	0.328146
C146	C	1.289085	-0.475418	0.828146
C147	C	0.755620	-0.948133	0.378301
C148	C	1.255620	-0.448133	0.878301
C149	C	0.788921	-0.527678	0.328075
C150	C	1.288921	-0.027678	0.828075
C151	C	0.788895	-0.473073	0.328066
C152	C	1.288895	0.026927	0.828066
C153	C	0.721982	-0.473109	0.428374
C154	C	1.221982	0.026891	0.928374
C155	C	0.722005	-0.527710	0.428381
C156	C	1.222005	-0.027710	0.928381
C157	C	0.755479	-0.554993	0.378229
C158	C	1.255479	-0.054993	0.878229
O159	O	0.693596	-0.614105	0.471003
O160	O	1.193596	-0.114105	0.971003
O161	O	0.817416	-0.614087	0.285449
O162	O	1.317416	-0.114087	0.785449
C163	C	0.891881	-0.251834	0.378270
C164	C	1.391881	0.248166	0.878270
C165	C	0.949995	-0.251836	0.378283
C166	C	1.449995	0.248164	0.878283
C167	C	0.755539	-0.251792	0.582982
C168	C	1.255539	0.248208	1.082982
C169	C	0.755553	-0.251775	0.670232
C170	C	1.255553	0.248225	1.170232
C171	C	0.755610	-0.115457	0.378291
C172	C	1.255610	0.384543	0.878291
C173	C	0.755654	-0.057343	0.378314
C174	C	1.255654	0.442657	0.878314
C175	C	0.755506	-0.251831	0.174290
C176	C	1.255506	0.248169	0.674290
C177	C	0.755594	-0.251700	0.087041
C178	C	1.255594	0.248300	0.587041
C179	C	0.789019	-0.218333	0.711245
C180	C	1.289019	0.281667	1.211245
C181	C	0.789026	-0.218316	0.793225
C182	C	1.289026	0.281684	1.293225
C183	C	0.755568	-0.251744	0.834192
C184	C	1.255568	0.248256	1.334192
C185	C	0.722097	-0.285187	0.793174
C186	C	1.222097	0.214813	1.293174
C187	C	0.722089	-0.285202	0.711195
C188	C	1.222089	0.214798	1.211195
C189	C	0.722118	-0.285156	0.964044
C190	C	1.222118	0.214844	1.464044
C191	C	0.722127	-0.285142	1.046029
C192	C	1.222127	0.214858	1.546029
C193	C	0.789055	-0.218270	1.046074
C194	C	1.289055	0.281730	1.546074
C195	C	0.789047	-0.218284	0.964095
C196	C	1.289047	0.281716	1.464095
C197	C	0.755577	-0.251729	0.923083
C198	C	1.255577	0.248271	1.423083
H199	H	0.206150	-0.345806	0.236692
H200	H	0.706150	0.154194	0.736692
H201	H	0.816279	-0.191085	0.826614
H202	H	1.316279	0.308915	1.326614
H203	H	0.816307	-0.191037	1.079470
H204	H	1.316307	0.308963	1.579470
N205	N	0.686042	-0.321195	1.090217
N206	N	1.186042	0.178805	1.590217
H207	H	0.664835	-0.342382	1.051798
H208	H	1.164835	0.157618	1.551798
H209	H	0.661870	-0.299903	1.124234
H210	H	1.161870	0.200097	1.624234
N211	N	0.686017	-0.321225	0.919807
N212	N	1.186017	0.178775	1.419807
H213	H	0.664824	-0.342400	0.958197
H214	H	1.164824	0.157600	1.458197
H215	H	0.707278	-0.345427	0.885790
H216	H	1.207278	0.154573	1.385790
H217	H	0.816132	-0.450835	0.287215
H218	H	1.316132	0.049165	0.787215
N219	N	0.686012	-0.321237	0.837369
N220	N	1.186012	0.178763	1.337369
H221	H	0.694099	-0.358598	0.823093
H222	H	1.194099	0.141402	1.323093
H223	H	0.648673	-0.313073	0.823082
H224	H	1.148673	0.186927	1.323082
H225	H	0.556410	-0.312423	0.286973
H226	H	1.056410	0.187577	0.786973
N227	N	0.825137	-0.182235	0.919907
N228	N	1.325137	0.317765	1.419907
H229	H	0.846341	-0.161046	0.958326
H230	H	1.346341	0.338954	1.458326
H231	H	0.803869	-0.158046	0.885895
H232	H	1.303869	0.341954	1.385895
H233	H	0.694831	-0.312428	0.677804
H234	H	1.194831	0.187572	1.177804
N235	N	0.312409	-0.354623	0.223385
N236	N	0.812409	0.145377	0.723385
H237	H	0.286800	-0.375775	0.191528
H238	H	0.786800	0.124225	0.691528
H239	H	0.335056	-0.378848	0.255265
H240	H	0.835056	0.121152	0.755265
N241	N	0.563778	-0.182427	0.482758
N242	N	1.063778	0.317573	0.982758
H243	H	0.538219	-0.161272	0.514617
H244	H	1.038219	0.338728	1.014617
H245	H	0.586442	-0.158203	0.450872
H246	H	1.086442	0.341797	0.950872
H247	H	0.305411	-0.157848	0.519781
H248	H	0.805411	0.342152	1.019781
H249	H	0.661387	-0.702067	0.519425
H250	H	1.161387	-0.202067	1.019425
N251	N	0.825113	-0.182285	0.667062
N252	N	1.325113	0.317715	1.167062
H253	H	0.803885	-0.158061	0.633045
H254	H	1.303885	0.341939	1.133045
H255	H	0.849313	-0.203584	0.633100
H256	H	1.349313	0.296416	1.133100
N257	N	0.858564	-0.808260	0.223869
N258	N	1.358564	-0.308260	0.723869
H259	H	0.882793	-0.830878	0.255797
H260	H	1.382793	-0.330878	0.755797
H261	H	0.879709	-0.782632	0.192107
H262	H	1.379709	-0.282632	0.692107
H263	H	0.694733	-0.450884	0.469201
H264	H	1.194733	0.049116	0.969201
N265	N	0.825161	-0.945959	0.274045
N266	N	1.325161	-0.445959	0.774045
H267	H	0.846361	-0.971535	0.242280
H268	H	1.346361	-0.471535	0.742280
H269	H	0.849339	-0.923268	0.306030
H270	H	1.349339	-0.423268	0.806030
H271	H	0.206365	-0.157845	0.519787
H272	H	0.706365	0.342155	1.019787
N273	N	0.450290	-0.182411	0.482759
N274	N	0.950290	0.317589	0.982759
H275	H	0.475901	-0.161260	0.514613
H276	H	0.975901	0.338740	1.014613
H277	H	0.427629	-0.203721	0.519033
H278	H	0.927629	0.296279	1.019033
H279	H	0.054054	-0.312423	0.287020
H280	H	0.554054	0.187577	0.787020
H281	H	-0.044864	-0.191247	0.469527
H282	H	0.455136	0.308753	0.969527
N283	N	0.061431	-0.182419	0.482814
N284	N	0.561431	0.317581	0.982814
H285	H	0.035871	-0.161268	0.514675
H286	H	0.535871	0.338732	1.014675
H287	H	0.084091	-0.158193	0.450927
H288	H	0.584091	0.341807	0.950927
N289	N	0.450107	-0.321249	0.273692
N290	N	0.950107	0.178751	0.773692
H291	H	0.459582	-0.358618	0.285781
H292	H	0.959582	0.141382	0.785781
H293	H	0.459612	-0.313038	0.217650
H294	H	0.959612	0.186962	0.717650
N295	N	0.825024	-0.557101	0.273985
N296	N	1.325024	-0.057101	0.773985
H297	H	0.846204	-0.531505	0.242211
H298	H	1.346204	-0.031505	0.742211
H299	H	0.803765	-0.579795	0.237629
H300	H	1.303765	-0.079795	0.737629
H301	H	0.849687	-0.701997	0.237111
H302	H	1.349687	-0.201997	0.737111
N303	N	-0.052224	-0.321256	0.273755
N304	N	0.447776	0.178744	0.773755
H305	H	-0.026664	-0.342409	0.241897
H306	H	0.473336	0.157591	0.741897
H307	H	-0.074874	-0.299945	0.237485
H308	H	0.425126	0.200055	0.737485
H309	H	0.816353	-1.052247	0.287323
H310	H	1.316353	-0.552247	0.787323
H311	H	0.694946	-1.052287	0.469299
H312	H	1.194946	-0.552287	0.969299
N313	N	0.686072	-0.946023	0.482547
N314	N	1.186072	-0.446023	0.982547
H315	H	0.664887	-0.971617	0.514315
H316	H	1.164887	-0.471617	1.014315
H317	H	0.661879	-0.923408	0.450556
H318	H	1.161879	-0.423408	0.950556
H319	H	0.661413	-0.801117	0.519436
H320	H	1.161413	-0.301117	1.019436
N321	N	0.685926	-0.557174	0.482474
N322	N	1.185926	-0.057174	0.982474
H323	H	0.664722	-0.531601	0.514238
H324	H	1.164722	-0.031601	1.014238
H325	H	0.707205	-0.579787	0.518840
H326	H	1.207205	-0.079787	1.018840
