data_functionalizedCrystal
_audit_creation_method	'MofGen! by Chris Wilmer'
_symmetry_space_group_name_H-M	'P1'
_symmetry_Int_Tables_number	1
_symmetry_cell_setting	triclinic
loop_
_symmetry_equiv_pos_as_xyz
  x,y,z
_cell_length_a	9.065215
_cell_length_b	17.699083
_cell_length_c	7.540329
_cell_angle_alpha	89.995522
_cell_angle_beta	89.997574
_cell_angle_gamma	84.148856
loop_
_atom_site_label
_atom_site_type_symbol
_atom_site_fract_x
_atom_site_fract_y
_atom_site_fract_z
O1	O	1.957112	0.110962	-0.147466
O2	O	2.457112	0.610962	0.352534
O3	O	1.527557	0.120067	-0.147474
O4	O	2.027557	0.620067	0.352526
O5	O	1.754471	0.005420	-0.147454
O6	O	2.254471	0.505420	0.352546
O7	O	1.730199	0.225609	-0.147486
O8	O	2.230199	0.725609	0.352514
O9	O	1.754457	0.005419	0.147511
O10	O	2.254457	0.505419	0.647511
O11	O	1.527544	0.120066	0.147491
O12	O	2.027544	0.620066	0.647491
O13	O	1.957099	0.110961	0.147499
O14	O	2.457099	0.610961	0.647499
Cu15	Cu	1.742320	0.115513	0.174427
Cu16	Cu	2.242320	0.615513	0.674427
Cu17	Cu	1.742336	0.115515	-0.174403
Cu18	Cu	2.242336	0.615515	0.325597
O19	O	1.730185	0.225608	0.147479
O20	O	2.230185	0.725608	0.647479
C21	C	1.472590	0.119192	0.000007
C22	C	1.972590	0.619192	0.500007
C23	C	1.308824	0.116577	0.000004
C24	C	1.808824	0.616577	0.500004
C25	C	1.753594	-0.022784	0.000028
C26	C	2.253594	0.477216	0.500028
C27	C	1.750985	-0.106823	0.000029
C28	C	2.250985	0.393177	0.500029
C29	C	1.884179	-0.154406	0.000034
C30	C	2.384179	0.345594	0.500034
C31	C	1.881718	-0.233368	0.000018
C32	C	2.381718	0.266632	0.500018
C33	C	1.746063	-0.264746	0.000010
C34	C	2.246063	0.235254	0.500010
C35	C	1.612859	-0.217157	-0.000000
C36	C	2.112859	0.282843	0.500000
C37	C	1.615321	-0.138196	0.000003
C38	C	2.115321	0.361804	0.500003
C39	C	1.602928	-0.535598	-0.000015
C40	C	2.102928	-0.035598	0.499985
C41	C	1.600476	-0.614565	-0.000012
C42	C	2.100476	-0.114565	0.499988
C43	C	1.869325	-0.630770	0.000001
C44	C	2.369325	-0.130770	0.500001
C45	C	1.871787	-0.551809	0.000004
C46	C	2.371787	-0.051809	0.500004
C47	C	1.738584	-0.504227	-0.000016
C48	C	2.238584	-0.004227	0.499984
C49	C	1.741253	-0.418607	-0.000002
C50	C	2.241253	0.081393	0.499998
C51	C	1.743392	-0.350365	0.000009
C52	C	2.243392	0.149635	0.500009
C53	C	2.012066	0.111836	0.000013
C54	C	2.512066	0.611836	0.500013
C55	C	2.175832	0.114451	0.000004
C56	C	2.675832	0.614451	0.500004
C57	C	1.731062	0.253812	-0.000008
C58	C	2.231062	0.753812	0.499992
C59	C	1.733671	0.337851	-0.000020
C60	C	2.233671	0.837851	0.499980
N61	N	1.742320	0.115511	0.419776
N62	N	2.242320	0.615511	0.919776
N63	N	1.742348	0.115511	-0.419751
N64	N	2.242348	0.615511	0.080249
H65	H	1.994645	-0.128864	0.000052
H66	H	2.494645	0.371136	0.500052
O67	O	1.468655	-0.645010	-0.000350
O68	O	1.968655	-0.145010	0.499650
C69	C	1.387481	-0.620770	-0.153108
C70	C	1.887481	-0.120770	0.346892
H71	H	1.466825	-0.603800	-0.259869
H72	H	1.966825	-0.103800	0.240131
H73	H	1.324902	-0.669023	-0.204395
H74	H	1.824902	-0.169023	0.295605
H75	H	1.305078	-0.569886	-0.118586
H76	H	1.805078	-0.069886	0.381414
H77	H	1.977785	-0.669521	0.000008
H78	H	2.477785	-0.169521	0.500008
O79	O	1.481046	-0.247600	-0.000327
O80	O	1.981046	0.252400	0.499673
C81	C	1.399863	-0.223356	-0.153075
C82	C	1.899863	0.276644	0.346925
H83	H	1.479201	-0.206388	-0.259844
H84	H	1.979201	0.293612	0.240156
H85	H	1.337273	-0.271607	-0.204356
H86	H	1.837273	0.228393	0.295644
H87	H	1.317468	-0.172471	-0.118542
H88	H	1.817468	0.327529	0.381458
H89	H	1.506861	-0.099454	-0.000002
H90	H	2.006861	0.400546	0.499998
H91	H	1.982251	-0.526265	0.000019
H92	H	2.482251	-0.026265	0.500019
O93	O	2.011239	-0.279481	0.000114
O94	O	2.511239	0.220519	0.500114
C95	C	2.131498	-0.234854	0.000093
C96	C	2.631498	0.265146	0.500093
H97	H	2.093834	-0.176194	0.055935
H98	H	2.593834	0.323806	0.555935
H99	H	2.224794	-0.263339	0.085743
H100	H	2.724794	0.236661	0.585743
H101	H	2.173113	-0.228943	-0.141409
H102	H	2.673113	0.271057	0.358591
H103	H	1.494465	-0.496865	-0.000030
H104	H	1.994465	0.003135	0.499970
