data_functionalizedCrystal
_audit_creation_method	'MofGen! by Chris Wilmer'
_symmetry_space_group_name_H-M	'P1'
_symmetry_Int_Tables_number	1
_symmetry_cell_setting	triclinic
loop_
_symmetry_equiv_pos_as_xyz
  x,y,z
_cell_length_a	13.897449
_cell_length_b	18.050589
_cell_length_c	13.897441
_cell_angle_alpha	89.972127
_cell_angle_beta	89.979267
_cell_angle_gamma	90.029500
loop_
_atom_site_label
_atom_site_type_symbol
_atom_site_fract_x
_atom_site_fract_y
_atom_site_fract_z
Zn1	Zn	1.474632	-0.295610	-0.545399
Zn2	Zn	1.474496	-0.419815	-0.384108
Zn3	Zn	1.313321	-0.295646	-0.384118
Zn4	Zn	1.313273	-0.419766	-0.545361
O5	O	1.393931	-0.357709	-0.464747
O6	O	1.609596	-0.312092	-0.524016
O7	O	1.453079	-0.403379	-0.249128
O8	O	1.334796	-0.191716	-0.405532
O9	O	1.609496	-0.403344	-0.405516
O10	O	1.453311	-0.191690	-0.524025
O11	O	1.334665	-0.312152	-0.249135
O12	O	1.178333	-0.312105	-0.405495
O13	O	1.334715	-0.403261	-0.680348
O14	O	1.178298	-0.403295	-0.523960
O15	O	1.453264	-0.312045	-0.680376
O16	O	1.453033	-0.523733	-0.405479
O17	O	1.334583	-0.523697	-0.523951
C18	C	1.143316	-0.357699	-0.464725
C19	C	1.036102	-0.357713	-0.464738
C20	C	0.839807	-0.357716	-0.464763
C21	C	0.949040	-0.357712	-0.464747
C22	C	1.393814	-0.550661	-0.464731
C23	C	1.393853	-0.633207	-0.464756
C24	C	1.329503	-0.832665	-0.529158
C25	C	1.305986	-0.882111	-0.441140
C26	C	1.393947	-0.784337	-0.464769
C27	C	1.417512	-0.881973	-0.552797
C28	C	1.394037	-0.930323	-0.464789
C29	C	1.370384	-0.832696	-0.376703
C30	C	1.481951	-0.832554	-0.488420
C31	C	1.458467	-0.881977	-0.400341
C32	C	1.393893	-0.700239	-0.464758
C33	C	1.394092	-1.014419	-0.464789
C34	C	1.645524	-0.357720	-0.464769
C35	C	1.752738	-0.357724	-0.464779
C36	C	1.393999	-0.357644	-0.716340
C37	C	1.394028	-0.357616	-0.823554
C38	C	1.394074	-0.164004	-0.464784
C39	C	1.394135	-0.081458	-0.464800
C40	C	1.394055	-0.357565	-1.019849
C41	C	1.394037	-0.357595	-0.910616
C42	C	1.393918	-0.357721	-0.214132
C43	C	1.394076	-0.357540	-0.106919
H44	H	1.274924	-0.811012	-0.583534
C45	C	1.206737	-0.911098	-0.414651
C46	C	1.139507	-0.886134	-0.482293
C47	C	1.048071	-0.912826	-0.457937
H48	H	1.189455	-0.893517	-0.352598
H49	H	1.207595	-0.963726	-0.414317
H50	H	1.138646	-0.833517	-0.482617
H51	H	1.156758	-0.903712	-0.544352
H52	H	1.048929	-0.965454	-0.457602
H53	H	1.030798	-0.895244	-0.395882
H54	H	1.002446	-0.895897	-0.503832
C55	C	1.443984	-0.910982	-0.651993
C56	C	1.444505	-0.988539	-0.650475
C57	C	1.468865	-1.015285	-0.741841
H58	H	1.506037	-0.893365	-0.669320
H59	H	1.398087	-0.894140	-0.697673
H60	H	1.490400	-1.005374	-0.604810
H61	H	1.382461	-1.006176	-0.633166
H62	H	1.422968	-0.998443	-0.787521
H63	H	1.530917	-0.997663	-0.759160
H64	H	1.469213	-1.067910	-0.740826
C65	C	1.343706	-0.803815	-0.277501
C66	C	1.343906	-0.726253	-0.278665
C67	C	1.319319	-0.699621	-0.187304
H68	H	1.389190	-0.821015	-0.231649
H69	H	1.281393	-0.821155	-0.260595
H70	H	1.406210	-0.708921	-0.295559
H71	H	1.298421	-0.709034	-0.324497
H72	H	1.257006	-0.716962	-0.170399
H73	H	1.364806	-0.716826	-0.141460
H74	H	1.319443	-0.646994	-0.188084
C75	C	1.531060	-0.910634	-0.327515
C76	C	1.505990	-0.885547	-0.235550
C77	C	1.572827	-0.911940	-0.168435
H78	H	1.593393	-0.892932	-0.343647
H79	H	1.531058	-0.963264	-0.328228
H80	H	1.506002	-0.832928	-0.234839
H81	H	1.443668	-0.903246	-0.219387
H82	H	1.572825	-0.964570	-0.169148
H83	H	1.635156	-0.894236	-0.184576
H84	H	1.555821	-0.894928	-0.106028
C85	C	1.581071	-0.803543	-0.515320
C86	C	1.605325	-0.828449	-0.607587
C87	C	1.696621	-0.801729	-0.632416
H88	H	1.627141	-0.821143	-0.470320
H89	H	1.580471	-0.750915	-0.514592
H90	H	1.605932	-0.881066	-0.608308
H91	H	1.559279	-0.810851	-0.652608
H92	H	1.696021	-0.749102	-0.631687
H93	H	1.742684	-0.819331	-0.587409
H94	H	1.713086	-0.818619	-0.695023
