data_functionalizedCrystal
_audit_creation_method	'MofGen! by Chris Wilmer'
_symmetry_space_group_name_H-M	'P1'
_symmetry_Int_Tables_number	1
_symmetry_cell_setting	triclinic
loop_
_symmetry_equiv_pos_as_xyz
  x,y,z
_cell_length_a	11.026660
_cell_length_b	12.503572
_cell_length_c	11.026607
_cell_angle_alpha	85.701682
_cell_angle_beta	108.585426
_cell_angle_gamma	94.293564
loop_
_atom_site_label
_atom_site_type_symbol
_atom_site_fract_x
_atom_site_fract_y
_atom_site_fract_z
O1	O	1.732457	0.089322	0.527838
O2	O	1.365880	0.089323	0.467078
O3	O	1.518787	0.089318	0.314169
O4	O	1.579550	0.089326	0.680747
O5	O	1.507293	-0.089323	0.325693
O6	O	1.354386	-0.089319	0.478602
O7	O	1.720963	-0.089320	0.539362
Cu8	Cu	1.536625	-0.105631	0.510034
Cu9	Cu	1.550218	0.105634	0.496406
O10	O	1.568056	-0.089316	0.692271
C11	C	1.312474	0.000002	0.461631
C12	C	1.170461	0.000002	0.428216
C13	C	0.970035	0.000007	0.485957
C14	C	1.116813	0.000005	0.520496
N15	N	1.527073	-0.254223	0.519621
C16	C	1.513025	-0.473338	0.533734
C17	C	1.573823	-0.526667	0.472701
C18	C	1.566006	-0.648590	0.480554
C19	C	1.520840	-0.351404	0.525883
C20	C	1.774369	0.000003	0.544809
C21	C	1.916382	0.000010	0.578224
C22	C	1.501830	-0.000001	0.272271
C23	C	1.468414	0.000003	0.130257
N24	N	1.559778	0.254226	0.486811
C25	C	1.560683	0.000004	0.076607
C26	C	1.526147	0.000008	-0.070172
C27	C	1.585013	0.000006	0.734169
C28	C	1.618430	0.000009	0.876182
H29	H	0.979112	0.000005	0.682788
O30	O	1.699194	0.000009	0.159684
H31	H	1.714141	-0.072807	0.225652
O32	O	1.436319	-0.534138	0.610776
H33	H	1.442157	-0.621746	0.604944
O34	O	1.199885	-0.000005	0.659016
H35	H	1.183906	0.072801	0.702426
O36	O	1.650556	-0.465860	0.395681
H37	H	1.611099	-0.487365	0.294155
H38	H	1.421579	0.000015	-0.132900
O39	O	1.329904	-0.000006	0.047174
H40	H	1.314961	0.072801	-0.018807
O41	O	1.756951	0.000012	-0.040752
H42	H	1.771901	-0.072804	0.025215
O43	O	0.886960	0.000001	0.347444
H44	H	0.784712	0.000007	0.342052
H45	H	1.107742	0.000072	0.323640
