data_functionalizedCrystal
_audit_creation_method	'MofGen! by Chris Wilmer'
_symmetry_space_group_name_H-M	'P1'
_symmetry_Int_Tables_number	1
_symmetry_cell_setting	triclinic
loop_
_symmetry_equiv_pos_as_xyz
  x,y,z
_cell_length_a	14.421503
_cell_length_b	14.044220
_cell_length_c	14.044220
_cell_angle_alpha	93.188878
_cell_angle_beta	90.003696
_cell_angle_gamma	89.996554
loop_
_atom_site_label
_atom_site_type_symbol
_atom_site_fract_x
_atom_site_fract_y
_atom_site_fract_z
O1	O	0.077017	-1.277173	-0.230155
O2	O	0.077040	-1.000501	-0.221849
O3	O	0.077020	-1.134684	-0.087666
O4	O	0.077037	-1.142990	-0.364338
O5	O	-0.077204	-1.134662	-0.087686
O6	O	-0.077183	-1.000479	-0.221869
O7	O	-0.077207	-1.277150	-0.230175
Cu8	Cu	-0.091277	-1.138812	-0.226024
Cu9	Cu	0.091110	-1.138839	-0.226000
O10	O	-0.077186	-1.142967	-0.364357
C11	C	-0.000069	-0.964868	-0.218223
C12	C	-0.000060	-0.858725	-0.207379
N13	N	-0.219558	-1.138801	-0.226040
C14	C	-0.000092	-1.131037	-0.052054
C15	C	-0.000092	-1.120193	0.054088
C16	C	-0.469202	-1.076740	-0.288055
C17	C	-0.531011	-1.164574	-0.313879
C18	C	-0.408720	-1.138822	-0.226019
C19	C	-0.531005	-1.051012	-0.200219
C20	C	-0.591441	-1.138835	-0.226001
C21	C	-0.469167	-1.226703	-0.251890
C22	C	-0.469156	-1.113082	-0.138188
C23	C	-0.530937	-1.200975	-0.163981
C24	C	-0.303458	-1.138813	-0.226032
C25	C	-0.696700	-1.138854	-0.225988
N26	N	0.219391	-1.138858	-0.225977
C27	C	-0.000096	-1.312783	-0.233800
C28	C	-0.000098	-1.418926	-0.244645
C29	C	-0.000080	-0.664388	-0.187553
C30	C	-0.000079	-0.613258	-0.264467
C31	C	-0.000090	-0.505122	-0.253435
C32	C	-0.000069	-0.772534	-0.198583
C33	C	-0.000072	-1.146614	-0.399969
C34	C	-0.000066	-1.157459	-0.506112
C35	C	-0.000077	-1.100366	0.248426
C36	C	-0.000081	-1.177281	0.299556
C37	C	-0.000073	-1.166249	0.407692
C38	C	-0.000086	-1.111397	0.140280
H39	H	-0.558180	-1.186357	-0.388148
H40	H	-0.558170	-0.976748	-0.178407
H41	H	-0.000025	-1.251414	0.262117
O42	O	-0.436810	-1.014071	-0.350562
C43	C	-0.346311	-0.872662	-0.372127
C44	C	-0.382954	-0.943541	-0.301231
H45	H	-0.302745	-0.815632	-0.332274
H46	H	-0.407237	-0.837543	-0.408203
H47	H	-0.301768	-0.912385	-0.428410
H48	H	-0.427482	-0.903889	-0.244893
H49	H	-0.321985	-0.978660	-0.265228
O50	O	-0.000195	-1.011879	0.292973
C51	C	-0.080120	-0.861774	0.316893
C52	C	-0.080088	-0.961947	0.266353
H53	H	-0.144716	-0.821382	0.295405
H54	H	-0.015623	-0.821264	0.295346
H55	H	-0.080072	-0.868545	0.397408
H56	H	-0.080169	-0.955263	0.185829
H57	H	-0.144580	-1.002420	0.287978
H58	H	-0.000090	-0.626951	-0.113425
O59	O	-0.436752	-1.315248	-0.278106
C60	C	-0.302400	-1.414574	-0.307543
C61	C	-0.338987	-1.314261	-0.277818
H62	H	-0.223354	-1.413815	-0.307300
H63	H	-0.328386	-1.436594	-0.382213
H64	H	-0.328386	-1.467600	-0.255051
H65	H	-0.313016	-1.261168	-0.330243
H66	H	-0.313009	-1.292321	-0.203126
H67	H	-0.441965	-1.091273	-0.063940
O68	O	-0.562923	-1.263754	-0.101379
C69	C	-0.523680	-1.379171	0.012768
C70	C	-0.487328	-1.308120	-0.058106
H71	H	-0.462581	-1.415045	0.047789
H72	H	-0.568154	-1.435596	-0.026837
H73	H	-0.567231	-1.339414	0.069875
H74	H	-0.443739	-1.347794	-0.115229
H75	H	-0.442906	-1.251697	-0.018434
O76	O	-0.000003	-0.658066	-0.352840
C77	C	0.000015	-0.808268	-0.444550
C78	C	-0.000064	-0.757640	-0.344418
H79	H	-0.000054	-0.888782	-0.437775
H80	H	0.064585	-0.786796	-0.484985
H81	H	-0.064500	-0.786696	-0.485027
H82	H	0.064407	-0.779187	-0.303862
H83	H	-0.064677	-0.779114	-0.304055
