data_functionalizedCrystal
_audit_creation_method	'MofGen! by Chris Wilmer'
_symmetry_space_group_name_H-M	'P1'
_symmetry_Int_Tables_number	1
_symmetry_cell_setting	triclinic
loop_
_symmetry_equiv_pos_as_xyz
  x,y,z
_cell_length_a	14.519731
_cell_length_b	14.519731
_cell_length_c	10.868271
_cell_angle_alpha	89.993880
_cell_angle_beta	89.995592
_cell_angle_gamma	83.688853
loop_
_atom_site_label
_atom_site_type_symbol
_atom_site_fract_x
_atom_site_fract_y
_atom_site_fract_z
O1	O	1.223864	0.120984	-0.102328
O2	O	1.473864	0.370984	0.147672
O3	O	1.723864	0.620984	0.397672
O4	O	1.973864	0.870984	0.647672
O5	O	0.955391	0.135200	-0.102330
O6	O	1.205391	0.385200	0.147670
O7	O	1.455391	0.635200	0.397670
O8	O	1.705391	0.885200	0.647670
O9	O	1.096736	-0.006145	-0.102318
O10	O	1.346736	0.243855	0.147682
O11	O	1.596736	0.493855	0.397682
O12	O	1.846736	0.743855	0.647682
O13	O	1.082520	0.262329	-0.102340
O14	O	1.332520	0.512329	0.147660
O15	O	1.582520	0.762329	0.397660
O16	O	1.832520	1.012329	0.647660
O17	O	1.096724	-0.006150	0.102327
O18	O	1.346724	0.243850	0.352327
O19	O	1.596724	0.493850	0.602327
O20	O	1.846724	0.743850	0.852327
O21	O	0.955380	0.135195	0.102315
O22	O	1.205380	0.385195	0.352315
O23	O	1.455380	0.635195	0.602315
O24	O	1.705380	0.885195	0.852315
O25	O	1.223853	0.120979	0.102317
O26	O	1.473853	0.370979	0.352317
O27	O	1.723853	0.620979	0.602317
O28	O	1.973853	0.870979	0.852317
Zn29	Zn	1.089614	0.128086	0.134808
Zn30	Zn	1.339614	0.378086	0.384808
Zn31	Zn	1.589614	0.628086	0.634808
Zn32	Zn	1.839614	0.878086	0.884808
Zn33	Zn	1.089630	0.128093	-0.134821
Zn34	Zn	1.339630	0.378093	0.115179
Zn35	Zn	1.589630	0.628093	0.365179
Zn36	Zn	1.839630	0.878093	0.615179
O37	O	1.082508	0.262323	0.102305
O38	O	1.332508	0.512323	0.352305
O39	O	1.582508	0.762323	0.602305
O40	O	1.832508	1.012323	0.852305
C41	C	0.921026	0.134531	-0.000008
C42	C	1.171026	0.384531	0.249992
C43	C	1.421026	0.634531	0.499992
C44	C	1.671026	0.884531	0.749992
C45	C	0.818645	0.132535	-0.000008
C46	C	1.068645	0.382535	0.249992
C47	C	1.318645	0.632535	0.499992
C48	C	1.568645	0.882535	0.749992
C49	C	0.735501	0.130913	-0.000013
C50	C	0.985501	0.380913	0.249987
C51	C	1.235501	0.630913	0.499987
C52	C	1.485501	0.880913	0.749987
C53	C	0.631192	0.128887	-0.000013
C54	C	0.881192	0.378887	0.249987
C55	C	1.131192	0.628887	0.499987
C56	C	1.381192	0.878887	0.749987
C57	C	0.548053	0.127278	-0.000013
C58	C	0.798053	0.377278	0.249987
C59	C	1.048053	0.627278	0.499987
C60	C	1.298053	0.877278	0.749987
C61	C	0.443738	0.125252	-0.000016
C62	C	0.693738	0.375252	0.249984
C63	C	0.943738	0.625252	0.499984
C64	C	1.193738	0.875252	0.749984
C65	C	1.096064	-0.040507	0.000005
C66	C	1.346064	0.209493	0.250005
C67	C	1.596064	0.459493	0.500005
C68	C	1.846064	0.709493	0.750005
C69	C	1.094068	-0.142887	0.000006
C70	C	1.344068	0.107113	0.250006
C71	C	1.594068	0.357113	0.500006
C72	C	1.844068	0.607113	0.750006
C73	C	1.092446	-0.226031	0.000003
C74	C	1.342446	0.023969	0.250003
C75	C	1.592446	0.273969	0.500003
C76	C	1.842446	0.523969	0.750003
C77	C	1.090419	-0.330340	-0.000007
C78	C	1.340419	-0.080340	0.249993
C79	C	1.590419	0.169660	0.499993
C80	C	1.840419	0.419660	0.749993
C81	C	1.088811	-0.413479	-0.000014
C82	C	1.338811	-0.163479	0.249986
C83	C	1.588811	0.086521	0.499986
C84	C	1.838811	0.336521	0.749986
C85	C	1.086785	-0.517795	-0.000022
C86	C	1.336785	-0.267795	0.249978
C87	C	1.586785	-0.017795	0.499978
C88	C	1.836785	0.232205	0.749978
C89	C	1.258218	0.121648	-0.000008
C90	C	1.508218	0.371648	0.249992
C91	C	1.758218	0.621648	0.499992
C92	C	2.008218	0.871648	0.749992
C93	C	1.360598	0.123644	-0.000015
C94	C	1.610598	0.373644	0.249985
C95	C	1.860598	0.623644	0.499985
C96	C	2.110598	0.873644	0.749985
C97	C	1.083180	0.296685	-0.000021
C98	C	1.333180	0.546685	0.249979
C99	C	1.583180	0.796685	0.499979
C100	C	1.833180	1.046685	0.749979
C101	C	1.085176	0.399066	-0.000030
C102	C	1.335176	0.649066	0.249970
C103	C	1.585176	0.899066	0.499970
C104	C	1.835176	1.149066	0.749970
N105	N	1.089611	0.128080	0.318822
N106	N	1.339611	0.378080	0.568822
N107	N	1.589611	0.628080	0.818822
N108	N	1.839611	0.878080	1.068822
N109	N	1.089641	0.128091	-0.318835
N110	N	1.339641	0.378091	-0.068835
N111	N	1.589641	0.628091	0.181165
N112	N	1.839641	0.878091	0.431165
C113	C	1.089625	0.128091	0.569828
C114	C	1.339625	0.378091	0.819828
C115	C	1.589625	0.628091	1.069828
C116	C	1.839625	0.878091	1.319828
C117	C	1.089614	0.128088	0.430150
C118	C	1.339614	0.378088	0.680150
C119	C	1.589614	0.628088	0.930150
C120	C	1.839614	0.878088	1.180150
