data_functionalizedCrystal
_audit_creation_method	'MofGen! by Chris Wilmer'
_symmetry_space_group_name_H-M	'P1'
_symmetry_Int_Tables_number	1
_symmetry_cell_setting	triclinic
loop_
_symmetry_equiv_pos_as_xyz
  x,y,z
_cell_length_a	35.288094
_cell_length_b	35.277682
_cell_length_c	35.277611
_cell_angle_alpha	89.998451
_cell_angle_beta	59.997844
_cell_angle_gamma	60.000244
loop_
_atom_site_label
_atom_site_type_symbol
_atom_site_fract_x
_atom_site_fract_y
_atom_site_fract_z
O1	O	0.271235	-0.260041	-0.594403
O2	O	0.193635	-0.204918	-0.461657
O3	O	0.271234	-0.204917	-0.539277
O4	O	0.193637	-0.260042	-0.516783
O5	O	0.334261	-0.267964	-0.539277
O6	O	0.256663	-0.267964	-0.461657
O7	O	0.334263	-0.323088	-0.594403
Zn8	Zn	0.305470	-0.305536	-0.528030
Zn9	Zn	0.222428	-0.222469	-0.528030
O10	O	0.256664	-0.323088	-0.516783
C11	C	0.387989	-0.094847	-0.551585
C12	C	0.361387	-0.044845	-0.548365
C13	C	0.365397	-0.117868	-0.551905
C14	C	0.456610	-0.163490	-0.551584
C15	C	0.503379	-0.186882	-0.548365
C16	C	0.433914	-0.186407	-0.551905
C17	C	0.387987	-0.163488	-0.551584
C18	C	0.361383	-0.186879	-0.548365
C19	C	0.433916	-0.117870	-0.551905
C20	C	0.339890	-0.205776	-0.545764
C21	C	0.339895	-0.004448	-0.545764
C22	C	0.541162	-0.205780	-0.545763
C23	C	0.312925	-0.229483	-0.542500
C24	C	0.312933	0.046231	-0.542501
C25	C	0.588564	-0.229489	-0.542500
C26	C	0.466065	-0.432016	-0.966568
C27	C	0.511992	-0.477636	-0.989487
C28	C	0.466062	-0.432018	-0.897924
C29	C	0.511990	-0.477637	-0.920947
C30	C	0.534687	-0.500659	-0.966568
C31	C	0.443472	-0.409099	-0.920947
C32	C	0.342487	-0.320827	-1.008484
C33	C	0.317224	-0.299069	-1.030090
C34	C	0.338910	-0.322523	-1.075298
C35	C	0.311515	-0.298937	-1.098724
C36	C	0.385864	-0.367736	-1.098901
C37	C	0.411128	-0.389489	-1.077297
C38	C	0.389437	-0.366032	-1.032087
C39	C	0.687748	-0.666189	-1.077759
C40	C	0.731099	-0.713066	-1.099518
C41	C	0.752844	-0.736584	-1.076064
C42	C	0.799842	-0.787411	-1.099648
C43	C	0.731238	-0.713219	-1.030850
C44	C	0.687895	-0.666343	-1.009095
C45	C	0.666150	-0.642830	-1.032555
C46	C	0.342479	-0.320832	-0.732389
C47	C	0.317209	-0.299077	-0.685509
C48	C	0.338894	-0.322533	-0.661993
C49	C	0.311496	-0.298948	-0.611163
C50	C	0.385844	-0.367744	-0.685357
C51	C	0.411109	-0.389497	-0.732235
C52	C	0.389425	-0.366035	-0.755749
C53	C	0.416832	-0.389624	-1.008663
C54	C	0.438669	-0.408428	-0.989992
C55	C	0.438665	-0.408431	-0.847095
C56	C	0.416826	-0.389628	-0.806580
C57	C	0.581685	-0.551486	-0.990157
C58	C	0.619148	-0.592001	-1.008961
C59	C	0.061850	-0.500375	-0.493889
C60	C	0.015923	-0.477353	-0.493568
C61	C	0.061849	-0.431732	-0.493889
C62	C	0.015922	-0.408814	-0.493568
C63	C	-0.006773	-0.431733	-0.493889
C64	C	0.084441	-0.477352	-0.493568
C65	C	0.185431	-0.665905	-0.506317
C66	C	0.210696	-0.712782	-0.509830
C67	C	0.189012	-0.736298	-0.511594
C68	C	0.216408	-0.787128	-0.515413
C69	C	0.142058	-0.712934	-0.509840
C70	C	0.116794	-0.666059	-0.506320
C71	C	0.138482	-0.642545	-0.504559
C72	C	-0.159831	-0.389820	-0.506316
C73	C	-0.203181	-0.368215	-0.509830
C74	C	-0.224927	-0.323010	-0.511595
C75	C	-0.271924	-0.299583	-0.515412
C76	C	-0.203322	-0.299407	-0.509842
C77	C	-0.159980	-0.321008	-0.506320
C78	C	-0.138234	-0.366219	-0.504560
C79	C	0.185427	-0.389813	-0.506316
C80	C	0.210694	-0.368208	-0.509836
C81	C	0.189009	-0.323001	-0.511600
C82	C	0.216404	-0.299575	-0.515418
C83	C	0.142059	-0.299402	-0.509848
C84	C	0.116796	-0.321008	-0.506330
C85	C	0.138481	-0.366213	-0.504560
C86	C	0.111085	-0.591717	-0.500746
C87	C	0.089247	-0.551202	-0.497705
C88	C	0.089245	-0.408307	-0.497705
C89	C	0.111082	-0.389636	-0.500746
C90	C	-0.053770	-0.408310	-0.497705
C91	C	-0.091233	-0.389640	-0.500746
O92	O	0.712693	-0.260053	-0.516783
O93	O	0.602476	-0.204924	-0.539277
O94	O	0.602473	-0.204927	-0.461657
O95	O	0.712695	-0.260051	-0.594403
O96	O	0.602470	-0.267971	-0.461657
O97	O	0.602473	-0.267969	-0.539277
O98	O	0.712689	-0.323098	-0.516783
Zn99	Zn	0.657581	-0.305543	-0.528030
Zn100	Zn	0.657585	-0.222479	-0.528030
O101	O	0.712692	-0.323096	-0.594403
O102	O	0.193645	0.196111	-0.516784
O103	O	0.271242	0.063368	-0.539278
O104	O	0.193643	0.140986	-0.461658
O105	O	0.271244	0.118494	-0.594404
O106	O	0.256671	0.140986	-0.461657
O107	O	0.334269	0.063369	-0.539277
O108	O	0.256673	0.196112	-0.516784
Zn109	Zn	0.305478	0.129740	-0.528031
Zn110	Zn	0.222437	0.129740	-0.528031
O111	O	0.334271	0.118494	-0.594404
O112	O	0.925433	-0.936918	-1.130628
O113	O	0.815226	-0.804172	-1.075507
O114	O	0.815214	-0.881785	-1.075502
O115	O	0.925445	-0.859305	-1.130633
O116	O	0.815216	-0.881783	-1.138549
O117	O	0.815228	-0.804171	-1.138555
O118	O	0.925435	-0.936916	-1.193676
Zn119	Zn	0.870332	-0.870543	-1.176125
Zn120	Zn	0.870329	-0.870545	-1.093057
O121	O	0.925448	-0.859304	-1.193681
O122	O	0.256673	-0.267958	-1.193372
O123	O	0.334276	-0.323079	-1.138254
O124	O	0.256673	-0.323077	-1.138240
O125	O	0.334277	-0.267960	-1.193386
O126	O	0.193649	-0.260028	-1.075196
O127	O	0.271253	-0.260030	-1.075209
O128	O	0.193650	-0.204908	-1.130328
Zn129	Zn	0.222445	-0.222459	-1.092759
Zn130	Zn	0.305481	-0.305529	-1.175823
O131	O	0.271254	-0.204911	-1.130342
C132	C	0.071299	-0.094838	-0.234802
C133	C	0.024532	-0.044836	-0.211411
C134	C	0.093995	-0.117860	-0.211884
C135	C	0.139919	-0.163482	-0.303443
C136	C	0.166520	-0.186875	-0.353444
C137	C	0.162511	-0.186400	-0.280421
C138	C	0.139922	-0.163481	-0.234802
C139	C	0.166525	-0.186871	-0.211411
C140	C	0.093993	-0.117862	-0.280421
C141	C	0.188019	-0.205768	-0.192514
C142	C	-0.013251	-0.004439	-0.192514
C143	C	0.188011	-0.205774	-0.393841
C144	C	0.214984	-0.229476	-0.168807
C145	C	-0.060652	0.046241	-0.168807
C146	C	0.214972	-0.229483	-0.444519
C147	C	0.387975	-0.163499	-0.234795
C148	C	0.361371	-0.186891	-0.211404
C149	C	0.365384	-0.117880	-0.211875
C150	C	0.456601	-0.163498	-0.303438
C151	C	0.503371	-0.186889	-0.353441
C152	C	0.433906	-0.117879	-0.280414
C153	C	0.387977	-0.094858	-0.234793
C154	C	0.361374	-0.044857	-0.211400
C155	C	0.433904	-0.186417	-0.280416
C156	C	0.339882	-0.004461	-0.192502
C157	C	0.339876	-0.205788	-0.192507
C158	C	0.541157	-0.205785	-0.393838
C159	C	0.312918	0.046218	-0.168792
C160	C	0.312911	-0.229496	-0.168800
C161	C	0.588561	-0.229492	-0.444519
C162	C	0.139909	0.153291	-0.234794
C163	C	0.166510	0.150072	-0.211401
C164	C	0.093981	0.153611	-0.211876
C165	C	0.139913	0.153291	-0.303439
C166	C	0.166518	0.150073	-0.353442
C167	C	0.093985	0.153611	-0.280416
C168	C	0.071288	0.153290	-0.234795
C169	C	0.024518	0.150071	-0.211404
C170	C	0.162502	0.153612	-0.280415
C171	C	-0.013266	0.147469	-0.192507
C172	C	0.188002	0.147470	-0.192503
C173	C	0.188013	0.147471	-0.393839
C174	C	-0.060669	0.144205	-0.168799
C175	C	0.214963	0.144207	-0.168794
C176	C	0.214979	0.144209	-0.444520
C177	C	1.061887	-0.500389	-0.966559
C178	C	1.084490	-0.477373	-0.989474
C179	C	0.993267	-0.431747	-0.897915
C180	C	1.015974	-0.408835	-0.920934
C181	C	1.061906	-0.431756	-0.966554
C182	C	1.015955	-0.477364	-0.920939
C183	C	1.116180	-0.665906	-1.008483
C184	C	1.141284	-0.712781	-1.030090
C185	C	1.188246	-0.736299	-1.075296
C186	C	1.215474	-0.787126	-1.098724
C187	C	1.210100	-0.712940	-1.098895
C188	C	1.184992	-0.666067	-1.077290
C189	C	1.138029	-0.642551	-1.032082
C190	C	1.185526	-0.389863	-1.077730
C191	C	1.210801	-0.368265	-1.099485
C192	C	1.189127	-0.323063	-1.076029
C193	C	1.216532	-0.299643	-1.099609
C194	C	1.142169	-0.299458	-1.030817
C195	C	1.116889	-0.321053	-1.009066
C196	C	1.138575	-0.366261	-1.032528
C197	C	0.840179	-0.389820	-0.732387
C198	C	0.796827	-0.368214	-0.685509
C199	C	0.775088	-0.323011	-0.661991
C200	C	0.728085	-0.299583	-0.611162
C201	C	0.796706	-0.299417	-0.685351
C202	C	0.840058	-0.321024	-0.732228
C203	C	0.861788	-0.366226	-0.755744
C204	C	1.110810	-0.591726	-1.008657
C205	C	1.089111	-0.551214	-0.989984
C206	C	0.946263	-0.408322	-0.847087
C207	C	0.908795	-0.389649	-0.806573
C208	C	1.089315	-0.408340	-0.990138
C209	C	1.111163	-0.389675	-1.008938
O210	O	0.256644	0.196103	-0.138237
O211	O	0.334249	0.063359	-0.193362
O212	O	0.256638	0.140973	-0.193349
O213	O	0.334256	0.118489	-0.138249
O214	O	0.193621	0.140966	-0.130294
O215	O	0.271233	0.063352	-0.130306
O216	O	0.193627	0.196096	-0.075181
Zn217	Zn	0.222425	0.129723	-0.092732
Zn218	Zn	0.305452	0.129732	-0.175811
O219	O	0.271239	0.118482	-0.075194
C220	C	0.534395	0.095603	-0.966570
C221	C	0.511700	0.095283	-0.989488
C222	C	0.465771	0.095603	-0.897925
C223	C	0.443180	0.095282	-0.920947
C224	C	0.465772	0.095603	-0.966568
C225	C	0.511699	0.095282	-0.920948
C226	C	0.687457	0.108032	-1.008490
C227	C	0.730808	0.111546	-1.030096
C228	C	0.752554	0.113310	-1.075305
C229	C	0.799552	0.117129	-1.098731
C230	C	0.730949	0.111556	-1.098906
C231	C	0.687606	0.108036	-1.077301
C232	C	0.665860	0.106274	-1.032091
C233	C	0.411446	0.108031	-1.077756
C234	C	0.386334	0.111545	-1.099514
C235	C	0.339376	0.113310	-1.076059
C236	C	0.312141	0.117127	-1.099642
C237	C	0.317534	0.111556	-1.030845
C238	C	0.342650	0.108034	-1.009091
C239	C	0.389608	0.106275	-1.032552
C240	C	0.411441	0.108028	-0.732390
C241	C	0.386325	0.111548	-0.685511
C242	C	0.339367	0.113311	-0.661994
C243	C	0.312130	0.117129	-0.611163
C244	C	0.317525	0.111559	-0.685357
C245	C	0.342642	0.108042	-0.732235
C246	C	0.389604	0.106273	-0.755749
C247	C	0.618857	0.102461	-1.008666
C248	C	0.581394	0.099420	-0.989994
C249	C	0.438539	0.099419	-0.847096
C250	C	0.416833	0.102459	-0.806580
C251	C	0.438541	0.099420	-0.990155
C252	C	0.416835	0.102460	-1.008958
H253	H	0.328442	-0.099383	-0.552423
H254	H	0.452901	-0.099396	-0.298900
H255	H	0.279303	0.112987	-1.011749
C256	C	0.863832	-0.295069	-0.757925
C257	C	0.923001	-0.315166	-0.779532
C258	C	0.946775	-0.289210	-0.805229
C259	C	0.911379	-0.243158	-0.809320
C260	C	0.852206	-0.223058	-0.787713
C261	C	0.828433	-0.249014	-0.762015
H262	H	0.949206	-0.349259	-0.776504
H263	H	0.990579	-0.304090	-0.821224
H264	H	0.928978	-0.223944	-0.828343
H265	H	0.826001	-0.188965	-0.790740
H266	H	0.784629	-0.234135	-0.746020
H267	H	0.779030	-0.262622	-0.666191
C268	C	0.463096	0.106086	-0.758257
C269	C	0.487120	0.108018	-0.732560
C270	C	0.538774	0.106077	-0.758428
C271	C	0.566404	0.102203	-0.809992
C272	C	0.542381	0.100271	-0.835692
C273	C	0.490727	0.102212	-0.809824
H274	H	0.466666	0.110886	-0.694386
H275	H	0.556557	0.107507	-0.739403
H276	H	0.604641	0.100766	-0.829141
H277	H	0.562835	0.097404	-0.873866
H278	H	0.472944	0.100782	-0.828849
C279	C	0.315457	-0.092909	-0.161237
C280	C	0.290487	-0.118222	-0.135918
C281	C	0.240562	-0.093251	-0.085282
C282	C	0.215608	-0.042966	-0.059965
C283	C	0.240578	-0.017650	-0.085284
C284	C	0.290503	-0.042622	-0.135920
H285	H	0.308959	-0.155448	-0.154660
H286	H	0.222077	-0.111992	-0.066540
H287	H	0.178650	-0.024481	-0.022481
H288	H	0.222105	0.019576	-0.066542
H289	H	0.308988	-0.023881	-0.154662
H290	H	0.452905	-0.099383	-0.552416
H291	H	0.997008	-0.371366	-0.902434
H292	H	-0.142130	-0.426630	-0.504880
H293	H	1.121447	-0.495859	-1.026959
C294	C	0.068312	0.154315	-0.161235
C295	C	0.093269	0.154664	-0.135913
C296	C	0.067597	0.155371	-0.085274
C297	C	0.016969	0.155730	-0.059956
C298	C	-0.007991	0.155381	-0.085279
C299	C	0.017680	0.154674	-0.135918
H300	H	0.130750	0.154398	-0.154654
H301	H	0.086075	0.155629	-0.066528
H302	H	-0.002035	0.156254	-0.022470
H303	H	-0.045473	0.155647	-0.066537
H304	H	-0.000797	0.154416	-0.154663
H305	H	0.452901	-0.223902	-0.298897
H306	H	0.074996	0.154125	-0.298904
C307	C	0.537644	-0.502606	-1.040122
C308	C	0.542890	-0.547601	-1.052559
C309	C	0.568536	-0.572570	-1.103190
C310	C	0.588937	-0.552544	-1.141385
C311	C	0.583692	-0.507546	-1.128949
C312	C	0.558046	-0.482577	-1.078318
H313	H	0.527788	-0.562428	-1.024284
H314	H	0.572419	-0.605881	-1.112396
H315	H	0.607922	-0.571027	-1.178865
H316	H	0.598794	-0.492719	-1.157224
H317	H	0.554163	-0.449266	-1.069112
H318	H	0.124405	-0.732084	-0.511273
C319	C	0.212431	0.154306	-0.305389
C320	C	0.237400	0.154646	-0.280075
C321	C	0.287328	0.155338	-0.305049
C322	C	0.312287	0.155689	-0.355337
C323	C	0.287318	0.155349	-0.380653
C324	C	0.237390	0.154657	-0.355679
H325	H	0.218924	0.154386	-0.242847
H326	H	0.305812	0.155589	-0.286308
H327	H	0.349247	0.156201	-0.373825
H328	H	0.305794	0.155609	-0.417882
H329	H	0.218907	0.154405	-0.374420
H330	H	0.278993	-0.262258	-1.010869
H331	H	0.124402	-0.262591	-0.511285
C332	C	1.117250	-0.738475	-1.004131
C333	C	1.060131	-0.721366	-0.987476
C334	C	1.036098	-0.747061	-0.961516
C335	C	1.069184	-0.789865	-0.952210
C336	C	1.126306	-0.806976	-0.968865
C337	C	1.150340	-0.781281	-0.994825
H338	H	1.035636	-0.689678	-0.994365
H339	H	0.993811	-0.734394	-0.949187
H340	H	1.051393	-0.808886	-0.932993
H341	H	1.150801	-0.838664	-0.961976
H342	H	1.192626	-0.793949	-1.007154
C343	C	0.262345	-0.738482	-0.511766
C344	C	0.314434	-0.781280	-0.554179
C345	C	0.366084	-0.806980	-0.556116
C346	C	0.365645	-0.789881	-0.515642
C347	C	0.313554	-0.747081	-0.473227
C348	C	0.261904	-0.721381	-0.471289
H349	H	0.314760	-0.793939	-0.584143
H350	H	0.404645	-0.838663	-0.587515
H351	H	0.403879	-0.808905	-0.517077
H352	H	0.313228	-0.734421	-0.443263
H353	H	0.223343	-0.689697	-0.439890
H354	H	0.406226	0.094761	-0.902462
C355	C	0.990275	-0.502322	-0.895973
C356	C	1.015226	-0.552606	-0.921290
C357	C	0.989544	-0.577561	-0.896325
C358	C	0.938910	-0.552232	-0.846042
C359	C	0.913956	-0.501946	-0.820722
C360	C	0.939638	-0.476991	-0.845687
H361	H	1.052711	-0.571358	-0.958515
H362	H	1.008017	-0.614786	-0.915069
H363	H	0.919898	-0.570705	-0.827561
H364	H	0.876471	-0.483194	-0.783497
H365	H	0.921165	-0.439766	-0.826943
C366	C	0.537651	-0.502611	-0.895979
C367	C	0.512686	-0.477299	-0.845689
C368	C	0.538347	-0.502272	-0.820723
C369	C	0.588971	-0.552557	-0.846047
C370	C	0.613939	-0.577872	-0.896340
C371	C	0.588278	-0.552899	-0.921306
H372	H	0.475209	-0.440072	-0.826940
H373	H	0.519864	-0.483532	-0.783492
H374	H	0.607967	-0.571044	-0.827565
H375	H	0.651417	-0.615099	-0.915089
H376	H	0.606761	-0.571639	-0.958537
C377	C	0.754860	-0.738766	-1.149247
C378	C	0.778230	-0.721667	-1.189284
C379	C	0.801989	-0.747368	-1.239013
C380	C	0.802378	-0.790167	-1.248705
C381	C	0.779006	-0.807268	-1.208667
C382	C	0.755247	-0.781567	-1.158938
H383	H	0.777943	-0.689983	-1.182110
H384	H	0.819290	-0.734708	-1.268651
H385	H	0.819965	-0.809192	-1.285517
H386	H	0.779293	-0.838952	-1.215841
H387	H	0.737946	-0.794227	-1.129299
C388	C	0.537359	0.094581	-1.040128
C389	C	0.595559	0.054139	-1.078316
C390	C	0.621216	0.053435	-1.128955
C391	C	0.588673	0.093172	-1.141405
C392	C	0.530469	0.133617	-1.103215
C393	C	0.504812	0.134321	-1.052576
H394	H	0.619653	0.024720	-1.069101
H395	H	0.664303	0.023494	-1.157225
H396	H	0.607666	0.092650	-1.178890
H397	H	0.506376	0.163035	-1.112430
H398	H	0.461726	0.164261	-1.024306
C399	C	0.459566	-0.237042	-0.552596
C400	C	0.510180	-0.262361	-0.552934
C401	C	0.535828	-0.312992	-0.553621
C402	C	0.510861	-0.338306	-0.553970
C403	C	0.460244	-0.312987	-0.553632
C404	C	0.434597	-0.262356	-0.552945
H405	H	0.528664	-0.243622	-0.552676
H406	H	0.573298	-0.331735	-0.553872
H407	H	0.529847	-0.375786	-0.554479
H408	H	0.441760	-0.331726	-0.553890
H409	H	0.397126	-0.243613	-0.552694
H410	H	0.530694	0.094768	-0.902466
C411	C	0.754566	0.113481	-1.004134
C412	C	0.777935	0.073007	-0.987474
C413	C	0.801693	0.074943	-0.961511
C414	C	0.802081	0.117353	-0.952208
C415	C	0.778712	0.157831	-0.968869
C416	C	0.754954	0.155894	-0.994832
H417	H	0.777648	0.041609	-0.994360
H418	H	0.818992	0.044979	-0.949178
H419	H	0.819668	0.118787	-0.932989
H420	H	0.778999	0.189228	-0.961983
H421	H	0.737655	0.185858	-1.007165
C422	C	0.065150	-0.295048	-0.504398
C423	C	0.065594	-0.278390	-0.544875
C424	C	0.013948	-0.252430	-0.542944
C425	C	-0.038143	-0.243127	-0.500535
C426	C	-0.038589	-0.259785	-0.460054
C427	C	0.013057	-0.285746	-0.461986
H428	H	0.104156	-0.285277	-0.576272
H429	H	0.014278	-0.240098	-0.572910
H430	H	-0.076374	-0.223909	-0.499105
H431	H	-0.077151	-0.252899	-0.428658
H432	H	0.012727	-0.298077	-0.432019
C433	C	0.409704	-0.393550	-0.659495
C434	C	0.416206	-0.439564	-0.655283
C435	C	0.440068	-0.465369	-0.629424
C436	C	0.457427	-0.445160	-0.607775
C437	C	0.450925	-0.399143	-0.611986
C438	C	0.427064	-0.373338	-0.637846
H439	H	0.403356	-0.454527	-0.671310
H440	H	0.444881	-0.499434	-0.626307
H441	H	0.475091	-0.464262	-0.588632
H442	H	0.463776	-0.384180	-0.595960
H443	H	0.422251	-0.339273	-0.640963
C444	C	0.773047	-0.394167	-0.659813
C445	C	0.749669	-0.410803	-0.676921
C446	C	0.725888	-0.436755	-0.651227
C447	C	0.725484	-0.446070	-0.608423
C448	C	0.748862	-0.429433	-0.591313
C449	C	0.772644	-0.403481	-0.617008
H450	H	0.749968	-0.403908	-0.708609
H451	H	0.708581	-0.449070	-0.663893
H452	H	0.707879	-0.465281	-0.589403
H453	H	0.748564	-0.436328	-0.559626
H454	H	0.789951	-0.391165	-0.604341
C455	C	0.393550	-0.358460	-0.895976
C456	C	0.368584	-0.333139	-0.921290
C457	C	0.318666	-0.282503	-0.896319
C458	C	0.293712	-0.257187	-0.846034
C459	C	0.318678	-0.282508	-0.820717
C460	C	0.368596	-0.333144	-0.845687
H461	H	0.387056	-0.351880	-0.958517
H462	H	0.300185	-0.263758	-0.915061
H463	H	0.256759	-0.219702	-0.827549
H464	H	0.300205	-0.263767	-0.783490
H465	H	0.387077	-0.351889	-0.826945
C466	C	1.261755	-0.738809	-1.148620
C467	C	1.313761	-0.781656	-1.158233
C468	C	1.365418	-0.807525	-1.207959
C469	C	1.365069	-0.790546	-1.248072
C470	C	1.313061	-0.747696	-1.238459
C471	C	1.261404	-0.721828	-1.188734
H472	H	1.314021	-0.794227	-1.128538
H473	H	1.403917	-0.839245	-1.215074
H474	H	1.403308	-0.809695	-1.284882
H475	H	1.312801	-0.735125	-1.268154
H476	H	1.222904	-0.690107	-1.181618
C477	C	0.065150	-0.640360	-0.504392
C478	C	0.041296	-0.666223	-0.506334
C479	C	-0.010347	-0.640525	-0.504407
C480	C	-0.038136	-0.588963	-0.500539
C481	C	-0.014282	-0.563097	-0.498597
C482	C	0.037361	-0.588796	-0.500524
H483	H	0.061867	-0.704395	-0.509197
H484	H	-0.028005	-0.659673	-0.505845
H485	H	-0.076365	-0.569940	-0.499113
H486	H	-0.034853	-0.524926	-0.495734
H487	H	0.055019	-0.569648	-0.499086
H488	H	0.449682	0.106595	-1.096862
C489	C	0.265875	0.113491	-0.659496
C490	C	0.215663	0.152998	-0.655285
C491	C	0.164017	0.154926	-0.629428
C492	C	0.162584	0.117348	-0.607783
C493	C	0.212798	0.077839	-0.611993
C494	C	0.264444	0.075910	-0.637850
H495	H	0.216722	0.180818	-0.671308
H496	H	0.126845	0.184174	-0.626311
H497	H	0.124353	0.118776	-0.588642
H498	H	0.211739	0.050019	-0.595970
H499	H	0.301616	0.046662	-0.640967
H500	H	0.324816	-0.301727	-0.751531
C501	C	0.265567	-0.249346	-0.659810
C502	C	0.266021	-0.209316	-0.676912
C503	C	0.214379	-0.159583	-0.651213
C504	C	0.162283	-0.149881	-0.608413
C505	C	0.161827	-0.189912	-0.591308
C506	C	0.213469	-0.239645	-0.617007
H507	H	0.304587	-0.216497	-0.708597
H508	H	0.214717	-0.129950	-0.663875
H509	H	0.124055	-0.113066	-0.589389
H510	H	0.123261	-0.182731	-0.559623
H511	H	0.213131	-0.269279	-0.604345
H512	H	0.857876	-0.426628	-0.751530
H513	H	-0.221034	-0.262597	-0.511273
C514	C	1.209029	-0.640374	-1.103246
C515	C	1.260684	-0.666240	-1.152970
C516	C	1.284723	-0.640547	-1.178925
C517	C	1.257106	-0.588988	-1.155158
C518	C	1.205448	-0.563119	-1.105432
C519	C	1.181409	-0.588812	-1.079476
H520	H	1.281131	-0.704409	-1.170566
H521	H	1.322965	-0.659697	-1.215736
H522	H	1.274901	-0.569968	-1.174372
H523	H	1.185001	-0.524950	-1.087836
H524	H	1.143168	-0.569663	-1.042666
C525	C	1.262455	-0.394230	-1.149212
C526	C	1.312568	-0.440284	-1.159836
C527	C	1.364222	-0.466251	-1.209563
C528	C	1.365764	-0.446164	-1.248665
C529	C	1.315650	-0.400107	-1.238042
C530	C	1.263995	-0.374141	-1.188315
H531	H	1.311428	-0.455156	-1.130890
H532	H	1.401321	-0.500345	-1.217427
H533	H	1.404002	-0.465386	-1.285476
H534	H	1.316789	-0.385236	-1.266989
H535	H	1.226897	-0.340047	-1.180451
H536	H	0.404120	0.112975	-1.136325
C537	C	1.118320	-0.249735	-1.005014
C538	C	1.151536	-0.240128	-0.995820
C539	C	1.127689	-0.190405	-0.970017
C540	C	1.070625	-0.150288	-0.953409
C541	C	1.037405	-0.159893	-0.962602
C542	C	1.061253	-0.209617	-0.988405
H543	H	1.193781	-0.269827	-1.008115
H544	H	1.152280	-0.183295	-0.963212
H545	H	1.052972	-0.113480	-0.934308
H546	H	0.995160	-0.130195	-0.950307
H547	H	1.036661	-0.216727	-0.995211
C548	C	0.318625	0.106106	-0.959360
C549	C	0.266973	0.108047	-0.933555
C550	C	0.242947	0.106120	-0.883822
C551	C	0.270572	0.102252	-0.859894
C552	C	0.322226	0.100311	-0.885698
C553	C	0.346253	0.102237	-0.935431
H554	H	0.246521	0.110910	-0.951268
H555	H	0.204709	0.107557	-0.864720
H556	H	0.252786	0.100826	-0.823078
H557	H	0.342679	0.097447	-0.867985
H558	H	0.384491	0.100800	-0.954534
H559	H	0.669756	0.106596	-0.971679
C560	C	0.068341	-0.092894	-0.161246
C561	C	0.100890	-0.085710	-0.148804
C562	C	0.075237	-0.060748	-0.098169
C563	C	0.017036	-0.042969	-0.059976
C564	C	-0.015516	-0.050152	-0.072417
C565	C	0.010136	-0.075115	-0.123052
H566	H	0.143976	-0.098872	-0.177078
H567	H	0.099335	-0.055431	-0.088960
H568	H	-0.001953	-0.024490	-0.022493
H569	H	-0.058603	-0.036991	-0.044143
H570	H	-0.013961	-0.080432	-0.132262
C571	C	0.409717	-0.393534	-1.148627
C572	C	0.427071	-0.373320	-1.187639
C573	C	0.450926	-0.399120	-1.237367
C574	C	0.457428	-0.445134	-1.248083
C575	C	0.440075	-0.465350	-1.209070
C576	C	0.416219	-0.439550	-1.159342
H577	H	0.422258	-0.339255	-1.179708
H578	H	0.463772	-0.384154	-1.266247
H579	H	0.475087	-0.464232	-1.284895
H580	H	0.444887	-0.499415	-1.217001
H581	H	0.403373	-0.454516	-1.130462
H582	H	0.449357	-0.426299	-1.096517
C583	C	0.212439	-0.237036	-0.305380
C584	C	0.210204	-0.275237	-0.323156
C585	C	0.260133	-0.325869	-0.348109
C586	C	0.312296	-0.338300	-0.355287
C587	C	0.314533	-0.300098	-0.337511
C588	C	0.264604	-0.249466	-0.312558
H589	H	0.171588	-0.266036	-0.317842
H590	H	0.258477	-0.354149	-0.361268
H591	H	0.349256	-0.375781	-0.373759
H592	H	0.353149	-0.309299	-0.342824
H593	H	0.266260	-0.221186	-0.299399
C594	C	0.209284	-0.439540	-0.504376
C595	C	0.181494	-0.463306	-0.500504
C596	C	0.205350	-0.513033	-0.498567
C597	C	0.256996	-0.538996	-0.500501
C598	C	0.284789	-0.515231	-0.504373
C599	C	0.260933	-0.465503	-0.506311
H600	H	0.143261	-0.444086	-0.499072
H601	H	0.184776	-0.530626	-0.495700
H602	H	0.274655	-0.575807	-0.499066
H603	H	0.323022	-0.534450	-0.505805
H604	H	0.281507	-0.447911	-0.509177
H605	H	1.077940	-0.646763	-0.971674
H606	H	0.074994	-0.099377	-0.298902
C607	C	0.755156	-0.739084	-1.005049
C608	C	0.719865	-0.743295	-0.959033
C609	C	0.743783	-0.769162	-0.933231
C610	C	0.802991	-0.790816	-0.953445
C611	C	0.838285	-0.786606	-0.999463
C612	C	0.814368	-0.760739	-1.025265
H613	H	0.676033	-0.727265	-0.944068
H614	H	0.717655	-0.772279	-0.899166
H615	H	0.820696	-0.809964	-0.934345
H616	H	0.882118	-0.802636	-1.014428
H617	H	0.840495	-0.757622	-1.059330
C618	C	0.410350	0.113474	-0.659812
C619	C	0.427825	0.075900	-0.638199
C620	C	0.451852	0.077824	-0.612502
C621	C	0.458404	0.117323	-0.608417
C622	C	0.440929	0.154900	-0.630030
C623	C	0.416901	0.152976	-0.655728
H624	H	0.422975	0.046658	-0.641223
H625	H	0.464788	0.050007	-0.596502
H626	H	0.476191	0.118747	-0.589394
H627	H	0.445779	0.184142	-0.627006
H628	H	0.403965	0.180794	-0.671727
H629	H	1.203184	-0.426670	-1.096837
H630	H	0.324822	-0.301722	-0.971673
C631	C	0.754869	0.113497	-1.148632
C632	C	0.814077	0.075929	-1.187646
C633	C	0.837995	0.077871	-1.237374
C634	C	0.802705	0.117382	-1.248087
C635	C	0.743493	0.154953	-1.209072
C636	C	0.719575	0.153011	-1.159345
H637	H	0.840204	0.046678	-1.179716
H638	H	0.881828	0.050057	-1.266255
H639	H	0.820411	0.118819	-1.284898
H640	H	0.717366	0.184204	-1.217002
H641	H	0.675742	0.180825	-1.130463
H642	H	0.670049	-0.647048	-1.096865
C643	C	0.262334	-0.394164	-0.511759
C644	C	0.261876	-0.410809	-0.471272
C645	C	0.313514	-0.436762	-0.473190
C646	C	0.365610	-0.446070	-0.515595
C647	C	0.366070	-0.429425	-0.556085
C648	C	0.314433	-0.403471	-0.554167
H649	H	0.223309	-0.403918	-0.439879
H650	H	0.313172	-0.449084	-0.443217
H651	H	0.403835	-0.465282	-0.517015
H652	H	0.404637	-0.436315	-0.587479
H653	H	0.314774	-0.391150	-0.584141
H654	H	1.078656	-0.301831	-0.972256
H655	H	0.670307	-0.647323	-0.972283
H656	H	0.670020	0.106606	-1.096521
C657	C	-0.226939	-0.394178	-0.511765
C658	C	-0.191527	-0.440226	-0.551273
C659	C	-0.215284	-0.466190	-0.553210
C660	C	-0.274452	-0.446107	-0.515638
C661	C	-0.309867	-0.400057	-0.476127
C662	C	-0.286111	-0.374092	-0.474190
H663	H	-0.147724	-0.455095	-0.579089
H664	H	-0.189067	-0.500280	-0.582459
H665	H	-0.292038	-0.465327	-0.517072
H666	H	-0.353670	-0.385187	-0.448312
H667	H	-0.312328	-0.340003	-0.444941
H668	H	0.449337	-0.426309	-0.751255
H669	H	0.324860	0.106607	-0.751256
H670	H	-0.003070	-0.371331	-0.493053
H671	H	-0.003075	-0.495836	-0.493043
H672	H	0.121396	-0.495836	-0.493050
H673	H	-0.142395	-0.301787	-0.504889
H674	H	0.203095	-0.646764	-0.504881
