data_functionalizedCrystal
_audit_creation_method	'MofGen! by Chris Wilmer'
_symmetry_space_group_name_H-M	'P1'
_symmetry_Int_Tables_number	1
_symmetry_cell_setting	triclinic
loop_
_symmetry_equiv_pos_as_xyz
  x,y,z
_cell_length_a	19.121102
_cell_length_b	19.120786
_cell_length_c	19.120904
_cell_angle_alpha	90.133503
_cell_angle_beta	89.911827
_cell_angle_gamma	89.915559
loop_
_atom_site_label
_atom_site_type_symbol
_atom_site_fract_x
_atom_site_fract_y
_atom_site_fract_z
Zn1	Zn	1.040890	-0.342335	0.426845
Zn2	Zn	1.540890	0.157665	0.926845
Zn3	Zn	1.041233	-0.454595	0.304618
Zn4	Zn	1.541233	0.045405	0.804618
Zn5	Zn	0.929064	-0.332381	0.305071
Zn6	Zn	1.429064	0.167619	0.805071
Zn7	Zn	0.919063	-0.454124	0.416841
Zn8	Zn	1.419063	0.045876	0.916841
O9	O	0.982562	-0.395859	0.363344
O10	O	1.482562	0.104141	0.863344
O11	O	1.138863	-0.361590	0.414628
O12	O	1.638863	0.138410	0.914628
O13	O	1.030682	-0.434414	0.206750
O14	O	1.530682	0.065586	0.706750
O15	O	0.947940	-0.235771	0.325601
O16	O	1.447940	0.264229	0.825601
O17	O	1.139115	-0.444066	0.324828
O18	O	1.639115	0.055934	0.824828
O19	O	1.030098	-0.243084	0.415067
O20	O	1.530098	0.256916	0.915067
O21	O	0.948273	-0.344624	0.207082
O22	O	1.448273	0.155376	0.707082
O23	O	0.829810	-0.344168	0.315901
O24	O	1.329810	0.155832	0.815901
O25	O	0.930895	-0.443264	0.516097
O26	O	1.430895	0.056736	1.016097
O27	O	0.822462	-0.433612	0.398018
O28	O	1.322462	0.066388	0.898018
O29	O	1.020400	-0.361133	0.523446
O30	O	1.520400	0.138867	1.023446
O31	O	1.020985	-0.552463	0.315128
O32	O	1.520985	-0.052463	0.815128
O33	O	0.931227	-0.552118	0.397578
O34	O	1.431227	-0.052118	0.897578
C35	C	0.800745	-0.387759	0.355923
C36	C	1.300745	0.112241	0.855923
C37	C	0.722961	-0.384312	0.352765
C38	C	1.222961	0.115688	0.852765
C39	C	0.682611	-0.429326	0.393961
C40	C	1.182611	0.070674	0.893961
C41	C	0.609525	-0.426077	0.390997
C42	C	1.109525	0.073923	0.890997
C43	C	0.576790	-0.377818	0.346832
C44	C	1.076790	0.122182	0.846832
C45	C	0.617145	-0.332800	0.305634
C46	C	1.117145	0.167200	0.805634
C47	C	0.690230	-0.336045	0.308602
C48	C	1.190230	0.163955	0.808602
C49	C	0.356312	-0.365683	0.335738
C50	C	0.856312	0.134317	0.835738
C51	C	0.283222	-0.362442	0.332771
C52	C	0.783222	0.137558	0.832771
C53	C	0.275607	-0.455719	0.418136
C54	C	0.775607	0.044281	0.918136
C55	C	0.348693	-0.458963	0.421097
C56	C	0.848693	0.041037	0.921097
C57	C	0.389042	-0.413942	0.379902
C58	C	0.889042	0.086058	0.879902
C59	C	0.502085	-0.374498	0.343800
C60	C	1.002085	0.125502	0.843800
C61	C	0.463746	-0.417260	0.382938
C62	C	0.963746	0.082740	0.882938
C63	C	0.975076	-0.577684	0.355235
C64	C	1.475076	-0.077684	0.855235
C65	C	0.971937	-0.655474	0.351792
C66	C	1.471937	-0.155474	0.851792
C67	C	1.013202	-0.695766	0.396790
C68	C	1.513202	-0.195766	0.896790
C69	C	1.010249	-0.768858	0.393556
C70	C	1.510249	-0.268858	0.893556
C71	C	0.966034	-0.801655	0.345320
C72	C	1.466034	-0.301655	0.845320
C73	C	0.924764	-0.761357	0.300320
C74	C	1.424764	-0.261357	0.800320
C75	C	0.927714	-0.688267	0.303558
C76	C	1.427714	-0.188267	0.803558
C77	C	0.954987	-1.022152	0.333214
C78	C	1.454987	-0.522152	0.833214
C79	C	0.952042	-1.095247	0.329978
C80	C	1.452042	-0.595247	0.829978
C81	C	1.037525	-1.102743	0.423215
C82	C	1.537525	-0.602743	0.923215
C83	C	1.040474	-1.029652	0.426446
C84	C	1.540474	-0.529652	0.926446
C85	C	0.999202	-0.989360	0.381449
C86	C	1.499202	-0.489360	0.881449
C87	C	0.963016	-0.876366	0.342011
C88	C	1.463016	-0.376366	0.842011
C89	C	1.002216	-0.914650	0.384761
C90	C	1.502216	-0.414650	0.884761
C91	C	1.165090	-0.403991	0.370793
C92	C	1.665090	0.096009	0.870793
C93	C	1.242873	-0.407456	0.373968
C94	C	1.742873	0.092544	0.873968
C95	C	0.974494	-0.403257	0.545873
C96	C	1.474494	0.096743	1.045873
C97	C	0.971055	-0.406409	0.623656
C98	C	1.471055	0.093591	1.123656
C99	C	0.990096	-0.213325	0.371500
C100	C	1.490096	0.286675	0.871500
C101	C	0.993307	-0.135540	0.374976
C102	C	1.493307	0.364460	0.874976
C103	C	0.990642	-0.388441	0.181528
C104	C	1.490642	0.111559	0.681528
C105	C	0.994224	-0.385098	0.103760
C106	C	1.494224	0.114902	0.603760
C107	C	1.016038	-0.365131	0.664026
C108	C	1.516038	0.134869	1.164026
C109	C	1.012799	-0.368090	0.737112
C110	C	1.512799	0.131910	1.237112
C111	C	0.964579	-0.412331	0.769826
C112	C	1.464579	0.087669	1.269826
C113	C	0.919592	-0.453611	0.729450
C114	C	1.419592	0.046389	1.229450
C115	C	0.922828	-0.450648	0.656366
C116	C	1.422828	0.049352	1.156366
C117	C	0.952473	-0.423414	0.990300
C118	C	1.452473	0.076586	1.490300
C119	C	0.949242	-0.426376	1.063390
C120	C	1.449242	0.073624	1.563390
C121	C	1.042448	-0.340853	1.071046
C122	C	1.542448	0.159147	1.571046
C123	C	1.045683	-0.337897	0.997961
C124	C	1.545683	0.162103	1.497961
C125	C	1.000693	-0.379174	0.957592
C126	C	1.500693	0.120826	1.457592
C127	C	0.961269	-0.415359	0.844530
C128	C	1.461269	0.084641	1.344530
C129	C	1.004001	-0.376143	0.882888
C130	C	1.504001	0.123857	1.382888
H131	H	0.576675	-0.462733	0.424543
H132	H	1.076675	0.037267	0.924543
H133	H	0.915849	-0.457036	0.957440
H134	H	1.415849	0.042964	1.457440
C135	C	0.851068	-0.435224	1.141299
C136	C	1.351068	0.064776	1.641299
C137	C	0.896227	-0.475003	1.099348
C138	C	1.396227	0.024997	1.599348
H139	H	0.818343	-0.465244	1.163500
H140	H	1.318343	0.034756	1.663500
H141	H	0.826828	-0.402387	1.113056
H142	H	1.326828	0.097613	1.613056
H143	H	0.877407	-0.411072	1.175800
H144	H	1.377407	0.088928	1.675800
H145	H	0.869888	-0.499151	1.064843
H146	H	1.369888	0.000849	1.564843
H147	H	0.920469	-0.507852	1.127593
H148	H	1.420469	-0.007852	1.627593
H149	H	1.043258	-0.340119	0.856249
H150	H	1.543258	0.159881	1.356249
C151	C	0.873248	-0.496131	0.838081
C152	C	1.373248	0.003869	1.338081
C153	C	0.866588	-0.502243	0.765407
C154	C	1.366588	-0.002243	1.265407
H155	H	0.840528	-0.526159	0.860277
H156	H	1.340528	-0.026159	1.360277
H157	H	0.864416	-0.449145	0.851738
H158	H	1.364416	0.050855	1.351738
H159	H	0.919316	-0.508955	0.851515
H160	H	1.419316	-0.008955	1.351515
H161	H	0.820521	-0.489413	0.751973
H162	H	1.320521	0.010587	1.251973
H163	H	0.875415	-0.549238	0.751745
H164	H	1.375415	-0.049238	1.251745
H165	H	0.886192	-0.484254	0.623497
H166	H	1.386192	0.015746	1.123497
H167	H	0.256572	-0.323136	0.296812
H168	H	0.756572	0.176864	0.796812
H169	H	0.927019	-0.903078	0.302736
H170	H	1.427019	-0.403078	0.802736
H171	H	0.375341	-0.498263	0.457059
H172	H	0.875341	0.001737	0.957059
H173	H	1.038213	-0.887945	0.424037
H174	H	1.538213	-0.387945	0.924037
H175	H	1.071126	-1.135557	0.459850
H176	H	1.571126	-0.635557	0.959850
C177	C	1.107836	-0.280888	0.678943
C178	C	1.607836	0.219112	1.178943
C179	C	1.069041	-0.316497	0.628071
C180	C	1.569041	0.183503	1.128071
H181	H	1.140554	-0.250859	0.656746
H182	H	1.640554	0.249141	1.156746
H183	H	1.132083	-0.313727	0.707178
H184	H	1.632083	0.186273	1.207178
H185	H	1.077180	-0.253920	0.707400
H186	H	1.577180	0.246080	1.207400
H187	H	1.099697	-0.343470	0.599618
H188	H	1.599697	0.156530	1.099618
H189	H	1.044793	-0.283654	0.599825
H190	H	1.544793	0.216346	1.099825
C191	C	0.867824	-1.080500	0.238149
C192	C	1.367824	-0.580500	0.738149
C193	C	0.903431	-1.131299	0.276959
C194	C	1.403431	-0.631299	0.776959
H195	H	0.837814	-1.102759	0.205422
H196	H	1.337814	-0.602759	0.705422
H197	H	0.900664	-1.052248	0.213911
H198	H	1.400664	-0.552248	0.713911
H199	H	0.840837	-1.052048	0.268796
H200	H	1.340837	-0.552048	0.768796
H201	H	0.930423	-1.159748	0.246312
H202	H	1.430423	-0.659748	0.746312
H203	H	0.870588	-1.159563	0.301198
H204	H	1.370588	-0.659563	0.801198
H205	H	0.709258	-0.468626	0.429923
H206	H	1.209258	0.031374	0.929923
H207	H	0.242747	-0.492372	0.451676
H208	H	0.742747	0.007628	0.951676
H209	H	0.389156	-0.329028	0.302188
H210	H	0.889156	0.170972	0.802188
H211	H	0.590487	-0.293503	0.269677
H212	H	1.090487	0.206497	0.769677
C213	C	0.864597	-0.935475	0.323201
C214	C	1.364597	-0.435475	0.823201
C215	C	0.909623	-0.977874	0.283747
C216	C	1.409623	-0.477874	0.783747
H217	H	0.836588	-0.908142	0.292658
H218	H	1.336588	-0.408142	0.792658
H219	H	0.891347	-0.905479	0.352383
H220	H	1.391347	-0.405479	0.852383
H221	H	0.835311	-0.964052	0.351312
H222	H	1.335311	-0.464052	0.851312
H223	H	0.938913	-0.949296	0.255641
H224	H	1.438913	-0.449296	0.755641
H225	H	0.882871	-1.007872	0.254554
H226	H	1.382871	-0.507872	0.754554
H227	H	0.922012	-0.451384	0.871174
H228	H	1.422012	0.048616	1.371174
H229	H	0.723082	-0.299386	0.275059
H230	H	1.223082	0.200614	0.775059
C231	C	1.022763	-0.277705	0.823886
C232	C	1.522763	0.222295	1.323886
C233	C	1.062243	-0.322706	0.781480
C234	C	1.562243	0.177294	1.281480
H235	H	1.053289	-0.249680	0.851271
H236	H	1.553289	0.250320	1.351271
H237	H	0.993593	-0.304475	0.853831
H238	H	1.493593	0.195525	1.353831
H239	H	0.994640	-0.248433	0.795311
H240	H	1.494640	0.251567	1.295311
H241	H	1.090362	-0.351982	0.810055
H242	H	1.590362	0.148018	1.310055
H243	H	1.091424	-0.295934	0.751532
H244	H	1.591424	0.204066	1.251532
C245	C	1.070144	-1.013393	0.547361
C246	C	1.570144	-0.513393	1.047361
C247	C	1.089078	-0.993606	0.479469
C248	C	1.589078	-0.493606	0.979469
H249	H	1.100151	-0.991137	0.580093
H250	H	1.600151	-0.491137	1.080093
H251	H	1.074293	-1.062683	0.551868
H252	H	1.574293	-0.562683	1.051868
H253	H	1.023148	-0.999765	0.556169
H254	H	1.523148	-0.499765	1.056169
H255	H	1.136072	-1.007238	0.470659
H256	H	1.636072	-0.507238	0.970659
H257	H	1.084935	-0.944305	0.474960
H258	H	1.584935	-0.444305	0.974960
C259	C	0.541393	-0.434592	0.479947
C260	C	1.041393	0.065408	0.979947
C261	C	0.499728	-0.470305	0.431483
C262	C	0.999728	0.029695	0.931483
H263	H	0.563614	-0.467343	0.509911
H264	H	1.063614	0.032657	1.009911
H265	H	0.512952	-0.403977	0.506968
H266	H	1.012952	0.096023	1.006968
H267	H	0.575877	-0.408245	0.455827
H268	H	1.075877	0.091755	0.955827
H269	H	0.465240	-0.496649	0.455602
H270	H	0.965240	0.003351	0.955602
H271	H	0.528170	-0.500933	0.404458
H272	H	1.028170	-0.000933	0.904458
C273	C	1.137482	-0.253652	1.012873
C274	C	1.637482	0.246348	1.512873
C275	C	1.098683	-0.289262	0.962004
C276	C	1.598683	0.210738	1.462004
H277	H	1.170200	-0.223625	0.990673
H278	H	1.670200	0.276375	1.490673
H279	H	1.161729	-0.286490	1.041108
H280	H	1.661729	0.213510	1.541108
H281	H	1.106827	-0.226681	1.041330
H282	H	1.606827	0.273319	1.541330
H283	H	1.129338	-0.316236	0.933550
H284	H	1.629338	0.183764	1.433550
H285	H	1.074435	-0.256419	0.933757
H286	H	1.574435	0.243581	1.433757
H287	H	1.079075	-0.307247	1.103923
H288	H	1.579075	0.192753	1.603923
C289	C	0.516947	-0.282628	0.259710
C290	C	1.016947	0.217372	0.759710
C291	C	0.466101	-0.321455	0.295250
C292	C	0.966101	0.178545	0.795250
H293	H	0.494729	-0.249879	0.229742
H294	H	0.994729	0.250121	0.729742
H295	H	0.545377	-0.313256	0.232691
H296	H	1.045377	0.186744	0.732691
H297	H	0.545212	-0.258408	0.292596
H298	H	1.045212	0.241592	0.792596
H299	H	0.437839	-0.345679	0.262363
H300	H	0.937839	0.154321	0.762363
H301	H	0.437659	-0.290823	0.322270
H302	H	0.937659	0.209177	0.822270
C303	C	1.042857	-0.679505	0.517703
C304	C	1.542857	-0.179505	1.017703
C305	C	1.061800	-0.659716	0.449814
C306	C	1.561800	-0.159716	0.949814
H307	H	1.072857	-0.657246	0.550440
H308	H	1.572857	-0.157246	1.050440
H309	H	1.047010	-0.728795	0.522211
H310	H	1.547010	-0.228795	1.022211
H311	H	0.995858	-0.665882	0.526504
H312	H	1.495858	-0.165882	1.026504
H313	H	1.108797	-0.673344	0.441012
H314	H	1.608797	-0.173344	0.941012
H315	H	1.057654	-0.610415	0.445305
H316	H	1.557654	-0.110415	0.945305
C317	C	1.012437	-0.855245	0.484461
C318	C	1.512437	-0.355245	0.984461
C319	C	1.055616	-0.813141	0.443018
C320	C	1.555616	-0.313141	0.943018
H321	H	1.040449	-0.882578	0.515002
H322	H	1.540449	-0.382578	1.015002
H323	H	0.985690	-0.885241	0.455278
H324	H	1.485690	-0.385241	0.955278
H325	H	0.981896	-0.826468	0.511220
H326	H	1.481896	-0.326468	1.011220
H327	H	1.086154	-0.841918	0.416256
H328	H	1.586154	-0.341918	0.916256
H329	H	1.082375	-0.783142	0.472206
H330	H	1.582375	-0.283142	0.972206
C331	C	0.840560	-0.746600	0.208489
C332	C	1.340560	-0.246600	0.708489
C333	C	0.876160	-0.797405	0.247299
C334	C	1.376160	-0.297405	0.747299
H335	H	0.810551	-0.768855	0.175759
H336	H	1.310551	-0.268855	0.675759
H337	H	0.873403	-0.718350	0.184255
H338	H	1.373403	-0.218350	0.684255
H339	H	0.813572	-0.718148	0.239136
H340	H	1.313572	-0.218148	0.739136
H341	H	0.903152	-0.825854	0.216654
H342	H	1.403152	-0.325854	0.716654
H343	H	0.843312	-0.825667	0.271535
H344	H	1.343312	-0.325667	0.771535
C345	C	0.837336	-0.601575	0.293560
C346	C	1.337336	-0.101575	0.793560
C347	C	0.882354	-0.643973	0.254096
C348	C	1.382354	-0.143973	0.754096
H349	H	0.809328	-0.574235	0.263023
H350	H	1.309328	-0.074235	0.763023
H351	H	0.864092	-0.571588	0.322744
H352	H	1.364092	-0.071588	0.822744
H353	H	0.808049	-0.630154	0.321668
H354	H	1.308049	-0.130154	0.821668
H355	H	0.911645	-0.615394	0.225991
H356	H	1.411645	-0.115394	0.725991
H357	H	0.855596	-0.673964	0.224899
H358	H	1.355596	-0.173964	0.724899
