data_functionalizedCrystal
_audit_creation_method	'MofGen! by Chris Wilmer'
_symmetry_space_group_name_H-M	'P1'
_symmetry_Int_Tables_number	1
_symmetry_cell_setting	triclinic
loop_
_symmetry_equiv_pos_as_xyz
  x,y,z
_cell_length_a	14.971486
_cell_length_b	14.971486
_cell_length_c	13.448316
_cell_angle_alpha	89.999879
_cell_angle_beta	90.003864
_cell_angle_gamma	96.385871
loop_
_atom_site_label
_atom_site_type_symbol
_atom_site_fract_x
_atom_site_fract_y
_atom_site_fract_z
O1	O	0.116561	-1.186946	0.082578
O2	O	0.449894	-0.853612	0.415911
O3	O	0.783228	-0.520279	0.749245
O4	O	0.130520	-0.926545	0.082605
O5	O	0.463853	-0.593212	0.415938
O6	O	0.797187	-0.259879	0.749272
O7	O	-0.006660	-1.063725	0.082584
O8	O	0.326674	-0.730392	0.415917
O9	O	0.660007	-0.397058	0.749250
O10	O	0.253741	-1.049766	0.082599
O11	O	0.587074	-0.716433	0.415933
O12	O	0.920407	-0.383099	0.749266
O13	O	-0.006661	-1.063711	-0.082800
O14	O	0.326673	-0.730378	0.250533
O15	O	0.660006	-0.397045	0.583867
O16	O	0.130519	-0.926532	-0.082779
O17	O	0.463852	-0.593198	0.250555
O18	O	0.797185	-0.259865	0.583888
O19	O	0.116560	-1.186932	-0.082806
O20	O	0.449893	-0.853599	0.250528
O21	O	0.783227	-0.520265	0.583861
Cu22	Cu	0.123539	-1.056731	-0.097893
Cu23	Cu	0.456873	-0.723397	0.235440
Cu24	Cu	0.790206	-0.390064	0.568774
Cu25	Cu	0.123541	-1.056747	0.097692
Cu26	Cu	0.456874	-0.723413	0.431026
Cu27	Cu	0.790207	-0.390080	0.764359
O28	O	0.253739	-1.049752	-0.082784
O29	O	0.587073	-0.716419	0.250549
O30	O	0.920406	-0.383086	0.583882
C31	C	-0.039985	-1.063094	-0.000108
C32	C	0.293348	-0.729761	0.333226
C33	C	0.626682	-0.396427	0.666559
C34	C	-0.139282	-1.061223	-0.000107
C35	C	0.194051	-0.727890	0.333227
C36	C	0.527385	-0.394556	0.666560
C37	C	0.129895	-0.893214	-0.000083
C38	C	0.463228	-0.559881	0.333250
C39	C	0.796562	-0.226547	0.666583
C40	C	0.128024	-0.793917	-0.000073
C41	C	0.461358	-0.460583	0.333260
C42	C	0.794691	-0.127250	0.666593
C43	C	0.117185	-1.220263	-0.000115
C44	C	0.450518	-0.886930	0.333218
C45	C	0.783851	-0.553597	0.666552
C46	C	0.119056	-1.319561	-0.000119
C47	C	0.452389	-0.986227	0.333215
C48	C	0.785722	-0.652894	0.666548
C49	C	-0.196507	-1.141812	-0.000116
C50	C	0.136826	-0.808479	0.333217
C51	C	0.470159	-0.475146	0.666551
C52	C	-0.289807	-1.140049	-0.000106
C53	C	0.043527	-0.806716	0.333228
C54	C	0.376860	-0.473383	0.666561
C55	C	-0.325879	-1.057696	-0.000093
C56	C	0.007454	-0.724363	0.333240
C57	C	0.340788	-0.391029	0.666573
C58	C	-0.268646	-0.977101	-0.000081
C59	C	0.064687	-0.643767	0.333252
C60	C	0.398020	-0.310434	0.666585
C61	C	-0.175349	-0.978865	-0.000084
C62	C	0.157985	-0.645531	0.333249
C63	C	0.491318	-0.312198	0.666582
C64	C	-0.463109	-0.973430	-0.000077
C65	C	-0.129776	-0.640096	0.333256
C66	C	0.203558	-0.306763	0.666589
C67	C	-0.556413	-0.971665	-0.000076
C68	C	-0.223080	-0.638332	0.333257
C69	C	0.110254	-0.304998	0.666591
C70	C	-0.577567	-1.134614	-0.000099
C71	C	-0.244233	-0.801281	0.333235
C72	C	0.089100	-0.467947	0.666568
C73	C	-0.484269	-1.136378	-0.000102
C74	C	-0.150936	-0.803045	0.333232
C75	C	0.182397	-0.469712	0.666565
C76	C	-0.427043	-1.055782	-0.000091
C77	C	-0.093710	-0.722449	0.333242
C78	C	0.239624	-0.389116	0.666575
C79	C	0.287065	-1.050384	-0.000091
C80	C	0.620398	-0.717050	0.333243
C81	C	0.953731	-0.383717	0.666576
C82	C	0.386362	-1.052254	-0.000085
C83	C	0.719695	-0.718921	0.333248
C84	C	1.053028	-0.385588	0.666581
N85	N	0.123538	-1.056726	-0.235457
N86	N	0.456871	-0.723392	0.097876
N87	N	0.790204	-0.390059	0.431209
C88	C	0.208614	-0.736692	-0.000070
C89	C	0.541947	-0.403358	0.333264
C90	C	0.875280	-0.070025	0.666597
C91	C	0.206850	-0.643392	-0.000085
C92	C	0.540184	-0.310059	0.333249
C93	C	0.873517	0.023275	0.666582
C94	C	0.124497	-0.607320	-0.000096
C95	C	0.457831	-0.273986	0.333237
C96	C	0.791164	0.059347	0.666571
C97	C	0.043902	-0.664552	-0.000102
C98	C	0.377235	-0.331219	0.333231
C99	C	0.710569	0.002114	0.666564
C100	C	0.045666	-0.757850	-0.000095
C101	C	0.378999	-0.424517	0.333239
C102	C	0.712333	-0.091183	0.666572
C103	C	0.040231	-0.470090	-0.000116
C104	C	0.373564	-0.136757	0.333217
C105	C	0.706897	0.196577	0.666550
C106	C	0.038466	-0.376786	-0.000122
C107	C	0.371800	-0.043453	0.333211
C108	C	0.705133	0.289881	0.666544
C109	C	0.201415	-0.355632	-0.000106
C110	C	0.534749	-0.022299	0.333227
C111	C	0.868082	0.311035	0.666560
C112	C	0.203179	-0.448930	-0.000099
C113	C	0.536513	-0.115596	0.333235
C114	C	0.869846	0.217737	0.666568
C115	C	0.122584	-0.506156	-0.000103
C116	C	0.455917	-0.172822	0.333230
C117	C	0.789250	0.160511	0.666564
C118	C	0.177879	-1.111028	-0.287496
C119	C	0.511212	-0.777695	0.045837
C120	C	0.844545	-0.444361	0.379171
C121	C	0.177875	-1.111039	-0.391599
C122	C	0.511208	-0.777706	-0.058266
C123	C	0.844542	-0.444372	0.275067
C124	C	0.123534	-1.056743	-0.443662
C125	C	0.456867	-0.723409	-0.110329
C126	C	0.790201	-0.390076	0.223005
C127	C	0.069187	-1.002438	-0.391616
C128	C	0.402520	-0.669105	-0.058283
C129	C	0.735853	-0.335771	0.275051
C130	C	0.069186	-1.002432	-0.287515
C131	C	0.402520	-0.669099	0.045819
C132	C	0.735853	-0.335766	0.379152
C133	C	0.069193	-1.002452	-0.608596
C134	C	0.402526	-0.669119	-0.275263
C135	C	0.735859	-0.335786	0.058070
C136	C	0.069194	-1.002456	-0.712705
C137	C	0.402527	-0.669123	-0.379371
C138	C	0.735861	-0.335790	-0.046038
C139	C	0.177881	-1.111059	-0.712681
C140	C	0.511215	-0.777726	-0.379347
C141	C	0.844548	-0.444392	-0.046014
C142	C	0.177881	-1.111053	-0.608579
C143	C	0.511214	-0.777720	-0.275246
C144	C	0.844548	-0.444387	0.058087
C145	C	0.123535	-1.056747	-0.556541
C146	C	0.456868	-0.723414	-0.223207
C147	C	0.790201	-0.390081	0.110126
N148	N	0.123535	-1.056759	0.235257
N149	N	0.456868	-0.723425	0.568590
N150	N	0.790202	-0.390092	0.901923
H151	H	-0.167145	-1.208874	-0.000132
H152	H	0.166188	-0.875541	0.333201
H153	H	0.499522	-0.542207	0.666535
Br154	Br	0.251627	-1.184739	-0.462220
Br155	Br	0.584960	-0.851405	-0.128886
Br156	Br	0.918293	-0.518072	0.204447
Br157	Br	-0.063710	-0.835515	-0.000108
Br158	Br	0.269624	-0.502182	0.333225
Br159	Br	0.602957	-0.168848	0.666559
Br160	Br	-0.067865	-0.615598	-0.000128
Br161	Br	0.265468	-0.282265	0.333206
Br162	Br	0.598802	0.051068	0.666539
Br163	Br	0.251655	-1.184717	-0.537923
Br164	Br	0.584989	-0.851383	-0.204589
Br165	Br	0.918322	-0.518050	0.128744
H166	H	-0.128756	-0.913240	-0.000077
H167	H	0.204577	-0.579907	0.333257
H168	H	0.537911	-0.246574	0.666590
Br169	Br	0.310796	-0.277969	-0.000099
Br170	Br	0.644129	0.055364	0.333235
Br171	Br	0.977463	0.388697	0.666568
H172	H	-0.025399	-0.516682	-0.000121
H173	H	0.307934	-0.183348	0.333212
H174	H	0.641268	0.149985	0.666545
H175	H	-0.028593	-0.347419	-0.000133
H176	H	0.304740	-0.014086	0.333201
H177	H	0.638074	0.319247	0.666534
Br178	Br	-0.385445	-0.864048	-0.000060
Br179	Br	-0.052112	-0.530715	0.333273
Br180	Br	0.281222	-0.197382	0.666607
Br181	Br	-0.004581	-0.928768	-0.537973
Br182	Br	0.328752	-0.595435	-0.204639
Br183	Br	0.662085	-0.262102	0.128694
Br184	Br	0.251635	-1.184717	-0.216849
Br185	Br	0.584968	-0.851384	0.116484
Br186	Br	0.918301	-0.518051	0.449817
Br187	Br	-0.004566	-0.928752	-0.462272
Br188	Br	0.328767	-0.595419	-0.128938
Br189	Br	0.662100	-0.262086	0.204395
Br190	Br	-0.004578	-0.928746	-0.216889
Br191	Br	0.328755	-0.595413	0.116444
Br192	Br	0.662089	-0.262080	0.449777
H193	H	0.275675	-0.766054	-0.000060
H194	H	0.609008	-0.432720	0.333273
H195	H	0.942342	-0.099387	0.666607
Br196	Br	0.251636	-1.184762	-0.783303
Br197	Br	0.584969	-0.851428	-0.449969
Br198	Br	0.918302	-0.518095	-0.116636
H199	H	-0.336396	-1.205673	-0.000115
H200	H	-0.003063	-0.872340	0.333218
H201	H	0.330270	-0.539007	0.666551
Br202	Br	-0.004559	-0.928771	-0.783362
Br203	Br	0.328775	-0.595438	-0.450028
Br204	Br	0.662108	-0.262105	-0.116695
H205	H	0.272474	-0.596802	-0.000081
H206	H	0.605808	-0.263469	0.333253
H207	H	0.939141	0.069864	0.666586
H208	H	-0.298024	-0.910047	-0.000065
H209	H	0.035310	-0.576714	0.333268
H210	H	0.368643	-0.243380	0.666601
H211	H	-0.454903	-1.203437	-0.000119
H212	H	-0.121569	-0.870104	0.333215
H213	H	0.211764	-0.536771	0.666548
H214	H	-0.624165	-1.200238	-0.000104
H215	H	-0.290832	-0.866905	0.333230
H216	H	0.042501	-0.533572	0.666563
Br217	Br	-0.605368	-0.859899	-0.000064
Br218	Br	-0.272035	-0.526566	0.333269
Br219	Br	0.061298	-0.193232	0.666603
Br220	Br	0.314946	-0.497885	-0.000068
Br221	Br	0.648279	-0.164552	0.333265
Br222	Br	0.981612	0.168782	0.666598
