data_functionalizedCrystal
_audit_creation_method	'MofGen! by Chris Wilmer'
_symmetry_space_group_name_H-M	'P1'
_symmetry_Int_Tables_number	1
_symmetry_cell_setting	triclinic
loop_
_symmetry_equiv_pos_as_xyz
  x,y,z
_cell_length_a	16.625546
_cell_length_b	17.077404
_cell_length_c	17.077396
_cell_angle_alpha	89.980499
_cell_angle_beta	90.030215
_cell_angle_gamma	89.977307
loop_
_atom_site_label
_atom_site_type_symbol
_atom_site_fract_x
_atom_site_fract_y
_atom_site_fract_z
Zn1	Zn	-0.320997	-1.200057	0.443833
Zn2	Zn	-0.455839	-1.199965	0.312563
Zn3	Zn	-0.321025	-1.068789	0.312581
Zn4	Zn	-0.455792	-1.068758	0.443787
O5	O	-0.388413	-1.134392	0.378191
O6	O	-0.338892	-1.309892	0.426432
O7	O	-0.437988	-1.182539	0.202719
O8	O	-0.208189	-1.086253	0.330019
O9	O	-0.437960	-1.309824	0.329988
O10	O	-0.208168	-1.182695	0.426449
O11	O	-0.338940	-1.086164	0.202732
O12	O	-0.338894	-0.958938	0.329974
O13	O	-0.437879	-1.086200	0.553640
O14	O	-0.437906	-0.958915	0.426370
O15	O	-0.338846	-1.182665	0.553674
O16	O	-0.568666	-1.182509	0.329943
O17	O	-0.568630	-1.086111	0.426353
C18	C	-0.388399	-0.930444	0.378169
C19	C	-0.388412	-0.843194	0.378179
C20	C	-0.597904	-1.134318	0.378158
C21	C	-0.687525	-1.134358	0.378170
C22	C	-0.388354	-1.134440	0.582936
C23	C	-0.388329	-1.134460	0.670185
C24	C	-1.015701	-1.134495	0.378252
C25	C	-0.924392	-1.134454	0.378232
C26	C	-0.851616	-1.134426	0.378211
C27	C	-0.760302	-1.134386	0.378191
C28	C	-0.178104	-1.134488	0.378241
C29	C	-0.088483	-1.134529	0.378263
C30	C	-0.388428	-1.339136	0.378213
C31	C	-0.388435	-1.426386	0.378223
C32	C	-0.440045	-0.802213	0.428292
C33	C	-0.440047	-0.720232	0.428304
C34	C	-0.388419	-0.679235	0.378199
C35	C	-0.336780	-0.720222	0.328084
C36	C	-0.336774	-0.802201	0.328076
C37	C	-0.336795	-0.549352	0.328103
C38	C	-0.336801	-0.467368	0.328110
C39	C	-0.440068	-0.467383	0.428331
C40	C	-0.440063	-0.549362	0.428323
C41	C	-0.388425	-0.590344	0.378207
C42	C	-0.388414	-1.134390	0.174243
C43	C	-0.388212	-1.134522	0.086994
C44	C	-0.336758	-1.184691	0.711195
C45	C	-0.336731	-1.184700	0.793175
C46	C	-0.388280	-1.134482	0.834145
C47	C	-0.439853	-1.084245	0.793130
C48	C	-0.439875	-1.084233	0.711151
C49	C	-0.439804	-1.084277	0.964000
C50	C	-0.439783	-1.084291	1.045985
C51	C	-0.336660	-1.184745	1.046024
C52	C	-0.336682	-1.184732	0.964045
C53	C	-0.388257	-1.134496	0.923036
H54	H	-0.482090	-0.835587	0.469091
H55	H	-0.294739	-0.686836	0.287291
H56	H	-0.482093	-0.686869	0.469111
H57	H	-0.481822	-1.043354	0.826494
H58	H	-0.481861	-1.043321	0.677762
H59	H	-0.481789	-1.043357	0.930613
N60	N	-0.281025	-1.238912	1.090263
H61	H	-0.223419	-1.226741	1.076004
H62	H	-0.293619	-1.294972	1.075997
N63	N	-0.281082	-1.238888	0.919848
H64	H	-0.313863	-1.275242	0.885832
H65	H	-0.248413	-1.270661	0.958311
N66	N	-0.281090	-0.846411	0.274024
H67	H	-0.243765	-0.880448	0.305989
H68	H	-0.248438	-0.807955	0.242291
H69	H	-0.482108	-0.582740	0.469119
N70	N	-0.281163	-1.238861	0.667008
H71	H	-0.248489	-1.270682	0.705431
H72	H	-0.243856	-1.206921	0.632997
H73	H	-0.294752	-0.433990	0.287319
H74	H	-0.481757	-1.043397	1.079340
H75	H	-0.294739	-0.582717	0.287300
N76	N	-0.281117	-1.238877	0.837418
H77	H	-0.243740	-1.206996	0.871432
H78	H	-0.248517	-1.270686	0.798984
N79	N	-0.495766	-0.423185	0.482384
H80	H	-0.528478	-0.461596	0.514117
H81	H	-0.533035	-0.389148	0.450360
