data_functionalizedCrystal
_audit_creation_method	'MofGen! by Chris Wilmer'
_symmetry_space_group_name_H-M	'P1'
_symmetry_Int_Tables_number	1
_symmetry_cell_setting	triclinic
loop_
_symmetry_equiv_pos_as_xyz
  x,y,z
_cell_length_a	6.394989
_cell_length_b	10.654550
_cell_length_c	9.130313
_cell_angle_alpha	89.999724
_cell_angle_beta	90.001550
_cell_angle_gamma	94.508679
loop_
_atom_site_label
_atom_site_type_symbol
_atom_site_fract_x
_atom_site_fract_y
_atom_site_fract_z
O1	O	-0.293442	1.670947	-0.121679
O2	O	-0.321399	1.305765	-0.121705
O3	O	-0.003431	1.493540	-0.121693
O4	O	-0.611409	1.483173	-0.121692
O5	O	-0.003422	1.493526	0.121906
O6	O	-0.321389	1.305752	0.121893
O7	O	-0.293432	1.670934	0.121919
Cu8	Cu	-0.307410	1.488342	0.144149
Cu9	Cu	-0.307421	1.488357	-0.143935
O10	O	-0.611400	1.483159	0.121907
C11	C	-0.319341	1.258939	0.000091
C12	C	-0.313200	1.119430	0.000080
C13	C	-0.500414	1.041927	0.000085
C14	C	-0.494631	0.910845	0.000110
C15	C	-0.114403	0.934782	0.000121
C16	C	-0.120188	1.065861	0.000106
C17	C	0.074425	1.491483	0.000101
C18	C	0.310750	1.485219	0.000099
C19	C	-0.295490	1.717760	0.000120
C20	C	-0.301631	1.857269	0.000121
N21	N	-0.307401	1.488340	0.346772
N22	N	-0.307414	1.488369	-0.346558
C23	C	-0.166665	1.571516	0.423429
C24	C	-0.166665	1.571528	0.576766
C25	C	-0.448157	1.405184	0.576774
C26	C	-0.448145	1.405167	0.423440
H27	H	0.032274	1.128967	0.000106
H28	H	-0.052060	1.639239	0.361009
H29	H	-0.647080	0.847747	0.000117
C30	C	-0.013534	1.661772	0.659806
C31	C	0.192090	1.638185	0.622488
C32	C	0.333218	1.721306	0.698940
H33	H	-0.033394	1.649957	0.762130
H34	H	-0.037403	1.745979	0.634632
H35	H	0.215951	1.553998	0.647672
H36	H	0.212018	1.650009	0.520177
H37	H	0.309348	1.805513	0.673766
H38	H	0.313338	1.709484	0.801260
H39	H	0.472748	1.705322	0.673620
H40	H	-0.562750	1.337429	0.361022
C41	C	-0.709904	1.100158	-0.000233
C42	C	-0.724364	1.174672	-0.125589
C43	C	-0.917333	1.228314	-0.125939
H44	H	-0.720277	1.150893	0.084608
H45	H	-0.820633	1.035256	-0.000304
H46	H	-0.613666	1.239565	-0.125505
H47	H	-0.714029	1.123966	-0.210450
H48	H	-1.028061	1.163412	-0.126010
H49	H	-0.927688	1.279043	-0.041092
H50	H	-0.927177	1.278869	-0.210997
H51	H	0.042741	0.891149	0.000150
H52	H	-0.562750	1.337468	0.639213
