data_functionalizedCrystal
_audit_creation_method	'MofGen! by Chris Wilmer'
_symmetry_space_group_name_H-M	'P1'
_symmetry_Int_Tables_number	1
_symmetry_cell_setting	triclinic
loop_
_symmetry_equiv_pos_as_xyz
  x,y,z
_cell_length_a	14.908571
_cell_length_b	21.295417
_cell_length_c	14.908308
_cell_angle_alpha	86.738273
_cell_angle_beta	89.824947
_cell_angle_gamma	86.725606
loop_
_atom_site_label
_atom_site_type_symbol
_atom_site_fract_x
_atom_site_fract_y
_atom_site_fract_z
Zn1	Zn	1.345222	-0.328502	0.587537
Zn2	Zn	1.845222	0.171498	1.087537
Zn3	Zn	1.353780	-0.428069	0.437164
Zn4	Zn	1.853780	0.071931	0.937164
Zn5	Zn	1.203540	-0.316412	0.428537
Zn6	Zn	1.703540	0.183588	0.928537
Zn7	Zn	1.194808	-0.427321	0.578816
Zn8	Zn	1.694808	0.072679	1.078816
O9	O	1.274337	-0.375076	0.508014
O10	O	1.774337	0.124924	1.008014
O11	O	1.472182	-0.347083	0.574851
O12	O	1.972182	0.152917	1.074851
O13	O	1.341086	-0.408510	0.310196
O14	O	1.841086	0.091490	0.810196
O15	O	1.222407	-0.229931	0.449668
O16	O	1.722407	0.270069	0.949668
O17	O	1.478469	-0.420234	0.464372
O18	O	1.978469	0.079766	0.964372
O19	O	1.326500	-0.238814	0.566485
O20	O	1.826500	0.261186	1.066485
O21	O	1.230705	-0.326476	0.303857
O22	O	1.730705	0.173524	0.803857
O23	O	1.076557	-0.325751	0.441211
O24	O	1.576557	0.174249	0.941211
O25	O	1.207525	-0.418959	0.705797
O26	O	1.707525	0.081041	1.205797
O27	O	1.070141	-0.407236	0.551621
O28	O	1.570141	0.092764	1.051621
O29	O	1.318033	-0.346358	0.712205
O30	O	1.818033	0.153642	1.212205
O31	O	1.332619	-0.516054	0.455915
O32	O	1.832619	-0.016054	0.955915
O33	O	1.215823	-0.515505	0.559986
O34	O	1.715823	-0.015505	1.059986
C35	C	1.040724	-0.365101	0.494534
C36	C	1.540724	0.134899	0.994534
C37	C	0.940782	-0.360849	0.488788
C38	C	1.440782	0.139151	0.988788
C39	C	1.274225	-0.538621	0.507961
C40	C	1.774225	-0.038621	1.007961
C41	C	1.274258	-0.608591	0.507974
C42	C	1.774258	-0.108591	1.007974
C43	C	0.746357	-0.437829	0.592807
C44	C	1.246357	0.062171	1.092807
C45	C	0.652453	-0.433836	0.587412
C46	C	1.152453	0.066164	1.087412
C47	C	0.659066	-0.348869	0.472608
C48	C	1.159066	0.151131	0.972608
C49	C	0.752971	-0.352861	0.478003
C50	C	1.252971	0.147139	0.978003
C51	C	0.796613	-0.397344	0.538104
C52	C	1.296613	0.102656	1.038104
C53	C	0.890520	-0.401339	0.543494
C54	C	1.390520	0.098661	1.043494
C55	C	0.897131	-0.316368	0.428695
C56	C	1.397131	0.183632	0.928695
C57	C	0.803226	-0.312376	0.423300
C58	C	1.303226	0.187624	0.923300
C59	C	1.328424	-0.646026	0.568840
C60	C	1.828424	-0.146026	1.068840
C61	C	1.328454	-0.711771	0.568864
C62	C	1.828454	-0.211771	1.068864
C63	C	1.274329	-0.740078	0.508007
C64	C	1.774329	-0.240078	1.008007
C65	C	1.220152	-0.702634	0.447136
C66	C	1.720152	-0.202634	0.947136
C67	C	1.220117	-0.636891	0.447120
C68	C	1.720117	-0.136891	0.947120
N69	N	1.272081	-0.840068	0.428926
N70	N	1.772081	-0.340068	0.928926
N71	N	1.272120	-0.902521	0.428945
N72	N	1.772120	-0.402521	0.928945
C73	C	1.274432	-0.938158	0.508053
C74	C	1.774432	-0.438158	1.008053
N75	N	1.276721	-0.908983	0.587146
N76	N	1.776721	-0.408983	1.087146
N77	N	1.276686	-0.846523	0.587127
N78	N	1.776686	-0.346523	1.087127
C79	C	1.274361	-0.811365	0.508018
C80	C	1.774361	-0.311365	1.008018
C81	C	1.328634	-1.046881	0.568950
C82	C	1.828634	-0.546881	1.068950
C83	C	1.328658	-1.112627	0.568975
C84	C	1.828658	-0.612627	1.068975
C85	C	1.220361	-1.103489	0.447240
C86	C	1.720361	-0.603489	0.947240
C87	C	1.220332	-1.037745	0.447222
C88	C	1.720332	-0.537745	0.947222
C89	C	1.274473	-1.009445	0.508076
C90	C	1.774473	-0.509445	1.008076
C91	C	1.508863	-0.385091	0.521547
C92	C	2.008863	0.114909	1.021547
C93	C	1.608804	-0.389358	0.527313
C94	C	2.108804	0.110642	1.027313
C95	C	1.260850	-0.383924	0.742538
C96	C	1.760850	0.116076	1.242538
C97	C	1.255103	-0.387694	0.842478
C98	C	1.755103	0.112306	1.342478
C99	C	1.274473	-0.210894	0.508087
C100	C	1.774473	0.289106	1.008087
C101	C	1.274531	-0.140930	0.508118
C102	C	1.774531	0.359070	1.008118
C103	C	1.287824	-0.366219	0.274405
C104	C	1.787824	0.133781	0.774405
C105	C	1.293745	-0.362279	0.174475
C106	C	1.793745	0.137721	0.674475
C107	C	1.359373	-0.319165	1.036950
C108	C	1.859373	0.180835	1.536950
C109	C	1.353975	-0.322705	1.130853
C110	C	1.853975	0.177295	1.630853
C111	C	1.238907	-0.398313	1.124188
C112	C	1.738907	0.101687	1.624188
C113	C	1.244304	-0.394772	1.030285
C114	C	1.744304	0.105228	1.530285
C115	C	1.304540	-0.355197	0.986670
C116	C	1.804540	0.144803	1.486670
C117	C	1.309941	-0.351661	0.892765
C118	C	1.809941	0.148339	1.392765
C119	C	1.194869	-0.427264	0.886102
C120	C	1.694869	0.072736	1.386102
C121	C	1.189471	-0.430805	0.980005
C122	C	1.689471	0.069195	1.480005
H123	H	0.926052	-0.437559	0.592429
H124	H	1.426052	0.062441	1.092429
N125	N	0.790940	-0.483257	0.654205
N126	N	1.290940	0.016743	1.154205
N127	N	0.840063	-0.465563	0.714572
N128	N	1.340063	0.034437	1.214572
H129	H	0.871549	-0.497647	0.757937
H130	H	1.371549	0.002353	1.257937
H131	H	1.176228	-1.007263	0.397656
H132	H	1.676228	-0.507263	0.897656
H133	H	1.150222	-0.456606	0.845154
H134	H	1.650222	0.043394	1.345154
N135	N	0.601130	-0.475193	0.643300
N136	N	1.101130	0.024807	1.143300
N137	N	0.640112	-0.514902	0.696957
N138	N	1.140112	-0.014902	1.196957
H139	H	0.603866	-0.544112	0.736433
H140	H	1.103866	-0.044112	1.236433
N141	N	1.177346	-0.438704	1.168753
N142	N	1.677346	0.061296	1.668753
N143	N	1.094987	-0.430564	1.153478
N144	N	1.594987	0.069436	1.653478
H145	H	1.051499	-0.459080	1.184958
H146	H	1.551499	0.040920	1.684958
N147	N	0.614488	-0.303424	0.411231
N148	N	1.114488	0.196576	0.911231
N149	N	0.624656	-0.246023	0.417952
N150	N	1.124656	0.253977	0.917952
H151	H	0.593173	-0.213925	0.374606
H152	H	1.093173	0.286075	0.874606
N153	N	0.758629	-0.266941	0.361922
N154	N	1.258629	0.233059	0.861922
N155	N	0.674786	-0.263380	0.357115
N156	N	1.174786	0.236620	0.857115
H157	H	0.643288	-0.231291	0.313764
H158	H	1.143288	0.268709	0.813764
N159	N	0.948481	-0.275019	0.372813
N160	N	1.448481	0.224981	0.872813
N161	N	1.032323	-0.278592	0.377632
N162	N	1.532323	0.221408	0.877632
H163	H	1.068591	-0.249391	0.338164
H164	H	1.568591	0.250609	0.838164
N165	N	1.420911	-0.278746	0.992407
N166	N	1.920911	0.221254	1.492407
N167	N	1.469871	-0.246581	1.037312
N168	N	1.969871	0.253419	1.537312
H169	H	1.513335	-0.218034	1.005855
H170	H	2.013335	0.281966	1.505855
H171	H	1.140427	-0.463024	1.015529
H172	H	1.640427	0.036976	1.515529
N173	N	1.383731	-0.617130	0.631005
N174	N	1.883731	-0.117130	1.131005
N175	N	1.432090	-0.650567	0.685347
N176	N	1.932090	-0.150567	1.185347
H177	H	1.471151	-0.630158	0.729253
H178	H	1.971151	-0.130158	1.229253
N179	N	1.383791	-0.750010	0.631046
N180	N	1.883791	-0.250010	1.131046
N181	N	1.432123	-0.724734	0.685375
N182	N	1.932123	-0.224734	1.185375
H183	H	1.471207	-0.751738	0.729291
H184	H	1.971207	-0.251738	1.229291
H185	H	1.176081	-0.725686	0.397587
H186	H	1.676081	-0.225686	0.897587
H187	H	1.176007	-0.606410	0.397555
H188	H	1.676007	-0.106410	0.897555
N189	N	1.384007	-1.150867	0.631139
N190	N	1.884007	-0.650867	1.131139
N191	N	1.443163	-1.188777	0.602859
N192	N	1.943163	-0.688777	1.102859
H193	H	1.482257	-1.215785	0.646762
H194	H	1.982257	-0.715785	1.146762
H195	H	1.372716	-1.023839	0.618504
H196	H	1.872716	-0.523839	1.118504
H197	H	1.358990	-0.319438	0.857255
H198	H	1.858990	0.180562	1.357255
H199	H	1.176285	-1.126536	0.397694
H200	H	1.676285	-0.626536	0.897694
H201	H	1.398624	-0.293362	1.171788
H202	H	1.898624	0.206638	1.671788
