data_functionalizedCrystal
_audit_creation_method	'MofGen! by Chris Wilmer'
_symmetry_space_group_name_H-M	'P1'
_symmetry_Int_Tables_number	1
_symmetry_cell_setting	triclinic
loop_
_symmetry_equiv_pos_as_xyz
  x,y,z
_cell_length_a	19.188930
_cell_length_b	19.188924
_cell_length_c	13.596369
_cell_angle_alpha	89.991944
_cell_angle_beta	89.980792
_cell_angle_gamma	83.143372
loop_
_atom_site_label
_atom_site_type_symbol
_atom_site_fract_x
_atom_site_fract_y
_atom_site_fract_z
O1	O	0.926143	0.087169	-0.082112
O2	O	1.426143	0.587169	0.417888
O3	O	0.722832	0.098903	-0.082045
O4	O	1.222832	0.598903	0.417955
O5	O	0.830357	-0.008620	-0.082069
O6	O	1.330357	0.491380	0.417931
O7	O	0.818618	0.194692	-0.082088
O8	O	1.318618	0.694692	0.417912
O9	O	0.830347	-0.008625	0.081514
O10	O	1.330347	0.491375	0.581514
O11	O	0.722821	0.098898	0.081538
O12	O	1.222821	0.598898	0.581538
O13	O	0.926133	0.087163	0.081471
O14	O	1.426133	0.587163	0.581471
Zn15	Zn	0.824475	0.093030	0.107477
Zn16	Zn	1.324475	0.593030	0.607477
Zn17	Zn	0.824489	0.093037	-0.108051
Zn18	Zn	1.324489	0.593037	0.391949
O19	O	0.818607	0.194687	0.081495
O20	O	1.318607	0.694687	0.581495
C21	C	0.696815	0.098521	-0.000245
C22	C	1.196815	0.598521	0.499755
C23	C	0.619311	0.097380	-0.000219
C24	C	1.119311	0.597380	0.499781
C25	C	0.574385	0.160471	-0.000241
C26	C	1.074385	0.660471	0.499759
C27	C	0.501562	0.159399	-0.000251
C28	C	1.001562	0.659399	0.499749
C29	C	0.473667	0.095233	-0.000260
C30	C	0.973667	0.595233	0.499740
C31	C	0.518602	0.032134	-0.000233
C32	C	1.018602	0.532134	0.499767
C33	C	0.591424	0.033207	-0.000213
C34	C	1.091424	0.533207	0.499787
N35	N	0.365691	0.046188	-0.055970
N36	N	0.865691	0.546188	0.444030
N37	N	0.296513	0.045172	-0.055991
N38	N	0.796513	0.545172	0.444009
C39	C	0.254258	0.091995	-0.000320
C40	C	0.754258	0.591995	0.499680
N41	N	0.283794	0.139882	0.055361
N42	N	0.783794	0.639882	0.555361
N43	N	0.352979	0.140899	0.055378
N44	N	0.852979	0.640899	0.555378
C45	C	0.394704	0.094062	-0.000282
C46	C	0.894704	0.594062	0.499718
C47	C	0.130368	0.153928	-0.000352
C48	C	0.630368	0.653928	0.499648
C49	C	0.057543	0.152854	-0.000356
C50	C	0.557543	0.652854	0.499644
C51	C	0.074585	0.025586	-0.000348
C52	C	0.574585	0.525586	0.499652
C53	C	0.147409	0.026663	-0.000334
C54	C	0.647409	0.526663	0.499666
C55	C	0.175295	0.090835	-0.000340
C56	C	0.675295	0.590835	0.499660
C57	C	0.829973	-0.034634	-0.000276
C58	C	1.329973	0.465366	0.499724
C59	C	0.828834	-0.112138	-0.000273
C60	C	1.328834	0.387862	0.499727
C61	C	0.828308	-0.148534	-0.089443
C62	C	1.328308	0.351466	0.410557
C63	C	0.827228	-0.221357	-0.089450
C64	C	1.327228	0.278643	0.410550
C65	C	0.826688	-0.257783	-0.000283
C66	C	1.326688	0.242217	0.499717
C67	C	0.827210	-0.221378	0.088898
C68	C	1.327210	0.278622	0.588898
C69	C	0.828283	-0.148556	0.088903
C70	C	1.328283	0.351444	0.588903
N71	N	0.864731	-0.377448	0.066070
N72	N	1.364731	0.122552	0.566070
N73	N	0.863714	-0.446627	0.066059
N74	N	1.363714	0.053373	0.566059
C75	C	0.823454	-0.477192	-0.000291
C76	C	1.323454	0.022808	0.499709
N77	N	0.784259	-0.435967	-0.066645
N78	N	1.284259	0.064033	0.433355
N79	N	0.785280	-0.366783	-0.066638
N80	N	1.285280	0.133217	0.433362
C81	C	0.825524	-0.336746	-0.000278
C82	C	1.325524	0.163254	0.499722
C83	C	0.821756	-0.592550	-0.089474
C84	C	1.321756	-0.092550	0.410526
C85	C	0.820672	-0.665374	-0.089477
C86	C	1.320672	-0.165374	0.410523
C87	C	0.820661	-0.665394	0.088873
C88	C	1.320661	-0.165394	0.588873
C89	C	0.821738	-0.592571	0.088874
C90	C	1.321738	-0.092571	0.588874
C91	C	0.822289	-0.556154	-0.000302
C92	C	1.322289	-0.056154	0.499698
C93	C	0.952149	0.087546	-0.000331
C94	C	1.452149	0.587546	0.499669
C95	C	1.029654	0.088687	-0.000364
C96	C	1.529654	0.588687	0.499636
C97	C	0.818992	0.220700	-0.000300
C98	C	1.318992	0.720700	0.499700
C99	C	0.820131	0.298205	-0.000309
C100	C	1.320131	0.798205	0.499691
N101	N	0.824471	0.093024	0.254568
N102	N	1.324471	0.593024	0.754568
N103	N	0.824499	0.093037	-0.255143
N104	N	1.324499	0.593037	0.244857
C105	C	0.824488	0.093038	0.655859
C106	C	1.324488	0.593038	1.155859
C107	C	0.824481	0.093036	0.544208
C108	C	1.324481	0.593036	1.044208
C109	C	0.824480	0.093032	0.455218
C110	C	1.324480	0.593032	0.955218
C111	C	0.824472	0.093029	0.343559
C112	C	1.324472	0.593029	0.843559
H113	H	0.597086	0.212725	-0.000248
H114	H	1.097086	0.712725	0.499752
C115	C	0.828865	-0.108520	0.187000
C116	C	1.328865	0.391480	0.687000
N117	N	0.829306	-0.078364	0.260889
N118	N	1.329306	0.421636	0.760889
H119	H	0.820240	-0.695006	-0.162093
H120	H	1.320240	-0.195006	0.337907
H121	H	0.183988	-0.024713	-0.000322
H122	H	0.683988	0.475287	0.499678
C123	C	0.452135	0.228807	-0.000286
C124	C	0.952135	0.728807	0.499714
N125	N	0.414908	0.281085	-0.000318
N126	N	0.914908	0.781085	0.499682
C127	C	0.820066	-0.705459	0.186959
C128	C	1.320066	-0.205459	0.686959
N129	N	0.819618	-0.735639	0.260839
N130	N	1.319618	-0.235639	0.760839
H131	H	0.828755	-0.118888	-0.162057
H132	H	1.328755	0.381112	0.337943
H133	H	0.826796	-0.250996	-0.162064
H134	H	1.326796	0.249004	0.337936
C135	C	0.822324	-0.552535	0.186968
C136	C	1.322324	-0.052535	0.686968
N137	N	0.822764	-0.522380	0.260858
N138	N	1.322764	-0.022380	0.760858
H139	H	0.495885	-0.020111	-0.000254
H140	H	0.995885	0.479889	0.499746
H141	H	0.153075	0.206181	-0.000343
H142	H	0.653075	0.706181	0.499657
H143	H	0.826768	-0.251040	0.161499
H144	H	1.326768	0.248960	0.661499
H145	H	0.822201	-0.562898	-0.162087
H146	H	1.322201	-0.062898	0.337913
H147	H	0.628003	-0.018171	-0.000196
H148	H	1.128003	0.481829	0.499804
H149	H	0.051874	-0.026659	-0.000417
H150	H	0.551874	0.473341	0.499583
C151	C	0.008124	0.222263	-0.000366
C152	C	0.508124	0.722263	0.499634
N153	N	-0.029099	0.274543	-0.000370
N154	N	0.470901	0.774543	0.499630
