data_functionalizedCrystal
_audit_creation_method	'MofGen! by Chris Wilmer'
_symmetry_space_group_name_H-M	'P1'
_symmetry_Int_Tables_number	1
_symmetry_cell_setting	triclinic
loop_
_symmetry_equiv_pos_as_xyz
  x,y,z
_cell_length_a	17.038272
_cell_length_b	14.519731
_cell_length_c	12.996460
_cell_angle_alpha	89.993791
_cell_angle_beta	89.993896
_cell_angle_gamma	87.400204
loop_
_atom_site_label
_atom_site_type_symbol
_atom_site_fract_x
_atom_site_fract_y
_atom_site_fract_z
O1	O	0.102582	1.231706	-0.085570
O2	O	0.602582	1.731706	0.414430
O3	O	0.114636	0.964154	-0.085572
O4	O	0.614636	1.464154	0.414428
O5	O	-0.005209	1.096340	-0.085563
O6	O	0.494791	1.596340	0.414437
O7	O	0.222427	1.099520	-0.085579
O8	O	0.722427	1.599520	0.414421
O9	O	-0.005215	1.096323	0.085571
O10	O	0.494785	1.596323	0.585571
O11	O	0.114630	0.964137	0.085562
O12	O	0.614630	1.464137	0.585562
O13	O	0.102576	1.231689	0.085564
O14	O	0.602576	1.731689	0.585564
Cu15	Cu	0.108602	1.097912	0.101189
Cu16	Cu	0.608602	1.597912	0.601189
Cu17	Cu	0.108609	1.097932	-0.101197
Cu18	Cu	0.608609	1.597932	0.398803
O19	O	0.222421	1.099503	0.085555
O20	O	0.722421	1.599503	0.585555
C21	C	0.114068	0.929743	-0.000005
C22	C	0.614068	1.429743	0.499995
C23	C	0.112375	0.827233	-0.000006
C24	C	0.612375	1.327233	0.499994
C25	C	0.111000	0.743984	-0.000010
C26	C	0.611000	1.243984	0.499990
C27	C	0.109282	0.639544	-0.000010
C28	C	0.609282	1.139544	0.499990
C29	C	0.107918	0.556300	-0.000010
C30	C	0.607918	1.056300	0.499990
C31	C	0.106200	0.451854	-0.000012
C32	C	0.606200	0.951854	0.499988
C33	C	-0.034345	1.093439	0.000004
C34	C	0.465655	1.593439	0.500004
C35	C	-0.121153	1.084809	0.000003
C36	C	0.378847	1.584809	0.500003
C37	C	-0.171133	1.164041	0.000005
C38	C	0.328867	1.664041	0.500005
C39	C	-0.252698	1.155927	-0.000005
C40	C	0.247302	1.655927	0.499995
C41	C	-0.284280	1.068580	-0.000009
C42	C	0.215720	1.568580	0.499991
C43	C	-0.234293	0.989342	-0.000013
C44	C	0.265707	1.489342	0.499987
C45	C	-0.152730	0.997457	-0.000011
C46	C	0.347270	1.497457	0.499989
C47	C	-0.530086	1.039911	-0.000023
C48	C	-0.030086	1.539911	0.499977
C49	C	-0.611655	1.031802	-0.000022
C50	C	-0.111655	1.531802	0.499978
C51	C	-0.630054	1.198388	-0.000016
C52	C	-0.130054	1.698388	0.499984
C53	C	-0.548489	1.206496	-0.000007
C54	C	-0.048489	1.706496	0.499993
C55	C	-0.498509	1.127257	-0.000017
C56	C	0.001491	1.627257	0.499983
C57	C	-0.367651	1.060284	-0.000016
C58	C	0.132349	1.560284	0.499984
C59	C	-0.415140	1.135554	-0.000018
C60	C	0.084860	1.635554	0.499982
C61	C	0.251557	1.102404	-0.000014
C62	C	0.751557	1.602404	0.499986
C63	C	0.338364	1.111034	-0.000021
C64	C	0.838364	1.611034	0.499979
C65	C	0.103144	1.266100	-0.000005
C66	C	0.603144	1.766100	0.499995
C67	C	0.104836	1.368610	-0.000012
C68	C	0.604836	1.868610	0.499988
N69	N	0.108597	1.097905	0.243536
N70	N	0.608597	1.597905	0.743536
C71	C	0.108613	1.097924	0.663350
C72	C	0.608613	1.597924	1.163350
C73	C	0.108611	1.097916	0.546545
C74	C	0.608611	1.597916	1.046545
C75	C	0.108605	1.097915	0.453447
C76	C	0.608605	1.597915	0.953447
C77	C	0.108602	1.097906	0.336634
C78	C	0.608602	1.597906	0.836634
N79	N	0.108612	1.097937	0.756456
N80	N	0.608612	1.597937	1.256456
H81	H	-0.145426	1.235169	0.000015
H82	H	0.354574	1.735169	0.500015
O83	O	-0.642369	0.946966	0.000151
O84	O	-0.142369	1.446966	0.500151
C85	C	-0.689017	0.937283	0.088771
C86	C	-0.189017	1.437283	0.588771
H87	H	-0.669661	0.986983	0.150724
H88	H	-0.169661	1.486983	0.650724
H89	H	-0.681807	0.863519	0.118514
H90	H	-0.181807	1.363519	0.618514
H91	H	-0.753303	0.953515	0.068738
H92	H	-0.253303	1.453515	0.568738
H93	H	-0.112036	0.932937	-0.000013
H94	H	0.387964	1.432937	0.499987
H95	H	-0.260013	0.918222	-0.000023
H96	H	0.239987	1.418222	0.499977
O97	O	-0.481654	0.962848	0.000026
O98	O	0.018346	1.462848	0.500026
C99	C	-0.527023	0.884017	0.000005
C100	C	-0.027023	1.384017	0.500005
H101	H	-0.587864	0.902654	0.032399
H102	H	-0.087864	1.402654	0.532399
H103	H	-0.497030	0.828104	0.049695
H104	H	0.002970	1.328104	0.549695
H105	H	-0.532861	0.857546	-0.082095
H106	H	-0.032861	1.357546	0.417905
O107	O	-0.384371	1.220351	-0.000151
O108	O	0.115629	1.720351	0.499849
C109	C	-0.337751	1.230046	-0.088794
C110	C	0.162249	1.730046	0.411206
H111	H	-0.317548	1.158947	-0.118351
H112	H	0.182452	1.658947	0.381649
H113	H	-0.284287	1.270991	-0.068856
H114	H	0.215713	1.770991	0.431144
H115	H	-0.373717	1.268038	-0.150854
H116	H	0.126283	1.768038	0.349146
O117	O	-0.301331	1.232824	0.000133
O118	O	0.198669	1.732824	0.500133
C119	C	-0.349061	1.233114	0.088771
C120	C	0.150939	1.733114	0.588771
H121	H	-0.353292	1.159578	0.118317
H122	H	0.146708	1.659578	0.618317
H123	H	-0.410309	1.262658	0.068830
H124	H	0.089691	1.762658	0.568830
H125	H	-0.322180	1.277339	0.150839
H126	H	0.177820	1.777339	0.650839
O127	O	-0.517943	1.291416	-0.000045
O128	O	-0.017943	1.791416	0.499955
C129	C	-0.579549	1.359611	-0.000016
C130	C	-0.079549	1.859611	0.499984
H131	H	-0.634988	1.329417	-0.032426
H132	H	-0.134988	1.829417	0.467574
H133	H	-0.562410	1.420219	-0.049689
H134	H	-0.062410	1.920219	0.450311
H135	H	-0.591063	1.384340	0.082089
H136	H	-0.091063	1.884340	0.582089
O137	O	-0.678716	1.275261	-0.000061
O138	O	-0.178716	1.775261	0.499939
C139	C	-0.757479	1.249374	-0.000038
C140	C	-0.257479	1.749374	0.499962
H141	H	-0.760709	1.176687	-0.032436
H142	H	-0.260709	1.676687	0.467564
H143	H	-0.794347	1.299489	-0.049726
H144	H	-0.294347	1.799489	0.450274
H145	H	-0.781069	1.251015	0.082062
H146	H	-0.281069	1.751015	0.582062
O147	O	-0.398426	0.975488	-0.000147
O148	O	0.101574	1.475488	0.499853
C149	C	-0.445030	0.965813	-0.088794
C150	C	0.054970	1.465813	0.411206
H151	H	-0.465225	1.036918	-0.118349
H152	H	0.034775	1.536918	0.381651
H153	H	-0.498499	0.924865	-0.068861
H154	H	0.001501	1.424865	0.431139
H155	H	-0.409053	0.927833	-0.150853
H156	H	0.090947	1.427833	0.349147
