data_functionalizedCrystal
_audit_creation_method	'MofGen! by Chris Wilmer'
_symmetry_space_group_name_H-M	'P1'
_symmetry_Int_Tables_number	1
_symmetry_cell_setting	triclinic
loop_
_symmetry_equiv_pos_as_xyz
  x,y,z
_cell_length_a	15.944493
_cell_length_b	14.044220
_cell_length_c	12.503552
_cell_angle_alpha	93.839943
_cell_angle_beta	93.522089
_cell_angle_gamma	91.668039
loop_
_atom_site_label
_atom_site_type_symbol
_atom_site_fract_x
_atom_site_fract_y
_atom_site_fract_z
O1	O	1.128127	-0.116507	0.089309
O2	O	0.884704	-0.131636	0.089315
O3	O	1.002761	0.013911	0.089302
O4	O	1.010070	-0.262055	0.089323
O5	O	0.993872	0.002956	-0.089340
O6	O	0.875815	-0.142592	-0.089326
O7	O	1.119238	-0.127463	-0.089332
Cu8	Cu	0.996715	-0.136028	-0.105641
Cu9	Cu	1.007227	-0.123072	0.105624
O10	O	1.001181	-0.273011	-0.089319
C11	C	0.848918	-0.136496	-0.000005
C12	C	0.755531	-0.134642	-0.000003
C13	C	0.526186	-0.220315	0.000004
C14	C	0.467786	-0.179517	-0.088084
C15	C	0.584552	-0.131207	-0.000006
C16	C	0.476552	-0.168694	0.088043
C17	C	0.419395	-0.127895	-0.000003
C18	C	0.527378	-0.090437	-0.088166
C19	C	0.536153	-0.079623	0.088040
C20	C	0.477779	-0.038761	-0.000070
C21	C	0.679695	-0.133117	-0.000008
C22	C	0.324254	-0.125978	-0.000009
C23	C	0.995118	0.043747	-0.000019
C24	C	0.985576	0.148972	-0.000021
C25	C	1.155024	-0.122603	-0.000010
C26	C	1.248411	-0.124457	-0.000004
C27	C	1.008824	-0.302847	0.000005
C28	C	1.018366	-0.408070	0.000013
N29	N	0.989327	-0.145140	-0.254233
C30	C	0.968133	0.341631	-0.000005
C31	C	1.035805	0.399276	-0.000003
C32	C	1.026099	0.506478	0.000006
C33	C	0.977838	0.234419	-0.000014
C34	C	1.025484	-0.100544	-0.526670
C35	C	0.978466	-0.158544	-0.473340
C36	C	0.984511	-0.151084	-0.351417
C37	C	1.019441	-0.108003	-0.648604
N38	N	1.014621	-0.113952	0.254215
H39	H	0.547554	-0.297077	-0.000073
H40	H	0.933675	-0.213803	-0.519251
O41	O	0.432235	-0.230004	-0.176839
C42	C	0.456794	-0.325625	-0.176534
H43	H	0.475821	-0.342993	-0.090818
H44	H	0.402015	-0.375077	-0.209804
H45	H	0.512403	-0.336127	-0.228731
H46	H	0.549680	-0.057400	-0.162711
O47	O	0.452485	0.052875	-0.000323
C48	C	0.478448	0.093799	-0.093298
H49	H	0.488580	0.034795	-0.157908
H50	H	0.427989	0.142860	-0.124047
H51	H	0.539767	0.136833	-0.073124
H52	H	0.565989	-0.037453	0.162508
H53	H	1.070274	-0.045291	-0.480765
O54	O	0.449920	-0.208284	0.176857
C55	C	0.474425	-0.303952	0.176517
H56	H	0.530447	-0.314008	0.124943
H57	H	0.492812	-0.322014	0.262178
H58	H	0.419834	-0.353194	0.142156
O59	O	1.113555	0.361950	-0.000063
C60	C	1.106067	0.261671	-0.000045
H61	H	1.040541	0.236490	-0.033857
H62	H	1.155174	0.228052	-0.051921
H63	H	1.116432	0.239383	0.085655
O64	O	0.890383	0.378950	-0.000055
C65	C	0.897882	0.479231	-0.000023
H66	H	0.960045	0.500266	-0.033835
H67	H	0.843616	0.506505	-0.051892
H68	H	0.896048	0.512012	0.085681
