data_functionalizedCrystal
_audit_creation_method	'MofGen! by Chris Wilmer'
_symmetry_space_group_name_H-M	'P1'
_symmetry_Int_Tables_number	1
_symmetry_cell_setting	triclinic
loop_
_symmetry_equiv_pos_as_xyz
  x,y,z
_cell_length_a	21.295420
_cell_length_b	10.686285
_cell_length_c	10.686551
_cell_angle_alpha	80.915481
_cell_angle_beta	85.601698
_cell_angle_gamma	85.628923
loop_
_atom_site_label
_atom_site_type_symbol
_atom_site_fract_x
_atom_site_fract_y
_atom_site_fract_z
Zn1	Zn	-1.005673	0.450252	0.679083
Zn2	Zn	-1.005622	0.678832	0.450580
Zn3	Zn	-0.892900	0.466596	0.466836
Zn4	Zn	-0.907905	0.662440	0.662777
O5	O	-0.953025	0.564530	0.564819
O6	O	-1.093757	0.480593	0.648792
O7	O	-0.984369	0.664378	0.275106
O8	O	-0.901602	0.286804	0.508618
O9	O	-1.093720	0.648530	0.480913
O10	O	-0.984455	0.274797	0.664555
O11	O	-0.901552	0.508449	0.287049
O12	O	-0.806800	0.492555	0.492807
O13	O	-0.927175	0.620593	0.842570
O14	O	-0.817824	0.636441	0.636763
O15	O	-0.999005	0.464699	0.854550
O16	O	-0.998918	0.854280	0.465101
O17	O	-0.927126	0.842238	0.621001
C18	C	-0.789471	0.564494	0.564780
C19	C	-0.719504	0.564507	0.564792
C20	C	-0.225805	0.639587	0.639666
C21	C	-0.291547	0.639590	0.639654
C22	C	-0.318667	0.564538	0.564838
C23	C	-0.280039	0.489502	0.490003
C24	C	-0.214298	0.489511	0.490007
N25	N	-0.417621	0.454140	0.563792
N26	N	-0.480072	0.454135	0.563795
C27	C	-0.516740	0.564510	0.564820
N28	N	-0.488598	0.674891	0.565866
N29	N	-0.426141	0.674894	0.565869
C30	C	-0.389951	0.564521	0.564825
C31	C	-0.626645	0.639552	0.639631
C32	C	-0.692388	0.639558	0.639610
C33	C	-0.680878	0.489458	0.489967
C34	C	-0.615137	0.489464	0.489980
C35	C	-0.588024	0.564508	0.564819
C36	C	-0.117218	0.564560	0.564851
C37	C	-0.187186	0.564556	0.564846
C38	C	-0.964663	0.894313	0.539545
C39	C	-0.969700	1.035392	0.528776
C40	C	-0.964769	0.538995	0.895906
C41	C	-0.969774	0.528113	1.036995
C42	C	-0.941360	0.233457	0.590219
C43	C	-0.936390	0.092374	0.601043
C44	C	-0.941360	0.589874	0.235027
C45	C	-0.936464	0.600398	0.093965
H46	H	-0.322997	0.700690	0.700586
C47	C	-1.012876	1.114035	0.435153
C48	C	-1.042585	1.033198	0.370625
C49	C	-1.082356	1.105598	0.284361
H50	H	-1.043881	1.161960	0.479718
H51	H	-0.988692	1.170048	0.375822
H52	H	-1.066769	0.977207	0.429947
H53	H	-1.011596	0.985273	0.326034
H54	H	-1.058171	1.161611	0.225030
H55	H	-1.113357	1.153520	0.328936
H56	H	-1.102514	1.050762	0.240560
C57	C	-0.893170	1.013743	0.694575
C58	C	-0.863438	1.094580	0.759064
C59	C	-0.823614	1.022184	0.845226
H60	H	-0.917301	0.957693	0.753947
H61	H	-0.862183	0.965861	0.649895
H62	H	-0.894421	1.142441	0.803742
H63	H	-0.839296	1.150630	0.699725
H64	H	-0.792627	0.974301	0.800546
H65	H	-0.847750	0.966137	0.904589
H66	H	-0.803432	1.077021	0.888984
C67	C	-0.893235	0.693943	1.015259
C68	C	-0.831107	0.663867	1.049541
C69	C	-0.791269	0.750028	0.977070
H70	H	-0.895407	0.689149	0.927707
H71	H	-0.906181	0.777593	1.030416
H72	H	-0.818165	0.580239	1.034374
H73	H	-0.828915	0.668670	1.137081
H74	H	-0.804214	0.833678	0.992227
H75	H	-0.793446	0.745227	0.889522
H76	H	-0.749111	0.729641	1.000328
H77	H	-0.302124	0.428397	0.429086
C78	C	-0.710435	0.408012	0.408866
C79	C	-0.776274	0.424042	0.424895
C80	C	-0.803525	0.349025	0.350211
H81	H	-0.697349	0.432965	0.322092
H82	H	-0.697351	0.321285	0.434128
H83	H	-0.789353	0.510750	0.399626
H84	H	-0.789378	0.399081	0.511653
H85	H	-0.790442	0.262298	0.375473
H86	H	-0.790435	0.373985	0.263441
H87	H	-0.848200	0.359882	0.361085
C88	C	-0.172257	0.408197	0.408789
C89	C	-0.108881	0.424299	0.424776
C90	C	-0.070133	0.349434	0.349956
H91	H	-0.180597	0.321445	0.433933
H92	H	-0.180617	0.433263	0.322034
H93	H	-0.100524	0.399225	0.511513
H94	H	-0.100521	0.511034	0.399625
H95	H	-0.078494	0.374500	0.263201
H96	H	-0.078479	0.262687	0.375106
H97	H	-0.027128	0.360358	0.360784
H98	H	-1.002125	0.457903	1.096165
H99	H	-0.723832	0.700667	0.700533
C100	C	-0.196457	0.720994	0.721112
C101	C	-0.215957	0.683881	0.848849
C102	C	-0.188942	0.758863	0.923906
H103	H	-0.151772	0.710331	0.710568
H104	H	-0.209600	0.807703	0.695931
H105	H	-0.202811	0.597194	0.874021
H106	H	-0.260639	0.694549	0.859432
H107	H	-0.202085	0.845571	0.898726
H108	H	-0.144257	0.748194	0.913352
H109	H	-0.202173	0.733700	1.010582
C110	C	-0.597284	0.720935	0.721087
C111	C	-0.616789	0.683810	0.848820
C112	C	-0.589762	0.758757	0.923895
H113	H	-0.552600	0.710248	0.710545
H114	H	-0.610416	0.807652	0.695920
H115	H	-0.603654	0.597114	0.873979
H116	H	-0.661470	0.694502	0.859401
H117	H	-0.602893	0.845474	0.898728
H118	H	-0.545078	0.748064	0.913342
H119	H	-0.602996	0.733586	1.010568
C120	C	-0.573309	0.407850	0.408721
C121	C	-0.611128	0.342096	0.343220
C122	C	-0.572619	0.266888	0.268359
H123	H	-0.547395	0.460461	0.349521
H124	H	-0.547453	0.348804	0.461580
H125	H	-0.636973	0.401135	0.290365
H126	H	-0.637041	0.289462	0.402388
H127	H	-0.546762	0.207843	0.321219
H128	H	-0.546706	0.319509	0.209168
H129	H	-0.598273	0.222257	0.223917
