data_functionalizedCrystal
_audit_creation_method	'MofGen! by Chris Wilmer'
_symmetry_space_group_name_H-M	'P1'
_symmetry_Int_Tables_number	1
_symmetry_cell_setting	triclinic
loop_
_symmetry_equiv_pos_as_xyz
  x,y,z
_cell_length_a	12.759401
_cell_length_b	10.686285
_cell_length_c	10.686551
_cell_angle_alpha	80.915481
_cell_angle_beta	85.606116
_cell_angle_gamma	85.631983
loop_
_atom_site_label
_atom_site_type_symbol
_atom_site_fract_x
_atom_site_fract_y
_atom_site_fract_z
Zn1	Zn	1.678452	-0.450166	-0.678941
Zn2	Zn	1.678367	-0.678746	-0.450438
Zn3	Zn	1.490236	-0.466520	-0.466710
Zn4	Zn	1.515279	-0.662363	-0.662648
O5	O	1.590584	-0.564449	-0.564684
O6	O	1.825463	-0.480500	-0.648638
O7	O	1.642895	-0.664294	-0.274967
O8	O	1.504759	-0.286728	-0.508491
O9	O	1.825401	-0.648437	-0.480758
O10	O	1.643040	-0.274713	-0.664416
O11	O	1.504676	-0.508372	-0.286922
O12	O	1.346536	-0.492486	-0.492693
O13	O	1.547440	-0.620514	-0.842440
O14	O	1.364934	-0.636372	-0.636648
O15	O	1.667323	-0.464614	-0.854409
O16	O	1.667178	-0.854195	-0.464960
O17	O	1.547358	-0.842159	-0.620870
C18	C	1.610006	-0.894231	-0.539409
C19	C	1.618414	-1.035309	-0.528639
C20	C	1.317614	-0.564427	-0.564669
C21	C	1.200840	-0.564445	-0.564690
C22	C	1.155585	-0.639507	-0.639503
C23	C	1.045863	-0.639522	-0.639516
C24	C	1.026659	-0.489411	-0.489891
C25	C	1.136379	-0.489390	-0.489887
C26	C	1.220046	-0.714562	-0.714307
C27	C	1.174792	-0.789630	-0.789125
C28	C	1.065070	-0.789645	-0.789138
C29	C	1.000601	-0.714592	-0.714332
C30	C	1.864619	-0.564472	-0.564701
C31	C	1.981397	-0.564481	-0.564707
C32	C	1.610184	-0.538913	-0.895770
C33	C	1.618537	-0.528031	-1.036859
C34	C	1.571115	-0.233377	-0.590086
C35	C	1.562819	-0.092294	-0.600911
C36	C	1.571114	-0.589794	-0.234894
C37	C	1.562944	-0.600318	-0.093833
H38	H	1.508791	-1.033152	-0.671027
C39	C	1.490007	-0.695174	-1.013914
N40	N	1.435069	-0.766619	-0.953711
C41	C	1.186162	-0.406823	-0.407584
N42	N	1.223658	-0.344630	-0.345593
H43	H	1.672438	-1.094460	-0.458510
H44	H	0.974160	-0.428308	-0.428987
H45	H	1.672531	-0.457818	-1.096024
H46	H	1.309388	-0.714560	-0.714303
H47	H	1.227289	-0.850727	-0.850037
H48	H	0.911259	-0.714598	-0.714360
C49	C	1.015294	-0.872226	-0.871433
N50	N	0.977805	-0.934437	-0.933413
