data_functionalizedCrystal
_audit_creation_method	'MofGen! by Chris Wilmer'
_symmetry_space_group_name_H-M	'P1'
_symmetry_Int_Tables_number	1
_symmetry_cell_setting	triclinic
loop_
_symmetry_equiv_pos_as_xyz
  x,y,z
_cell_length_a	13.033855
_cell_length_b	13.033652
_cell_length_c	13.032268
_cell_angle_alpha	76.703346
_cell_angle_beta	90.869374
_cell_angle_gamma	89.087754
loop_
_atom_site_label
_atom_site_type_symbol
_atom_site_fract_x
_atom_site_fract_y
_atom_site_fract_z
Zn1	Zn	-0.259744	-1.585258	-0.356881
Zn2	Zn	-0.403782	-1.628684	-0.158360
Zn3	Zn	-0.259811	-1.430221	-0.201807
Zn4	Zn	-0.452745	-1.435732	-0.351304
O5	O	-0.344020	-1.519974	-0.267088
O6	O	-0.258332	-1.736654	-0.314698
O7	O	-0.364221	-1.618225	-0.018478
O8	O	-0.118778	-1.430307	-0.242895
O9	O	-0.364156	-1.768559	-0.168846
O10	O	-0.118729	-1.544212	-0.356826
O11	O	-0.258446	-1.472415	-0.050398
O12	O	-0.305923	-1.285317	-0.237487
O13	O	-0.447606	-1.439699	-0.497690
O14	O	-0.447671	-1.289366	-0.347322
O15	O	-0.305809	-1.549556	-0.501787
O16	O	-0.551301	-1.623569	-0.163438
O17	O	-0.587274	-1.481807	-0.305193
C18	C	-0.382118	-1.249580	-0.296514
C19	C	-0.398444	-1.133905	-0.309124
C20	C	-0.335512	-1.080278	-0.260517
C21	C	-0.352384	-0.960722	-0.273549
C22	C	-0.605852	-1.558024	-0.229015
C23	C	-0.717856	-1.574393	-0.212752
C24	C	-0.785623	-1.511510	-0.275588
C25	C	-0.901386	-1.528427	-0.258781
C26	C	-0.081166	-1.481801	-0.305329
C27	C	0.030848	-1.465534	-0.321625
C28	C	-0.382162	-1.490398	-0.538559
C29	C	-0.398415	-1.477794	-0.654243
C30	C	-0.305766	-0.791423	-0.237541
C31	C	-0.289442	-0.907098	-0.224935
C32	C	-0.335504	-1.526530	-0.707846
C33	C	-0.352301	-1.513505	-0.827412
C34	C	-0.305946	-1.549484	0.003322
C35	C	-0.289380	-1.562248	0.118987
H36	H	-0.269145	-1.122878	-0.209251
H37	H	-0.418761	-0.918128	-0.324811
H38	H	-0.223070	-0.949692	-0.173666
Cl39	Cl	-0.500922	-1.068146	-0.388265
H40	H	-0.418597	-1.462126	-0.870037
H41	H	-0.757941	-1.445144	-0.341824
H42	H	-0.941474	-1.399164	-0.387866
H43	H	-0.745541	-1.640752	-0.146511
H44	H	-0.223074	-1.613613	-0.838393
Cl45	Cl	-0.500771	-1.398478	-0.720048
Cl46	Cl	-0.944114	-1.630887	-0.156499
Cl47	Cl	-0.233122	-1.605811	-0.642049
