data_functionalizedCrystal
_audit_creation_method	'MofGen! by Chris Wilmer'
_symmetry_space_group_name_H-M	'P1'
_symmetry_Int_Tables_number	1
_symmetry_cell_setting	triclinic
loop_
_symmetry_equiv_pos_as_xyz
  x,y,z
_cell_length_a	14.971486
_cell_length_b	10.540539
_cell_length_c	14.048226
_cell_angle_alpha	89.995726
_cell_angle_beta	89.998499
_cell_angle_gamma	84.069810
loop_
_atom_site_label
_atom_site_type_symbol
_atom_site_fract_x
_atom_site_fract_y
_atom_site_fract_z
O1	O	1.187879	0.165423	-0.079046
O2	O	1.687879	0.665423	0.420954
O3	O	0.927591	0.185233	-0.079072
O4	O	1.427591	0.685233	0.420928
O5	O	1.063673	-0.009446	-0.079057
O6	O	1.563673	0.490554	0.420943
O7	O	1.051796	0.360102	-0.079061
O8	O	1.551796	0.860102	0.420939
O9	O	1.063657	-0.009457	0.079264
O10	O	1.563657	0.490543	0.579264
O11	O	0.927574	0.185221	0.079249
O12	O	1.427574	0.685221	0.579249
O13	O	1.187862	0.165412	0.079275
O14	O	1.687862	0.665412	0.579275
Zn15	Zn	1.057716	0.175315	0.104399
Zn16	Zn	1.557716	0.675315	0.604399
Zn17	Zn	1.057737	0.175330	-0.104196
Zn18	Zn	1.557737	0.675330	0.395804
O19	O	1.051780	0.360090	0.079260
O20	O	1.551780	0.860090	0.579260
C21	C	0.894253	0.184341	0.000085
C22	C	1.394253	0.684341	0.500085
C23	C	0.794940	0.181686	0.000076
C24	C	1.294940	0.681686	0.500076
C25	C	1.062774	-0.056745	0.000101
C26	C	1.562774	0.443255	0.500101
C27	C	1.060109	-0.197662	0.000096
C28	C	1.560109	0.302338	0.500096
C29	C	0.738360	0.296055	0.000076
C30	C	1.238360	0.796055	0.500076
C31	C	0.645046	0.293553	0.000090
C32	C	1.145046	0.793553	0.500090
C33	C	0.608315	0.176681	0.000097
C34	C	1.108315	0.676681	0.500097
C35	C	0.664903	0.062303	0.000100
C36	C	1.164903	0.562303	0.500100
C37	C	0.758215	0.064807	0.000092
C38	C	1.258215	0.564807	0.500092
C39	C	0.470412	0.057094	0.000113
C40	C	0.970412	0.557094	0.500113
C41	C	0.377093	0.054590	0.000119
C42	C	0.877093	0.554590	0.500119
C43	C	0.357242	0.285839	0.000111
C44	C	0.857242	0.785839	0.500111
C45	C	0.450554	0.288343	0.000103
C46	C	0.950554	0.788343	0.500103
C47	C	0.507136	0.173965	0.000104
C48	C	1.007136	0.673965	0.500104
C49	C	0.958001	-0.379931	-0.000269
C50	C	1.458001	0.120069	0.499731
C51	C	0.960702	-0.233343	0.000087
C52	C	1.460702	0.266657	0.500087
C53	C	1.107939	-0.259870	0.090510
C54	C	1.607939	0.240130	0.590510
C55	C	1.104547	-0.406376	0.090586
C56	C	1.604547	0.093624	0.590586
C57	C	1.106587	-0.406904	-0.089455
C58	C	1.606587	0.093096	0.410545
C59	C	1.107503	-0.259932	-0.090650
C60	C	1.607503	0.240068	0.409350
C61	C	1.221200	0.166303	0.000115
C62	C	1.721200	0.666303	0.500115
C63	C	1.320512	0.168958	0.000119
C64	C	1.820512	0.668958	0.500119
C65	C	1.052679	0.407389	0.000099
C66	C	1.552679	0.907389	0.500099
C67	C	1.055344	0.548307	0.000099
C68	C	1.555344	1.048307	0.500099
N69	N	1.057707	0.175303	0.246760
N70	N	1.557707	0.675303	0.746760
N71	N	1.057753	0.175331	-0.246557
N72	N	1.557753	0.675331	0.253443
C73	C	1.117984	0.089135	0.296584
C74	C	1.617984	0.589135	0.796584
C75	C	1.117990	0.089135	0.396242
C76	C	1.617990	0.589135	0.896242
C77	C	1.057723	0.175309	0.446073
C78	C	1.557723	0.675309	0.946073
C79	C	0.997440	0.261481	0.396242
C80	C	1.497440	0.761481	0.896242
C81	C	0.997430	0.261475	0.296586
C82	C	1.497430	0.761475	0.796586
C83	C	0.997466	0.261491	0.603956
C84	C	1.497466	0.761491	1.103956
C85	C	0.997476	0.261499	0.703619
C86	C	1.497476	0.761499	1.203619
C87	C	1.118025	0.089150	0.703612
C88	C	1.618025	0.589150	1.203612
C89	C	1.118016	0.089144	0.603956
C90	C	1.618016	0.589144	1.103956
C91	C	1.057733	0.175318	0.554132
C92	C	1.557733	0.675318	1.054132
H93	H	0.768258	0.391225	0.000069
H94	H	1.268258	0.891225	0.500069
H95	H	1.179979	-0.236533	-0.096103
H96	H	1.679979	0.263467	0.403897
H97	H	0.516479	-0.036045	0.000115
H98	H	1.016479	0.463955	0.500115
H99	H	0.311169	0.378970	0.000114
H100	H	0.811169	0.878970	0.500114
H101	H	0.347191	-0.040578	0.000126
H102	H	0.847191	0.459422	0.500126
H103	H	1.178389	-0.454944	-0.090056
H104	H	1.678389	0.045056	0.409944
H105	H	1.069184	-0.434179	0.158165
H106	H	1.569184	0.065821	0.658165
O107	O	0.625293	-0.063756	0.000116
O108	O	1.125293	0.436244	0.500116
H109	H	0.583259	-0.070436	-0.064414
H110	H	1.083259	0.429564	0.435586
H111	H	1.167094	0.018981	0.563384
H112	H	1.667094	0.518981	1.063384
O113	O	0.584020	0.416910	0.000085
O114	O	1.084020	0.916910	0.500085
H115	H	0.541044	0.421307	0.064624
H116	H	1.041044	0.921307	0.564624
O117	O	1.182974	-0.003820	0.242831
O118	O	1.682974	0.496180	0.742831
H119	H	1.252809	0.012496	0.261942
H120	H	1.752809	0.512496	0.761942
O121	O	1.183041	-0.003808	0.757342
O122	O	1.683041	0.496192	1.257342
H123	H	1.172917	0.010658	0.835011
H124	H	1.672917	0.510658	1.335011
H125	H	1.176039	-0.455156	0.094694
H126	H	1.676039	0.044844	0.594694
O127	O	1.064013	-0.448200	-0.180249
O128	O	1.564013	0.051800	0.319751
H129	H	0.993101	-0.405641	-0.183471
H130	H	1.493101	0.094359	0.316529
H131	H	0.804283	-0.028324	0.000092
H132	H	1.304283	0.471676	0.500092
O133	O	0.932458	0.354415	0.757372
O134	O	1.432458	0.854415	1.257372
H135	H	0.890524	0.414316	0.705986
H136	H	1.390524	0.914316	1.205986
O137	O	0.910833	-0.176318	-0.085749
O138	O	1.410833	0.323682	0.414251
H139	H	0.884563	-0.253434	-0.127888
H140	H	1.384563	0.246566	0.372112
H141	H	0.918739	-0.408080	-0.065107
H142	H	1.418739	0.091920	0.434893
O143	O	0.490177	0.414393	0.000108
O144	O	0.990177	0.914393	0.500108
H145	H	0.435158	0.493507	0.000122
H146	H	0.935158	0.993507	0.500122
H147	H	1.180941	-0.238344	0.093879
H148	H	1.680941	0.261656	0.593879
O149	O	0.906183	-0.419333	0.085130
O150	O	1.406183	0.080667	0.585130
H151	H	0.949458	-0.489804	0.127836
H152	H	1.449458	0.010196	0.627836
O153	O	0.910489	-0.177450	0.086073
O154	O	1.410489	0.322550	0.586073
H155	H	0.956704	-0.127695	0.131270
H156	H	1.456704	0.372305	0.631270
H157	H	1.074700	-0.216898	0.157786
H158	H	1.574700	0.283102	0.657786
H159	H	1.167071	0.018969	0.436808
H160	H	1.667071	0.518969	0.936808
O161	O	0.932453	0.354439	0.550211
O162	O	1.432453	0.854439	1.050211
H163	H	0.890554	0.414375	0.601602
H164	H	1.390554	0.914375	1.101602
H165	H	1.072506	-0.218672	-0.157536
H166	H	1.572506	0.281328	0.342464
H167	H	0.948365	0.331642	0.436820
H168	H	1.448365	0.831642	0.936820
O169	O	0.932422	0.354418	0.242839
O170	O	1.432422	0.854418	0.742839
H171	H	0.890522	0.414352	0.294230
H172	H	1.390522	0.914352	0.794230
