data_functionalizedCrystal
_audit_creation_method	'MofGen! by Chris Wilmer'
_symmetry_space_group_name_H-M	'P1'
_symmetry_Int_Tables_number	1
_symmetry_cell_setting	triclinic
loop_
_symmetry_equiv_pos_as_xyz
  x,y,z
_cell_length_a	18.101398
_cell_length_b	12.759399
_cell_length_c	12.759386
_cell_angle_alpha	89.937142
_cell_angle_beta	89.964944
_cell_angle_gamma	90.010672
loop_
_atom_site_label
_atom_site_type_symbol
_atom_site_fract_x
_atom_site_fract_y
_atom_site_fract_z
Zn1	Zn	1.132388	-0.418009	-0.593809
Zn2	Zn	1.132264	-0.593823	-0.418128
Zn3	Zn	1.008492	-0.418144	-0.418167
Zn4	Zn	1.008532	-0.593633	-0.593788
O5	O	1.070419	-0.505902	-0.505973
O6	O	1.236005	-0.441354	-0.570497
O7	O	1.115777	-0.570655	-0.271111
O8	O	1.024963	-0.271105	-0.441491
O9	O	1.235913	-0.570523	-0.441424
O10	O	1.115988	-0.271006	-0.570535
O11	O	1.024842	-0.441585	-0.271140
O12	O	0.904865	-0.441401	-0.441471
O13	O	1.025031	-0.570200	-0.740812
O14	O	0.904894	-0.570331	-0.570499
O15	O	1.116027	-0.441170	-0.740827
O16	O	1.115815	-0.740818	-0.441404
O17	O	1.024910	-0.740679	-0.570461
C18	C	1.070374	-0.778870	-0.505949
C19	C	1.070422	-0.895646	-0.505974
C20	C	0.878009	-0.505861	-0.505987
C21	C	0.795695	-0.505869	-0.506019
C22	C	1.117810	-0.950546	-0.438850
C23	C	1.117858	-1.060270	-0.438885
C24	C	1.023123	-1.060185	-0.573171
C25	C	1.023079	-0.950463	-0.573140
C26	C	1.205260	-1.210179	-0.401482
C27	C	1.252642	-1.265082	-0.334342
C28	C	1.264007	-1.229601	-0.231829
C29	C	1.227980	-1.139217	-0.196436
C30	C	1.180593	-1.084320	-0.263570
C31	C	1.169241	-1.119800	-0.366097
C32	C	0.935677	-0.800552	-0.610533
C33	C	0.888285	-0.745652	-0.677663
C34	C	0.876912	-0.781132	-0.780177
C35	C	0.912926	-0.871518	-0.815566
C36	C	0.960317	-0.926418	-0.748437
C37	C	0.971692	-0.890931	-0.645923
C38	C	0.496604	-0.505930	-0.505975
C39	C	0.527972	-0.587443	-0.586755
C40	C	0.613590	-0.587187	-0.587087
C41	C	0.644986	-0.505901	-0.505996
C42	C	0.613919	-0.395221	-0.536248
C43	C	0.528275	-0.395711	-0.536822
C44	C	0.528122	-0.534122	-0.394748
C45	C	0.613773	-0.536550	-0.395343
C46	C	0.728846	-0.505877	-0.506007
C47	C	0.412744	-0.505947	-0.505967
C48	C	1.263581	-0.505944	-0.505959
C49	C	1.345895	-0.505962	-0.505953
C50	C	1.070547	-0.505648	-0.780006
C51	C	1.070602	-0.505540	-0.896783
C52	C	1.070485	-0.231869	-0.506020
C53	C	1.070513	-0.115092	-0.506040
C54	C	1.070334	-0.506079	-0.233005
C55	C	1.070423	-0.505891	-0.116229
C56	C	1.022779	-0.439097	-0.061431
C57	C	1.022870	-0.438918	0.048292
C58	C	1.118251	-0.572338	0.048412
C59	C	1.118163	-0.572510	-0.061310
C60	C	0.995925	-0.315048	0.197979
C61	C	0.948269	-0.248263	0.252780
C62	C	0.875903	-0.232919	0.217308
C63	C	0.851177	-0.284376	0.127036
C64	C	0.898829	-0.351169	0.072241
C65	C	0.971206	-0.366493	0.107712
C66	C	1.145101	-0.696382	-0.210999
C67	C	1.192749	-0.763181	-0.265796
C68	C	1.265117	-0.778535	-0.230326
C69	C	1.289840	-0.727097	-0.140051
C70	C	1.242192	-0.660298	-0.085253
C71	C	1.169825	-0.644942	-0.120731
H72	H	1.156361	-0.905917	-0.384161
O73	O	0.640788	-0.562466	-0.696246
H74	H	0.674707	-0.490017	-0.694303
H75	H	0.634086	-0.617994	-0.372527
O76	O	0.849439	-0.648159	-0.639500
H77	H	0.865317	-0.632698	-0.556942
H78	H	0.507833	-0.474750	-0.334560
H79	H	0.507367	-0.669783	-0.568008
O80	O	0.642074	-0.463625	-0.311332
H81	H	0.594693	-0.423868	-0.273028
O82	O	1.169735	-0.644199	0.107643
H83	H	1.161787	-0.632867	0.193147
H84	H	0.983908	-0.384848	-0.106143
O85	O	1.141740	-0.986835	-0.225417
H86	H	1.157605	-0.971379	-0.142852
H87	H	1.196018	-1.239070	-0.484959
H88	H	0.968408	-0.206366	0.326280
H89	H	0.837102	-0.178540	0.261935
O90	O	1.166089	-0.818664	-0.363169
H91	H	1.107765	-0.796754	-0.378642
H92	H	1.237232	-1.110342	-0.112956
H93	H	1.348768	-0.739601	-0.111168
H94	H	1.302588	-1.274310	-0.177164
O95	O	1.316514	-0.850583	-0.289426
H96	H	1.287169	-0.883776	-0.358161
H97	H	0.506515	-0.613453	-0.367256
H98	H	0.944939	-0.771649	-0.527060
O99	O	0.872175	-0.406662	-0.025124
H100	H	0.813847	-0.384771	-0.040589
O101	O	0.641419	-0.695903	-0.561988
H102	H	0.675560	-0.693194	-0.489812
O103	O	1.268795	-0.604866	0.012180
H104	H	1.264842	-0.518836	0.000493
O105	O	0.499524	-0.563042	-0.695296
H106	H	0.463143	-0.493109	-0.691960
H107	H	0.903666	-0.900407	-0.899042
H108	H	0.507523	-0.332798	-0.480683
H109	H	0.989645	-1.000013	-0.777261
H110	H	0.508334	-0.371808	-0.618133
H111	H	0.634254	-0.332839	-0.479246
H112	H	0.838319	-0.736423	-0.834832
O113	O	1.291506	-1.362559	-0.372511
H114	H	1.275656	-1.377999	-0.455084
O115	O	1.067042	-0.679818	-0.249254
H116	H	1.057852	-0.726823	-0.321223
H117	H	0.635404	-0.370888	-0.616675
O118	O	0.773119	-0.267877	0.088764
H119	H	0.764507	-0.183594	0.070956
O120	O	0.972057	-1.119321	-0.645595
H121	H	0.984743	-1.098150	-0.728063
O122	O	1.073963	-0.331664	0.236285
H123	H	1.083134	-0.284702	0.308286
