data_functionalizedCrystal
_audit_creation_method	'MofGen! by Chris Wilmer'
_symmetry_space_group_name_H-M	'P1'
_symmetry_Int_Tables_number	1
_symmetry_cell_setting	triclinic
loop_
_symmetry_equiv_pos_as_xyz
  x,y,z
_cell_length_a	18.215407
_cell_length_b	12.645330
_cell_length_c	18.215407
_cell_angle_alpha	90.010564
_cell_angle_beta	90.006572
_cell_angle_gamma	90.010089
loop_
_atom_site_label
_atom_site_type_symbol
_atom_site_fract_x
_atom_site_fract_y
_atom_site_fract_z
Zn1	Zn	1.125056	-0.422275	0.416081
Zn2	Zn	1.458389	-0.088942	0.749415
Zn3	Zn	1.791723	0.244391	1.082748
Zn4	Zn	1.125014	-0.599512	0.293021
Zn5	Zn	1.458347	-0.266179	0.626355
Zn6	Zn	1.791681	0.067154	0.959688
Zn7	Zn	1.002012	-0.422256	0.293034
Zn8	Zn	1.335345	-0.088922	0.626368
Zn9	Zn	1.668679	0.244411	0.959701
Zn10	Zn	1.001981	-0.599489	0.416051
Zn11	Zn	1.335314	-0.266156	0.749385
Zn12	Zn	1.668647	0.067177	1.082718
O13	O	1.063516	-0.510883	0.354547
O14	O	1.396849	-0.177550	0.687880
O15	O	1.730182	0.155784	1.021214
O16	O	1.228035	-0.445804	0.399764
O17	O	1.561368	-0.112471	0.733098
O18	O	1.894701	0.220863	1.066431
O19	O	1.108693	-0.576000	0.190039
O20	O	1.442026	-0.242667	0.523372
O21	O	1.775360	0.090666	0.856705
O22	O	1.018365	-0.273911	0.309375
O23	O	1.351698	0.059422	0.642708
O24	O	1.685031	0.392756	0.976041
O25	O	1.228004	-0.576019	0.309353
O26	O	1.561337	-0.242686	0.642686
O27	O	1.894670	0.090647	0.976019
O28	O	1.108765	-0.273925	0.399777
O29	O	1.442098	0.059408	0.733110
O30	O	1.775431	0.392741	1.066444
O31	O	1.018324	-0.445770	0.190048
O32	O	1.351657	-0.112437	0.523382
O33	O	1.684990	0.220896	0.856715
O34	O	0.899023	-0.445748	0.309346
O35	O	1.232357	-0.112415	0.642679
O36	O	1.565690	0.220919	0.976012
O37	O	1.018312	-0.575980	0.519040
O38	O	1.351645	-0.242647	0.852373
O39	O	1.684978	0.090687	1.185706
O40	O	0.899001	-0.575961	0.399726
O41	O	1.232334	-0.242628	0.733059
O42	O	1.565667	0.090706	1.066392
O43	O	1.108735	-0.445782	0.519062
O44	O	1.442068	-0.112448	0.852395
O45	O	1.775401	0.220885	1.185728
O46	O	1.108663	-0.747857	0.309323
O47	O	1.441996	-0.414523	0.642657
O48	O	1.775329	-0.081190	0.975990
O49	O	1.018271	-0.747840	0.399713
O50	O	1.351604	-0.414506	0.733046
O51	O	1.684937	-0.081173	1.066380
C52	C	0.872309	-0.510851	0.354534
C53	C	1.205643	-0.177517	0.687868
C54	C	1.538976	0.155816	1.021201
C55	C	0.790511	-0.510862	0.354546
C56	C	1.123844	-0.177529	0.687879
C57	C	1.457177	0.155805	1.021213
C58	C	0.602332	-0.443199	0.401698
C59	C	0.935665	-0.109865	0.735031
C60	C	1.268998	0.223468	1.068365
C61	C	0.525473	-0.443208	0.401700
C62	C	0.858806	-0.109874	0.735034
C63	C	1.192140	0.223459	1.068367
C64	C	0.525452	-0.578597	0.307409
C65	C	0.858785	-0.245264	0.640742
C66	C	1.192118	0.088069	0.974076
C67	C	0.602309	-0.578582	0.307404
C68	C	0.935642	-0.245249	0.640737
C69	C	1.268976	0.088085	0.974070
C70	C	0.640747	-0.510884	0.354552
C71	C	0.974080	-0.177551	0.687885
C72	C	1.307414	0.155782	1.021219
C73	C	0.487031	-0.510909	0.354560
C74	C	0.820364	-0.177575	0.687894
C75	C	1.153698	0.155758	1.021227
C76	C	0.403697	-0.510919	0.354563
C77	C	0.737031	-0.177586	0.687896
C78	C	1.070364	0.155748	1.021229
C79	C	0.724086	-0.510872	0.354549
C80	C	1.057419	-0.177539	0.687882
C81	C	1.390753	0.155794	1.021216
C82	C	1.063479	-0.786313	0.354530
C83	C	1.396812	-0.452980	0.687863
C84	C	1.730145	-0.119646	1.021196
C85	C	1.063530	-0.904143	0.354547
C86	C	1.396864	-0.570810	0.687880
C87	C	1.730197	-0.237476	1.021213
C88	C	1.120305	-1.071673	0.297567
C89	C	1.453638	-0.738340	0.630901
C90	C	1.786971	-0.405007	0.964234
C91	C	1.120490	-0.949113	0.297707
C92	C	1.453823	-0.615780	0.631040
C93	C	1.787156	-0.282446	0.964373
C94	C	1.084547	-0.948558	0.432120
C95	C	1.417880	-0.615225	0.765454
C96	C	1.751213	-0.281892	1.098787
C97	C	1.084997	-1.071156	0.431818
C98	C	1.418330	-0.737823	0.765151
C99	C	1.751664	-0.404490	1.098485
C100	C	0.985717	-1.071457	0.334717
C101	C	1.319051	-0.738124	0.668051
C102	C	1.652384	-0.404790	1.001384
C103	C	0.986091	-0.948852	0.332978
C104	C	1.319424	-0.615519	0.666311
C105	C	1.652757	-0.282185	0.999644
C106	C	1.255469	-0.510917	0.354560
C107	C	1.588802	-0.177583	0.687894
C108	C	1.922135	0.155750	1.021227
C109	C	1.337267	-0.510931	0.354566
C110	C	1.670601	-0.177598	0.687899
C111	C	2.003934	0.155736	1.021233
C112	C	1.063524	-0.510881	0.546500
C113	C	1.396858	-0.177547	0.879833
C114	C	1.730191	0.155786	1.213167
C115	C	1.063528	-0.510879	0.628299
C116	C	1.396861	-0.177546	0.961632
C117	C	1.730195	0.155787	1.294966
C118	C	1.063573	-0.234378	0.354581
C119	C	1.396906	0.098955	0.687914
C120	C	1.730239	0.432289	1.021247
C121	C	1.063597	-0.116548	0.354595
C122	C	1.396930	0.216786	0.687928
C123	C	1.730264	0.550119	1.021262
C124	C	1.110591	-0.443094	0.893369
C125	C	1.443924	-0.109760	1.226702
C126	C	1.777257	0.223573	1.560036
C127	C	1.110596	-0.443093	0.816510
C128	C	1.443929	-0.109760	1.149844
C129	C	1.777262	0.223573	1.483177
C130	C	1.016444	-0.578682	0.816477
C131	C	1.349777	-0.245349	1.149810
C132	C	1.683110	0.087984	1.483144
C133	C	1.016443	-0.578687	0.893334
C134	C	1.349776	-0.245354	1.226668
C135	C	1.683109	0.087979	1.560001
C136	C	1.063515	-0.510887	0.931778
C137	C	1.396848	-0.177554	1.265112
C138	C	1.730182	0.155780	1.598445
C139	C	1.063521	-0.510882	0.778062
C140	C	1.396854	-0.177548	1.111396
C141	C	1.730188	0.155785	1.444729
C142	C	1.063526	-0.510882	0.694729
C143	C	1.396860	-0.177549	1.028062
C144	C	1.730193	0.155785	1.361395
C145	C	1.063511	-0.510888	1.015117
C146	C	1.396844	-0.177555	1.348451
C147	C	1.730178	0.155779	1.681784
C148	C	1.063504	-0.510904	1.163341
C149	C	1.396838	-0.177571	1.496674
C150	C	1.730171	0.155763	1.830007
C151	C	1.063508	-0.510889	1.081542
C152	C	1.396842	-0.177556	1.414875
C153	C	1.730175	0.155777	1.748209
H154	H	0.633588	-0.633701	0.269008
H155	H	0.966921	-0.300368	0.602341
H156	H	1.300254	0.032966	0.935674
H157	H	1.178173	-0.919714	0.310854
H158	H	1.511506	-0.586381	0.644187
H159	H	1.844839	-0.253048	0.977521
N160	N	1.161370	-0.369983	0.934833
N161	N	1.494703	-0.036650	1.268166
N162	N	1.828037	0.296684	1.601499
H163	H	1.154227	-0.380269	0.989350
H164	H	1.487561	-0.046936	1.322684
H165	H	1.820894	0.286397	1.656017
H166	H	1.149931	-0.294269	0.921408
H167	H	1.483264	0.039064	1.254742
H168	H	1.816598	0.372397	1.588075
H169	H	1.140829	-0.917781	0.449239
H170	H	1.474163	-0.584448	0.782572
H171	H	1.807496	-0.251114	1.115905
N172	N	1.031512	-0.909972	0.489920
N173	N	1.364845	-0.576639	0.823253
N174	N	1.698178	-0.243305	1.156587
H175	H	1.006661	-0.972542	0.513793
H176	H	1.339994	-0.639209	0.847127
H177	H	1.673328	-0.305876	1.180460
H178	H	0.993302	-0.863200	0.466269
H179	H	1.326635	-0.529866	0.799602
H180	H	1.659968	-0.196533	1.132936
N181	N	0.643789	-0.370186	0.452550
N182	N	0.977122	-0.036852	0.785884
N183	N	1.310455	0.296481	1.119217
H184	H	0.698307	-0.380450	0.445399
H185	H	1.031641	-0.047117	0.778732
H186	H	1.364974	0.286216	1.112066
H187	H	0.630357	-0.386814	0.505088
H188	H	0.963690	-0.053480	0.838421
H189	H	1.297024	0.279853	1.171754
H190	H	0.494199	-0.388090	0.440090
H191	H	0.827532	-0.054756	0.773423
H192	H	1.160865	0.278577	1.106757
N193	N	0.483994	-0.651608	0.256556
N194	N	0.817327	-0.318275	0.589890
N195	N	1.150660	0.015058	0.923223
H196	H	0.429475	-0.641350	0.263713
H197	H	0.762808	-0.308016	0.597047
H198	H	1.096142	0.025317	0.930380
H199	H	0.497427	-0.727343	0.267918
H200	H	0.830761	-0.394010	0.601251
H201	H	1.164094	-0.060676	0.934584
N202	N	1.161374	-0.369975	0.775086
N203	N	1.494707	-0.036642	1.108419
N204	N	1.828040	0.296691	1.441752
H205	H	1.149955	-0.294231	0.788469
H206	H	1.483288	0.039102	1.121802
H207	H	1.816621	0.372436	1.455135
H208	H	1.154213	-0.380351	0.720576
H209	H	1.487547	-0.047018	1.053910
H210	H	1.820880	0.286316	1.387243
H211	H	1.107342	-0.919085	0.240187
H212	H	1.440676	-0.585752	0.573520
H213	H	1.774009	-0.252419	0.906854
N214	N	1.103108	-1.110768	0.221148
N215	N	1.436442	-0.777435	0.554481
N216	N	1.769775	-0.444101	0.887814
H217	H	1.058395	-1.157954	0.222749
H218	H	1.391728	-0.824621	0.556083
H219	H	1.725062	-0.491288	0.889416
H220	H	1.146344	-1.152052	0.201575
H221	H	1.479677	-0.818719	0.534909
H222	H	1.813010	-0.485385	0.868242
H223	H	0.978118	-0.633882	0.785167
H224	H	1.311451	-0.300548	1.118500
H225	H	1.644784	0.032785	1.451833
N226	N	1.196305	-1.112388	0.314778
N227	N	1.529638	-0.779055	0.648111
N228	N	1.862971	-0.445722	0.981445
H229	H	1.194161	-1.159774	0.359355
H230	H	1.527494	-0.826441	0.692689
H231	H	1.860828	-0.493108	1.026022
H232	H	1.230051	-1.050732	0.324978
H233	H	1.563384	-0.717398	0.658312
H234	H	1.896718	-0.384065	0.991645
N235	N	1.160404	-1.108947	0.454103
N236	N	1.493738	-0.775614	0.787437
N237	N	1.827071	-0.442280	1.120770
H238	H	1.172250	-1.081992	0.504941
H239	H	1.505583	-0.748659	0.838275
H240	H	1.838916	-0.415325	1.171608
H241	H	1.197983	-1.081348	0.418122
H242	H	1.531316	-0.748014	0.751456
H243	H	1.864650	-0.414681	1.084789
N244	N	1.032665	-1.110482	0.490020
N245	N	1.365998	-0.777149	0.823353
N246	N	1.699332	-0.443816	1.156687
H247	H	1.048840	-1.083601	0.539671
H248	H	1.382174	-0.750268	0.873004
H249	H	1.715507	-0.416935	1.206337
H250	H	1.032572	-1.190350	0.490213
H251	H	1.365905	-0.857016	0.823546
H252	H	1.699239	-0.523683	1.156879
N253	N	0.960393	-1.112492	0.261094
N254	N	1.293726	-0.779158	0.594427
N255	N	1.627060	-0.445825	0.927761
H256	H	0.999153	-1.160734	0.239879
H257	H	1.332486	-0.827401	0.573212
H258	H	1.665820	-0.494068	0.906546
H259	H	0.951976	-1.051032	0.226709
H260	H	1.285309	-0.717699	0.560042
H261	H	1.618642	-0.384365	0.893375
H262	H	0.970244	-0.919831	0.275890
H263	H	1.303577	-0.586497	0.609223
H264	H	1.636911	-0.253164	0.942557
N265	N	0.927097	-0.908299	0.383946
N266	N	1.260431	-0.574966	0.717279
N267	N	1.593764	-0.241632	1.050613
H268	H	0.949836	-0.860162	0.421914
H269	H	1.283170	-0.526828	0.755247
H270	H	1.616503	-0.193495	1.088580
H271	H	0.902610	-0.969978	0.409264
H272	H	1.235943	-0.636644	0.742597
H273	H	1.569276	-0.303311	1.075931
H274	H	0.943466	-1.100479	0.376253
H275	H	1.276799	-0.767146	0.709586
H276	H	1.610132	-0.433813	1.042920
N277	N	0.965668	-0.651807	0.934774
N278	N	1.299001	-0.318474	1.268107
N279	N	1.632335	0.014860	1.601441
H280	H	0.977084	-0.727552	0.921390
H281	H	1.310418	-0.394218	1.254723
H282	H	1.643751	-0.060885	1.588057
H283	H	0.913107	-0.635249	0.921383
H284	H	1.246441	-0.301916	1.254717
H285	H	1.579774	0.031418	1.588050
