data_functionalizedCrystal
_audit_creation_method	'MofGen! by Chris Wilmer'
_symmetry_space_group_name_H-M	'P1'
_symmetry_Int_Tables_number	1
_symmetry_cell_setting	triclinic
loop_
_symmetry_equiv_pos_as_xyz
  x,y,z
_cell_length_a	10.654550
_cell_length_b	10.540539
_cell_length_c	9.130313
_cell_angle_alpha	90.000859
_cell_angle_beta	89.996220
_cell_angle_gamma	84.505197
loop_
_atom_site_label
_atom_site_type_symbol
_atom_site_fract_x
_atom_site_fract_y
_atom_site_fract_z
O1	O	1.667897	0.178295	-0.121912
O2	O	1.302424	0.195282	-0.121888
O3	O	1.493499	0.002079	-0.121899
O4	O	1.476823	0.371498	-0.121902
O5	O	1.493496	0.002084	0.121700
O6	O	1.302422	0.195287	0.121711
O7	O	1.667894	0.178300	0.121686
Cu8	Cu	1.485158	0.186794	0.143941
Cu9	Cu	1.485161	0.186788	-0.144143
O10	O	1.476820	0.371503	0.121697
C11	C	1.255625	0.194038	-0.000086
C12	C	1.116180	0.190306	-0.000077
C13	C	1.036734	0.304061	-0.000099
C14	C	0.905712	0.300547	-0.000124
C15	C	0.933595	0.069513	-0.000111
C16	C	1.064614	0.073028	-0.000075
C17	C	1.088301	0.421338	-0.000100
C18	C	1.008854	0.535103	-0.000124
C19	C	0.877832	0.531589	-0.000149
C20	C	0.826256	0.414310	-0.000151
C21	C	1.492247	-0.045221	-0.000102
C22	C	1.488505	-0.186168	-0.000110
C23	C	1.345134	-0.369543	-0.000647
C24	C	1.348927	-0.222926	-0.000099
C25	C	1.555675	-0.247846	0.138993
C26	C	1.550912	-0.394389	0.139110
C27	C	1.553753	-0.394914	-0.137907
C28	C	1.555039	-0.247933	-0.139747
C29	C	1.714694	0.179545	-0.000119
C30	C	1.854139	0.183276	-0.000138
C31	C	1.478072	0.418803	-0.000103
C32	C	1.481813	0.559750	-0.000105
N33	N	1.485165	0.186798	0.346564
N34	N	1.485163	0.186774	-0.346765
C35	C	1.569795	0.101277	0.423211
C36	C	1.569791	0.101262	0.576548
C37	C	1.400525	0.272300	0.576577
C38	C	1.400523	0.272308	0.423243
C39	C	1.654437	0.015767	0.346532
C40	C	1.739074	-0.069760	0.423179
C41	C	1.739071	-0.069775	0.576516
C42	C	1.654430	0.015736	0.653206
H43	H	1.194984	0.424213	-0.000086
Cl44	Cl	1.709404	-0.467885	-0.139367
H45	H	1.501268	-0.422569	0.243099
Cl46	Cl	1.845459	-0.177302	0.672871
Cl47	Cl	1.705889	-0.468510	0.148865
Cl48	Cl	0.661541	0.409897	-0.000161
Cl49	Cl	1.483996	-0.443588	-0.300687
Cl50	Cl	1.294131	0.379797	0.672986
H51	H	0.891591	-0.025970	-0.000137
H52	H	1.129301	-0.019601	-0.000061
H53	H	1.509013	-0.205228	0.242515
H54	H	1.654426	0.015708	0.778063
H55	H	0.813149	0.624221	-0.000154
H56	H	1.331609	0.341946	0.360836
Cl57	Cl	1.654450	0.015786	0.153766
Cl58	Cl	1.267324	-0.157118	-0.154048
H59	H	1.050855	0.630586	-0.000110
Cl60	Cl	1.479793	-0.184079	-0.298650
Cl61	Cl	1.260000	-0.413668	-0.154658
H62	H	1.658178	-0.225529	0.144158
H63	H	1.290221	-0.399728	0.098554
H64	H	1.807980	-0.139388	0.360731
Cl65	Cl	1.712154	-0.210590	-0.152738
H66	H	1.295701	-0.181149	0.099788
