data_functionalizedCrystal
_audit_creation_method	'MofGen! by Chris Wilmer'
_symmetry_space_group_name_H-M	'P1'
_symmetry_Int_Tables_number	1
_symmetry_cell_setting	triclinic
loop_
_symmetry_equiv_pos_as_xyz
  x,y,z
_cell_length_a	15.944556
_cell_length_b	10.654550
_cell_length_c	9.130313
_cell_angle_alpha	90.008279
_cell_angle_beta	90.014444
_cell_angle_gamma	83.993135
loop_
_atom_site_label
_atom_site_type_symbol
_atom_site_fract_x
_atom_site_fract_y
_atom_site_fract_z
O1	O	-0.117974	-1.666320	-0.121962
O2	O	0.382026	-1.166320	0.378038
O3	O	-0.129214	-1.300696	-0.121942
O4	O	0.370786	-0.800696	0.378058
O5	O	-0.001377	-1.493488	-0.121900
O6	O	0.498623	-0.993488	0.378100
O7	O	-0.245810	-1.473528	-0.122004
O8	O	0.254190	-0.973528	0.377996
O9	O	-0.001378	-1.493470	0.121699
O10	O	0.498622	-0.993470	0.621699
O11	O	-0.129214	-1.300678	0.121657
O12	O	0.370786	-0.800678	0.621657
O13	O	-0.117974	-1.666301	0.121637
O14	O	0.382026	-1.166301	0.621637
Cu15	Cu	-0.123594	-1.483488	0.143889
Cu16	Cu	0.376406	-0.983488	0.643889
Cu17	Cu	-0.123594	-1.483510	-0.144194
Cu18	Cu	0.376406	-0.983510	0.355806
O19	O	-0.245811	-1.473509	0.121595
O20	O	0.254189	-0.973509	0.621595
C21	C	-0.128389	-1.253900	-0.000139
C22	C	0.371611	-0.753900	0.499861
C23	C	-0.125920	-1.114488	-0.000129
C24	C	0.374080	-0.614488	0.499871
C25	C	0.029921	-1.492649	-0.000090
C26	C	0.529921	-0.992649	0.499910
C27	C	0.123181	-1.490160	-0.000058
C28	C	0.623181	-0.990160	0.499942
C29	C	0.394547	-1.363218	-0.000001
C30	C	0.894547	-0.863218	0.499999
C31	C	0.343608	-1.424423	-0.120128
C32	C	0.843608	-0.924423	0.379872
C33	C	0.458875	-1.481286	-0.000002
C34	C	0.958875	-0.981286	0.499998
C35	C	0.343635	-1.424437	0.120042
C36	C	0.843635	-0.924437	0.620042
C37	C	0.293937	-1.485640	-0.000027
C38	C	0.793937	-0.985640	0.499973
C39	C	0.409164	-1.542459	-0.120227
C40	C	0.909164	-1.042459	0.379773
C41	C	0.409194	-1.542455	0.120050
C42	C	0.909194	-1.042455	0.620050
C43	C	0.358287	-1.603747	-0.000105
C44	C	0.858287	-1.103747	0.499895
C45	C	0.553891	-1.478774	0.000011
C46	C	1.053891	-0.978774	0.500011
C47	C	0.198924	-1.488161	-0.000051
C48	C	0.698924	-0.988161	0.499949
C49	C	-0.118799	-1.713098	-0.000169
C50	C	0.381201	-1.213098	0.499831
C51	C	-0.121268	-1.852509	-0.000188
C52	C	0.378732	-1.352509	0.499812
C53	C	0.722889	-1.474332	-0.000146
C54	C	1.222889	-0.974332	0.499854
C55	C	0.629625	-1.476769	0.000031
C56	C	1.129625	-0.976769	0.500031
N57	N	-0.123595	-1.483482	0.346512
N58	N	0.376405	-0.983482	0.846512
C59	C	-0.201188	-1.034031	-0.000183
C60	C	0.298812	-0.534031	0.499817
C61	C	-0.198863	-0.903041	-0.000207
C62	C	0.301137	-0.403041	0.499793
C63	C	-0.045995	-0.932977	-0.000130
C64	C	0.454005	-0.432977	0.499870
C65	C	-0.048321	-1.063965	-0.000096
C66	C	0.451679	-0.563965	0.499904
C67	C	-0.278787	-1.084555	-0.000216
C68	C	0.221213	-0.584555	0.499784
C69	C	-0.354061	-1.004096	-0.000272
C70	C	0.145939	-0.504096	0.499728
C71	C	-0.351736	-0.873106	-0.000296
C72	C	0.148264	-0.373106	0.499704
C73	C	-0.274137	-0.822573	-0.000265
C74	C	0.225863	-0.322573	0.499735
N75	N	-0.123587	-1.483526	-0.346817
N76	N	0.376413	-0.983526	0.153183
C77	C	-0.180176	-1.398102	0.423183
C78	C	0.319824	-0.898102	0.923183
C79	C	-0.180174	-1.398127	0.576520
C80	C	0.319826	-0.898127	1.076520
C81	C	-0.067003	-1.568914	0.576502
C82	C	0.432997	-1.068914	1.076502
C83	C	-0.067010	-1.568895	0.423168
C84	C	0.432990	-1.068895	0.923168
C85	C	-0.236761	-1.312690	0.346527
C86	C	0.263239	-0.812690	0.846527
C87	C	-0.293345	-1.227302	0.423198
C88	C	0.206655	-0.727302	0.923198
C89	C	-0.293344	-1.227327	0.576535
C90	C	0.206656	-0.727327	1.076535
C91	C	-0.236758	-1.312738	0.653201
C92	C	0.263242	-0.812738	1.153201
H93	H	0.410788	-1.261532	-0.000108
H94	H	0.910788	-0.761532	0.499892
H95	H	0.017183	-0.891822	-0.000130
H96	H	0.517183	-0.391822	0.499870
Br97	Br	0.053831	-1.173165	-0.000014
Br98	Br	0.553831	-0.673165	0.499986
H99	H	-0.236765	-1.312659	0.221673
H100	H	0.263235	-0.812659	0.721673
Br101	Br	0.295919	-1.341285	0.289267
Br102	Br	0.795919	-0.841285	0.789267
H103	H	-0.339421	-1.157770	0.360769
H104	H	0.160579	-0.657770	0.860769
Br105	Br	-0.370144	-1.111461	0.680588
Br106	Br	0.129856	-0.611461	1.180588
Br107	Br	-0.236768	-1.312780	0.861303
Br108	Br	0.263232	-0.812780	1.361303
H109	H	-0.417240	-1.045249	-0.000284
H110	H	0.082760	-0.545249	0.499716
H111	H	-0.280689	-1.191212	-0.000203
H112	H	0.219311	-0.691212	0.499797
Br113	Br	0.295869	-1.341335	-0.289387
Br114	Br	0.795869	-0.841335	0.210613
H115	H	-0.413028	-0.807599	-0.000326
H116	H	0.086972	-0.307599	0.499674
Br117	Br	0.009789	-1.684821	0.680546
Br118	Br	0.509789	-1.184821	1.180546
Br119	Br	-0.270983	-0.644798	-0.000270
Br120	Br	0.229017	-0.144798	0.499730
H121	H	0.437682	-1.592292	-0.221876
H122	H	0.937682	-1.092292	0.278124
Br123	Br	0.331480	-1.773358	-0.000230
Br124	Br	0.831480	-1.273358	0.499770
Br125	Br	0.456968	-1.625481	0.289311
Br126	Br	0.956968	-1.125481	0.789311
Br127	Br	0.009776	-1.684778	0.319110
Br128	Br	0.509776	-1.184778	0.819110
