data_functionalizedCrystal
_audit_creation_method	'MofGen! by Chris Wilmer'
_symmetry_space_group_name_H-M	'P1'
_symmetry_Int_Tables_number	1
_symmetry_cell_setting	triclinic
loop_
_symmetry_equiv_pos_as_xyz
  x,y,z
_cell_length_a	11.792254
_cell_length_b	10.268362
_cell_length_c	8.559649
_cell_angle_alpha	90.003615
_cell_angle_beta	76.988631
_cell_angle_gamma	90.004525
loop_
_atom_site_label
_atom_site_type_symbol
_atom_site_fract_x
_atom_site_fract_y
_atom_site_fract_z
O1	O	1.486859	0.108292	0.218936
O2	O	1.736859	0.358292	0.468936
O3	O	1.986859	0.608292	0.718936
O4	O	2.236859	0.858292	0.968936
O5	O	1.154458	0.108295	0.241469
O6	O	1.404458	0.358295	0.491469
O7	O	1.654458	0.608295	0.741469
O8	O	1.904458	0.858295	0.991469
O9	O	1.349943	0.108292	-0.002144
O10	O	1.599943	0.358292	0.247856
O11	O	1.849943	0.608292	0.497856
O12	O	2.099943	0.858292	0.747856
O13	O	1.291374	0.108295	0.462549
O14	O	1.541374	0.358295	0.712549
O15	O	1.791374	0.608295	0.962549
O16	O	2.041374	0.858295	1.212549
O17	O	1.349929	-0.108309	-0.002154
O18	O	1.599929	0.141691	0.247846
O19	O	1.849929	0.391691	0.497846
O20	O	2.099929	0.641691	0.747846
O21	O	1.154443	-0.108306	0.241459
O22	O	1.404443	0.141694	0.491459
O23	O	1.654443	0.391694	0.741459
O24	O	1.904443	0.641694	0.991459
O25	O	1.486845	-0.108308	0.218926
O26	O	1.736845	0.141692	0.468926
O27	O	1.986845	0.391692	0.718926
O28	O	2.236845	0.641692	0.968926
Cu29	Cu	1.320643	-0.128084	0.230191
Cu30	Cu	1.570643	0.121916	0.480191
Cu31	Cu	1.820643	0.371916	0.730191
Cu32	Cu	2.070643	0.621916	0.980191
Cu33	Cu	1.320660	0.128071	0.230203
Cu34	Cu	1.570660	0.378071	0.480203
Cu35	Cu	1.820660	0.628071	0.730203
Cu36	Cu	2.070660	0.878071	0.980203
O37	O	1.291359	-0.108306	0.462539
O38	O	1.541359	0.141694	0.712539
O39	O	1.791359	0.391694	0.962539
O40	O	2.041359	0.641694	1.212539
C41	C	1.112290	-0.000005	0.240044
C42	C	1.362290	0.249995	0.490044
C43	C	1.612290	0.499995	0.740044
C44	C	1.862290	0.749995	0.990044
C45	C	0.986666	-0.000004	0.235796
C46	C	1.236666	0.249996	0.485796
C47	C	1.486666	0.499996	0.735796
C48	C	1.736666	0.749996	0.985796
N49	N	1.320639	-0.308250	0.230182
N50	N	1.570639	-0.058250	0.480182
N51	N	1.820639	0.191750	0.730182
N52	N	2.070639	0.441750	0.980182
C53	C	0.884645	0.000001	0.232344
C54	C	1.134645	0.250001	0.482344
C55	C	1.384645	0.500001	0.732344
C56	C	1.634645	0.750001	0.982344
C57	C	0.756653	0.000002	0.228028
C58	C	1.006653	0.250002	0.478028
C59	C	1.256653	0.500002	0.728028
C60	C	1.506653	0.750002	0.978028
C61	C	1.320654	-0.573921	0.230200
C62	C	1.570654	-0.323921	0.480200
C63	C	1.820654	-0.073921	0.730200
C64	C	2.070654	0.176079	0.980200
C65	C	1.320642	-0.426083	0.230195
C66	C	1.570642	-0.176083	0.480195
C67	C	1.820642	0.073917	0.730195
C68	C	2.070642	0.323917	0.980195
C69	C	1.529013	-0.000005	0.220351
C70	C	1.779013	0.249995	0.470351
C71	C	2.029013	0.499995	0.720351
C72	C	2.279013	0.749995	0.970351
C73	C	1.654637	0.000002	0.224599
C74	C	1.904637	0.250002	0.474599
C75	C	2.154637	0.500002	0.724599
C76	C	2.404637	0.750002	0.974599
C77	C	1.354375	-0.000006	-0.061640
C78	C	1.604375	0.249994	0.188360
C79	C	1.854375	0.499994	0.438360
C80	C	2.104375	0.749994	0.688360
C81	C	1.367587	0.000001	-0.238905
C82	C	1.617587	0.250001	0.011095
C83	C	1.867587	0.500001	0.261095
C84	C	2.117587	0.750001	0.511095
N85	N	1.320673	0.308237	0.230200
N86	N	1.570673	0.558237	0.480200
N87	N	1.820673	0.808237	0.730200
N88	N	2.070673	1.058237	0.980200
C89	C	1.286928	-0.000005	0.522035
C90	C	1.536928	0.249995	0.772035
C91	C	1.786928	0.499995	1.022035
C92	C	2.036928	0.749995	1.272035
C93	C	1.273716	-0.000003	0.699300
C94	C	1.523716	0.249997	0.949300
C95	C	1.773716	0.499997	1.199300
C96	C	2.023716	0.749997	1.449300
H97	H	1.458067	-0.000010	-0.321621
H98	H	1.708067	0.249990	-0.071621
H99	H	1.958067	0.499990	0.178379
H100	H	2.208067	0.749990	0.428379
H101	H	1.183241	-0.000007	-0.217993
H102	H	1.433241	0.249993	0.032007
H103	H	1.683241	0.499993	0.282007
H104	H	1.933241	0.749993	0.532007
