data_functionalizedCrystal
_audit_creation_method	'MofGen! by Chris Wilmer'
_symmetry_space_group_name_H-M	'P1'
_symmetry_Int_Tables_number	1
_symmetry_cell_setting	triclinic
loop_
_symmetry_equiv_pos_as_xyz
  x,y,z
_cell_length_a	17.699077
_cell_length_b	14.044220
_cell_length_c	16.776229
_cell_angle_alpha	89.992645
_cell_angle_beta	89.993415
_cell_angle_gamma	88.234727
loop_
_atom_site_label
_atom_site_type_symbol
_atom_site_fract_x
_atom_site_fract_y
_atom_site_fract_z
O1	O	1.012347	0.119823	-0.066280
O2	O	1.512347	0.619823	0.433720
O3	O	0.793044	0.135422	-0.066284
O4	O	1.293044	0.635422	0.433716
O5	O	0.899404	-0.010355	-0.066274
O6	O	1.399404	0.489645	0.433726
O7	O	0.905987	0.265599	-0.066290
O8	O	1.405987	0.765599	0.433710
O9	O	0.899388	-0.010364	0.066302
O10	O	1.399388	0.489636	0.566302
O11	O	0.793028	0.135413	0.066293
O12	O	1.293028	0.635413	0.566293
O13	O	1.012331	0.119814	0.066297
O14	O	1.512331	0.619814	0.566297
Zn15	Zn	0.902677	0.127612	0.087344
Zn16	Zn	1.402677	0.627612	0.587344
Zn17	Zn	0.902698	0.127624	-0.087331
Zn18	Zn	1.402698	0.627624	0.412669
O19	O	0.905971	0.265590	0.066287
O20	O	1.405971	0.765590	0.566287
C21	C	0.764800	0.134859	0.000004
C22	C	1.264800	0.634859	0.500004
C23	C	0.680667	0.133185	0.000002
C24	C	1.180667	0.633185	0.500002
C25	C	0.641136	0.132392	0.072271
C26	C	1.141136	0.632392	0.572271
C27	C	0.562084	0.130804	0.072272
C28	C	1.062084	0.630804	0.572272
C29	C	0.522564	0.130016	0.000004
C30	C	1.022564	0.630016	0.500004
C31	C	0.562100	0.130807	-0.072270
C32	C	1.062100	0.630807	0.427730
C33	C	0.641151	0.132388	-0.072271
C34	C	1.141151	0.632388	0.427729
C35	C	0.243297	0.124429	-0.072272
C36	C	0.743297	0.624429	0.427728
C37	C	0.164240	0.122851	-0.072266
C38	C	0.664240	0.622851	0.427734
C39	C	0.164230	0.122845	0.072271
C40	C	0.664230	0.622845	0.572271
C41	C	0.243281	0.124426	0.072271
C42	C	0.743281	0.624426	0.572271
C43	C	0.282810	0.125212	-0.000003
C44	C	0.782810	0.625212	0.499997
C45	C	0.368528	0.126932	-0.000003
C46	C	0.868528	0.626932	0.499997
C47	C	0.436848	0.128303	0.000003
C48	C	0.936848	0.628303	0.500003
C49	C	0.896514	-0.045667	0.000014
C50	C	1.396514	0.454333	0.500014
C51	C	0.887918	-0.150873	0.000015
C52	C	1.387918	0.349127	0.500015
C53	C	0.872203	-0.343497	0.000004
C54	C	1.372203	0.156503	0.500004
C55	C	0.933169	-0.401273	0.000002
C56	C	1.433169	0.098727	0.500002
C57	C	0.924425	-0.508456	-0.000004
C58	C	1.424425	-0.008456	0.499996
C59	C	0.880946	-0.236304	0.000010
C60	C	1.380946	0.263696	0.500010
C61	C	1.040575	0.120376	0.000007
C62	C	1.540575	0.620376	0.500007
C63	C	1.124708	0.122050	0.000003
C64	C	1.624708	0.622050	0.500003
C65	C	0.908861	0.300903	-0.000003
C66	C	1.408861	0.800903	0.499997
C67	C	0.917457	0.406108	-0.000010
C68	C	1.417457	0.906108	0.499990
N69	N	0.902668	0.127603	0.206555
N70	N	1.402668	0.627603	0.706555
N71	N	0.902712	0.127625	-0.206542
N72	N	1.402712	0.627625	0.293458
C73	C	0.949782	0.063080	0.248277
C74	C	1.449782	0.563080	0.748277
C75	C	0.949786	0.063079	0.331729
C76	C	1.449786	0.563079	0.831729
C77	C	0.902680	0.127607	0.373458
C78	C	1.402680	0.627607	0.873458
C79	C	0.855561	0.192133	0.331731
C80	C	1.355561	0.692133	0.831731
C81	C	0.855553	0.192129	0.248280
C82	C	1.355553	0.692129	0.748280
C83	C	0.855589	0.192152	0.668278
C84	C	1.355589	0.692152	1.168278
C85	C	0.855602	0.192153	0.751735
C86	C	1.355602	0.692153	1.251735
C87	C	0.949822	0.063102	0.751727
C88	C	1.449822	0.563102	1.251727
C89	C	0.949814	0.063098	0.668276
C90	C	1.449814	0.563098	1.168276
C91	C	0.902693	0.127620	0.626556
C92	C	1.402693	0.627620	1.126556
C93	C	0.902688	0.127619	0.536068
C94	C	1.402688	0.627619	1.036068
C95	C	0.902688	0.127613	0.463945
C96	C	1.402688	0.627613	0.963945
H97	H	0.673335	0.133036	-0.131119
H98	H	1.173335	0.633036	0.368881
H99	H	0.991931	-0.370238	-0.000050
H100	H	1.491931	0.129762	0.499950
C101	C	1.000984	-0.007069	0.623115
C102	C	1.500984	0.492931	1.123115
C103	C	1.042231	-0.063596	0.677515
C104	C	1.542231	0.436404	1.177515
C105	C	1.089367	-0.128256	0.635944
C106	C	1.589367	0.371744	1.135944
H107	H	1.034847	0.026859	0.590544
H108	H	1.534847	0.526859	1.090544
H109	H	0.971110	-0.046531	0.590592
H110	H	1.471110	0.453469	1.090592
H111	H	1.072103	-0.024139	0.710025
H112	H	1.572103	0.475861	1.210025
H113	H	1.008388	-0.097545	0.710088
H114	H	1.508388	0.402455	1.210088
H115	H	1.059493	-0.167718	0.603420
H116	H	1.559493	0.332282	1.103420
H117	H	1.123225	-0.094320	0.603374
H118	H	1.623225	0.405680	1.103374
H119	H	1.117354	-0.166623	0.672848
H120	H	1.617354	0.333377	1.172848
H121	H	0.817223	0.244690	0.634316
H122	H	1.317223	0.744690	1.134316
C123	C	0.793918	-0.385054	0.000047
C124	C	1.293918	0.114946	0.500047
C125	C	0.800702	-0.484644	0.000064
C126	C	1.300702	0.015356	0.500064
C127	C	0.728604	-0.522970	0.000118
C128	C	1.228604	-0.022970	0.500118
H129	H	0.767139	-0.364297	-0.046169
H130	H	1.267139	0.135703	0.453831
H131	H	0.767193	-0.364263	0.046301
H132	H	1.267193	0.135737	0.546301
H133	H	0.827416	-0.505426	-0.046186
H134	H	1.327416	-0.005426	0.453814
H135	H	0.827468	-0.505427	0.046277
H136	H	1.327468	-0.005427	0.546277
H137	H	0.701878	-0.502180	0.046373
H138	H	1.201878	-0.002180	0.546373
H139	H	0.701829	-0.502207	-0.046098
H140	H	1.201829	-0.002207	0.453902
H141	H	0.733196	-0.590546	0.000138
H142	H	1.233196	-0.090546	0.500138
C143	C	1.000954	-0.007087	0.203119
C144	C	1.500954	0.492913	0.703119
C145	C	1.042198	-0.063611	0.257523
C146	C	1.542198	0.436389	0.757523
C147	C	1.089337	-0.128272	0.215955
C148	C	1.589337	0.371728	0.715955
H149	H	1.034818	0.026841	0.170549
H150	H	1.534818	0.526841	0.670549
H151	H	0.971082	-0.046550	0.170594
H152	H	1.471082	0.453450	0.670594
H153	H	1.072068	-0.024153	0.290033
H154	H	1.572068	0.475847	0.790033
H155	H	1.008354	-0.097560	0.290094
H156	H	1.508354	0.402440	0.790094
H157	H	1.059466	-0.167735	0.183431
H158	H	1.559466	0.332265	0.683431
H159	H	1.123197	-0.094336	0.183387
H160	H	1.623197	0.405664	0.683387
H161	H	1.117323	-0.166637	0.252862
H162	H	1.617323	0.333363	0.752862
C163	C	1.000816	-0.007082	0.377064
C164	C	1.500816	0.492918	0.877064
C165	C	0.956602	-0.065061	0.424973
C166	C	1.456602	0.434939	0.924973
C167	C	1.003587	-0.129717	0.466736
C168	C	1.503587	0.370283	0.966736
H169	H	1.034632	0.026851	0.409671
H170	H	1.534632	0.526851	0.909671
H171	H	1.028856	-0.045560	0.340280
H172	H	1.528856	0.454440	0.840280
H173	H	0.928575	-0.026588	0.461752
H174	H	1.428575	0.473412	0.961752
H175	H	0.922788	-0.099015	0.392386
H176	H	1.422788	0.400985	0.892386
H177	H	1.031627	-0.168195	0.429953
H178	H	1.531627	0.331805	0.929953
H179	H	1.037401	-0.095776	0.499339
H180	H	1.537401	0.404224	0.999339
H181	H	0.973595	-0.169069	0.499242
H182	H	1.473595	0.330931	0.999242
C183	C	0.519056	0.129997	-0.150652
C184	C	1.019056	0.629997	0.349348
C185	C	0.441364	0.128470	-0.135186
C186	C	0.941364	0.628470	0.364814
C187	C	0.401691	0.127740	-0.207373
C188	C	0.901691	0.627740	0.292627
H189	H	0.533967	0.075026	-0.180402
H190	H	1.033967	0.575026	0.319598
H191	H	0.529927	0.185524	-0.180356
H192	H	1.029927	0.685524	0.319644
H193	H	0.430499	0.072949	-0.105495
H194	H	0.930499	0.572949	0.394505
H195	H	0.426432	0.183437	-0.105447
H196	H	0.926432	0.683437	0.394553
H197	H	0.412561	0.183267	-0.237077
H198	H	0.912561	0.683267	0.262923
H199	H	0.416607	0.072767	-0.237118
H200	H	0.916607	0.572767	0.262882
H201	H	0.348973	0.126713	-0.196889
H202	H	0.848973	0.626713	0.303111
H203	H	0.817188	0.244669	0.214311
H204	H	1.317188	0.744669	0.714311
H205	H	0.988188	0.010561	0.785704
H206	H	1.488188	0.510561	1.285704
H207	H	0.817240	0.244702	0.785709
H208	H	1.317240	0.744702	1.285709
H209	H	0.529902	0.130142	0.131120
H210	H	1.029902	0.630142	0.631120
H211	H	0.817202	0.244670	0.365712
H212	H	1.317202	0.744670	0.865712
H213	H	0.275454	0.125072	0.131119
H214	H	0.775454	0.625072	0.631119
H215	H	0.673308	0.133041	0.131120
H216	H	1.173308	0.633041	0.631120
H217	H	0.132036	0.122201	0.131119
H218	H	0.632036	0.622201	0.631119
H219	H	0.275472	0.125066	-0.131121
H220	H	0.775472	0.625066	0.368879
C221	C	0.121469	0.121945	-0.150817
C222	C	0.621469	0.621945	0.349183
C223	C	0.173007	0.122945	-0.214112
C224	C	0.673007	0.622945	0.285888
C225	C	0.133634	0.122100	-0.286479
C226	C	0.633634	0.622100	0.213521
H227	H	0.088586	0.176560	-0.153939
H228	H	0.588586	0.676560	0.346061
H229	H	0.092691	0.066062	-0.153854
H230	H	0.592691	0.566062	0.346146
H231	H	0.201771	0.178821	-0.211076
H232	H	0.701771	0.678821	0.288924
H233	H	0.205891	0.068334	-0.211016
H234	H	0.705891	0.568334	0.288984
H235	H	0.104856	0.066217	-0.289517
H236	H	0.604856	0.566217	0.210483
H237	H	0.100752	0.176715	-0.289593
H238	H	0.600752	0.676715	0.210407
H239	H	0.168596	0.122769	-0.329433
H240	H	0.668596	0.622769	0.170567
