data_functionalizedCrystal
_audit_creation_method	'MofGen! by Chris Wilmer'
_symmetry_space_group_name_H-M	'P1'
_symmetry_Int_Tables_number	1
_symmetry_cell_setting	triclinic
loop_
_symmetry_equiv_pos_as_xyz
  x,y,z
_cell_length_a	15.537862
_cell_length_b	15.625429
_cell_length_c	14.185569
_cell_angle_alpha	59.452262
_cell_angle_beta	97.877082
_cell_angle_gamma	66.734075
loop_
_atom_site_label
_atom_site_type_symbol
_atom_site_fract_x
_atom_site_fract_y
_atom_site_fract_z
O1	O	1.256312	-0.301409	0.026260
O2	O	0.971175	-0.183198	-0.016748
O3	O	1.135188	-0.394087	0.059967
O4	O	1.092300	-0.090520	-0.050455
O5	O	1.183638	-0.456381	0.249462
O6	O	1.019626	-0.245492	0.172747
O7	O	1.304763	-0.363702	0.215755
Cu8	Cu	1.166618	-0.310285	0.211553
Cu9	Cu	1.109320	-0.236616	-0.012546
O10	O	1.140750	-0.152813	0.139040
C11	C	0.959166	-0.201976	0.073499
C12	C	0.851201	-0.165134	0.060094
C13	C	0.678850	-0.015801	0.005771
C14	C	0.780302	-0.050431	0.018370
C15	C	0.820670	-0.245255	0.089242
C16	C	0.719221	-0.210643	0.076654
C17	C	0.648318	-0.095914	0.034916
C18	C	0.688689	-0.290756	0.105799
C19	C	0.587247	-0.256144	0.093206
C20	C	0.516337	-0.141420	0.051467
C21	C	0.546876	-0.061303	0.022323
C22	C	0.759592	-0.405481	0.147528
C23	C	0.729060	-0.485594	0.176674
C24	C	0.627618	-0.450986	0.164089
C25	C	0.556708	-0.336261	0.122350
C26	C	0.597080	-0.531103	0.193233
C27	C	0.495638	-0.496491	0.180640
C28	C	0.455267	-0.301650	0.109757
C29	C	1.162275	-0.463136	0.168499
C30	C	1.170792	-0.576067	0.209571
C31	C	1.066733	-0.777709	-0.171779
C32	C	1.074740	-0.883834	-0.133150
C33	C	1.127558	-0.951729	0.073424
C34	C	1.119560	-0.845609	0.034814
C35	C	1.089146	-0.758606	-0.087789
C36	C	1.141973	-0.826506	0.118804
C37	C	1.133970	-0.720393	0.080195
C38	C	1.103555	-0.633383	-0.042403
C39	C	1.081143	-0.652492	-0.126397
C40	C	1.172379	-0.913508	0.241404
C41	C	1.194792	-0.894405	0.325394
C42	C	1.186797	-0.788294	0.286788
C43	C	1.156381	-0.701284	0.164190
C44	C	1.209208	-0.769184	0.370782
C45	C	1.201205	-0.663071	0.332174
C46	C	1.148379	-0.595171	0.125581
C47	C	1.316771	-0.344923	0.125505
C48	C	1.424734	-0.381763	0.138903
C49	C	1.113662	-0.083764	0.030505
C50	C	1.105144	0.029170	-0.010574
N51	N	1.206926	-0.362103	0.369174
N52	N	1.069021	-0.184808	-0.170163
C53	C	0.950601	-0.032611	0.616965
C54	C	0.981140	-0.071858	0.736264
C55	C	1.126395	-0.258558	0.804140
C56	C	1.095866	-0.219329	0.684846
C57	C	1.007969	-0.106354	0.591266
C58	C	1.153233	-0.293072	0.659148
C59	C	1.122709	-0.253843	0.539863
C60	C	1.034818	-0.140871	0.446277
C61	C	0.977445	-0.067125	0.471982
C62	C	1.241134	-0.406043	0.752728
C63	C	1.298502	-0.479786	0.727029
C64	C	1.267974	-0.440561	0.607744
C65	C	1.180082	-0.327589	0.514158
C66	C	1.325346	-0.514307	0.582039
C67	C	1.294822	-0.475078	0.462754
C68	C	1.149558	-0.288360	0.394873
H69	H	0.878412	-0.338666	0.123220
H70	H	1.265986	-0.437977	0.849854
F71	F	1.048787	-0.559896	-0.256883
H72	H	0.842186	-0.433651	0.157759
F73	F	1.050878	-0.904155	-0.222555
F74	F	1.180893	-1.026442	0.282492
H75	H	1.233961	-0.840032	0.470604
H76	H	1.341538	-0.535128	0.441833
H77	H	0.433737	-0.113240	0.041211
F78	F	1.116022	-0.502574	-0.004905
H79	H	1.152317	-1.022578	0.173247
F80	F	1.219942	-0.378790	0.903742
H81	H	0.489145	0.032115	-0.011648
H82	H	1.041976	-0.706868	-0.271612
F83	F	1.002336	-0.099118	0.319321
H84	H	1.370071	-0.571771	0.803234
F85	F	0.804529	-0.607693	0.221092
H86	H	1.077977	-0.196369	0.318676
F87	F	1.227152	-0.987005	0.455872
F88	F	1.095040	-0.520448	-0.083493
H89	H	1.396919	-0.606288	0.658244
F90	F	0.603388	0.106300	-0.038631
H91	H	0.397536	-0.208232	0.075786
F92	F	0.883886	0.053112	0.372384
F93	F	0.672548	-0.653197	0.237640
H94	H	0.470779	-0.561727	0.204371
F95	F	0.857042	0.087626	0.517368
F96	F	1.225064	-0.642740	0.421566
H97	H	0.805157	0.014811	-0.005354
F98	F	0.920073	0.006644	0.763600
