data_functionalizedCrystal
_audit_creation_method	'MofGen! by Chris Wilmer'
_symmetry_space_group_name_H-M	'P1'
_symmetry_Int_Tables_number	1
_symmetry_cell_setting	triclinic
loop_
_symmetry_equiv_pos_as_xyz
  x,y,z
_cell_length_a	19.188930
_cell_length_b	19.188925
_cell_length_c	9.730223
_cell_angle_alpha	89.995959
_cell_angle_beta	89.982832
_cell_angle_gamma	83.143665
loop_
_atom_site_label
_atom_site_type_symbol
_atom_site_fract_x
_atom_site_fract_y
_atom_site_fract_z
O1	O	0.926142	0.087168	-0.114731
O2	O	0.722830	0.098902	-0.114636
O3	O	0.830355	-0.008621	-0.114678
O4	O	0.818617	0.194691	-0.114688
O5	O	0.830348	-0.008624	0.113902
O6	O	0.722824	0.098899	0.113944
O7	O	0.926135	0.087165	0.113849
Zn8	Zn	0.824478	0.093031	0.150189
Zn9	Zn	0.824487	0.093035	-0.150975
O10	O	0.818610	0.194688	0.113891
C11	C	0.829972	-0.034634	-0.000389
C12	C	0.828833	-0.112138	-0.000391
C13	C	0.696816	0.098520	-0.000334
C14	C	0.619311	0.097380	-0.000298
C15	C	0.884297	-0.673909	-0.000452
C16	C	0.885374	-0.601085	-0.000440
C17	C	0.822282	-0.556151	-0.000411
C18	C	0.758108	-0.584045	-0.000359
C19	C	0.757033	-0.656867	-0.000357
N20	N	0.776608	-0.435469	-0.078193
N21	N	0.777633	-0.366292	-0.078197
C22	C	0.825516	-0.336742	-0.000414
N23	N	0.872345	-0.378983	0.077358
N24	N	0.871322	-0.448167	0.077356
C25	C	0.823440	-0.477187	-0.000412
C26	C	0.890852	-0.229893	-0.000443
C27	C	0.891926	-0.157068	-0.000423
C28	C	0.764659	-0.140029	-0.000355
C29	C	0.763587	-0.212852	-0.000362
C30	C	0.826685	-0.257780	-0.000412
C31	C	0.574386	0.160471	-0.000323
C32	C	0.501563	0.159399	-0.000338
C33	C	0.473667	0.095233	-0.000356
C34	C	0.518602	0.032134	-0.000323
C35	C	0.591424	0.033207	-0.000294
N36	N	0.365690	0.046187	-0.078204
N37	N	0.296512	0.045171	-0.078235
C38	C	0.254259	0.091995	-0.000440
N39	N	0.283796	0.139883	0.077370
N40	N	0.352981	0.140900	0.077394
C41	C	0.394705	0.094062	-0.000386
C42	C	0.130369	0.153928	-0.000479
C43	C	0.057544	0.152854	-0.000485
C44	C	0.074586	0.025586	-0.000485
C45	C	0.147409	0.026663	-0.000464
C46	C	0.175296	0.090835	-0.000468
C47	C	0.952149	0.087546	-0.000456
C48	C	1.029654	0.088687	-0.000501
C49	C	0.818993	0.220700	-0.000401
C50	C	0.820132	0.298205	-0.000408
N51	N	0.824477	0.093028	0.355725
N52	N	0.824494	0.093033	-0.356512
C53	C	0.872105	0.045437	0.427632
C54	C	0.872112	0.045437	0.571515
C55	C	0.776861	0.140626	0.571571
C56	C	0.776851	0.140622	0.427691
H57	H	0.935677	-0.710485	-0.000485
C58	C	0.724479	0.192983	0.650734
C59	C	0.724526	0.193034	0.808996
C60	C	0.672144	0.245394	0.888154
C61	C	0.619715	0.297704	0.809050
C62	C	0.619666	0.297656	0.650778
C63	C	0.672048	0.245295	0.571620
H64	H	0.763338	0.154309	0.867562
H65	H	0.672180	0.245430	1.005318
H66	H	0.580939	0.336465	0.867647
H67	H	0.580854	0.336381	0.592212
H68	H	0.672012	0.245260	0.454457
C69	C	0.924487	-0.006920	0.348469
C70	C	0.897368	-0.060253	0.249592
C71	C	0.949750	-0.112614	0.170434
C72	C	1.029251	-0.111641	0.190153
C73	C	1.056374	-0.058306	0.289035
C74	C	1.003992	-0.005945	0.368193
H75	H	0.838514	-0.060975	0.234990
H76	H	0.929672	-0.152096	0.097235
H77	H	1.068027	-0.150401	0.131556
H78	H	1.115228	-0.057584	0.303637
H79	H	1.024070	0.033537	0.441392
H80	H	0.910894	0.006683	0.630058
H81	H	0.937626	-0.578376	-0.000476
C82	C	0.693003	-0.243532	-0.000334
C83	C	0.623601	-0.194110	-0.000302
C84	C	0.553014	-0.224789	-0.000270
C85	C	0.551829	-0.304890	-0.000268
C86	C	0.621233	-0.354317	-0.000299
C87	C	0.691820	-0.323638	-0.000332
H88	H	0.624476	-0.134810	-0.000304
H89	H	0.501636	-0.188200	-0.000247
H90	H	0.499576	-0.327601	-0.000244
H91	H	0.620358	-0.413617	-0.000298
H92	H	0.743198	-0.360227	-0.000355
C93	C	0.196832	-0.042740	-0.000460
C94	C	0.166153	-0.113323	-0.000482
C95	C	0.215576	-0.182729	-0.000474
C96	C	0.295678	-0.181551	-0.000444
C97	C	0.326361	-0.110965	-0.000422
C98	C	0.276938	-0.041559	-0.000430
H99	H	0.106853	-0.114198	-0.000504
H100	H	0.192862	-0.234982	-0.000490
H101	H	0.332264	-0.232930	-0.000439
H102	H	0.385661	-0.110091	-0.000401
H103	H	0.299652	0.010693	-0.000414
H104	H	0.706738	-0.547455	-0.000331
H105	H	0.704781	-0.679571	-0.000318
H106	H	0.020966	0.204232	-0.000497
H107	H	0.942231	-0.266475	-0.000483
H108	H	0.051874	-0.026659	-0.000584
C109	C	0.161051	0.224515	-0.000463
C110	C	0.111630	0.293917	-0.000466
C111	C	0.142310	0.364504	-0.000448
C112	C	0.222411	0.365689	-0.000428
C113	C	0.271837	0.296284	-0.000425
C114	C	0.241157	0.225697	-0.000442
H115	H	0.052330	0.293043	-0.000481
H116	H	0.105721	0.415882	-0.000450
H117	H	0.245122	0.417941	-0.000414
H118	H	0.331137	0.297158	-0.000409
H119	H	0.277746	0.174319	-0.000440
C120	C	0.487922	-0.038451	-0.000344
C121	C	0.504996	-0.090799	-0.119029
C122	C	0.474317	-0.161387	-0.119042
C123	C	0.426564	-0.179625	-0.000370
C124	C	0.409487	-0.127275	0.118323
C125	C	0.440166	-0.056688	0.118336
H126	H	0.540349	-0.077299	-0.206886
H127	H	0.486959	-0.200139	-0.206908
H128	H	0.403853	-0.231878	-0.000380
H129	H	0.374134	-0.140776	0.206180
H130	H	0.427524	-0.017935	0.206202
H131	H	0.944179	-0.134365	-0.000450
H132	H	0.713288	-0.103444	-0.000320
H133	H	0.597087	0.212725	-0.000328
H134	H	0.628003	-0.018171	-0.000275
C135	C	0.452131	0.228802	-0.000379
C136	C	0.455144	0.281437	-0.119090
C137	C	0.405715	0.350838	-0.119136
C138	C	0.353273	0.367606	-0.000472
C139	C	0.350258	0.314970	0.118247
C140	C	0.399687	0.245568	0.118293
H141	H	0.493967	0.269026	-0.206940
H142	H	0.407947	0.389803	-0.207021
H143	H	0.316682	0.418981	-0.000507
H144	H	0.311435	0.327381	0.206097
H145	H	0.397455	0.206603	0.206178
H146	H	0.738063	0.179377	0.369140
