data_functionalizedCrystal
_audit_creation_method	'MofGen! by Chris Wilmer'
_symmetry_space_group_name_H-M	'P1'
_symmetry_Int_Tables_number	1
_symmetry_cell_setting	triclinic
loop_
_symmetry_equiv_pos_as_xyz
  x,y,z
_cell_length_a	14.853569
_cell_length_b	13.596369
_cell_length_c	14.853567
_cell_angle_alpha	89.996595
_cell_angle_beta	83.635248
_cell_angle_gamma	90.003957
loop_
_atom_site_label
_atom_site_type_symbol
_atom_site_fract_x
_atom_site_fract_y
_atom_site_fract_z
O1	O	1.196366	0.081738	0.117705
O2	O	0.933907	0.081749	0.131725
O3	O	1.072147	0.081746	-0.006515
O4	O	1.058126	0.081741	0.255945
O5	O	1.072130	-0.081837	-0.006507
O6	O	0.933890	-0.081834	0.131732
O7	O	1.196349	-0.081845	0.117713
Zn8	Zn	1.065117	-0.107812	0.124724
Zn9	Zn	1.065139	0.107716	0.124714
O10	O	1.058109	-0.081842	0.255952
C11	C	0.900310	-0.000041	0.131093
C12	C	0.800226	-0.000037	0.129189
C13	C	0.763850	-0.000032	0.046178
C14	C	0.742560	-0.000046	0.210410
C15	C	0.648526	-0.000047	0.208624
C16	C	0.612150	-0.000042	0.125613
C17	C	0.669807	-0.000036	0.044389
C18	C	0.590862	-0.000063	0.289847
C19	C	0.496821	-0.000065	0.288064
C20	C	0.460443	-0.000053	0.205052
C21	C	0.518107	-0.000046	0.123824
C22	C	0.481730	-0.000041	0.040813
C23	C	0.539393	-0.000026	-0.040415
C24	C	0.633429	-0.000023	-0.038623
C25	C	0.366407	-0.000056	0.203259
C26	C	0.387688	-0.000045	0.039024
N27	N	1.065108	-0.254904	0.124730
C28	C	1.065113	-0.343902	0.124732
C29	C	1.065122	-0.455553	0.124726
C30	C	1.065133	-0.544544	0.124716
C31	C	1.065144	-0.656202	0.124710
C32	C	1.229947	-0.000053	0.118344
C33	C	1.330030	-0.000051	0.120249
C34	C	1.071504	-0.000043	-0.040100
C35	C	1.069600	-0.000034	-0.140183
N36	N	1.065155	0.254807	0.124700
C37	C	0.979434	-0.000049	-0.552718
C38	C	1.143667	-0.000056	-0.573998
C39	C	1.145457	-0.000050	-0.479964
C40	C	1.064234	-0.000045	-0.422303
C41	C	0.981222	-0.000046	-0.458675
C42	C	1.228468	-0.000059	-0.443585
C43	C	1.230262	-0.000054	-0.349545
C44	C	1.149038	-0.000043	-0.291882
C45	C	1.066022	-0.000042	-0.328260
C46	C	0.984800	-0.000038	-0.270599
C47	C	0.901783	-0.000031	-0.306974
C48	C	0.899998	-0.000034	-0.401012
C49	C	1.150822	-0.000039	-0.197845
C50	C	0.986587	-0.000035	-0.176556
C51	C	1.058753	-0.000052	0.289537
C52	C	1.060657	-0.000054	0.389621
H53	H	0.449880	-0.000076	0.354205
H54	H	0.358078	-0.000035	-0.028574
C55	C	0.499372	-0.000019	-0.131722
H56	H	0.435109	-0.000020	-0.121148
H57	H	0.519154	-0.057056	-0.165176
H58	H	0.519149	0.057041	-0.165165
C59	C	1.233006	-0.000062	-0.637418
H60	H	1.282701	-0.000066	-0.602286
H61	H	1.235726	0.056979	-0.674553
H62	H	1.235717	-0.057118	-0.674535
H63	H	1.297859	-0.000059	-0.319937
H64	H	1.294595	-0.000072	-0.490539
H65	H	1.218413	-0.000051	-0.168232
C66	C	0.302980	-0.000076	0.292596
H67	H	0.241765	-0.000082	0.279643
H68	H	0.314020	0.056962	0.326637
H69	H	0.314017	-0.057135	0.326621
H70	H	0.835651	-0.000034	-0.260014
C71	C	0.808688	-0.000028	-0.441023
H72	H	0.760569	-0.000013	-0.393216
H73	H	0.804570	-0.057073	-0.477260
H74	H	0.804589	0.057024	-0.477270
C75	C	0.696857	-0.000021	-0.127964
H76	H	0.758071	-0.000033	-0.115007
H77	H	0.685828	0.057024	-0.162003
H78	H	0.685813	-0.057073	-0.161992
C79	C	0.827271	-0.000020	-0.043167
H80	H	0.888488	-0.000023	-0.030217
H81	H	0.816231	0.057025	-0.077201
H82	H	0.816231	-0.057072	-0.077196
H83	H	0.772184	-0.000057	0.277994
C84	C	0.630876	-0.000072	0.381150
H85	H	0.695139	-0.000056	0.370580
H86	H	0.611096	-0.057122	0.414596
H87	H	0.611093	0.056975	0.414598
H88	H	0.920445	-0.000027	-0.129613
C89	C	0.888123	-0.000045	-0.592726
H90	H	0.898686	-0.000053	-0.656990
H91	H	0.854680	0.056999	-0.572943
H92	H	0.854674	-0.057098	-0.572938
