data_functionalizedCrystal
_audit_creation_method	'MofGen! by Chris Wilmer'
_symmetry_space_group_name_H-M	'P1'
_symmetry_Int_Tables_number	1
_symmetry_cell_setting	triclinic
loop_
_symmetry_equiv_pos_as_xyz
  x,y,z
_cell_length_a	19.188905
_cell_length_b	19.188930
_cell_length_c	11.295483
_cell_angle_alpha	94.076039
_cell_angle_beta	85.901908
_cell_angle_gamma	83.139668
loop_
_atom_site_label
_atom_site_type_symbol
_atom_site_fract_x
_atom_site_fract_y
_atom_site_fract_z
O1	O	0.930883	0.082358	-0.099235
O2	O	1.430883	0.582358	0.400765
O3	O	0.727568	0.094112	-0.099196
O4	O	1.227568	0.594112	0.400804
O5	O	0.835092	-0.013420	-0.099193
O6	O	1.335092	0.486580	0.400807
O7	O	0.823359	0.189890	-0.099237
O8	O	1.323359	0.689890	0.400763
O9	O	0.825648	-0.003990	0.098857
O10	O	1.325648	0.496010	0.598857
O11	O	0.718124	0.103542	0.098855
O12	O	1.218124	0.603542	0.598855
O13	O	0.921439	0.091788	0.098816
O14	O	1.421439	0.591788	0.598816
Cu15	Cu	0.818919	0.098526	0.116919
Cu16	Cu	1.318919	0.598526	0.616919
Cu17	Cu	0.830088	0.087374	-0.117299
Cu18	Cu	1.330088	0.587374	0.382701
O19	O	0.813915	0.199320	0.098813
O20	O	1.313915	0.699320	0.598813
C21	C	0.696834	0.098450	-0.000165
C22	C	1.196834	0.598450	0.499835
C23	C	0.619328	0.097317	-0.000149
C24	C	1.119328	0.597317	0.499851
C25	C	0.588084	0.091632	-0.108110
C26	C	1.088084	0.591632	0.391890
C27	C	0.515261	0.090558	-0.108124
C28	C	1.015261	0.590558	0.391876
C29	C	0.473686	0.095156	-0.000172
C30	C	0.973686	0.595156	0.499828
C31	C	0.504938	0.100845	0.107802
C32	C	1.004938	0.600845	0.607802
C33	C	0.577758	0.101926	0.107814
C34	C	1.077758	0.601926	0.607814
N35	N	0.360835	0.057553	0.080175
N36	N	0.860835	0.557553	0.580175
N37	N	0.291659	0.056524	0.080157
N38	N	0.791659	0.556524	0.580157
C39	C	0.254281	0.091902	-0.000200
C40	C	0.754281	0.591902	0.499800
N41	N	0.288695	0.128336	-0.080557
N42	N	0.788695	0.628336	0.419443
N43	N	0.357878	0.129362	-0.080542
N44	N	0.857878	0.629362	0.419458
C45	C	0.394724	0.093985	-0.000173
C46	C	0.894724	0.593985	0.499827
C47	C	0.144075	0.085053	-0.108184
C48	C	0.644075	0.585053	0.391816
C49	C	0.071250	0.083984	-0.108194
C50	C	0.571250	0.583984	0.391806
C51	C	0.060928	0.094264	0.107736
C52	C	0.560928	0.594264	0.607736
C53	C	0.133751	0.095340	0.107743
C54	C	0.633751	0.595340	0.607743
C55	C	0.175321	0.090731	-0.000221
C56	C	0.675321	0.590731	0.499779
C57	C	0.829989	-0.034716	-0.000164
C58	C	1.329989	0.465284	0.499836
C59	C	0.828848	-0.112220	-0.000154
C60	C	1.328848	0.387780	0.499846
C61	C	0.891940	-0.157150	-0.000160
C62	C	1.391940	0.342850	0.499840
C63	C	0.890869	-0.229974	-0.000179
C64	C	1.390869	0.270026	0.499821
C65	C	0.826702	-0.257865	-0.000168
C66	C	1.326702	0.242135	0.499832
C67	C	0.763602	-0.212925	-0.000168
C68	C	1.263602	0.287075	0.499832
C69	C	0.764675	-0.140103	-0.000161
C70	C	1.264675	0.359897	0.499839
N71	N	0.774440	-0.362655	0.067242
N72	N	1.274440	0.137345	0.567242
N73	N	0.773424	-0.431834	0.067238
N74	N	1.273424	0.068166	0.567238
C75	C	0.823465	-0.477274	-0.000191
C76	C	1.323465	0.022726	0.499809
N77	N	0.874569	-0.450923	-0.067601
N78	N	1.374569	0.049077	0.432399
N79	N	0.875586	-0.381738	-0.067592
N80	N	1.375586	0.118262	0.432408
C81	C	0.825531	-0.336827	-0.000176
C82	C	1.325531	0.163173	0.499824
C83	C	0.885400	-0.601169	-0.000220
C84	C	1.385400	-0.101169	0.499780
C85	C	0.884327	-0.673995	-0.000246
C86	C	1.384327	-0.173995	0.499754
C87	C	0.757057	-0.656944	-0.000223
C88	C	1.257057	-0.156944	0.499777
C89	C	0.758133	-0.584120	-0.000209
C90	C	1.258133	-0.084120	0.499791
C91	C	0.822306	-0.556237	-0.000201
C92	C	1.322306	-0.056237	0.499799
C93	C	0.952173	0.087450	-0.000217
C94	C	1.452173	0.587450	0.499783
C95	C	1.029680	0.088583	-0.000241
C96	C	1.529680	0.588583	0.499759
C97	C	0.819018	0.220616	-0.000218
C98	C	1.319018	0.720616	0.499782
C99	C	0.820159	0.298119	-0.000237
C100	C	1.320159	0.798119	0.499763
N101	N	0.811069	0.106370	0.281655
N102	N	1.311069	0.606370	0.781655
N103	N	0.837944	0.079525	-0.282035
N104	N	1.337944	0.579525	0.217965
C105	C	0.894455	0.023023	0.530947
C106	C	1.394455	0.523023	1.030947
C107	C	0.888527	0.028956	0.655610
C108	C	1.388527	0.528956	1.155610
C109	C	0.793283	0.124163	0.655648
C110	C	1.293283	0.624163	1.155648
C111	C	0.799211	0.118231	0.530984
C112	C	1.299211	0.618231	1.030984
C113	C	0.849799	0.067660	0.468638
C114	C	1.349799	0.567660	0.968638
C115	C	0.855729	0.061731	0.343972
C116	C	1.355729	0.561731	0.843972
C117	C	0.760482	0.156935	0.344012
C118	C	1.260482	0.656935	0.844012
C119	C	0.754555	0.162867	0.468676
C120	C	1.254555	0.662867	0.968676
H121	H	0.027078	0.098012	0.195632
H122	H	0.527078	0.598012	0.695632
H123	H	0.935707	-0.710578	-0.000258
H124	H	1.435707	-0.210578	0.499742
H125	H	0.944195	-0.134453	-0.000158
H126	H	1.444195	0.365547	0.499842
H127	H	0.924890	-0.007393	0.706338
H128	H	1.424890	0.492607	1.206338
H129	H	0.159190	0.099965	0.195656
H130	H	0.659190	0.599965	0.695656
H131	H	0.706756	-0.547537	-0.000197
H132	H	1.206756	-0.047537	0.499803
H133	H	0.935650	-0.018149	0.480183
H134	H	1.435650	0.481851	0.980183
H135	H	0.752091	0.165332	0.706426
H136	H	1.252091	0.665332	1.206426
H137	H	0.603196	0.106556	0.195731
H138	H	1.103196	0.606556	0.695731
H139	H	0.713296	-0.103520	-0.000156
H140	H	1.213296	0.396480	0.499844
H141	H	0.937654	-0.578466	-0.000219
H142	H	1.437654	-0.078466	0.499781
H143	H	0.713365	0.204040	0.519452
H144	H	1.213365	0.704040	1.019452
H145	H	0.471083	0.104591	0.195698
H146	H	0.971083	0.604591	0.695698
F147	F	0.712958	0.204446	0.277687
F148	F	1.212958	0.704446	0.777687
H149	H	0.704811	-0.679652	-0.000219
H150	H	1.204811	-0.179652	0.499781
H151	H	0.621926	0.087878	-0.196022
H152	H	1.121926	0.587878	0.303978
H153	H	0.489817	0.085929	-0.196041
H154	H	0.989817	0.585929	0.303959
H155	H	0.177921	0.081307	-0.196094
H156	H	0.677921	0.581307	0.303906
F157	F	0.695311	-0.242609	-0.000164
F158	F	1.195311	0.257391	0.499836
F159	F	0.037998	0.077938	-0.223107
F160	F	0.537998	0.577938	0.276893
H161	H	0.896923	0.020556	0.293211
H162	H	1.396923	0.520556	0.793211
F163	F	0.958023	-0.277801	-0.000188
F164	F	1.458023	0.222199	0.499812
