data_functionalizedCrystal
_audit_creation_method	'MofGen! by Chris Wilmer'
_symmetry_space_group_name_H-M	'P1'
_symmetry_Int_Tables_number	1
_symmetry_cell_setting	triclinic
loop_
_symmetry_equiv_pos_as_xyz
  x,y,z
_cell_length_a	19.188925
_cell_length_b	19.188930
_cell_length_c	9.730223
_cell_angle_alpha	89.993564
_cell_angle_beta	89.998856
_cell_angle_gamma	83.143665
loop_
_atom_site_label
_atom_site_type_symbol
_atom_site_fract_x
_atom_site_fract_y
_atom_site_fract_z
O1	O	0.926143	0.087146	-0.114335
O2	O	0.722831	0.098885	-0.114333
O3	O	0.830354	-0.008640	-0.114307
O4	O	0.818620	0.194671	-0.114361
O5	O	0.830353	-0.008637	0.114273
O6	O	0.722830	0.098887	0.114247
O7	O	0.926142	0.087149	0.114245
Zn8	Zn	0.824486	0.093019	0.150538
Zn9	Zn	0.824487	0.093015	-0.150626
O10	O	0.818619	0.194674	0.114219
C11	C	0.696820	0.098507	-0.000043
C12	C	0.619315	0.097367	-0.000041
C13	C	0.057545	0.152831	-0.000059
C14	C	0.130368	0.153908	-0.000066
C15	C	0.175302	0.090816	-0.000047
C16	C	0.147408	0.026642	-0.000056
C17	C	0.074586	0.025568	-0.000062
N18	N	0.295979	0.045140	0.077775
N19	N	0.365156	0.046166	0.077784
C20	C	0.394712	0.094050	-0.000032
N21	N	0.352475	0.140881	-0.077839
N22	N	0.283291	0.139857	-0.077842
C23	C	0.254267	0.091974	-0.000041
C24	C	0.501561	0.159386	-0.000041
C25	C	0.574385	0.160460	-0.000058
C26	C	0.591425	0.033193	-0.000033
C27	C	0.518601	0.032121	-0.000031
C28	C	0.473673	0.095220	-0.000028
C29	C	0.829974	-0.034650	-0.000013
C30	C	0.828833	-0.112154	-0.000001
C31	C	0.891924	-0.157079	0.000005
C32	C	0.890852	-0.229903	-0.000017
C33	C	0.826686	-0.257799	-0.000018
C34	C	0.763587	-0.212864	-0.000032
C35	C	0.764660	-0.140041	-0.000023
N36	N	0.777638	-0.365802	0.077773
N37	N	0.776623	-0.434980	0.077768
C38	C	0.823448	-0.477207	-0.000046
N39	N	0.871338	-0.447644	-0.077837
N40	N	0.872355	-0.378459	-0.077826
C41	C	0.825515	-0.336761	-0.000028
C42	C	0.885381	-0.601097	-0.000065
C43	C	0.884307	-0.673922	-0.000096
C44	C	0.757040	-0.656880	-0.000096
C45	C	0.758116	-0.584057	-0.000080
C46	C	0.822289	-0.556170	-0.000058
C47	C	0.952154	0.087527	-0.000049
C48	C	1.029658	0.088666	-0.000059
C49	C	0.819000	0.220684	-0.000078
C50	C	0.820140	0.298188	-0.000099
N51	N	0.824490	0.093021	0.356074
N52	N	0.824489	0.093008	-0.356162
C53	C	0.872113	0.045425	0.428012
C54	C	0.872111	0.045416	0.571895
C55	C	0.776861	0.140606	0.571890
C56	C	0.776860	0.140611	0.428010
C57	C	0.927107	-0.009531	0.428016
C58	C	0.927106	-0.009539	0.571899
H59	H	0.944179	-0.134379	0.000018
H60	H	0.153078	0.206160	-0.000053
H61	H	0.628010	-0.018178	-0.000028
N62	N	0.912150	-0.080434	0.376292
H63	H	0.912148	-0.080459	0.272492
H64	H	0.949554	-0.117793	0.410965
N65	N	0.604457	0.229675	-0.000057
H66	H	0.634292	0.232955	0.084675
H67	H	0.634254	0.232924	-0.084850
H68	H	0.183999	-0.024728	-0.000044
N69	N	0.954592	-0.571011	-0.000048
H70	H	0.994399	-0.610525	-0.000058
H71	H	0.957809	-0.541158	-0.084777
H72	H	0.464978	0.210765	-0.000042
N73	N	0.488518	-0.037086	-0.000021
H74	H	0.528032	-0.076893	-0.000008
H75	H	0.458673	-0.040303	0.084716
H76	H	0.977604	0.006879	0.383384
N77	N	0.952359	-0.722381	-0.000095
H78	H	0.993171	-0.693661	-0.000075
H79	H	0.954678	-0.752975	0.084637
H80	H	0.704794	-0.679592	-0.000104
H81	H	0.706740	-0.547478	-0.000077
H82	H	0.942230	-0.266488	-0.000018
H83	H	0.711342	-0.235581	-0.000035
N84	N	0.044504	-0.043641	-0.000061
H85	H	0.084017	-0.083449	-0.000055
H86	H	0.014661	-0.046860	0.084678
N87	N	0.725483	0.191933	0.350417
H88	H	0.695311	0.222078	0.417823
H89	H	0.752105	0.222742	0.290709
H90	H	0.910737	-0.060058	0.616528
H91	H	0.713282	-0.103462	-0.000028
H92	H	0.738081	0.179352	0.630475
N93	N	0.997993	0.005471	0.623630
H94	H	1.008029	0.052895	0.589064
H95	H	0.997973	0.005431	0.727426
N96	N	0.009087	0.220885	0.000064
H97	H	0.037808	0.261697	0.000103
H98	H	-0.021527	0.223258	-0.084637
