data_functionalizedCrystal
_audit_creation_method	'MofGen! by Chris Wilmer'
_symmetry_space_group_name_H-M	'P1'
_symmetry_Int_Tables_number	1
_symmetry_cell_setting	triclinic
loop_
_symmetry_equiv_pos_as_xyz
  x,y,z
_cell_length_a	19.288864
_cell_length_b	15.995350
_cell_length_c	17.766277
_cell_angle_alpha	89.995869
_cell_angle_beta	89.976791
_cell_angle_gamma	83.314311
loop_
_atom_site_label
_atom_site_type_symbol
_atom_site_fract_x
_atom_site_fract_y
_atom_site_fract_z
O1	O	0.921624	0.104452	-0.062832
O2	O	0.719400	0.118542	-0.062780
O3	O	0.826040	-0.010412	-0.062807
O4	O	0.814984	0.233405	-0.062805
O5	O	0.826021	-0.010418	0.062382
O6	O	0.719381	0.118535	0.062408
O7	O	0.921605	0.104445	0.062357
Cu8	Cu	0.820492	0.111490	0.073813
Cu9	Cu	0.820514	0.111497	-0.074237
O10	O	0.814965	0.233399	0.062383
C11	C	0.693513	0.118085	-0.000179
C12	C	0.616406	0.116724	-0.000159
C13	C	0.571906	0.192388	-0.000171
C14	C	0.499456	0.191110	-0.000179
C15	C	0.471508	0.114163	-0.000191
C16	C	0.516018	0.038489	-0.000176
C17	C	0.588467	0.039769	-0.000160
C18	C	0.363096	0.053676	-0.044076
C19	C	0.290648	0.052398	-0.044097
C20	C	0.248053	0.110209	-0.000237
C21	C	0.277912	0.169312	0.043634
C22	C	0.350361	0.170593	0.043650
C23	C	0.392951	0.112765	-0.000208
C24	C	0.124993	0.184492	-0.000256
C25	C	0.052542	0.183210	-0.000260
C26	C	0.069106	0.030587	-0.000264
C27	C	0.141556	0.031871	-0.000253
C28	C	0.169495	0.108826	-0.000252
C29	C	0.825574	-0.041608	-0.000214
C30	C	0.824203	-0.134553	-0.000218
C31	C	0.819282	-0.472282	-0.000214
C32	C	0.743335	-0.424562	-0.000475
C33	C	0.744706	-0.327877	-0.000193
C34	C	0.821723	-0.304731	-0.000216
C35	C	0.859172	-0.345953	0.071262
C36	C	0.857264	-0.442582	0.071322
C37	C	0.858855	-0.442939	-0.071041
C38	C	0.858837	-0.345993	-0.071986
C39	C	0.823107	-0.210039	-0.000215
C40	C	0.817901	-0.566975	-0.000210
C41	C	0.947492	0.104902	-0.000246
C42	C	1.024600	0.106263	-0.000271
C43	C	0.815432	0.264595	-0.000211
C44	C	0.816802	0.357540	-0.000212
N45	N	0.820481	0.111484	0.177944
N46	N	0.820530	0.111497	-0.178367
C47	C	0.867717	0.054411	0.217319
C48	C	0.867721	0.054407	0.296120
C49	C	0.820496	0.111490	0.335544
C50	C	0.773251	0.168567	0.296160
C51	C	0.773244	0.168564	0.217359
C52	C	0.811395	0.187781	0.460384
C53	C	0.811407	0.187785	0.539183
C54	C	0.820514	0.111500	0.578590
C55	C	0.829624	0.035208	0.539190
C56	C	0.829617	0.035204	0.460389
C57	C	0.820498	0.111500	0.420990
C58	C	0.867757	0.054419	0.703411
C59	C	0.867756	0.054414	0.782215
C60	C	0.773290	0.168581	0.782252
C61	C	0.773288	0.168579	0.703451
C62	C	0.820525	0.111499	0.664035
H63	H	0.624700	-0.021848	-0.000151
N64	N	0.927214	-0.483294	0.075380
N65	N	0.977283	-0.440315	0.078164
H66	H	1.026684	-0.469064	0.081036
N67	N	0.725051	0.226904	0.822501
N68	N	0.682884	0.277866	0.787330
H69	H	0.648812	0.319058	0.815758
N70	N	0.826536	-0.310243	0.138020
N71	N	0.861107	-0.273242	0.184267
H72	H	0.838054	-0.248023	0.231415
N73	N	0.915975	-0.003902	0.336341
N74	N	0.958143	-0.054863	0.301139
H75	H	0.992224	-0.096045	0.329542
H76	H	0.834032	-0.463382	-0.125218
H77	H	0.734778	0.215040	0.185299
H78	H	0.266342	0.004277	-0.079822
N79	N	0.838927	-0.042720	0.420142
N80	N	0.893454	-0.092166	0.428911
H81	H	0.900028	-0.147202	0.400486
N82	N	0.838929	-0.042727	0.579426
N83	N	0.893453	-0.092176	0.570609
H84	H	0.900025	-0.147215	0.599030
N85	N	0.153526	0.263103	-0.000251
N86	N	0.113782	0.330657	-0.000252
H87	H	0.133931	0.386177	-0.000248
H88	H	0.831457	-0.318638	-0.124863
H89	H	0.734827	0.215056	0.671389
H90	H	0.016310	0.244828	-0.000265
N91	N	0.930154	-0.328501	0.074569
N92	N	0.953989	-0.285382	0.024163
H93	H	1.004121	-0.273055	0.026496
H94	H	0.397772	0.006598	-0.079796
H95	H	0.046352	-0.032065	-0.000320
N96	N	0.802095	0.265722	0.579411
N97	N	0.747563	0.315158	0.570631
H98	H	0.740985	0.370204	0.599038
H99	H	0.493259	-0.024162	-0.000196
H100	H	0.715268	-0.299341	-0.051431
H101	H	0.803967	0.249906	0.428305
N102	N	0.600433	0.271000	-0.000173
N103	N	0.560686	0.338554	-0.000184
H104	H	0.580834	0.394075	-0.000186
N105	N	0.725013	0.226866	0.336438
N106	N	0.725025	0.226862	0.406794
H107	H	0.690953	0.268034	0.435241
N108	N	0.705271	-0.447660	-0.064784
N109	N	0.733669	-0.499565	-0.111173
H110	H	0.706787	-0.515881	-0.156595
H111	H	0.463217	0.252727	-0.000186
H112	H	0.374670	0.218713	0.079373
N113	N	0.234399	0.228384	0.088413
N114	N	0.169713	0.227244	0.088386
H115	H	0.138978	0.268970	0.120002
H116	H	0.715054	-0.299903	0.051147
H117	H	0.177789	-0.029743	-0.000247
H118	H	0.713107	-0.444044	0.050512
H119	H	0.915002	-0.330843	-0.076319
N120	N	0.822986	-0.465408	0.138372
N121	N	0.800635	-0.410001	0.184796
H122	H	0.776424	-0.426117	0.232152
N123	N	0.929102	-0.483039	-0.071651
N124	N	0.950012	-0.533024	-0.020205
H125	H	0.999624	-0.561345	-0.020627
N126	N	0.916029	-0.003829	0.177070
N127	N	0.958240	-0.054737	0.212242
H128	H	0.992384	-0.095844	0.183815
N129	N	0.915923	-0.003994	0.663155
N130	N	0.958034	-0.055025	0.698326
H131	H	0.992019	-0.096320	0.669898
H132	H	0.906219	0.007934	0.814274
