data_functionalizedCrystal
_audit_creation_method	'MofGen! by Chris Wilmer'
_symmetry_space_group_name_H-M	'P1'
_symmetry_Int_Tables_number	1
_symmetry_cell_setting	triclinic
loop_
_symmetry_equiv_pos_as_xyz
  x,y,z
_cell_length_a	12.996460
_cell_length_b	10.654558
_cell_length_c	10.654550
_cell_angle_alpha	95.513438
_cell_angle_beta	89.999098
_cell_angle_gamma	89.992599
loop_
_atom_site_label
_atom_site_type_symbol
_atom_site_fract_x
_atom_site_fract_y
_atom_site_fract_z
O1	O	0.085592	-1.667839	0.176439
O2	O	0.585592	-1.167839	0.676439
O3	O	0.085588	-1.302362	0.193234
O4	O	0.585588	-0.802362	0.693234
O5	O	0.085586	-1.493504	0.002097
O6	O	0.585586	-0.993504	0.502097
O7	O	0.085594	-1.476698	0.367575
O8	O	0.585594	-0.976698	0.867575
O9	O	-0.085548	-1.493479	0.002108
O10	O	0.414452	-0.993479	0.502108
O11	O	-0.085546	-1.302337	0.193245
O12	O	0.414454	-0.802337	0.693245
O13	O	-0.085542	-1.667815	0.176450
O14	O	0.414458	-1.167815	0.676450
Cu15	Cu	-0.101170	-1.485074	0.184848
Cu16	Cu	0.398830	-0.985074	0.684848
Cu17	Cu	0.101216	-1.485103	0.184835
Cu18	Cu	0.601216	-0.985103	0.684835
O19	O	-0.085540	-1.476673	0.367586
O20	O	0.414460	-0.976673	0.867586
C21	C	0.000020	-1.255552	0.192004
C22	C	0.500020	-0.755552	0.692004
C23	C	0.000019	-1.116109	0.188308
C24	C	0.500019	-0.616109	0.688308
N25	N	-0.243517	-1.485062	0.184857
N26	N	0.256483	-0.985062	0.684857
C27	C	0.000021	-1.492257	-0.044695
C28	C	0.500021	-0.992257	0.455305
C29	C	0.000024	-1.488566	-0.184138
C30	C	0.500024	-0.988566	0.315862
C31	C	-0.336623	-1.485068	0.184860
C32	C	0.163377	-0.985068	0.684860
C33	C	-0.453428	-1.485079	0.184852
C34	C	0.046572	-0.985079	0.684852
C35	C	-0.546526	-1.485095	0.184838
C36	C	-0.046526	-0.985095	0.684838
C37	C	-0.663339	-1.485109	0.184831
C38	C	-0.163339	-0.985109	0.684831
N39	N	0.243563	-1.485124	0.184817
N40	N	0.743563	-0.985124	0.684817
C41	C	0.000029	-0.933548	0.068820
C42	C	0.500029	-0.433548	0.568820
C43	C	0.000019	-1.064569	0.072292
C44	C	0.500019	-0.564569	0.572292
C45	C	0.000018	-1.036620	0.300861
C46	C	0.500018	-0.536620	0.800861
C47	C	0.000020	-0.905601	0.297387
C48	C	0.500020	-0.405601	0.797387
C49	C	0.000034	-0.949685	-0.063143
C50	C	0.500034	-0.449685	0.436857
C51	C	0.000024	-1.080706	-0.059671
C52	C	0.500024	-0.580706	0.440329
C53	C	0.000027	-0.714625	0.177676
C54	C	0.500027	-0.214625	0.677676
C55	C	0.000031	-0.854069	0.181363
C56	C	0.500031	-0.354069	0.681363
C57	C	0.000022	-1.601107	-0.263621
C58	C	0.500022	-1.101107	0.236379
C59	C	0.000030	-1.597630	-0.394642
C60	C	0.500030	-1.097630	0.105358
C61	C	0.000036	-1.369061	-0.366685
C62	C	0.500036	-0.869061	0.133315
C63	C	0.000036	-1.372539	-0.235667
C64	C	0.500036	-0.872539	0.264333
C65	C	0.000014	-1.733069	-0.279763
C66	C	0.500014	-1.233069	0.220237
C67	C	0.000021	-1.729593	-0.410784
C68	C	0.500021	-1.229593	0.089216
C69	C	0.000028	-1.477919	0.414379
C70	C	0.500028	-0.977919	0.914379
C71	C	0.000031	-1.481611	0.553822
C72	C	0.500031	-0.981611	1.053822
H73	H	0.000010	-0.840893	0.389032
H74	H	0.500010	-0.340893	0.889032
Br75	Br	-0.123150	-1.803061	-0.220356
Br76	Br	0.376850	-1.303061	0.279644
Br77	Br	0.000070	-1.219799	-0.127799
Br78	Br	0.500070	-0.719799	0.372201
H79	H	0.000046	-1.274597	-0.408656
H80	H	0.500046	-0.774597	0.091344
H81	H	-0.071596	-1.779304	-0.452538
H82	H	0.428404	-1.279304	0.047462
H83	H	0.000008	-1.078594	0.395324
H84	H	0.500008	-0.578594	0.895324
H85	H	0.071644	-1.122474	-0.109391
H86	H	0.571644	-0.622474	0.390609
Br87	Br	-0.119325	-0.900714	-0.149157
Br88	Br	0.380675	-0.400714	0.350843
H89	H	0.071629	-1.784695	-0.250408
H90	H	0.571629	-1.284695	0.249592
H91	H	0.073913	-1.769484	-0.456430
H92	H	0.573913	-1.269484	0.043570
H93	H	0.073926	-0.914067	-0.105169
H94	H	0.573926	-0.414067	0.394831
H95	H	-0.073871	-1.126334	-0.099542
H96	H	0.426129	-0.626334	0.400458
