data_functionalizedCrystal
_audit_creation_method	'MofGen! by Chris Wilmer'
_symmetry_space_group_name_H-M	'P1'
_symmetry_Int_Tables_number	1
_symmetry_cell_setting	triclinic
loop_
_symmetry_equiv_pos_as_xyz
  x,y,z
_cell_length_a	16.120490
_cell_length_b	16.120444
_cell_length_c	13.897441
_cell_angle_alpha	87.133622
_cell_angle_beta	92.917671
_cell_angle_gamma	90.165174
loop_
_atom_site_label
_atom_site_type_symbol
_atom_site_fract_x
_atom_site_fract_y
_atom_site_fract_z
Zn1	Zn	1.254490	-0.395644	0.642071
Zn2	Zn	1.504490	-0.145644	0.892071
Zn3	Zn	1.754490	0.104356	1.142071
Zn4	Zn	2.004490	0.354356	1.392071
Zn5	Zn	1.247325	-0.534712	0.488503
Zn6	Zn	1.497325	-0.284712	0.738503
Zn7	Zn	1.747325	-0.034712	0.988503
Zn8	Zn	1.997325	0.215288	1.238503
Zn9	Zn	1.115424	-0.388612	0.472229
Zn10	Zn	1.365424	-0.138612	0.722229
Zn11	Zn	1.615424	0.111388	0.972229
Zn12	Zn	1.865424	0.361388	1.222229
Zn13	Zn	1.108340	-0.527590	0.641194
Zn14	Zn	1.358340	-0.277590	0.891194
Zn15	Zn	1.608340	-0.027590	1.141194
Zn16	Zn	1.858340	0.222410	1.391194
O17	O	1.181395	-0.461640	0.560999
O18	O	1.431395	-0.211640	0.810999
O19	O	1.681395	0.038360	1.060999
O20	O	1.931395	0.288360	1.310999
O21	O	1.369905	-0.420015	0.628878
O22	O	1.619905	-0.170015	0.878878
O23	O	1.869905	0.079985	1.128878
O24	O	2.119905	0.329985	1.378878
O25	O	1.229795	-0.515369	0.351362
O26	O	1.479795	-0.265369	0.601362
O27	O	1.729795	-0.015369	0.851362
O28	O	1.979795	0.234631	1.101362
O29	O	1.139834	-0.273182	0.488316
O30	O	1.389834	-0.023182	0.738316
O31	O	1.639834	0.226818	0.988316
O32	O	1.889834	0.476818	1.238316
O33	O	1.364642	-0.522188	0.516051
O34	O	1.614642	-0.272188	0.766051
O35	O	1.864642	-0.022188	1.016051
O36	O	2.114642	0.227812	1.266051
O37	O	1.242006	-0.278349	0.613098
O38	O	1.492006	-0.028349	0.863098
O39	O	1.742006	0.221651	1.113098
O40	O	1.992006	0.471651	1.363098
O41	O	1.132887	-0.408031	0.339406
O42	O	1.382887	-0.158031	0.589406
O43	O	1.632887	0.091969	0.839406
O44	O	1.882887	0.341969	1.089406
O45	O	0.998118	-0.401124	0.487465
O46	O	1.248118	-0.151124	0.737465
O47	O	1.498118	0.098876	0.987465
O48	O	1.748118	0.348876	1.237465
O49	O	1.127760	-0.510049	0.776292
O50	O	1.377760	-0.260049	1.026292
O51	O	1.627760	-0.010049	1.276292
O52	O	1.877760	0.239951	1.526292
O53	O	0.992913	-0.503231	0.611603
O54	O	1.242913	-0.253231	0.861603
O55	O	1.492913	-0.003231	1.111603
O56	O	1.742913	0.246769	1.361603
O57	O	1.235136	-0.413109	0.776936
O58	O	1.485136	-0.163109	1.026936
O59	O	1.735136	0.086891	1.276936
O60	O	1.985136	0.336891	1.526936
O61	O	1.222925	-0.650130	0.515201
O62	O	1.472925	-0.400130	0.765201
O63	O	1.722925	-0.150130	1.015201
O64	O	1.972925	0.099870	1.265201
O65	O	1.120813	-0.644897	0.627383
O66	O	1.370813	-0.394897	0.877383
O67	O	1.620813	-0.144897	1.127383
O68	O	1.870813	0.105103	1.377383
C69	C	0.965343	-0.450642	0.547674
C70	C	1.215343	-0.200642	0.797674
C71	C	1.465343	0.049358	1.047674
C72	C	1.715343	0.299358	1.297674
C73	C	0.872915	-0.445958	0.541997
C74	C	1.122915	-0.195958	0.791997
C75	C	1.372915	0.054042	1.041997
C76	C	1.622915	0.304042	1.291997
C77	C	0.659946	-0.485933	0.590447
C78	C	0.909946	-0.235933	0.840447
C79	C	1.159946	0.014067	1.090447
C80	C	1.409946	0.264067	1.340447
C81	C	0.703691	-0.437412	0.531632
C82	C	0.953691	-0.187412	0.781632
C83	C	1.203691	0.062588	1.031632
C84	C	1.453691	0.312588	1.281632
C85	C	0.797856	-0.442168	0.537401
C86	C	1.047856	-0.192168	0.787401
C87	C	1.297856	0.057832	1.037401
C88	C	1.547856	0.307832	1.287401
C89	C	0.565773	-0.481178	0.584679
C90	C	0.815773	-0.231178	0.834679
C91	C	1.065773	0.018822	1.084679
C92	C	1.315773	0.268822	1.334679
C93	C	1.170346	-0.677686	0.572985
C94	C	1.420346	-0.427686	0.822985
C95	C	1.670346	-0.177686	1.072985
C96	C	1.920346	0.072314	1.322985
C97	C	1.165695	-0.770116	0.578149
C98	C	1.415695	-0.520116	0.828149
C99	C	1.665695	-0.270116	1.078149
C100	C	1.915695	-0.020116	1.328149
C101	C	1.205724	-0.983094	0.534429
C102	C	1.455724	-0.733094	0.784429
C103	C	1.705724	-0.483094	1.034429
C104	C	1.955724	-0.233094	1.284429
C105	C	1.157219	-0.939342	0.587589
C106	C	1.407219	-0.689342	0.837589
C107	C	1.657219	-0.439342	1.087589
C108	C	1.907219	-0.189342	1.337589
C109	C	1.161937	-0.845176	0.582335
C110	C	1.411937	-0.595176	0.832335
C111	C	1.661937	-0.345176	1.082335
C112	C	1.911937	-0.095176	1.332335
C113	C	1.201008	-1.077268	0.539682
C114	C	1.451008	-0.827268	0.789682
C115	C	1.701008	-0.577268	1.039682
C116	C	1.951008	-0.327268	1.289682
C117	C	1.398289	-0.472680	0.574378
C118	C	1.648289	-0.222680	0.824378
C119	C	1.898289	0.027320	1.074378
C120	C	2.148289	0.277320	1.324378
C121	C	1.490717	-0.477385	0.580078
C122	C	1.740717	-0.227385	0.830078
C123	C	1.990717	0.022615	1.080078
C124	C	2.240717	0.272615	1.330078
C125	C	1.181457	-0.461569	0.812592
C126	C	1.431457	-0.211569	1.062592
C127	C	1.681457	0.038431	1.312592
C128	C	1.931457	0.288431	1.562592
C129	C	1.181484	-0.461539	0.919806
C130	C	1.431484	-0.211539	1.169806
C131	C	1.681484	0.038461	1.419806
C132	C	1.931484	0.288461	1.669806
C133	C	1.192509	-0.244750	0.548989
C134	C	1.442509	0.005250	0.798989
C135	C	1.692509	0.255250	1.048989
C136	C	1.942509	0.505250	1.298989
C137	C	1.197246	-0.152325	0.543872
C138	C	1.447246	0.097675	0.793872
C139	C	1.697246	0.347675	1.043872
C140	C	1.947246	0.597675	1.293872
C141	C	1.181383	-0.461652	0.310385
C142	C	1.431383	-0.211652	0.560385
C143	C	1.681383	0.038348	0.810385
C144	C	1.931383	0.288348	1.060385
C145	C	1.181529	-0.461456	0.203169
C146	C	1.431529	-0.211456	0.453169
C147	C	1.681529	0.038544	0.703169
C148	C	1.931529	0.288544	0.953169
C149	C	1.181510	-0.461484	1.116099
C150	C	1.431510	-0.211484	1.366099
C151	C	1.681510	0.038516	1.616099
C152	C	1.931510	0.288516	1.866099
C153	C	1.181493	-0.461517	1.006868
C154	C	1.431493	-0.211517	1.256868
C155	C	1.681493	0.038483	1.506868
C156	C	1.931493	0.288483	1.756868
H157	H	0.693212	-0.531043	0.645127
H158	H	0.943212	-0.281043	0.895127
H159	H	1.193212	-0.031043	1.145127
H160	H	1.443212	0.218957	1.395127
H161	H	1.112150	-0.972605	0.637047
H162	H	1.362150	-0.722605	0.887047
H163	H	1.612150	-0.472605	1.137047
H164	H	1.862150	-0.222605	1.387047
H165	H	1.250789	-0.949834	0.484973
H166	H	1.500789	-0.699834	0.734973
H167	H	1.750789	-0.449834	0.984973
H168	H	2.000789	-0.199834	1.234973
H169	H	0.670423	-0.392300	0.476946
H170	H	0.920423	-0.142300	0.726946
H171	H	1.170423	0.107700	0.976946
H172	H	1.420423	0.357700	1.226946
