data_functionalizedCrystal
_audit_creation_method	'MofGen! by Chris Wilmer'
_symmetry_space_group_name_H-M	'P1'
_symmetry_Int_Tables_number	1
_symmetry_cell_setting	triclinic
loop_
_symmetry_equiv_pos_as_xyz
  x,y,z
_cell_length_a	14.971486
_cell_length_b	11.792241
_cell_length_c	14.048226
_cell_angle_alpha	89.993434
_cell_angle_beta	89.998499
_cell_angle_gamma	83.903772
loop_
_atom_site_label
_atom_site_type_symbol
_atom_site_fract_x
_atom_site_fract_y
_atom_site_fract_z
O1	O	1.187540	0.147909	-0.079051
O2	O	0.927210	0.165622	-0.079077
O3	O	1.063692	-0.008446	-0.079057
O4	O	1.051058	0.321977	-0.079072
O5	O	1.063676	-0.008456	0.079264
O6	O	0.927194	0.165611	0.079244
O7	O	1.187523	0.147899	0.079270
Zn8	Zn	1.057356	0.156753	0.104394
Zn9	Zn	1.057378	0.156767	-0.104201
O10	O	1.051041	0.321966	0.079250
C11	C	0.893874	0.164824	0.000080
C12	C	0.794568	0.162451	0.000070
C13	C	1.062891	-0.050737	0.000103
C14	C	1.060515	-0.176735	0.000102
C15	C	0.737752	0.264710	0.000067
C16	C	0.644444	0.262473	0.000081
C17	C	0.607953	0.157975	0.000092
C18	C	0.664776	0.055707	0.000098
C19	C	0.758082	0.057946	0.000091
C20	C	0.470294	0.051049	0.000111
C21	C	0.376981	0.048810	0.000117
C22	C	0.356656	0.255577	0.000102
C23	C	0.449963	0.257815	0.000095
C24	C	0.506779	0.155547	0.000099
C25	C	1.056147	-0.407419	0.000086
C26	C	1.058574	-0.279050	0.000095
C27	C	1.220859	0.148696	0.000110
C28	C	1.320166	0.151070	0.000114
C29	C	1.051843	0.364257	0.000087
C30	C	1.054218	0.490256	0.000082
N31	N	1.057347	0.156744	0.246754
N32	N	1.057393	0.156768	-0.246562
C33	C	1.117801	0.079698	0.296582
C34	C	1.117807	0.079698	0.396239
C35	C	1.057363	0.156749	0.446068
C36	C	0.996903	0.233797	0.396234
C37	C	0.996894	0.233792	0.296578
C38	C	0.996929	0.233806	0.603948
C39	C	0.996940	0.233813	0.703611
C40	C	1.117843	0.079712	0.703609
C41	C	1.117833	0.079706	0.603953
C42	C	1.057374	0.156757	0.554126
H43	H	0.767455	0.349805	0.000058
O44	O	0.938341	0.308766	0.752054
C45	C	0.986572	0.378886	0.809699
H46	H	1.057114	0.380964	0.779657
H47	H	0.950502	0.469017	0.810821
H48	H	0.991100	0.343380	0.885231
H49	H	0.479670	0.342907	0.000077
O50	O	0.301558	0.354995	0.000230
C51	C	0.318164	0.418425	0.082228
H52	H	0.388804	0.390657	0.109560
H53	H	0.312053	0.513076	0.063776
H54	H	0.267064	0.402833	0.139653
H55	H	1.167070	0.016974	0.744184
O56	O	0.938062	0.308528	0.444594
C57	C	0.849432	0.289902	0.420242
H58	H	0.848559	0.199029	0.392859
H59	H	0.804615	0.302861	0.485786
H60	H	0.823454	0.352755	0.362393
O61	O	0.341680	-0.052796	0.000172
C62	C	0.411833	-0.142581	0.000157
H63	H	0.475368	-0.110686	0.030127
H64	H	0.391978	-0.215529	0.046129
H65	H	0.424882	-0.174132	-0.075795
H66	H	0.947665	0.296528	0.256010
O67	O	0.938291	0.308810	0.555586
C68	C	0.953362	0.421196	0.579938
H69	H	1.024976	0.421898	0.607326
H70	H	0.943346	0.478132	0.514393
H71	H	0.903952	0.454435	0.637784
O72	O	0.525580	-0.048217	-0.000014
C73	C	0.580139	-0.053110	-0.082027
H74	H	0.585286	0.036989	-0.109366
H75	H	0.650057	-0.095289	-0.063592
H76	H	0.549193	-0.104984	-0.139440
H77	H	0.598187	0.345744	0.000078
H78	H	0.635057	-0.029377	0.000120
H79	H	0.804341	-0.025325	0.000093
O80	O	1.176551	0.004741	0.248330
C81	C	1.229923	-0.063243	0.313684
H82	H	1.193252	-0.064596	0.384727
H83	H	1.243130	-0.153858	0.284903
H84	H	1.296545	-0.026250	0.324268
H85	H	1.167032	0.016961	0.436808
H86	H	1.167055	0.016971	0.563383
