data_functionalizedCrystal
_audit_creation_method	'MofGen! by Chris Wilmer'
_symmetry_space_group_name_H-M	'P1'
_symmetry_Int_Tables_number	1
_symmetry_cell_setting	triclinic
loop_
_symmetry_equiv_pos_as_xyz
  x,y,z
_cell_length_a	11.792241
_cell_length_b	10.489741
_cell_length_c	10.868271
_cell_angle_alpha	89.995151
_cell_angle_beta	89.999893
_cell_angle_gamma	84.366295
loop_
_atom_site_label
_atom_site_type_symbol
_atom_site_fract_x
_atom_site_fract_y
_atom_site_fract_z
O1	O	1.507380	0.174832	-0.102202
O2	O	2.007380	0.674832	0.397798
O3	O	1.177088	0.192851	-0.102231
O4	O	1.677088	0.692851	0.397769
O5	O	1.349749	-0.001782	-0.102208
O6	O	1.849749	0.498218	0.397792
O7	O	1.334718	0.369465	-0.102224
O8	O	1.834718	0.869465	0.397776
O9	O	1.349735	-0.001790	0.102436
O10	O	1.849735	0.498210	0.602436
O11	O	1.177073	0.192843	0.102414
O12	O	1.677073	0.692843	0.602414
O13	O	1.507366	0.174825	0.102443
O14	O	2.007366	0.674825	0.602443
Zn15	Zn	1.342217	0.183833	0.134920
Zn16	Zn	1.842217	0.683833	0.634920
Zn17	Zn	1.342236	0.183843	-0.134708
Zn18	Zn	1.842236	0.683843	0.365292
O19	O	1.334704	0.369457	0.102420
O20	O	1.834704	0.869457	0.602420
C21	C	1.134786	0.191715	0.000088
C22	C	1.634786	0.691715	0.500088
C23	C	1.008764	0.188327	0.000077
C24	C	1.508764	0.688327	0.500077
C25	C	0.778035	0.182098	0.000113
C26	C	1.278035	0.682098	0.500113
C27	C	0.906429	0.185559	0.000093
C28	C	1.406429	0.685559	0.500093
C29	C	1.348607	-0.049314	0.000113
C30	C	1.848607	0.450686	0.500113
C31	C	1.345210	-0.190931	0.000111
C32	C	1.845210	0.309069	0.500111
C33	C	1.235351	-0.258697	0.000092
C34	C	1.735351	0.241303	0.500092
C35	C	1.287240	-0.351000	0.100997
C36	C	1.787240	0.149000	0.600997
C37	C	1.287281	-0.350967	-0.100767
C38	C	1.787281	0.149033	0.399233
C39	C	1.397145	-0.281369	0.101099
C40	C	1.897145	0.218631	0.601099
C41	C	1.397170	-0.281327	-0.100755
C42	C	1.897170	0.218673	0.399245
C43	C	1.449140	-0.373603	0.000174
C44	C	1.949140	0.126397	0.500174
C45	C	1.549667	0.175960	0.000121
C46	C	2.049667	0.675960	0.500121
C47	C	1.675690	0.179348	0.000124
C48	C	2.175690	0.679348	0.500124
C49	C	1.335846	0.416989	0.000096
C50	C	1.835846	0.916989	0.500096
C51	C	1.339243	0.558607	0.000091
C52	C	1.839243	1.058607	0.500091
N53	N	1.342213	0.183825	0.318934
N54	N	1.842213	0.683825	0.818934
N55	N	1.342250	0.183840	-0.318722
N56	N	1.842250	0.683840	0.181278
C57	C	1.342230	0.183840	0.569940
C58	C	1.842230	0.683840	1.069940
C59	C	1.342217	0.183835	0.430263
C60	C	1.842217	0.683835	0.930263
H61	H	1.145025	-0.208738	0.000186
H62	H	1.645025	0.291262	0.500186
C63	C	1.402672	-0.275973	0.321863
C64	C	1.902672	0.224027	0.821863
C65	C	1.459834	-0.239982	0.216396
C66	C	1.959834	0.260018	0.716396
H67	H	1.441376	-0.250425	0.393041
H68	H	1.941376	0.249575	0.893041
H69	H	1.326967	-0.235592	0.321564
H70	H	1.826967	0.264408	0.821564
H71	H	1.400925	-0.366316	0.322519
H72	H	1.900925	0.133684	0.822519
H73	H	1.461573	-0.149637	0.215736
H74	H	1.961573	0.350363	0.715736
H75	H	1.535559	-0.280359	0.216696
H76	H	2.035559	0.219641	0.716696
C77	C	1.112542	-0.334111	0.215957
C78	C	1.612542	0.165889	0.715957
C79	C	1.224485	-0.392668	0.216146
C80	C	1.724485	0.107332	0.716146
H81	H	1.073796	-0.359839	0.287039
H82	H	1.573796	0.140161	0.787039
H83	H	1.113650	-0.243696	0.216413
H84	H	1.613650	0.256304	0.716413
H85	H	1.074258	-0.359107	0.144297
H86	H	1.574258	0.140893	0.644297
H87	H	1.262773	-0.367665	0.287802
H88	H	1.762773	0.132335	0.787802
H89	H	1.223384	-0.483103	0.215703
H90	H	1.723384	0.016897	0.715703
C91	C	1.628406	-0.405636	0.105997
C92	C	2.128406	0.094364	0.605997
C93	C	1.571179	-0.440756	0.000257
C94	C	2.071179	0.059244	0.500257
H95	H	1.703743	-0.447104	0.106053
H96	H	2.203743	0.052896	0.606053
H97	H	1.631218	-0.315456	0.106667
H98	H	2.131218	0.184544	0.606667
H99	H	1.589073	-0.430552	0.176982
H100	H	2.089073	0.069448	0.676982
H101	H	1.610508	-0.415832	-0.070728
H102	H	2.110508	0.084168	0.429272
H103	H	1.568373	-0.530956	-0.000425
H104	H	2.068373	-0.030956	0.499575
H105	H	1.443621	-0.250437	-0.186060
H106	H	1.943621	0.249563	0.313940
C107	C	1.112585	-0.333990	-0.215734
C108	C	1.612585	0.166010	0.284266
C109	C	1.224521	-0.392566	-0.215934
C110	C	1.724521	0.107434	0.284066
H111	H	1.073840	-0.359662	-0.286835
H112	H	1.573840	0.140338	0.213165
H113	H	1.074296	-0.359014	-0.144098
H114	H	1.574296	0.140986	0.355902
H115	H	1.113709	-0.243564	-0.216155
H116	H	1.613709	0.256436	0.283845
H117	H	1.223398	-0.482992	-0.215504
H118	H	1.723398	0.017008	0.284496
H119	H	1.262820	-0.367550	-0.287589
H120	H	1.762820	0.132450	0.212411
