data_functionalizedCrystal
_audit_creation_method	'MofGen! by Chris Wilmer'
_symmetry_space_group_name_H-M	'P1'
_symmetry_Int_Tables_number	1
_symmetry_cell_setting	triclinic
loop_
_symmetry_equiv_pos_as_xyz
  x,y,z
_cell_length_a	21.295418
_cell_length_b	21.295417
_cell_length_c	21.295411
_cell_angle_alpha	89.978356
_cell_angle_beta	90.043738
_cell_angle_gamma	89.953681
loop_
_atom_site_label
_atom_site_type_symbol
_atom_site_fract_x
_atom_site_fract_y
_atom_site_fract_z
Zn1	Zn	0.962356	0.250415	0.356234
Zn2	Zn	1.295689	0.583749	0.689567
Zn3	Zn	1.629022	0.917082	1.022900
Zn4	Zn	0.962258	0.355667	0.250959
Zn5	Zn	1.295592	0.689000	0.584292
Zn6	Zn	1.628925	1.022334	0.917626
Zn7	Zn	0.857079	0.250445	0.250943
Zn8	Zn	1.190412	0.583778	0.584277
Zn9	Zn	1.523746	0.917111	0.917610
Zn10	Zn	0.857048	0.355680	0.356155
Zn11	Zn	1.190382	0.689013	0.689489
Zn12	Zn	1.523715	1.022346	1.022822
O13	O	0.909685	0.303052	0.303573
O14	O	1.243019	0.636385	0.636906
O15	O	1.576352	0.969718	0.970240
O16	O	1.050432	0.264360	0.342308
O17	O	1.383766	0.597693	0.675641
O18	O	1.717099	0.931026	1.008975
O19	O	0.948278	0.341716	0.162867
O20	O	1.281611	0.675050	0.496201
O21	O	1.614945	1.008383	0.829534
O22	O	0.871098	0.162351	0.264937
O23	O	1.204431	0.495685	0.598270
O24	O	1.537764	0.829018	0.931603
O25	O	1.050361	0.341688	0.264963
O26	O	1.383694	0.675021	0.598296
O27	O	1.717027	1.008354	0.931630
O28	O	0.948444	0.162330	0.342293
O29	O	1.281778	0.495663	0.675626
O30	O	1.615111	0.828996	1.008960
O31	O	0.871003	0.264410	0.162856
O32	O	1.204337	0.597743	0.496189
O33	O	1.537670	0.931077	0.829523
O34	O	0.768985	0.264422	0.264861
O35	O	1.102319	0.597755	0.598194
O36	O	1.435652	0.931089	0.931527
O37	O	0.871046	0.341709	0.444255
O38	O	1.204379	0.675042	0.777589
O39	O	1.537712	1.008376	1.110922
O40	O	0.768963	0.341738	0.342160
O41	O	1.102296	0.675071	0.675493
O42	O	1.435630	1.008404	1.008826
O43	O	0.948415	0.264372	0.444313
O44	O	1.281748	0.597705	0.777646
O45	O	1.615081	0.931038	1.110979
O46	O	0.948248	0.443758	0.264887
O47	O	1.281582	0.777091	0.598221
O48	O	1.614915	1.110425	0.931554
O49	O	0.870951	0.443767	0.342175
O50	O	1.204284	0.777101	0.675508
O51	O	1.537618	1.110434	1.008841
C52	C	0.746134	0.303085	0.303500
C53	C	1.079467	0.636418	0.636834
C54	C	1.412800	0.969751	0.970167
C55	C	0.676166	0.303114	0.303484
C56	C	1.009499	0.636447	0.636818
C57	C	1.342832	0.969781	0.970151
C58	C	0.909603	0.466603	0.303538
C59	C	1.242936	0.799937	0.636871
C60	C	1.576269	1.133270	0.970205
C61	C	0.909625	0.536571	0.303544
C62	C	1.242958	0.869905	0.636877
C63	C	1.576292	1.203238	0.970211
C64	C	0.643304	0.343426	0.343674
C65	C	0.976637	0.676759	0.677007
C66	C	1.309970	1.010092	1.010340
C67	C	0.577561	0.343410	0.343702
C68	C	0.910894	0.676743	0.677035
C69	C	1.244228	1.010077	1.010369
C70	C	0.544683	0.303090	0.303530
C71	C	0.878016	0.636423	0.636863
C72	C	1.211350	0.969756	0.970196
C73	C	0.577553	0.262770	0.263337
C74	C	0.910886	0.596104	0.596671
C75	C	1.244220	0.929437	0.930004
C76	C	0.643294	0.262783	0.263315
C77	C	0.976627	0.596116	0.596648
C78	C	1.309961	0.929449	0.929982
N79	N	0.441407	0.298163	0.248472
N80	N	0.774740	0.631496	0.581805
N81	N	1.108074	0.964829	0.915139
N82	N	0.378956	0.298155	0.248495
N83	N	0.712289	0.631488	0.581829
N84	N	1.045622	0.964821	0.915162
C85	C	0.346608	0.303050	0.303596
C86	C	0.679942	0.636383	0.636930
C87	C	1.013275	0.969716	0.970263
N88	N	0.379072	0.307965	0.358675
N89	N	0.712405	0.641298	0.692008
N90	N	1.045739	0.974632	1.025341
N91	N	0.441529	0.307976	0.358650
N92	N	0.774862	0.641309	0.691984
N93	N	1.108196	0.974643	1.025317
C94	C	0.473398	0.303072	0.303550
C95	C	0.806731	0.636405	0.636883
C96	C	1.140064	0.969738	0.970217
C97	C	0.242461	0.343346	0.343820
C98	C	0.575794	0.676680	0.677153
C99	C	0.909128	1.010013	1.010486
C100	C	0.176717	0.343326	0.343849
C101	C	0.510051	0.676660	0.677182
C102	C	0.843384	1.009993	1.010516
C103	C	0.176710	0.262690	0.263479
C104	C	0.510044	0.596023	0.596812
C105	C	0.843377	0.929357	0.930146
C106	C	0.242453	0.262707	0.263455
C107	C	0.575786	0.596040	0.596789
C108	C	0.909119	0.929373	0.930122
C109	C	0.275324	0.303038	0.303625
C110	C	0.608657	0.636372	0.636958
C111	C	0.941991	0.969705	0.970291
C112	C	0.909738	0.303038	0.467763
C113	C	1.243071	0.636372	0.801097
C114	C	1.576404	0.969705	1.134430
C115	C	0.909760	0.303033	0.537731
C116	C	1.243093	0.636366	0.871065
C117	C	1.576427	0.969699	1.204398
C118	C	1.073876	0.303019	0.303646
C119	C	1.407209	0.636352	0.636979
C120	C	1.740542	0.969686	0.970313
C121	C	1.143844	0.303005	0.303677
C122	C	1.477177	0.636338	0.637010
C123	C	1.810510	0.969672	0.970344
C124	C	0.909785	0.138861	0.303622
C125	C	1.243119	0.472195	0.636955
C126	C	1.576452	0.805528	0.970288
C127	C	0.909828	0.068893	0.303642
C128	C	1.243161	0.402227	0.636976
C129	C	1.576495	0.735560	0.970309
C130	C	0.949910	0.569412	0.263342
C131	C	1.283243	0.902746	0.596675
C132	C	1.616576	1.236079	0.930009
C133	C	0.949939	0.635155	0.263356
C134	C	1.283272	0.968488	0.596689
C135	C	1.616606	1.301822	0.930023
C136	C	0.909673	0.668054	0.303566
C137	C	1.243006	1.001387	0.636899
C138	C	1.576340	1.334721	0.970233
C139	C	0.869386	0.635205	0.343776
C140	C	1.202719	0.968538	0.677109
C141	C	1.536052	1.301872	1.010443
C142	C	0.869362	0.569464	0.343765
C143	C	1.202695	0.902797	0.677098
C144	C	1.536028	1.236130	1.010432
N145	N	0.854606	0.771336	0.308340
N146	N	1.187939	1.104669	0.641674
N147	N	1.521272	1.438002	0.975007
N148	N	0.854630	0.833787	0.308347
N149	N	1.187964	1.167120	0.641680
N150	N	1.521297	1.500454	0.975014
C151	C	0.909743	0.866129	0.303602
C152	C	1.243077	1.199462	0.636935
C153	C	1.576410	1.532795	0.970269
N154	N	0.964832	0.833659	0.298838
N155	N	1.298166	1.166993	0.632171
N156	N	1.631499	1.500326	0.965504
N157	N	0.964807	0.771202	0.298828
N158	N	1.298140	1.104535	0.632161
N159	N	1.631474	1.437869	0.965494
C160	C	0.909695	0.739339	0.303582
C161	C	1.243028	1.072673	0.636916
C162	C	1.576361	1.406006	0.970249
C163	C	0.950063	0.970255	0.263413
C164	C	1.283397	1.303588	0.596746
C165	C	1.616730	1.636922	0.930080
C166	C	0.950094	1.035999	0.263431
C167	C	1.283427	1.369332	0.596765
C168	C	1.616760	1.702665	0.930098
C169	C	0.869535	1.036048	0.343848
C170	C	1.202868	1.369381	0.677181
C171	C	1.536201	1.702714	1.010515
C172	C	0.869510	0.970305	0.343833
C173	C	1.202843	1.303638	0.677166
C174	C	1.536176	1.636972	1.010500
C175	C	0.909773	0.937413	0.303612
C176	C	1.243106	1.270746	0.636945
C177	C	1.576440	1.604079	0.970279
C178	C	0.909670	0.303019	0.140021
C179	C	1.243003	0.636353	0.473355
C180	C	1.576336	0.969686	0.806688
C181	C	0.909769	0.302848	0.070054
C182	C	1.243103	0.636181	0.403387
C183	C	1.576436	0.969514	0.736720
C184	C	0.950044	0.262761	0.570629
C185	C	1.283377	0.596095	0.903962
C186	C	1.616711	0.929428	1.237296
C187	C	0.950043	0.262734	0.636371
C188	C	1.283377	0.596067	0.969705
C189	C	1.616710	0.929401	1.303038
C190	C	0.909765	0.302989	0.669214
C191	C	1.243098	0.636323	1.002547
C192	C	1.576431	0.969656	1.335881
C193	C	0.869473	0.343263	0.636308
C194	C	1.202806	0.676597	0.969642
C195	C	1.536139	1.009930	1.302975
C196	C	0.869470	0.343285	0.570567
C197	C	1.202804	0.676618	0.903900
C198	C	1.536137	1.009952	1.237234
N199	N	0.904908	0.358058	0.772428
N200	N	1.238241	0.691392	1.105761
N201	N	1.571575	1.024725	1.439094
N202	N	0.904914	0.358036	0.834879
N203	N	1.238247	0.691369	1.168213
N204	N	1.571581	1.024703	1.501546
C205	C	0.909769	0.302926	0.867289
C206	C	1.243102	0.636259	1.200622
C207	C	1.576435	0.969592	1.533955
N208	N	0.914629	0.247837	0.834888
N209	N	1.247963	0.581170	1.168221
N210	N	1.581296	0.914504	1.501554
N211	N	0.914627	0.247860	0.772430
N212	N	1.247960	0.581193	1.105764
N213	N	1.581293	0.914527	1.439097
C214	C	0.909763	0.302970	0.740499
C215	C	1.243096	0.636303	1.073833
C216	C	1.576429	0.969637	1.407166
C217	C	0.950054	0.262621	0.971472
C218	C	1.283388	0.595955	1.304805
C219	C	1.616721	0.929288	1.638139
C220	C	0.950049	0.262593	1.037216
C221	C	1.283382	0.595926	1.370549
C222	C	1.616716	0.929260	1.703882
C223	C	0.869482	0.343128	1.037151
C224	C	1.202815	0.676461	1.370485
C225	C	1.536148	1.009795	1.703818
C226	C	0.869484	0.343151	0.971409
C227	C	1.202817	0.676484	1.304742
C228	C	1.536150	1.009817	1.638076
C229	C	0.909773	0.302898	0.938573
C230	C	1.243107	0.636231	1.271906
C231	C	1.576440	0.969565	1.605240
H232	H	0.670063	0.376266	0.376384
H233	H	1.003397	0.709599	0.709717
H234	H	1.336730	1.042932	1.043050
H235	H	0.982902	1.062737	0.230695
H236	H	1.316235	1.396070	0.564029
H237	H	1.649569	1.729403	0.897362
N238	N	0.828411	1.069655	0.384922
N239	N	1.161744	1.402988	0.718255
N240	N	1.495078	1.736321	1.051589
N241	N	0.828438	1.128351	0.384929
N242	N	1.161772	1.461685	0.718262
N243	N	1.495105	1.795018	1.051596
H244	H	0.799395	1.152090	0.413940
H245	H	1.132728	1.485423	0.747273
H246	H	1.466062	1.818757	1.080606
N247	N	0.991081	0.668704	0.222274
N248	N	1.324415	1.002037	0.555607
N249	N	1.657748	1.335370	0.888940
N250	N	0.986918	0.661396	0.164182
N251	N	1.320251	0.994729	0.497516
N252	N	1.653584	1.328063	0.830849
H253	H	1.015971	0.685089	0.135165
H254	H	1.349305	1.018422	0.468498
H255	H	1.682638	1.351755	0.801832
N256	N	0.828346	0.384299	0.937799
N257	N	1.161680	0.717632	1.271133
N258	N	1.495013	1.050966	1.604466
N259	N	0.850469	0.424420	0.901129
N260	N	1.183802	0.757753	1.234462
N261	N	1.517135	1.091086	1.567796
H262	H	0.821413	0.453481	0.877391
H263	H	1.154746	0.786814	1.210725
H264	H	1.488079	1.120148	1.544058
N265	N	0.543994	0.384592	0.384761
N266	N	0.877327	0.717925	0.718095
N267	N	1.210661	1.051259	1.051428
N268	N	0.573351	0.420596	0.420624
N269	N	0.906684	0.753929	0.753957
N270	N	1.240018	1.087263	1.087291
H271	H	0.549646	0.449682	0.449622
H272	H	0.882980	0.783015	0.782955
H273	H	1.216313	1.116349	1.116289
H274	H	0.149942	0.229857	0.230773
H275	H	0.483275	0.563191	0.564106
H276	H	0.816608	0.896524	0.897440
N277	N	0.828332	0.384389	0.669849
N278	N	1.161665	0.717723	1.003183
N279	N	1.494999	1.051056	1.336516
N280	N	0.832464	0.442477	0.662506
N281	N	1.165798	0.775811	0.995840
N282	N	1.499131	1.109144	1.329173
H283	H	0.803404	0.471522	0.686193
H284	H	1.136737	0.804855	1.019526
H285	H	1.470070	1.138189	1.352859
H286	H	0.550779	0.229940	0.230630
H287	H	0.884113	0.563273	0.563963
H288	H	1.217446	0.896607	0.897297
N289	N	0.991207	0.221607	0.669983
N290	N	1.324541	0.554941	1.003316
N291	N	1.657874	0.888274	1.336649
N292	N	1.031307	0.243744	0.706691
N293	N	1.364640	0.577078	1.040025
N294	N	1.697974	0.910411	1.373358
H295	H	1.060381	0.214700	0.730428
H296	H	1.393714	0.548033	1.063761
H297	H	1.727048	0.881366	1.397094
H298	H	0.269209	0.229884	0.230726
H299	H	0.602543	0.563217	0.564059
H300	H	0.935876	0.896550	0.897392
H301	H	0.982857	0.229842	0.944736
H302	H	1.316190	0.563175	1.278069
H303	H	1.649524	0.896508	1.611402
H304	H	0.670050	0.229954	0.230588
H305	H	1.003383	0.563287	0.563921
H306	H	1.336717	0.896621	0.897254
N307	N	0.276033	0.384546	0.384853
N308	N	0.609367	0.717879	0.718187
N309	N	0.942700	1.051213	1.051520
N310	N	0.246681	0.420534	0.420739
N311	N	0.580014	0.753867	0.754072
N312	N	0.913347	1.087200	1.087405
H313	H	0.270389	0.449632	0.449719
H314	H	0.603722	0.782965	0.783052
H315	H	0.937056	1.116299	1.116386
H316	H	0.982852	0.229795	1.064000
H317	H	1.316186	0.563129	1.397333
H318	H	1.649519	0.896462	1.730666
N319	N	0.143157	0.384504	0.384914
N320	N	0.476490	0.717838	0.718247
N321	N	0.809824	1.051171	1.051581
N322	N	0.172518	0.420507	0.420775
N323	N	0.505851	0.753840	0.754108
N324	N	0.839184	1.087174	1.087442
H325	H	0.148816	0.449590	0.449779
H326	H	0.482149	0.782923	0.783112
H327	H	0.815482	1.116256	1.116445
N328	N	0.828335	0.384238	1.070701
N329	N	1.161669	0.717572	1.404034
N330	N	1.495002	1.050905	1.737367
N331	N	0.828339	0.384211	1.129398
N332	N	1.161672	0.717545	1.462731
N333	N	1.495006	1.050878	1.796064
H334	H	0.799276	0.413245	1.153095
H335	H	1.132609	0.746578	1.486429
H336	H	1.465943	1.079911	1.819762
H337	H	0.982696	0.542633	0.230593
H338	H	1.316029	0.875967	0.563927
H339	H	1.649363	1.209300	0.897260
H340	H	0.836704	0.943564	0.376567
H341	H	1.170037	1.276898	0.709900
H342	H	1.503370	1.610231	1.043233
N343	N	0.828262	0.668817	0.384849
N344	N	1.161596	1.002150	0.718183
N345	N	1.494929	1.335484	1.051516
N346	N	0.828288	0.727514	0.384853
N347	N	1.161622	1.060847	0.718187
N348	N	1.494955	1.394181	1.051520
H349	H	0.799246	0.751253	0.413865
H350	H	1.132579	1.084586	0.747198
H351	H	1.465912	1.417920	1.080532
N352	N	0.828208	0.535924	0.384839
N353	N	1.161541	0.869257	0.718172
N354	N	1.494875	1.202591	1.051505
N355	N	0.792262	0.565302	0.420743
N356	N	1.125596	0.898635	0.754076
N357	N	1.458929	1.231968	1.087410
H358	H	0.763196	0.541614	0.449752
H359	H	1.096529	0.874947	0.783085
H360	H	1.429863	1.208280	1.116419
N361	N	0.991193	0.936661	0.222327
N362	N	1.324526	1.269995	0.555660
N363	N	1.657860	1.603328	0.888994
N364	N	1.027164	0.965995	0.186437
N365	N	1.360497	1.299328	0.519770
N366	N	1.693830	1.632662	0.853104
H367	H	1.056212	0.942272	0.157419
H368	H	1.389546	1.275605	0.490752
H369	H	1.722879	1.608938	0.824085
H370	H	0.982850	0.229984	0.543898
H371	H	1.316184	0.563317	0.877231
H372	H	1.649517	0.896651	1.210565
H373	H	0.836663	0.376078	0.543782
H374	H	1.169996	0.709411	0.877116
H375	H	1.503330	1.042745	1.210449
