data_functionalizedCrystal
_audit_creation_method	'MofGen! by Chris Wilmer'
_symmetry_space_group_name_H-M	'P1'
_symmetry_Int_Tables_number	1
_symmetry_cell_setting	triclinic
loop_
_symmetry_equiv_pos_as_xyz
  x,y,z
_cell_length_a	19.188905
_cell_length_b	19.188925
_cell_length_c	9.616153
_cell_angle_alpha	89.998086
_cell_angle_beta	89.986020
_cell_angle_gamma	83.138552
loop_
_atom_site_label
_atom_site_type_symbol
_atom_site_fract_x
_atom_site_fract_y
_atom_site_fract_z
O1	O	0.926157	0.087082	-0.115874
O2	O	1.426157	0.587082	0.384126
O3	O	0.722843	0.098834	-0.115826
O4	O	1.222843	0.598834	0.384174
O5	O	0.830369	-0.008698	-0.115843
O6	O	1.330369	0.491302	0.384157
O7	O	0.818631	0.194614	-0.115856
O8	O	1.318631	0.694614	0.384144
O9	O	0.830354	-0.008696	0.115448
O10	O	1.330354	0.491304	0.615448
O11	O	0.722828	0.098837	0.115465
O12	O	1.222828	0.598837	0.615465
O13	O	0.926142	0.087084	0.115418
O14	O	1.426142	0.587084	0.615418
Zn15	Zn	0.824483	0.092961	0.152164
Zn16	Zn	1.324483	0.592961	0.652164
Zn17	Zn	0.824502	0.092958	-0.152572
Zn18	Zn	1.324502	0.592958	0.347428
O19	O	0.818616	0.194617	0.115435
O20	O	1.318616	0.694617	0.615435
C21	C	0.696824	0.098458	-0.000174
C22	C	1.196824	0.598458	0.499826
C23	C	0.619319	0.097324	-0.000156
C24	C	1.119319	0.597324	0.499844
C25	C	0.582935	0.096778	-0.126236
C26	C	1.082935	0.596778	0.373764
C27	C	0.510112	0.095705	-0.126254
C28	C	1.010112	0.595705	0.373746
C29	C	0.473676	0.095164	-0.000183
C30	C	0.973676	0.595164	0.499817
C31	C	0.510068	0.095714	0.125914
C32	C	1.010068	0.595714	0.625914
C33	C	0.582890	0.096794	0.125928
C34	C	1.082890	0.596794	0.625928
N35	N	0.364651	0.053736	0.093642
N36	N	0.864651	0.553736	0.593642
N37	N	0.295474	0.052709	0.093620
N38	N	0.795474	0.552709	0.593620
C39	C	0.254270	0.091911	-0.000217
C40	C	0.754270	0.591911	0.499783
N41	N	0.284857	0.132172	-0.094052
N42	N	0.784857	0.632172	0.405948
N43	N	0.354041	0.133196	-0.094034
N44	N	0.854041	0.633196	0.405966
C45	C	0.394714	0.093993	-0.000184
C46	C	0.894714	0.593993	0.499816
C47	C	0.138922	0.090203	-0.126324
C48	C	0.638922	0.590203	0.373676
C49	C	0.066097	0.089134	-0.126336
C50	C	0.566097	0.589134	0.373664
C51	C	0.066056	0.089136	0.125835
C52	C	0.566056	0.589136	0.625835
C53	C	0.138879	0.090212	0.125843
C54	C	0.638879	0.590212	0.625843
C55	C	0.175308	0.090742	-0.000240
C56	C	0.675308	0.590742	0.499760
C57	C	0.829982	-0.034708	-0.000199
C58	C	1.329982	0.465292	0.499801
C59	C	0.828843	-0.112213	-0.000201
C60	C	1.328843	0.387787	0.499799
C61	C	0.884308	-0.673988	-0.000249
C62	C	1.384308	-0.173988	0.499751
C63	C	0.885384	-0.601165	-0.000237
C64	C	1.385384	-0.101165	0.499763
C65	C	0.822291	-0.556225	-0.000223
C66	C	1.322291	-0.056225	0.499777
C67	C	0.758117	-0.584113	-0.000185
C68	C	1.258117	-0.084113	0.499815
C69	C	0.757043	-0.656935	-0.000183
C70	C	1.257043	-0.156935	0.499817
N71	N	0.776620	-0.435541	-0.078937
N72	N	1.276620	0.064459	0.421063
N73	N	0.777645	-0.366364	-0.078942
N74	N	1.277645	0.133636	0.421058
C75	C	0.825525	-0.336816	-0.000224
C76	C	1.325525	0.163184	0.499776
N77	N	0.872353	-0.379060	0.078481
N78	N	1.372353	0.120940	0.578481
N79	N	0.871330	-0.448244	0.078479
N80	N	1.371330	0.051756	0.578479
C81	C	0.823450	-0.477261	-0.000223
C82	C	1.323450	0.022739	0.499777
C83	C	0.890863	-0.229973	-0.000239
C84	C	1.390863	0.270027	0.499761
C85	C	0.891937	-0.157148	-0.000218
C86	C	1.391937	0.342852	0.499782
C87	C	0.764668	-0.140097	-0.000180
C88	C	1.264668	0.359903	0.499820
C89	C	0.763596	-0.212921	-0.000187
C90	C	1.263596	0.287079	0.499813
C91	C	0.826695	-0.257855	-0.000223
C92	C	1.326695	0.242145	0.499777
C93	C	0.952161	0.087461	-0.000237
C94	C	1.452161	0.587461	0.499763
C95	C	1.029666	0.088594	-0.000265
C96	C	1.529666	0.588594	0.499735
C97	C	0.819003	0.220627	-0.000213
C98	C	1.319003	0.720627	0.499787
C99	C	0.820142	0.298131	-0.000219
C100	C	1.320142	0.798131	0.499781
N101	N	0.824475	0.092962	0.360139
N102	N	1.324475	0.592962	0.860139
N103	N	0.824516	0.092950	-0.360547
N104	N	1.324516	0.592950	0.139453
C105	C	0.766784	0.150297	0.580518
C106	C	1.266784	0.650297	1.080518
C107	C	0.766907	0.150507	0.419350
C108	C	1.266907	0.650507	0.919350
C109	C	0.897280	0.108646	0.418569
C110	C	1.397280	0.608646	0.918569
C111	C	0.896965	0.109051	0.579787
C112	C	1.396965	0.609051	1.079787
C113	C	0.810089	0.019750	0.580059
C114	C	1.310089	0.519750	1.080059
C115	C	0.808408	0.020246	0.418833
C116	C	1.308408	0.520246	0.918833
H117	H	0.480398	0.095275	0.228562
H118	H	0.980398	0.595275	0.728562
C119	C	0.956689	0.053719	0.366751
C120	C	1.456689	0.553719	0.866751
H121	H	1.000236	0.064194	0.403316
H122	H	1.500236	0.564194	0.903316
H123	H	0.958349	0.054702	0.268048
H124	H	1.458349	0.554702	0.768048
H125	H	0.948137	0.008372	0.396947
H126	H	1.448137	0.508372	0.896947
C127	C	0.178904	0.090803	0.264534
C128	C	0.678904	0.590803	0.764534
H129	H	0.146778	0.090322	0.339617
H130	H	0.646778	0.590322	0.839617
H131	H	0.201855	0.131930	0.269780
H132	H	0.701855	0.631930	0.769780
H133	H	0.212767	0.050512	0.269779
H134	H	0.712767	0.550512	0.769779
C135	C	0.914175	0.181161	0.630564
C136	C	1.414175	0.681161	1.130564
H137	H	0.921290	0.209933	0.552663
H138	H	1.421290	0.709933	1.052663
H139	H	0.955579	0.175148	0.685544
H140	H	1.455579	0.675148	1.185544
H141	H	0.876261	0.202897	0.684790
H142	H	1.376261	0.702897	1.184790
H143	H	0.711345	-0.235621	-0.000172
H144	H	1.211345	0.264379	0.499828
H145	H	0.612591	0.097210	-0.228904
H146	H	1.112591	0.597210	0.271096
C147	C	0.026075	0.088530	-0.265032
C148	C	0.526075	0.588530	0.234968
H149	H	0.058204	0.088993	-0.340115
H150	H	0.558204	0.588993	0.159885
H151	H	-0.007789	0.128815	-0.270297
H152	H	0.492211	0.628815	0.229703
H153	H	0.003127	0.047397	-0.270262
H154	H	0.503127	0.547397	0.229738
H155	H	0.706747	-0.547518	-0.000169
H156	H	1.206747	-0.047518	0.499831
C157	C	0.955969	-0.570488	-0.000278
C158	C	1.455969	-0.070488	0.499722
H159	H	0.993394	-0.607679	-0.000306
H160	H	1.493394	-0.107679	0.499694
H161	H	0.959034	-0.542433	0.080373
H162	H	1.459034	-0.042433	0.580373
H163	H	0.959029	-0.542436	-0.080950
H164	H	1.459029	-0.042436	0.419050
H165	H	0.704790	-0.679634	-0.000156
H166	H	1.204790	-0.179634	0.499844
H167	H	0.944190	-0.134450	-0.000233
H168	H	1.444190	0.365550	0.499767
C169	C	0.779318	0.223896	0.367213
C170	C	1.279318	0.723896	0.867213
H171	H	0.784312	0.253695	0.444564
H172	H	1.284312	0.753695	0.944564
H173	H	0.740482	0.242987	0.312397
H174	H	1.240482	0.742987	0.812397
H175	H	0.820832	0.220282	0.312530
H176	H	1.320832	0.720282	0.812530
C177	C	0.736060	0.004157	0.367256
C178	C	1.236060	0.504157	0.867256
H179	H	0.715727	0.041592	0.310182
H180	H	1.215727	0.541592	0.810182
H181	H	0.706380	-0.000896	0.444773
H182	H	1.206380	0.499104	0.944773
H183	H	0.741441	-0.038149	0.314963
H184	H	1.241441	0.461851	0.814963
H185	H	0.942242	-0.266560	-0.000267
H186	H	1.442242	0.233440	0.499733
H187	H	0.712783	0.141196	0.379849
H188	H	1.212783	0.641196	0.879849
C189	C	0.866957	-0.037902	0.631551
C190	C	1.366957	0.462098	1.131551
H191	H	0.857961	-0.082011	0.595313
H192	H	1.357961	0.417989	1.095313
H193	H	0.866283	-0.039492	0.730271
H194	H	1.366283	0.460508	1.230271
H195	H	0.911713	-0.027772	0.600814
H196	H	1.411713	0.472228	1.100814
H197	H	0.935689	-0.710569	-0.000271
H198	H	1.435689	-0.210569	0.499729
C199	C	0.695267	-0.090672	-0.000171
C200	C	1.195267	0.409328	0.499829
H201	H	0.705095	-0.043308	-0.000186
H202	H	1.205095	0.456692	0.499814
H203	H	0.668938	-0.099103	0.080489
H204	H	1.168938	0.400897	0.580489
H205	H	0.668953	-0.099104	-0.080834
H206	H	1.168953	0.400896	0.419166
H207	H	0.712488	0.141141	0.619343
H208	H	1.212488	0.641141	1.119343
H209	H	0.036390	0.088700	0.228484
H210	H	0.536390	0.588700	0.728484
H211	H	0.775845	0.204317	0.621010
H212	H	1.275845	0.704317	1.121010
C213	C	0.178996	0.090799	-0.265007
C214	C	0.678996	0.590799	0.234993
H215	H	0.146892	0.090332	-0.340102
H216	H	0.646892	0.590332	0.159898
H217	H	0.212861	0.050514	-0.270251
H218	H	0.712861	0.550514	0.229749
H219	H	0.201946	0.131932	-0.270236
H220	H	0.701946	0.631932	0.229764
H221	H	0.847738	-0.024409	0.378532
H222	H	1.347738	0.475591	0.878532
H223	H	0.480482	0.095262	-0.228927
H224	H	0.980482	0.595262	0.271073
H225	H	0.612513	0.097239	0.228601
H226	H	1.112513	0.597239	0.728601
H227	H	0.941254	0.068918	0.618768
H228	H	1.441254	0.568918	1.118768
C229	C	0.739937	-0.000694	0.635053
C230	C	1.239937	0.499306	1.135053
H231	H	0.732236	-0.045020	0.597966
H232	H	1.232236	0.454980	1.097966
H233	H	0.702783	0.033721	0.607465
H234	H	1.202783	0.533721	1.107465
H235	H	0.741518	-0.003402	0.733667
H236	H	1.241518	0.496598	1.233667
H237	H	0.910333	0.161416	0.378172
H238	H	1.410333	0.661416	0.878172
