data_functionalizedCrystal
_audit_creation_method	'MofGen! by Chris Wilmer'
_symmetry_space_group_name_H-M	'P1'
_symmetry_Int_Tables_number	1
_symmetry_cell_setting	triclinic
loop_
_symmetry_equiv_pos_as_xyz
  x,y,z
_cell_length_a	18.215407
_cell_length_b	18.050590
_cell_length_c	18.215407
_cell_angle_alpha	90.013001
_cell_angle_beta	90.007771
_cell_angle_gamma	90.015996
loop_
_atom_site_label
_atom_site_type_symbol
_atom_site_fract_x
_atom_site_fract_y
_atom_site_fract_z
Zn1	Zn	1.125035	-0.295833	0.416063
Zn2	Zn	1.625035	0.204167	0.916063
Zn3	Zn	1.124977	-0.419994	0.292995
Zn4	Zn	1.624977	0.080006	0.792995
Zn5	Zn	1.001988	-0.295817	0.293016
Zn6	Zn	1.501988	0.204183	0.793016
Zn7	Zn	1.001947	-0.419980	0.416025
Zn8	Zn	1.501947	0.080020	0.916025
O9	O	1.063487	-0.357906	0.354525
O10	O	1.563487	0.142094	0.854525
O11	O	1.228011	-0.312316	0.399745
O12	O	1.728011	0.187684	0.899745
O13	O	1.108656	-0.403520	0.190014
O14	O	1.608656	0.096480	0.690014
O15	O	1.018351	-0.191894	0.309363
O16	O	1.518351	0.308106	0.809363
O17	O	1.227969	-0.403536	0.309328
O18	O	1.727969	0.096464	0.809328
O19	O	1.108753	-0.191906	0.399765
O20	O	1.608753	0.308094	0.899765
O21	O	1.018296	-0.312288	0.190029
O22	O	1.518296	0.187712	0.690029
O23	O	0.898998	-0.312275	0.309326
O24	O	1.398998	0.187725	0.809326
O25	O	1.018281	-0.403513	0.519015
O26	O	1.518281	0.096487	1.019015
O27	O	0.898968	-0.403497	0.399701
O28	O	1.398968	0.096503	0.899701
O29	O	1.108713	-0.312303	0.519042
O30	O	1.608713	0.187697	1.019042
O31	O	1.108616	-0.523917	0.309291
O32	O	1.608616	-0.023917	0.809291
O33	O	1.018226	-0.523907	0.399681
O34	O	1.518226	-0.023907	0.899681
C35	C	0.872280	-0.357883	0.354512
C36	C	1.372280	0.142117	0.854512
C37	C	0.790481	-0.357891	0.354524
C38	C	1.290481	0.142109	0.854524
C39	C	0.602308	-0.310491	0.401679
C40	C	1.102308	0.189509	0.901679
C41	C	0.525450	-0.310497	0.401681
C42	C	1.025450	0.189503	0.901681
C43	C	0.525417	-0.405342	0.307384
C44	C	1.025417	0.094658	0.807384
C45	C	0.602274	-0.405332	0.307378
C46	C	1.102274	0.094668	0.807378
C47	C	0.640718	-0.357907	0.354530
C48	C	1.140718	0.142093	0.854530
C49	C	0.487002	-0.357924	0.354538
C50	C	0.987002	0.142076	0.854538
C51	C	0.403668	-0.357931	0.354540
C52	C	0.903668	0.142069	0.854540
C53	C	0.724057	-0.357898	0.354527
C54	C	1.224057	0.142102	0.854527
C55	C	1.063430	-0.550858	0.354496
C56	C	1.563430	-0.050858	0.854496
C57	C	1.063473	-0.633404	0.354508
C58	C	1.563473	-0.133404	0.854508
C59	C	1.112729	-0.832833	0.305422
C60	C	1.612729	-0.332833	0.805422
C61	C	1.130695	-0.882185	0.372588
C62	C	1.630695	-0.382185	0.872588
C63	C	1.063515	-0.784534	0.354537
C64	C	1.563515	-0.284534	0.854537
C65	C	1.045624	-0.882264	0.287401
C66	C	1.545624	-0.382264	0.787401
C67	C	1.063557	-0.930519	0.354559
C68	C	1.563557	-0.430519	0.854559
C69	C	1.081515	-0.832799	0.421738
C70	C	1.581515	-0.332799	0.921738
C71	C	0.996413	-0.832874	0.336506
C72	C	1.496413	-0.332874	0.836506
C73	C	1.014353	-0.882203	0.403718
C74	C	1.514353	-0.382203	0.903718
C75	C	1.063493	-0.700436	0.354523
C76	C	1.563493	-0.200436	0.854523
C77	C	1.063579	-1.014616	0.354581
C78	C	1.563579	-0.514616	0.854581
C79	C	1.255439	-0.357929	0.354538
C80	C	1.755439	0.142071	0.854538
C81	C	1.337238	-0.357939	0.354544
C82	C	1.837238	0.142061	0.854544
C83	C	1.063499	-0.357908	0.546478
C84	C	1.563499	0.142092	1.046478
C85	C	1.063505	-0.357909	0.628277
C86	C	1.563505	0.142091	1.128277
C87	C	1.063563	-0.164200	0.354571
C88	C	1.563563	0.335800	0.854571
C89	C	1.063596	-0.081655	0.354590
C90	C	1.563596	0.418345	0.854590
C91	C	1.110578	-0.310423	0.816486
C92	C	1.610578	0.189577	1.316486
C93	C	1.110574	-0.310423	0.893345
C94	C	1.610574	0.189577	1.393345
C95	C	1.016407	-0.405405	0.893305
C96	C	1.516407	0.094595	1.393305
C97	C	1.016408	-0.405401	0.816448
C98	C	1.516408	0.094599	1.316448
C99	C	1.063498	-0.357911	0.778040
C100	C	1.563498	0.142089	1.278040
C101	C	1.063493	-0.357915	0.931756
C102	C	1.563493	0.142085	1.431756
C103	C	1.063488	-0.357915	1.015090
C104	C	1.563488	0.142085	1.515090
C105	C	1.063502	-0.357910	0.694701
C106	C	1.563502	0.142090	1.194701
C107	C	1.063474	-0.357920	1.163319
C108	C	1.563474	0.142080	1.663319
C109	C	1.063486	-0.357918	1.081520
C110	C	1.563486	0.142082	1.581520
H111	H	0.633548	-0.443944	0.268980
H112	H	1.133548	0.056056	0.768980
Br113	Br	1.182116	-0.796700	0.236264
Br114	Br	1.682116	-0.296700	0.736264
H115	H	1.187460	-0.903847	0.387854
H116	H	1.687460	-0.403847	0.887854
Br117	Br	1.106885	-0.796743	0.516410
Br118	Br	1.606885	-0.296743	1.016410
H119	H	1.030475	-0.903992	0.230616
H120	H	1.530475	-0.403992	0.730616
H121	H	0.972752	-0.903744	0.445311
H122	H	1.472752	-0.403744	0.945311
Br123	Br	1.174483	-0.245972	0.764364
Br124	Br	1.674483	0.254028	1.264364
H125	H	1.148910	-0.271752	0.924644
H126	H	1.648910	0.228248	1.424644
H127	H	0.939664	-0.811196	0.321220
H128	H	1.439664	-0.311196	0.821220
H129	H	0.494180	-0.271885	0.440073
H130	H	0.994180	0.228115	0.940073
Br131	Br	0.952506	-0.469855	0.945434
Br132	Br	1.452506	0.030145	1.445434
H133	H	0.978065	-0.444071	0.785144
H134	H	1.478065	0.055929	1.285144
Br135	Br	0.654480	-0.246127	0.465668
Br136	Br	1.154480	0.253873	0.965668
Br137	Br	0.473238	-0.469702	0.243397
Br138	Br	0.973238	0.030298	0.743397
