data_functionalizedCrystal
_audit_creation_method	'MofGen! by Chris Wilmer'
_symmetry_space_group_name_H-M	'P1'
_symmetry_Int_Tables_number	1
_symmetry_cell_setting	triclinic
loop_
_symmetry_equiv_pos_as_xyz
  x,y,z
_cell_length_a	19.805407
_cell_length_b	19.805405
_cell_length_c	19.805398
_cell_angle_alpha	90.025822
_cell_angle_beta	90.017356
_cell_angle_gamma	90.026712
loop_
_atom_site_label
_atom_site_type_symbol
_atom_site_fract_x
_atom_site_fract_y
_atom_site_fract_z
Zn1	Zn	-1.034705	0.269508	-0.382747
Zn2	Zn	-0.701371	0.602842	-0.049414
Zn3	Zn	-0.368038	0.936175	0.283920
Zn4	Zn	-1.034624	0.382693	-0.269559
Zn5	Zn	-0.701291	0.716027	0.063774
Zn6	Zn	-0.367958	1.049360	0.397108
Zn7	Zn	-0.921527	0.269522	-0.269569
Zn8	Zn	-0.588193	0.602855	0.063765
Zn9	Zn	-0.254860	0.936188	0.397098
Zn10	Zn	-0.921480	0.382659	-0.382703
Zn11	Zn	-0.588147	0.715992	-0.049369
Zn12	Zn	-0.254814	1.049325	0.283964
O13	O	-0.978084	0.326096	-0.326144
O14	O	-0.644751	0.659429	0.007189
O15	O	-0.311417	0.992762	0.340522
O16	O	-1.129411	0.284531	-0.367747
O17	O	-0.796077	0.617865	-0.034413
O18	O	-0.462744	0.951198	0.298920
O19	O	-1.019607	0.367701	-0.174844
O20	O	-0.686274	0.701034	0.158490
O21	O	-0.352941	1.034368	0.491823
O22	O	-0.936593	0.174803	-0.284605
O23	O	-0.603260	0.508137	0.048729
O24	O	-0.269926	0.841470	0.382062
O25	O	-1.129351	0.367688	-0.284588
O26	O	-0.796018	0.701021	0.048745
O27	O	-0.462685	1.034355	0.382079
O28	O	-1.019744	0.174793	-0.367756
O29	O	-0.686411	0.508127	-0.034423
O30	O	-0.353078	0.841460	0.298910
O31	O	-0.936515	0.284554	-0.174851
O32	O	-0.603182	0.617888	0.158483
O33	O	-0.269848	0.951221	0.491816
O34	O	-0.826804	0.284521	-0.284562
O35	O	-0.493471	0.617854	0.048772
O36	O	-0.160137	0.951187	0.382105
O37	O	-0.936514	0.367629	-0.477425
O38	O	-0.603181	0.700962	-0.144092
O39	O	-0.269847	1.034296	0.189241
O40	O	-0.826770	0.367642	-0.367681
O41	O	-0.493437	0.700975	-0.034347
O42	O	-0.160103	1.034309	0.298986
O43	O	-1.019699	0.284498	-0.477458
O44	O	-0.686366	0.617831	-0.144124
O45	O	-0.353033	0.951165	0.189209
O46	O	-1.019562	0.477405	-0.284545
O47	O	-0.686229	0.810739	0.048788
O48	O	-0.352896	1.144072	0.382122
O49	O	-0.936436	0.477380	-0.367671
O50	O	-0.603103	0.810713	-0.034338
O51	O	-0.269769	1.144047	0.298995
C52	C	-0.802228	0.326079	-0.326118
C53	C	-0.468895	0.659413	0.007215
C54	C	-0.135561	0.992746	0.340549
C55	C	-0.726996	0.326089	-0.326123
C56	C	-0.393663	0.659422	0.007211
C57	C	-0.060329	0.992756	0.340544
C58	C	-0.978004	0.501952	-0.326117
C59	C	-0.644670	0.835285	0.007216
C60	C	-0.311337	1.168618	0.340550
C61	C	-0.978031	0.577184	-0.326128
C62	C	-0.644698	0.910517	0.007205
C63	C	-0.311365	1.243850	0.340538
C64	C	-0.978111	0.326058	-0.502687
C65	C	-0.644777	0.659391	-0.169354
C66	C	-0.311444	0.992725	0.163980
C67	C	-0.978122	0.326042	-0.577919
C68	C	-0.644788	0.659375	-0.244586
C69	C	-0.311455	0.992709	0.088748
C70	C	-0.691652	0.369435	-0.369332
C71	C	-0.358318	0.702768	-0.035998
C72	C	-0.024985	1.036101	0.297335
C73	C	-0.620963	0.369435	-0.369339
C74	C	-0.287630	0.702768	-0.036006
C75	C	0.045703	1.036101	0.297327
C76	C	-0.585620	0.326092	-0.326134
C77	C	-0.252287	0.659425	0.007199
C78	C	0.081046	0.992758	0.340533
C79	C	-0.620970	0.282741	-0.282923
C80	C	-0.287636	0.616074	0.050410
C81	C	0.045697	0.949408	0.383744
C82	C	-0.691657	0.282738	-0.282919
C83	C	-0.358323	0.616072	0.050414
C84	C	-0.024990	0.949405	0.383747
C85	C	-0.335896	0.282751	-0.282938
C86	C	-0.002563	0.616084	0.050395
C87	C	0.330770	0.949418	0.383729
C88	C	-0.265204	0.282759	-0.282944
C89	C	0.068129	0.616092	0.050390
C90	C	0.401463	0.949425	0.383723
C91	C	-0.265203	0.369447	-0.369358
C92	C	0.068130	0.702781	-0.036025
C93	C	0.401464	1.036114	0.297308
C94	C	-0.335890	0.369445	-0.369354
C95	C	-0.002557	0.702778	-0.036021
C96	C	0.330777	1.036111	0.297312
C97	C	-0.371233	0.326092	-0.326146
C98	C	-0.037900	0.659425	0.007187
C99	C	0.295434	0.992758	0.340520
C100	C	-0.447881	0.326091	-0.326139
C101	C	-0.114548	0.659425	0.007194
C102	C	0.218785	0.992758	0.340527
C103	C	-0.508973	0.326095	-0.326137
C104	C	-0.175640	0.659428	0.007196
C105	C	0.157693	0.992762	0.340530
C106	C	-0.154627	0.326108	-0.326165
C107	C	0.178707	0.659441	0.007169
C108	C	0.512040	0.992774	0.340502
C109	C	-0.229859	0.326102	-0.326157
C110	C	0.103475	0.659435	0.007177
C111	C	0.436808	0.992768	0.340510
C112	C	-1.021357	0.612518	-0.282891
C113	C	-0.688023	0.945852	0.050443
C114	C	-0.354690	1.279185	0.383776
C115	C	-1.021384	0.683207	-0.282908
C116	C	-0.688050	1.016540	0.050425
C117	C	-0.354717	1.349874	0.383759
C118	C	-0.978082	0.718559	-0.326160
C119	C	-0.644748	1.051892	0.007174
C120	C	-0.311415	1.385226	0.340507
C121	C	-0.934755	0.683219	-0.369402
C122	C	-0.601421	1.016553	-0.036069
C123	C	-0.268088	1.349886	0.297265
C124	C	-0.934731	0.612532	-0.369388
C125	C	-0.601398	0.945865	-0.036054
C126	C	-0.268065	1.279199	0.297279
C127	C	-0.934848	0.968292	-0.369461
C128	C	-0.601515	1.301626	-0.036128
C129	C	-0.268181	1.634959	0.297206
C130	C	-0.934873	1.038985	-0.369471
C131	C	-0.601540	1.372318	-0.036137
C132	C	-0.268206	1.705651	0.297196
C133	C	-1.021500	1.038967	-0.282981
C134	C	-0.688167	1.372301	0.050352
C135	C	-0.354833	1.705634	0.383685
C136	C	-1.021477	0.968280	-0.282967
C137	C	-0.688144	1.301613	0.050366
C138	C	-0.354810	1.634947	0.383700
C139	C	-0.978153	0.932946	-0.326212
C140	C	-0.644819	1.266280	0.007122
C141	C	-0.311486	1.599613	0.340455
C142	C	-0.978125	0.856298	-0.326193
C143	C	-0.644791	1.189631	0.007140
C144	C	-0.311458	1.522965	0.340473
C145	C	-0.978106	0.795206	-0.326175
C146	C	-0.644772	1.128540	0.007158
C147	C	-0.311439	1.461873	0.340492
C148	C	-0.978177	1.149553	-0.326194
C149	C	-0.644844	1.482886	0.007139
C150	C	-0.311510	1.816219	0.340472
C151	C	-0.978202	1.074321	-0.326236
C152	C	-0.644869	1.407654	0.007097
C153	C	-0.311535	1.740987	0.340431
C154	C	-1.021518	0.282636	-1.039728
C155	C	-0.688185	0.615969	-0.706395
C156	C	-0.354851	0.949303	-0.373062
C157	C	-1.021507	0.282657	-0.969040
C158	C	-0.688174	0.615990	-0.635707
C159	C	-0.354841	0.949323	-0.302373
C160	C	-0.978191	0.325948	-0.933681
C161	C	-0.644858	0.659281	-0.600348
C162	C	-0.311525	0.992615	-0.267014
C163	C	-0.934888	0.369226	-0.969014
C164	C	-0.601554	0.702560	-0.635681
C165	C	-0.268221	1.035893	-0.302348
C166	C	-0.934902	0.369208	-1.039702
C167	C	-0.601569	0.702542	-0.706368
C168	C	-0.268235	1.035875	-0.373035
C169	C	-0.934829	0.369300	-0.683941
C170	C	-0.601495	0.702633	-0.350608
C171	C	-0.268162	1.035966	-0.017274
C172	C	-0.934816	0.369313	-0.613249
C173	C	-0.601483	0.702646	-0.279915
C174	C	-0.268150	1.035979	0.053418
C175	C	-1.021434	0.282748	-0.613279
C176	C	-0.688101	0.616081	-0.279946
C177	C	-0.354767	0.949414	0.053387
C178	C	-1.021449	0.282730	-0.683966
C179	C	-0.688115	0.616063	-0.350633
C180	C	-0.354782	0.949397	-0.017300
C181	C	-0.978148	0.326010	-0.719294
C182	C	-0.644815	0.659344	-0.385960
C183	C	-0.311481	0.992677	-0.052627
C184	C	-0.978161	0.325988	-0.795942
C185	C	-0.644827	0.659322	-0.462609
C186	C	-0.311494	0.992655	-0.129275
C187	C	-0.978174	0.325967	-0.857034
C188	C	-0.644841	0.659300	-0.523701
C189	C	-0.311508	0.992634	-0.190367
C190	C	-0.978096	0.326084	-0.150288
C191	C	-0.644763	0.659417	0.183045
C192	C	-0.311430	0.992751	0.516378
C193	C	-0.978216	0.325909	-0.075057
C194	C	-0.644883	0.659243	0.258277
C195	C	-0.311550	0.992576	0.591610
H196	H	-0.720423	0.404732	-0.404512
H197	H	-0.387090	0.738065	-0.071179
H198	H	-0.053756	1.071399	0.262154
C199	C	-0.374764	0.235066	-0.235403
C200	C	-0.041431	0.568399	0.097930
C201	C	0.291902	0.901733	0.431263
N202	N	-0.404042	0.199148	-0.199597
N203	N	-0.070709	0.532482	0.133737
N204	N	0.262624	0.865815	0.467070
C205	C	-0.887190	0.416903	-0.722792
C206	C	-0.553856	0.750236	-0.389458
C207	C	-0.220523	1.083569	-0.056125
N208	N	-0.851304	0.452758	-0.752056
N209	N	-0.517970	0.786091	-0.418723
N210	N	-0.184637	1.119424	-0.085390
C211	C	-0.887265	0.416811	-1.078562
C212	C	-0.553932	0.750144	-0.745229
C213	C	-0.220599	1.083478	-0.411896
N214	N	-0.851385	0.452668	-1.107831
N215	N	-0.518051	0.786001	-0.774498
N216	N	-0.184718	1.119335	-0.441165
C217	C	-0.887238	0.416846	-0.930117
C218	C	-0.553905	0.750179	-0.596784
C219	C	-0.220571	1.083513	-0.263450
N220	N	-0.851345	0.452712	-0.900820
N221	N	-0.518011	0.786045	-0.567487
N222	N	-0.184678	1.119378	-0.234154
H223	H	-1.056787	0.247379	-1.068513
H224	H	-0.723454	0.580712	-0.735179
H225	H	-0.390120	0.914045	-0.401846
C226	C	-0.226328	0.235071	-0.235417
C227	C	0.107005	0.568404	0.097916
C228	C	0.440338	0.901737	0.431249
N229	N	-0.197047	0.199153	-0.199623
N230	N	0.136286	0.532486	0.133710
N231	N	0.469620	0.865820	0.467044
H232	H	-1.056779	1.067745	-0.247772
H233	H	-0.723446	1.401078	0.085561
H234	H	-0.390113	1.734411	0.418894
H235	H	-1.056615	0.583739	-0.247667
H236	H	-0.723282	0.917073	0.085666
H237	H	-0.389948	1.250406	0.418999
C238	C	-0.582090	0.235062	-0.235398
C239	C	-0.248756	0.568395	0.097935
C240	C	0.084577	0.901728	0.431268
N241	N	-0.552806	0.199150	-0.199600
N242	N	-0.219473	0.532483	0.133733
N243	N	0.113861	0.865817	0.467067
C244	C	-0.887239	1.077871	-0.417057
C245	C	-0.553905	1.411204	-0.083723
C246	C	-0.220572	1.744537	0.249610
N247	N	-0.851363	1.107159	-0.452897
N248	N	-0.518029	1.440493	-0.119563
N249	N	-0.184696	1.773826	0.213770
H250	H	-0.364663	0.404741	-0.404534
H251	H	-0.031329	0.738074	-0.071201
H252	H	0.302004	1.071408	0.262132
H253	H	-0.720433	0.247438	-0.247737
H254	H	-0.387100	0.580771	0.085596
H255	H	-0.053766	0.914105	0.418929
C256	C	-1.069041	0.722072	-0.235339
C257	C	-0.735707	1.055405	0.097994
C258	C	-0.402374	1.388739	0.431328
N259	N	-1.104937	0.751345	-0.199507
N260	N	-0.771603	1.084678	0.133826
N261	N	-0.438270	1.418012	0.467160
H262	H	-0.899500	0.712009	-0.404621
H263	H	-0.566167	1.045342	-0.071288
H264	H	-0.232834	1.378675	0.262046
C265	C	-0.582088	0.417131	-0.416860
C266	C	-0.248755	0.750465	-0.083527
C267	C	0.084579	1.083798	0.249807
N268	N	-0.552807	0.453063	-0.452650
N269	N	-0.219474	0.786396	-0.119317
N270	N	0.113859	1.119730	0.214016
H271	H	-1.056735	0.939499	-0.247745
H272	H	-0.723402	1.272832	0.085588
H273	H	-0.390068	1.606165	0.418921
C274	C	-0.226319	0.417131	-0.416894
C275	C	0.107014	0.750465	-0.083561
C276	C	0.440347	1.083798	0.249772
N277	N	-0.197033	0.453046	-0.452697
N278	N	0.136300	0.786380	-0.119363
N279	N	0.469633	1.119713	0.213970
C280	C	-0.887224	0.929434	-0.417066
C281	C	-0.553891	1.262768	-0.083732
C282	C	-0.220558	1.596101	0.249601
N283	N	-0.851365	0.900164	-0.452937
N284	N	-0.518032	1.233498	-0.119604
N285	N	-0.184698	1.566831	0.213730
H286	H	-0.899453	0.583763	-0.404597
H287	H	-0.566119	0.917096	-0.071263
H288	H	-0.232786	1.250430	0.262070
H289	H	-1.056770	0.247421	-0.940279
H290	H	-0.723437	0.580754	-0.606945
H291	H	-0.390103	0.914087	-0.273612
H292	H	-1.056719	0.247475	-0.712752
H293	H	-0.723385	0.580809	-0.379419
H294	H	-0.390052	0.914142	-0.046086
C295	C	-1.069071	0.235143	-0.574413
C296	C	-0.735738	0.568476	-0.241080
C297	C	-0.402405	0.901809	0.092253
N298	N	-1.104950	0.199286	-0.545140
N299	N	-0.771616	0.532620	-0.211807
N300	N	-0.438283	0.865953	0.121526
C301	C	-0.887165	0.416941	-0.574355
C302	C	-0.553832	0.750275	-0.241022
C303	C	-0.220499	1.083608	0.092311
N304	N	-0.851276	0.452813	-0.545061
N305	N	-0.517943	0.786147	-0.211728
N306	N	-0.184609	1.119480	0.121606
