data_functionalizedCrystal
_audit_creation_method	'MofGen! by Chris Wilmer'
_symmetry_space_group_name_H-M	'P1'
_symmetry_Int_Tables_number	1
_symmetry_cell_setting	triclinic
loop_
_symmetry_equiv_pos_as_xyz
  x,y,z
_cell_length_a	11.892095
_cell_length_b	17.699083
_cell_length_c	17.699083
_cell_angle_alpha	83.283015
_cell_angle_beta	93.880337
_cell_angle_gamma	86.114923
loop_
_atom_site_label
_atom_site_type_symbol
_atom_site_fract_x
_atom_site_fract_y
_atom_site_fract_z
O1	O	0.093846	-1.008916	-0.090872
O2	O	0.593846	-0.508916	0.409128
O3	O	0.093884	-0.788539	-0.103322
O4	O	0.593884	-0.288539	0.396678
O5	O	0.093854	-0.904953	0.013092
O6	O	0.593854	-0.404953	0.513092
O7	O	0.093876	-0.892502	-0.207286
O8	O	0.593876	-0.392502	0.292714
O9	O	-0.094151	-0.895247	0.003400
O10	O	0.405849	-0.395247	0.503400
O11	O	-0.094121	-0.778833	-0.113014
O12	O	0.405879	-0.278833	0.386986
O13	O	-0.094159	-0.999210	-0.100563
O14	O	0.405841	-0.499210	0.399437
Zn15	Zn	-0.123990	-0.887480	-0.108327
Zn16	Zn	0.376010	-0.387480	0.391673
Zn17	Zn	0.123715	-0.900269	-0.095558
Zn18	Zn	0.623715	-0.400269	0.404442
O19	O	-0.094129	-0.882796	-0.216977
O20	O	0.405871	-0.382796	0.283023
C21	C	-0.000114	-0.755490	-0.107722
C22	C	0.499886	-0.255490	0.392278
C23	C	-0.000100	-0.671472	-0.106382
C24	C	0.499900	-0.171472	0.393618
C25	C	-0.000149	-0.899654	0.036443
C26	C	0.499851	-0.399654	0.536443
C27	C	-0.000149	-0.898315	0.120461
C28	C	0.499851	-0.398315	0.620461
N29	N	-0.293042	-0.878758	-0.117041
N30	N	0.206958	-0.378758	0.382959
C31	C	-0.529713	-0.969691	-0.026159
C32	C	-0.029713	-0.469691	0.473841
C33	C	-0.648053	-0.963600	-0.032256
C34	C	-0.148053	-0.463600	0.467744
C35	C	-0.648065	-0.860481	-0.135327
C36	C	-0.148065	-0.360481	0.364673
C37	C	-0.529725	-0.866572	-0.129230
C38	C	-0.029725	-0.366572	0.370770
C39	C	-0.470553	-0.921180	-0.074645
C40	C	0.029447	-0.421180	0.425355
C41	C	-0.352210	-0.927274	-0.068553
C42	C	0.147790	-0.427274	0.431447
C43	C	-0.352224	-0.824152	-0.171620
C44	C	0.147776	-0.324152	0.328380
C45	C	-0.470565	-0.818061	-0.177716
C46	C	0.029435	-0.318061	0.322284
N47	N	0.292767	-0.908997	-0.086838
N48	N	0.792767	-0.408997	0.413162
C49	C	-0.000158	-1.032260	-0.096164
C50	C	0.499842	-0.532260	0.403836
C51	C	-0.000165	-1.116277	-0.097503
C52	C	0.499835	-0.616277	0.402497
C53	C	-0.000094	-0.622852	-0.174715
C54	C	0.499906	-0.122852	0.325285
C55	C	-0.000109	-0.543907	-0.173454
C56	C	0.499891	-0.043907	0.326546
C57	C	-0.000122	-0.513586	-0.103858
C58	C	0.499878	-0.013586	0.396142
C59	C	-0.000132	-0.562213	-0.035520
C60	C	0.499868	-0.062213	0.464480
C61	C	-0.000125	-0.641155	-0.036783
C62	C	0.499875	-0.141155	0.463217
C63	C	-0.000160	-0.243848	-0.030426
C64	C	0.499840	0.256152	0.469574
C65	C	-0.000163	-0.164900	-0.029168
C66	C	0.499837	0.335100	0.470832
C67	C	-0.000144	-0.146601	-0.167097
C68	C	0.499856	0.353399	0.332903
C69	C	-0.000137	-0.225543	-0.168360
C70	C	0.499863	0.274457	0.331640
C71	C	-0.000153	-0.274162	-0.100023
C72	C	0.499847	0.225838	0.399977
C73	C	-0.000139	-0.359762	-0.101391
C74	C	0.499861	0.140238	0.398609
C75	C	-0.000128	-0.427988	-0.102488
C76	C	0.499872	0.072012	0.397512
C77	C	-0.000124	-0.888095	-0.240328
C78	C	0.499876	-0.388095	0.259672
C79	C	-0.000116	-0.889434	-0.324346
C80	C	0.499884	-0.389434	0.175654
C81	C	-0.000162	-0.966648	0.169081
C82	C	0.499838	-0.466648	0.669081
C83	C	-0.000152	-0.965386	0.248025
C84	C	0.499848	-0.465386	0.748025
C85	C	-0.000137	-0.895791	0.278347
C86	C	0.499863	-0.395791	0.778347
C87	C	-0.000120	-0.827453	0.229720
C88	C	0.499880	-0.327453	0.729720
C89	C	-0.000122	-0.828716	0.150778
C90	C	0.499878	-0.328716	0.650778
C91	C	-0.000110	-0.822358	0.548084
C92	C	0.499890	-0.322358	1.048084
C93	C	-0.000111	-0.821100	0.627032
C94	C	0.499889	-0.321100	1.127032
C95	C	-0.000140	-0.959029	0.645331
C96	C	0.499860	-0.459029	1.145331
C97	C	-0.000142	-0.960292	0.566389
C98	C	0.499858	-0.460292	1.066389
C99	C	-0.000119	-0.891955	0.517770
C100	C	0.499881	-0.391955	1.017770
C101	C	-0.000128	-0.893324	0.432170
C102	C	0.499872	-0.393324	0.932170
C103	C	-0.000136	-0.894420	0.363944
C104	C	0.499864	-0.394420	0.863944
H105	H	-0.304034	-0.971740	-0.024109
H106	H	0.195966	-0.471740	0.475891
H107	H	-0.481534	-1.014160	0.018281
H108	H	0.018466	-0.514160	0.518281
N109	N	-0.711884	-0.801589	-0.194203
N110	N	-0.211884	-0.301589	0.305797
H111	H	-0.691297	-0.748950	-0.184501
H112	H	-0.191297	-0.248950	0.315499
H113	H	-0.795810	-0.805155	-0.190682
H114	H	-0.295810	-0.305155	0.309318
H115	H	-0.696218	-1.003101	0.007227
H116	H	-0.196218	-0.503101	0.507227
N117	N	-0.000085	-0.491469	-0.247156
N118	N	0.499915	0.008531	0.252844
H119	H	-0.000095	-0.436858	-0.235799
H120	H	0.499905	0.063142	0.264201
H121	H	-0.069770	-0.497682	-0.281091
H122	H	0.430230	0.002318	0.218909
H123	H	-0.000176	-0.140216	0.027508
H124	H	0.499824	0.359784	0.527508
N125	N	-0.000093	-0.748654	0.495652
N126	N	0.499907	-0.248654	0.995652
H127	H	0.069606	-0.749700	0.466086
H128	H	0.569606	-0.249700	0.966086
H129	H	-0.000128	-0.704419	0.526896
H130	H	0.499872	-0.204419	1.026896
N131	N	-0.534388	-0.759162	-0.236583
N132	N	-0.034388	-0.259162	0.263417
H133	H	-0.618334	-0.762662	-0.233088
H134	H	-0.118334	-0.262662	0.266912
H135	H	-0.513701	-0.768873	-0.289199
H136	H	-0.013701	-0.268873	0.210801
N137	N	-0.000108	-0.258248	-0.243422
N138	N	0.499892	0.241752	0.256578
H139	H	-0.000105	-0.215467	-0.286521
H140	H	0.499895	0.284533	0.213479
H141	H	-0.069798	-0.287014	-0.250546
H142	H	0.430202	0.212986	0.249454
H143	H	-0.304043	-0.784653	-0.211103
H144	H	0.195957	-0.284653	0.288897
H145	H	-0.000152	-1.014672	0.684926
H146	H	0.499848	-0.514672	1.184926
H147	H	-0.000082	-0.647533	-0.231388
H148	H	0.499918	-0.147533	0.268612
H149	H	-0.000182	-1.023321	0.144400
H150	H	0.499818	-0.523321	0.644400
N151	N	-0.000130	-0.094161	-0.240808
N152	N	0.499870	0.405839	0.259192
H153	H	-0.000140	-0.039550	-0.229452
H154	H	0.499860	0.460450	0.270548
H155	H	-0.069817	-0.100375	-0.274740
H156	H	0.430183	0.399625	0.225260
N157	N	-0.000185	-0.296281	0.043277
N158	N	0.499815	0.203719	0.543277
H159	H	-0.000192	-0.265091	0.087554
H160	H	0.499808	0.234909	0.587554
H161	H	0.069508	-0.333029	0.049357
H162	H	0.569508	0.166971	0.549357
H163	H	-0.000165	-1.021030	0.287609
H164	H	0.499835	-0.521030	0.787609
N165	N	-0.000164	-0.529512	0.039545
N166	N	0.499836	-0.029512	0.539545
H167	H	-0.000167	-0.472125	0.029977
H168	H	0.499833	0.027875	0.529977
H169	H	0.069525	-0.550898	0.073038
H170	H	0.569525	-0.050898	0.573038
H171	H	-0.000130	-0.680742	0.018861
H172	H	0.499870	-0.180742	0.518861
N173	N	-0.000167	-1.035354	0.533684
N174	N	0.499833	-0.535354	1.033684
H175	H	-0.000173	-1.078453	0.576465
H176	H	0.499827	-0.578453	1.076465
H177	H	0.069527	-1.042480	0.504918
H178	H	0.569527	-0.542480	1.004918
N179	N	-0.000096	-0.752388	0.262420
N180	N	0.499904	-0.252388	0.762420
H181	H	-0.000101	-0.761955	0.319807
H182	H	0.499899	-0.261955	0.819807
H183	H	-0.069786	-0.718894	0.241034
H184	H	0.430214	-0.218894	0.741034
H185	H	-0.000101	-0.764424	0.651716
H186	H	0.499899	-0.264424	1.151716
N187	N	-0.000101	-0.755015	0.098334
N188	N	0.499899	-0.255015	0.598334
H189	H	-0.000092	-0.710734	0.129520
H190	H	0.499908	-0.210734	0.629520
H191	H	-0.069795	-0.748934	0.061591
H192	H	0.430205	-0.248934	0.561591
