data_functionalizedCrystal
_audit_creation_method	'MofGen! by Chris Wilmer'
_symmetry_space_group_name_H-M	'P1'
_symmetry_Int_Tables_number	1
_symmetry_cell_setting	triclinic
loop_
_symmetry_equiv_pos_as_xyz
  x,y,z
_cell_length_a	14.853567
_cell_length_b	17.699083
_cell_length_c	13.930277
_cell_angle_alpha	90.000549
_cell_angle_beta	90.008437
_cell_angle_gamma	96.541028
loop_
_atom_site_label
_atom_site_type_symbol
_atom_site_fract_x
_atom_site_fract_y
_atom_site_fract_z
O1	O	0.113993	-1.004375	-0.079688
O2	O	0.613993	-0.504375	0.420312
O3	O	0.128826	-0.784035	-0.079719
O4	O	0.628826	-0.284035	0.420281
O5	O	-0.009842	-0.900091	-0.079706
O6	O	0.490158	-0.400091	0.420294
O7	O	0.252661	-0.888320	-0.079701
O8	O	0.752661	-0.388320	0.420299
O9	O	-0.009821	-0.900074	0.079956
O10	O	0.490179	-0.400074	0.579956
O11	O	0.128847	-0.784018	0.079943
O12	O	0.628847	-0.284018	0.579943
O13	O	0.114015	-1.004358	0.079974
O14	O	0.614015	-0.504358	0.579974
Zn15	Zn	0.121434	-0.894185	0.105308
Zn16	Zn	0.621434	-0.394185	0.605308
Zn17	Zn	0.121406	-0.894208	-0.105053
Zn18	Zn	0.621406	-0.394208	0.394947
O19	O	0.252682	-0.888303	0.079961
O20	O	0.752682	-0.388303	0.579961
C21	C	0.128305	-0.755828	0.000108
C22	C	0.628305	-0.255828	0.500108
C23	C	0.126711	-0.671806	0.000096
C24	C	0.626711	-0.171806	0.500096
C25	C	-0.043418	-0.899549	0.000123
C26	C	0.456582	-0.399549	0.500123
C27	C	-0.143496	-0.897951	0.000114
C28	C	0.356504	-0.397951	0.500114
C29	C	0.114535	-1.032565	0.000145
C30	C	0.614535	-0.532565	0.500145
C31	C	0.116130	-1.116587	0.000150
C32	C	0.616130	-0.616587	0.500150
C33	C	-0.555751	-0.822255	0.000122
C34	C	-0.055751	-0.322255	0.500122
C35	C	-0.577539	-0.960131	0.000141
C36	C	-0.077539	-0.460131	0.500141
C37	C	-0.483511	-0.961634	0.000135
C38	C	0.016489	-0.461634	0.500135
C39	C	-0.425598	-0.893446	0.000125
C40	C	0.074402	-0.393446	0.500125
C41	C	-0.461714	-0.823756	0.000119
C42	C	0.038286	-0.323756	0.500119
C43	C	-0.447389	-1.031324	0.000150
C44	C	0.052611	-0.531324	0.500150
C45	C	-0.353355	-1.032829	0.000146
C46	C	0.146645	-0.532829	0.500146
C47	C	-0.295441	-0.964641	0.000128
C48	C	0.204559	-0.464641	0.500128
C49	C	-0.331561	-0.894947	0.000122
C50	C	0.168439	-0.394947	0.500122
C51	C	-0.273648	-0.826759	0.000111
C52	C	0.226352	-0.326759	0.500111
C53	C	-0.309767	-0.757065	0.000098
C54	C	0.190233	-0.257065	0.500098
C55	C	-0.403799	-0.755567	0.000102
C56	C	0.096201	-0.255567	0.500102
C57	C	-0.201409	-0.966139	0.000125
C58	C	0.298591	-0.466139	0.500125
C59	C	-0.179611	-0.828260	0.000109
C60	C	0.320389	-0.328260	0.500109
C61	C	0.286258	-0.888844	0.000130
C62	C	0.786258	-0.388844	0.500130
C63	C	0.386336	-0.890443	0.000133
C64	C	0.886336	-0.390443	0.500133
N65	N	0.121453	-0.894176	0.248874
N66	N	0.621453	-0.394176	0.748874
C67	C	0.208106	-0.623396	0.000098
C68	C	0.708106	-0.123396	0.500098
C69	C	0.206602	-0.544449	0.000110
C70	C	0.706602	-0.044449	0.500110
C71	C	0.123703	-0.513913	0.000114
C72	C	0.623703	-0.013913	0.500114
C73	C	0.042301	-0.562329	0.000116
C74	C	0.542301	-0.062329	0.500116
C75	C	0.043806	-0.641275	0.000110
C76	C	0.543806	-0.141275	0.500110
C77	C	0.036232	-0.243950	0.000139
C78	C	0.536232	0.256050	0.500139
C79	C	0.034734	-0.164999	0.000142
C80	C	0.534734	0.335001	0.500142
C81	C	0.199028	-0.147125	0.000139
C82	C	0.699028	0.352875	0.500139
C83	C	0.200533	-0.226070	0.000134
C84	C	0.700533	0.273930	0.500134
C85	C	0.119132	-0.274479	0.000140
C86	C	0.619132	0.225521	0.500140
C87	C	0.120763	-0.360083	0.000129
C88	C	0.620763	0.139917	0.500129
C89	C	0.122070	-0.428311	0.000119
C90	C	0.622070	0.071689	0.500119
N91	N	0.121381	-0.894224	-0.248619
N92	N	0.621381	-0.394224	0.251381
C93	C	0.176000	-0.940176	0.701141
C94	C	0.676000	-0.440176	1.201141
C95	C	0.066776	-0.848263	0.701115
C96	C	0.566776	-0.348263	1.201115
C97	C	0.066790	-0.848251	0.600620
C98	C	0.566790	-0.348251	1.100620
C99	C	0.121410	-0.894204	0.550380
C100	C	0.621410	-0.394204	1.050380
C101	C	0.176014	-0.940168	0.600636
C102	C	0.676014	-0.440168	1.100636
C103	C	0.012180	-0.802294	0.550356
C104	C	0.512180	-0.302294	1.050356
C105	C	0.012191	-0.802281	0.449854
C106	C	0.512191	-0.302281	0.949854
C107	C	0.066816	-0.848230	0.399613
C108	C	0.566816	-0.348230	0.899613
C109	C	0.121424	-0.894196	0.449875
C110	C	0.621424	-0.394196	0.949875
C111	C	0.176043	-0.940148	0.399635
C112	C	0.676043	-0.440148	0.899635
C113	C	0.230656	-0.986110	0.449896
C114	C	0.730656	-0.486110	0.949896
C115	C	0.230639	-0.986117	0.550395
C116	C	0.730639	-0.486117	1.050395
C117	C	0.066833	-0.848223	0.299114
C118	C	0.566833	-0.348223	0.799114
C119	C	0.176057	-0.940140	0.299130
C120	C	0.676057	-0.440140	0.799130
H121	H	-0.262602	-0.701546	0.000096
H122	H	0.237398	-0.201546	0.500096
C123	C	-0.053305	-0.297190	0.000139
C124	C	0.446695	0.202810	0.500139
H125	H	-0.102889	-0.267695	0.000132
H126	H	0.397111	0.232305	0.500132
H127	H	-0.056129	-0.328359	0.055816
H128	H	0.443871	0.171641	0.555816
H129	H	-0.056143	-0.328358	-0.055546
H130	H	0.443857	0.171642	0.444454
H131	H	-0.022475	-0.680690	0.000108
H132	H	0.477525	-0.180690	0.500108
H133	H	-0.132463	-0.772732	0.000096
H134	H	0.367537	-0.272732	0.500096
H135	H	-0.585163	-0.765511	0.000107
H136	H	-0.085163	-0.265511	0.500107
C137	C	-0.048889	-0.528745	0.000119
C138	C	0.451111	-0.028745	0.500119
H139	H	-0.097149	-0.568886	0.000125
H140	H	0.402851	-0.068886	0.500125
H141	H	-0.052899	-0.498320	-0.055557
H142	H	0.447101	0.001680	0.444443
H143	H	-0.052883	-0.498321	0.055805
H144	H	0.447117	0.001679	0.555805
H145	H	-0.032296	-0.764888	0.591269
H146	H	0.467704	-0.264888	1.091269
C147	C	0.006715	-0.797704	0.756371
C148	C	0.506715	-0.297704	1.256371
H149	H	-0.025802	-0.770327	0.712045
H150	H	0.474198	-0.270327	1.212045
H151	H	0.043721	-0.762921	0.795587
H152	H	0.543721	-0.262921	1.295587
H153	H	-0.034839	-0.828672	0.795565
H154	H	0.465161	-0.328672	1.295565
C155	C	-0.443532	-0.678912	0.000101
C156	C	0.056468	-0.178912	0.500101
H157	H	-0.507828	-0.687786	0.000117
H158	H	-0.007828	-0.187786	0.500117
H159	H	-0.423660	-0.650833	-0.055579
H160	H	0.076340	-0.150833	0.444421
H161	H	-0.423632	-0.650832	0.055783
H162	H	0.076368	-0.150832	0.555783
C163	C	-0.641240	-1.035132	0.000155
C164	C	-0.141240	-0.535132	0.500155
H165	H	-0.702415	-1.024256	0.000152
H166	H	-0.202415	-0.524256	0.500152
H167	H	-0.630295	-1.063700	0.055833
H168	H	-0.130295	-0.563700	0.555833
H169	H	-0.630320	-1.063706	-0.055529
H170	H	-0.130320	-0.563706	0.444471
C171	C	0.236136	-0.990692	0.243874
C172	C	0.736136	-0.490692	0.743874
H173	H	0.268651	-1.018068	0.288203
H174	H	0.768651	-0.518068	0.788203
H175	H	0.277678	-0.959721	0.204679
H176	H	0.777678	-0.459721	0.704679
H177	H	0.199136	-1.025488	0.204661
H178	H	0.699136	-0.525488	0.704661
H179	H	-0.032277	-0.764855	0.408941
H180	H	0.467723	-0.264855	0.908941
C181	C	-0.056460	-0.131411	0.000156
C182	C	0.443540	0.368589	0.500156
H183	H	-0.104724	-0.171547	0.000168
H184	H	0.395276	0.328453	0.500168
H185	H	-0.060474	-0.100985	-0.055520
H186	H	0.439526	0.399015	0.444480
H187	H	-0.060443	-0.100986	0.055843
H188	H	0.439557	0.399014	0.555843
C189	C	0.006768	-0.797671	0.243832
C190	C	0.506768	-0.297671	0.743832
H191	H	-0.025761	-0.770303	0.288146
H192	H	0.474239	-0.270303	0.788146
H193	H	-0.034760	-0.828639	0.204606
H194	H	0.465240	-0.328639	0.704606
H195	H	0.043777	-0.762868	0.204648
H196	H	0.543777	-0.262868	0.704648
H197	H	0.275100	-1.023539	0.591326
H198	H	0.775100	-0.523539	1.091326
H199	H	-0.494548	-1.086839	0.000168
H200	H	0.005452	-0.586839	0.500168
H201	H	-0.323956	-1.089579	0.000156
H202	H	0.176044	-0.589579	0.500156
H203	H	-0.172005	-1.022883	0.000142
H204	H	0.327995	-0.522883	0.500142
H205	H	0.275612	-0.648252	0.000094
H206	H	0.775612	-0.148252	0.500094
H207	H	0.272882	-0.505037	0.000110
H208	H	0.772882	-0.005037	0.500110
H209	H	0.275123	-1.023528	0.408977
H210	H	0.775123	-0.523528	0.908977
C211	C	0.236073	-0.990730	0.756417
C212	C	0.736073	-0.490730	1.256417
H213	H	0.268607	-1.018091	0.712099
H214	H	0.768607	-0.518091	1.212099
H215	H	0.199078	-1.025527	0.795612
H216	H	0.699078	-0.525527	1.295612
H217	H	0.277611	-0.959754	0.795631
H218	H	0.777611	-0.459754	1.295631
C219	C	0.291722	-0.259656	0.000134
C220	C	0.791722	0.240344	0.500134
H221	H	0.339984	-0.219517	0.000146
H222	H	0.839984	0.280483	0.500146
H223	H	0.295719	-0.290082	-0.055544
H224	H	0.795719	0.209918	0.444456
H225	H	0.295726	-0.290080	0.055819
H226	H	0.795726	0.209920	0.555819
C227	C	0.288572	-0.093876	0.000139
C228	C	0.788572	0.406124	0.500139
H229	H	0.338157	-0.123370	0.000123
H230	H	0.838157	0.376630	0.500123
H231	H	0.291416	-0.062707	0.055818
H232	H	0.791416	0.437293	0.555818
H233	H	0.291388	-0.062709	-0.055545
H234	H	0.791388	0.437291	0.444455
