data_functionalizedCrystal
_audit_creation_method	'MofGen! by Chris Wilmer'
_symmetry_space_group_name_H-M	'P1'
_symmetry_Int_Tables_number	1
_symmetry_cell_setting	triclinic
loop_
_symmetry_equiv_pos_as_xyz
  x,y,z
_cell_length_a	29.839131
_cell_length_b	29.839134
_cell_length_c	29.839111
_cell_angle_alpha	90.071095
_cell_angle_beta	89.880971
_cell_angle_gamma	89.963719
loop_
_atom_site_label
_atom_site_type_symbol
_atom_site_fract_x
_atom_site_fract_y
_atom_site_fract_z
Zn1	Zn	-0.178528	-0.686938	-0.254126
Zn2	Zn	0.321472	-0.186938	0.245874
Zn3	Zn	-0.253773	-0.686805	-0.178996
Zn4	Zn	0.246227	-0.186805	0.321004
Zn5	Zn	-0.178651	-0.611756	-0.178995
Zn6	Zn	0.321349	-0.111756	0.321005
Zn7	Zn	-0.253625	-0.611768	-0.254084
Zn8	Zn	0.246375	-0.111768	0.245916
O9	O	-0.216145	-0.649317	-0.216550
O10	O	0.283855	-0.149317	0.283450
O11	O	-0.188520	-0.749787	-0.244177
O12	O	0.311480	-0.249787	0.255823
O13	O	-0.243922	-0.676789	-0.116128
O14	O	0.256078	-0.176789	0.383872
O15	O	-0.115768	-0.621779	-0.188979
O16	O	0.384232	-0.121779	0.311021
O17	O	-0.243802	-0.749690	-0.188979
O18	O	0.256198	-0.249690	0.311021
O19	O	-0.115678	-0.677015	-0.244177
O20	O	0.384322	-0.177015	0.255823
O21	O	-0.188730	-0.621651	-0.116128
O22	O	0.311270	-0.121651	0.383872
O23	O	-0.188586	-0.548891	-0.188938
O24	O	0.311414	-0.048891	0.311062
O25	O	-0.243550	-0.621800	-0.316957
O26	O	0.256450	-0.121800	0.183043
O27	O	-0.243670	-0.548899	-0.244106
O28	O	0.256330	-0.048899	0.255894
O29	O	-0.188377	-0.677027	-0.316988
O30	O	0.311623	-0.177027	0.183012
O31	O	-0.316621	-0.676801	-0.188939
O32	O	0.183379	-0.176801	0.311061
O33	O	-0.316512	-0.621672	-0.244106
O34	O	0.183488	-0.121672	0.255894
C35	C	-0.216126	-0.532594	-0.216518
C36	C	0.283874	-0.032594	0.283482
C37	C	-0.216128	-0.482660	-0.216515
C38	C	0.283872	0.017340	0.283485
C39	C	-0.332867	-0.649236	-0.216528
C40	C	0.167133	-0.149236	0.283472
C41	C	-0.382802	-0.649242	-0.216533
C42	C	0.117198	-0.149242	0.283467
C43	C	-0.215933	-0.649430	-0.333729
C44	C	0.284067	-0.149430	0.166271
C45	C	-0.215843	-0.649478	-0.383664
C46	C	0.284157	-0.149478	0.116336
C47	C	-0.692489	-0.678075	-0.187867
C48	C	-0.192489	-0.178075	0.312133
C49	C	-0.880162	-0.678130	-0.187884
C50	C	-0.380162	-0.178130	0.312116
O51	O	-0.904464	-0.702581	-0.163493
O52	O	-0.404464	-0.202581	0.336507
N53	N	-0.903587	-0.649410	-0.216584
N54	N	-0.403587	-0.149410	0.283416
C55	C	-0.880090	-0.620676	-0.245284
C56	C	-0.380090	-0.120676	0.254716
O57	O	-0.904321	-0.596252	-0.269699
O58	O	-0.404321	-0.096252	0.230301
C59	C	-0.692418	-0.620623	-0.245268
C60	C	-0.192418	-0.120623	0.254732
C61	C	-0.668996	-0.649342	-0.216563
C62	C	-0.168996	-0.149342	0.283437
C63	C	-0.669067	-0.706792	-0.159164
C64	C	-0.169067	-0.206792	0.340836
C65	C	-0.622151	-0.706776	-0.159158
C66	C	-0.122151	-0.206776	0.340842
C67	C	-0.598658	-0.678043	-0.187855
C68	C	-0.098658	-0.178043	0.312145
C69	C	-0.622080	-0.649326	-0.216557
C70	C	-0.122080	-0.149326	0.283443
C71	C	-0.668922	-0.591891	-0.273970
C72	C	-0.168922	-0.091891	0.226030
C73	C	-0.622001	-0.591881	-0.273965
C74	C	-0.122001	-0.091881	0.226035
C75	C	-0.598579	-0.620600	-0.245259
C76	C	-0.098579	-0.120600	0.254741
C77	C	-0.551672	-0.620577	-0.245248
C78	C	-0.051672	-0.120577	0.254752
N79	N	-0.528247	-0.649298	-0.216548
N80	N	-0.028247	-0.149298	0.283452
C81	C	-0.551740	-0.678031	-0.187852
C82	C	-0.051740	-0.178031	0.312148
C83	C	-0.978621	-0.620705	-0.245289
C84	C	-0.478621	-0.120705	0.254711
C85	C	-1.025539	-0.620717	-0.245293
C86	C	-0.525539	-0.120717	0.254707
C87	C	-1.025607	-0.678173	-0.187893
C88	C	-0.525607	-0.178173	0.312107
C89	C	-0.978688	-0.678158	-0.187888
C90	C	-0.478688	-0.178158	0.312112
C91	C	-0.955196	-0.649425	-0.216589
C92	C	-0.455196	-0.149425	0.283411
C93	C	-0.453214	-0.677995	-0.187841
C94	C	0.046786	-0.177995	0.312159
C95	C	-0.406295	-0.677975	-0.187837
C96	C	0.093705	-0.177975	0.312163
C97	C	-0.406230	-0.620522	-0.245238
C98	C	0.093770	-0.120522	0.254762
C99	C	-0.453146	-0.620539	-0.245241
C100	C	0.046854	-0.120539	0.254759
C101	C	-0.476637	-0.649280	-0.216541
C102	C	0.023363	-0.149280	0.283459
O103	O	-0.527341	-0.596143	-0.269630
O104	O	-0.027341	-0.096143	0.230370
O105	O	-0.527502	-0.702458	-0.163447
O106	O	-0.027502	-0.202458	0.336553
C107	C	-0.739404	-0.678091	-0.187872
C108	C	-0.239404	-0.178091	0.312128
C109	C	-0.762827	-0.649374	-0.216575
C110	C	-0.262827	-0.149374	0.283425
C111	C	-0.739334	-0.620641	-0.245272
C112	C	-0.239334	-0.120641	0.254728
C113	C	-0.809744	-0.649386	-0.216578
C114	C	-0.309744	-0.149386	0.283422
C115	C	-0.833238	-0.678119	-0.187882
C116	C	-0.333238	-0.178119	0.312118
C117	C	-0.809813	-0.706840	-0.159181
C118	C	-0.309813	-0.206840	0.340819
C119	C	-0.762897	-0.706824	-0.159176
C120	C	-0.262897	-0.206824	0.340824
C121	C	-0.762758	-0.591920	-0.273972
C122	C	-0.262758	-0.091920	0.226028
C123	C	-0.809674	-0.591938	-0.273975
C124	C	-0.309674	-0.091938	0.226025
C125	C	-0.833167	-0.620671	-0.245278
C126	C	-0.333167	-0.120671	0.254722
C127	C	-0.098966	-0.649411	-0.216582
C128	C	0.401034	-0.149411	0.283418
C129	C	-0.049032	-0.649450	-0.216596
C130	C	0.450968	-0.149450	0.283404
C131	C	-0.216164	-0.766495	-0.216583
C132	C	0.283836	-0.266495	0.283417
C133	C	-0.216172	-0.816430	-0.216597
C134	C	0.283828	-0.316430	0.283403
C135	C	-0.244869	-0.173031	-0.245241
C136	C	0.255131	0.326969	0.254759
C137	C	-0.244882	0.014642	-0.245261
C138	C	0.255118	0.514642	0.254739
O139	O	-0.269297	0.038895	-0.269666
O140	O	0.230703	0.538895	0.230334
N141	N	-0.216161	0.038125	-0.216584
N142	N	0.283839	0.538125	0.283416
C143	C	-0.187433	0.014687	-0.187902
C144	C	0.312567	0.514687	0.312098
O145	O	-0.163002	0.038967	-0.163515
O146	O	0.336998	0.538967	0.336485
C147	C	-0.187419	-0.172985	-0.187885
C148	C	0.312581	0.327015	0.312115
C149	C	-0.216144	-0.196466	-0.216560
C150	C	0.283856	0.303534	0.283440
C151	C	-0.273592	-0.196511	-0.273914
C152	C	0.226408	0.303489	0.226086
C153	C	-0.273590	-0.243426	-0.273907
C154	C	0.226410	0.256574	0.226093
C155	C	-0.244865	-0.266861	-0.245227
C156	C	0.255135	0.233139	0.254773
C157	C	-0.216143	-0.243381	-0.216553
C158	C	0.283857	0.256619	0.283447
C159	C	-0.158689	-0.196423	-0.159206
C160	C	0.341311	0.303577	0.340794
C161	C	-0.158687	-0.243344	-0.159205
C162	C	0.341313	0.256656	0.340795
C163	C	-0.187413	-0.266824	-0.187880
C164	C	0.312587	0.233176	0.312120
C165	C	-0.187416	-0.313732	-0.187866
C166	C	0.312584	0.186268	0.312134
N167	N	-0.216137	-0.337214	-0.216543
N168	N	0.283863	0.162786	0.283457
C169	C	-0.244861	-0.313779	-0.245223
C170	C	0.255139	0.186221	0.254777
C171	C	-0.187444	0.113217	-0.187913
C172	C	0.312556	0.613217	0.312087
C173	C	-0.187448	0.160135	-0.187917
C174	C	0.312552	0.660135	0.312083
C175	C	-0.244896	0.160088	-0.245276
C176	C	0.255104	0.660088	0.254724
C177	C	-0.244893	0.113169	-0.245269
C178	C	0.255107	0.613169	0.254731
C179	C	-0.216164	0.089735	-0.216590
C180	C	0.283836	0.589735	0.283410
C181	C	-0.244856	-0.412305	-0.245206
C182	C	0.255144	0.087695	0.254794
C183	C	-0.244853	-0.459225	-0.245195
C184	C	0.255147	0.040775	0.254805
C185	C	-0.187404	-0.459173	-0.187838
C186	C	0.312596	0.040827	0.312162
C187	C	-0.187408	-0.412258	-0.187847
C188	C	0.312592	0.087742	0.312153
C189	C	-0.216136	-0.388825	-0.216534
C190	C	0.283864	0.111175	0.283466
O191	O	-0.163010	-0.338013	-0.163477
O192	O	0.336990	0.161987	0.336523
O193	O	-0.269282	-0.338067	-0.269614
O194	O	0.230718	0.161933	0.230386
C195	C	-0.244871	-0.126115	-0.245248
C196	C	0.255129	0.373885	0.254752
C197	C	-0.216148	-0.102635	-0.216574
C198	C	0.283852	0.397365	0.283426
C199	C	-0.187423	-0.126070	-0.187894
C200	C	0.312577	0.373930	0.312106
C201	C	-0.216152	-0.055717	-0.216578
C202	C	0.283848	0.444283	0.283422
C203	C	-0.244876	-0.032282	-0.245258
C204	C	0.255124	0.467718	0.254742
C205	C	-0.273597	-0.055765	-0.273935
C206	C	0.226403	0.444235	0.226065
C207	C	-0.273595	-0.102680	-0.273928
C208	C	0.226405	0.397320	0.226072
C209	C	-0.158703	-0.102587	-0.159217
C210	C	0.341297	0.397413	0.340783
C211	C	-0.158707	-0.055672	-0.159226
C212	C	0.341293	0.444328	0.340774
C213	C	-0.187432	-0.032237	-0.187907
C214	C	0.312568	0.467763	0.312093
C215	C	-0.216323	-0.649230	-0.099827
C216	C	0.283677	-0.149230	0.400173
C217	C	-0.216286	-0.649269	-0.049893
C218	C	0.283714	-0.149269	0.450107
C219	C	-0.187107	-0.677923	0.306561
C220	C	0.312893	-0.177923	0.806561
C221	C	-0.187235	-0.677865	0.118888
C222	C	0.312765	-0.177865	0.618888
O223	O	-0.162633	-0.702119	0.094511
O224	O	0.337367	-0.202119	0.594511
N225	N	-0.216184	-0.649313	0.095552
N226	N	0.283816	-0.149313	0.595552
C227	C	-0.245102	-0.620772	0.119137
C228	C	0.254898	-0.120772	0.619137
O229	O	-0.269725	-0.596483	0.094982
O230	O	0.230275	-0.096483	0.594982
C231	C	-0.244972	-0.620829	0.306809
C232	C	0.255028	-0.120829	0.806809
C233	C	-0.216023	-0.649385	0.330143
C234	C	0.283977	-0.149385	0.830143
C235	C	-0.158160	-0.706477	0.329895
C236	C	0.341840	-0.206477	0.829895
C237	C	-0.158130	-0.706493	0.376810
C238	C	0.341870	-0.206493	0.876810
C239	C	-0.187047	-0.677955	0.400392
C240	C	0.312953	-0.177955	0.900392
C241	C	-0.215993	-0.649401	0.377058
C242	C	0.284007	-0.149401	0.877058
C243	C	-0.273887	-0.592286	0.330393
C244	C	0.226113	-0.092286	0.830393
C245	C	-0.273851	-0.592302	0.377314
C246	C	0.226149	-0.092302	0.877314
C247	C	-0.244902	-0.620858	0.400648
C248	C	0.255098	-0.120858	0.900648
C249	C	-0.244880	-0.620879	0.447555
C250	C	0.255120	-0.120879	0.947555
N251	N	-0.215930	-0.649431	0.470891
N252	N	0.284070	-0.149431	0.970891
C253	C	-0.187013	-0.677969	0.447310
C254	C	0.312987	-0.177969	0.947310
C255	C	-0.245169	-0.620745	0.020606
C256	C	0.254831	-0.120745	0.520606
C257	C	-0.245203	-0.620732	-0.026311
C258	C	0.254797	-0.120732	0.473689
C259	C	-0.187334	-0.677824	-0.026557
C260	C	0.312666	-0.177824	0.473443
C261	C	-0.187304	-0.677839	0.020362
C262	C	0.312696	-0.177839	0.520362
C263	C	-0.216220	-0.649297	0.043943
C264	C	0.283780	-0.149297	0.543943
C265	C	-0.186953	-0.678001	0.545835
C266	C	0.313047	-0.178001	1.045835
C267	C	-0.186927	-0.678015	0.592755
C268	C	0.313073	-0.178015	1.092755
C269	C	-0.244793	-0.620922	0.592996
C270	C	0.255207	-0.120922	1.092996
C271	C	-0.244821	-0.620909	0.546081
C272	C	0.255179	-0.120909	1.046081
C273	C	-0.215897	-0.649449	0.522501
C274	C	0.284103	-0.149449	1.022501
O275	O	-0.269465	-0.596634	0.471961
O276	O	0.230535	-0.096634	0.971961
O277	O	-0.162387	-0.702248	0.471473
O278	O	0.337613	-0.202248	0.971473
C279	C	-0.187137	-0.677907	0.259646
C280	C	0.312863	-0.177907	0.759646
C281	C	-0.216083	-0.649353	0.236312
C282	C	0.283917	-0.149353	0.736312
C283	C	-0.245000	-0.620815	0.259893
C284	C	0.255000	-0.120815	0.759893
C285	C	-0.216116	-0.649340	0.189394
C286	C	0.283884	-0.149340	0.689394
C287	C	-0.187200	-0.677877	0.165812
C288	C	0.312800	-0.177877	0.665812
C289	C	-0.158250	-0.706429	0.189149
C290	C	0.341750	-0.206429	0.689149
C291	C	-0.158220	-0.706445	0.236064
C292	C	0.341780	-0.206445	0.736064
C293	C	-0.273949	-0.592264	0.236557
C294	C	0.226051	-0.092264	0.736557
C295	C	-0.273977	-0.592250	0.189642
C296	C	0.226023	-0.092250	0.689642
C297	C	-0.245061	-0.620788	0.166060
C298	C	0.254939	-0.120788	0.666060
H299	H	-0.472335	-0.701399	-0.164472
H300	H	0.027665	-0.201399	0.335528
O301	O	-0.301544	-0.125506	-0.301722
O302	O	0.198456	0.374494	0.198278
C303	C	-0.330562	-0.152603	-0.276095
C304	C	0.169438	0.347397	0.223905
H305	H	-0.333348	-0.138420	-0.240707
H306	H	0.166652	0.361580	0.259293
H307	H	-0.365130	-0.153133	-0.292283
H308	H	0.134870	0.346867	0.207717
H309	H	-0.316673	-0.188169	-0.274573
H310	H	0.183327	0.311831	0.225427
O311	O	-0.599471	-0.734721	-0.131264
O312	O	-0.099471	-0.234721	0.368736
C313	C	-0.630276	-0.760075	-0.105934
C314	C	-0.130276	-0.260075	0.394066
H315	H	-0.663678	-0.761635	-0.124343
H316	H	-0.163678	-0.261635	0.375657
H317	H	-0.616704	-0.795470	-0.101183
H318	H	-0.116704	-0.295470	0.398817
H319	H	-0.635355	-0.743624	-0.071795
H320	H	-0.135355	-0.243624	0.428205
O321	O	-0.272804	-0.482053	-0.272989
O322	O	0.227196	0.017947	0.227011
C323	C	-0.301821	-0.509149	-0.247358
C324	C	0.198179	-0.009149	0.252642
H325	H	-0.304607	-0.494961	-0.211972
H326	H	0.195393	0.005039	0.288028
H327	H	-0.336389	-0.509681	-0.263546
H328	H	0.163611	-0.009681	0.236454
H329	H	-0.287930	-0.544714	-0.245832
H330	H	0.212070	-0.044714	0.254168
H331	H	-0.135316	-0.036558	-0.135871
H332	H	0.364684	0.463442	0.364129
O333	O	-0.130862	-0.125397	-0.131331
O334	O	0.369138	0.374603	0.368669
C335	C	-0.156446	-0.152470	-0.102255
C336	C	0.343554	0.347530	0.397745
H337	H	-0.190486	-0.159506	-0.118038
H338	H	0.309514	0.340494	0.381962
H339	H	-0.138145	-0.185462	-0.096256
H340	H	0.361855	0.314538	0.403744
H341	H	-0.161396	-0.134334	-0.068959
H342	H	0.338604	0.365666	0.431041
H343	H	-0.268284	0.094054	-0.268620
H344	H	0.231716	0.594054	0.231380
H345	H	-0.268284	0.179177	-0.268628
H346	H	0.231716	0.679177	0.231372
H347	H	-0.387095	-0.597126	-0.268601
H348	H	0.112905	-0.097126	0.231399
H349	H	-0.297555	-0.568997	0.170647
H350	H	0.202445	-0.068997	0.670647
H351	H	-0.163353	-0.701271	0.611751
H352	H	0.336647	-0.201271	1.111751
O353	O	-0.130071	-0.734117	0.258774
O354	O	0.369929	-0.234117	0.758774
C355	C	-0.101207	-0.708360	0.285860
C356	C	0.398793	-0.208360	0.785860
H357	H	-0.117291	-0.674423	0.292995
H358	H	0.382709	-0.174423	0.792995
H359	H	-0.095022	-0.726633	0.318803
H360	H	0.404978	-0.226633	0.818803
H361	H	-0.067968	-0.703196	0.267686
H362	H	0.432032	-0.203196	0.767686
H363	H	-0.743830	-0.730210	-0.135801
H364	H	-0.243830	-0.230210	0.364199
H365	H	-0.297460	-0.569032	0.311403
H366	H	0.202540	-0.069032	0.811403
O367	O	-0.301505	-0.266162	-0.301808
O368	O	0.198495	0.233838	0.198192
C369	C	-0.326863	-0.235409	-0.327113
C370	C	0.173137	0.264591	0.172887
H371	H	-0.308460	-0.201979	-0.328699
H372	H	0.191540	0.298021	0.171301
H373	H	-0.331644	-0.249004	-0.362501
H374	H	0.168356	0.250996	0.137499
H375	H	-0.360988	-0.230377	-0.310601
H376	H	0.139012	0.269623	0.189399
O377	O	-0.159569	0.182888	-0.159992
O378	O	0.340431	0.682888	0.340008
C379	C	-0.169410	0.171488	-0.115200
C380	C	0.330590	0.671488	0.384800
H381	H	-0.186683	0.137437	-0.114242
H382	H	0.313317	0.637437	0.385758
H383	H	-0.136993	0.169882	-0.095113
H384	H	0.363007	0.669882	0.404887
H385	H	-0.192509	0.197928	-0.100024
H386	H	0.307491	0.697928	0.399976
O387	O	-0.158844	-0.705768	0.523004
O388	O	0.341156	-0.205768	1.023004
C389	C	-0.133284	-0.730963	0.553668
C390	C	0.366716	-0.230963	1.053668
H391	H	-0.151656	-0.732642	0.587158
H392	H	0.348344	-0.232642	1.087158
H393	H	-0.128252	-0.766326	0.540048
H394	H	0.371748	-0.266326	1.040048
H395	H	-0.099277	-0.714296	0.558592
H396	H	0.400723	-0.214296	1.058592
H397	H	-0.134557	-0.729746	0.395804
H398	H	0.365443	-0.229746	0.895804
H399	H	-0.828740	-0.568548	-0.297350
H400	H	-0.328740	-0.068548	0.202650
O401	O	-0.301540	-0.033065	-0.301813
O402	O	0.198460	0.466935	0.198187
C403	C	-0.326885	-0.063845	-0.327135
C404	C	0.173115	0.436155	0.172865
H405	H	-0.328452	-0.097265	-0.308729
H406	H	0.171548	0.402735	0.191271
H407	H	-0.362277	-0.050268	-0.331868
H408	H	0.137723	0.449732	0.168132
H409	H	-0.310420	-0.068891	-0.361282
H410	H	0.189580	0.431109	0.138718
O411	O	-0.301989	-0.564566	0.400150
O412	O	0.198011	-0.064566	0.900150
C413	C	-0.327538	-0.539356	0.369490
C414	C	0.172462	-0.039356	0.869490
H415	H	-0.328977	-0.557754	0.336020
H416	H	0.171023	-0.057754	0.836020
H417	H	-0.362961	-0.534801	0.383145
H418	H	0.137039	-0.034801	0.883145
H419	H	-0.311335	-0.505127	0.364514
H420	H	0.188665	-0.005127	0.864514
H421	H	-1.044743	-0.701569	-0.164527
H422	H	-0.544743	-0.201569	0.335473
H423	H	-0.387226	-0.701362	-0.164460
H424	H	0.112774	-0.201362	0.335540
O425	O	-0.955889	-0.706079	-0.160069
O426	O	-0.455889	-0.206079	0.339931
C427	C	-0.928678	-0.735103	-0.185674
C428	C	-0.428678	-0.235103	0.314326
H429	H	-0.921587	-0.719263	-0.219702
H430	H	-0.421587	-0.219263	0.280298
H431	H	-0.895722	-0.741116	-0.167377
H432	H	-0.395722	-0.241116	0.332623
H433	H	-0.946723	-0.768400	-0.190648
H434	H	-0.446723	-0.268400	0.309352
H435	H	-0.163731	-0.701092	0.039357
H436	H	0.336269	-0.201092	0.539357
H437	H	-1.044605	-0.597327	-0.268663
H438	H	-0.544605	-0.097327	0.231337
O439	O	-0.955873	-0.592746	-0.273183
O440	O	-0.455873	-0.092746	0.226817
C441	C	-0.986615	-0.567410	-0.298518
C442	C	-0.486615	-0.067410	0.201482
H443	H	-1.020099	-0.565868	-0.280114
H444	H	-0.520099	-0.065868	0.219886
H445	H	-0.973087	-0.532008	-0.303268
H446	H	-0.473087	-0.032008	0.196732
H447	H	-0.991517	-0.583865	-0.332657
H448	H	-0.491517	-0.083865	0.167343
H449	H	-0.134611	-0.729716	0.310700
H450	H	0.365389	-0.229716	0.810700
H451	H	-0.268397	-0.597660	0.527081
H452	H	0.231603	-0.097660	1.027081
O453	O	-0.159228	-0.705586	-0.049399
O454	O	0.340772	-0.205586	0.450601
C455	C	-0.133655	-0.730782	-0.018748
C456	C	0.366345	-0.230782	0.481252
H457	H	-0.152018	-0.732474	0.014747
H458	H	0.347982	-0.232474	0.514747
H459	H	-0.128617	-0.766140	-0.032377
H460	H	0.371383	-0.266140	0.467623
H461	H	-0.099651	-0.714108	-0.013827
H462	H	0.400349	-0.214108	0.486173
O463	O	-0.691598	-0.563980	-0.301899
O464	O	-0.191598	-0.063980	0.198101
C465	C	-0.660792	-0.538616	-0.327217
C466	C	-0.160792	-0.038616	0.172783
H467	H	-0.627329	-0.557011	-0.328781
H468	H	-0.127329	-0.057011	0.171219
H469	H	-0.674269	-0.533835	-0.362612
H470	H	-0.174269	-0.033835	0.137388
H471	H	-0.655869	-0.504490	-0.310730
H472	H	-0.155869	-0.004490	0.189270
H473	H	-0.134707	-0.729667	0.169940
H474	H	0.365293	-0.229667	0.669940
O475	O	-0.130777	-0.173563	-0.131406
O476	O	0.369223	0.326437	0.368594
C477	C	-0.101746	-0.146473	-0.157026
C478	C	0.398254	0.353527	0.342974
H479	H	-0.117571	-0.139483	-0.191050
H480	H	0.382429	0.360517	0.308950
H481	H	-0.095749	-0.113459	-0.138737
H482	H	0.404251	0.386541	0.361263
H483	H	-0.068444	-0.164570	-0.162010
H484	H	0.431556	0.335430	0.337990
H485	H	-0.268780	-0.597483	-0.045306
H486	H	0.231220	-0.097483	0.454694
O487	O	-0.273303	-0.593003	0.043440
O488	O	0.226697	-0.093003	0.543440
C489	C	-0.298850	-0.567795	0.012777
C490	C	0.201150	-0.067795	0.512777
H491	H	-0.300296	-0.586201	-0.020690
H492	H	0.199704	-0.086201	0.479310
H493	H	-0.334271	-0.563231	0.026434
H494	H	0.165729	-0.063231	0.526434
H495	H	-0.282641	-0.533570	0.007791
H496	H	0.217359	-0.033570	0.507791
H497	H	-0.164048	0.094141	-0.164556
H498	H	0.335952	0.594141	0.335444
H499	H	-0.268338	-0.597689	0.612205
H500	H	0.231662	-0.097689	1.112205
O501	O	-0.599161	-0.564034	-0.301893
O502	O	-0.099161	-0.064034	0.198107
C503	C	-0.571925	-0.589607	-0.330926
C504	C	-0.071925	-0.089607	0.169074
H505	H	-0.586023	-0.624996	-0.333739
H506	H	-0.086023	-0.124996	0.166261
H507	H	-0.571334	-0.573366	-0.365483
H508	H	-0.071334	-0.073366	0.134517
H509	H	-0.536395	-0.591139	-0.317034
H510	H	-0.036395	-0.091139	0.182966
O511	O	-0.302082	-0.564526	0.259391
O512	O	0.197918	-0.064526	0.759391
C513	C	-0.327628	-0.539316	0.228728
C514	C	0.172372	-0.039316	0.728728
H515	H	-0.329071	-0.557720	0.195260
H516	H	0.170929	-0.057720	0.695260
H517	H	-0.363050	-0.534755	0.242384
H518	H	0.136950	-0.034755	0.742384
H519	H	-0.311420	-0.505090	0.223746
H520	H	0.188580	-0.005090	0.723746
H521	H	-0.135289	-0.262422	-0.135853
H522	H	0.364711	0.237578	0.364147
H523	H	-0.688190	-0.730193	-0.135796
H524	H	-0.188190	-0.230193	0.364204
H525	H	-0.472217	-0.597155	-0.268616
H526	H	0.027783	-0.097155	0.231384
O527	O	-0.159466	-0.389516	-0.159975
O528	O	0.340534	0.110484	0.340025
C529	C	-0.134123	-0.420263	-0.134649
C530	C	0.365877	0.079737	0.365351
H531	H	-0.132564	-0.453735	-0.153047
H532	H	0.367436	0.046265	0.346953
H533	H	-0.098727	-0.406725	-0.129924
H534	H	0.401273	0.093275	0.370076
H535	H	-0.150583	-0.425193	-0.100499
H536	H	0.349417	0.074807	0.399501
O537	O	-0.159564	-0.481994	-0.159958
O538	O	0.340436	0.018006	0.340042
C539	C	-0.185149	-0.509072	-0.130886
C540	C	0.314851	-0.009072	0.369114
H541	H	-0.219193	-0.516095	-0.146665
H542	H	0.280807	-0.016095	0.353335
H543	H	-0.166853	-0.542070	-0.124902
H544	H	0.333147	-0.042070	0.375098
H545	H	-0.190089	-0.490946	-0.097583
H546	H	0.309911	0.009054	0.402417
O547	O	-0.832583	-0.734819	-0.131328
O548	O	-0.332583	-0.234819	0.368672
C549	C	-0.821058	-0.779590	-0.141209
C550	C	-0.321058	-0.279590	0.358791
H551	H	-0.786954	-0.780507	-0.158476
H552	H	-0.286954	-0.280507	0.341524
H553	H	-0.819503	-0.799735	-0.108811
H554	H	-0.319503	-0.299735	0.391189
H555	H	-0.847397	-0.794732	-0.164329
H556	H	-0.347397	-0.294732	0.335671
O557	O	-0.739991	-0.564027	-0.301909
O558	O	-0.239991	-0.064027	0.198091
C559	C	-0.751341	-0.573859	-0.346698
C560	C	-0.251341	-0.073859	0.153302
H561	H	-0.785385	-0.591147	-0.347651
H562	H	-0.285385	-0.091147	0.152349
H563	H	-0.752941	-0.541438	-0.366803
H564	H	-0.252941	-0.041438	0.133197
H565	H	-0.724877	-0.596944	-0.361857
H566	H	-0.224877	-0.096944	0.138143
O567	O	-0.272803	-0.389616	-0.273087
O568	O	0.227197	0.110384	0.226913
C569	C	-0.298142	-0.420409	-0.298399
C570	C	0.201858	0.079591	0.201601
H571	H	-0.299698	-0.453825	-0.279986
H572	H	0.200302	0.046175	0.220014
H573	H	-0.333540	-0.406843	-0.303131
H574	H	0.166460	0.093157	0.196869
H575	H	-0.281681	-0.425459	-0.332547
H576	H	0.218319	0.074541	0.167453
O577	O	-0.301434	-0.173731	-0.301824
O578	O	0.198566	0.326269	0.198176
C579	C	-0.275861	-0.146634	-0.330887
C580	C	0.224139	0.353366	0.169113
H581	H	-0.240473	-0.160789	-0.333728
H582	H	0.259527	0.339211	0.166272
H583	H	-0.292105	-0.146146	-0.365430
H584	H	0.207895	0.353854	0.134570
H585	H	-0.274326	-0.111056	-0.317007
H586	H	0.225674	0.388944	0.182993
