data_functionalizedCrystal
_audit_creation_method	'MofGen! by Chris Wilmer'
_symmetry_space_group_name_H-M	'P1'
_symmetry_Int_Tables_number	1
_symmetry_cell_setting	triclinic
loop_
_symmetry_equiv_pos_as_xyz
  x,y,z
_cell_length_a	15.944493
_cell_length_b	15.944493
_cell_length_c	16.176319
_cell_angle_alpha	89.999072
_cell_angle_beta	89.993150
_cell_angle_gamma	83.475044
loop_
_atom_site_label
_atom_site_type_symbol
_atom_site_fract_x
_atom_site_fract_y
_atom_site_fract_z
O1	O	1.114535	0.108105	-0.068725
O2	O	0.869976	0.121513	-0.068727
O3	O	0.998959	-0.007471	-0.068733
O4	O	0.985552	0.237088	-0.068719
O5	O	0.998942	-0.007479	0.068760
O6	O	0.869958	0.121504	0.068766
O7	O	1.114518	0.108097	0.068769
Cu8	Cu	0.992236	0.114800	0.081321
Cu9	Cu	0.992257	0.114810	-0.081280
O10	O	0.985534	0.237080	0.068774
C11	C	0.838673	0.120961	0.000019
C12	C	0.745424	0.119318	0.000017
C13	C	0.509649	0.195240	0.000021
C14	C	0.459090	0.154294	0.067813
C15	C	0.574704	0.116273	0.000019
C16	C	0.459112	0.154284	-0.067744
C17	C	0.409795	0.113339	0.000016
C18	C	0.525374	0.075349	0.067867
C19	C	0.525399	0.075350	-0.067751
C20	C	0.474873	0.034346	0.000058
C21	C	0.669704	0.117966	0.000021
C22	C	0.314798	0.111640	0.000020
C23	C	0.998403	-0.038769	0.000010
C24	C	0.996760	-0.132018	-0.000000
C25	C	1.072682	-0.367793	0.000016
C26	C	1.031749	-0.418349	-0.067775
C27	C	0.993716	-0.302738	0.000010
C28	C	1.031713	-0.418333	0.067782
C29	C	0.990781	-0.467647	0.000023
C30	C	0.952803	-0.352065	-0.067838
C31	C	0.952779	-0.352046	0.067781
C32	C	0.911788	-0.402569	-0.000027
C33	C	0.995408	-0.207739	0.000001
C34	C	0.989082	-0.562644	0.000026
C35	C	1.145821	0.108649	0.000021
C36	C	1.239069	0.110292	0.000017
C37	C	0.986091	0.268379	0.000029
C38	C	0.987734	0.361627	0.000034
N39	N	0.992228	0.114793	0.195687
N40	N	0.992273	0.114810	-0.195645
C41	C	1.049359	0.057702	0.238948
C42	C	1.049363	0.057701	0.325495
C43	C	0.992240	0.114795	0.368779
C44	C	0.935103	0.171889	0.325511
C45	C	0.935095	0.171885	0.238966
C46	C	0.935131	0.171904	0.674540
C47	C	0.935145	0.171906	0.761091
C48	C	1.049399	0.057721	0.761069
C49	C	1.049392	0.057717	0.674524
C50	C	0.992252	0.114807	0.631263
C51	C	0.992247	0.114806	0.537419
C52	C	0.992248	0.114801	0.462622
H53	H	0.554201	0.042017	0.125237
O54	O	1.071620	-0.452913	0.136070
C55	C	1.139882	-0.511766	0.111736
H56	H	1.160455	-0.496261	0.046533
H57	H	1.194851	-0.508595	0.156256
H58	H	1.119539	-0.578032	0.112743
H59	H	1.065105	-0.447298	-0.125088
H60	H	0.888608	0.218390	0.639324
O61	O	0.879578	0.227234	0.367648
C62	C	0.827762	0.182226	0.417710
H63	H	0.861232	0.116511	0.430671
H64	H	0.814475	0.217283	0.478570
H65	H	0.765681	0.176490	0.384372
O66	O	0.456472	-0.046874	0.000243
C67	C	0.490551	-0.088198	0.071797
H68	H	0.499760	-0.039424	0.121530
H69	H	0.445443	-0.133348	0.095457
H70	H	0.554006	-0.125237	0.056265
O71	O	0.879683	0.227461	0.196975
C72	C	0.893306	0.310621	0.218129
H73	H	0.960556	0.311065	0.241905
H74	H	0.883629	0.352770	0.161211
H75	H	0.846749	0.335275	0.268373
O76	O	0.528244	0.276397	0.000247
C77	C	0.494293	0.317732	0.071853
H78	H	0.484996	0.268953	0.121560
H79	H	0.539531	0.362746	0.095512
H80	H	0.430899	0.354921	0.056390
O81	O	0.913014	-0.317344	0.136091
C82	C	0.914502	-0.229108	0.134731
H83	H	0.922835	-0.207408	0.068386
H84	H	0.852589	-0.196794	0.160616
H85	H	0.969283	-0.211774	0.174091
O86	O	0.424510	0.193965	-0.136139
C87	C	0.383431	0.136583	-0.183441
H88	H	0.366311	0.083248	-0.142011
H89	H	0.323522	0.170740	-0.211681
H90	H	0.427242	0.109362	-0.234881
H91	H	1.140702	-0.352179	-0.000051
O92	O	1.104781	0.002277	0.367648
C93	C	1.092553	0.014531	0.453316
H94	H	1.025767	0.045893	0.465149
H95	H	1.101918	-0.049078	0.486208
H96	H	1.140085	0.056686	0.477866
H97	H	1.095910	0.011228	0.639285
H98	H	0.430138	0.187640	0.125130
H99	H	0.554359	0.042029	-0.125071
H100	H	0.919481	-0.323235	-0.125211
H101	H	0.843715	-0.418021	-0.000065
H102	H	1.095879	0.011213	0.203712
H103	H	1.095923	0.011232	0.796301
O104	O	0.879565	0.227396	0.803010
C105	C	0.829142	0.277797	0.746271
H106	H	0.828195	0.243357	0.684579
H107	H	0.762064	0.290574	0.771295
H108	H	0.856391	0.340215	0.737057
