data_functionalizedCrystal
_audit_creation_method	'MofGen! by Chris Wilmer'
_symmetry_space_group_name_H-M	'P1'
_symmetry_Int_Tables_number	1
_symmetry_cell_setting	triclinic
loop_
_symmetry_equiv_pos_as_xyz
  x,y,z
_cell_length_a	17.699083
_cell_length_b	14.044220
_cell_length_c	16.776229
_cell_angle_alpha	89.992645
_cell_angle_beta	89.998886
_cell_angle_gamma	88.235946
loop_
_atom_site_label
_atom_site_type_symbol
_atom_site_fract_x
_atom_site_fract_y
_atom_site_fract_z
O1	O	1.012346	0.119850	-0.066178
O2	O	0.793043	0.135443	-0.066204
O3	O	0.899403	-0.010330	-0.066183
O4	O	0.905986	0.265624	-0.066198
O5	O	0.899387	-0.010339	0.066393
O6	O	0.793027	0.135434	0.066372
O7	O	1.012330	0.119841	0.066399
Zn8	Zn	0.902676	0.127636	0.087435
Zn9	Zn	0.902697	0.127648	-0.087240
O10	O	0.905970	0.265615	0.066378
C11	C	0.764800	0.134880	0.000081
C12	C	0.680666	0.133204	0.000071
C13	C	0.637948	0.218769	0.000067
C14	C	0.558895	0.217189	0.000077
C15	C	0.522563	0.130041	0.000086
C16	C	0.565287	0.044469	0.000093
C17	C	0.644338	0.046050	0.000088
C18	C	0.246484	0.038089	0.000113
C19	C	0.167427	0.036514	0.000115
C20	C	0.161041	0.209227	0.000102
C21	C	0.240092	0.210809	0.000097
C22	C	0.282809	0.125237	0.000108
C23	C	0.368527	0.126952	0.000098
C24	C	0.436847	0.128325	0.000090
C25	C	0.896513	-0.045643	0.000105
C26	C	0.887917	-0.150849	0.000105
C27	C	0.872202	-0.343474	0.000091
C28	C	0.933168	-0.401248	0.000096
C29	C	0.924424	-0.508431	0.000089
C30	C	0.880945	-0.236281	0.000099
C31	C	1.040574	0.120404	0.000112
C32	C	1.124707	0.122081	0.000117
C33	C	0.908860	0.300927	0.000088
C34	C	0.917456	0.406133	0.000083
N35	N	0.902667	0.127628	0.206646
N36	N	0.902712	0.127649	-0.206452
C37	C	0.949781	0.063106	0.248372
C38	C	0.949785	0.063105	0.331825
C39	C	0.902679	0.127631	0.373549
C40	C	0.855560	0.192156	0.331817
C41	C	0.855552	0.192152	0.248366
C42	C	0.855589	0.192175	0.668364
C43	C	0.855601	0.192176	0.751821
C44	C	0.949821	0.063128	0.751822
C45	C	0.949813	0.063123	0.668372
C46	C	0.902692	0.127645	0.626647
C47	C	0.902687	0.127644	0.536159
C48	C	0.902687	0.127638	0.464036
H49	H	0.524117	0.286865	0.000073
C50	C	1.001601	-0.007880	0.202483
N51	N	1.040632	-0.061352	0.167922
H52	H	0.817222	0.244712	0.634398
C53	C	0.280053	0.306677	0.000092
N54	N	0.310151	0.378888	0.000094
H55	H	0.988148	0.010565	0.365798
H56	H	0.817239	0.244723	0.785791
C57	C	0.803735	0.263128	0.377717
N58	N	0.764699	0.316584	0.412288
C59	C	1.012553	-0.359322	0.000117
N60	N	1.072343	-0.327739	0.000137
C61	C	0.792822	-0.385400	0.000092
N62	N	0.733034	-0.416990	0.000100
C63	C	0.803730	0.263139	0.202468
N64	N	0.764697	0.316609	0.167898
C65	C	1.001632	-0.007863	0.622480
N66	N	1.040660	-0.061335	0.587915
H67	H	0.667523	0.289735	0.000059
C68	C	1.001649	-0.007856	0.797727
N69	N	1.040685	-0.061319	0.832301
H70	H	0.126251	0.278904	0.000097
H71	H	0.281255	-0.031590	0.000123
C72	C	0.127463	-0.059360	0.000135
N73	N	0.097363	-0.131568	0.000152
H74	H	0.679119	-0.023626	0.000091
C75	C	0.525318	-0.051395	0.000104
N76	N	0.495215	-0.123601	0.000110
