data_functionalizedCrystal
_audit_creation_method	'MofGen! by Chris Wilmer'
_symmetry_space_group_name_H-M	'P1'
_symmetry_Int_Tables_number	1
_symmetry_cell_setting	triclinic
loop_
_symmetry_equiv_pos_as_xyz
  x,y,z
_cell_length_a	6.394989
_cell_length_b	10.723024
_cell_length_c	9.798715
_cell_angle_alpha	90.001978
_cell_angle_beta	90.003183
_cell_angle_gamma	85.482790
loop_
_atom_site_label
_atom_site_type_symbol
_atom_site_fract_x
_atom_site_fract_y
_atom_site_fract_z
O1	O	-2.774423	-0.204469	-0.113473
O2	O	-2.166442	-0.214770	-0.113478
O3	O	-2.484456	-0.028192	-0.113470
O4	O	-2.456408	-0.391047	-0.113481
O5	O	-2.484432	-0.028192	0.113512
O6	O	-2.166418	-0.214769	0.113504
O7	O	-2.774399	-0.204469	0.113509
Zn8	Zn	-2.470405	-0.209619	0.149545
Zn9	Zn	-2.470436	-0.209620	-0.149514
O10	O	-2.456385	-0.391046	0.113501
C11	C	-2.482403	0.018329	0.000019
C12	C	-2.476296	0.156948	0.000014
C13	C	-2.458438	-0.437568	0.000009
C14	C	-2.464544	-0.576187	0.000005
N15	N	-2.470399	-0.209618	0.353645
C16	C	-2.088579	-0.212733	0.000019
C17	C	-1.852255	-0.206509	0.000025
N18	N	-2.470459	-0.209611	-0.353614
C19	C	-2.654241	0.230042	0.000014
C20	C	-2.647933	0.373313	0.000009
C21	C	-2.603924	-0.130927	0.421425
C22	C	-2.603958	-0.130923	0.578588
H23	H	-2.811255	0.186554	0.000024
H24	H	-2.800267	0.436129	0.000015
C25	C	-2.258731	0.338962	0.000004
N26	N	-2.103712	0.275044	0.000000
C27	C	-2.758297	-0.039893	0.342640
N28	N	-2.874564	0.028683	0.283300
C29	C	-2.758399	-0.039906	0.657330
N30	N	-2.874726	0.028653	0.716642
C31	C	-2.316010	-0.300632	0.567653
N32	N	-2.199676	-0.369187	0.508341
H33	H	-2.319282	0.200437	0.000004
H34	H	-2.356099	-0.276980	0.411966
