data_functionalizedCrystal
_audit_creation_method	'MofGen! by Chris Wilmer'
_symmetry_space_group_name_H-M	'P1'
_symmetry_Int_Tables_number	1
_symmetry_cell_setting	triclinic
loop_
_symmetry_equiv_pos_as_xyz
  x,y,z
_cell_length_a	18.101398
_cell_length_b	19.121063
_cell_length_c	18.101390
_cell_angle_alpha	92.404924
_cell_angle_beta	89.975319
_cell_angle_gamma	92.464489
loop_
_atom_site_label
_atom_site_type_symbol
_atom_site_fract_x
_atom_site_fract_y
_atom_site_fract_z
Zn1	Zn	1.119561	-0.279674	-0.431399
Zn2	Zn	1.619561	0.220326	0.068601
Zn3	Zn	1.114180	-0.397138	-0.312833
Zn4	Zn	1.614180	0.102862	0.187167
Zn5	Zn	0.995718	-0.279696	-0.307561
Zn6	Zn	1.495718	0.220304	0.192439
Zn7	Zn	0.990397	-0.397078	-0.436619
Zn8	Zn	1.490397	0.102922	0.063381
O9	O	1.054964	-0.338397	-0.372103
O10	O	1.554964	0.161603	0.127897
O11	O	1.222480	-0.295271	-0.415693
O12	O	1.722480	0.204729	0.084307
O13	O	1.098441	-0.381594	-0.208503
O14	O	1.598441	0.118406	0.291497
O15	O	1.016625	-0.181409	-0.319598
O16	O	1.516625	0.318591	0.180402
O17	O	1.218526	-0.381572	-0.328583
O18	O	1.718526	0.118428	0.171417
O19	O	1.107612	-0.181393	-0.410581
O20	O	1.607612	0.318607	0.089419
O21	O	1.011407	-0.295310	-0.204629
O22	O	1.511407	0.204690	0.295371
O23	O	0.891380	-0.295252	-0.324660
O24	O	1.391380	0.204748	0.175340
O25	O	1.007556	-0.381470	-0.539558
O26	O	1.507556	0.118530	-0.039558
O27	O	0.887471	-0.381492	-0.419478
O28	O	1.387471	0.118508	0.080522
O29	O	1.102453	-0.295213	-0.535723
O30	O	1.602453	0.204787	-0.035723
O31	O	1.093281	-0.495414	-0.333645
O32	O	1.593281	0.004586	0.166355
O33	O	1.002339	-0.495370	-0.424590
O34	O	1.502339	0.004630	0.075410
C35	C	0.862555	-0.338368	-0.372063
C36	C	1.362555	0.161632	0.127937
C37	C	0.780241	-0.338373	-0.372065
C38	C	1.280241	0.161627	0.127935
C39	C	0.481148	-0.338417	-0.372129
C40	C	0.981148	0.161583	0.127871
C41	C	0.514920	-0.283886	-0.312739
C42	C	1.014920	0.216114	0.187261
C43	C	0.600532	-0.284032	-0.312502
C44	C	1.100532	0.215968	0.187498
C45	C	0.629531	-0.338394	-0.372097
C46	C	1.129531	0.161606	0.127903
C47	C	0.595090	-0.412381	-0.354095
C48	C	1.095090	0.087619	0.145905
C49	C	0.509458	-0.412078	-0.353686
C50	C	1.009458	0.087922	0.146314
C51	C	0.513608	-0.319604	-0.449683
C52	C	1.013608	0.180396	0.050317
C53	C	0.599333	-0.317957	-0.449182
C54	C	1.099333	0.182043	0.050818
C55	C	0.713391	-0.338386	-0.372080
C56	C	1.213391	0.161614	0.127920
C57	C	0.397288	-0.338430	-0.372144
C58	C	0.897288	0.161570	0.127856
C59	C	1.046669	-0.520876	-0.380272
C60	C	1.546669	-0.020876	0.119728
C61	C	1.043188	-0.598942	-0.383791
C62	C	1.543188	-0.098942	0.116209
C63	C	1.088938	-0.635616	-0.338133
C64	C	1.588938	-0.135616	0.161867
C65	C	1.085668	-0.708967	-0.341448
C66	C	1.585668	-0.208967	0.158552
C67	C	1.036644	-0.745642	-0.390416
C68	C	1.536644	-0.245642	0.109584
C69	C	0.990892	-0.708962	-0.436079
C70	C	1.490892	-0.208962	0.063921
C71	C	0.994166	-0.635612	-0.432768
C72	C	1.494166	-0.135612	0.067232
C73	C	1.024392	-0.967110	-0.402783
C74	C	1.524392	-0.467110	0.097217
C75	C	1.021120	-1.040464	-0.406089
C76	C	1.521120	-0.540464	0.093911
C77	C	1.115898	-1.040465	-0.311459
C78	C	1.615898	-0.540465	0.188541
C79	C	1.119164	-0.967114	-0.308149
C80	C	1.619164	-0.467114	0.191851
C81	C	1.073415	-0.930440	-0.353814
C82	C	1.573415	-0.430440	0.146186
C83	C	1.033299	-0.820618	-0.393803
C84	C	1.533299	-0.320618	0.106197
C85	C	1.076764	-0.855465	-0.350430
C86	C	1.576764	-0.355465	0.149570
C87	C	1.248125	-0.338426	-0.372144
C88	C	1.748125	0.161574	0.127856
C89	C	1.330438	-0.338438	-0.372161
C90	C	1.830438	0.161562	0.127839
C91	C	1.055011	-0.338333	-0.565262
C92	C	1.555011	0.161667	-0.065262
C93	C	1.055031	-0.338305	-0.647575
C94	C	1.555031	0.161695	-0.147575
C95	C	1.063313	-0.155205	-0.363919
C96	C	1.563313	0.344795	0.136081
C97	C	1.066870	-0.077139	-0.360432
C98	C	1.566870	0.422861	0.139568
C99	C	1.055073	-0.338261	-0.946665
C100	C	1.555073	0.161739	-0.446665
C101	C	1.114959	-0.284182	-0.912935
C102	C	1.614959	0.215818	-0.412935
C103	C	1.114789	-0.283981	-0.827308
C104	C	1.614789	0.216019	-0.327308
C105	C	1.055053	-0.338283	-0.798283
C106	C	1.555053	0.161717	-0.298283
C107	C	0.977940	-0.318168	-0.828446
C108	C	1.477940	0.181832	-0.328446
C109	C	0.978302	-0.317763	-0.914073
C110	C	1.478302	0.182237	-0.414073
C111	C	1.071607	-0.412595	-0.918417
C112	C	1.571607	0.087405	-0.418417
C113	C	1.073336	-0.412216	-0.832750
C114	C	1.573336	0.087784	-0.332750
C115	C	1.055037	-0.338297	-0.714424
C116	C	1.555037	0.161703	-0.214424
C117	C	1.055084	-0.338246	-1.030523
C118	C	1.555084	0.161754	-0.530523
C119	C	1.054963	-0.338410	-0.179693
C120	C	1.554963	0.161590	0.320307
C121	C	1.055095	-0.338239	-0.097372
C122	C	1.555095	0.161761	0.402628
H123	H	0.619084	-0.354780	-0.495534
H124	H	1.119084	0.145220	0.004466
H125	H	0.613581	-0.454100	-0.396144
H126	H	1.113581	0.045900	0.103856
H127	H	0.987139	-0.937256	-0.439965
H128	H	1.487139	-0.437256	0.060035
H129	H	0.496822	-0.228854	-0.323487
H130	H	0.996822	0.271146	0.176513
Br131	Br	0.629563	-0.439435	-0.260815
Br132	Br	1.129563	0.060565	0.239185
H133	H	0.622122	-0.263511	-0.462816
H134	H	1.122122	0.236489	0.037184
H135	H	0.494417	-0.266592	-0.466691
H136	H	0.994417	0.233408	0.033309
Br137	Br	0.954570	-1.090237	-0.472539
Br138	Br	1.454570	-0.590237	0.027461
Br139	Br	0.998837	-0.479753	-0.955163
Br140	Br	1.498837	0.020247	-0.455163
Br141	Br	0.953371	-0.228606	-0.788698
Br142	Br	1.453371	0.271394	-0.288698
H143	H	1.172074	-0.296579	-0.806871
H144	H	1.672074	0.203421	-0.306871
Br145	Br	0.932078	-0.585838	-0.494739
Br146	Br	1.432078	-0.085838	0.005261
Br147	Br	0.639713	-0.192588	-0.330674
Br148	Br	1.139713	0.307412	0.169326
H149	H	1.172441	-0.296624	-0.934101
H150	H	1.672441	0.203376	-0.434101
Br151	Br	0.924364	-0.758734	-0.502543
Br152	Br	1.424364	-0.258734	-0.002543
Br153	Br	0.476874	-0.385803	-0.523370
Br154	Br	0.976874	0.114197	-0.023370
Br155	Br	1.155467	-0.585851	-0.271666
Br156	Br	1.655467	-0.085851	0.228334
H157	H	1.122922	-0.738825	-0.304268
H158	H	1.622922	-0.238825	0.195732
H159	H	1.159083	-0.937255	-0.268275
H160	H	1.659083	-0.437255	0.231725
Br161	Br	1.096988	-0.192198	-0.789054
Br162	Br	1.596988	0.307802	-0.289054
Br163	Br	1.177986	-1.090239	-0.249492
Br164	Br	1.677986	-0.590239	0.250508
H165	H	1.116682	-0.825603	-0.310563
H166	H	1.616682	-0.325603	0.189437
H167	H	0.993382	-0.850487	-0.433672
H168	H	1.493382	-0.350487	0.066328
H169	H	1.104431	-0.229422	-0.932012
H170	H	1.604431	0.270578	-0.432012
H171	H	0.963896	-0.263426	-0.931622
H172	H	1.463896	0.236574	-0.431622
Br173	Br	1.167898	-0.437497	-0.800053
Br174	Br	1.667898	0.062503	-0.300053
H175	H	0.932344	-0.355438	-0.936469
H176	H	1.432344	0.144562	-0.436469
H177	H	0.932253	-0.356344	-0.809778
H178	H	1.432253	0.143656	-0.309778
H179	H	1.126676	-0.430910	-0.940889
H180	H	1.626676	0.069090	-0.440889
Br181	Br	1.005474	-0.482986	-0.800235
Br182	Br	1.505474	0.017014	-0.300235
H183	H	0.492818	-0.296182	-0.255536
H184	H	0.992818	0.203818	0.244464
H185	H	0.488730	-0.428031	-0.297088
H186	H	0.988730	0.071969	0.202912
Br187	Br	0.633698	-0.304755	-0.216605
Br188	Br	1.133698	0.195245	0.283395
H189	H	0.486850	-0.454084	-0.395237
H190	H	0.986850	0.045916	0.104763
