data_functionalizedCrystal
_audit_creation_method	'MofGen! by Chris Wilmer'
_symmetry_space_group_name_H-M	'P1'
_symmetry_Int_Tables_number	1
_symmetry_cell_setting	triclinic
loop_
_symmetry_equiv_pos_as_xyz
  x,y,z
_cell_length_a	10.685980
_cell_length_b	21.295417
_cell_length_c	10.686551
_cell_angle_alpha	85.587790
_cell_angle_beta	81.591741
_cell_angle_gamma	94.396638
loop_
_atom_site_label
_atom_site_type_symbol
_atom_site_fract_x
_atom_site_fract_y
_atom_site_fract_z
Zn1	Zn	1.995708	-0.141098	-0.866660
Zn2	Zn	2.495708	0.358902	-0.366660
Zn3	Zn	1.979220	-0.255141	-0.654362
Zn4	Zn	2.479220	0.244859	-0.154362
Zn5	Zn	1.767125	-0.158619	-0.638119
Zn6	Zn	2.267125	0.341381	-0.138119
Zn7	Zn	1.783344	-0.255080	-0.850272
Zn8	Zn	2.283344	0.244920	-0.350272
O9	O	1.881349	-0.202485	-0.752353
O10	O	2.381349	0.297515	-0.252353
O11	O	2.171158	-0.148919	-0.852155
O12	O	2.671158	0.351081	-0.352155
O13	O	1.937398	-0.249695	-0.474573
O14	O	2.437398	0.250305	0.025427
O15	O	1.797559	-0.068199	-0.668497
O16	O	2.297559	0.431801	-0.168497
O17	O	2.159045	-0.232706	-0.696180
O18	O	2.659045	0.267294	-0.196180
O19	O	1.965498	-0.055327	-0.836405
O20	O	2.465498	0.444673	-0.336405
O21	O	1.781572	-0.178781	-0.462640
O22	O	2.281572	0.321219	0.037360
O23	O	1.591639	-0.178722	-0.652606
O24	O	2.091639	0.321278	-0.152606
O25	O	1.825203	-0.232602	-1.030080
O26	O	2.325203	0.267398	-0.530080
O27	O	1.603555	-0.249591	-0.808474
O28	O	2.103555	0.250409	-0.308474
O29	O	1.981225	-0.148860	-1.042121
O30	O	2.481225	0.351140	-0.542121
O31	O	1.953125	-0.343229	-0.680289
O32	O	2.453125	0.156771	-0.180289
O33	O	1.809215	-0.343184	-0.824223
O34	O	2.309215	0.156816	-0.324223
C35	C	1.551538	-0.216051	-0.727000
C36	C	2.051538	0.283949	-0.227000
C37	C	1.410445	-0.221869	-0.716183
C38	C	1.910445	0.278131	-0.216183
C39	C	1.881178	-0.366046	-0.752270
C40	C	2.381178	0.133954	-0.252270
C41	C	1.881223	-0.436012	-0.752286
C42	C	2.381223	0.063988	-0.252286
C43	C	1.956236	-0.468874	-0.677428
C44	C	2.456236	0.031126	-0.177428
C45	C	1.956297	-0.534613	-0.677461
C46	C	2.456297	-0.034613	-0.177461
C47	C	1.881323	-0.567488	-0.752337
C48	C	2.381323	-0.067488	-0.252337
C49	C	1.806307	-0.534617	-0.827211
C50	C	2.306307	-0.034617	-0.327211
C51	C	1.806257	-0.468879	-0.827185
C52	C	2.306257	0.031121	-0.327185
N53	N	1.771020	-0.674927	-0.753478
N54	N	2.271020	-0.174927	-0.253478
N55	N	1.771070	-0.737375	-0.753495
N56	N	2.271070	-0.237375	-0.253495
C57	C	1.881471	-0.765554	-0.752421
C58	C	2.381471	-0.265554	-0.252421
N59	N	1.991820	-0.728926	-0.751305
N60	N	2.491820	-0.228926	-0.251305
N61	N	1.991768	-0.666472	-0.751281
N62	N	2.491768	-0.166472	-0.251281
C63	C	1.881369	-0.638771	-0.752374
C64	C	2.381369	-0.138771	-0.252374
C65	C	1.956557	-0.869698	-0.677595
C66	C	2.456557	-0.369698	-0.177595
C67	C	1.956621	-0.935438	-0.677637
C68	C	2.456621	-0.435438	-0.177637
C69	C	1.806618	-0.935442	-0.827379
C70	C	2.306618	-0.435442	-0.327379
C71	C	1.806566	-0.869702	-0.827345
C72	C	2.306566	-0.369702	-0.327345
C73	C	1.881533	-0.836835	-0.752446
C74	C	2.381533	-0.336835	-0.252446
C75	C	2.212449	-0.188865	-0.777807
C76	C	2.712449	0.311135	-0.277807
C77	C	2.353544	-0.183061	-0.788654
C78	C	2.853544	0.316939	-0.288654
C79	C	1.881559	-0.038282	-0.752467
C80	C	2.381559	0.461718	-0.252467
C81	C	1.881648	0.031692	-0.752516
C82	C	2.381648	0.531692	-0.252516
C83	C	1.906862	-0.188770	-1.083447
C84	C	2.406862	0.311230	-0.583447
C85	C	1.917734	-0.182925	-1.224539
C86	C	2.417734	0.317075	-0.724539
C87	C	1.856009	-0.216098	-0.422554
C88	C	2.356009	0.283902	0.077446
C89	C	1.845383	-0.221755	-0.281481
C90	C	2.345383	0.278245	0.218519
H91	H	1.412769	-0.145382	-0.858972
H92	H	1.912769	0.354618	-0.358972
O93	O	1.761727	-0.266779	-1.210748
O94	O	2.261727	0.233221	-0.710748
C95	C	1.828115	-0.307614	-1.139615
C96	C	2.328115	0.192386	-0.639615
H97	H	1.922841	-0.282260	-1.127300
H98	H	2.422841	0.217740	-0.627300
H99	H	1.769299	-0.321996	-1.042354
H100	H	2.269299	0.178004	-0.542354
H101	H	1.845887	-0.351606	-1.191669
H102	H	2.345887	0.148394	-0.691669
H103	H	1.988005	-0.145210	-1.283736
H104	H	2.488005	0.354790	-0.783736
O105	O	2.029377	-0.967464	-0.604949
O106	O	2.529377	-0.467464	-0.104949
C107	C	1.950965	-1.011941	-0.517358
C108	C	2.450965	-0.511941	-0.017358
H109	H	1.858123	-1.023912	-0.554566
H110	H	2.358123	-0.523912	-0.054566
H111	H	2.001440	-1.056725	-0.504544
H112	H	2.501440	-0.556725	-0.004544
H113	H	1.929927	-0.991151	-0.422136
H114	H	2.429927	-0.491151	0.077864
H115	H	2.017604	-0.842936	-0.616612
H116	H	2.517604	-0.342936	-0.116612
O117	O	1.339751	-0.266885	-0.632458
O118	O	1.839751	0.233115	-0.132458
C119	C	1.268579	-0.307728	-0.698759
C120	C	1.768579	0.192272	-0.198759
H121	H	1.316325	-0.305919	-0.801758
H122	H	1.816325	0.194081	-0.301758
H123	H	1.263353	-0.358115	-0.652543
H124	H	1.763353	0.141885	-0.152543
H125	H	1.168510	-0.292179	-0.695588
H126	H	1.668510	0.207821	-0.195588
H127	H	1.745579	-0.962207	-0.888351
H128	H	2.245579	-0.462207	-0.388351
O129	O	2.029186	-0.437041	-0.604657
O130	O	2.529186	0.062959	-0.104657
C131	C	2.095387	-0.480151	-0.538570
C132	C	2.595387	0.019849	-0.038570
H133	H	2.103773	-0.524666	-0.590917
H134	H	2.603773	-0.024666	-0.090917
H135	H	2.194365	-0.457558	-0.532798
H136	H	2.694365	0.042442	-0.032798
H137	H	2.041556	-0.493088	-0.438558
H138	H	2.541556	0.006912	0.061442
O139	O	2.029284	-0.566569	-0.604911
O140	O	2.529284	-0.066569	-0.104911
C141	C	2.116798	-0.598200	-0.683524
C142	C	2.616798	-0.098200	-0.183524
H143	H	2.132305	-0.573899	-0.784095
H144	H	2.632305	-0.073899	-0.284095
H145	H	2.210971	-0.596808	-0.645160
H146	H	2.710971	-0.096808	-0.145160
H147	H	2.077886	-0.649468	-0.684884
H148	H	2.577886	-0.149468	-0.184884
O149	O	1.733457	-0.437012	-0.900081
O150	O	2.233457	0.062988	-0.400081
C151	C	1.770883	-0.446638	-1.028756
C152	C	2.270883	0.053362	-0.528756
H153	H	1.819923	-0.492225	-1.035202
H154	H	2.319923	0.007775	-0.535202
H155	H	1.683606	-0.450332	-1.078557
H156	H	2.183606	0.049668	-0.578557
H157	H	1.839382	-0.405140	-1.076557
H158	H	2.339382	0.094860	-0.576557
O159	O	1.733656	-0.566609	-0.900020
O160	O	2.233656	-0.066609	-0.400020
C161	C	1.812216	-0.598201	-0.987648
C162	C	2.312216	-0.098201	-0.487648
H163	H	1.905014	-0.605906	-0.950355
H164	H	2.405014	-0.105906	-0.450355
H165	H	1.761838	-0.645874	-1.000658
H166	H	2.261838	-0.145874	-0.500658
H167	H	1.833320	-0.568372	-1.082787
H168	H	2.333320	-0.068372	-0.582787
H169	H	1.745478	-0.842944	-0.888295
H170	H	2.245478	-0.342944	-0.388295
