data_functionalizedCrystal
_audit_creation_method	'MofGen! by Chris Wilmer'
_symmetry_space_group_name_H-M	'P1'
_symmetry_Int_Tables_number	1
_symmetry_cell_setting	triclinic
loop_
_symmetry_equiv_pos_as_xyz
  x,y,z
_cell_length_a	14.908783
_cell_length_b	13.897441
_cell_length_c	14.908520
_cell_angle_alpha	86.734773
_cell_angle_beta	83.208414
_cell_angle_gamma	86.678177
loop_
_atom_site_label
_atom_site_type_symbol
_atom_site_fract_x
_atom_site_fract_y
_atom_site_fract_z
Zn1	Zn	1.363075	-0.646927	0.280577
Zn2	Zn	1.354228	-0.494414	0.431967
Zn3	Zn	1.211695	-0.476829	0.289341
Zn4	Zn	1.202935	-0.646850	0.440623
O5	O	1.282983	-0.566255	0.360627
O6	O	1.488571	-0.634087	0.293369
O7	O	1.335283	-0.357100	0.413092
O8	O	1.239144	-0.492065	0.161509
O9	O	1.482071	-0.522037	0.404594
O10	O	1.350363	-0.617035	0.155071
O11	O	1.230565	-0.344180	0.308305
O12	O	1.083863	-0.491991	0.316699
O13	O	1.224215	-0.781841	0.419347
O14	O	1.077428	-0.616904	0.427845
O15	O	1.341869	-0.781898	0.301763
O16	O	1.326790	-0.521963	0.559784
O17	O	1.215636	-0.633956	0.566144
C18	C	1.047801	-0.552531	0.374163
C19	C	0.947188	-0.546685	0.379975
C20	C	0.764884	-0.652573	0.275237
C21	C	0.670349	-0.647083	0.280695
C22	C	0.663583	-0.530208	0.396345
C23	C	0.758118	-0.535699	0.390887
C24	C	0.808765	-0.596885	0.330332
C25	C	0.903301	-0.602380	0.324879
C26	C	0.896533	-0.485501	0.440523
C27	C	0.801999	-0.480010	0.445981
C28	C	1.283052	-0.817847	0.360543
C29	C	1.283081	-0.925061	0.360507
C30	C	1.283110	-1.121354	0.360445
C31	C	1.283091	-1.012122	0.360482
C32	C	1.519083	-0.580032	0.347039
C33	C	1.619695	-0.585904	0.341248
C34	C	1.269327	-0.579882	0.595806
C35	C	1.263567	-0.585749	0.696412
C36	C	1.282971	-0.315641	0.360642
C37	C	1.283131	-0.208423	0.360412
C38	C	1.296718	-0.552597	0.124528
C39	C	1.302570	-0.546777	0.023916
C40	C	1.368608	-0.480260	0.878771
C41	C	1.363200	-0.485770	0.973300
C42	C	1.247347	-0.602281	0.979998
C43	C	1.252756	-0.596772	0.885470
C44	C	1.313387	-0.535758	0.834860
C45	C	1.318791	-0.530244	0.740330
C46	C	1.202943	-0.646760	0.747030
C47	C	1.197535	-0.652270	0.841558
H48	H	0.806121	-0.702398	0.225935
H49	H	0.622330	-0.480383	0.445635
C50	C	0.746276	-0.412710	0.512589
N51	N	0.704307	-0.362022	0.562761
C52	C	0.959011	-0.669681	0.258265
N53	N	1.000971	-0.720372	0.208086
H54	H	1.197990	-0.651962	1.021221
H55	H	1.148173	-0.701948	0.882778
C56	C	0.944810	-0.424241	0.501132
N57	N	0.981173	-0.378103	0.546784
C58	C	1.423944	-0.424714	1.021599
N59	N	1.469699	-0.378723	1.057978
H60	H	1.368157	-0.480561	0.699124
H61	H	1.417971	-0.430574	0.837564
H62	H	1.157976	-0.691948	0.711267
H63	H	0.634625	-0.692428	0.235830
