data_functionalizedCrystal
_audit_creation_method	'MofGen! by Chris Wilmer'
_symmetry_space_group_name_H-M	'P1'
_symmetry_Int_Tables_number	1
_symmetry_cell_setting	triclinic
loop_
_symmetry_equiv_pos_as_xyz
  x,y,z
_cell_length_a	25.639239
_cell_length_b	25.639242
_cell_length_c	25.639233
_cell_angle_alpha	89.978417
_cell_angle_beta	89.981253
_cell_angle_gamma	90.033587
loop_
_atom_site_label
_atom_site_type_symbol
_atom_site_fract_x
_atom_site_fract_y
_atom_site_fract_z
Zn1	Zn	-0.208286	0.799225	-0.295734
Zn2	Zn	-0.295704	0.799149	-0.208298
Zn3	Zn	-0.208277	0.711801	-0.208299
Zn4	Zn	-0.295684	0.711746	-0.295689
O5	O	-0.251988	0.755480	-0.252005
O6	O	-0.219894	0.872380	-0.284154
O7	O	-0.284112	0.787553	-0.135133
O8	O	-0.135113	0.723453	-0.219917
O9	O	-0.284120	0.872324	-0.219915
O10	O	-0.135119	0.787683	-0.284155
O11	O	-0.219879	0.723379	-0.135134
O12	O	-0.219860	0.638629	-0.219873
O13	O	-0.284085	0.723360	-0.368860
O14	O	-0.284077	0.638589	-0.284078
O15	O	-0.219874	0.787630	-0.368893
O16	O	-0.368867	0.787499	-0.219872
O17	O	-0.368852	0.723286	-0.284078
C18	C	-0.251966	0.619638	-0.251971
C19	C	-0.251969	0.561524	-0.251969
C20	C	-0.218494	0.310343	-0.218631
C21	C	-0.218489	0.364947	-0.218625
O22	O	-0.189997	0.393194	-0.190250
N23	N	-0.251975	0.392250	-0.251995
C24	C	-0.285465	0.364946	-0.285378
O25	O	-0.313947	0.393183	-0.313762
C26	C	-0.285467	0.310342	-0.285387
C27	C	-0.251982	0.283042	-0.252011
C28	C	-0.185011	0.283042	-0.185258
C29	C	-0.185017	0.228442	-0.185264
C30	C	-0.218505	0.201141	-0.218644
C31	C	-0.251987	0.228442	-0.252017
C32	C	-0.318953	0.283039	-0.318773
C33	C	-0.318952	0.228432	-0.318779
C34	C	-0.285467	0.201132	-0.285403
C35	C	-0.285481	0.146541	-0.285402
N36	N	-0.251995	0.119238	-0.252032
C37	C	-0.218507	0.146538	-0.218652
C38	C	-0.285458	0.479616	-0.285358
C39	C	-0.285459	0.534219	-0.285347
C40	C	-0.218482	0.534216	-0.218594
C41	C	-0.218484	0.479613	-0.218602
C42	C	-0.251971	0.452313	-0.251987
C43	C	-0.218522	0.031873	-0.218667
C44	C	-0.218532	-0.022732	-0.218675
C45	C	-0.285506	-0.022725	-0.285430
C46	C	-0.285498	0.031876	-0.285421
C47	C	-0.252002	0.059173	-0.252038
O48	O	-0.313958	0.118259	-0.313764
O49	O	-0.190025	0.118294	-0.190278
C50	C	-0.387830	0.755392	-0.251981
C51	C	-0.445944	0.755403	-0.251988
C52	C	-0.806303	0.789004	-0.218630
C53	C	-0.860907	0.789024	-0.218637
O54	O	-0.889139	0.817502	-0.190249
N55	N	-0.888227	0.755572	-0.252040
C56	C	-0.860939	0.722102	-0.285441
O57	O	-0.889191	0.693651	-0.313854
C58	C	-0.806336	0.722085	-0.285437
C59	C	-0.779019	0.755535	-0.252028
C60	C	-0.778985	0.822452	-0.185225
C61	C	-0.724385	0.822431	-0.185217
C62	C	-0.697101	0.788962	-0.218615
C63	C	-0.724419	0.755514	-0.252021
C64	C	-0.779050	0.688617	-0.318840
C65	C	-0.724443	0.688603	-0.318833
C66	C	-0.697126	0.722053	-0.285425
C67	C	-0.642535	0.722024	-0.285411
N68	N	-0.615215	0.755475	-0.252008
C69	C	-0.642498	0.788944	-0.218610
C70	C	-0.975610	0.722141	-0.285449
C71	C	-1.030212	0.722155	-0.285452
C72	C	-1.030176	0.789078	-0.218648
C73	C	-0.975573	0.789061	-0.218644
C74	C	-0.948290	0.755593	-0.252047
C75	C	-0.527833	0.788897	-0.218597
C76	C	-0.473228	0.788872	-0.218591
C77	C	-0.473269	0.721951	-0.285396
C78	C	-0.527869	0.721974	-0.285400
C79	C	-0.555150	0.755452	-0.251999
O80	O	-0.614267	0.693562	-0.313786
O81	O	-0.614240	0.817396	-0.190208
C82	C	-0.115615	0.755583	-0.252041
C83	C	-0.057501	0.755627	-0.252056
C84	C	-0.251979	0.755497	-0.388378
C85	C	-0.251975	0.755504	-0.446492
C86	C	-0.252010	0.891853	-0.252040
C87	C	-0.252020	0.949967	-0.252054
C88	C	-0.218440	0.789012	-0.806878
C89	C	-0.218426	0.789019	-0.861483
O90	O	-0.189976	0.817466	-0.889739
N91	N	-0.251852	0.755562	-0.888775
C92	C	-0.285291	0.722093	-0.861460
O93	O	-0.313721	0.693636	-0.889688
C94	C	-0.285302	0.722084	-0.806857
C95	C	-0.251878	0.755547	-0.779567
C96	C	-0.185018	0.822472	-0.779589
C97	C	-0.185034	0.822466	-0.724988
C98	C	-0.218471	0.789000	-0.697677
C99	C	-0.251893	0.755541	-0.724967
C100	C	-0.318738	0.688613	-0.779543
C101	C	-0.318747	0.688607	-0.724936
C102	C	-0.285322	0.722069	-0.697646
C103	C	-0.285346	0.722070	-0.643055
N104	N	-0.251920	0.755526	-0.615763
C105	C	-0.218482	0.788992	-0.643074
C106	C	-0.285264	0.722113	-0.976131
C107	C	-0.285255	0.722124	-1.030733
C108	C	-0.218390	0.789049	-1.030752
C109	C	-0.218401	0.789041	-0.976149
C110	C	-0.251838	0.755570	-0.948839
C111	C	-0.218517	0.788977	-0.528409
C112	C	-0.218537	0.788970	-0.473803
C113	C	-0.285401	0.722043	-0.473789
C114	C	-0.285383	0.722052	-0.528390
C115	C	-0.251937	0.755521	-0.555698
O116	O	-0.313780	0.693635	-0.614764
O117	O	-0.190053	0.817439	-0.614839
C118	C	-0.251959	0.755494	-0.116163
C119	C	-0.251816	0.755588	-0.058049
H120	H	-0.191264	-0.044958	-0.191494
O121	O	-0.185971	0.058304	-0.186187
C122	C	-0.156416	0.022490	-0.156743
H123	H	-0.177835	-0.016443	-0.154909
H124	H	-0.150780	0.038242	-0.115554
H125	H	-0.116734	0.016713	-0.175958
H126	H	-0.157750	0.206219	-0.158086
O127	O	-0.318021	0.453043	-0.317713
C128	C	-0.351758	0.421435	-0.287890
H129	H	-0.333258	0.413237	-0.248304
H130	H	-0.358805	0.383048	-0.309183
H131	H	-0.390492	0.442459	-0.282067
O132	O	-0.446735	0.689518	-0.317894
C133	C	-0.415099	0.719261	-0.351675
H134	H	-0.431521	0.760441	-0.354946
H135	H	-0.414471	0.700329	-0.391894
H136	H	-0.373724	0.721064	-0.335501
H137	H	-0.550039	0.816159	-0.191399
H138	H	-0.157787	0.849723	-0.801820
H139	H	-0.953399	0.694883	-0.312649
O140	O	-0.805552	0.656181	-0.351372
C141	C	-0.792156	0.667568	-0.403487
H142	H	-0.777111	0.709333	-0.406160
H143	H	-0.828052	0.663058	-0.429326
H144	H	-0.760474	0.639523	-0.417118
H145	H	-0.191281	0.816229	-0.550637
H146	H	-0.191216	0.457388	-0.191426
O147	O	-0.318078	-0.049169	-0.317876
C148	C	-0.347621	-0.013369	-0.347348
H149	H	-0.349411	0.025542	-0.325925
H150	H	-0.388820	-0.029172	-0.352865
H151	H	-0.328522	-0.007528	-0.387085
O152	O	-0.697917	0.656165	-0.351337
C153	C	-0.666279	0.685898	-0.385124
H154	H	-0.682692	0.727082	-0.388397
H155	H	-0.665660	0.666962	-0.425342
H156	H	-0.624901	0.687693	-0.368956
H157	H	-0.191213	0.556454	-0.191415
H158	H	-0.191183	0.816288	-0.953933
O159	O	-0.152511	0.854984	-0.698564
C160	C	-0.123007	0.884527	-0.734388
H161	H	-0.121192	0.863114	-0.773304
H162	H	-0.081815	0.890131	-0.718623
H163	H	-0.142157	0.924223	-0.740203
O164	O	-0.318007	0.560654	-0.317814
C165	C	-0.347573	0.524842	-0.347264
H166	H	-0.326160	0.485932	-0.349114
H167	H	-0.353212	0.540632	-0.388448
H168	H	-0.387253	0.519005	-0.328045
H169	H	-0.157738	0.305264	-0.158076
H170	H	-0.346220	0.305258	-0.345951
H171	H	-0.346220	0.206208	-0.345967
H172	H	-0.191318	0.816221	-0.451587
H173	H	-0.702147	0.849670	-0.158015
H174	H	-0.312768	0.054105	-0.312594
H175	H	-0.450988	0.816111	-0.191384
H176	H	-0.801194	0.849709	-0.158028
O177	O	-0.949120	0.821605	-0.186176
C178	C	-0.984917	0.851136	-0.156691
H179	H	-1.023828	0.852940	-0.178114
H180	H	-0.969110	0.892330	-0.151153
H181	H	-0.990758	0.832016	-0.116963
H182	H	-0.191162	0.816298	-1.052998
O183	O	-1.056765	0.821613	-0.186292
C184	C	-1.110816	0.814462	-0.193475
H185	H	-1.118254	0.797263	-0.233789
H186	H	-1.131518	0.853649	-0.190038
H187	H	-1.126383	0.786695	-0.162407
H188	H	-1.052449	0.694912	-0.312652
O189	O	-0.554328	0.689463	-0.317900
C190	C	-0.518535	0.659907	-0.347365
H191	H	-0.479588	0.681304	-0.349186
H192	H	-0.534293	0.654312	-0.388557
H193	H	-0.512779	0.620208	-0.328177
O194	O	-0.317745	0.689573	-1.057158
C195	C	-0.347268	0.660048	-1.021337
H196	H	-0.325860	0.658252	-0.982416
H197	H	-0.352837	0.618850	-1.037098
H198	H	-0.386981	0.679165	-1.015531
H199	H	-0.312495	0.694857	-0.953898
H200	H	-0.345956	0.661364	-0.801753
H201	H	-0.345970	0.661345	-0.702703
H202	H	-0.312605	0.694809	-0.550610
O203	O	-0.317905	0.689612	-0.447192
C204	C	-0.351691	0.719356	-0.415621
H205	H	-0.333259	0.758994	-0.407465
H206	H	-0.358694	0.698057	-0.377211
H207	H	-0.390437	0.725067	-0.436656
