data_functionalizedCrystal
_audit_creation_method	'MofGen! by Chris Wilmer'
_symmetry_space_group_name_H-M	'P1'
_symmetry_Int_Tables_number	1
_symmetry_cell_setting	triclinic
loop_
_symmetry_equiv_pos_as_xyz
  x,y,z
_cell_length_a	19.288840
_cell_length_b	8.597304
_cell_length_c	18.366186
_cell_angle_alpha	82.293964
_cell_angle_beta	89.983729
_cell_angle_gamma	84.235515
loop_
_atom_site_label
_atom_site_type_symbol
_atom_site_fract_x
_atom_site_fract_y
_atom_site_fract_z
O1	O	0.922964	0.195588	-0.072939
O2	O	0.720918	0.222039	-0.074572
O3	O	0.825916	-0.019683	-0.059420
O4	O	0.817966	0.437310	-0.088091
O5	O	0.825897	-0.019695	0.061680
O6	O	0.720899	0.222027	0.046528
O7	O	0.922946	0.195576	0.048162
Zn8	Zn	0.821920	0.208800	0.066572
Zn9	Zn	0.821944	0.208816	-0.092983
O10	O	0.817948	0.437299	0.033009
C11	C	0.695025	0.221189	-0.013966
C12	C	0.617900	0.218653	-0.013797
C13	C	0.581696	0.217442	-0.079734
C14	C	0.509229	0.215042	-0.079593
C15	C	0.472971	0.213823	-0.013508
C16	C	0.509183	0.215043	0.052437
C17	C	0.581647	0.217459	0.052292
C18	C	0.362852	0.118069	0.043060
C19	C	0.290390	0.115644	0.043203
C20	C	0.249466	0.206380	-0.013060
C21	C	0.281016	0.299521	-0.069477
C22	C	0.353480	0.301937	-0.069621
C23	C	0.394395	0.211205	-0.013344
C24	C	0.134686	0.202569	-0.078849
C25	C	0.062218	0.200179	-0.078705
C26	C	0.062173	0.200164	0.053328
C27	C	0.134639	0.202570	0.053181
C28	C	0.170892	0.203765	-0.012909
C29	C	0.825052	-0.078155	0.004797
C30	C	0.822498	-0.252364	0.015722
C31	C	0.948839	0.196427	-0.012446
C32	C	1.025964	0.198962	-0.012620
C33	C	0.818812	0.495770	-0.031209
C34	C	0.821366	0.669979	-0.042139
N35	N	0.821908	0.208788	0.175464
N36	N	0.821961	0.208815	-0.201874
C37	C	0.868417	0.101806	0.220270
C38	C	0.868422	0.101799	0.296499
C39	C	0.821924	0.208801	0.327916
C40	C	0.775406	0.315792	0.283099
C41	C	0.775398	0.315785	0.206873
C42	C	0.813796	0.351797	0.439705
C43	C	0.813808	0.351805	0.515930
C44	C	0.821944	0.208821	0.563022
C45	C	0.830082	0.065822	0.533881
C46	C	0.830074	0.065815	0.457655
C47	C	0.821927	0.208820	0.410569
C48	C	0.868460	0.101822	0.690484
C49	C	0.868460	0.101813	0.766714
C50	C	0.775447	0.315819	0.753313
C51	C	0.775444	0.315815	0.677085
C52	C	0.821955	0.208818	0.645676
H53	H	0.611208	0.218415	-0.133550
O54	O	0.838663	-0.088422	0.426227
H55	H	0.837229	-0.064400	0.365312
O56	O	0.822669	-0.241564	-0.118840
H57	H	0.869424	-0.287233	-0.147659
O58	O	0.023169	0.198881	-0.149830
H59	H	-0.033312	0.197023	-0.138630
H60	H	0.821504	-0.319158	0.073627
O61	O	0.918570	-0.013611	0.186392
H62	H	0.950907	-0.088017	0.230361
H63	H	0.479747	0.214058	-0.133289
H64	H	0.836706	-0.050610	0.572222
O65	O	0.023063	0.199145	0.124590
H66	H	-0.033415	0.197362	0.113608
H67	H	0.737546	0.402912	0.308683
O68	O	0.173785	0.203865	-0.150132
H69	H	0.212263	0.098006	-0.146649
O70	O	0.918594	-0.013576	0.344840
H71	H	0.950937	-0.087968	0.310191
H72	H	0.379164	0.377779	-0.115556
O73	O	0.236889	0.397410	-0.130165
H74	H	0.181199	0.380106	-0.120583
H75	H	0.906329	0.014694	0.664910
H76	H	0.906331	0.014687	0.803198
O77	O	0.173697	0.203866	0.124299
H78	H	0.201231	0.311919	0.120675
H79	H	0.264708	0.039795	0.089137
O80	O	0.725295	0.431238	0.787185
H81	H	0.733116	0.413278	0.847718
H82	H	0.737575	0.402936	0.640601
H83	H	0.396167	0.044176	0.088880
H84	H	0.807159	0.468240	0.401368
O85	O	0.470076	0.213732	0.123713
H86	H	0.507427	0.214994	0.169540
O87	O	0.620701	0.218786	0.123411
H88	H	0.583317	0.217541	0.169390
O89	O	0.805046	0.506030	0.547361
H90	H	0.799378	0.605454	0.501811
H91	H	0.737524	0.402904	0.170390
