data_functionalizedCrystal
_audit_creation_method	'MofGen! by Chris Wilmer'
_symmetry_space_group_name_H-M	'P1'
_symmetry_Int_Tables_number	1
_symmetry_cell_setting	triclinic
loop_
_symmetry_equiv_pos_as_xyz
  x,y,z
_cell_length_a	6.817900
_cell_length_b	17.982959
_cell_length_c	17.982968
_cell_angle_alpha	95.926238
_cell_angle_beta	102.451960
_cell_angle_gamma	102.451857
loop_
_atom_site_label
_atom_site_type_symbol
_atom_site_fract_x
_atom_site_fract_y
_atom_site_fract_z
V1	V	-4.009936	-0.106127	-0.237869
V2	V	-3.509936	0.393873	0.262131
O3	O	-4.003034	0.004365	-0.233013
O4	O	-3.503034	0.504365	0.266987
O5	O	-3.956505	-0.209726	-0.236557
O6	O	-3.456505	0.290274	0.263443
O7	O	-3.956507	-0.104817	-0.341468
O8	O	-3.456507	0.395183	0.158532
O9	O	-4.003032	-0.101270	-0.127376
O10	O	-3.503032	0.398730	0.372624
V11	V	-4.494867	-0.092873	-0.224615
V12	V	-3.994867	0.407127	0.275385
O13	O	-4.268105	-0.135201	-0.266943
O14	O	-3.768105	0.364799	0.233057
O15	O	-4.686896	-0.063799	-0.195541
O16	O	-4.186896	0.436201	0.304459
O17	O	-4.325092	0.010726	-0.225927
O18	O	-3.825092	0.510726	0.274073
O19	O	-4.619167	-0.203366	-0.229470
O20	O	-4.119167	0.296634	0.270530
O21	O	-4.619168	-0.097730	-0.335108
O22	O	-4.119168	0.402270	0.164892
O23	O	-4.325090	-0.094183	-0.121016
O24	O	-3.825090	0.405817	0.378984
C25	C	-3.800445	-0.234971	-0.232886
C26	C	-3.300445	0.265029	0.267114
C27	C	-3.838012	-0.319667	-0.232503
C28	C	-3.338012	0.180333	0.267497
C29	C	-4.037393	-0.363349	-0.236136
C30	C	-3.537393	0.136651	0.263864
C31	C	-4.072682	-0.442930	-0.235781
C32	C	-3.572682	0.057070	0.264219
C33	C	-3.908585	-0.478826	-0.231789
C34	C	-3.408585	0.021174	0.268211
C35	C	-3.709188	-0.435138	-0.228158
C36	C	-3.209188	0.064862	0.271842
C37	C	-3.673905	-0.355560	-0.228518
C38	C	-3.173905	0.144440	0.271482
C39	C	-3.851479	-0.756070	-0.226707
C40	C	-3.351479	-0.256070	0.273293
C41	C	-3.886778	-0.835654	-0.226345
C42	C	-3.386778	-0.335654	0.273655
C43	C	-4.250256	-0.843439	-0.233970
C44	C	-3.750256	-0.343439	0.266030
C45	C	-4.214973	-0.763861	-0.234330
C46	C	-3.714973	-0.263861	0.265670
C47	C	-4.015583	-0.720181	-0.230704
C48	C	-3.515583	-0.220181	0.269296
C49	C	-3.977322	-0.633891	-0.231090
C50	C	-3.477322	-0.133891	0.268910
C51	C	-3.946841	-0.565114	-0.231397
C52	C	-3.446841	-0.065114	0.268603
C53	C	-3.800446	-0.101148	-0.366709
C54	C	-3.300446	0.398852	0.133291
C55	C	-3.838012	-0.100762	-0.451404
C56	C	-3.338012	0.399238	0.048596
C57	C	-4.037396	-0.104399	-0.495087
C58	C	-3.537396	0.395601	0.004913
C59	C	-4.072681	-0.104036	-0.574666
C60	C	-3.572681	0.395964	-0.074666
C61	C	-3.908583	-0.100042	-0.610563
C62	C	-3.408583	0.399958	-0.110563
C63	C	-3.709182	-0.096403	-0.566874
C64	C	-3.209182	0.403597	-0.066874
C65	C	-3.673896	-0.096760	-0.487295
C66	C	-3.173896	0.403240	0.012705
C67	C	-3.851479	-0.094960	-0.887806
C68	C	-3.351479	0.405040	-0.387806
C69	C	-3.886782	-0.094605	-0.967391
C70	C	-3.386782	0.405395	-0.467391
C71	C	-4.250264	-0.102236	-0.975178
C72	C	-3.750264	0.397764	-0.475178
C73	C	-4.214978	-0.102593	-0.895599
C74	C	-3.714978	0.397407	-0.395599
C75	C	-4.015580	-0.098950	-0.851916
C76	C	-3.515580	0.401050	-0.351916
C77	C	-3.977321	-0.099342	-0.765627
C78	C	-3.477321	0.400658	-0.265627
C79	C	-3.946842	-0.099655	-0.696851
C80	C	-3.446842	0.400345	-0.196851
C81	C	-4.144494	0.035967	-0.229596
C82	C	-3.644494	0.535967	0.270404
C83	C	-4.086164	0.120662	-0.229983
C84	C	-3.586164	0.620662	0.270017
C85	C	-4.144493	-0.097854	-0.095770
C86	C	-3.644493	0.402146	0.404230
C87	C	-4.086166	-0.098236	-0.011075
C88	C	-3.586166	0.401764	0.488925
H89	H	-3.689127	-0.720514	-0.223750
H90	H	-3.189127	-0.220514	0.276250
H91	H	-4.235035	-0.478493	-0.238741
H92	H	-3.735035	0.021507	0.261259
H93	H	-3.689136	-0.092020	-0.852254
H94	H	-3.189136	0.407980	-0.352254
H95	H	-3.575582	-0.464372	-0.224912
H96	H	-3.075582	0.035628	0.275088
O97	O	-3.532181	-0.092099	-0.605585
O98	O	-3.032181	0.407901	-0.105585
H99	H	-3.590214	-0.092471	-0.668262
H100	H	-3.090214	0.407529	-0.168262
O101	O	-3.458856	-0.308439	-0.224597
O102	O	-2.958856	0.191561	0.275403
H103	H	-3.350670	-0.346767	-0.221753
H104	H	-2.850670	0.153233	0.278247
O105	O	-4.391971	-0.725145	-0.238657
O106	O	-3.891971	-0.225145	0.261343
H107	H	-4.536554	-0.768893	-0.241138
H108	H	-4.036554	-0.268893	0.258862
H109	H	-4.171022	-0.334127	-0.239380
H110	H	-3.671022	0.165873	0.260620
H111	H	-4.171031	-0.107657	-0.465867
H112	H	-3.671031	0.392343	0.034133
O113	O	-4.465327	-0.890550	-0.237885
O114	O	-3.965327	-0.390550	0.262115
H115	H	-4.462309	-0.951919	-0.236971
H116	H	-3.962309	-0.451919	0.263029
O117	O	-3.709788	-0.874378	-0.222051
O118	O	-3.209788	-0.374378	0.277949
H119	H	-3.565216	-0.830637	-0.219599
H120	H	-3.065216	-0.330637	0.280401
H121	H	-3.753141	-0.091351	-0.996615
H122	H	-3.253141	0.408649	-0.496615
H123	H	-4.235033	-0.106993	-0.610229
H124	H	-3.735033	0.393007	-0.110229
H125	H	-4.348609	-0.105850	-0.866377
H126	H	-3.848609	0.394150	-0.366377
O127	O	-4.465334	-0.106151	-1.022289
O128	O	-3.965334	0.393849	-0.522289
H129	H	-4.462309	-0.105221	-1.083655
H130	H	-3.962309	0.394779	-0.583655
H131	H	-3.511530	-0.093780	-0.451726
H132	H	-3.011530	0.406220	0.048274
