data_functionalizedCrystal
_audit_creation_method	'MofGen! by Chris Wilmer'
_symmetry_space_group_name_H-M	'P1'
_symmetry_Int_Tables_number	1
_symmetry_cell_setting	triclinic
loop_
_symmetry_equiv_pos_as_xyz
  x,y,z
_cell_length_a	27.732064
_cell_length_b	15.021413
_cell_length_c	15.944551
_cell_angle_alpha	90.003065
_cell_angle_beta	83.074081
_cell_angle_gamma	90.000387
loop_
_atom_site_label
_atom_site_type_symbol
_atom_site_fract_x
_atom_site_fract_y
_atom_site_fract_z
O1	O	0.641358	-0.073875	0.100000
O2	O	0.500631	-0.073912	0.115182
O3	O	0.574837	-0.073885	-0.014734
O4	O	0.567151	-0.073903	0.229915
O5	O	0.574826	0.074180	-0.014715
O6	O	0.500619	0.074152	0.115200
O7	O	0.641346	0.074189	0.100018
Zn8	Zn	0.570981	0.097679	0.107612
Zn9	Zn	0.570996	-0.097402	0.107588
O10	O	0.567140	0.074162	0.229934
C11	C	0.482617	0.000115	0.114870
C12	C	0.428958	0.000102	0.113904
C13	C	0.051525	0.000158	0.030554
C14	C	0.253200	0.000135	0.034109
O15	O	0.284173	0.000173	-0.030568
N16	N	0.272662	0.000125	0.111147
C17	C	0.241700	0.000127	0.187301
O18	O	0.262881	0.000128	0.252908
C19	C	0.040026	0.000157	0.183745
C20	C	0.020567	0.000158	0.106702
C21	C	0.032066	0.000160	-0.046483
C22	C	-0.018350	0.000161	-0.047371
C23	C	-0.049307	0.000160	0.028778
C24	C	-0.029849	0.000159	0.105814
C25	C	0.009065	0.000166	0.259898
C26	C	-0.041356	0.000175	0.259002
C27	C	-0.060814	0.000176	0.181959
C28	C	-0.111222	0.000159	0.181074
N29	N	-0.130683	0.000169	0.104037
C30	C	-0.099726	0.000169	0.027888
C31	C	0.347583	0.000110	0.189163
C32	C	0.398001	0.000101	0.190052
C33	C	0.409498	0.000110	0.036860
C34	C	0.359078	0.000113	0.035972
C35	C	0.328122	0.000120	0.112125
C36	C	-0.205603	0.000171	0.026029
C37	C	-0.256024	0.000168	0.025148
C38	C	-0.267516	0.000164	0.178339
C39	C	-0.217100	0.000162	0.179221
C40	C	-0.186144	0.000168	0.103059
O41	O	-0.142223	0.000131	0.245717
O42	O	-0.120915	0.000189	-0.037709
C43	C	0.101941	0.000157	0.031442
C44	C	0.121399	0.000156	0.108478
C45	C	0.090442	0.000155	0.184627
C46	C	0.171818	0.000147	0.109368
C47	C	0.202775	0.000147	0.033219
C48	C	0.183314	0.000157	-0.043818
C49	C	0.132898	0.000158	-0.044706
C50	C	0.109903	0.000146	0.261664
C51	C	0.160320	0.000144	0.262546
C52	C	0.191277	0.000144	0.186398
C53	C	0.574512	0.000148	-0.046014
C54	C	0.573556	0.000148	-0.139248
C55	C	0.659360	0.000160	0.100330
C56	C	0.713019	0.000167	0.101296
N57	N	0.570974	0.230817	0.107628
N58	N	0.571007	-0.230540	0.107565
C59	C	0.536655	0.470487	0.167673
C60	C	0.580332	0.529832	0.183414
C61	C	0.570986	0.412423	0.107607
C62	C	0.527321	0.529821	0.091885
C63	C	0.570994	0.587848	0.107589
C64	C	0.614685	0.470462	0.123385
C65	C	0.561645	0.470445	0.031824
C66	C	0.605353	0.529763	0.047532
C67	C	0.570981	0.311366	0.107620
C68	C	0.571004	0.688903	0.107575
C69	C	0.525273	0.000123	-0.353478
C70	C	0.547688	0.073133	-0.414777
C71	C	0.571825	0.000140	-0.309952
C72	C	0.547711	-0.072846	-0.414779
C73	C	0.570150	0.000130	-0.474843
C74	C	0.594253	0.073211	-0.370023
C75	C	0.594269	-0.072834	-0.370018
C76	C	0.616718	0.000194	-0.431300
C77	C	0.572789	0.000148	-0.214962
C78	C	0.569190	0.000129	-0.569831
C79	C	0.567465	0.000127	0.261215
C80	C	0.568421	0.000121	0.354448
H81	H	-0.034188	0.000165	-0.110107
C82	C	0.668942	0.000310	-0.476860
H83	H	0.673968	-0.051554	-0.510894
H84	H	0.673723	0.051718	-0.511560
H85	H	0.691351	0.000840	-0.436252
C86	C	0.644618	0.564713	-0.021101
H87	H	0.675606	0.544277	-0.009798
H88	H	0.638243	0.543480	-0.074793
H89	H	0.644234	0.627952	-0.021038
H90	H	0.553723	0.444340	-0.032235
C91	C	0.477434	0.565045	0.073922
H92	H	0.481274	0.599836	0.023804
H93	H	0.456465	0.516301	0.066929
H94	H	0.463791	0.600746	0.119958
H95	H	0.613921	0.135004	-0.350280
H96	H	-0.271864	0.000166	-0.037592
C97	C	-0.171559	0.000165	-0.057747
H98	H	-0.190375	0.000157	-0.103748
H99	H	-0.151648	0.051794	-0.060595
H100	H	-0.151656	-0.051479	-0.060587
C101	C	0.066112	0.000153	-0.130253
H102	H	0.047295	0.000148	-0.176253
H103	H	0.086025	0.051779	-0.133101
H104	H	0.086013	-0.051494	-0.133096
C105	C	0.473074	0.000193	-0.307808
H106	H	0.468075	-0.051707	-0.273823
H107	H	0.468296	0.051564	-0.273053
H108	H	0.450645	0.000749	-0.348382
C109	C	0.620851	-0.156206	-0.343169
H110	H	0.604268	-0.208034	-0.358303
H111	H	0.653154	-0.156723	-0.370883
H112	H	0.621519	-0.155307	-0.283744
H113	H	0.084702	0.000146	0.323675
H114	H	0.527993	0.134848	-0.434623
C115	C	0.521111	-0.156231	-0.441577
H116	H	0.488630	-0.156143	-0.414639
H117	H	0.520951	-0.155926	-0.501119
H118	H	0.537337	-0.208067	-0.425485
C119	C	0.664586	0.435398	0.141444
H120	H	0.685419	0.484219	0.148946
H121	H	0.660714	0.400203	0.191299
H122	H	0.678415	0.400148	0.095217
C123	C	0.337679	0.000122	-0.048774
H124	H	0.363341	0.000126	-0.093993
H125	H	0.318246	-0.051505	-0.052315
H126	H	0.318255	0.051768	-0.052303
H127	H	-0.066559	0.000185	0.321017
C128	C	0.443557	0.000118	-0.046901
H129	H	0.476370	0.000120	-0.035330
H130	H	0.437659	-0.051507	-0.078534
H131	H	0.437660	0.051766	-0.078505
C132	C	0.313536	0.000107	0.272938
H133	H	0.332352	0.000091	0.318939
H134	H	0.293629	0.051741	0.275791
H135	H	0.293628	-0.051532	0.275771
C136	C	0.419400	0.000091	0.274799
H137	H	0.393738	0.000101	0.320018
H138	H	0.438827	-0.051543	0.278332
H139	H	0.438829	0.051730	0.278336
C140	C	0.497476	0.435315	0.236341
H141	H	0.474644	0.400515	0.210775
H142	H	0.512321	0.399651	0.275221
H143	H	0.481288	0.484086	0.265381
H144	H	-0.201257	0.000160	0.241955
C145	C	-0.301575	0.000170	0.262096
H146	H	-0.334388	0.000182	0.250526
H147	H	-0.295681	-0.051460	0.293719
H148	H	-0.295674	0.051813	0.293709
C149	C	0.030458	0.000178	0.344646
H150	H	0.004794	0.000192	0.389862
H151	H	0.049887	-0.051452	0.348192
H152	H	0.049885	0.051821	0.348177
H153	H	0.208528	0.000152	-0.105821
C154	C	0.181720	0.000138	0.347296
H155	H	0.216182	0.000132	0.336928
H156	H	0.171092	0.051771	0.378624
H157	H	0.171093	-0.051502	0.378616
C158	C	0.591013	0.565084	0.269974
H159	H	0.566589	0.544797	0.312599
H160	H	0.621799	0.543891	0.281555
H161	H	0.591229	0.628321	0.269175
H162	H	0.117060	0.000159	-0.107442
