data_functionalizedCrystal
_audit_creation_method	'MofGen! by Chris Wilmer'
_symmetry_space_group_name_H-M	'P1'
_symmetry_Int_Tables_number	1
_symmetry_cell_setting	triclinic
loop_
_symmetry_equiv_pos_as_xyz
  x,y,z
_cell_length_a	10.654550
_cell_length_b	9.065218
_cell_length_c	7.540329
_cell_angle_alpha	90.001757
_cell_angle_beta	90.006486
_cell_angle_gamma	84.750394
loop_
_atom_site_label
_atom_site_type_symbol
_atom_site_fract_x
_atom_site_fract_y
_atom_site_fract_z
O1	O	-1.668659	-0.207233	-0.147621
O2	O	-1.303259	-0.226977	-0.147592
O3	O	-1.493512	-0.002421	-0.147603
O4	O	-1.478407	-0.431788	-0.147609
O5	O	-1.493501	-0.002418	0.147362
O6	O	-1.303248	-0.226974	0.147374
O7	O	-1.668648	-0.207230	0.147344
Cu8	Cu	-1.485947	-0.217101	0.174292
Cu9	Cu	-1.485960	-0.217105	-0.174539
O10	O	-1.478395	-0.431785	0.147356
C11	C	-1.256450	-0.225525	-0.000105
C12	C	-1.116989	-0.221188	-0.000094
C13	C	-1.492055	0.052559	-0.000123
C14	C	-1.487714	0.216378	-0.000131
C15	C	-1.715457	-0.208681	-0.000146
C16	C	-1.854918	-0.213018	-0.000168
C17	C	-1.038027	-0.353403	-0.000122
C18	C	-0.906990	-0.349319	-0.000153
C19	C	-0.933890	-0.080793	-0.000135
C20	C	-1.064925	-0.084879	-0.000092
C21	C	-1.090092	-0.489712	-0.000124
C22	C	-1.011129	-0.621938	-0.000154
C23	C	-0.880092	-0.617853	-0.000185
C24	C	-0.828018	-0.481543	-0.000186
C25	C	-1.479852	-0.486766	-0.000128
C26	C	-1.484193	-0.650585	-0.000131
N27	N	-1.485946	-0.217098	0.419640
N28	N	-1.485971	-0.217096	-0.419887
H29	H	-1.196787	-0.493053	-0.000108
H30	H	-0.721318	-0.478229	-0.000183
C31	C	-0.793236	-0.763302	-0.000194
N32	N	-0.727818	-0.872860	-0.000206
C33	C	-1.151788	0.060564	-0.000071
N34	N	-1.217213	0.170116	-0.000052
H35	H	-1.053536	-0.732916	-0.000138
H36	H	-0.891481	0.030184	-0.000165
