data_functionalizedCrystal
_audit_creation_method	'MofGen! by Chris Wilmer'
_symmetry_space_group_name_H-M	'P1'
_symmetry_Int_Tables_number	1
_symmetry_cell_setting	triclinic
loop_
_symmetry_equiv_pos_as_xyz
  x,y,z
_cell_length_a	13.339070
_cell_length_b	10.540539
_cell_length_c	11.804365
_cell_angle_alpha	101.953828
_cell_angle_beta	74.875130
_cell_angle_gamma	100.077393
loop_
_atom_site_label
_atom_site_type_symbol
_atom_site_fract_x
_atom_site_fract_y
_atom_site_fract_z
O1	O	1.367200	0.619505	-0.099049
O2	O	1.072067	0.535766	-0.099045
O3	O	1.226367	0.395225	-0.099046
O4	O	1.212901	0.760047	-0.099049
O5	O	1.185745	0.432172	0.099010
O6	O	1.031446	0.572714	0.099011
O7	O	1.326579	0.656453	0.099007
Cu8	Cu	1.175303	0.617957	0.117093
Cu9	Cu	1.223343	0.574262	-0.117131
O10	O	1.172279	0.796994	0.099007
C11	C	1.013965	0.540095	-0.000017
C12	C	0.901358	0.497931	-0.000015
C13	C	1.205047	0.366051	-0.000020
C14	C	1.202026	0.224072	-0.000026
C15	C	0.538938	0.825770	-0.000037
C16	C	0.644738	0.865388	-0.000042
C17	C	0.708898	0.773527	-0.000035
C18	C	0.667248	0.642042	-0.000023
C19	C	0.561440	0.602418	-0.000028
C20	C	0.731400	0.550175	-0.000026
C21	C	0.689750	0.418690	-0.000014
C22	C	0.583951	0.379073	-0.000018
C23	C	0.519791	0.470934	-0.000025
C24	C	0.837208	0.589799	-0.000021
C25	C	0.859710	0.366447	-0.000012
C26	C	0.753910	0.326829	-0.000007
C27	C	1.086340	0.001099	-0.000469
C28	C	1.089311	0.148845	-0.000023
C29	C	1.233073	0.202001	0.113073
C30	C	1.229207	0.054163	0.113168
C31	C	1.277693	0.012410	-0.112059
C32	C	1.279038	0.159467	-0.113554
C33	C	1.384682	0.652124	-0.000024
C34	C	1.497290	0.694286	-0.000034
C35	C	1.193600	0.826168	-0.000021
C36	C	1.196622	0.968145	-0.000023
N37	N	1.141522	0.648691	0.281834
N38	N	1.257132	0.543521	-0.281872
C39	C	1.338253	0.469692	0.655781
C40	C	1.363807	0.446436	0.531120
C41	C	1.308237	0.496997	0.468792
C42	C	1.227110	0.570820	0.531138
C43	C	1.201559	0.594087	0.655812
C44	C	1.171544	0.621392	0.468823
C45	C	1.090417	0.695214	0.531169
C46	C	1.064869	0.718477	0.655831
C47	C	1.120438	0.667916	0.718159
C48	C	1.197095	0.598125	0.344149
C49	C	1.060402	0.722520	0.344180
C50	C	1.034847	0.745776	0.468842
H51	H	0.871108	0.696856	-0.000026
H52	H	1.429860	0.386332	0.480362
Cl53	Cl	0.940363	0.250955	-0.000013
Cl54	Cl	1.299079	0.505322	0.265786
Cl55	Cl	0.531602	0.213769	-0.000044
H56	H	1.256509	0.171189	-0.197222
H57	H	1.099630	0.686846	0.819669
H58	H	0.433639	0.438683	-0.000020
H59	H	1.015154	0.763695	0.293434
H60	H	0.795045	0.805792	-0.000042
H61	H	0.486693	0.900547	-0.000052
H62	H	1.058450	-0.057807	-0.081574
Cl63	Cl	0.697092	1.030675	-0.000060
Cl64	Cl	0.992218	-0.046323	0.123683
Cl65	Cl	1.359539	0.281283	0.119571
Cl66	Cl	1.248506	-0.080175	-0.244408
Cl67	Cl	0.997234	0.214093	0.125357
Cl68	Cl	0.932862	0.838581	0.547233
H69	H	1.383495	0.428540	0.706537
Cl70	Cl	0.701537	0.161537	0.000005
H71	H	1.362617	0.210424	-0.120385
Cl72	Cl	1.140537	0.013872	0.243694
Cl73	Cl	1.049085	0.168815	-0.125194
H74	H	1.309217	0.034782	0.118298
H75	H	1.178130	0.247459	0.197238
Cl76	Cl	1.403629	-0.017882	-0.113239
Cl77	Cl	1.340361	0.467755	0.312072
Cl78	Cl	0.962893	0.811300	0.734211
