data_functionalizedCrystal
_audit_creation_method	'MofGen! by Chris Wilmer'
_symmetry_space_group_name_H-M	'P1'
_symmetry_Int_Tables_number	1
_symmetry_cell_setting	triclinic
loop_
_symmetry_equiv_pos_as_xyz
  x,y,z
_cell_length_a	16.109301
_cell_length_b	13.339070
_cell_length_c	14.586319
_cell_angle_alpha	89.998714
_cell_angle_beta	89.999213
_cell_angle_gamma	99.545388
loop_
_atom_site_label
_atom_site_type_symbol
_atom_site_fract_x
_atom_site_fract_y
_atom_site_fract_z
O1	O	1.133153	0.130021	-0.076178
O2	O	1.633153	0.630021	0.423822
O3	O	0.894827	0.146201	-0.076192
O4	O	1.394827	0.646201	0.423808
O5	O	0.986638	-0.009144	-0.076184
O6	O	1.486638	0.490856	0.423816
O7	O	1.041342	0.285365	-0.076186
O8	O	1.541342	0.785365	0.423814
O9	O	0.986629	-0.009146	0.076297
O10	O	1.486629	0.490854	0.576297
O11	O	0.894818	0.146199	0.076289
O12	O	1.394818	0.646199	0.576289
O13	O	1.133144	0.130018	0.076303
O14	O	1.633144	0.630018	0.576303
Cu15	Cu	1.013980	0.138108	0.090219
Cu16	Cu	1.513980	0.638108	0.590219
Cu17	Cu	1.013991	0.138111	-0.090107
Cu18	Cu	1.513991	0.638111	0.409893
O19	O	1.041333	0.285363	0.076295
O20	O	1.541333	0.785363	0.576295
C21	C	0.863697	0.145545	0.000047
C22	C	1.363697	0.645545	0.500047
C23	C	0.770947	0.143580	0.000041
C24	C	1.270947	0.643580	0.500041
C25	C	0.977393	-0.046831	0.000055
C26	C	1.477393	0.453169	0.500055
C27	C	0.949849	-0.159124	0.000050
C28	C	1.449849	0.340876	0.500050
C29	C	0.568905	0.231189	0.000051
C30	C	1.068905	0.731189	0.500051
C31	C	0.481756	0.229335	0.000057
C32	C	0.981756	0.729335	0.500057
C33	C	0.459072	0.045023	0.000055
C34	C	0.959072	0.545023	0.500055
C35	C	0.546219	0.046879	0.000055
C36	C	1.046219	0.546879	0.500055
C37	C	0.601133	0.139965	0.000049
C38	C	1.101133	0.639965	0.500049
C39	C	0.426838	0.136255	0.000054
C40	C	0.926838	0.636255	0.500054
C41	C	0.332347	0.134244	0.000061
C42	C	0.832347	0.634244	0.500061
C43	C	0.695630	0.141976	0.000044
C44	C	1.195630	0.641976	0.500044
C45	C	1.164017	-0.523987	0.000063
C46	C	1.664017	-0.023987	0.500063
C47	C	1.189898	-0.418483	0.000073
C48	C	1.689898	0.081517	0.500073
C49	C	1.129888	-0.353638	0.000067
C50	C	1.629888	0.146362	0.500067
C51	C	1.043992	-0.394307	0.000051
C52	C	1.543992	0.105693	0.500051
C53	C	1.018108	-0.499822	0.000048
C54	C	1.518108	0.000178	0.500048
C55	C	0.983979	-0.329473	0.000052
C56	C	1.483979	0.170527	0.500052
C57	C	0.898083	-0.370142	0.000037
C58	C	1.398083	0.129858	0.500037
C59	C	0.872203	-0.475647	0.000033
C60	C	1.372203	0.024353	0.500033
C61	C	0.932213	-0.540492	0.000039
C62	C	1.432213	-0.040492	0.500039
C63	C	1.009863	-0.223958	0.000055
C64	C	1.509863	0.276042	0.500055
C65	C	0.863954	-0.199793	0.000041
C66	C	1.363954	0.300207	0.500041
C67	C	0.838073	-0.305297	0.000030
C68	C	1.338073	0.194703	0.500030
C69	C	1.164275	0.130675	0.000063
C70	C	1.664275	0.630675	0.500063
C71	C	1.257024	0.132640	0.000062
C72	C	1.757024	0.632640	0.500062
C73	C	1.050578	0.323050	0.000054
C74	C	1.550578	0.823050	0.500054
C75	C	1.078122	0.435343	0.000054
C76	C	1.578122	0.935343	0.500054
N77	N	1.013978	0.138106	0.217051
N78	N	1.513978	0.638106	0.717051
N79	N	1.013998	0.138106	-0.216939
N80	N	1.513998	0.638106	0.283061
C81	C	1.054656	0.069342	0.452061
C82	C	1.554656	0.569342	0.952061
C83	C	1.054658	0.069340	0.548042
C84	C	1.554658	0.569340	1.048042
C85	C	0.973315	0.206873	0.548044
C86	C	1.473315	0.706873	1.048044
C87	C	0.973308	0.206870	0.452065
C88	C	1.473308	0.706870	0.952065
C89	C	1.013984	0.138105	0.404075
C90	C	1.513984	0.638105	0.904075
C91	C	1.013992	0.138106	0.596036
C92	C	1.513992	0.638106	1.096036
C93	C	1.013994	0.138104	0.700103
C94	C	1.513994	0.638104	1.200103
C95	C	1.013981	0.138106	0.300002
C96	C	1.513981	0.638106	0.800002
H97	H	0.613614	0.306986	0.000053
H98	H	1.113614	0.806986	0.500053
H99	H	0.802261	-0.508756	0.000027
H100	H	1.302261	-0.008756	0.500027
H101	H	0.572459	-0.027412	0.000056
H102	H	1.072459	0.472588	0.500056
H103	H	0.455520	0.303619	0.000061
H104	H	0.955520	0.803619	0.500061
O105	O	0.754660	-0.344930	-0.000101
O106	O	1.254660	0.155070	0.499899
C107	C	0.735332	-0.405212	-0.079087
C108	C	1.235332	0.094788	0.420913
H109	H	0.794800	-0.431501	-0.105410
H110	H	1.294800	0.068499	0.394590
H111	H	0.686258	-0.474298	-0.061333
H112	H	1.186258	0.025702	0.438667
H113	H	0.709307	-0.358586	-0.134387
H114	H	1.209307	0.141414	0.365613
H115	H	0.940184	0.262865	0.412992
H116	H	1.440184	0.762865	0.912992
H117	H	1.079800	-0.190856	0.000068
H118	H	1.579800	0.309144	0.500068
H119	H	0.414350	-0.030764	0.000066
H120	H	0.914350	0.469236	0.500066
H121	H	1.212868	-0.576792	0.000075
H122	H	1.712868	-0.076792	0.500075
O123	O	1.155171	-0.251176	0.000030
O124	O	1.655171	0.248824	0.500030
C125	C	1.243851	-0.229184	0.000066
C126	C	1.743851	0.270816	0.500066
H127	H	1.270251	-0.296830	-0.028793
H128	H	1.770251	0.203170	0.471207
H129	H	1.265606	-0.159333	-0.044204
H130	H	1.765606	0.340667	0.455796
H131	H	1.267407	-0.213605	0.073222
H132	H	1.767407	0.286395	0.573222
O133	O	1.273364	-0.379147	0.000048
O134	O	1.773364	0.120853	0.500048
C135	C	1.320781	-0.459001	0.000076
C136	C	1.820781	0.040999	0.500076
H137	H	1.280950	-0.530666	-0.028802
H138	H	1.780950	-0.030666	0.471198
H139	H	1.379290	-0.436963	-0.044182
H140	H	1.879290	0.063037	0.455818
H141	H	1.340447	-0.473945	0.073231
H142	H	1.840447	0.026055	0.573231
H143	H	0.911145	-0.626403	0.000027
H144	H	1.411145	-0.126403	0.500027
O145	O	0.805764	-0.136670	-0.000010
O146	O	1.305764	0.363330	0.499990
C147	C	0.847027	-0.034825	0.000015
C148	C	1.347027	0.465175	0.500015
H149	H	0.913261	-0.030803	-0.028846
H150	H	1.413261	0.469197	0.471154
H151	H	0.810278	0.012994	-0.044259
H152	H	1.310278	0.512994	0.455741
H153	H	0.850908	-0.004312	0.073168
H154	H	1.350908	0.495688	0.573168
H155	H	1.087775	0.013349	0.412990
H156	H	1.587775	0.513349	0.912990
H157	H	1.087775	0.013345	0.587109
H158	H	1.587775	0.513345	1.087109
O159	O	0.933883	0.273635	0.594805
O160	O	1.433883	0.773635	1.094805
C161	C	0.942593	0.258880	0.689809
C162	C	1.442593	0.758880	1.189809
H163	H	0.999975	0.221094	0.702914
H164	H	1.499975	0.721094	1.202914
H165	H	0.951018	0.335485	0.726281
H166	H	1.451018	0.835485	1.226281
H167	H	0.883832	0.208132	0.717056
H168	H	1.383832	0.708132	1.217056
