data_functionalizedCrystal
_audit_creation_method	'MofGen! by Chris Wilmer'
_symmetry_space_group_name_H-M	'P1'
_symmetry_Int_Tables_number	1
_symmetry_cell_setting	triclinic
loop_
_symmetry_equiv_pos_as_xyz
  x,y,z
_cell_length_a	12.837943
_cell_length_b	16.098538
_cell_length_c	12.837942
_cell_angle_alpha	86.987046
_cell_angle_beta	94.828940
_cell_angle_gamma	93.026355
loop_
_atom_site_label
_atom_site_type_symbol
_atom_site_fract_x
_atom_site_fract_y
_atom_site_fract_z
O1	O	1.406560	0.069241	0.267926
O2	O	1.103427	0.069246	0.254482
O3	O	1.248271	0.069238	0.109638
O4	O	1.261715	0.069248	0.412771
O5	O	1.239807	-0.069274	0.118062
O6	O	1.094962	-0.069267	0.262907
O7	O	1.398095	-0.069272	0.276350
Zn8	Zn	1.245185	-0.091261	0.270966
Zn9	Zn	1.256337	0.091235	0.259867
O10	O	1.253251	-0.069264	0.421195
C11	C	1.060125	-0.000010	0.254153
C12	C	0.943710	-0.000008	0.240609
N13	N	1.237581	-0.215810	0.278541
C14	C	0.718836	-0.000015	0.403438
C15	C	0.609453	-0.000014	0.390717
C16	C	0.615561	-0.000011	0.202446
C17	C	0.724943	-0.000012	0.215167
C18	C	0.776577	-0.000013	0.315666
C19	C	0.885962	-0.000008	0.328387
C20	C	0.892067	-0.000011	0.140117
C21	C	0.782684	-0.000010	0.127395
C22	C	1.299086	-0.259398	0.217090
C23	C	1.293778	-0.346587	0.222400
C24	C	1.226969	-0.390186	0.289167
C25	C	1.165456	-0.346592	0.350621
C26	C	1.170760	-0.259404	0.345305
C27	C	1.207740	-0.653435	0.308421
C28	C	1.202444	-0.740628	0.313735
C29	C	1.330764	-0.740618	0.185512
C30	C	1.336066	-0.653429	0.180207
C31	C	1.274550	-0.609842	0.241656
C32	C	1.221543	-0.479307	0.294599
C33	C	1.279970	-0.520723	0.236218
C34	C	1.441397	-0.000014	0.276679
C35	C	1.557812	-0.000011	0.290224
C36	C	1.239498	-0.000018	0.074781
C37	C	1.225953	-0.000016	-0.041634
N38	N	1.263949	0.215784	0.252284
C39	C	1.388784	-0.000001	-0.266509
C40	C	1.376062	0.000000	-0.375892
C41	C	1.187791	-0.000005	-0.369784
C42	C	1.200512	-0.000007	-0.260402
C43	C	1.301012	-0.000006	-0.208768
C44	C	1.313732	-0.000014	-0.099383
C45	C	1.125461	-0.000013	-0.093278
C46	C	1.112740	-0.000012	-0.202661
C47	C	1.262024	-0.000007	0.456052
C48	C	1.275569	-0.000003	0.572467
H49	H	0.928000	-0.000010	0.410218
H50	H	1.148037	-0.776122	0.368109
C51	C	1.078673	0.000175	-0.425815
C52	C	1.029341	0.071448	-0.401715
C53	C	0.928827	0.071651	-0.453325
H54	H	1.038994	-0.048070	-0.403759
H55	H	1.083637	0.000227	-0.499240
H56	H	1.024373	0.071388	-0.328306
H57	H	1.068989	0.119705	-0.423774
H58	H	0.933791	0.071703	-0.526749
H59	H	0.889158	0.023402	-0.431264
H60	H	0.895347	0.120012	-0.436987
H61	H	1.353494	-0.223906	0.162726
C62	C	0.559629	0.000117	0.093273
C63	C	0.592438	0.071369	0.035232
C64	C	0.540945	0.071510	-0.065346
H65	H	0.486208	0.000157	0.098126
H66	H	0.575883	-0.048160	0.059556
H67	H	0.576177	0.119633	0.068940
H68	H	0.665852	0.071344	0.030349
H69	H	0.557199	0.023234	-0.099063
H70	H	0.467526	0.071548	-0.060483
H71	H	0.563206	0.119849	-0.104743
H72	H	1.334362	-0.485222	0.181852
H73	H	1.470614	-0.000009	-0.224468
C74	C	0.775030	-0.000141	0.512493
C75	C	0.833315	-0.071392	0.529621
C76	C	0.885103	-0.071531	0.630067
H77	H	0.725089	-0.000181	0.563050
H78	H	0.820584	0.048136	0.518447
H79	H	0.787765	-0.119657	0.523677
H80	H	0.883274	-0.071367	0.479090
H81	H	0.930657	-0.023254	0.636021
H82	H	0.835154	-0.071569	0.680615
H83	H	0.924662	-0.119870	0.641698
C84	C	1.030071	0.000111	-0.030728
C85	C	0.974518	0.071359	-0.059838
C86	C	0.886634	0.071492	-0.002250
H87	H	1.051892	0.000150	0.041831
H88	H	0.986305	-0.048168	-0.044494
H89	H	1.018276	0.119626	-0.046064
H90	H	0.952672	0.071335	-0.132387
H91	H	0.842868	0.023213	-0.016016
H92	H	0.908465	0.071529	0.070306
H93	H	0.848925	0.119829	-0.021999
H94	H	0.562444	-0.000018	0.462190
C95	C	0.726667	-0.000176	0.018271
C96	C	0.750743	-0.071444	-0.031096
C97	C	0.699153	-0.071627	-0.131619
H98	H	0.748756	0.048073	-0.021377
H99	H	0.653242	-0.000221	0.023219
H100	H	0.824154	-0.071391	-0.036050
H101	H	0.728652	-0.119704	0.008521
H102	H	0.625727	-0.071672	-0.126670
H103	H	0.721245	-0.023375	-0.171257
H104	H	0.715473	-0.119984	-0.165123
C105	C	1.360693	-0.393761	0.155652
C106	C	1.420367	-0.336918	0.096073
C107	C	1.482039	-0.380343	0.034585
H108	H	1.316790	-0.427791	0.110311
H109	H	1.405970	-0.427739	0.199703
H110	H	1.375095	-0.302954	0.052026
H111	H	1.464290	-0.302886	0.141387
H112	H	1.527315	-0.414321	0.078636
H113	H	1.438128	-0.414372	-0.010749
H114	H	1.522542	-0.341782	-0.005839
H115	H	1.167148	-0.514812	0.348965
H116	H	0.939092	-0.000004	0.068646
H117	H	1.390467	-0.617932	0.125839
C118	C	1.397355	-0.787988	0.118656
C119	C	1.332212	-0.838042	0.052069
C120	C	1.393515	-0.881683	-0.009550
H121	H	1.442594	-0.822058	0.162597
H122	H	1.437880	-0.749564	0.078067
H123	H	1.291704	-0.876462	0.092654
H124	H	1.286973	-0.803993	0.008107
H125	H	1.434040	-0.843259	-0.050139
H126	H	1.438752	-0.915748	0.034399
H127	H	1.349325	-0.915644	-0.054743
H128	H	1.447536	0.000007	-0.422901
C129	C	1.140915	-0.606270	0.375265
C130	C	1.081299	-0.663116	0.434896
C131	C	1.019736	-0.619695	0.496498
H132	H	1.095597	-0.572269	0.331318
H133	H	1.184921	-0.572263	0.420567
H134	H	1.037298	-0.697109	0.389599
H135	H	1.126590	-0.697119	0.478863
H136	H	1.063741	-0.585688	0.541800
H137	H	0.974424	-0.585696	0.452544
H138	H	0.979286	-0.658259	0.536972
H139	H	1.395563	-0.000016	-0.057345
H140	H	1.111054	-0.382095	0.404981
H141	H	1.120675	-0.223916	0.395343
H142	H	1.030916	-0.000009	-0.244716
