data_functionalizedCrystal
_audit_creation_method	'MofGen! by Chris Wilmer'
_symmetry_space_group_name_H-M	'P1'
_symmetry_Int_Tables_number	1
_symmetry_cell_setting	triclinic
loop_
_symmetry_equiv_pos_as_xyz
  x,y,z
_cell_length_a	15.297475
_cell_length_b	15.297327
_cell_length_c	15.298431
_cell_angle_alpha	88.343933
_cell_angle_beta	88.369029
_cell_angle_gamma	91.625546
loop_
_atom_site_label
_atom_site_type_symbol
_atom_site_fract_x
_atom_site_fract_y
_atom_site_fract_z
Zn1	Zn	1.169574	-0.425830	-0.785800
Zn2	Zn	1.669574	0.074170	-0.285800
Zn3	Zn	1.161160	-0.596506	-0.663007
Zn4	Zn	1.661160	-0.096506	-0.163007
Zn5	Zn	1.046787	-0.434120	-0.615178
Zn6	Zn	1.546787	0.065880	-0.115178
Zn7	Zn	0.998872	-0.548504	-0.777479
Zn8	Zn	1.498872	-0.048504	-0.277479
O9	O	1.094098	-0.501240	-0.710366
O10	O	1.594098	-0.001240	-0.210366
O11	O	1.287763	-0.465090	-0.793011
O12	O	1.787763	0.034910	-0.293011
O13	O	1.162519	-0.598524	-0.537349
O14	O	1.662519	-0.098524	-0.037349
O15	O	1.086648	-0.313722	-0.621277
O16	O	1.586648	0.186278	-0.121277
O17	O	1.281581	-0.590485	-0.702795
O18	O	1.781581	-0.090485	-0.202795
O19	O	1.176860	-0.307631	-0.746633
O20	O	1.676860	0.192369	-0.246633
O21	O	1.078490	-0.479220	-0.502209
O22	O	1.578490	0.020780	-0.002209
O23	O	0.921126	-0.432674	-0.613208
O24	O	1.421126	0.067326	-0.113208
O25	O	1.004985	-0.508672	-0.897896
O26	O	1.504985	-0.008672	-0.397896
O27	O	0.885923	-0.516711	-0.732450
O28	O	1.385923	-0.016711	-0.232450
O29	O	1.130399	-0.418544	-0.904010
O30	O	1.630399	0.081456	-0.404010
O31	O	1.116059	-0.709437	-0.694726
O32	O	1.616059	-0.209437	-0.194726
O33	O	0.996826	-0.674170	-0.778828
O34	O	1.496826	-0.174170	-0.278828
C35	C	0.872590	-0.470384	-0.666737
C36	C	1.372590	0.029616	-0.166737
C37	C	0.777820	-0.457200	-0.648095
C38	C	1.277820	0.042800	-0.148095
C39	C	0.437444	-0.595473	-0.843604
C40	C	0.937444	-0.095473	-0.343604
C41	C	0.526483	-0.607867	-0.861117
C42	C	1.026483	-0.107867	-0.361117
C43	C	0.589322	-0.570201	-0.807863
C44	C	1.089322	-0.070201	-0.307863
C45	C	0.563112	-0.520140	-0.737093
C46	C	1.063112	-0.020140	-0.237093
C47	C	0.474064	-0.507750	-0.719574
C48	C	0.974064	-0.007750	-0.219574
C49	C	0.625942	-0.482478	-0.683833
C50	C	1.125942	0.017522	-0.183833
C51	C	0.599733	-0.432416	-0.613063
C52	C	1.099733	0.067584	-0.113063
C53	C	0.510692	-0.420029	-0.595547
C54	C	1.010692	0.079971	-0.095547
C55	C	0.447854	-0.457695	-0.648801
C56	C	0.947854	0.042305	-0.148801
C57	C	0.714990	-0.494867	-0.701353
C58	C	1.214990	0.005133	-0.201353
C59	C	0.751610	-0.407144	-0.577322
C60	C	1.251610	0.092856	-0.077322
C61	C	0.662571	-0.394750	-0.559809
C62	C	1.162571	0.105250	-0.059809
C63	C	1.050351	-0.722736	-0.741088
C64	C	1.550351	-0.222736	-0.241088
C65	C	1.031709	-0.817498	-0.754274
C66	C	1.531709	-0.317498	-0.254274
C67	C	1.227642	-1.157935	-0.616479
C68	C	1.727642	-0.657935	-0.116479
C69	C	1.245157	-1.068902	-0.604085
C70	C	1.745157	-0.568902	-0.104085
C71	C	1.191797	-1.006047	-0.641632
C72	C	1.691797	-0.506047	-0.141632
C73	C	1.120918	-1.032233	-0.691574
C74	C	1.620918	-0.532233	-0.191574
C75	C	1.103398	-1.121275	-0.703963
C76	C	1.603398	-0.621275	-0.203963
C77	C	1.067552	-0.969387	-0.729116
C78	C	1.567552	-0.469387	-0.229116
C79	C	0.996674	-0.995573	-0.779058
C80	C	1.496674	-0.495573	-0.279058
C81	C	0.979157	-1.084606	-0.791445
C82	C	1.479157	-0.584606	-0.291445
C83	C	1.032517	-1.147461	-0.753899
C84	C	1.532517	-0.647461	-0.253899
C85	C	1.085073	-0.880345	-0.716726
C86	C	1.585073	-0.380345	-0.216726
C87	C	0.960828	-0.843684	-0.804210
C88	C	1.460828	-0.343684	-0.304210
C89	C	0.943314	-0.932717	-0.816604
C90	C	1.443314	-0.432717	-0.316604
C91	C	1.316472	-0.532217	-0.754166
C92	C	1.816472	-0.032217	-0.254166
C93	C	1.411234	-0.545418	-0.772831
C94	C	1.911234	-0.045418	-0.272831
C95	C	1.063286	-0.457329	-0.932755
C96	C	1.563286	0.042671	-0.432755
C97	C	1.050155	-0.438616	-1.027524
C98	C	1.550155	0.061384	-0.527524
C99	C	1.138037	-0.278879	-0.679548
C100	C	1.638037	0.221121	-0.179548
C101	C	1.156762	-0.184122	-0.666415
C102	C	1.656762	0.315878	-0.166415
C103	C	1.000236	-0.367707	-1.053743
C104	C	1.500236	0.132293	-0.553743
C105	C	0.987888	-0.350125	-1.142781
C106	C	1.487888	0.149875	-0.642781
C107	C	1.025464	-0.403447	-1.205609
C108	C	1.525464	0.096553	-0.705609
C109	C	1.075389	-0.474355	-1.179390
C110	C	1.575389	0.025645	-0.679390
C111	C	1.087733	-0.491942	-1.090343
C112	C	1.587733	0.008058	-0.590343
C113	C	1.112961	-0.527683	-1.242208
C114	C	1.612961	-0.027683	-0.742208
C115	C	1.162887	-0.598590	-1.215989
C116	C	1.662887	-0.098590	-0.715989
C117	C	1.175228	-0.616174	-1.126951
C118	C	1.675228	-0.116174	-0.626951
C119	C	1.137652	-0.562852	-1.064123
C120	C	1.637652	-0.062852	-0.564123
C121	C	1.100617	-0.510095	-1.331255
C122	C	1.600617	-0.010095	-0.831255
C123	C	1.188114	-0.634331	-1.367855
C124	C	1.688114	-0.134331	-0.867855
C125	C	1.200462	-0.651912	-1.278817
C126	C	1.700462	-0.151912	-0.778817
C127	C	1.124852	-0.544926	-0.488843
C128	C	1.624852	-0.044926	0.011157
C129	C	1.138195	-0.563421	-0.394074
C130	C	1.638195	-0.063421	0.105926
H131	H	0.802775	-0.376475	-0.533958
H132	H	1.302775	0.123525	-0.033958
H133	H	0.947235	-0.292394	-1.164122
H134	H	1.447235	0.207606	-0.664122
F135	F	0.482801	-0.366756	-0.520221
F136	F	0.982801	0.133244	-0.020221
F137	F	0.904031	-0.776793	-0.844167
F138	F	1.404031	-0.276793	-0.344167
H139	H	1.271076	-1.209119	-0.585908
H140	H	1.771076	-0.709119	-0.085908
F141	F	1.160505	-0.852486	-0.663575
F142	F	1.660505	-0.352486	-0.163575
F143	F	0.634666	-0.341472	-0.484492
F144	F	1.134666	0.158528	0.015508
H145	H	1.147707	-0.577160	-0.991620
H146	H	1.647707	-0.077160	-0.491620
H147	H	1.302865	-1.047585	-0.563422
H148	H	1.802865	-0.547585	-0.063422
H149	H	1.206061	-0.933553	-0.631536
H150	H	1.706061	-0.433553	-0.131536
F151	F	1.228105	-0.691086	-1.434716
F152	F	1.728105	-0.191086	-0.934716
H153	H	1.215868	-0.673921	-1.105606
H154	H	1.715868	-0.173921	-0.605606
H155	H	0.661821	-0.580295	-0.822127
H156	H	1.161821	-0.080295	-0.322127
H157	H	1.241112	-0.709646	-1.257456
H158	H	1.741112	-0.209646	-0.757456
H159	H	1.059969	-0.452360	-1.352593
H160	H	1.559969	0.047640	-0.852593
H161	H	0.921435	-1.105923	-0.832100
H162	H	1.421435	-0.605923	-0.332100
H163	H	1.018262	-1.219961	-0.763990
H164	H	1.518262	-0.719961	-0.263990
F165	F	0.742874	-0.548145	-0.776670
F166	F	1.242874	-0.048145	-0.276670
H167	H	0.547816	-0.648630	-0.918737
H168	H	1.047816	-0.148630	-0.418737
H169	H	0.386274	-0.626142	-0.886951
H170	H	0.886274	-0.126142	-0.386951
H171	H	0.885604	-0.954051	-0.857267
H172	H	1.385604	-0.454051	-0.357267
H173	H	1.015408	-0.389127	-1.278107
H174	H	1.515408	0.110873	-0.778107
H175	H	0.375349	-0.447605	-0.634547
H176	H	0.875349	0.052395	-0.134547
F177	F	0.960263	-0.310957	-0.986876
F178	F	1.460263	0.189043	-0.486876
