data_functionalizedCrystal
_audit_creation_method	'MofGen! by Chris Wilmer'
_symmetry_space_group_name_H-M	'P1'
_symmetry_Int_Tables_number	1
_symmetry_cell_setting	triclinic
loop_
_symmetry_equiv_pos_as_xyz
  x,y,z
_cell_length_a	11.026607
_cell_length_b	10.489741
_cell_length_c	9.482900
_cell_angle_alpha	99.430409
_cell_angle_beta	78.636152
_cell_angle_gamma	96.562595
loop_
_atom_site_label
_atom_site_type_symbol
_atom_site_fract_x
_atom_site_fract_y
_atom_site_fract_z
O1	O	1.633618	0.519526	-0.120902
O2	O	1.279780	0.458584	-0.120903
O3	O	1.464749	0.305229	-0.120894
O4	O	1.448649	0.672881	-0.120911
O5	O	1.427179	0.336539	0.120897
O6	O	1.242210	0.489894	0.120887
O7	O	1.596048	0.550836	0.120889
Cu8	Cu	1.415698	0.523224	0.142965
Cu9	Cu	1.460129	0.486196	-0.142980
O10	O	1.411079	0.704190	0.120879
C11	C	1.215686	0.462996	-0.000008
C12	C	1.080679	0.429482	-0.000008
C13	C	1.007683	0.522021	-0.000014
C14	C	0.868146	0.487384	-0.000014
C15	C	1.444748	0.273085	0.000000
C16	C	1.441110	0.130655	-0.000002
C17	C	1.323420	0.036624	-0.000013
C18	C	1.360492	-0.027831	0.119202
C19	C	1.397561	-0.058669	-0.119184
C20	C	1.478215	0.068088	0.119312
C21	C	1.515284	0.037242	-0.119182
C22	C	1.552438	-0.027163	0.000063
C23	C	1.660143	0.546423	-0.000010
C24	C	1.795151	0.579936	-0.000019
C25	C	1.431080	0.736334	-0.000018
C26	C	1.434720	0.878763	-0.000025
N27	N	1.384457	0.549268	0.344084
N28	N	1.491380	0.460144	-0.344099
C29	C	1.450906	0.493869	0.416286
C30	C	1.424922	0.515551	0.583703
H31	H	1.039876	0.324608	-0.000041
O32	O	0.814108	0.348463	0.000007
H33	H	0.860169	0.287455	-0.098532
O34	O	1.680751	-0.064370	0.000028
H35	H	1.677358	-0.170668	-0.000966
H36	H	1.226636	0.065005	0.000107
O37	O	1.592218	0.376037	0.573632
H38	H	1.662662	0.434344	0.504269
O39	O	1.601947	0.075505	-0.252723
H40	H	1.696578	0.048556	-0.253609
O41	O	1.551727	0.409764	0.333984
H42	H	1.642244	0.451328	0.363073
O43	O	1.324078	0.599651	0.665970
H44	H	1.319501	0.603493	0.784555
O45	O	1.273800	-0.066130	0.252717
H46	H	1.178787	-0.040923	0.252478
O47	O	1.523347	0.140715	0.252977
H48	H	1.525645	0.246627	0.251967
O49	O	1.061721	0.660938	-0.000005
H50	H	1.046284	0.696425	-0.098550
H51	H	1.363411	-0.113642	-0.219981
O52	O	1.283619	0.633364	0.426357
H53	H	1.279041	0.637206	0.544942
H54	H	0.835951	0.684814	-0.000014
