data_functionalizedCrystal
_audit_creation_method	'MofGen! by Chris Wilmer'
_symmetry_space_group_name_H-M	'P1'
_symmetry_Int_Tables_number	1
_symmetry_cell_setting	triclinic
loop_
_symmetry_equiv_pos_as_xyz
  x,y,z
_cell_length_a	12.759387
_cell_length_b	19.805407
_cell_length_c	19.805405
_cell_angle_alpha	90.026410
_cell_angle_beta	90.036994
_cell_angle_gamma	90.023842
loop_
_atom_site_label
_atom_site_type_symbol
_atom_site_fract_x
_atom_site_fract_y
_atom_site_fract_z
Zn1	Zn	-0.594053	-1.034764	0.269427
Zn2	Zn	-0.094053	-0.534764	0.769427
Zn3	Zn	-0.418355	-1.034671	0.382631
Zn4	Zn	0.081645	-0.534671	0.882631
Zn5	Zn	-0.418380	-0.921570	0.269461
Zn6	Zn	0.081620	-0.421570	0.769461
Zn7	Zn	-0.593984	-0.921542	0.382580
Zn8	Zn	-0.093984	-0.421542	0.882580
O9	O	-0.506193	-0.978137	0.326025
O10	O	-0.006193	-0.478137	0.826025
O11	O	-0.570765	-1.129468	0.284451
O12	O	-0.070765	-0.629468	0.784451
O13	O	-0.271337	-1.019640	0.367654
O14	O	0.228663	-0.519640	0.867654
O15	O	-0.441723	-0.936637	0.174740
O16	O	0.058277	-0.436637	0.674740
O17	O	-0.441680	-1.129400	0.367622
O18	O	0.058320	-0.629400	0.867622
O19	O	-0.570790	-1.019800	0.174715
O20	O	-0.070790	-0.519800	0.674715
O21	O	-0.271355	-0.936546	0.284509
O22	O	0.228645	-0.436546	0.784509
O23	O	-0.441655	-0.826850	0.284460
O24	O	0.058345	-0.326850	0.784460
O25	O	-0.741014	-0.936589	0.367534
O26	O	-0.241014	-0.436589	0.867534
O27	O	-0.570671	-0.826830	0.367567
O28	O	-0.070671	-0.326830	0.867567
O29	O	-0.741065	-1.019773	0.284402
O30	O	-0.241065	-0.519773	0.784402
O31	O	-0.441613	-1.019613	0.477341
O32	O	0.058387	-0.519613	0.977341
O33	O	-0.570646	-0.936498	0.477303
O34	O	-0.070646	-0.436498	0.977303
C35	C	-0.506159	-0.802281	0.326012
C36	C	-0.006159	-0.302281	0.826012
C37	C	-0.506169	-0.727049	0.326023
C38	C	-0.006169	-0.227049	0.826023
C39	C	-0.780226	-0.978188	0.325959
C40	C	-0.280226	-0.478188	0.825959
C41	C	-0.897003	-0.978210	0.325930
C42	C	-0.397003	-0.478210	0.825930
C43	C	-0.506142	-0.978061	0.501881
C44	C	-0.006142	-0.478061	1.001881
C45	C	-0.506155	-0.978090	0.577113
C46	C	-0.006155	-0.478090	1.077113
C47	C	-0.897076	-1.064835	0.239370
C48	C	-0.397076	-0.564835	0.739370
C49	C	-0.951974	-1.108157	0.196080
C50	C	-0.451974	-0.608157	0.696080
C51	C	-1.061695	-1.108173	0.196055
C52	C	-0.561695	-0.608173	0.696055
C53	C	-1.116522	-1.064862	0.239324
C54	C	-0.616522	-0.564862	0.739324
C55	C	-1.061625	-1.021540	0.282614
C56	C	-0.561625	-0.521540	0.782614
C57	C	-0.951901	-1.021529	0.282636
C58	C	-0.451901	-0.521529	0.782636
C59	C	-1.061552	-0.934912	0.369170
C60	C	-0.561552	-0.434912	0.869170
C61	C	-0.951830	-0.934898	0.369199
C62	C	-0.451830	-0.434898	0.869199
C63	C	-1.116379	-0.891601	0.412439
C64	C	-0.616379	-0.391601	0.912439
C65	C	-1.061481	-0.848281	0.455734
C66	C	-0.561481	-0.348281	0.955734
C67	C	-0.951753	-0.848267	0.455757
C68	C	-0.451753	-0.348267	0.955757
C69	C	-0.896933	-0.891576	0.412489
C70	C	-0.396933	-0.391576	0.912489
C71	C	-0.233225	-0.978125	0.326042
C72	C	0.266775	-0.478125	0.826042
C73	C	-0.116449	-0.978234	0.325880
C74	C	0.383551	-0.478234	0.825880
C75	C	-0.506228	-1.154680	0.326038
C76	C	-0.006228	-0.654680	0.826038
C77	C	-0.506242	-1.229912	0.326044
C78	C	-0.006242	-0.729912	0.826044
C79	C	-0.573239	-0.691712	0.369362
C80	C	-0.073239	-0.191712	0.869362
C81	C	-0.573254	-0.621023	0.369363
C82	C	-0.073254	-0.121023	0.869363
C83	C	-0.506193	-0.585673	0.326028
C84	C	-0.006193	-0.085673	0.826028
C85	C	-0.439120	-0.621015	0.282684
C86	C	0.060880	-0.121015	0.782684
C87	C	-0.439112	-0.691703	0.282680
C88	C	0.060888	-0.191703	0.782680
C89	C	-0.439155	-0.335942	0.282699
C90	C	0.060845	0.164058	0.782699
C91	C	-0.439167	-0.265250	0.282708
C92	C	0.060833	0.234750	0.782708
C93	C	-0.573297	-0.265263	0.369382
C94	C	-0.073297	0.234737	0.869382
C95	C	-0.573288	-0.335950	0.369378
C96	C	-0.073288	0.164050	0.869378
C97	C	-0.506220	-0.371286	0.326032
C98	C	-0.006220	0.128714	0.826032
C99	C	-0.506206	-0.447934	0.326030
C100	C	-0.006206	0.052066	0.826030
C101	C	-0.506201	-0.509026	0.326033
C102	C	-0.006201	-0.009026	0.826033
C103	C	-0.506267	-0.978232	0.149482
C104	C	-0.006267	-0.478232	0.649482
C105	C	-0.506298	-0.978272	0.074250
C106	C	-0.006298	-0.478272	0.574250
C107	C	-0.439038	-1.021410	0.612454
C108	C	0.060962	-0.521410	1.112454
C109	C	-0.439061	-1.021439	0.683143
C110	C	0.060939	-0.521439	1.183143
C111	C	-0.506197	-0.978144	0.718489
C112	C	-0.006197	-0.478144	1.218489
C113	C	-0.573322	-0.934822	0.683142
C114	C	-0.073322	-0.434822	1.183142
C115	C	-0.573304	-0.934797	0.612455
C116	C	-0.073304	-0.434797	1.112455
C117	C	-0.573400	-0.934922	0.968216
C118	C	-0.073400	-0.434922	1.468216
C119	C	-0.573411	-0.934948	1.038908
C120	C	-0.073411	-0.434948	1.538908
C121	C	-0.439158	-1.021563	1.038903
C122	C	0.060842	-0.521563	1.538903
C123	C	-0.439139	-1.021539	0.968216
C124	C	0.060861	-0.521539	1.468216
C125	C	-0.506267	-0.978220	0.932876
C126	C	-0.006267	-0.478220	1.432876
C127	C	-0.506243	-0.978190	0.856227
C128	C	-0.006243	-0.478190	1.356227
C129	C	-0.506217	-0.978169	0.795136
C130	C	-0.006217	-0.478169	1.295136
H131	H	-0.807735	-1.064832	0.239392
H132	H	-0.307735	-0.564832	0.739392
Cl133	Cl	-0.657544	-0.736145	0.423847
Cl134	Cl	-0.157544	-0.236145	0.923847
Cl135	Cl	-0.354736	-1.075969	0.923785
Cl136	Cl	0.145264	-0.575969	1.423785
Cl137	Cl	-0.354844	-0.380355	0.228204
Cl138	Cl	0.145156	0.119645	0.728204
H139	H	-0.628056	-0.899649	0.939447
H140	H	-0.128056	-0.399649	1.439447
Cl141	Cl	-0.354795	-0.736127	0.228192
Cl142	Cl	0.145205	-0.236127	0.728192
H143	H	-0.627990	-0.899573	0.711927
H144	H	-0.127990	-0.399573	1.211927
Cl145	Cl	-0.657687	-0.880338	0.568026
Cl146	Cl	-0.157687	-0.380338	1.068026
Cl147	Cl	-0.657820	-0.880517	1.083342
Cl148	Cl	-0.157820	-0.380517	1.583342
H149	H	-0.627893	-0.364728	0.404669
H150	H	-0.127893	0.135272	0.904669
Cl151	Cl	-1.254459	-1.064878	0.239285
Cl152	Cl	-0.754459	-0.564878	0.739285
H153	H	-0.384558	-0.236470	0.247415
H154	H	0.115442	0.263530	0.747415
H155	H	-0.907322	-1.143419	0.160850
H156	H	-0.407322	-0.643419	0.660850
H157	H	-0.384363	-1.056663	0.583680
H158	H	0.115637	-0.556663	1.083680
Cl159	Cl	-1.130712	-1.162625	0.141622
Cl160	Cl	-0.630712	-0.662625	0.641622
Cl161	Cl	-0.657614	-0.220836	0.423875
Cl162	Cl	-0.157614	0.279164	0.923875
Cl163	Cl	-1.254316	-0.891621	0.412408
Cl164	Cl	-0.754316	-0.391621	0.912408
H165	H	-1.106130	-0.813017	0.490956
H166	H	-0.606130	-0.313017	0.990956
H167	H	-0.384407	-1.056714	0.711914
H168	H	0.115593	-0.556714	1.211914
H169	H	-0.384502	-1.056838	1.067685
H170	H	0.115498	-0.556838	1.567685
H171	H	-0.384523	-0.592228	0.247397
H172	H	0.115477	-0.092228	0.747397
Cl173	Cl	-0.758996	-0.891565	0.412518
Cl174	Cl	-0.258996	-0.391565	0.912518
Cl175	Cl	-0.882748	-0.793798	0.510179
Cl176	Cl	-0.382748	-0.293798	1.010179
H177	H	-0.627867	-0.592255	0.404655
H178	H	-0.127867	-0.092255	0.904655
