data_functionalizedCrystal
_audit_creation_method	'MofGen! by Chris Wilmer'
_symmetry_space_group_name_H-M	'P1'
_symmetry_Int_Tables_number	1
_symmetry_cell_setting	triclinic
loop_
_symmetry_equiv_pos_as_xyz
  x,y,z
_cell_length_a	25.639242
_cell_length_b	19.805405
_cell_length_c	19.805398
_cell_angle_alpha	89.969674
_cell_angle_beta	89.979057
_cell_angle_gamma	90.021937
loop_
_atom_site_label
_atom_site_type_symbol
_atom_site_fract_x
_atom_site_fract_y
_atom_site_fract_z
Zn1	Zn	0.799263	-0.269553	-0.382853
Zn2	Zn	0.799207	-0.382743	-0.269661
Zn3	Zn	0.711842	-0.269565	-0.269662
Zn4	Zn	0.711804	-0.382696	-0.382792
O5	O	0.755529	-0.326139	-0.326242
O6	O	0.872421	-0.284582	-0.367863
O7	O	0.787611	-0.367754	-0.174945
O8	O	0.723478	-0.174846	-0.284703
O9	O	0.872380	-0.367743	-0.284701
O10	O	0.787706	-0.174838	-0.367863
O11	O	0.723423	-0.284603	-0.174945
O12	O	0.638671	-0.284557	-0.284644
O13	O	0.723413	-0.367663	-0.477517
O14	O	0.638643	-0.367675	-0.367760
O15	O	0.787669	-0.284537	-0.477561
O16	O	0.787574	-0.477454	-0.284643
O17	O	0.723359	-0.477419	-0.367760
C18	C	0.619686	-0.326113	-0.326196
C19	C	0.561572	-0.326117	-0.326193
C20	C	0.755470	-0.501995	-0.326209
C21	C	0.755493	-0.577227	-0.326218
C22	C	0.788962	-0.612567	-0.282984
C23	C	0.788984	-0.683255	-0.282999
C24	C	0.755534	-0.718603	-0.326245
C25	C	0.722063	-0.683258	-0.369483
C26	C	0.722044	-0.612571	-0.369471
C27	C	0.722140	-0.968331	-0.369534
C28	C	0.722161	-1.039024	-0.369541
C29	C	0.789081	-1.039016	-0.283061
C30	C	0.789061	-0.968328	-0.283049
C31	C	0.755593	-0.932990	-0.326290
C32	C	0.755570	-0.856342	-0.326274
C33	C	0.755554	-0.795250	-0.326258
C34	C	0.201204	-0.369491	-0.369480
C35	C	0.146599	-0.369495	-0.369490
O36	O	0.118358	-0.406339	-0.406256
N37	N	0.119290	-0.326158	-0.326286
C38	C	0.146588	-0.282809	-0.283073
O39	O	0.118345	-0.245947	-0.246326
C40	C	0.201191	-0.282802	-0.283067
C41	C	0.228498	-0.326147	-0.326269
C42	C	0.228510	-0.412831	-0.412679
C43	C	0.283111	-0.412828	-0.412667
C44	C	0.310405	-0.369484	-0.369456
C45	C	0.283098	-0.326143	-0.326257
C46	C	0.228488	-0.239450	-0.239858
C47	C	0.283095	-0.239446	-0.239855
C48	C	0.310401	-0.282791	-0.283057
C49	C	0.364992	-0.282796	-0.283034
N50	N	0.392302	-0.326133	-0.326239
C51	C	0.365008	-0.369477	-0.369450
C52	C	0.031917	-0.282826	-0.283092
C53	C	-0.022685	-0.282836	-0.283094
C54	C	-0.022670	-0.369521	-0.369513
C55	C	0.031933	-0.369514	-0.369506
C56	C	0.059226	-0.326163	-0.326296
C57	C	0.479673	-0.369467	-0.369421
C58	C	0.534279	-0.369462	-0.369404
C59	C	0.534258	-0.282774	-0.282988
C60	C	0.479658	-0.282782	-0.283003
C61	C	0.452366	-0.326130	-0.326225
O62	O	0.393269	-0.245968	-0.246290
O63	O	0.393258	-0.406326	-0.406197
C64	C	0.891902	-0.326166	-0.326289
C65	C	0.950016	-0.326178	-0.326308
C66	C	0.755543	-0.326093	-0.502785
C67	C	0.755549	-0.326074	-0.578017
C68	C	0.755602	-0.149596	-0.326290
C69	C	0.755634	-0.074364	-0.326310
C70	C	0.789054	-0.369263	-1.039805
C71	C	0.789039	-0.369282	-0.969117
C72	C	0.755614	-0.325998	-0.933779
C73	C	0.722197	-0.282697	-0.969133
C74	C	0.722209	-0.282683	-1.039820
C75	C	0.722146	-0.282755	-0.684059
C76	C	0.722138	-0.282771	-0.613367
C77	C	0.788977	-0.369354	-0.613356
C78	C	0.788989	-0.369340	-0.684043
C79	C	0.755570	-0.326042	-0.719391
C80	C	0.755586	-0.326024	-0.796040
C81	C	0.755601	-0.326012	-0.857132
C82	C	0.755545	-0.326136	-0.150386
C83	C	0.755641	-0.325965	-0.075154
H84	H	0.816199	-0.583791	-0.247766
H85	H	-0.044902	-0.404812	-0.404700
C86	C	0.825902	-1.077889	-0.235499
C87	C	0.862692	-1.039008	-0.187927
C88	C	0.899510	-1.077879	-0.140364
C89	C	0.899538	-1.155632	-0.140374
C90	C	0.862746	-1.194518	-0.187948
C91	C	0.825928	-1.155647	-0.235511
H92	H	0.862673	-0.981446	-0.187918
H93	H	0.926746	-1.049092	-0.105146
H94	H	0.926793	-1.184407	-0.105165
H95	H	0.862765	-1.252079	-0.187958
H96	H	0.798692	-1.184433	-0.270729
C97	C	0.825804	-0.722125	-0.235442
C98	C	0.821577	-0.712464	-0.158489
C99	C	0.858402	-0.751331	-0.110931
C100	C	0.899453	-0.799859	-0.140326
C101	C	0.903682	-0.809521	-0.217283
C102	C	0.866858	-0.770654	-0.264841
H103	H	0.791187	-0.676540	-0.136725
H104	H	0.855271	-0.744178	-0.053962
H105	H	0.926713	-0.828630	-0.105121
H106	H	0.934072	-0.845446	-0.239046
H107	H	0.869988	-0.777807	-0.321809
C108	C	0.313142	-0.460502	-0.460199
C109	C	0.305607	-0.537440	-0.454545
C110	C	0.335633	-0.585114	-0.502084
C111	C	0.373194	-0.555850	-0.555276
C112	C	0.380730	-0.478908	-0.560932
C113	C	0.350704	-0.431234	-0.513394
H114	H	0.277801	-0.559107	-0.415167
H115	H	0.330054	-0.642072	-0.497896
H116	H	0.395421	-0.591141	-0.590467
H117	H	0.408537	-0.457241	-0.600310
H118	H	0.356284	-0.374276	-0.517582
H119	H	0.694791	-0.583798	-0.404678
C120	C	0.685427	-0.235085	-0.930263
C121	C	0.685413	-0.235096	-0.852510
C122	C	0.648642	-0.187482	-0.813642
C123	C	0.611886	-0.139856	-0.852527
C124	C	0.611899	-0.139843	-0.930285
C125	C	0.648669	-0.187457	-0.969153
H126	H	0.712623	-0.270353	-0.823721
H127	H	0.648633	-0.187492	-0.756081
H128	H	0.584666	-0.104609	-0.823755
H129	H	0.584688	-0.104586	-0.959074
H130	H	0.648678	-0.187447	-1.026714
C131	C	0.825732	-0.416991	-0.574470
C132	C	0.866782	-0.387684	-0.525887
C133	C	0.903536	-0.435319	-0.487002
C134	C	0.899240	-0.512261	-0.496702
C135	C	0.858188	-0.541572	-0.545287
C136	C	0.821434	-0.493937	-0.584172
H137	H	0.869964	-0.330724	-0.518705
H138	H	0.933926	-0.413621	-0.451036
H139	H	0.926448	-0.547523	-0.467917
H140	H	0.855006	-0.598532	-0.552469
H141	H	0.791045	-0.515636	-0.620138
H142	H	0.816298	-0.939551	-0.247832
H143	H	0.694917	-0.247522	-0.584597
C144	C	0.685455	-0.235053	-1.078708
C145	C	0.626014	-0.240568	-1.068974
C146	C	0.589256	-0.192940	-1.107861
C147	C	0.611940	-0.139796	-1.156482
C148	C	0.671384	-0.134279	-1.166218
C149	C	0.708142	-0.181907	-1.127331
H150	H	0.609219	-0.279910	-1.032980
H151	H	0.545251	-0.197024	-1.100653
H152	H	0.584730	-0.104539	-1.185268
H153	H	0.688179	-0.094937	-1.202211
H154	H	0.752146	-0.177823	-1.134538
C155	C	0.685267	-0.722137	-0.417056
C156	C	0.689490	-0.712361	-0.494006
C157	C	0.652691	-0.751236	-0.541578
C158	C	0.611669	-0.799888	-0.512201
C159	C	0.607444	-0.809666	-0.435247
C160	C	0.644243	-0.770790	-0.387675
H161	H	0.719858	-0.676344	-0.515756
H162	H	0.655818	-0.743998	-0.598544
H163	H	0.584428	-0.828666	-0.547417
H164	H	0.577076	-0.845683	-0.413497
H165	H	0.641115	-0.778029	-0.330709
H166	H	0.694923	-1.067802	-0.404762
H167	H	0.694888	-0.939565	-0.404740
H168	H	0.206293	-0.448128	-0.447870
H169	H	0.054136	-0.247525	-0.247900
H170	H	0.206264	-0.204156	-0.204676
H171	H	0.305314	-0.204140	-0.204671
C172	C	0.449613	-0.235102	-0.235487
C173	C	0.457147	-0.158165	-0.241162
C174	C	0.427104	-0.110477	-0.193655
C175	C	0.389528	-0.139726	-0.140473
C176	C	0.381992	-0.216667	-0.134796
C177	C	0.412034	-0.264355	-0.182303
H178	H	0.484965	-0.136510	-0.280533
H179	H	0.432683	-0.053520	-0.197859
H180	H	0.367288	-0.104424	-0.105306
H181	H	0.354174	-0.238322	-0.095425
H182	H	0.406456	-0.321312	-0.178099
C183	C	0.825821	-0.416879	-1.078676
C184	C	0.821515	-0.493825	-1.068931
C185	C	0.858281	-0.541446	-1.107800
C186	C	0.899351	-0.512120	-1.156413
C187	C	0.903658	-0.435170	-1.166160
C188	C	0.866893	-0.387550	-1.127291
H189	H	0.791111	-0.515538	-1.032942
H190	H	0.855093	-0.598409	-1.100584
H191	H	0.926567	-0.547371	-1.185187
H192	H	0.934062	-0.413457	-1.202149
H193	H	0.870081	-0.330586	-1.134507
C194	C	0.564315	-0.417141	-0.416931
C195	C	0.556781	-0.494080	-0.411272
C196	C	0.586815	-0.541757	-0.458799
C197	C	0.624382	-0.512496	-0.511985
C198	C	0.631917	-0.435554	-0.517647
C199	C	0.601884	-0.387876	-0.470120
H200	H	0.528970	-0.515744	-0.371898
H201	H	0.581237	-0.598714	-0.454608
H202	H	0.646615	-0.547789	-0.547168
H203	H	0.659729	-0.413889	-0.557021
H204	H	0.607462	-0.330919	-0.474311
H205	H	0.457459	-0.404764	-0.404618
H206	H	-0.044914	-0.247547	-0.247908
C207	C	0.061968	-0.417189	-0.417033
C208	C	0.099484	-0.470290	-0.387609
C209	C	0.129516	-0.517965	-0.435140
C210	C	0.122032	-0.512540	-0.512095
C211	C	0.084514	-0.459438	-0.541523
C212	C	0.054482	-0.411762	-0.493992
H213	H	0.105027	-0.474307	-0.330638
H214	H	0.157289	-0.557275	-0.413354
H215	H	0.144263	-0.547833	-0.547280
H216	H	0.078972	-0.455420	-0.598493
H217	H	0.026709	-0.372452	-0.515778
C218	C	0.825796	-0.416909	-0.930233
C219	C	0.862567	-0.464516	-0.969102
C220	C	0.899326	-0.512146	-0.930218
C221	C	0.899313	-0.512169	-0.852465
C222	C	0.862540	-0.464560	-0.813592
C223	C	0.825782	-0.416930	-0.852475
H224	H	0.862578	-0.464500	-1.026664
H225	H	0.926547	-0.547388	-0.958996
H226	H	0.926523	-0.547427	-0.823681
H227	H	0.862530	-0.464576	-0.756030
H228	H	0.798561	-0.381687	-0.823698
H229	H	0.556491	-0.247487	-0.247805
H230	H	0.816209	-0.404584	-0.712812
H231	H	0.694934	-0.247500	-0.712831
