data_functionalizedCrystal
_audit_creation_method	'MofGen! by Chris Wilmer'
_symmetry_space_group_name_H-M	'P1'
_symmetry_Int_Tables_number	1
_symmetry_cell_setting	triclinic
loop_
_symmetry_equiv_pos_as_xyz
  x,y,z
_cell_length_a	15.624803
_cell_length_b	10.654541
_cell_length_c	14.750488
_cell_angle_alpha	102.767612
_cell_angle_beta	85.135395
_cell_angle_gamma	95.650927
loop_
_atom_site_label
_atom_site_type_symbol
_atom_site_fract_x
_atom_site_fract_y
_atom_site_fract_z
O1	O	1.085999	-0.319998	-0.457976
O2	O	0.844099	-0.310836	-0.373748
O3	O	0.970613	-0.133273	-0.417793
O4	O	0.959485	-0.497561	-0.413930
O5	O	1.006389	-0.083078	-0.270591
O6	O	0.879875	-0.260642	-0.226546
O7	O	1.121774	-0.269803	-0.310774
Zn8	Zn	1.006505	-0.257253	-0.245288
Zn9	Zn	0.959369	-0.323387	-0.439233
O10	O	0.995260	-0.447367	-0.266728
C11	C	0.831013	-0.281180	-0.289362
C12	C	0.738719	-0.267580	-0.257226
C13	C	0.337743	-0.359620	-0.552822
C14	C	0.251022	-0.346816	-0.522624
C15	C	0.290002	-0.292092	-0.362143
C16	C	0.376729	-0.304886	-0.392327
C17	C	0.400592	-0.338651	-0.487668
C18	C	0.439578	-0.283917	-0.327173
C19	C	0.526296	-0.296716	-0.357356
C20	C	0.550166	-0.330484	-0.452692
C21	C	0.487310	-0.351450	-0.517850
C22	C	0.415712	-0.250161	-0.231833
C23	C	0.478561	-0.229192	-0.166679
C24	C	0.565282	-0.241982	-0.196861
C25	C	0.589152	-0.275750	-0.292197
C26	C	0.628138	-0.221016	-0.131703
C27	C	0.714857	-0.233815	-0.161885
C28	C	0.675871	-0.288549	-0.322380
C29	C	0.987684	-0.061290	-0.343908
C30	C	0.985241	0.078415	-0.343059
C31	C	1.134860	-0.299460	-0.395162
C32	C	1.227152	-0.313062	-0.427304
C33	C	0.978189	-0.519350	-0.340615
C34	C	0.980630	-0.659057	-0.341470
N35	N	1.038680	-0.212118	-0.112928
C36	C	1.136524	0.090150	-0.395723
C37	C	1.211015	0.161651	-0.421652
C38	C	1.208714	0.292915	-0.420854
C39	C	1.131913	0.352680	-0.394126
C40	C	1.057422	0.281179	-0.368197
C41	C	1.059732	0.149914	-0.368996
C42	C	0.906140	0.269442	-0.315541
C43	C	0.908440	0.138180	-0.316332
C44	C	0.829339	0.329207	-0.288813
C45	C	0.754848	0.257709	-0.262877
C46	C	0.757153	0.126437	-0.263675
C47	C	0.833950	0.066680	-0.290403
N48	N	0.927200	-0.368512	-0.571596
C49	C	1.128511	-0.086139	0.006540
C50	C	1.105967	-0.117746	-0.086115
C51	C	0.993908	-0.274916	-0.047087
C52	C	1.016440	-0.243318	0.045574
C53	C	1.083742	-0.148929	0.072379
C54	C	0.971671	-0.306108	0.111414
C55	C	0.994204	-0.274516	0.204066
C56	C	1.061506	-0.180135	0.230878
C57	C	1.106276	-0.117338	0.165031
C58	C	0.904373	-0.400502	0.084605
C59	C	0.859604	-0.463292	0.150445
C60	C	0.882133	-0.431695	0.243100
C61	C	0.949435	-0.337313	0.269913
C62	C	0.837364	-0.494492	0.308947
C63	C	0.859897	-0.462900	0.401599
C64	C	0.971968	-0.305722	0.362565
H65	H	0.608694	-0.193536	-0.054076
H66	H	0.506740	-0.378941	-0.595486
H67	H	0.620778	-0.340912	-0.477264
H68	H	0.766030	-0.216747	-0.108830
F69	F	0.264595	-0.256164	-0.260678
F70	F	1.129456	0.492367	-0.393327
H71	H	1.183309	-0.009269	0.028366
F72	F	1.138983	-0.049547	-0.396557
H73	H	0.835835	-0.040199	-0.291050
F74	F	0.826881	0.468895	-0.288010
H75	H	1.026767	-0.228852	0.384391
H76	H	0.823442	-0.514032	0.455207
F77	F	1.153625	-0.050908	-0.156184
F78	F	1.292746	0.098034	-0.450101
H79	H	0.696492	0.068228	-0.242564
F80	F	1.287993	0.369010	-0.448458
H81	H	0.692322	0.306378	-0.241123
F82	F	1.085491	-0.146519	0.329487
F83	F	0.363145	-0.395542	-0.654295
F84	F	1.177900	-0.016865	0.193563
H85	H	0.939111	-0.351771	-0.068923
H86	H	0.886032	-0.426224	0.009160
H87	H	0.804808	-0.540148	0.128608
H88	H	0.199850	-0.363898	-0.575688
F89	F	0.765745	-0.594956	0.280405
H90	H	0.345099	-0.239748	-0.207262
F91	F	0.701273	-0.324471	-0.423853
H92	H	0.459119	-0.201705	-0.089052
