data_functionalizedCrystal
_audit_creation_method	'MofGen! by Chris Wilmer'
_symmetry_space_group_name_H-M	'P1'
_symmetry_Int_Tables_number	1
_symmetry_cell_setting	triclinic
loop_
_symmetry_equiv_pos_as_xyz
  x,y,z
_cell_length_a	10.686220
_cell_length_b	12.827893
_cell_length_c	10.685453
_cell_angle_alpha	94.380053
_cell_angle_beta	99.055247
_cell_angle_gamma	85.615233
loop_
_atom_site_label
_atom_site_type_symbol
_atom_site_fract_x
_atom_site_fract_y
_atom_site_fract_z
Zn1	Zn	1.885326	0.260058	-0.569102
Zn2	Zn	1.901598	0.447225	-0.356866
Zn3	Zn	1.689421	0.284967	-0.373118
Zn4	Zn	1.673092	0.447232	-0.585330
O5	O	1.787360	0.359871	-0.471104
O6	O	2.065103	0.274459	-0.527356
O7	O	1.887096	0.436122	-0.181388
O8	O	1.715432	0.135425	-0.399126
O9	O	2.077058	0.411969	-0.371426
O10	O	1.859363	0.117124	-0.543115
O11	O	1.731210	0.316913	-0.193328
O12	O	1.509637	0.316920	-0.414861
O13	O	1.687602	0.411982	-0.760811
O14	O	1.497641	0.436135	-0.570772
O15	O	1.843530	0.274466	-0.748888
O16	O	1.871263	0.593464	-0.387161
O17	O	1.703381	0.593469	-0.555013
C18	C	1.457584	0.379232	-0.496342
C19	C	1.316503	0.387538	-0.507169
C20	C	1.787403	0.087297	-0.471123
C21	C	1.787422	-0.028858	-0.471132
C22	C	1.716216	-0.071589	-0.399892
C23	C	1.716234	-0.191641	-0.399899
C24	C	2.118422	0.340435	-0.445768
C25	C	2.259502	0.332152	-0.434972
C26	C	1.787348	0.631381	-0.471110
C27	C	1.787456	0.747525	-0.471146
C28	C	1.761930	0.340446	-0.802196
C29	C	1.751093	0.332169	-0.943287
C30	C	1.812763	0.379140	-0.141294
C31	C	1.823846	0.387109	-0.000185
H32	H	1.318632	0.278381	-0.364877
C33	C	1.890430	0.562289	0.046169
C34	C	1.919386	0.458845	0.079783
H35	H	1.949416	0.606572	0.095534
H36	H	1.806992	0.584301	0.061529
H37	H	1.895264	0.566150	-0.041352
H38	H	1.914543	0.454982	0.167303
H39	H	2.002845	0.436827	0.064433
C40	C	1.568660	0.320396	-0.105347
C41	C	1.655549	0.260443	-0.023247
H42	H	1.509669	0.276114	-0.154709
H43	H	1.612819	0.353781	-0.159944
H44	H	1.524550	0.371941	-0.057061
H45	H	1.699665	0.208902	-0.071534
H46	H	1.611385	0.227041	0.031356
H47	H	1.848426	-0.215700	-0.532134
H48	H	1.655277	-0.228422	-0.338903
C49	C	1.154200	0.400945	-0.689209
C50	C	1.236682	0.460137	-0.601801
H51	H	1.104929	0.445765	-0.747634
H52	H	1.099544	0.367325	-0.645364
H53	H	1.202196	0.349613	-0.733925
H54	H	1.188685	0.511465	-0.557079
H55	H	1.291345	0.493775	-0.645652
C56	C	1.546952	0.062337	-0.395439
C57	C	1.633900	-0.001000	-0.317545
H58	H	1.496139	0.105918	-0.344596
H59	H	1.494117	0.019367	-0.454404
H60	H	1.591638	0.104695	-0.440130
H61	H	1.589214	-0.043364	-0.272861
H62	H	1.686741	0.041975	-0.258557
C63	C	1.791831	-0.162777	-0.640407
C64	C	1.869740	-0.099447	-0.553478
H65	H	1.842655	-0.206358	-0.691239
H66	H	1.732853	-0.119802	-0.693231
H67	H	1.747163	-0.205135	-0.595698
H68	H	1.914400	-0.057083	-0.598187
H69	H	1.928740	-0.142426	-0.500647
