data_functionalizedCrystal
_audit_creation_method	'MofGen! by Chris Wilmer'
_symmetry_space_group_name_H-M	'P1'
_symmetry_Int_Tables_number	1
_symmetry_cell_setting	triclinic
loop_
_symmetry_equiv_pos_as_xyz
  x,y,z
_cell_length_a	20.919309
_cell_length_b	21.606444
_cell_length_c	21.606444
_cell_angle_alpha	60.000398
_cell_angle_beta	89.997904
_cell_angle_gamma	57.440098
loop_
_atom_site_label
_atom_site_type_symbol
_atom_site_fract_x
_atom_site_fract_y
_atom_site_fract_z
Zr1	Zr	0.641757	0.629092	-0.057033
O2	O	0.535385	0.766228	-0.159861
O3	O	0.674367	0.497515	-0.025514
O4	O	0.674367	0.626637	-0.154631
O5	O	0.535385	0.637104	0.071110
O6	O	0.783996	0.618376	-0.150503
O7	O	0.535386	0.637106	-0.030744
O8	O	0.783997	0.387401	0.080464
O9	O	0.535384	0.868079	-0.159857
O10	O	0.770089	0.543411	-0.008987
O11	O	0.688273	0.549574	0.063944
O12	O	0.688273	0.701598	-0.088075
O13	O	0.606457	0.707761	-0.015144
Zr14	Zr	0.816603	0.615913	0.111995
Zr15	Zr	0.816604	0.615917	-0.050449
Zr16	Zr	0.641756	0.629088	0.105411
Zr17	Zr	0.641756	0.791532	-0.057028
Zr18	Zr	0.816605	0.453472	0.111990
O19	O	0.783993	0.747489	0.080476
O20	O	0.783995	0.747495	-0.150499
O21	O	0.535384	0.766222	0.071114
O22	O	0.922975	0.478777	0.214822
O23	O	0.922977	0.478782	-0.016152
O24	O	0.674366	0.497510	0.205460
O25	O	0.922975	0.607901	-0.016148
O26	O	0.783994	0.618368	0.209593
O27	O	0.674364	0.626629	0.205464
O28	O	0.922975	0.607898	0.085705
O29	O	0.674364	0.857606	-0.154624
O30	O	0.783997	0.387398	0.209585
O31	O	0.922976	0.376926	0.214819
O32	O	0.922977	0.376929	0.085698
O33	O	0.535383	0.868076	-0.030736
O34	O	0.674363	0.857603	-0.025503
O35	O	0.770088	0.543407	0.143036
O36	O	0.851904	0.537244	0.070106
O37	O	0.770087	0.695431	-0.008982
O38	O	0.688272	0.701594	0.063949
C39	C	0.729183	0.419314	0.027474
C40	C	0.729183	0.350354	0.027472
C41	C	0.771889	0.314739	-0.010598
C42	C	0.771892	0.249939	-0.010593
C43	C	0.729184	0.220759	0.027478
C44	C	0.686477	0.256377	0.065553
C45	C	0.686480	0.321171	0.065552
C46	C	0.686468	-0.004932	0.065559
C47	C	0.686467	-0.069729	0.065556
C48	C	0.771880	-0.076164	-0.010586
C49	C	0.771882	-0.011369	-0.010587
C50	C	0.729179	0.024239	0.027491
C51	C	0.729178	0.094501	0.027486
C52	C	0.729180	0.150503	0.027479
C53	C	0.510474	0.638982	0.019245
C54	C	0.436247	0.644575	0.016450
C55	C	0.444080	0.564633	0.056416
C56	C	0.374333	0.569894	0.053788
C57	C	0.296754	0.655098	0.011189
C58	C	0.288922	0.735046	-0.028778
C59	C	0.358668	0.729784	-0.026146
C60	C	0.084028	0.675116	0.001178
C61	C	0.014281	0.680371	-0.001454
C62	C	0.099697	0.515219	0.081113
C63	C	0.169440	0.509965	0.083739
C64	C	0.161603	0.589913	0.043775
C65	C	0.225460	0.660477	0.008499
C66	C	0.232896	0.584532	0.046469
C67	C	0.947887	0.606022	0.035716
C68	C	1.022114	0.600429	0.038512
C69	C	0.729182	0.622507	-0.175712
C70	C	0.729182	0.622509	-0.244674
C71	C	0.729178	0.825691	0.027487
C72	C	0.729177	0.894651	0.027489
C73	C	0.789578	0.617959	-0.274798
C74	C	0.789580	0.617953	-0.339591
C75	C	0.729183	0.622503	-0.374262
C76	C	0.668784	0.627049	-0.344132
C77	C	0.668786	0.627049	-0.279337
C78	C	0.668777	0.627049	-0.605442
C79	C	0.668779	0.627052	-0.670243
C80	C	0.789572	0.617953	-0.665696
C81	C	0.789573	0.617953	-0.600901
C82	C	0.729177	0.622495	-0.570775
C83	C	0.729176	0.622500	-0.500518
C84	C	0.729180	0.622504	-0.444520
C85	C	0.729179	0.622498	0.230673
C86	C	0.729179	0.622496	0.299635
C87	C	0.947889	0.402834	0.035710
C88	C	1.022117	0.328281	0.038503
C89	C	0.729181	0.419309	0.230667
C90	C	0.729182	0.350348	0.299626
C91	C	0.947888	0.402829	0.238903
C92	C	1.022115	0.328274	0.310657
C93	C	0.510473	0.842175	-0.183941
C94	C	0.436245	0.916730	-0.255696
C95	C	0.510471	0.842170	0.019251
C96	C	0.436244	0.916724	0.016458
C97	C	0.729179	0.825695	-0.175705
C98	C	0.729179	0.894657	-0.244665
C99	C	1.014269	0.296489	-0.001478
C100	C	1.084007	0.226447	0.001131
C101	C	1.161593	0.188195	0.043725
C102	C	1.169440	0.219994	0.083707
C103	C	1.099702	0.290038	0.081094
C104	C	0.771888	0.314743	0.373303
C105	C	0.771886	0.249956	0.438104
C106	C	0.729180	0.220769	0.429227
C107	C	0.686468	0.256380	0.355542
C108	C	0.686467	0.321171	0.290743
C109	C	1.099688	0.290045	0.306285
C110	C	1.169439	0.220001	0.373700
C111	C	1.161616	0.188184	0.445487
C112	C	1.084035	0.226420	0.449857
C113	C	1.014286	0.296467	0.382443
C114	C	0.358673	0.954968	-0.251324
C115	C	0.288922	1.025032	-0.318739
C116	C	0.296745	1.056852	-0.390525
C117	C	0.374325	1.018612	-0.394896
C118	C	0.444075	0.948554	-0.327481
C119	C	0.444092	0.948523	0.056432
C120	C	0.374354	1.018582	0.053806
C121	C	0.296768	1.056837	0.011209
C122	C	0.288921	1.025035	-0.028770
C123	C	0.358659	0.954981	-0.026147
C124	C	0.771893	0.923823	-0.235763
C125	C	0.771908	0.988610	-0.300551
C126	C	0.729205	1.024235	-0.374240
C127	C	0.686490	0.995063	-0.383141
C128	C	0.686480	0.930272	-0.318353
H129	H	0.651688	-0.093485	0.096560
N130	N	0.640421	0.359579	0.106619
H131	H	0.580675	0.390968	0.083560
H132	H	0.646969	0.405011	0.100835
N133	N	0.817969	0.885395	-0.156290
H134	H	0.811490	0.839921	-0.116590
H135	H	0.795556	0.936565	-0.151126
H136	H	0.296064	0.515160	0.081156
N137	N	0.350220	0.816009	-0.069261
H138	H	0.406175	0.799748	-0.061128
H139	H	0.319377	0.852988	-0.049589
N140	N	0.527750	0.472730	0.102358
H141	H	0.534280	0.437545	0.158109
H142	H	0.570699	0.481597	0.097901
N143	N	1.108137	0.324346	0.228864
H144	H	1.167868	0.289492	0.236335
H145	H	1.081057	0.391432	0.199228
H146	H	0.507236	0.917421	-0.331050
H147	H	0.838759	0.614248	-0.364117
N148	N	0.817983	1.020064	-0.290942
H149	H	0.845025	0.987667	-0.234428
H150	H	0.778775	1.088064	-0.317573
N151	N	1.253108	0.178768	0.368977
H152	H	1.247473	0.209550	0.313269
H153	H	1.283910	0.111401	0.395292
H154	H	0.806654	-0.105166	-0.041589
H155	H	0.162287	0.729851	-0.026184
N156	N	0.854719	0.613035	-0.563497
H157	H	0.828371	0.668984	-0.564585
H158	H	0.892965	0.610116	-0.592431
H159	H	0.239944	1.113898	-0.445413
N160	N	1.075604	0.192098	0.527286
H161	H	1.131565	0.141920	0.569323
H162	H	1.044772	0.167576	0.532131
H163	H	1.218417	0.131146	0.500374
H164	H	0.352288	0.929064	-0.192878
H165	H	0.651699	0.232606	0.348326
H166	H	0.239990	1.113878	0.009080
N167	N	0.930621	0.337678	0.387167
H168	H	0.887615	0.386879	0.333572
H169	H	0.924158	0.364996	0.415581
H170	H	0.806664	0.338500	0.380545
N171	N	0.527768	0.907271	0.102378
H172	H	0.522146	0.938059	0.127296
H173	H	0.558564	0.916227	0.067103
N174	N	0.350188	0.920687	-0.069264
H175	H	0.290454	0.955555	-0.096643
H176	H	0.377255	0.853605	-0.031816
H177	H	0.651700	0.024049	0.096568
N178	N	0.108155	0.428989	0.124226
H179	H	0.138967	0.391974	0.104573
H180	H	0.052177	0.445316	0.116086
N181	N	0.205253	1.066266	-0.314015
H182	H	0.210888	1.035466	-0.258308
H183	H	0.174450	1.057319	-0.340334
H184	H	0.380685	1.044529	-0.453353
H185	H	0.651709	0.232609	0.096556
N186	N	0.854716	0.613052	-0.698191
H187	H	0.886459	0.556694	-0.696896
H188	H	0.892916	0.610213	-0.666376
H189	H	0.380718	0.504797	0.086333
H190	H	0.806670	0.220968	0.498094
N191	N	0.382827	1.052872	0.096929
H192	H	0.442561	1.017997	0.124316
H193	H	0.355749	1.043641	0.135797
H194	H	0.232606	0.440582	0.118412
H195	H	0.729220	1.076992	-0.426988
N196	N	0.729187	0.150885	0.499121
H197	H	0.762727	0.132761	0.547140
H198	H	0.753477	0.095330	0.500001
H199	H	0.225741	1.056193	-0.063452
N200	N	0.640353	0.359618	0.211276
H201	H	0.613288	0.331308	0.215493
H202	H	0.679525	0.345418	0.184097
H203	H	1.218371	0.131160	0.045848
H204	H	-0.048890	0.749758	-0.036147
H205	H	0.619594	0.630755	-0.698471
N206	N	1.075538	0.192146	-0.041983
H207	H	1.102557	0.201394	-0.080904
H208	H	1.015791	0.227018	-0.069306
N209	N	0.640434	1.033491	-0.462622
H210	H	0.646924	1.078963	-0.502307
H211	H	0.580706	1.064836	-0.470877
N212	N	0.640406	0.898820	-0.327960
H213	H	0.613357	0.931225	-0.384474
H214	H	0.597464	0.913339	-0.304429
H215	H	1.232619	0.188838	0.118387
N216	N	0.817945	0.211532	-0.051661
H217	H	0.860927	0.143251	-0.013654
H218	H	0.844943	0.239920	-0.075783
H219	H	0.806662	0.338497	-0.041604
N220	N	0.075573	0.761341	-0.041939
H221	H	0.015842	0.816113	-0.069331
H222	H	0.102654	0.762745	-0.080804
N223	N	0.205246	0.826942	-0.074717
H224	H	0.174407	0.832809	-0.115811
H225	H	0.210933	0.876735	-0.099584
N226	N	0.817943	0.020102	-0.051655
H227	H	0.877688	-0.033837	-0.028593
H228	H	0.811400	0.066572	-0.045871
N229	N	0.854717	0.613060	-0.237409
H230	H	0.892978	0.610176	-0.266325
H231	H	0.886394	0.556707	-0.182349
H232	H	0.619599	0.630750	-0.580920
H233	H	0.619610	0.630748	-0.372362
N234	N	0.603649	0.631949	-0.246839
H235	H	0.565386	0.634832	-0.278634
H236	H	0.571972	0.688301	-0.248127
H237	H	0.951101	0.327633	-0.036172
H238	H	1.106104	0.315914	0.113656
