data_functionalizedCrystal
_audit_creation_method	'MofGen! by Chris Wilmer'
_symmetry_space_group_name_H-M	'P1'
_symmetry_Int_Tables_number	1
_symmetry_cell_setting	triclinic
loop_
_symmetry_equiv_pos_as_xyz
  x,y,z
_cell_length_a	6.817900
_cell_length_b	10.943867
_cell_length_c	16.256277
_cell_angle_alpha	93.782185
_cell_angle_beta	103.500353
_cell_angle_gamma	108.843261
loop_
_atom_site_label
_atom_site_type_symbol
_atom_site_fract_x
_atom_site_fract_y
_atom_site_fract_z
V1	V	-4.054323	-0.179677	-0.263864
O2	O	-4.013161	0.007561	-0.258851
O3	O	-4.032727	-0.355236	-0.262050
O4	O	-4.005591	-0.177384	-0.378949
O5	O	-4.040484	-0.171523	-0.141143
V6	V	-4.534521	-0.157225	-0.249187
O7	O	-4.322876	-0.228925	-0.296060
O8	O	-4.716166	-0.107976	-0.216991
O9	O	-4.332911	0.018334	-0.251001
O10	O	-4.693081	-0.344462	-0.254200
O11	O	-4.665757	-0.165379	-0.371908
O12	O	-4.360047	-0.159518	-0.134102
C13	C	-3.884259	-0.398019	-0.257885
C14	C	-3.947886	-0.541544	-0.257169
C15	C	-4.176404	-0.632443	-0.261154
C16	C	-4.157857	-0.731826	-0.328622
C17	C	-4.079793	-0.697899	-0.188443
C18	C	-3.928532	-0.639050	-0.324704
C19	C	-3.850457	-0.605102	-0.184462
C20	C	-3.831763	-0.704446	-0.251944
C21	C	-3.849643	-0.171149	-0.407000
C22	C	-3.891260	-0.170436	-0.501082
C23	C	-4.182966	-0.175418	-0.732902
C24	C	-4.059485	-0.064613	-0.775998
C25	C	-3.967352	-0.169094	-0.673328
C26	C	-4.164927	-0.278550	-0.797861
C27	C	-4.040870	-0.167804	-0.839712
C28	C	-3.843279	-0.058211	-0.715177
C29	C	-3.948794	-0.272244	-0.737045
C30	C	-3.825149	-0.161409	-0.780110
C31	C	-3.925005	-0.169836	-0.577479
C32	C	-4.083196	-0.167052	-0.935558
C33	C	-4.144722	0.061110	-0.255164
C34	C	-4.060334	0.204634	-0.255885
C35	C	-4.179338	-0.165757	-0.106047
C36	C	-4.116958	-0.166463	-0.011964
H37	H	-4.333725	-0.181212	-0.712012
H38	H	-4.301331	-0.371657	-0.833743
C39	C	-3.623961	-0.153735	-0.807816
C40	C	-3.668413	-0.264381	-0.867131
C41	C	-3.483126	-0.257359	-0.892665
H42	H	-3.580087	-0.077475	-0.833440
H43	H	-3.511992	-0.150198	-0.759272
H44	H	-3.780345	-0.267905	-0.915666
H45	H	-3.712259	-0.340657	-0.841525
H46	H	-3.371158	-0.253822	-0.844122
H47	H	-3.439267	-0.181095	-0.918286
H48	H	-3.513256	-0.332435	-0.932906
C49	C	-3.661849	0.066182	-0.667421
C50	C	-3.737918	0.134541	-0.613925
C51	C	-3.570869	0.249148	-0.569928
H52	H	-3.547217	0.044501	-0.633882
H53	H	-3.611585	0.119251	-0.707411
H54	H	-3.788150	0.081483	-0.573940
H55	H	-3.852528	0.156256	-0.647442
H56	H	-3.520606	0.302217	-0.609918
H57	H	-3.456248	0.227454	-0.536394
H58	H	-3.622464	0.295550	-0.533632
H59	H	-3.864110	-0.612925	-0.382359
H60	H	-4.321495	-0.600623	-0.265142
H61	H	-3.901686	-0.360046	-0.719633
H62	H	-3.686495	-0.736050	-0.248062
H63	H	-4.288413	-0.786816	-0.389564
C64	C	-4.121960	0.052575	-0.799227
C65	C	-3.972438	0.131711	-0.837064
C66	C	-4.029916	0.239679	-0.858460
H67	H	-4.261082	0.023359	-0.838371
H68	H	-4.123215	0.101368	-0.748920
H69	H	-3.971205	0.082926	-0.887364
H70	H	-3.833305	0.160960	-0.797934
H71	H	-4.031172	0.288471	-0.808153
H72	H	-4.169040	0.210450	-0.897602
H73	H	-3.928466	0.293391	-0.884128
C74	C	-3.676516	-0.531971	-0.103131
C75	C	-3.629562	-0.621749	-0.051443
C76	C	-3.469365	-0.554427	0.023497
H77	H	-3.550383	-0.481624	-0.117494
H78	H	-3.725856	-0.475761	-0.072984
H79	H	-3.580215	-0.677935	-0.081584
H80	H	-3.755648	-0.672098	-0.037057
H81	H	-3.518705	-0.498218	0.053644
H82	H	-3.343246	-0.504083	0.009125
H83	H	-3.437500	-0.615331	0.058580
H84	H	-4.144415	-0.724204	-0.130856
