data_functionalizedCrystal
_audit_creation_method	'MofGen! by Chris Wilmer'
_symmetry_space_group_name_H-M	'P1'
_symmetry_Int_Tables_number	1
_symmetry_cell_setting	triclinic
loop_
_symmetry_equiv_pos_as_xyz
  x,y,z
_cell_length_a	25.639243
_cell_length_b	25.639240
_cell_length_c	25.639233
_cell_angle_alpha	89.974071
_cell_angle_beta	89.984038
_cell_angle_gamma	90.035481
loop_
_atom_site_label
_atom_site_type_symbol
_atom_site_fract_x
_atom_site_fract_y
_atom_site_fract_z
Zn1	Zn	0.799247	-0.208176	-0.295630
Zn2	Zn	1.299247	0.291824	0.204370
Zn3	Zn	0.799179	-0.295595	-0.208183
Zn4	Zn	1.299179	0.204405	0.291817
Zn5	Zn	0.711823	-0.208180	-0.208203
Zn6	Zn	1.211823	0.291820	0.291797
Zn7	Zn	0.711777	-0.295587	-0.295582
Zn8	Zn	1.211777	0.204413	0.204418
O9	O	0.755506	-0.251885	-0.251900
O10	O	1.255506	0.248115	0.248100
O11	O	0.872403	-0.219775	-0.284041
O12	O	1.372403	0.280225	0.215959
O13	O	0.787582	-0.284004	-0.135020
O14	O	1.287582	0.215996	0.364980
O15	O	0.723467	-0.135014	-0.219829
O16	O	1.223467	0.364986	0.280171
O17	O	0.872353	-0.284001	-0.219794
O18	O	1.372353	0.215999	0.280206
O19	O	0.787697	-0.135012	-0.284061
O20	O	1.287697	0.364988	0.215939
O21	O	0.723402	-0.219781	-0.135035
O22	O	1.223402	0.280219	0.364965
O23	O	0.638652	-0.219772	-0.219783
O24	O	1.138652	0.280228	0.280217
O25	O	0.723389	-0.283987	-0.368754
O26	O	1.223389	0.216013	0.131246
O27	O	0.638618	-0.283990	-0.283980
O28	O	1.138618	0.216010	0.216020
O29	O	0.787653	-0.219767	-0.368789
O30	O	1.287653	0.280233	0.131211
O31	O	0.787538	-0.368759	-0.219749
O32	O	1.287538	0.131241	0.280251
O33	O	0.723324	-0.368753	-0.283960
O34	O	1.223324	0.131247	0.216040
C35	C	0.619664	-0.251881	-0.251879
C36	C	1.119664	0.248119	0.248121
C37	C	0.561550	-0.251892	-0.251882
C38	C	1.061550	0.248108	0.248118
C39	C	0.201207	-0.218495	-0.285409
C40	C	0.701207	0.281505	0.214591
C41	C	0.146603	-0.218494	-0.285412
C42	C	0.646603	0.281506	0.214588
O43	O	0.118383	-0.190088	-0.313891
O44	O	0.618383	0.309912	0.186109
N45	N	0.119267	-0.251883	-0.251914
N46	N	0.619267	0.248117	0.248086
C47	C	0.146539	-0.285271	-0.218407
C48	C	0.646539	0.214729	0.281593
O49	O	0.118274	-0.313670	-0.189914
O50	O	0.618274	0.186330	0.310086
C51	C	0.201142	-0.285268	-0.218401
C52	C	0.701142	0.214732	0.281599
C53	C	0.228475	-0.251881	-0.251905
C54	C	0.728475	0.248119	0.248095
C55	C	0.228540	-0.185109	-0.318909
C56	C	0.728540	0.314891	0.181091
C57	C	0.283140	-0.185111	-0.318907
C58	C	0.783140	0.314889	0.181093
C59	C	0.310408	-0.218497	-0.285403
C60	C	0.810408	0.281503	0.214597
C61	C	0.283076	-0.251882	-0.251903
C62	C	0.783076	0.248118	0.248097
C63	C	0.228413	-0.318653	-0.184892
C64	C	0.728413	0.181347	0.315108
C65	C	0.283020	-0.318647	-0.184889
C66	C	0.783020	0.181353	0.315111
C67	C	0.310353	-0.285260	-0.218393
C68	C	0.810353	0.214740	0.281607
C69	C	0.364944	-0.285270	-0.218396
C70	C	0.864944	0.214730	0.281604
N71	N	0.392279	-0.251881	-0.251894
N72	N	0.892279	0.248119	0.248106
C73	C	0.365011	-0.218494	-0.285398
C74	C	0.865011	0.281506	0.214602
C75	C	0.031869	-0.285273	-0.218420
C76	C	0.531869	0.214727	0.281580
C77	C	-0.022734	-0.285279	-0.218428
C78	C	0.477266	0.214721	0.281572
C79	C	-0.022667	-0.218501	-0.285432
C80	C	0.477333	0.281499	0.214568
C81	C	0.031937	-0.218498	-0.285427
C82	C	0.531937	0.281502	0.214573
C83	C	0.059204	-0.251884	-0.251918
C84	C	0.559204	0.248116	0.248082
C85	C	0.479676	-0.218500	-0.285390
C86	C	0.979676	0.281500	0.214610
C87	C	0.534282	-0.218506	-0.285386
C88	C	1.034282	0.281494	0.214614
C89	C	0.534210	-0.285281	-0.218380
C90	C	1.034210	0.214719	0.281620
C91	C	0.479609	-0.285278	-0.218385
C92	C	0.979609	0.214722	0.281615
C93	C	0.452344	-0.251883	-0.251892
C94	C	0.952344	0.248117	0.248108
O95	O	0.393198	-0.313659	-0.189930
O96	O	0.893198	0.186341	0.310070
O97	O	0.393283	-0.190095	-0.313881
O98	O	0.893283	0.309905	0.186119
C99	C	0.755433	-0.387727	-0.251859
C100	C	1.255433	0.112273	0.248141
C101	C	0.755449	-0.445841	-0.251859
C102	C	1.255449	0.054159	0.248141
C103	C	0.788967	-0.806164	-0.285405
C104	C	1.288967	-0.306164	0.214595
C105	C	0.788983	-0.860769	-0.285416
C106	C	1.288983	-0.360769	0.214584
O107	O	0.817394	-0.888972	-0.313897
O108	O	1.317394	-0.388972	0.186103
N109	N	0.755579	-0.888124	-0.251950
N110	N	1.255579	-0.388124	0.248050
C111	C	0.722154	-0.860871	-0.218475
C112	C	1.222154	-0.360871	0.281525
O113	O	0.693742	-0.889153	-0.190011
O114	O	1.193742	-0.389153	0.309989
C115	C	0.722136	-0.806268	-0.218467
C116	C	1.222136	-0.306268	0.281533
C117	C	0.755546	-0.778916	-0.251932
C118	C	1.255546	-0.278916	0.248068
C119	C	0.822374	-0.778812	-0.318867
C120	C	1.322374	-0.278812	0.181133
C121	C	0.822359	-0.724212	-0.318856
C122	C	1.322359	-0.224212	0.181144
C123	C	0.788938	-0.696963	-0.285383
C124	C	1.288938	-0.196963	0.214617
C125	C	0.755531	-0.724315	-0.251920
C126	C	1.255531	-0.224315	0.248080
C127	C	0.688708	-0.779017	-0.184996
C128	C	1.188708	-0.279017	0.315004
C129	C	0.688693	-0.724410	-0.184991
C130	C	1.188693	-0.224410	0.315009
C131	C	0.722103	-0.697058	-0.218455
C132	C	1.222103	-0.197058	0.281545
C133	C	0.722095	-0.642466	-0.218435
C134	C	1.222095	-0.142466	0.281565
N135	N	0.755499	-0.615112	-0.251901
N136	N	1.255499	-0.115112	0.248099
C137	C	0.788920	-0.642360	-0.285375
C138	C	1.288920	-0.142360	0.214625
C139	C	0.722193	-0.975542	-0.218494
C140	C	1.222193	-0.475542	0.281506
C141	C	0.722213	-1.030144	-0.218499
C142	C	1.222213	-0.530144	0.281501
C143	C	0.789041	-1.030038	-0.285441
C144	C	1.289041	-0.530038	0.214559
C145	C	0.789024	-0.975435	-0.285433
C146	C	1.289024	-0.475435	0.214567
C147	C	0.755597	-0.948187	-0.251960
C148	C	1.255597	-0.448187	0.248040
C149	C	0.788887	-0.527695	-0.285348
C150	C	1.288887	-0.027695	0.214652
C151	C	0.788870	-0.473090	-0.285332
C152	C	1.288870	0.026910	0.214668
C153	C	0.722040	-0.473201	-0.218392
C154	C	1.222040	0.026799	0.281608
C155	C	0.722058	-0.527801	-0.218406
C156	C	1.222058	-0.027801	0.281594
C157	C	0.755483	-0.555047	-0.251888
C158	C	1.255483	-0.055047	0.248112
O159	O	0.693697	-0.614229	-0.189971
O160	O	1.193697	-0.114229	0.310029
O161	O	0.817322	-0.614072	-0.313839
O162	O	1.317322	-0.114072	0.186161
C163	C	0.891879	-0.251888	-0.251921
C164	C	1.391879	0.248112	0.248079
C165	C	0.949993	-0.251890	-0.251930
C166	C	1.449993	0.248110	0.248070
C167	C	0.755523	-0.251875	-0.388273
C168	C	1.255523	0.248125	0.111727
C169	C	0.755530	-0.251871	-0.446387
C170	C	1.255530	0.248129	0.053613
C171	C	0.755595	-0.115511	-0.251952
C172	C	1.255595	0.384489	0.248048
C173	C	0.755633	-0.057397	-0.251975
C174	C	1.255633	0.442603	0.248025
C175	C	0.789035	-0.218333	-0.806774
C176	C	1.289035	0.281667	-0.306774
C177	C	0.789041	-0.218318	-0.861378
C178	C	1.289041	0.281682	-0.361378
O179	O	0.817486	-0.189864	-0.889635
O180	O	1.317486	0.310136	-0.389635
N181	N	0.755588	-0.251749	-0.888669
N182	N	1.255588	0.248251	-0.388669
C183	C	0.722122	-0.285192	-0.861354
C184	C	1.222122	0.214808	-0.361354
O185	O	0.693668	-0.313626	-0.889581
O186	O	1.193668	0.186374	-0.389581
C187	C	0.722114	-0.285204	-0.806750
C188	C	1.222114	0.214796	-0.306750
C189	C	0.755573	-0.251775	-0.779462
C190	C	1.255573	0.248225	-0.279462
C191	C	0.822491	-0.184906	-0.779485
C192	C	1.322491	0.315094	-0.279485
C193	C	0.822485	-0.184921	-0.724884
C194	C	1.322485	0.315079	-0.224884
C195	C	0.789023	-0.218363	-0.697572
C196	C	1.289023	0.281637	-0.197572
C197	C	0.755567	-0.251790	-0.724861
C198	C	1.255567	0.248210	-0.224861
C199	C	0.688646	-0.318644	-0.779436
C200	C	1.188646	0.181356	-0.279436
C201	C	0.688640	-0.318653	-0.724828
C202	C	1.188640	0.181347	-0.224828
C203	C	0.722099	-0.285223	-0.697540
C204	C	1.222099	0.214777	-0.197540
C205	C	0.722099	-0.285247	-0.642949
C206	C	1.222099	0.214753	-0.142949
N207	N	0.755552	-0.251817	-0.615657
N208	N	1.255552	0.248183	-0.115657
C209	C	0.789014	-0.218375	-0.642969
C210	C	1.289014	0.281625	-0.142969
C211	C	0.722143	-0.285165	-0.976024
C212	C	1.222143	0.214835	-0.476024
C213	C	0.722154	-0.285157	-1.030627
C214	C	1.222154	0.214843	-0.530627
C215	C	0.789072	-0.218282	-1.030647
C216	C	1.289072	0.281718	-0.530647
C217	C	0.789063	-0.218293	-0.976044
C218	C	1.289063	0.281707	-0.476044
C219	C	0.755596	-0.251735	-0.948733
C220	C	1.255596	0.248265	-0.448733
C221	C	0.789000	-0.218410	-0.528304
C222	C	1.289000	0.281590	-0.028304
C223	C	0.788992	-0.218429	-0.473699
C224	C	1.288992	0.281571	0.026301
C225	C	0.722072	-0.285302	-0.473683
C226	C	1.222072	0.214698	0.026317
C227	C	0.722081	-0.285285	-0.528283
C228	C	1.222081	0.214715	-0.028283
C229	C	0.755547	-0.251834	-0.555593
C230	C	1.255547	0.248166	-0.055593
O231	O	0.693668	-0.313686	-0.614657
O232	O	1.193668	0.186314	-0.114657
O233	O	0.817459	-0.189941	-0.614735
O234	O	1.317459	0.310059	-0.114735
C235	C	0.755520	-0.251856	-0.116057
C236	C	1.255520	0.248144	0.383943
C237	C	0.755614	-0.251713	-0.057943
C238	C	1.255614	0.248287	0.442057
H239	H	0.556421	-0.312465	-0.191103
H240	H	1.056421	0.187535	0.308897
O241	O	0.854828	-0.697727	-0.351416
O242	O	1.354828	-0.197727	0.148584
C243	C	0.921135	-0.703405	-0.417792
C244	C	1.421135	-0.203405	0.082208
C245	C	0.884381	-0.733459	-0.380950
C246	C	1.384381	-0.233459	0.119050
H247	H	0.945046	-0.732281	-0.441672
H248	H	1.445046	-0.232281	0.058328
H249	H	0.897131	-0.677861	-0.445141
H250	H	1.397131	-0.177861	0.054859
H251	H	0.948463	-0.677816	-0.393806
H252	H	1.448463	-0.177816	0.106194
H253	H	0.857045	-0.759076	-0.404894
H254	H	1.357045	-0.259076	0.095106
H255	H	0.908417	-0.758969	-0.353600
H256	H	1.408417	-0.258969	0.146400
H257	H	0.816308	-0.191071	-0.953829
H258	H	1.316308	0.308929	-0.453829
O259	O	0.821559	-0.185901	-0.554746
O260	O	1.321559	0.314099	-0.054746
C261	C	0.887914	-0.119557	-0.548989
C262	C	1.387914	0.380443	-0.048989
C263	C	0.851074	-0.156350	-0.518979
C264	C	1.351074	0.343650	-0.018979
H265	H	0.911780	-0.095647	-0.520085
H266	H	1.411780	0.404353	-0.020085
H267	H	0.915277	-0.143529	-0.574538
H268	H	1.415277	0.356471	-0.074538
H269	H	0.863927	-0.092228	-0.574569
H270	H	1.363927	0.407772	-0.074569
H271	H	0.875019	-0.183685	-0.493371
H272	H	1.375019	0.316315	0.006629
H273	H	0.823710	-0.132345	-0.493464
H274	H	1.323710	0.367655	0.006536
H275	H	0.694830	-0.312531	-0.451436
H276	H	1.194830	0.187469	0.048564
O277	O	0.689652	-0.949133	-0.185997
O278	O	1.189652	-0.449133	0.314003
C279	C	0.600726	-0.932511	-0.160542
C280	C	1.100726	-0.432511	0.339458
C281	C	0.637519	-0.962457	-0.197368
C282	C	1.137519	-0.462457	0.302632
H283	H	0.558569	-0.943264	-0.169730
H284	H	1.058569	-0.443264	0.330270
H285	H	0.609901	-0.943278	-0.118387
H286	H	1.109901	-0.443278	0.381613
H287	H	0.606474	-0.888788	-0.166271
H288	H	1.106474	-0.388788	0.333729
H289	H	0.631792	-1.006187	-0.191686
H290	H	1.131792	-0.506187	0.308314
H291	H	0.628336	-0.951647	-0.239510
H292	H	1.128336	-0.451647	0.260490
O293	O	0.821530	-0.948844	-0.317869
O294	O	1.321530	-0.448844	0.182131
C295	C	0.892078	-0.887106	-0.324974
C296	C	1.392078	-0.387106	0.175026
C297	C	0.855305	-0.917192	-0.288178
C298	C	1.355305	-0.417192	0.211822
H299	H	0.919386	-0.861500	-0.300985
H300	H	1.419386	-0.361500	0.199015
H301	H	0.916005	-0.915944	-0.348888
H302	H	1.416005	-0.415944	0.151112
H303	H	0.868036	-0.861574	-0.352300
H304	H	1.368036	-0.361574	0.147700
H305	H	0.879306	-0.942724	-0.260821
H306	H	1.379306	-0.442724	0.239179
H307	H	0.831376	-0.888326	-0.264301
H308	H	1.331376	-0.388326	0.235699
H309	H	0.816101	-0.549872	-0.312616
H310	H	1.316101	-0.049872	0.187384
H311	H	0.695013	-1.052410	-0.191243
H312	H	1.195013	-0.552410	0.308757
O313	O	0.855000	-0.152394	-0.698461
O314	O	1.355000	0.347606	-0.198461
C315	C	0.921391	-0.086081	-0.704265
C316	C	1.421391	0.413919	-0.204265
C317	C	0.884586	-0.122886	-0.734249
C318	C	1.384586	0.377114	-0.234249
H319	H	0.945329	-0.062221	-0.733186
H320	H	1.445329	0.437779	-0.233186
H321	H	0.897426	-0.058710	-0.678720
H322	H	1.397426	0.441290	-0.178720
H323	H	0.948693	-0.110094	-0.678684
H324	H	1.448693	0.389906	-0.178684
H325	H	0.857277	-0.098915	-0.759858
H326	H	1.357277	0.401085	-0.259858
H327	H	0.908584	-0.150258	-0.759761
H328	H	1.408584	0.349742	-0.259761
H329	H	0.694889	-0.312400	-0.953791
H330	H	1.194889	0.187600	-0.453791
O331	O	0.689555	-0.317686	-0.554850
O332	O	1.189555	0.182314	-0.054850
C333	C	0.618934	-0.324690	-0.616449
C334	C	1.118934	0.175310	-0.116449
C335	C	0.655753	-0.287943	-0.586411
C336	C	1.155753	0.212057	-0.086411
H337	H	0.591589	-0.300658	-0.641965
H338	H	1.091589	0.199342	-0.141965
H339	H	0.642887	-0.352016	-0.642052
H340	H	1.142887	0.147984	-0.142052
H341	H	0.595043	-0.348606	-0.587534
H342	H	1.095043	0.151394	-0.087534
H343	H	0.679651	-0.263994	-0.615288
H344	H	1.179651	0.236006	-0.115288
H345	H	0.631769	-0.260651	-0.560800
H346	H	1.131769	0.239349	-0.060800
O347	O	0.821341	-0.446601	-0.317892
O348	O	1.321341	0.053399	0.182108
C349	C	0.887649	-0.452269	-0.384269
C350	C	1.387649	0.047731	0.115731
C351	C	0.850896	-0.482329	-0.347431
C352	C	1.350896	0.017671	0.152569
H353	H	0.911561	-0.481141	-0.408152
H354	H	1.411561	0.018859	0.091848
H355	H	0.863644	-0.426723	-0.411615
H356	H	1.363644	0.073277	0.088385
H357	H	0.914976	-0.426682	-0.360279
H358	H	1.414976	0.073318	0.139721
H359	H	0.823561	-0.507944	-0.371378
H360	H	1.323561	-0.007944	0.128622
H361	H	0.874934	-0.507841	-0.320083
H362	H	1.374934	-0.007841	0.179917
H363	H	0.556534	-0.191317	-0.312670
H364	H	1.056534	0.308683	0.187330
O365	O	0.854924	-0.152361	-0.806033
O366	O	1.354924	0.347639	-0.306033
C367	C	0.862030	-0.081767	-0.867708
C368	C	1.362030	0.418233	-0.367708
C369	C	0.825234	-0.118584	-0.837673
C370	C	1.325234	0.381416	-0.337673
H371	H	0.838041	-0.054457	-0.893305
H372	H	1.338041	0.445543	-0.393305
H373	H	0.885925	-0.057844	-0.838838
H374	H	1.385925	0.442156	-0.338838
H375	H	0.889372	-0.105774	-0.893245
H376	H	1.389372	0.394226	-0.393245
H377	H	0.797860	-0.094618	-0.812135
H378	H	1.297860	0.405382	-0.312135
H379	H	0.801376	-0.142509	-0.866572
H380	H	1.301376	0.357491	-0.366572
O381	O	0.656167	-0.697918	-0.152549
O382	O	1.156167	-0.197918	0.347451
C383	C	0.585583	-0.636316	-0.145435
C384	C	1.085583	-0.136316	0.354565
C385	C	0.622376	-0.666293	-0.182235
C386	C	1.122376	-0.166293	0.317765
H387	H	0.558261	-0.610732	-0.169421
H388	H	1.058261	-0.110732	0.330579
H389	H	0.561671	-0.665224	-0.121530
H390	H	1.061671	-0.165224	0.378470
H391	H	0.609608	-0.610772	-0.118102
H392	H	1.109608	-0.110772	0.381898
H393	H	0.598392	-0.691839	-0.209600
H394	H	1.098392	-0.191839	0.290400
H395	H	0.646290	-0.637357	-0.206103
H396	H	1.146290	-0.137357	0.293897
H397	H	0.816241	-0.191207	-0.451483
H398	H	1.316241	0.308793	0.048517
O399	O	0.689592	-0.446645	-0.185928
O400	O	1.189592	0.053355	0.314072
C401	C	0.659974	-0.362566	-0.156236
C402	C	1.159974	0.137434	0.343764
C403	C	0.696743	-0.392576	-0.193034
C404	C	1.196743	0.107424	0.306966
H405	H	0.665751	-0.318846	-0.161961
H406	H	1.165751	0.181154	0.338039
H407	H	0.617800	-0.373293	-0.165383
H408	H	1.117800	0.126707	0.334617
H409	H	0.669177	-0.373347	-0.114091
H410	H	1.169177	0.126653	0.385909
H411	H	0.687588	-0.381811	-0.235191
H412	H	1.187588	0.118189	0.264809
H413	H	0.738906	-0.381846	-0.183842
H414	H	1.238906	0.118154	0.316158
H415	H	0.816254	-1.052233	-0.312698
H416	H	1.316254	-0.552233	0.187302
O417	O	0.854770	-0.805300	-0.351441
O418	O	1.354770	-0.305300	0.148559
C419	C	0.861796	-0.866914	-0.422032
C420	C	1.361796	-0.366914	0.077968
C421	C	0.825042	-0.836946	-0.385185
C422	C	1.325042	-0.336946	0.114815
H423	H	0.837776	-0.892515	-0.449316
H424	H	1.337776	-0.392515	0.050684
H425	H	0.885656	-0.838000	-0.445981
H426	H	1.385656	-0.338000	0.054019
H427	H	0.889172	-0.892440	-0.398047
H428	H	1.389172	-0.392440	0.101953
H429	H	0.797634	-0.811418	-0.409130
H430	H	1.297634	-0.311418	0.090870
H431	H	0.801218	-0.865888	-0.361234
H432	H	1.301218	-0.365888	0.138766
O433	O	0.656202	-0.805497	-0.152473
O434	O	1.156202	-0.305497	0.347527
C435	C	0.589928	-0.799816	-0.086065
C436	C	1.089928	-0.299816	0.413935
C437	C	0.626710	-0.769763	-0.122879
C438	C	1.126710	-0.269763	0.377121
H439	H	0.566082	-0.770938	-0.062120
H440	H	1.066082	-0.270938	0.437880
H441	H	0.562544	-0.825373	-0.110022
H442	H	1.062544	-0.325373	0.389978
H443	H	0.613959	-0.825390	-0.058770
H444	H	1.113959	-0.325390	0.441230
H445	H	0.602721	-0.744161	-0.150181
H446	H	1.102721	-0.244161	0.349819
H447	H	0.654096	-0.744239	-0.098889
H448	H	1.154096	-0.244239	0.401111
H449	H	0.694857	-0.550072	-0.191153
H450	H	1.194857	-0.050072	0.308847
O451	O	0.821523	-0.185806	-1.057264
O452	O	1.321523	0.314194	-0.557264
C453	C	0.851195	-0.156167	-1.141400
C454	C	1.351195	0.343833	-0.641400
C455	C	0.814415	-0.192962	-1.111320
C456	C	1.314415	0.307038	-0.611320
H457	H	0.845469	-0.161948	-1.185109
H458	H	1.345469	0.338052	-0.685109
H459	H	0.842033	-0.114000	-1.130710
H460	H	1.342033	0.386000	-0.630710
H461	H	0.893345	-0.165338	-1.130643
H462	H	1.393345	0.334662	-0.630643
H463	H	0.772253	-0.183838	-1.122060
H464	H	1.272253	0.316162	-0.622060
H465	H	0.823622	-0.235119	-1.122012
H466	H	1.323622	0.264881	-0.622012
H467	H	0.694913	-0.312384	-1.052840
H468	H	1.194913	0.187616	-0.552840
O469	O	0.453277	-0.186047	-0.317990
O470	O	0.953277	0.313953	0.182010
C471	C	0.459121	-0.119799	-0.384434
C472	C	0.959121	0.380201	0.115566
C473	C	0.489083	-0.156530	-0.347546
C474	C	0.989083	0.343470	0.152454
H475	H	0.488057	-0.095917	-0.408332
H476	H	0.988057	0.404083	0.091668
H477	H	0.433568	-0.143819	-0.411764
H478	H	0.933568	0.356181	0.088236
H479	H	0.433551	-0.092442	-0.360482
H480	H	0.933551	0.407558	0.139518
H481	H	0.514681	-0.183894	-0.371456
H482	H	1.014681	0.316106	0.128544
H483	H	0.514603	-0.132477	-0.320215
H484	H	1.014603	0.367523	0.179785
O485	O	0.309606	-0.152623	-0.351464
O486	O	0.809606	0.347377	0.148536
C487	C	0.303889	-0.086404	-0.417936
C488	C	0.803889	0.413596	0.082064
C489	C	0.273857	-0.123166	-0.381085
C490	C	0.773857	0.376834	0.118915
H491	H	0.274999	-0.062586	-0.441903
H492	H	0.774999	0.437414	0.058097
H493	H	0.329444	-0.058993	-0.394006
H494	H	0.829444	0.441007	0.105994
H495	H	0.329465	-0.110449	-0.445209
H496	H	0.829465	0.389551	0.054791
H497	H	0.248253	-0.099164	-0.353805
H498	H	0.748253	0.400836	0.146195
H499	H	0.248336	-0.150579	-0.405047
H500	H	0.748336	0.349421	0.094953
O501	O	0.656091	-0.351131	-0.805854
O502	O	1.156091	0.148869	-0.305854
C503	C	0.589728	-0.417473	-0.800047
C504	C	1.089728	0.082527	-0.300047
C505	C	0.626565	-0.380698	-0.770065
C506	C	1.126565	0.119302	-0.270065
H507	H	0.565854	-0.441395	-0.771124
H508	H	1.065854	0.058605	-0.271124
H509	H	0.562372	-0.393485	-0.825595
H510	H	1.062372	0.106515	-0.325595
H511	H	0.613717	-0.444791	-0.825625
H512	H	1.113717	0.055209	-0.325625
H513	H	0.602618	-0.353374	-0.744459
H514	H	1.102618	0.146626	-0.244459
H515	H	0.653922	-0.404719	-0.744549
H516	H	1.153922	0.095281	-0.244549
O517	O	0.656205	-0.351166	-0.698239
O518	O	1.156205	0.148834	-0.198239
C519	C	0.649123	-0.421794	-0.636601
C520	C	1.149123	0.078206	-0.136601
C521	C	0.685910	-0.384997	-0.666671
C522	C	1.185910	0.115003	-0.166671
H523	H	0.673125	-0.449163	-0.611079
H524	H	1.173125	0.050837	-0.111079
H525	H	0.621806	-0.397824	-0.611000
H526	H	1.121806	0.102176	-0.111000
H527	H	0.625200	-0.445660	-0.665494
H528	H	1.125200	0.054340	-0.165494
H529	H	0.709866	-0.361123	-0.637815
H530	H	1.209866	0.138877	-0.137815
H531	H	0.713192	-0.408996	-0.692280
H532	H	1.213192	0.091004	-0.192280
H533	H	0.054187	-0.191310	-0.312708
H534	H	0.554187	0.308690	0.187292
O535	O	0.201999	-0.152750	-0.351485
O536	O	0.701999	0.347250	0.148515
C537	C	0.140422	-0.145826	-0.422131
C538	C	0.640422	0.354174	0.077869
C539	C	0.170431	-0.182531	-0.385256
C540	C	0.670431	0.317469	0.114744
H541	H	0.114901	-0.169890	-0.449451
H542	H	0.614901	0.330110	0.050549
H543	H	0.114828	-0.118455	-0.398220
H544	H	0.614828	0.381545	0.101780
H545	H	0.169356	-0.121958	-0.446045
H546	H	0.669356	0.378042	0.053955
H547	H	0.141535	-0.206433	-0.361333
H548	H	0.641535	0.293567	0.138667
H549	H	0.196034	-0.209867	-0.409197
H550	H	0.696034	0.290133	0.090803
H551	H	-0.044878	-0.191315	-0.312711
H552	H	0.455122	0.308685	0.187289
O553	O	0.309587	-0.351032	-0.152356
O554	O	0.809587	0.148968	0.347644
C555	C	0.393675	-0.380654	-0.122673
C556	C	0.893675	0.119346	0.377327
C557	C	0.363655	-0.343943	-0.159532
C558	C	0.863655	0.156057	0.340468
H559	H	0.437393	-0.374944	-0.128469
H560	H	0.937393	0.125056	0.371531
H561	H	0.382968	-0.371407	-0.080521
H562	H	0.882968	0.128593	0.419479
H563	H	0.382882	-0.422820	-0.131766
H564	H	0.882882	0.077180	0.368234
H565	H	0.374432	-0.301765	-0.150485
H566	H	0.874432	0.198235	0.349515
H567	H	0.374364	-0.353235	-0.201672
H568	H	0.874364	0.146765	0.298328
O569	O	-0.049201	-0.317732	-0.185837
O570	O	0.450799	0.182268	0.314163
C571	C	-0.043489	-0.383988	-0.119401
C572	C	0.456511	0.116012	0.380599
C573	C	-0.013454	-0.347254	-0.156278
C574	C	0.486546	0.152746	0.343722
H575	H	-0.014601	-0.407874	-0.095501
H576	H	0.485399	0.092126	0.404499
H577	H	-0.069032	-0.359971	-0.092072
H578	H	0.430968	0.140029	0.407928
H579	H	-0.069076	-0.411341	-0.143361
H580	H	0.430924	0.088659	0.356639
H581	H	0.012162	-0.319894	-0.132361
H582	H	0.512162	0.180106	0.367639
H583	H	0.012057	-0.371304	-0.183608
H584	H	0.512057	0.128696	0.316392
H585	H	0.054066	-0.312464	-0.191135
H586	H	0.554066	0.187536	0.308865
H587	H	0.206169	-0.345840	-0.157609
H588	H	0.706169	0.154160	0.342391
H589	H	0.457354	-0.312470	-0.191110
H590	H	0.957354	0.187530	0.308890
