data_functionalizedCrystal
_audit_creation_method	'MofGen! by Chris Wilmer'
_symmetry_space_group_name_H-M	'P1'
_symmetry_Int_Tables_number	1
_symmetry_cell_setting	triclinic
loop_
_symmetry_equiv_pos_as_xyz
  x,y,z
_cell_length_a	12.759401
_cell_length_b	29.839132
_cell_length_c	12.759393
_cell_angle_alpha	90.039030
_cell_angle_beta	89.979062
_cell_angle_gamma	89.953212
loop_
_atom_site_label
_atom_site_type_symbol
_atom_site_fract_x
_atom_site_fract_y
_atom_site_fract_z
Zn1	Zn	1.606043	0.178813	-0.593958
Zn2	Zn	1.605841	0.253950	-0.418252
Zn3	Zn	1.430342	0.178837	-0.418293
Zn4	Zn	1.430240	0.253919	-0.593889
O5	O	1.518117	0.216380	-0.506098
O6	O	1.753037	0.188784	-0.570662
O7	O	1.582518	0.244010	-0.271236
O8	O	1.453777	0.115967	-0.441641
O9	O	1.752889	0.243986	-0.441571
O10	O	1.582864	0.115949	-0.570702
O11	O	1.453580	0.188824	-0.271266
O12	O	1.283307	0.188794	-0.441575
O13	O	1.453603	0.243933	-0.740919
O14	O	1.283233	0.243956	-0.570584
O15	O	1.582765	0.188753	-0.740970
O16	O	1.582419	0.316813	-0.441504
O17	O	1.453407	0.316790	-0.570544
C18	C	1.245149	0.216375	-0.506077
C19	C	1.128373	0.216383	-0.506093
C20	C	1.073499	0.245150	-0.573162
C21	C	0.963775	0.245151	-0.573183
C22	C	0.963808	0.187618	-0.439056
C23	C	1.073530	0.187615	-0.439041
C24	C	1.517908	0.333103	-0.506035
C25	C	1.517916	0.383037	-0.506043
C26	C	1.585341	0.692680	-0.438962
C27	C	1.585441	0.880353	-0.438986
O28	O	1.642656	0.904617	-0.381932
N29	N	1.518227	0.903822	-0.506115
C30	C	1.450987	0.880370	-0.573248
O31	O	1.393827	0.904639	-0.630354
C32	C	1.450893	0.692698	-0.573229
C33	C	1.518104	0.669231	-0.506087
C34	C	1.652548	0.669213	-0.371827
C35	C	1.652518	0.622297	-0.371818
C36	C	1.585281	0.598849	-0.438943
C37	C	1.518074	0.622316	-0.506078
C38	C	1.383659	0.669247	-0.640366
C39	C	1.383643	0.622326	-0.640357
C40	C	1.450855	0.598859	-0.573216
C41	C	1.450808	0.551952	-0.573194
N42	N	1.518023	0.528482	-0.506065
C43	C	1.585259	0.551931	-0.438940
C44	C	1.451040	0.978901	-0.573252
C45	C	1.451062	1.025819	-0.573255
C46	C	1.585518	1.025798	-0.438994
C47	C	1.585490	0.978879	-0.438986
C48	C	1.518254	0.955432	-0.506122
C49	C	1.585191	0.453405	-0.438924
C50	C	1.585152	0.406486	-0.438918
C51	C	1.450701	0.406510	-0.573182
C52	C	1.450735	0.453426	-0.573185
C53	C	1.517989	0.476872	-0.506053
O54	O	1.393632	0.527659	-0.630226
O55	O	1.642428	0.527655	-0.381859
C56	C	1.585371	0.739595	-0.438971
C57	C	1.518164	0.763062	-0.506106
C58	C	1.450927	0.739614	-0.573232
C59	C	1.518186	0.809980	-0.506110
C60	C	1.585423	0.833428	-0.438984
C61	C	1.652637	0.809959	-0.371855
C62	C	1.652607	0.763044	-0.371846
C63	C	1.383712	0.763083	-0.640361
C64	C	1.383747	0.809998	-0.640364
C65	C	1.450984	0.833447	-0.573238
C66	C	1.792150	0.216386	-0.506119
C67	C	1.908926	0.216388	-0.506129
C68	C	1.518315	1.099202	-0.506161
C69	C	1.518298	1.049267	-0.506130
C70	C	1.518195	0.216337	-0.780131
C71	C	1.518229	0.216319	-0.896908
C72	C	1.585488	0.187582	-0.951798
C73	C	1.585506	0.187562	-1.061522
C74	C	1.451002	0.245020	-1.061457
C75	C	1.450980	0.245037	-0.951735
C76	C	1.518099	0.216391	-0.233130
C77	C	1.518269	0.216282	-0.116354
H78	H	1.118209	0.164187	-0.384425
H79	H	1.640244	0.164196	-0.907162
H80	H	1.639884	0.387380	-0.384240
H81	H	1.396201	0.268438	-0.907042
C82	C	1.599930	0.506210	-0.297632
C83	C	1.659121	0.479179	-0.365148
H84	H	1.645573	0.522124	-0.252094
H85	H	1.554179	0.487943	-0.257393
H86	H	1.559909	0.526900	-0.337625
H87	H	1.699137	0.458486	-0.325156
H88	H	1.704891	0.497447	-0.405391
H89	H	0.919102	0.268576	-0.627800
H90	H	1.640274	0.164161	-1.106209
C91	C	1.391318	0.270510	-1.229625
C92	C	1.377092	0.276590	-1.121726
H93	H	1.345693	0.290003	-1.266829
H94	H	1.376006	0.240326	-1.247623
H95	H	1.461902	0.277085	-1.247601
H96	H	1.306510	0.270012	-1.103749
H97	H	1.392397	0.306782	-1.103721
H98	H	0.919141	0.164197	-0.384463
C99	C	1.785436	0.627004	-0.239128
C100	C	1.726416	0.596507	-0.298029
H101	H	1.831067	0.611083	-0.193580
H102	H	1.739691	0.645333	-0.198899
H103	H	1.825592	0.645275	-0.284962
H104	H	1.686254	0.578239	-0.252195
H105	H	1.772167	0.578170	-0.338261
H106	H	1.707306	0.688300	-0.317165
H107	H	1.118149	0.268573	-0.627763
H108	H	1.640219	0.959775	-0.384315
C109	C	1.645358	1.097714	-0.379514
C110	C	1.659506	1.051579	-0.365288
H111	H	1.691064	1.113631	-0.334043
H112	H	1.574814	1.105451	-0.363995
H113	H	1.660620	1.105350	-0.450152
H114	H	1.644236	1.043942	-0.294651
H115	H	1.730066	1.043838	-0.380800
H116	H	1.396321	1.044921	-0.627919
H117	H	1.328923	0.688346	-0.695035
C118	C	1.318125	0.983644	-0.705950
C119	C	1.377115	0.953131	-0.647043
H120	H	1.272480	0.967735	-0.751496
H121	H	1.363889	1.001909	-0.746180
H122	H	1.277986	1.001977	-0.660119
H123	H	1.417260	0.934800	-0.692873
H124	H	1.331345	0.934859	-0.606809
H125	H	1.328893	0.603237	-0.695031
H126	H	1.707338	0.743940	-0.317173
C127	C	1.317835	0.448731	-0.705902
C128	C	1.376856	0.479223	-0.646987
H129	H	1.272237	0.464656	-0.751474
H130	H	1.277654	0.430470	-0.660086
H131	H	1.363590	0.430393	-0.746115
H132	H	1.331102	0.497560	-0.606768
H133	H	1.417040	0.497492	-0.692808
H134	H	1.395954	0.387411	-0.627832
H135	H	1.707381	0.829059	-0.317196
C136	C	1.250851	0.805294	-0.773091
C137	C	1.309863	0.835790	-0.714175
H138	H	1.205250	0.821217	-0.818666
H139	H	1.210673	0.787032	-0.727276
H140	H	1.296612	0.786957	-0.813301
H141	H	1.264102	0.854125	-0.673959
H142	H	1.350043	0.854060	-0.759996
C143	C	1.368985	0.710288	-0.781677
C144	C	1.309794	0.737314	-0.714149
H145	H	1.323342	0.694383	-0.827234
H146	H	1.408992	0.689593	-0.741702
H147	H	1.414750	0.728560	-0.821904
H148	H	1.264034	0.719041	-0.673916
H149	H	1.269769	0.758010	-0.754129
