data_functionalizedCrystal
_audit_creation_method	'MofGen! by Chris Wilmer'
_symmetry_space_group_name_H-M	'P1'
_symmetry_Int_Tables_number	1
_symmetry_cell_setting	triclinic
loop_
_symmetry_equiv_pos_as_xyz
  x,y,z
_cell_length_a	10.540514
_cell_length_b	10.540539
_cell_length_c	12.376457
_cell_angle_alpha	101.393660
_cell_angle_beta	78.592392
_cell_angle_gamma	84.520326
loop_
_atom_site_label
_atom_site_type_symbol
_atom_site_fract_x
_atom_site_fract_y
_atom_site_fract_z
O1	O	1.710033	0.154632	-0.094014
O2	O	1.340616	0.171521	-0.094013
O3	O	1.533752	-0.021630	-0.094012
O4	O	1.516897	0.347783	-0.094015
O5	O	1.485485	0.026591	0.094000
O6	O	1.292348	0.219743	0.093999
O7	O	1.661766	0.202853	0.093998
Zn8	Zn	1.469394	0.218954	0.123849
Zn9	Zn	1.532988	0.155420	-0.123865
O10	O	1.468629	0.396005	0.093997
C11	C	1.269179	0.194372	-0.000007
C12	C	1.128229	0.190603	-0.000006
C13	C	1.057524	0.328743	-0.000010
C14	C	0.911022	0.324757	-0.000442
C15	C	0.963402	0.087991	-0.107168
C16	C	1.109963	0.092824	-0.107252
C17	C	1.055475	0.145618	0.106561
C18	C	0.908136	0.144645	0.107963
C19	C	1.508355	-0.044823	-0.000008
C20	C	1.504575	-0.185772	-0.000014
C21	C	1.359764	-0.369294	-0.000436
C22	C	1.363489	-0.222568	-0.000013
C23	C	1.544908	-0.219899	0.107349
C24	C	1.540070	-0.366420	0.107440
C25	C	1.597828	-0.421776	-0.106365
C26	C	1.599492	-0.275158	-0.107784
C27	C	1.733204	0.180002	-0.000011
C28	C	1.874155	0.183769	-0.000019
C29	C	1.494027	0.419197	-0.000009
C30	C	1.497810	0.560144	-0.000011
N31	N	1.426001	0.262314	0.292907
N32	N	1.576390	0.112051	-0.292923
C33	C	1.677117	0.011374	0.647893
C34	C	1.707480	-0.018974	0.529554
C35	C	1.637113	0.051345	0.470386
C36	C	1.536378	0.152018	0.529570
C37	C	1.506018	0.182376	0.647922
C38	C	1.466014	0.222347	0.470414
C39	C	1.365279	0.323020	0.529598
C40	C	1.334924	0.353371	0.647938
C41	C	1.405291	0.283052	0.707106
C42	C	1.496373	0.191989	0.352063
C43	C	1.325275	0.362991	0.352091
C44	C	1.294911	0.393339	0.470431
H45	H	0.889125	0.358429	-0.077704
C46	C	1.140496	0.371164	0.168917
C47	C	1.069445	0.431009	0.103688
H48	H	1.147871	0.434306	0.232930
H49	H	1.096547	0.303784	0.193284
H50	H	1.225267	0.334834	0.124774
H51	H	0.984670	0.467331	0.147828
H52	H	1.113392	0.498413	0.079322
C53	C	0.781422	0.018052	0.218208
C54	C	0.873135	0.008161	0.117151
H55	H	0.759813	-0.066212	0.223871
H56	H	0.817392	0.053166	0.280362
H57	H	0.704851	0.073896	0.218915
H58	H	0.949710	-0.047675	0.116447
H59	H	0.837167	-0.026971	0.054981
H60	H	1.158829	0.122083	-0.187654
H61	H	1.159143	-0.009823	-0.111826
C62	C	1.035232	0.397385	-0.169973
C63	C	1.124997	0.377100	-0.103343
H64	H	1.076917	0.427354	-0.233691
H65	H	1.003845	0.317610	-0.194792
H66	H	0.964067	0.460968	-0.126625
H67	H	1.196158	0.313510	-0.146688
H68	H	1.156404	0.456886	-0.078525
H69	H	1.289899	-0.161034	0.077079
H70	H	1.647492	-0.196531	0.111341
H71	H	1.329823	-0.199699	-0.076975
H72	H	0.942033	-0.016585	-0.110849
H73	H	1.578392	0.110022	0.303886
H74	H	1.066113	0.212439	0.187801
C75	C	1.392139	-0.251083	0.279986
C76	C	1.444503	-0.376705	0.215774
H77	H	1.333132	-0.257431	0.346863
H78	H	1.460783	-0.205586	0.299597
H79	H	1.346970	-0.205046	0.237048
H80	H	1.489681	-0.422739	0.258708
H81	H	1.375849	-0.422221	0.196164
H82	H	1.323798	-0.417636	-0.077428
H83	H	1.284604	-0.379860	0.076126
H84	H	1.640286	-0.413149	0.112310
C85	C	1.053490	-0.030842	0.203161
C86	C	1.118912	0.008432	0.107972
H87	H	1.092656	-0.115536	0.204020
H88	H	1.059176	0.029234	0.269624
H89	H	0.964270	-0.032879	0.200383
H90	H	1.208130	0.010479	0.110755
H91	H	1.113238	-0.051660	0.041493
C92	C	1.781401	-0.583404	-0.206129
C93	C	1.735650	-0.485794	-0.107355
H94	H	1.866484	-0.622921	-0.206735
H95	H	1.724093	-0.647686	-0.208475
H96	H	1.784675	-0.545795	-0.270166
H97	H	1.732367	-0.523405	-0.043318
H98	H	1.792972	-0.421501	-0.104999
C99	C	1.560758	-0.018879	0.300886
C100	C	1.670477	0.017992	0.340305
H101	H	1.581356	-0.039466	0.220576
H102	H	1.535809	-0.093314	0.327658
H103	H	1.490703	0.051150	0.327677
H104	H	1.740529	-0.052041	0.313520
H105	H	1.695443	0.092434	0.313521
C106	C	1.913859	-0.079688	0.395967
C107	C	1.817814	-0.129914	0.464284
H108	H	1.981865	-0.148267	0.355613
H109	H	1.876227	-0.041890	0.343978
H110	H	1.948635	-0.014855	0.441987
H111	H	1.783030	-0.194740	0.418264
H112	H	1.855450	-0.167732	0.516280
H113	H	1.570203	-0.254666	-0.187209
C114	C	1.088261	0.453366	0.603562
C115	C	1.184192	0.504002	0.535499
H116	H	1.019914	0.521688	0.643737
H117	H	1.053965	0.388263	0.557401
H118	H	1.125847	0.415826	0.655721
H119	H	1.146608	0.541534	0.483334
H120	H	1.218491	0.569128	0.581664
C121	C	0.907893	0.302461	0.276981
C122	C	0.825317	0.239453	0.214984
H123	H	0.856754	0.360995	0.343046
H124	H	0.962962	0.239267	0.297960
H125	H	0.959948	0.349873	0.231984
H126	H	0.773268	0.192033	0.259978
H127	H	0.770224	0.302656	0.194007
C128	C	1.438661	-0.441117	-0.221064
C129	C	1.564392	-0.492528	-0.216224
H130	H	1.418014	-0.484790	-0.288886
H131	H	1.377165	-0.453265	-0.157929
H132	H	1.435543	-0.350430	-0.219678
H133	H	1.567508	-0.583213	-0.217602
H134	H	1.625905	-0.480391	-0.279377
H135	H	1.380567	0.307757	0.803468
C136	C	1.046920	0.154562	-0.279150
C137	C	0.933694	0.123512	-0.215234
H138	H	1.028580	0.176488	-0.345866
H139	H	1.075327	0.226817	-0.235896
H140	H	1.113637	0.081426	-0.299051
H141	H	0.866980	0.196652	-0.195326
H142	H	0.905270	0.051250	-0.258497
H143	H	1.734408	-0.045865	0.696075
H144	H	1.477232	-0.156803	0.187246
H145	H	1.704018	-0.252609	-0.114268
C146	C	0.694371	0.420416	0.103049
C147	C	0.826802	0.423833	0.103238
H148	H	0.642383	0.481574	0.167067
H149	H	0.676953	0.442231	0.036029
H150	H	0.673961	0.335125	0.105944
H151	H	0.847214	0.509121	0.100334
H152	H	0.844227	0.402025	0.170276
H153	H	1.252909	0.435354	0.696126
H154	H	1.267977	0.420254	0.303918
