data_functionalizedCrystal
_audit_creation_method	'MofGen! by Chris Wilmer'
_symmetry_space_group_name_H-M	'P1'
_symmetry_Int_Tables_number	1
_symmetry_cell_setting	triclinic
loop_
_symmetry_equiv_pos_as_xyz
  x,y,z
_cell_length_a	18.050591
_cell_length_b	18.050589
_cell_length_c	13.033109
_cell_angle_alpha	97.157170
_cell_angle_beta	82.792537
_cell_angle_gamma	90.024669
loop_
_atom_site_label
_atom_site_type_symbol
_atom_site_fract_x
_atom_site_fract_y
_atom_site_fract_z
Zn1	Zn	1.188666	-0.349057	-0.591042
Zn2	Zn	1.172797	-0.457488	-0.416303
Zn3	Zn	1.048705	-0.333308	-0.416295
Zn4	Zn	1.064428	-0.473197	-0.590983
O5	O	1.118649	-0.403263	-0.503656
O6	O	1.290488	-0.363458	-0.567891
O7	O	1.143115	-0.427851	-0.270065
O8	O	1.067332	-0.231475	-0.439497
O9	O	1.278829	-0.443122	-0.439511
O10	O	1.170161	-0.243045	-0.567883
O11	O	1.051945	-0.336616	-0.270059
O12	O	0.946863	-0.351848	-0.439439
O13	O	1.094130	-0.469894	-0.737227
O14	O	0.958415	-0.454623	-0.567781
O15	O	1.185407	-0.378690	-0.737271
O16	O	1.158361	-0.563495	-0.439453
O17	O	1.078742	-0.575036	-0.567789
C18	C	0.925692	-0.403232	-0.503603
C19	C	0.843147	-0.403239	-0.503606
C20	C	0.588033	-0.347313	-0.433978
C21	C	0.646077	-0.337829	-0.529347
C22	C	0.546034	-0.403284	-0.503691
C23	C	0.635068	-0.412711	-0.408286
C24	C	0.692015	-0.403260	-0.503644
C25	C	0.602995	-0.393770	-0.599111
C26	C	0.591977	-0.468678	-0.477986
C27	C	0.650004	-0.459226	-0.573420
C28	C	0.461938	-0.403297	-0.503717
C29	C	0.776110	-0.403248	-0.503629
C30	C	1.118558	-0.596213	-0.503638
C31	C	1.118590	-0.678761	-0.503666
C32	C	1.075340	-0.884513	-0.573431
C33	C	1.048631	-0.925349	-0.478070
C34	C	1.118664	-0.829893	-0.503679
C35	C	1.145411	-0.936139	-0.599051
C36	C	1.118735	-0.975880	-0.503701
C37	C	1.091915	-0.869638	-0.408269
C38	C	1.188732	-0.880429	-0.529313
C39	C	1.162043	-0.921237	-0.433887
C40	C	1.118621	-0.745794	-0.503668
C41	C	1.118777	-1.059977	-0.503701
C42	C	1.312359	-0.403294	-0.503709
C43	C	1.394907	-0.403308	-0.503731
C44	C	1.143292	-0.427801	-0.776227
C45	C	1.153794	-0.438258	-0.892380
C46	C	1.118763	-0.209561	-0.503696
C47	C	1.118811	-0.127016	-0.503713
C48	C	1.113367	-0.397779	-0.944162
C49	C	1.124219	-0.408585	-1.064213
C50	C	1.094144	-0.378766	-0.232145
C51	C	1.083787	-0.368100	-0.115992
H52	H	0.568270	-0.523971	-0.456228
O53	O	0.652122	-0.422150	-0.311979
C54	C	0.639807	-0.373779	-0.129696
C55	C	0.620429	-0.363018	-0.238702
H56	H	0.614206	-0.325971	-0.070425
H57	H	0.616555	-0.429052	-0.107148
H58	H	0.703060	-0.374259	-0.130834
H59	H	0.557185	-0.362503	-0.237647
H60	H	0.643734	-0.307754	-0.261207
O61	O	1.259329	-0.856650	-0.555140
C62	C	1.338420	-0.751613	-0.583238
C63	C	1.258434	-0.778438	-0.553937
H64	H	1.337721	-0.688378	-0.582297
H65	H	1.375629	-0.767411	-0.524602
H66	H	1.361120	-0.779206	-0.664587
H67	H	1.235666	-0.750859	-0.472613
H68	H	1.221276	-0.762652	-0.612640
H69	H	1.070718	-0.355126	-0.899617
H70	H	0.676876	-0.506555	-0.632422
O71	O	1.032952	-0.317114	-1.062980
C72	C	0.993986	-0.187774	-1.029345
C73	C	1.051596	-0.245438	-1.089464
H74	H	1.009047	-0.129809	-1.050719
H75	H	0.936004	-0.202658	-1.050746
H76	H	0.994285	-0.188165	-0.941996
H77	H	1.051364	-0.245078	-1.176827
H78	H	1.109551	-0.230534	-1.067977
H79	H	1.168004	-0.965066	-0.679696
H80	H	0.561037	-0.299965	-0.375117
H81	H	1.038633	-0.868173	-0.632334
H82	H	1.166867	-0.451245	-1.108754
H83	H	1.198705	-0.937427	-0.374842
H84	H	0.989410	-0.945173	-0.456409
H85	H	0.669752	-0.282516	-0.551088
H86	H	1.196439	-0.480914	-0.936925
O87	O	1.064758	-0.835210	-0.312097
C88	C	0.970057	-0.753429	-0.210300
C89	C	1.000724	-0.792388	-0.319263
H90	H	0.918290	-0.718785	-0.216061
H91	H	0.954718	-0.797255	-0.155692
H92	H	1.014501	-0.715361	-0.178487
H93	H	0.956316	-0.830452	-0.351170
H94	H	1.016084	-0.748521	-0.373801
O95	O	0.585833	-0.384138	-0.695297
C96	C	0.488298	-0.373394	-0.803249
C97	C	0.507631	-0.384292	-0.694268
H98	H	0.425073	-0.373530	-0.802459
H99	H	0.511051	-0.317814	-0.825304
H100	H	0.514471	-0.420826	-0.862690
H101	H	0.481464	-0.336903	-0.634754
H102	H	0.484893	-0.439899	-0.672302
