data_functionalizedCrystal
_audit_creation_method	'MofGen! by Chris Wilmer'
_symmetry_space_group_name_H-M	'P1'
_symmetry_Int_Tables_number	1
_symmetry_cell_setting	triclinic
loop_
_symmetry_equiv_pos_as_xyz
  x,y,z
_cell_length_a	17.077404
_cell_length_b	14.908520
_cell_length_c	17.077396
_cell_angle_alpha	93.268321
_cell_angle_beta	89.980499
_cell_angle_gamma	93.320938
loop_
_atom_site_label
_atom_site_type_symbol
_atom_site_fract_x
_atom_site_fract_y
_atom_site_fract_z
Zn1	Zn	1.182024	-0.359154	-0.461868
Zn2	Zn	1.174357	-0.510026	-0.338173
Zn3	Zn	1.050754	-0.359186	-0.330617
Zn4	Zn	1.043152	-0.509972	-0.469394
O5	O	1.112572	-0.434584	-0.400013
O6	O	1.290853	-0.379177	-0.445472
O7	O	1.157933	-0.490052	-0.227326
O8	O	1.074557	-0.232937	-0.341715
O9	O	1.285220	-0.490021	-0.354594
O10	O	1.171001	-0.232913	-0.438145
O11	O	1.067123	-0.379231	-0.221774
O12	O	0.939899	-0.379179	-0.349014
O13	O	1.061601	-0.489930	-0.578241
O14	O	0.934314	-0.489961	-0.450973
O15	O	1.163629	-0.379125	-0.572711
O16	O	1.150562	-0.636263	-0.361892
O17	O	1.054166	-0.636224	-0.458300
C18	C	0.908625	-0.434568	-0.399990
C19	C	0.821374	-0.434583	-0.400001
C20	C	0.777492	-0.492354	-0.453014
C21	C	0.695511	-0.492356	-0.453027
C22	C	0.657414	-0.434591	-0.400022
C23	C	0.701302	-0.376813	-0.347005
C24	C	0.783282	-0.376807	-0.346997
C25	C	0.530432	-0.376831	-0.347025
C26	C	0.448447	-0.376837	-0.347032
C27	C	0.442661	-0.492380	-0.453055
C28	C	0.524640	-0.492374	-0.453047
C29	C	0.568523	-0.434597	-0.400029
C30	C	1.100728	-0.668978	-0.411750
C31	C	1.095734	-0.769252	-0.416797
C32	C	1.186828	-0.957658	-0.325973
C33	C	1.182137	-1.051875	-0.330713
C34	C	1.081667	-1.051904	-0.431020
C35	C	1.086357	-0.957687	-0.426280
C36	C	1.138939	-0.910568	-0.373754
C37	C	1.143625	-0.816349	-0.369011
C38	C	1.043159	-0.816380	-0.469321
C39	C	1.038468	-0.910597	-0.474061
C40	C	1.317315	-0.434601	-0.400036
C41	C	1.404564	-0.434609	-0.400046
C42	C	1.112622	-0.434518	-0.604754
C43	C	1.112644	-0.434490	-0.692002
C44	C	1.124482	-0.199276	-0.388248
C45	C	1.129558	-0.099001	-0.383234
C46	C	1.165772	-0.376788	-0.730114
C47	C	1.165783	-0.376758	-0.812093
C48	C	1.112669	-0.434435	-0.855959
C49	C	1.059535	-0.492138	-0.817842
C50	C	1.059521	-0.492163	-0.735864
C51	C	1.059569	-0.492084	-0.988709
C52	C	1.059584	-0.492061	-1.070693
C53	C	1.165832	-0.376679	-1.064938
C54	C	1.165818	-0.376704	-0.982961
C55	C	1.112684	-0.434409	-0.944849
C56	C	1.112569	-0.434585	-0.196065
C57	C	1.112713	-0.434360	-0.108804
H58	H	0.670278	-0.329775	-0.303850
H59	H	1.209094	-0.329692	-1.095973
C60	C	1.023843	-1.103752	-0.488802
C61	C	0.959015	-1.168626	-0.458000
C62	C	0.901195	-1.220477	-0.515785
C63	C	0.908204	-1.207453	-0.604372
C64	C	0.973036	-1.142576	-0.635179
C65	C	1.030855	-1.090725	-0.577394
H66	H	0.953824	-1.178270	-0.392418
H67	H	0.853202	-1.268504	-0.492979
H68	H	0.865402	-1.245836	-0.647148
H69	H	0.978227	-1.132932	-0.700760
H70	H	1.078848	-1.042698	-0.600199
C71	C	0.647244	-0.555910	-0.511343
C72	C	0.653335	-0.658457	-0.509917
C73	C	0.605070	-0.722013	-0.568238
C74	C	0.550714	-0.683023	-0.627984
C75	C	0.544620	-0.580470	-0.629412
C76	C	0.592886	-0.516914	-0.571091
H77	H	0.693575	-0.687325	-0.465688
H78	H	0.609581	-0.797929	-0.567180
H79	H	0.514985	-0.730071	-0.671156
H80	H	0.504381	-0.551602	-0.673641
H81	H	0.588375	-0.440998	-0.572149
C82	C	1.234814	-1.103676	-0.278151
C83	C	1.292649	-1.051842	-0.220377
C84	C	1.345328	-1.103643	-0.167814
C85	C	1.340174	-1.207277	-0.173025
C86	C	1.282336	-1.259117	-0.230801
C87	C	1.229657	-1.207316	-0.283364
H88	H	1.296467	-0.975120	-0.216518
H89	H	1.388143	-1.065267	-0.125044
H90	H	1.379170	-1.245623	-0.134114
H91	H	1.278518	-1.335839	-0.234660
H92	H	1.186842	-1.245692	-0.326134
C93	C	0.578707	-0.313278	-0.288707
C94	C	0.638656	-0.242497	-0.319273
C95	C	0.686933	-0.178950	-0.260955
C96	C	0.675263	-0.186186	-0.172071
C97	C	0.615312	-0.256970	-0.141500
C98	C	0.567034	-0.320516	-0.199818
H99	H	0.647297	-0.237138	-0.385075
H100	H	0.731313	-0.126551	-0.283586
H101	H	0.711001	-0.139145	-0.128900
H102	H	0.606670	-0.262328	-0.075698
H103	H	0.522655	-0.372916	-0.177187
H104	H	0.819010	-0.329759	-0.303831
C105	C	0.980632	-0.962435	-0.531837
C106	C	0.915800	-1.027297	-0.501024
C107	C	0.857962	-1.079134	-0.558800
C108	C	0.864957	-1.066108	-0.647388
C109	C	0.929792	-1.001243	-0.678205
C110	C	0.987630	-0.949406	-0.620429
H111	H	0.910619	-1.036942	-0.435442
H112	H	0.809966	-1.127151	-0.535986
H113	H	0.822142	-1.104481	-0.690157
H114	H	0.934973	-0.991598	-0.743787
H115	H	1.035626	-0.901389	-0.643242
H116	H	0.417431	-0.329789	-0.303879
C117	C	1.001135	-0.555569	-0.946779
C118	C	0.941477	-0.516505	-0.888447
C119	C	0.883053	-0.579994	-0.846513
C120	C	0.884289	-0.682548	-0.862911
C121	C	0.943950	-0.721618	-0.921246
C122	C	1.002373	-0.658128	-0.963179
H123	H	0.940560	-0.440584	-0.876306
H124	H	0.838888	-0.551072	-0.803330
H125	H	0.841040	-0.729547	-0.831869
H126	H	0.944866	-0.797539	-0.933387
H127	H	1.046538	-0.687050	-1.006363
H128	H	1.186437	-0.777985	-0.326240
H129	H	1.004162	-0.778028	-0.508225
C130	C	1.001083	-0.555638	-0.693935
C131	C	0.912221	-0.548267	-0.704820
C132	C	0.853779	-0.611740	-0.662890
C133	C	0.884201	-0.682583	-0.610075
C134	C	0.973067	-0.689957	-0.599188
C135	C	1.031509	-0.626484	-0.641118
H136	H	0.889697	-0.495822	-0.743918
H137	H	0.787994	-0.606281	-0.670949
H138	H	0.840939	-0.729569	-0.579036
H139	H	0.995591	-0.742402	-0.560089
H140	H	1.097294	-0.631943	-0.633058
C141	C	1.224200	-0.313342	-0.681865
C142	C	1.222984	-0.210780	-0.688008
C143	C	1.281411	-0.147330	-0.639761
C144	C	1.341054	-0.186441	-0.585371
C145	C	1.342272	-0.289009	-0.579225
C146	C	1.283844	-0.352459	-0.627472
H147	H	1.178831	-0.181823	-0.728274
H148	H	1.280510	-0.071403	-0.644311
H149	H	1.384305	-0.139472	-0.549655
H150	H	1.386424	-0.317966	-0.538960
H151	H	1.284746	-0.428386	-0.622922
H152	H	1.229636	-0.919293	-0.283199
H153	H	0.808504	-0.539396	-0.496175
H154	H	1.209048	-0.329774	-0.843120
C155	C	1.224245	-0.313261	-0.934708
C156	C	1.223033	-0.210698	-0.940848
C157	C	1.281459	-0.147252	-0.892595
C158	C	1.341097	-0.186369	-0.838204
C159	C	1.342311	-0.288937	-0.832061
C160	C	1.283885	-0.352383	-0.880314
H161	H	1.178883	-0.181737	-0.981114
H162	H	1.280560	-0.071324	-0.897143
H163	H	1.384348	-0.139402	-0.802484
H164	H	1.386461	-0.317898	-0.791795
H165	H	1.284784	-0.428311	-0.875767
H166	H	1.016332	-0.539024	-1.106406
H167	H	0.555656	-0.539416	-0.496205
C168	C	0.394395	-0.555930	-0.511381
C169	C	0.436298	-0.619475	-0.569682
C170	C	0.388028	-0.683026	-0.628003
C171	C	0.297854	-0.683031	-0.628022
C172	C	0.255946	-0.619484	-0.569719
C173	C	0.304216	-0.555933	-0.511398
H174	H	0.503055	-0.619473	-0.569670
H175	H	0.419052	-0.730068	-0.671163
H176	H	0.262122	-0.730075	-0.671195
H177	H	0.189189	-0.619486	-0.569731
H178	H	0.273192	-0.508891	-0.468238
H179	H	1.016286	-0.539096	-0.853564
