data_functionalizedCrystal
_audit_creation_method	'MofGen! by Chris Wilmer'
_symmetry_space_group_name_H-M	'P1'
_symmetry_Int_Tables_number	1
_symmetry_cell_setting	triclinic
loop_
_symmetry_equiv_pos_as_xyz
  x,y,z
_cell_length_a	17.038272
_cell_length_b	15.944551
_cell_length_c	15.021413
_cell_angle_alpha	89.996935
_cell_angle_beta	89.997778
_cell_angle_gamma	92.694853
loop_
_atom_site_label
_atom_site_type_symbol
_atom_site_fract_x
_atom_site_fract_y
_atom_site_fract_z
O1	O	1.037425	-0.182391	-0.073924
O2	O	1.537425	0.317609	0.426076
O3	O	0.809794	-0.179495	-0.073950
O4	O	1.309794	0.320505	0.426050
O5	O	0.929826	-0.059112	-0.073929
O6	O	1.429826	0.440888	0.426071
O7	O	0.917393	-0.302774	-0.073946
O8	O	1.417393	0.197226	0.426054
O9	O	0.929806	-0.059129	0.074136
O10	O	1.429806	0.440871	0.574136
O11	O	0.809775	-0.179512	0.074114
O12	O	1.309775	0.320488	0.574114
O13	O	1.037406	-0.182408	0.074140
O14	O	1.537406	0.317592	0.574140
Zn15	Zn	0.923587	-0.180963	0.097635
Zn16	Zn	1.423587	0.319037	0.597635
Zn17	Zn	0.923612	-0.180940	-0.097446
Zn18	Zn	1.423612	0.319060	0.402554
O19	O	0.917374	-0.302791	0.074118
O20	O	1.417374	0.197209	0.574118
C21	C	0.780655	-0.176869	0.000079
C22	C	1.280655	0.323131	0.500079
C23	C	0.693860	-0.169010	0.000069
C24	C	1.193860	0.330990	0.500069
C25	C	0.643767	-0.241168	0.000064
C26	C	1.143767	0.258832	0.500064
C27	C	0.562214	-0.233778	0.000077
C28	C	1.062214	0.266222	0.500077
C29	C	0.530756	-0.154230	0.000088
C30	C	1.030756	0.345770	0.500088
C31	C	0.580855	-0.082067	0.000095
C32	C	1.080855	0.417933	0.500095
C33	C	0.662406	-0.089457	0.000089
C34	C	1.162406	0.410543	0.500089
C35	C	0.284990	-0.128121	0.000114
C36	C	0.784990	0.371879	0.500114
C37	C	0.203433	-0.120736	0.000118
C38	C	0.703433	0.379264	0.500118
C39	C	0.184797	-0.272448	0.000101
C40	C	0.684797	0.227552	0.500101
C41	C	0.266351	-0.279831	0.000089
C42	C	0.766351	0.220169	0.500089
C43	C	0.316443	-0.207668	0.000101
C44	C	0.816443	0.292332	0.500101
C45	C	0.447396	-0.146675	0.000098
C46	C	0.947396	0.353325	0.500098
C47	C	0.399801	-0.215224	0.000097
C48	C	0.899801	0.284776	0.500097
C49	C	0.929300	-0.027790	0.000104
C50	C	1.429300	0.472210	0.500104
C51	C	0.927753	0.065567	0.000104
C52	C	1.427753	0.565567	0.500104
C53	C	1.066545	-0.185034	0.000109
C54	C	1.566545	0.314966	0.500109
C55	C	1.153340	-0.192893	0.000113
C56	C	1.653340	0.307107	0.500113
C57	C	0.917900	-0.334114	0.000084
C58	C	1.417900	0.165886	0.500084
C59	C	0.919447	-0.427470	0.000078
C60	C	1.419447	0.072530	0.500078
N61	N	0.923576	-0.180978	0.230773
N62	N	1.423576	0.319022	0.730773
C63	C	0.849653	0.286000	0.000083
C64	C	1.349653	0.786000	0.500083
C65	C	0.885910	0.344419	0.073092
C66	C	1.385910	0.844419	0.573092
C67	C	0.924953	0.236492	0.000097
C68	C	1.424953	0.736492	0.500097
C69	C	0.885947	0.344418	-0.072888
C70	C	1.385947	0.844418	0.427112
C71	C	0.922244	0.401598	0.000086
C72	C	1.422244	0.901598	0.500086
C73	C	0.961232	0.293682	0.073166
C74	C	1.461232	0.793682	0.573166
C75	C	0.961258	0.293676	-0.072879
C76	C	1.461258	0.793676	0.427121
C77	C	0.997570	0.352073	0.000147
C78	C	1.497570	0.852073	0.500147
C79	C	0.926512	0.141379	0.000104
C80	C	1.426512	0.641379	0.500104
C81	C	0.920691	0.496710	0.000085
C82	C	1.420691	0.996710	0.500085
N83	N	0.923630	-0.180919	-0.230583
N84	N	1.423630	0.319081	0.269417
C85	C	0.868065	-0.236615	0.470446
C86	C	1.368065	0.263385	0.970446
C87	C	0.938714	-0.257966	0.529787
C88	C	1.438714	0.242034	1.029787
C89	C	0.923596	-0.180959	0.412380
C90	C	1.423596	0.319041	0.912380
C91	C	0.852965	-0.159627	0.529780
C92	C	1.352965	0.340373	1.029780
C93	C	0.923609	-0.180941	0.587804
C94	C	1.423609	0.319059	1.087804
C95	C	0.994281	-0.202350	0.470415
C96	C	1.494281	0.297650	0.970415
C97	C	0.908486	-0.103976	0.470402
C98	C	1.408486	0.396024	0.970402
C99	C	0.979186	-0.125298	0.529717
C100	C	1.479186	0.374702	1.029717
C101	C	0.923587	-0.180971	0.311323
C102	C	1.423587	0.319029	0.811323
C103	C	0.923626	-0.180929	0.688859
C104	C	1.423626	0.319071	1.188859
H105	H	0.325766	-0.069360	0.000124
H106	H	0.825766	0.430640	0.500124
Cl107	Cl	0.499243	-0.324495	0.000066
Cl108	Cl	0.999243	0.175505	0.500066
Cl109	Cl	0.958465	-0.358467	0.570062
Cl110	Cl	1.458465	0.141533	1.070062
Cl111	Cl	1.010401	0.259095	-0.168170
Cl112	Cl	1.510401	0.759095	0.331830
H113	H	0.993046	0.271412	0.134957
H114	H	1.493046	0.771412	0.634957
Cl115	Cl	0.407841	-0.046674	0.000108
Cl116	Cl	0.907841	0.453326	0.500108
H117	H	0.821151	-0.283725	0.444422
H118	H	1.321151	0.216275	0.944422
H119	H	0.669373	-0.305944	0.000055
H120	H	1.169373	0.194056	0.500055
Cl121	Cl	0.836766	0.378960	-0.168177
Cl122	Cl	1.336766	0.878960	0.331823
Cl123	Cl	1.086531	-0.230311	0.430329
Cl124	Cl	1.586531	0.269689	0.930329
H125	H	0.425418	-0.279992	0.000093
H126	H	0.925418	0.220008	0.500093
H127	H	1.026204	-0.078225	0.555578
H128	H	1.526204	0.421775	1.055578
Cl129	Cl	0.836728	0.378966	0.168377
Cl130	Cl	1.336728	0.878966	0.668377
H131	H	0.787150	0.257155	0.000148
H132	H	1.287150	0.757155	0.500148
H133	H	1.060128	0.380766	0.000196
H134	H	1.560128	0.880766	0.500196
H135	H	0.895672	-0.038899	0.444297
H136	H	1.395672	0.461101	0.944297
Cl137	Cl	0.760739	-0.131782	0.570043
Cl138	Cl	1.260739	0.368218	1.070043
H139	H	0.291958	-0.344607	0.000070
H140	H	0.791958	0.155393	0.500070
H141	H	0.177823	-0.055955	0.000125
H142	H	0.677823	0.444045	0.500125
Cl143	Cl	0.121821	-0.363161	0.000090
Cl144	Cl	0.621821	0.136839	0.500090
Cl145	Cl	0.541307	0.017937	0.000114
Cl146	Cl	1.041307	0.517937	0.500114
H147	H	0.703192	-0.030699	0.000092
H148	H	1.203192	0.469301	0.500092
