data_functionalizedCrystal
_audit_creation_method	'MofGen! by Chris Wilmer'
_symmetry_space_group_name_H-M	'P1'
_symmetry_Int_Tables_number	1
_symmetry_cell_setting	triclinic
loop_
_symmetry_equiv_pos_as_xyz
  x,y,z
_cell_length_a	18.050590
_cell_length_b	18.215407
_cell_length_c	18.215399
_cell_angle_alpha	90.020595
_cell_angle_beta	90.032491
_cell_angle_gamma	90.022413
loop_
_atom_site_label
_atom_site_type_symbol
_atom_site_fract_x
_atom_site_fract_y
_atom_site_fract_z
Zn1	Zn	0.295669	-1.125084	-0.416108
Zn2	Zn	0.545669	-0.875084	-0.166108
Zn3	Zn	0.795669	-0.625084	0.083892
Zn4	Zn	1.045669	-0.375084	0.333892
Zn5	Zn	0.419864	-1.124998	-0.293032
Zn6	Zn	0.669864	-0.874998	-0.043032
Zn7	Zn	0.919864	-0.624998	0.206968
Zn8	Zn	1.169864	-0.374998	0.456968
Zn9	Zn	0.295692	-1.002017	-0.293053
Zn10	Zn	0.545692	-0.752017	-0.043053
Zn11	Zn	0.795692	-0.502017	0.206947
Zn12	Zn	1.045692	-0.252017	0.456947
Zn13	Zn	0.419821	-1.001988	-0.416055
Zn14	Zn	0.669821	-0.751988	-0.166055
Zn15	Zn	0.919821	-0.501988	0.083945
Zn16	Zn	1.169821	-0.251988	0.333945
O17	O	0.357761	-1.063522	-0.354562
O18	O	0.607761	-0.813522	-0.104562
O19	O	0.857761	-0.563522	0.145438
O20	O	1.107761	-0.313522	0.395438
O21	O	0.312151	-1.228057	-0.399794
O22	O	0.562151	-0.978057	-0.149794
O23	O	0.812151	-0.728057	0.100206
O24	O	1.062151	-0.478057	0.350206
O25	O	0.403419	-1.108660	-0.190050
O26	O	0.653419	-0.858660	0.059950
O27	O	0.903419	-0.608660	0.309950
O28	O	1.153419	-0.358660	0.559950
O29	O	0.191764	-1.018390	-0.309408
O30	O	0.441764	-0.768390	-0.059408
O31	O	0.691764	-0.518390	0.190592
O32	O	0.941764	-0.268390	0.440592
O33	O	0.403397	-1.227993	-0.309371
O34	O	0.653397	-0.977993	-0.059371
O35	O	0.903397	-0.727993	0.190629
O36	O	1.153397	-0.477993	0.440629
O37	O	0.191747	-1.108807	-0.399815
O38	O	0.441747	-0.858807	-0.149815
O39	O	0.691747	-0.608807	0.100185
O40	O	0.941747	-0.358807	0.350185
O41	O	0.312191	-1.018306	-0.190066
O42	O	0.562191	-0.768306	0.059934
O43	O	0.812191	-0.518306	0.309934
O44	O	1.062191	-0.268306	0.559934
O45	O	0.312150	-0.899029	-0.309357
O46	O	0.562150	-0.649029	-0.059357
O47	O	0.812150	-0.399029	0.190643
O48	O	1.062150	-0.149029	0.440643
O49	O	0.403325	-1.018341	-0.519046
O50	O	0.653325	-0.768341	-0.269046
O51	O	0.903325	-0.518341	-0.019046
O52	O	1.153325	-0.268341	0.230954
O53	O	0.403347	-0.899007	-0.399725
O54	O	0.653347	-0.649007	-0.149725
O55	O	0.903347	-0.399007	0.100275
O56	O	1.153347	-0.149007	0.350275
O57	O	0.312110	-1.108779	-0.519085
O58	O	0.562110	-0.858779	-0.269085
O59	O	0.812110	-0.608779	-0.019085
O60	O	1.062110	-0.358779	0.230915
O61	O	0.523783	-1.108632	-0.309320
O62	O	0.773783	-0.858632	-0.059320
O63	O	1.023783	-0.608632	0.190680
O64	O	1.273783	-0.358632	0.440680
O65	O	0.523751	-1.018257	-0.399704
O66	O	0.773751	-0.768257	-0.149704
O67	O	1.023751	-0.518257	0.100296
O68	O	1.273751	-0.268257	0.350296
C69	C	0.357747	-0.872315	-0.354538
C70	C	0.607747	-0.622315	-0.104538
C71	C	0.857747	-0.372315	0.145462
C72	C	1.107747	-0.122315	0.395462
C73	C	0.357758	-0.790516	-0.354546
C74	C	0.607758	-0.540516	-0.104546
C75	C	0.857758	-0.290516	0.145454
C76	C	1.107758	-0.040516	0.395454
C77	C	0.405318	-0.602331	-0.401539
C78	C	0.655318	-0.352331	-0.151539
C79	C	0.905318	-0.102331	0.098461
C80	C	1.155318	0.147669	0.348461
C81	C	0.405319	-0.525472	-0.401547
C82	C	0.655319	-0.275472	-0.151547
C83	C	0.905319	-0.025472	0.098453
C84	C	1.155319	0.224528	0.348453
C85	C	0.310209	-0.525465	-0.307588
C86	C	0.560209	-0.275465	-0.057588
C87	C	0.810209	-0.025465	0.192412
C88	C	1.060209	0.224535	0.442412
C89	C	0.310204	-0.602322	-0.307584
C90	C	0.560204	-0.352322	-0.057584
C91	C	0.810204	-0.102322	0.192416
C92	C	1.060204	0.147678	0.442416
C93	C	0.357763	-0.640753	-0.354558
C94	C	0.607763	-0.390753	-0.104558
C95	C	0.857763	-0.140753	0.145442
C96	C	1.107763	0.109247	0.395442
C97	C	0.357769	-0.487037	-0.354570
C98	C	0.607769	-0.237037	-0.104570
C99	C	0.857769	0.012963	0.145430
C100	C	1.107769	0.262963	0.395430
C101	C	0.357771	-0.403703	-0.354579
C102	C	0.607771	-0.153703	-0.104579
C103	C	0.857771	0.096297	0.145421
C104	C	1.107771	0.346297	0.395421
C105	C	0.357761	-0.724092	-0.354551
C106	C	0.607761	-0.474092	-0.104551
C107	C	0.857761	-0.224092	0.145449
C108	C	1.107761	0.025908	0.395449
C109	C	0.550713	-1.063452	-0.354520
C110	C	0.800713	-0.813452	-0.104520
C111	C	1.050713	-0.563452	0.145480
C112	C	1.300713	-0.313452	0.395480
C113	C	0.633259	-1.063489	-0.354527
C114	C	0.883259	-0.813489	-0.104527
C115	C	1.133259	-0.563489	0.145473
C116	C	1.383259	-0.313489	0.395473
C117	C	0.832700	-1.112724	-0.305431
C118	C	1.082700	-0.862724	-0.055431
C119	C	1.332700	-0.612724	0.194569
C120	C	1.582700	-0.362724	0.444569
C121	C	0.882032	-1.130698	-0.372595
C122	C	1.132032	-0.880698	-0.122595
C123	C	1.382032	-0.630698	0.127405
C124	C	1.632032	-0.380698	0.377405
C125	C	0.784390	-1.063521	-0.354546
C126	C	1.034390	-0.813521	-0.104546
C127	C	1.284390	-0.563521	0.145454
C128	C	1.534390	-0.313521	0.395454
C129	C	0.882139	-1.045612	-0.287403
C130	C	1.132139	-0.795612	-0.037403
C131	C	1.382139	-0.545612	0.212597
C132	C	1.632139	-0.295612	0.462597
C133	C	0.930375	-1.063553	-0.354559
C134	C	1.180375	-0.813553	-0.104559
C135	C	1.430375	-0.563553	0.145441
C136	C	1.680375	-0.313553	0.395441
C137	C	0.832635	-1.081529	-0.421746
C138	C	1.082635	-0.831529	-0.171746
C139	C	1.332635	-0.581529	0.078254
C140	C	1.582635	-0.331529	0.328254
C141	C	0.832737	-0.996412	-0.336508
C142	C	1.082737	-0.746412	-0.086508
C143	C	1.332737	-0.496412	0.163492
C144	C	1.582737	-0.246412	0.413492
C145	C	0.882047	-1.014360	-0.403718
C146	C	1.132047	-0.764360	-0.153718
C147	C	1.382047	-0.514360	0.096282
C148	C	1.632047	-0.264360	0.346282
C149	C	0.700291	-1.063504	-0.354538
C150	C	0.950291	-0.813504	-0.104538
C151	C	1.200291	-0.563504	0.145462
C152	C	1.450291	-0.313504	0.395462
C153	C	1.014471	-1.063569	-0.354575
C154	C	1.264471	-0.813569	-0.104575
C155	C	1.514471	-0.563569	0.145425
C156	C	1.764471	-0.313569	0.395425
C157	C	1.164056	-1.063595	-0.354604
C158	C	1.414056	-0.813595	-0.104604
C159	C	1.664056	-0.563595	0.145396
C160	C	1.914056	-0.313595	0.395396
C161	C	1.081510	-1.063582	-0.354580
C162	C	1.331510	-0.813582	-0.104580
C163	C	1.581510	-0.563582	0.145420
C164	C	1.831510	-0.313582	0.395420
C165	C	0.357710	-1.063566	-0.546515
C166	C	0.607710	-0.813566	-0.296515
C167	C	0.857710	-0.563566	-0.046515
C168	C	1.107710	-0.313566	0.203485
C169	C	0.357688	-1.063586	-0.628314
C170	C	0.607688	-0.813586	-0.378314
C171	C	0.857688	-0.563586	-0.128314
C172	C	1.107688	-0.313586	0.121686
C173	C	0.357774	-0.255474	-0.354583
C174	C	0.607774	-0.005474	-0.104583
C175	C	0.857774	0.244526	0.145417
C176	C	1.107774	0.494526	0.395417
C177	C	0.357774	-0.337273	-0.354583
C178	C	0.607774	-0.087273	-0.104583
C179	C	0.857774	0.162727	0.145417
C180	C	1.107774	0.412727	0.395417
C181	C	0.310149	-1.110694	-0.816529
C182	C	0.560149	-0.860694	-0.566529
C183	C	0.810149	-0.610694	-0.316529
C184	C	1.060149	-0.360694	-0.066529
C185	C	0.310127	-1.110703	-0.893388
C186	C	0.560127	-0.860703	-0.643388
C187	C	0.810127	-0.610703	-0.393388
C188	C	1.060127	-0.360703	-0.143388
C189	C	0.405113	-1.016529	-0.893336
C190	C	0.655113	-0.766529	-0.643336
C191	C	0.905113	-0.516529	-0.393336
C192	C	1.155113	-0.266529	-0.143336
C193	C	0.405130	-1.016517	-0.816479
C194	C	0.655130	-0.766517	-0.566479
C195	C	0.905130	-0.516517	-0.316479
C196	C	1.155130	-0.266517	-0.066479
C197	C	0.357649	-1.063604	-0.778077
C198	C	0.607649	-0.813604	-0.528077
C199	C	0.857649	-0.563604	-0.278077
C200	C	1.107649	-0.313604	-0.028077
C201	C	0.357610	-1.063625	-0.931794
C202	C	0.607610	-0.813625	-0.681794
C203	C	0.857610	-0.563625	-0.431794
C204	C	1.107610	-0.313625	-0.181794
C205	C	0.357587	-1.063634	-1.015127
C206	C	0.607587	-0.813634	-0.765127
C207	C	0.857587	-0.563634	-0.515127
C208	C	1.107587	-0.313634	-0.265127
C209	C	0.357671	-1.063594	-0.694738
C210	C	0.607671	-0.813594	-0.444738
C211	C	0.857671	-0.563594	-0.194738
C212	C	1.107671	-0.313594	0.055262
C213	C	0.357759	-1.063519	-0.163356
C214	C	0.607759	-0.813519	0.086644
C215	C	0.857759	-0.563519	0.336644
C216	C	1.107759	-0.313519	0.586644
C217	C	0.357571	-1.063643	-0.081557
C218	C	0.607571	-0.813643	0.168443
C219	C	0.857571	-0.563643	0.418443
C220	C	1.107571	-0.313643	0.668443
H221	H	0.444041	-0.633619	-0.439791
H222	H	0.694041	-0.383619	-0.189791
H223	H	0.944041	-0.133619	0.060209
H224	H	1.194041	0.116381	0.310209
H225	H	0.811032	-1.154352	-0.263943
H226	H	1.061032	-0.904352	-0.013943
H227	H	1.311032	-0.654352	0.236057
H228	H	1.561032	-0.404352	0.486057
Br229	Br	0.245709	-1.174595	-0.764415
Br230	Br	0.495709	-0.924595	-0.514415
Br231	Br	0.745709	-0.674595	-0.264415
Br232	Br	0.995709	-0.424595	-0.014415
Br233	Br	0.918105	-1.225313	-0.398058
Br234	Br	1.168105	-0.975313	-0.148058
Br235	Br	1.418105	-0.725313	0.101942
Br236	Br	1.668105	-0.475313	0.351942
H237	H	0.811066	-0.939663	-0.321221
H238	H	1.061066	-0.689663	-0.071221
H239	H	1.311066	-0.439663	0.178779
H240	H	1.561066	-0.189663	0.428779
Br241	Br	0.918385	-1.020344	-0.192756
Br242	Br	1.168385	-0.770344	0.057244
Br243	Br	1.418385	-0.520344	0.307244
Br244	Br	1.668385	-0.270344	0.557244
Br245	Br	0.469858	-0.473330	-0.465313
Br246	Br	0.719858	-0.223330	-0.215313
Br247	Br	0.969858	0.026670	0.034687
Br248	Br	1.219858	0.276670	0.284687
Br249	Br	0.469594	-0.952598	-0.764289
Br250	Br	0.719594	-0.702598	-0.514289
Br251	Br	0.969594	-0.452598	-0.264289
Br252	Br	1.219594	-0.202598	-0.014289
Br253	Br	0.245668	-0.473304	-0.243839
Br254	Br	0.495668	-0.223304	0.006161
Br255	Br	0.745668	0.026696	0.256161
Br256	Br	0.995668	0.276696	0.506161
Br257	Br	0.245664	-1.174619	-0.945570
Br258	Br	0.495664	-0.924619	-0.695570
Br259	Br	0.745664	-0.674619	-0.445570
Br260	Br	0.995664	-0.424619	-0.195570
Br261	Br	0.796552	-1.106918	-0.516421
Br262	Br	1.046552	-0.856918	-0.266421
Br263	Br	1.296552	-0.606918	-0.016421
Br264	Br	1.546552	-0.356918	0.233579
Br265	Br	0.245653	-0.654471	-0.243827
Br266	Br	0.495653	-0.404471	0.006173
Br267	Br	0.745653	-0.154471	0.256173
Br268	Br	0.995653	0.095529	0.506173
Br269	Br	0.917937	-0.945030	-0.473031
Br270	Br	1.167937	-0.695030	-0.223031
Br271	Br	1.417937	-0.445030	0.026969
Br272	Br	1.667937	-0.195030	0.276969
Br273	Br	0.469551	-0.952632	-0.945457
Br274	Br	0.719551	-0.702632	-0.695457
Br275	Br	0.969551	-0.452632	-0.445457
Br276	Br	1.219551	-0.202632	-0.195457
