data_functionalizedCrystal
_audit_creation_method	'MofGen! by Chris Wilmer'
_symmetry_space_group_name_H-M	'P1'
_symmetry_Int_Tables_number	1
_symmetry_cell_setting	triclinic
loop_
_symmetry_equiv_pos_as_xyz
  x,y,z
_cell_length_a	21.395362
_cell_length_b	18.101395
_cell_length_c	21.395355
_cell_angle_alpha	90.015727
_cell_angle_beta	90.043940
_cell_angle_gamma	90.046983
loop_
_atom_site_label
_atom_site_type_symbol
_atom_site_fract_x
_atom_site_fract_y
_atom_site_fract_z
Zn1	Zn	0.957858	-0.294602	0.354598
Zn2	Zn	1.291191	0.038732	0.687931
Zn3	Zn	1.624524	0.372065	1.021264
Zn4	Zn	0.957760	-0.418425	0.249825
Zn5	Zn	1.291093	-0.085092	0.583159
Zn6	Zn	1.624426	0.248242	0.916492
Zn7	Zn	0.853073	-0.294636	0.249799
Zn8	Zn	1.186406	0.038697	0.583132
Zn9	Zn	1.519739	0.372031	0.916466
Zn10	Zn	0.853041	-0.418440	0.354530
Zn11	Zn	1.186375	-0.085107	0.687863
Zn12	Zn	1.519708	0.248227	1.021197
O13	O	0.905433	-0.356526	0.302188
O14	O	1.238766	-0.023192	0.635521
O15	O	1.572099	0.310141	0.968855
O16	O	1.045523	-0.311006	0.340739
O17	O	1.378856	0.022327	0.674072
O18	O	1.712189	0.355661	1.007405
O19	O	0.943845	-0.402012	0.162144
O20	O	1.277178	-0.068679	0.495477
O21	O	1.610511	0.264655	0.828811
O22	O	0.867027	-0.190998	0.263718
O23	O	1.200360	0.142335	0.597051
O24	O	1.533694	0.475668	0.930385
O25	O	1.045450	-0.401979	0.263763
O26	O	1.378784	-0.068645	0.597096
O27	O	1.712117	0.264688	0.930430
O28	O	0.944012	-0.190973	0.340713
O29	O	1.277345	0.142360	0.674047
O30	O	1.610679	0.475693	1.007380
O31	O	0.866932	-0.311065	0.162125
O32	O	1.200265	0.022268	0.495458
O33	O	1.533598	0.355602	0.828791
O34	O	0.765391	-0.311080	0.263652
O35	O	1.098724	0.022254	0.596986
O36	O	1.432057	0.355587	0.930319
O37	O	0.866973	-0.402005	0.442217
O38	O	1.200307	-0.068671	0.775550
O39	O	1.533640	0.264662	1.108884
O40	O	0.765367	-0.402038	0.340598
O41	O	1.098701	-0.068705	0.673931
O42	O	1.432034	0.264629	1.007265
O43	O	0.943982	-0.311021	0.442267
O44	O	1.277315	0.022312	0.775600
O45	O	1.610648	0.355646	1.108933
O46	O	0.943814	-0.522060	0.263697
O47	O	1.277147	-0.188726	0.597031
O48	O	1.610481	0.144607	0.930364
O49	O	0.866878	-0.522071	0.340623
O50	O	1.200211	-0.188738	0.673957
O51	O	1.533545	0.144596	1.007290
C52	C	0.742645	-0.356565	0.302115
C53	C	1.075978	-0.023231	0.635449
C54	C	1.409312	0.310102	0.968782
C55	C	0.673004	-0.356599	0.302099
C56	C	1.006337	-0.023266	0.635432
C57	C	1.339671	0.310067	0.968766
C58	C	0.640295	-0.404024	0.342105
C59	C	0.973628	-0.070691	0.675438
C60	C	1.306962	0.262643	1.008771
C61	C	0.574860	-0.404006	0.342133
C62	C	0.908193	-0.070673	0.675466
C63	C	1.241526	0.262661	1.008799
C64	C	0.542136	-0.356571	0.302144
C65	C	0.875469	-0.023238	0.635477
C66	C	1.208802	0.310096	0.968810
C67	C	0.574852	-0.309137	0.262135
C68	C	0.908186	0.024196	0.595469
C69	C	1.241519	0.357530	0.928802
C70	C	0.640286	-0.309151	0.262113
C71	C	0.973620	0.024182	0.595446
C72	C	1.306953	0.357516	0.928780
C73	C	0.438411	-0.350605	0.245738
C74	C	0.771744	-0.017272	0.579072
C75	C	1.105078	0.316062	0.912405
C76	C	0.372978	-0.350596	0.245760
C77	C	0.706311	-0.017262	0.579093
C78	C	1.039645	0.316071	0.912426
C79	C	0.340315	-0.356523	0.302213
C80	C	0.673648	-0.023189	0.635546
C81	C	1.006982	0.310144	0.968880
C82	C	0.373093	-0.362474	0.358647
C83	C	0.706426	-0.029141	0.691980
C84	C	1.039759	0.304193	1.025313
C85	C	0.438527	-0.362488	0.358624
C86	C	0.771860	-0.029155	0.691958
C87	C	1.105194	0.304179	1.025291
C88	C	0.471183	-0.356550	0.302164
C89	C	0.804517	-0.023216	0.635497
C90	C	1.137850	0.310117	0.968830
C91	C	0.236654	-0.403930	0.342252
C92	C	0.569987	-0.070597	0.675585
C93	C	0.903320	0.262737	1.008919
C94	C	0.171217	-0.403907	0.342281
C95	C	0.504550	-0.070573	0.675614
C96	C	0.837884	0.262760	1.008948
C97	C	0.171211	-0.309042	0.262278
C98	C	0.504544	0.024292	0.595612
C99	C	0.837878	0.357625	0.928945
C100	C	0.236646	-0.309061	0.262255
C101	C	0.569980	0.024272	0.595588
C102	C	0.903313	0.357606	0.928922
C103	C	0.269364	-0.356509	0.302241
C104	C	0.602697	-0.023176	0.635574
C105	C	0.936030	0.310157	0.968908
C106	C	0.905349	-0.548936	0.302170
C107	C	1.238682	-0.215603	0.635503
C108	C	1.572016	0.117730	0.968836
C109	C	0.905370	-0.631250	0.302183
C110	C	1.238704	-0.297917	0.635516
C111	C	1.572037	0.035416	0.968849
C112	C	0.905508	-0.930341	0.302216
C113	C	1.238841	-0.597008	0.635550
C114	C	1.572175	-0.263674	0.968883
C115	C	0.857214	-0.899054	0.350736
C116	C	1.190547	-0.565721	0.684070
C117	C	1.523881	-0.232387	1.017403
C118	C	0.856985	-0.813436	0.350585
C119	C	1.190318	-0.480103	0.683918
C120	C	1.523651	-0.146769	1.017251
C121	C	0.905440	-0.781959	0.302200
C122	C	1.238773	-0.448625	0.635534
C123	C	1.572106	-0.115292	0.968867
C124	C	0.887557	-0.813100	0.236161
C125	C	1.220890	-0.479767	0.569494
C126	C	1.554224	-0.146433	0.902828
C127	C	0.887246	-0.898745	0.236451
C128	C	1.220579	-0.565412	0.569785
C129	C	1.553912	-0.232079	0.903118
C130	C	0.971790	-0.898667	0.319154
C131	C	1.305123	-0.565334	0.652488
C132	C	1.638457	-0.232001	0.985821
C133	C	0.971400	-0.813017	0.320602
C134	C	1.304734	-0.479683	0.653936
C135	C	1.638067	-0.146350	0.987269
C136	C	0.905402	-0.698099	0.302187
C137	C	1.238736	-0.364766	0.635520
C138	C	1.572069	-0.031433	0.968854
C139	C	0.905544	-1.014201	0.302225
C140	C	1.238877	-0.680867	0.635559
C141	C	1.572211	-0.347534	0.968892
C142	C	1.068856	-0.356487	0.302261
C143	C	1.402189	-0.023154	0.635595
C144	C	1.735523	0.310180	0.968928
C145	C	1.138497	-0.356470	0.302293
C146	C	1.471831	-0.023137	0.635626
C147	C	1.805164	0.310196	0.968959
C148	C	0.905485	-0.356511	0.465611
C149	C	1.238818	-0.023177	0.798945
C150	C	1.572151	0.310156	1.132278
C151	C	0.905507	-0.356504	0.535253
C152	C	1.238840	-0.023171	0.868586
C153	C	1.572174	0.310162	1.201919
C154	C	0.905534	-0.163364	0.302220
C155	C	1.238867	0.169970	0.635554
C156	C	1.572201	0.503303	0.968887
C157	C	0.905577	-0.081050	0.302234
C158	C	1.238911	0.252284	0.635567
C159	C	1.572244	0.585617	0.968901
C160	C	0.905417	-0.356487	0.139400
C161	C	1.238750	-0.023154	0.472734
C162	C	1.572084	0.310180	0.806067
C163	C	0.905516	-0.356285	0.069760
C164	C	1.238850	-0.022952	0.403093
C165	C	1.572183	0.310382	0.736426
C166	C	0.945603	-0.309127	0.567993
C167	C	1.278937	0.024206	0.901326
C168	C	1.612270	0.357540	1.234659
C169	C	0.945603	-0.309095	0.633428
C170	C	1.278936	0.024238	0.966761
C171	C	1.612269	0.357571	1.300095
C172	C	0.905512	-0.356454	0.666121
C173	C	1.238845	-0.023120	0.999454
C174	C	1.572179	0.310213	1.332788
C175	C	0.865408	-0.403834	0.633373
C176	C	1.198741	-0.070501	0.966706
C177	C	1.532074	0.262832	1.300040
C178	C	0.865405	-0.403859	0.567939
C179	C	1.198738	-0.070526	0.901272
C180	C	1.532072	0.262807	1.234606
C181	C	0.900536	-0.423137	0.769788
C182	C	1.233869	-0.089803	1.103121
C183	C	1.567202	0.243530	1.436454
C184	C	0.900542	-0.423113	0.835221
C185	C	1.233876	-0.089779	1.168554
C186	C	1.567209	0.243554	1.501887
C187	C	0.905516	-0.356375	0.867942
C188	C	1.238849	-0.023042	1.201275
C189	C	1.572182	0.310291	1.534609
C190	C	0.910495	-0.289660	0.835222
C191	C	1.243829	0.043673	1.168555
C192	C	1.577162	0.377007	1.501889
C193	C	0.910493	-0.289685	0.769788
C194	C	1.243826	0.043648	1.103121
C195	C	1.577160	0.376981	1.436455
C196	C	0.905510	-0.356431	0.737073
C197	C	1.238843	-0.023098	1.070407
C198	C	1.572176	0.310235	1.403740
C199	C	0.945613	-0.308960	0.971635
C200	C	1.278947	0.024374	1.304968
C201	C	1.612280	0.357707	1.638301
C202	C	0.945608	-0.308927	1.037071
C203	C	1.278942	0.024407	1.370405
C204	C	1.612275	0.357740	1.703738
C205	C	0.865416	-0.403672	1.037015
C206	C	1.198750	-0.070339	1.370348
C207	C	1.532083	0.262994	1.703682
C208	C	0.865418	-0.403699	0.971580
C209	C	1.198752	-0.070366	1.304913
C210	C	1.532085	0.262968	1.638246
C211	C	0.905520	-0.356344	0.938893
C212	C	1.238854	-0.023010	1.272227
C213	C	1.572187	0.310323	1.605560
H214	H	0.144587	-0.442524	0.374862
H215	H	0.477920	-0.109191	0.708196
H216	H	0.811253	0.224142	1.041529
H217	H	0.914546	-0.235363	0.743150
H218	H	1.247879	0.097970	1.076484
H219	H	1.581213	0.431303	1.409817
H220	H	0.978259	-0.270342	1.063727
H221	H	1.311592	0.062991	1.397060
H222	H	1.644925	0.396325	1.730394
H223	H	0.984886	-0.792661	0.369204
H224	H	1.318219	-0.459327	0.702537
H225	H	1.651552	-0.125994	1.035871
H226	H	0.868292	-0.919610	0.399862
H227	H	1.201625	-0.586276	0.733195
H228	H	1.534959	-0.252943	1.066528
H229	H	0.896491	-0.477437	0.861856
H230	H	1.229825	-0.144103	1.195189
H231	H	1.563158	0.189230	1.528523
H232	H	0.838794	-0.918801	0.222106
H233	H	1.172127	-0.585468	0.555439
H234	H	1.505460	-0.252134	0.888772
H235	H	0.920895	-0.919443	0.199066
H236	H	1.254228	-0.586109	0.532399
H237	H	1.587561	-0.252776	0.865733
N238	N	0.135928	-0.257879	0.219143
N239	N	0.469261	0.075454	0.552476
N240	N	0.802595	0.408787	0.885810
H241	H	0.147373	-0.204986	0.228949
H242	H	0.480706	0.128347	0.562282
H243	H	0.814039	0.461681	0.895615
H244	H	0.089523	-0.265126	0.225246
H245	H	0.422856	0.068207	0.558579
H246	H	0.756189	0.401540	0.891912
N247	N	0.675562	-0.257998	0.218956
N248	N	1.008895	0.075335	0.552289
N249	N	1.342228	0.408668	0.885623
H250	H	0.702651	-0.288049	0.189865
H251	H	1.035984	0.045284	0.523198
H252	H	1.369318	0.378618	0.856532
H253	H	0.702733	-0.223739	0.244503
H254	H	1.036067	0.109594	0.577836
H255	H	1.369400	0.442927	0.911169
N256	N	0.932680	-0.786096	0.186963
N257	N	1.266013	-0.452763	0.520296
N258	N	1.599347	-0.119430	0.853629
H259	H	0.965226	-0.753337	0.207058
H260	H	1.298559	-0.420004	0.540391
H261	H	1.631893	-0.086670	0.873725
H262	H	0.909130	-0.757112	0.154220
H263	H	1.242463	-0.423779	0.487553
H264	H	1.575796	-0.090445	0.820886
N265	N	0.675576	-0.455199	0.385235
N266	N	1.008910	-0.121865	0.718569
N267	N	1.342243	0.211468	1.051902
H268	H	0.664245	-0.443772	0.430022
H269	H	0.997579	-0.110439	0.763356
H270	H	1.330912	0.222894	1.096689
H271	H	0.721982	-0.447993	0.379102
H272	H	1.055316	-0.114660	0.712435
H273	H	1.388649	0.218673	1.045768
N274	N	0.895180	-0.495123	0.734498
N275	N	1.228513	-0.161790	1.067832
N276	N	1.561846	0.171544	1.401165
H277	H	0.892035	-0.537382	0.765153
H278	H	1.225368	-0.204048	1.098486
H279	H	1.558702	0.129285	1.431820
H280	H	0.933355	-0.501991	0.707382
H281	H	1.266688	-0.168657	1.040716
H282	H	1.600022	0.164676	1.374049
N283	N	0.993387	-0.927233	0.381850
N284	N	1.326720	-0.593900	0.715183
N285	N	1.660054	-0.260567	1.048517
H286	H	1.033685	-0.955547	0.376481
H287	H	1.367018	-0.622214	0.709814
H288	H	1.700352	-0.288881	1.043148
H289	H	0.960378	-0.960965	0.399867
H290	H	1.293711	-0.627631	0.733200
H291	H	1.627045	-0.294298	1.066534
N292	N	1.021590	-0.784626	0.277212
N293	N	1.354923	-0.451293	0.610546
N294	N	1.688256	-0.117960	0.943879
H295	H	1.002193	-0.751082	0.244865
H296	H	1.335527	-0.417749	0.578198
H297	H	1.668860	-0.084416	0.911531
H298	H	1.042462	-0.827695	0.255686
H299	H	1.375795	-0.494362	0.589019
H300	H	1.709128	-0.161029	0.922352
H301	H	0.263278	-0.270446	0.229675
H302	H	0.596611	0.062887	0.563008
H303	H	0.929945	0.396220	0.896342
N304	N	0.822169	-0.454747	1.072267
N305	N	1.155503	-0.121414	1.405600
N306	N	1.488836	0.211919	1.738933
H307	H	0.828253	-0.447541	1.118688
H308	H	1.161586	-0.114208	1.452021
H309	H	1.494919	0.219125	1.785354
H310	H	0.831891	-0.507641	1.060840
H311	H	1.165225	-0.174308	1.394174
H312	H	1.498558	0.159026	1.727507
N313	N	0.791910	-0.786392	0.335716
N314	N	1.125243	-0.453058	0.669049
N315	N	1.458577	-0.119725	1.002383
H316	H	0.763262	-0.830107	0.329232
H317	H	1.096596	-0.496773	0.662565
H318	H	1.429929	-0.163440	0.995898
H319	H	0.793032	-0.755527	0.296415
H320	H	1.126365	-0.422194	0.629749
H321	H	1.459699	-0.088861	0.963082
H322	H	0.346295	-0.345754	0.199808
H323	H	0.679628	-0.012421	0.533141
H324	H	1.012962	0.320912	0.866474
H325	H	0.346500	-0.367299	0.404617
H326	H	0.679833	-0.033965	0.737950
H327	H	1.013167	0.299368	1.071283
H328	H	0.839618	-0.791728	0.221559
H329	H	1.172952	-0.458394	0.554892
H330	H	1.506285	-0.125061	0.888225
N331	N	0.473877	-0.368904	0.419489
N332	N	0.807210	-0.035570	0.752822
N333	N	1.140544	0.297763	1.086156
H334	H	0.462558	-0.326127	0.447595
H335	H	0.795892	0.007206	0.780928
H336	H	1.129225	0.340540	1.114262
H337	H	0.520273	-0.368036	0.410854
H338	H	0.853606	-0.034702	0.744187
H339	H	1.186940	0.298631	1.077520
N340	N	0.871798	-0.785536	0.415445
N341	N	1.205131	-0.452202	0.748779
N342	N	1.538465	-0.118869	1.082112
H343	H	0.914382	-0.803934	0.428577
H344	H	1.247715	-0.470600	0.761910
H345	H	1.581048	-0.137267	1.095243
H346	H	0.839224	-0.804253	0.445703
H347	H	1.172558	-0.470920	0.779037
H348	H	1.505891	-0.137586	1.112370
H349	H	0.465000	-0.345775	0.199764
H350	H	0.798333	-0.012442	0.533097
H351	H	1.131666	0.320891	0.866431
N352	N	1.019454	-0.925458	0.272347
N353	N	1.352787	-0.592125	0.605681
N354	N	1.686121	-0.258791	0.939014
H355	H	0.998251	-0.957953	0.240323
H356	H	1.331584	-0.624619	0.573656
H357	H	1.664918	-0.291286	0.906990
H358	H	1.052880	-0.954670	0.294700
H359	H	1.386213	-0.621337	0.628033
H360	H	1.719547	-0.288004	0.961366
N361	N	0.988853	-0.258052	0.532738
N362	N	1.322186	0.075281	0.866072
N363	N	1.655520	0.408615	1.199405
H364	H	1.014254	-0.228033	0.563412
H365	H	1.347587	0.105300	0.896746
H366	H	1.680920	0.438634	1.230079
H367	H	0.963367	-0.223794	0.505570
H368	H	1.296700	0.109539	0.838903
H369	H	1.630034	0.442872	1.172237
H370	H	0.832771	-0.442283	0.944922
H371	H	1.166105	-0.108950	1.278256
H372	H	1.499438	0.224384	1.611589
H373	H	0.548204	-0.270514	0.229577
H374	H	0.881537	0.062820	0.562911
H375	H	1.214871	0.396153	0.896244
H376	H	0.808383	-0.920654	0.339656
H377	H	1.141716	-0.587320	0.672990
H378	H	1.475050	-0.253987	1.006323
N379	N	0.822170	-0.454910	0.668640
N380	N	1.155504	-0.121577	1.001973
N381	N	1.488837	0.211756	1.335306
H382	H	0.831869	-0.507827	0.657263
H383	H	1.165202	-0.174494	0.990597
H384	H	1.498536	0.158839	1.323930
H385	H	0.777425	-0.443358	0.657210
H386	H	1.110759	-0.110025	0.990543
H387	H	1.444092	0.223308	1.323876
N388	N	0.822148	-0.454951	0.532622
N389	N	1.155481	-0.121617	0.865955
N390	N	1.488814	0.211716	1.199288
H391	H	0.796745	-0.484944	0.563259
H392	H	1.130078	-0.151610	0.896592
H393	H	1.463411	0.181723	1.229926
H394	H	0.847625	-0.489232	0.505490
H395	H	1.180958	-0.155899	0.838823
H396	H	1.514292	0.177435	1.172156
N397	N	0.988872	-0.257891	0.936382
N398	N	1.322206	0.075443	1.269715
N399	N	1.655539	0.408776	1.603049
H400	H	1.017892	-0.288002	0.909267
H401	H	1.351226	0.045331	1.242601
H402	H	1.684559	0.378664	1.575934
H403	H	1.014228	-0.227887	0.967101
H404	H	1.347562	0.105446	1.300435
H405	H	1.680895	0.438779	1.633768
H406	H	0.978253	-0.270511	0.660090
H407	H	1.311586	0.062822	0.993424
H408	H	1.644919	0.396156	1.326757
H409	H	0.914546	-0.235316	0.861862
H410	H	1.247880	0.098017	1.195196
H411	H	1.581213	0.431350	1.528529
H412	H	0.548223	-0.442625	0.374712
H413	H	0.881556	-0.109291	0.708045
H414	H	1.214890	0.224042	1.041379
H415	H	0.263294	-0.442562	0.374814
H416	H	0.596627	-0.109228	0.708148
H417	H	0.929960	0.224105	1.041481
