data_functionalizedCrystal
_audit_creation_method	'MofGen! by Chris Wilmer'
_symmetry_space_group_name_H-M	'P1'
_symmetry_Int_Tables_number	1
_symmetry_cell_setting	triclinic
loop_
_symmetry_equiv_pos_as_xyz
  x,y,z
_cell_length_a	29.839133
_cell_length_b	16.120490
_cell_length_c	16.120297
_cell_angle_alpha	89.870317
_cell_angle_beta	87.121391
_cell_angle_gamma	87.122297
loop_
_atom_site_label
_atom_site_type_symbol
_atom_site_fract_x
_atom_site_fract_y
_atom_site_fract_z
Zn1	Zn	-0.227640	1.247400	0.534579
Zn2	Zn	-0.299158	1.254336	0.395535
Zn3	Zn	-0.220045	1.115391	0.388498
Zn4	Zn	-0.298740	1.108291	0.527508
O5	O	-0.261396	1.181354	0.461530
O6	O	-0.240481	1.364686	0.522038
O7	O	-0.285660	1.241778	0.278235
O8	O	-0.158188	1.132971	0.407891
O9	O	-0.293025	1.369782	0.419883
O10	O	-0.163768	1.229957	0.515215
O11	O	-0.227536	1.139696	0.273066
O12	O	-0.227130	0.998083	0.401034
O13	O	-0.292313	1.120870	0.644812
O14	O	-0.284948	0.992867	0.503164
O15	O	-0.240076	1.223073	0.650007
O16	O	-0.361968	1.234894	0.413027
O17	O	-0.361661	1.127596	0.509987
C18	C	-0.255170	0.965302	0.450569
C19	C	-0.252518	0.872873	0.445899
C20	C	-0.275150	0.659907	0.485753
C21	C	-0.247679	0.703650	0.437372
C22	C	-0.250372	0.797815	0.442118
C23	C	-0.272458	0.565734	0.481008
C24	C	-0.378116	1.181249	0.461522
C25	C	-0.428052	1.181279	0.461550
C26	C	-0.787513	1.231883	0.517476
C27	C	-0.599838	1.231804	0.517471
O28	O	-0.578014	1.274722	0.565004
N29	N	-0.573499	1.181344	0.461552
C30	C	-0.594081	1.130905	0.405626
O31	O	-0.567371	1.087990	0.358057
C32	C	-0.781755	1.130988	0.405628
C33	C	-0.808092	1.181445	0.461556
C34	C	-0.813850	1.282336	0.573400
C35	C	-0.860766	1.282352	0.573404
C36	C	-0.881345	1.231914	0.517484
C37	C	-0.855008	1.181461	0.461560
C38	C	-0.802336	1.080554	0.349698
C39	C	-0.849258	1.080581	0.349702
C40	C	-0.875595	1.131038	0.405631
C41	C	-0.922503	1.131039	0.405644
N42	N	-0.948843	1.181499	0.461563
C43	C	-0.928264	1.231936	0.517483
C44	C	-0.495549	1.130863	0.405630
C45	C	-0.448630	1.130841	0.405631
C46	C	-0.454391	1.231742	0.517475
C47	C	-0.501310	1.231759	0.517478
C48	C	-0.521888	1.181323	0.461550
C49	C	-1.026791	1.231965	0.517487
C50	C	-1.073710	1.231974	0.517488
C51	C	-1.067946	1.131077	0.405641
C52	C	-1.021030	1.131065	0.405643
C53	C	-1.000454	1.181515	0.461569
O54	O	-0.944357	1.088150	0.358130
O55	O	-0.954981	1.274858	0.565033
C56	C	-0.740597	1.231867	0.517473
C57	C	-0.714260	1.181414	0.461549
C58	C	-0.734839	1.130976	0.405629
C59	C	-0.667342	1.181391	0.461549
C60	C	-0.646763	1.231829	0.517469
C61	C	-0.673102	1.282289	0.573389
C62	C	-0.720018	1.282304	0.573392
C63	C	-0.708500	1.080516	0.349710
C64	C	-0.661584	1.080504	0.349711
C65	C	-0.641005	1.130941	0.405631
C66	C	-0.144222	1.181482	0.461557
C67	C	-0.094289	1.181536	0.461569
C68	C	-0.266995	1.170406	0.678425
C69	C	-0.269381	1.165740	0.770853
C70	C	-0.267647	1.398250	0.472534
C71	C	-0.270311	1.490678	0.477224
C72	C	-0.255788	1.192308	0.245481
C73	C	-0.253280	1.197135	0.153061
C74	C	-0.273726	1.157192	0.940079
C75	C	-0.248936	1.205681	0.983841
C76	C	-0.251354	1.200924	1.078004
C77	C	-0.271309	1.161947	0.845907
H78	H	-0.300690	0.693175	0.530733
H79	H	-1.084709	1.090010	0.360115
H80	H	-1.010043	1.273048	0.563027
C81	C	-0.889732	1.337867	0.634920
C82	C	-0.885781	1.432739	0.632997
C83	C	-0.914742	1.488261	0.694514
C84	C	-0.947653	1.448912	0.757954
C85	C	-0.951606	1.354035	0.759878
C86	C	-0.922645	1.298513	0.698361
H87	H	-0.861416	1.461872	0.586034
H88	H	-0.911816	1.558496	0.693089
H89	H	-0.969092	1.490013	0.803492
H90	H	-0.975970	1.324902	0.806842
H91	H	-0.925571	1.228278	0.699786
C92	C	-0.217814	1.266595	0.938927
C93	C	-0.180002	1.233569	0.877351
C94	C	-0.148882	1.294483	0.832435
C95	C	-0.155575	1.388423	0.849094
C96	C	-0.193389	1.421454	0.910673
C97	C	-0.224509	1.360540	0.955589
H98	H	-0.175046	1.164024	0.865016
H99	H	-0.120889	1.270030	0.786850
H100	H	-0.132538	1.433515	0.815844
H101	H	-0.198345	1.490999	0.923008
H102	H	-0.252502	1.384992	1.001174
C103	C	-0.213180	0.658707	0.376590
C104	C	-0.214668	0.675304	0.282632
C105	C	-0.180174	0.630356	0.221847
C106	C	-0.144192	0.568811	0.255021
C107	C	-0.142703	0.552211	0.348984
C108	C	-0.177197	0.597159	0.409768
H109	H	-0.241305	0.720866	0.258071
H110	H	-0.181276	0.642645	0.152290
H111	H	-0.118657	0.535537	0.210025
H112	H	-0.116066	0.506649	0.373545
H113	H	-0.176095	0.584870	0.479326
C114	C	-0.748985	1.337814	0.634911
C115	C	-0.745037	1.432687	0.632997
C116	C	-0.774000	1.488202	0.694518
C117	C	-0.806910	1.448844	0.757954
C118	C	-0.810859	1.353966	0.759871
C119	C	-0.781897	1.298451	0.698350
H120	H	-0.720674	1.461827	0.586035
H121	H	-0.771077	1.558437	0.693098
H122	H	-0.828350	1.489939	0.803496
H123	H	-0.835223	1.324827	0.806832
H124	H	-0.784820	1.228216	0.699769
C125	C	-1.102680	1.287483	0.579011
C126	C	-1.098739	1.382357	0.577098
C127	C	-1.127707	1.437865	0.638618
C128	C	-1.160616	1.398499	0.702050
C129	C	-1.164559	1.303620	0.703966
C130	C	-1.135591	1.248112	0.642446
H131	H	-1.074377	1.411503	0.530140
H132	H	-1.124788	1.508101	0.637199
H133	H	-1.182060	1.439590	0.747591
H134	H	-1.188921	1.274475	0.750925
H135	H	-1.138510	1.177876	0.643865
C136	C	-0.530279	1.287267	0.578995
C137	C	-0.526332	1.382140	0.577085
C138	C	-0.555299	1.437652	0.638603
C139	C	-0.588212	1.398292	0.702031
C140	C	-0.592161	1.303414	0.703943
C141	C	-0.563194	1.247901	0.642425
H142	H	-0.501966	1.411281	0.530129
H143	H	-0.552375	1.507887	0.637186
H144	H	-0.609655	1.439385	0.747570
H145	H	-0.616526	1.274272	0.750899
H146	H	-0.566117	1.177666	0.643842
C147	C	-0.431749	1.287229	0.578984
C148	C	-0.380140	1.287203	0.578972
C149	C	-0.357496	1.342693	0.640472
C150	C	-0.386460	1.398209	0.701984
C151	C	-0.438071	1.398237	0.701997
C152	C	-0.460716	1.342747	0.640498
H153	H	-0.358697	1.246105	0.533436
H154	H	-0.319289	1.342672	0.640462
H155	H	-0.369697	1.439286	0.747510
H156	H	-0.459515	1.439335	0.747534
H157	H	-0.498923	1.342768	0.640508
C158	C	-0.632615	1.024999	0.288183
C159	C	-0.599429	0.957849	0.320825
C160	C	-0.570462	0.902353	0.259293
C161	C	-0.574681	0.914008	0.165118
C162	C	-0.607868	0.981161	0.132471
C163	C	-0.636835	1.036657	0.194003
H164	H	-0.596305	0.949218	0.390544
H165	H	-0.545895	0.852642	0.283461
H166	H	-0.553238	0.872927	0.119568
H167	H	-0.610993	0.989792	0.062753
H168	H	-0.661403	1.086368	0.169835
H169	H	-0.656340	1.323354	0.618924
C170	C	-0.304858	1.096304	0.984995
C171	C	-0.333584	1.040139	0.934393
C172	C	-0.364720	0.979261	0.979321
C173	C	-0.367129	0.974546	1.074852
C174	C	-0.338402	1.030712	1.125460
C175	C	-0.307266	1.091591	1.080531
H176	H	-0.331801	1.043628	0.863671
H177	H	-0.385986	0.937683	0.941858
H178	H	-0.390178	0.929480	1.108111
H179	H	-0.340184	1.027224	1.196182
H180	H	-0.286000	1.133169	1.117995
H181	H	-0.725250	1.039444	0.304171
C182	C	-0.419663	1.075330	0.344115
C183	C	-0.442305	1.019856	0.282604
C184	C	-0.413339	0.964348	0.221082
C185	C	-0.361730	0.964313	0.221071
C186	C	-0.339085	1.019789	0.282584
C187	C	-0.368051	1.075298	0.344105
H188	H	-0.480512	1.019880	0.282611
H189	H	-0.430104	0.923281	0.175546
H190	H	-0.340288	0.923222	0.175529
H191	H	-0.300878	1.019765	0.282577
H192	H	-0.351287	1.116365	0.389641
C193	C	-0.773375	1.025055	0.288167
C194	C	-0.777598	1.036715	0.193993
C195	C	-0.748639	0.981214	0.132454
C196	C	-0.715457	0.914052	0.165089
C197	C	-0.711233	0.902389	0.259267
C198	C	-0.740192	0.957890	0.320806
H199	H	-0.802163	1.086434	0.169831
H200	H	-0.751767	0.989848	0.062737
H201	H	-0.694020	0.872967	0.119534
H202	H	-0.686668	0.852669	0.283429
H203	H	-0.737065	0.949256	0.390523
C204	C	-0.871893	1.025098	0.288180
C205	C	-0.863201	1.036738	0.194002
C206	C	-0.885835	0.981255	0.132482
C207	C	-0.917163	0.914131	0.165140
C208	C	-0.925857	0.902487	0.259323
C209	C	-0.903222	0.957971	0.320843
H210	H	-0.840009	1.086430	0.169823
H211	H	-0.879399	0.989874	0.062762
H212	H	-0.933918	0.873059	0.119599
H213	H	-0.949048	0.852796	0.283502
H214	H	-0.909658	0.949351	0.390563
H215	H	-0.797100	1.323412	0.618937
H216	H	-0.512299	1.089790	0.360084
H217	H	-0.999585	1.089969	0.360109
