data_functionalizedCrystal
_audit_creation_method	'MofGen! by Chris Wilmer'
_symmetry_space_group_name_H-M	'P1'
_symmetry_Int_Tables_number	1
_symmetry_cell_setting	triclinic
loop_
_symmetry_equiv_pos_as_xyz
  x,y,z
_cell_length_a	10.654541
_cell_length_b	14.472311
_cell_length_c	10.654545
_cell_angle_alpha	89.992686
_cell_angle_beta	95.515322
_cell_angle_gamma	90.002736
loop_
_atom_site_label
_atom_site_type_symbol
_atom_site_fract_x
_atom_site_fract_y
_atom_site_fract_z
O1	O	1.667843	0.076807	-0.176394
O2	O	1.302364	0.076815	-0.193203
O3	O	1.493506	0.076810	-0.002059
O4	O	1.476701	0.076812	-0.367537
O5	O	1.493492	-0.076872	-0.002034
O6	O	1.302351	-0.076867	-0.193178
O7	O	1.667830	-0.076875	-0.176369
Cu8	Cu	1.485089	-0.090903	-0.184772
Cu9	Cu	1.485105	0.090844	-0.184800
O10	O	1.476688	-0.076870	-0.367513
C11	C	1.255559	-0.000025	-0.191957
C12	C	1.116116	-0.000022	-0.188266
N13	N	1.485087	-0.218734	-0.184751
C14	C	1.088146	-0.000009	-0.416831
C15	C	1.008652	0.000001	-0.529374
C16	C	0.877634	0.000002	-0.525898
C17	C	0.826108	-0.000010	-0.409867
C18	C	0.905602	-0.000020	-0.297324
C19	C	1.036622	-0.000019	-0.300812
C20	C	0.933572	-0.000040	-0.068763
C21	C	1.064590	-0.000034	-0.072235
C22	C	0.882046	-0.000052	0.047269
C23	C	0.961540	-0.000055	0.159814
C24	C	1.092565	-0.000055	0.156334
C25	C	1.144084	-0.000044	0.040308
C26	C	1.485106	-0.592825	-0.184791
C27	C	1.587720	-0.553633	-0.082861
C28	C	1.587447	-0.446545	-0.082480
C29	C	1.485098	-0.407234	-0.184771
C30	C	1.353816	-0.446123	-0.155010
C31	C	1.354422	-0.553244	-0.154289
C32	C	1.512596	-0.553330	-0.316775
C33	C	1.515563	-0.446202	-0.315918
C34	C	1.485085	-0.302346	-0.184762
C35	C	1.485110	-0.697713	-0.184797
C36	C	1.714634	-0.000033	-0.177615
C37	C	1.854078	-0.000030	-0.181306
C38	C	1.492265	-0.000029	0.044751
C39	C	1.488572	-0.000023	0.184195
N40	N	1.485117	0.218674	-0.184811
C41	C	1.477929	-0.000029	-0.414323
C42	C	1.481621	-0.000028	-0.553766
C43	C	1.488602	0.167526	0.184176
C44	C	1.486887	0.251300	0.249677
C45	C	1.483418	0.251301	0.380696
C46	C	1.481660	0.167519	0.446217
C47	C	1.483375	0.083745	0.380716
C48	C	1.486848	0.083753	0.249694
C49	C	1.483336	-0.083802	0.380733
C50	C	1.486815	-0.083805	0.249715
C51	C	1.481579	-0.167584	0.446253
C52	C	1.483303	-0.251360	0.380753
C53	C	1.486774	-0.251358	0.249727
C54	C	1.488530	-0.167579	0.184214
H55	H	1.194826	0.000010	-0.419672
Br56	Br	1.480897	-0.365052	0.469675
Br57	Br	1.668853	-0.598339	-0.363972
Br58	Br	1.078584	0.000014	-0.686837
H59	H	0.719425	-0.000021	-0.407048
H60	H	1.330368	-0.578239	-0.057999
H61	H	0.812909	0.000003	-0.617541
H62	H	0.775363	-0.000056	0.050090
Br63	Br	1.481074	0.364994	0.469594
Br64	Br	1.399212	-0.401600	-0.448418
H65	H	1.685595	-0.579390	-0.100479
H66	H	0.919576	-0.000064	0.254278
Br67	Br	1.489306	0.364998	0.160757
H68	H	1.570288	-0.580563	0.014504
Br69	Br	1.489088	-0.365058	0.160842
Br70	Br	1.557957	-0.403840	0.080727
H71	H	1.612144	-0.420785	-0.338474
Br72	Br	1.200440	-0.000079	0.309081
H73	H	1.275711	-0.579171	-0.225647
Br74	Br	1.321893	-0.000035	0.035576
Br75	Br	1.750031	-0.402715	-0.112322
Br76	Br	1.387899	-0.595577	-0.443225
H77	H	1.491362	-0.167569	0.077533
Br78	Br	1.223393	-0.403688	-0.275372
H79	H	1.491441	0.167533	0.077496
Br80	Br	1.312783	-0.401426	0.003662
Br81	Br	1.476918	0.167522	0.624025
H82	H	1.478747	-0.167577	0.552935
