data_functionalizedCrystal
_audit_creation_method	'MofGen! by Chris Wilmer'
_symmetry_space_group_name_H-M	'P1'
_symmetry_Int_Tables_number	1
_symmetry_cell_setting	triclinic
loop_
_symmetry_equiv_pos_as_xyz
  x,y,z
_cell_length_a	13.262522
_cell_length_b	10.654541
_cell_length_c	9.730217
_cell_angle_alpha	90.003041
_cell_angle_beta	105.917163
_cell_angle_gamma	84.456944
loop_
_atom_site_label
_atom_site_type_symbol
_atom_site_fract_x
_atom_site_fract_y
_atom_site_fract_z
O1	O	-1.393884	-0.169131	-0.635286
O2	O	-1.088437	-0.187530	-0.521121
O3	O	-1.248185	0.004446	-0.580821
O4	O	-1.234136	-0.361107	-0.575587
O5	O	-1.248180	0.004447	-0.352239
O6	O	-1.088432	-0.187528	-0.292539
O7	O	-1.393879	-0.169130	-0.406704
Zn8	Zn	-1.241155	-0.178328	-0.313330
Zn9	Zn	-1.241161	-0.178331	-0.614496
O10	O	-1.234131	-0.361105	-0.347005
C11	C	-1.049323	-0.186499	-0.392212
C12	C	-0.932784	-0.183414	-0.348653
C13	C	-1.247151	0.051239	-0.466145
C14	C	-1.244067	0.190667	-0.464995
C15	C	-1.432993	-0.170160	-0.535617
C16	C	-1.549531	-0.173245	-0.579184
C17	C	-0.878039	-0.181966	-0.203582
C18	C	-0.768546	-0.179056	-0.162646
C19	C	-0.713787	-0.177604	-0.266777
C20	C	-0.768532	-0.179061	-0.411851
C21	C	-0.878036	-0.181961	-0.452791
C22	C	-0.713784	-0.177598	-0.515987
C23	C	-0.768529	-0.179056	-0.661061
C24	C	-0.878023	-0.181957	-0.701994
C25	C	-0.932782	-0.183409	-0.597863
C26	C	-0.604280	-0.174698	-0.475046
C27	C	-0.604277	-0.174693	-0.724256
C28	C	-0.713770	-0.177603	-0.765191
C29	C	-1.235165	-0.407898	-0.461683
C30	C	-1.238249	-0.547326	-0.462843
N31	N	-1.241158	-0.178326	-0.107794
C32	C	-1.435088	0.219633	-0.536374
C33	C	-1.529145	0.299618	-0.571518
C34	C	-1.526241	0.430621	-0.570437
C35	C	-1.429269	0.481640	-0.534212
C36	C	-1.335211	0.401656	-0.499068
C37	C	-1.338126	0.270652	-0.500149
C38	C	-1.144192	0.372690	-0.427699
C39	C	-1.147094	0.241686	-0.428770
C40	C	-1.047220	0.423709	-0.391474
C41	C	-0.953160	0.343724	-0.356320
C42	C	-0.956069	0.212714	-0.357401
C43	C	-1.053037	0.161702	-0.393626
N44	N	-1.241166	-0.178323	-0.820034
C45	C	-1.382673	-0.008381	-0.160689
C46	C	-1.453437	0.076587	-0.115200
C47	C	-1.453448	0.076588	0.028676
C48	C	-1.382684	-0.008386	0.127069
C49	C	-1.311920	-0.093355	0.081579
C50	C	-1.311919	-0.093349	-0.062303
C51	C	-1.170402	-0.263292	0.134476
C52	C	-1.170394	-0.263301	-0.009401
C53	C	-1.099638	-0.348266	0.232869
C54	C	-1.028877	-0.433243	0.187378
C55	C	-1.028870	-0.433241	0.043492
C56	C	-1.099630	-0.348269	-0.054891
H57	H	-0.559716	-0.173522	-0.356926
F58	F	-1.438187	0.080209	-0.537501
F59	F	-1.528743	0.167024	-0.219920
H60	H	-1.382680	-0.008384	-0.277847
H61	H	-0.559692	-0.173513	-0.809048
H62	H	-1.382689	-0.008370	0.244222
F63	F	-1.044131	0.563135	-0.390395
F64	F	-1.632346	0.245310	-0.610077
F65	F	-1.528758	0.167027	0.077091
F66	F	-0.936324	-0.183505	-0.092776
F67	F	-1.626346	0.515749	-0.607851
F68	F	-0.597253	-0.174514	-0.223205
F69	F	-1.099645	-0.348260	0.385997
F70	F	-0.953546	-0.523673	-0.004906
F71	F	-0.710289	-0.177520	-0.008254
H72	H	-1.426912	0.588311	-0.533352
H73	H	-1.021940	-0.185783	-0.631186
F74	F	-1.099633	-0.348265	-0.208022
F75	F	-0.953568	-0.523662	0.292099
H76	H	-0.922595	-0.183126	-0.820123
H77	H	-0.758359	-0.178789	-0.883313
F78	F	-0.855957	0.127597	-0.320005
H79	H	-1.055415	0.055034	-0.394501
F80	F	-0.849967	0.398031	-0.317785
