data_functionalizedCrystal
_audit_creation_method	'MofGen! by Chris Wilmer'
_symmetry_space_group_name_H-M	'P1'
_symmetry_Int_Tables_number	1
_symmetry_cell_setting	triclinic
loop_
_symmetry_equiv_pos_as_xyz
  x,y,z
_cell_length_a	25.639239
_cell_length_b	17.640112
_cell_length_c	17.639306
_cell_angle_alpha	92.195878
_cell_angle_beta	101.185844
_cell_angle_gamma	78.736162
loop_
_atom_site_label
_atom_site_type_symbol
_atom_site_fract_x
_atom_site_fract_y
_atom_site_fract_z
Zn1	Zn	-0.067208	-1.247712	-0.195068
Zn2	Zn	0.432792	-0.747712	0.304932
Zn3	Zn	-0.141116	-1.221936	-0.068094
Zn4	Zn	0.358884	-0.721936	0.431906
Zn5	Zn	-0.074108	-1.095061	-0.093721
Zn6	Zn	0.425892	-0.595061	0.406279
Zn7	Zn	-0.175050	-1.120633	-0.220667
Zn8	Zn	0.324950	-0.620633	0.279333
O9	O	-0.114370	-1.171336	-0.144387
O10	O	0.385630	-0.671336	0.355613
O11	O	-0.059923	-1.350574	-0.156787
O12	O	0.440077	-0.850574	0.343213
O13	O	-0.120914	-1.183616	0.034773
O14	O	0.379086	-0.683616	0.534773
O15	O	-0.000018	-1.115396	-0.107176
O16	O	0.499982	-0.615396	0.392824
O17	O	-0.114223	-1.331636	-0.063500
O18	O	0.385777	-0.831636	0.436500
O19	O	0.005052	-1.227548	-0.181635
O20	O	0.505052	-0.727548	0.318365
O21	O	-0.071683	-1.090402	0.015945
O22	O	0.428317	-0.590402	0.515945
O23	O	-0.104587	-0.992173	-0.131998
O24	O	0.395413	-0.492173	0.368002
O25	O	-0.172058	-1.158980	-0.323537
O26	O	0.327942	-0.658980	0.176463
O27	O	-0.178748	-1.010960	-0.225265
O28	O	0.321252	-0.510960	0.274735
O29	O	-0.092827	-1.252344	-0.304730
O30	O	0.407173	-0.752344	0.195270
O31	O	-0.218793	-1.208412	-0.088322
O32	O	0.281207	-0.708412	0.411678
O33	O	-0.243723	-1.133986	-0.200416
O34	O	0.256277	-0.633986	0.299584
C35	C	-0.146099	-0.974009	-0.184191
C36	C	0.353901	-0.474009	0.315809
C37	C	-0.159687	-0.889596	-0.201236
C38	C	0.340313	-0.389596	0.298764
C39	C	-0.250230	-1.171201	-0.144378
C40	C	0.249770	-0.671201	0.355622
C41	C	-0.308343	-1.171218	-0.144386
C42	C	0.191657	-0.671218	0.355614
C43	C	-0.135458	-1.211390	-0.342458
C44	C	0.364542	-0.711390	0.157542
C45	C	-0.144444	-1.228459	-0.426863
C46	C	0.355556	-0.728459	0.073137
C47	C	-0.655684	-1.210233	-0.086077
C48	C	-0.155684	-0.710233	0.413923
C49	C	-0.710285	-1.210265	-0.086081
C50	C	-0.210285	-0.710265	0.413919
O51	O	-0.727468	-1.243296	-0.036494
O52	O	-0.227468	-0.743296	0.463506
N53	N	-0.750593	-1.171479	-0.144411
N54	N	-0.250593	-0.671479	0.355589
C55	C	-0.736299	-1.132666	-0.202744
C56	C	-0.236299	-0.632666	0.297256
O57	O	-0.775598	-1.099680	-0.252359
O58	O	-0.275598	-0.599680	0.247641
C59	C	-0.681699	-1.132640	-0.202742
C60	C	-0.181699	-0.632640	0.297258
C61	C	-0.641393	-1.171421	-0.144405
C62	C	-0.141393	-0.671421	0.355595
C63	C	-0.615379	-1.249012	-0.027745
C64	C	-0.115379	-0.749012	0.472255
C65	C	-0.560783	-1.248979	-0.027740
C66	C	-0.060783	-0.748979	0.472260
C67	C	-0.546491	-1.210167	-0.086067
C68	C	-0.046491	-0.710167	0.413933
C69	C	-0.586796	-1.171388	-0.144400
C70	C	-0.086796	-0.671388	0.355600
C71	C	-0.667405	-1.093832	-0.261078
C72	C	-0.167405	-0.593832	0.238922
C73	C	-0.612800	-1.093810	-0.261072
C74	C	-0.112800	-0.593810	0.238928
C75	C	-0.572494	-1.132591	-0.202734
C76	C	-0.072494	-0.632591	0.297266
C77	C	-0.517907	-1.132544	-0.202723
C78	C	-0.017907	-0.632544	0.297277
N79	N	-0.477599	-1.171329	-0.144393
N80	N	0.022401	-0.671329	0.355607
C81	C	-0.491891	-1.210141	-0.086066
C82	C	0.008109	-0.710141	0.413934
C83	C	-0.850961	-1.132726	-0.202744
C84	C	-0.350961	-0.632726	0.297256
C85	C	-0.905561	-1.132747	-0.202744
C86	C	-0.405561	-0.632747	0.297256
C87	C	-0.879543	-1.210347	-0.086081
C88	C	-0.379543	-0.710347	0.413919
C89	C	-0.824943	-1.210320	-0.086080
C90	C	-0.324943	-0.710320	0.413920
C91	C	-0.810653	-1.171511	-0.144415
C92	C	-0.310653	-0.671511	0.355585
C93	C	-0.377235	-1.210068	-0.086060
C94	C	0.122765	-0.710068	0.413940
C95	C	-0.322634	-1.210029	-0.086058
C96	C	0.177366	-0.710029	0.413942
C97	C	-0.348656	-1.132434	-0.202722
C98	C	0.151344	-0.632434	0.297278
C99	C	-0.403252	-1.132469	-0.202722
C100	C	0.096748	-0.632469	0.297278
C101	C	-0.417539	-1.171292	-0.144387
C102	C	0.082461	-0.671292	0.355613
O103	O	-0.500684	-1.099531	-0.252287
O104	O	-0.000684	-0.599531	0.247713
O105	O	-0.452587	-1.243130	-0.036465
O106	O	0.047413	-0.743130	0.463535
C107	C	0.022021	-1.171495	-0.144409
C108	C	0.522021	-0.671495	0.355591
C109	C	0.080143	-1.171563	-0.144418
C110	C	0.580143	-0.671563	0.355582
C111	C	-0.082518	-1.369433	-0.104429
C112	C	0.417482	-0.869433	0.395571
C113	C	-0.068945	-1.453850	-0.087401
C114	C	0.431055	-0.953850	0.412599
C115	C	-0.011134	-0.563031	-0.014897
C116	C	0.488866	-0.063031	0.485103
C117	C	-0.023914	-0.483714	-0.030925
C118	C	0.476086	0.016286	0.469075
C119	C	-0.101212	-0.503298	-0.127876
C120	C	0.398788	-0.003298	0.372124
C121	C	-0.088437	-0.582619	-0.111859
C122	C	0.411563	-0.082619	0.388141
C123	C	-0.043398	-0.612479	-0.055368
C124	C	0.456602	-0.112479	0.444632
C125	C	-0.120701	-0.632067	-0.152330
C126	C	0.379299	-0.132067	0.347670
C127	C	-0.107929	-0.711381	-0.136312
C128	C	0.392071	-0.211381	0.363688
C129	C	-0.062892	-0.741246	-0.079822
C130	C	0.437108	-0.241246	0.420178
C131	C	-0.030625	-0.691793	-0.039350
C132	C	0.469375	-0.191793	0.460650
C133	C	-0.165743	-0.602205	-0.208817
C134	C	0.334257	-0.102205	0.291183
C135	C	-0.198007	-0.651653	-0.249288
C136	C	0.301993	-0.151653	0.250712
C137	C	-0.185232	-0.730969	-0.233274
C138	C	0.314768	-0.230969	0.266726
C139	C	-0.140196	-0.760834	-0.176784
C140	C	0.359804	-0.260834	0.323216
C141	C	-0.217499	-0.780422	-0.273746
C142	C	0.282501	-0.280422	0.226254
C143	C	-0.204727	-0.859736	-0.257727
C144	C	0.295273	-0.359736	0.242273
C145	C	-0.127423	-0.840148	-0.160765
C146	C	0.372577	-0.340148	0.339235
C147	C	-0.045860	-1.041961	-0.753495
C148	C	0.454140	-0.541961	-0.253495
C149	C	-0.054312	-1.058017	-0.832803
C150	C	0.445688	-0.558017	-0.332803
C151	C	-0.105571	-1.155071	-0.813180
C152	C	0.394429	-0.655071	-0.313180
C153	C	-0.097120	-1.139026	-0.733868
C154	C	0.402880	-0.639026	-0.233868
C155	C	-0.067265	-1.082470	-0.704032
C156	C	0.432735	-0.582470	-0.204032
C157	C	-0.118526	-1.179535	-0.684405
C158	C	0.381474	-0.679535	-0.184405
C159	C	-0.110078	-1.163488	-0.605100
C160	C	0.389922	-0.663488	-0.105100
C161	C	-0.080226	-1.106932	-0.575258
C162	C	0.419774	-0.606932	-0.075258
C163	C	-0.058818	-1.066423	-0.624727
C164	C	0.441182	-0.566423	-0.124727
C165	C	-0.148384	-1.236087	-0.714243
C166	C	0.351616	-0.736087	-0.214243
C167	C	-0.169789	-1.276595	-0.664780
C168	C	0.330211	-0.776595	-0.164780
C169	C	-0.161339	-1.260552	-0.585473
C170	C	0.338661	-0.760552	-0.085473
C171	C	-0.131486	-1.203997	-0.555631
C172	C	0.368514	-0.703997	-0.055631
C173	C	-0.182747	-1.301062	-0.536004
C174	C	0.317253	-0.801062	-0.036004
C175	C	-0.174300	-1.285015	-0.456699
C176	C	0.325700	-0.785015	0.043301
C177	C	-0.123039	-1.187950	-0.476326
C178	C	0.376961	-0.687950	0.023674
C179	C	-0.093320	-1.131481	0.052921
C180	C	0.406680	-0.631481	0.552921
C181	C	-0.084163	-1.114559	0.137356
C182	C	0.415837	-0.614559	0.637356
H183	H	-0.289817	-1.241609	-0.038550
H184	H	0.210183	-0.741609	0.461450
H185	H	0.025548	-0.587347	0.031092
H186	H	0.525548	-0.087347	0.531092
C187	C	-0.780611	-1.252985	-0.021906
C188	C	-0.280611	-0.752985	0.478094
N189	N	-0.747222	-1.285124	0.026431
N190	N	-0.247222	-0.785124	0.526431
H191	H	-0.098721	-1.141904	-0.452031
H192	H	0.401279	-0.641904	0.047969
H193	H	-0.191721	-1.318011	-0.416423
H194	H	0.308279	-0.818011	0.083577
H195	H	-0.176140	-0.537622	-0.221857
H196	H	0.323860	-0.037622	0.278143
C197	C	0.011584	-0.429323	0.013601
C198	C	0.511584	0.070677	0.513601
N199	N	0.038319	-0.388356	0.047137
N200	N	0.538319	0.111644	0.547137
C201	C	-0.070933	-1.089281	-0.488019
C202	C	0.429067	-0.589281	0.011981
N203	N	-0.063933	-1.075987	-0.422311
N204	N	0.436067	-0.575987	0.077689
H205	H	-0.137885	-0.478975	-0.173869
H206	H	0.362115	0.021025	0.326131
H207	H	-0.021542	-0.995915	-0.729199
H208	H	0.478458	-0.495915	-0.229199
H209	H	-0.207060	-1.347104	-0.560310
H210	H	0.292940	-0.847104	-0.060310
H211	H	-0.155259	-1.249152	-0.778819
H212	H	0.344741	-0.749152	-0.278819
H213	H	-0.436071	-1.100893	-0.250227
H214	H	0.063929	-0.600893	0.249773
H215	H	-0.234679	-0.627329	-0.295281
H216	H	0.265321	-0.127329	0.204719
C217	C	-0.030762	-1.013450	-0.887211
C218	C	0.469238	-0.513450	-0.387211
N219	N	-0.013024	-0.979882	-0.928191
N220	N	0.486976	-0.479882	-0.428191
H221	H	-0.254173	-0.756097	-0.319735
H222	H	0.245827	-0.256097	0.180265
C223	C	-0.240217	-0.914132	-0.302251
C224	C	0.259783	-0.414132	0.197749
N225	N	-0.266949	-0.955104	-0.335787
N226	N	0.233051	-0.455104	0.164213
C227	C	-0.138554	-1.217111	-0.846043
C228	C	0.361446	-0.717111	-0.346043
N229	N	-0.163449	-1.263781	-0.870807
N230	N	0.336551	-0.763781	-0.370807
H231	H	-0.337012	-1.100831	-0.250210
H232	H	0.162988	-0.600831	0.249790
H233	H	-0.090741	-0.864463	-0.114776
H234	H	0.409259	-0.364463	0.385224
H235	H	-0.034500	-1.020377	-0.600432
H236	H	0.465500	-0.520377	-0.100432
C237	C	-0.202773	-1.338636	-0.697644
C238	C	0.297227	-0.838636	-0.197644
N239	N	-0.227667	-1.385306	-0.722407
N240	N	0.272333	-0.885306	-0.222407
H241	H	-0.601169	-1.062208	-0.308577
H242	H	-0.101169	-0.562208	0.191423
H243	H	-0.388859	-1.241684	-0.038559
H244	H	0.111141	-0.741684	0.461441
H245	H	-0.627008	-1.280621	0.019754
H246	H	-0.127008	-0.780621	0.519754
C247	C	-0.895274	-1.253048	-0.021924
C248	C	-0.395274	-0.753048	0.478076
N249	N	-0.907125	-1.285210	0.026395
N250	N	-0.407125	-0.785210	0.526395
C251	C	-0.516452	-1.291635	0.036442
C252	C	-0.016452	-0.791635	0.536442
N253	N	-0.483065	-1.323763	0.084788
N254	N	0.016935	-0.823763	0.584788
H255	H	-0.938375	-1.101159	-0.250242
H256	H	-0.438375	-0.601159	0.249758
H257	H	-0.700214	-1.062248	-0.308580
H258	H	-0.200214	-0.562248	0.191420
C259	C	-0.835249	-1.090034	-0.266924
C260	C	-0.335249	-0.590034	0.233076
N261	N	-0.823417	-1.057883	-0.315268
N262	N	-0.323417	-0.557883	0.184732
H263	H	0.006057	-0.716108	0.006639
H264	H	0.506057	-0.216108	0.506639
C265	C	-0.048841	-0.828495	-0.062203
C266	C	0.451159	-0.328495	0.437797
N267	N	-0.038257	-0.894211	-0.048934
N268	N	0.461743	-0.394211	0.451066
