data_functionalizedCrystal
_audit_creation_method	'MofGen! by Chris Wilmer'
_symmetry_space_group_name_H-M	'P1'
_symmetry_Int_Tables_number	1
_symmetry_cell_setting	triclinic
loop_
_symmetry_equiv_pos_as_xyz
  x,y,z
_cell_length_a	10.967819
_cell_length_b	14.853567
_cell_length_c	10.065875
_cell_angle_alpha	98.805381
_cell_angle_beta	69.228723
_cell_angle_gamma	84.185678
loop_
_atom_site_label
_atom_site_type_symbol
_atom_site_fract_x
_atom_site_fract_y
_atom_site_fract_z
O1	O	1.739925	0.065959	-0.522706
O2	O	1.362376	0.088337	-0.433909
O3	O	1.561236	-0.054305	-0.480684
O4	O	1.541065	0.208602	-0.475931
O5	O	1.523316	-0.026999	-0.244776
O6	O	1.324456	0.115643	-0.198001
O7	O	1.702005	0.093265	-0.286798
Zn8	Zn	1.507210	0.108790	-0.204944
Zn9	Zn	1.557171	0.072813	-0.515763
O10	O	1.503145	0.235908	-0.240024
C11	C	1.295099	0.102424	-0.304592
C12	C	1.151128	0.103707	-0.270731
C13	C	0.957794	0.091465	-0.342874
C14	C	1.106595	0.090134	-0.377862
C15	C	1.541363	-0.074221	-0.362519
C16	C	1.538626	-0.174246	-0.361887
C17	C	1.408918	-0.583906	-0.331355
C18	C	1.645168	-0.610416	-0.386919
C19	C	1.647744	-0.516440	-0.387533
C20	C	1.530905	-0.456192	-0.360055
C21	C	1.411490	-0.489920	-0.331964
C22	C	1.767155	-0.482703	-0.415610
C23	C	1.769736	-0.388722	-0.416223
C24	C	1.652897	-0.328473	-0.388756
C25	C	1.533478	-0.362207	-0.360664
C26	C	1.416639	-0.301959	-0.333187
C27	C	1.297220	-0.335692	-0.305105
C28	C	1.294652	-0.429672	-0.304496
C29	C	1.655465	-0.234493	-0.389365
C30	C	1.419211	-0.207974	-0.333796
C31	C	1.769283	0.079178	-0.416119
C32	C	1.913255	0.077894	-0.449988
C33	C	1.523019	0.255823	-0.358191
C34	C	1.525757	0.355847	-0.358833
N35	N	1.473123	0.133342	0.007179
N36	N	1.591269	0.048253	-0.727889
C37	C	1.545303	0.081350	0.057980
C38	C	1.519078	0.100253	0.221316
H39	H	1.079102	0.116317	-0.153115
H40	H	1.391907	0.191846	0.084608
H41	H	0.985284	0.065296	-0.567595
C42	C	1.785249	-0.198054	-0.419959
C43	C	1.887024	-0.270935	-0.443921
C44	C	2.006609	-0.237407	-0.472135
H45	H	1.778129	-0.152435	-0.339156
H46	H	1.804463	-0.171504	-0.503673
H47	H	1.867814	-0.297470	-0.360216
H48	H	1.894186	-0.316560	-0.524728
H49	H	2.025823	-0.210857	-0.555848
H50	H	1.999476	-0.191787	-0.391327
H51	H	2.075680	-0.286852	-0.488409
H52	H	1.740290	-0.659473	-0.409279
H53	H	1.866974	-0.361265	-0.439091
C54	C	1.170520	-0.270136	-0.275376
C55	C	1.198349	-0.180619	-0.281948
C56	C	1.081674	-0.120204	-0.254589
H57	H	1.108245	-0.270449	-0.181597
H58	H	1.134783	-0.289558	-0.346162
H59	H	1.234066	-0.161201	-0.211165
H60	H	1.260605	-0.180276	-0.375716
H61	H	1.045937	-0.139626	-0.325375
H62	H	1.019407	-0.120525	-0.160811
H63	H	1.100542	-0.059461	-0.259057
H64	H	1.197427	-0.457146	-0.281632
C65	C	0.861935	0.108141	-0.185992
C66	C	0.896728	0.039025	-0.119465
C67	C	0.808467	0.054363	0.025062
H68	H	0.774645	0.106779	-0.183117
H69	H	0.865773	0.166792	-0.135945
H70	H	0.892877	-0.019611	-0.169498
H71	H	0.984004	0.040375	-0.122300
H72	H	0.812304	0.113014	0.075109
H73	H	0.721181	0.053002	0.027922
H74	H	0.832068	0.007476	0.070222
H75	H	1.311691	-0.611376	-0.308497
C76	C	1.410584	0.178163	0.324518
C77	C	1.288772	0.162299	0.318558
C78	C	1.188798	0.234041	0.413622
H79	H	1.428706	0.235243	0.296967
H80	H	1.407261	0.180497	0.420611
H81	H	1.292097	0.159975	0.222485
H82	H	1.270608	0.105232	0.346122
H83	H	1.185474	0.236375	0.509716
H84	H	1.206933	0.291116	0.386063
H85	H	1.106135	0.223283	0.409601
H86	H	1.862276	-0.531761	-0.437967
C87	C	1.699372	-0.029975	0.169171
C88	C	1.671869	-0.113814	0.210477
C89	C	1.771399	-0.185932	0.115751
H90	H	1.782188	-0.019524	0.173019
H91	H	1.702711	-0.032483	0.073041
H92	H	1.668545	-0.111305	0.306583
H93	H	1.589072	-0.124294	0.206622
H94	H	1.774738	-0.188440	0.019620
H95	H	1.854208	-0.175472	0.119605
H96	H	1.752746	-0.242826	0.143755
H97	H	1.324066	-0.158926	-0.311426
H98	H	1.178620	0.077535	-0.495476
H99	H	1.626509	0.022840	-0.019445
