data_functionalizedCrystal
_audit_creation_method	'MofGen! by Chris Wilmer'
_symmetry_space_group_name_H-M	'P1'
_symmetry_Int_Tables_number	1
_symmetry_cell_setting	triclinic
loop_
_symmetry_equiv_pos_as_xyz
  x,y,z
_cell_length_a	19.121102
_cell_length_b	19.121111
_cell_length_c	12.759393
_cell_angle_alpha	87.593924
_cell_angle_beta	87.538297
_cell_angle_gamma	89.871671
loop_
_atom_site_label
_atom_site_type_symbol
_atom_site_fract_x
_atom_site_fract_y
_atom_site_fract_z
Zn1	Zn	1.059870	0.324861	-0.682314
Zn2	Zn	1.054767	0.442110	-0.513776
Zn3	Zn	0.942625	0.319886	-0.498854
Zn4	Zn	0.937593	0.437051	-0.681617
O5	O	0.998714	0.380977	-0.594140
O6	O	1.157299	0.344613	-0.666494
O7	O	1.039861	0.425931	-0.364776
O8	O	0.962420	0.222443	-0.517237
O9	O	1.153549	0.430755	-0.542670
O10	O	1.048560	0.226098	-0.652025
O11	O	0.957471	0.336134	-0.353813
O12	O	0.843852	0.331229	-0.516561
O13	O	0.953843	0.422134	-0.828730
O14	O	0.840155	0.417310	-0.650836
O15	O	1.043680	0.339709	-0.829243
O16	O	1.034981	0.539542	-0.541993
O17	O	0.948894	0.535825	-0.665306
C18	C	0.816566	0.373182	-0.582004
C19	C	0.738642	0.369863	-0.576839
C20	C	0.990857	0.563121	-0.605217
C21	C	0.987560	0.641046	-0.609995
C22	C	0.998769	0.380912	-0.868173
C23	C	0.998793	0.380884	-0.984950
C24	C	0.700123	0.413190	-0.644220
C25	C	0.626905	0.410063	-0.639371
C26	C	0.592208	0.363613	-0.567134
C27	C	0.630732	0.320281	-0.499750
C28	C	0.703948	0.323405	-0.504605
C29	C	0.371237	0.351932	-0.548987
C30	C	0.298015	0.348812	-0.544135
C31	C	0.294194	0.438593	-0.683758
C32	C	0.367412	0.441716	-0.688602
C33	C	0.405929	0.398382	-0.621222
C34	C	0.517367	0.360417	-0.562173
C35	C	0.480769	0.401575	-0.626188
C36	C	1.181573	0.388804	-0.606324
C37	C	1.259496	0.392139	-0.611516
C38	C	1.030866	0.679568	-0.548096
C39	C	1.027770	0.752787	-0.552596
C40	C	0.981362	0.787482	-0.618991
C41	C	0.938053	0.748954	-0.680897
C42	C	0.941154	0.675737	-0.676402
C43	C	0.969759	1.008455	-0.635779
C44	C	0.966660	1.081677	-0.640267
C45	C	1.056377	1.085505	-0.511967
C46	C	1.059471	1.012286	-0.507473
C47	C	1.016165	0.973765	-0.569383
C48	C	0.978194	0.862323	-0.623590
C49	C	1.019337	0.898926	-0.564789
C50	C	1.006615	1.198122	-0.583057
C51	C	1.009967	1.120200	-0.578368
C52	C	1.045574	0.337958	-1.040080
C53	C	1.045588	0.337929	-1.149803
C54	C	0.952035	0.423757	-1.149256
C55	C	0.952019	0.423782	-1.039535
C56	C	1.074235	0.256288	-1.296409
C57	C	1.121027	0.213368	-1.351544
C58	C	1.189894	0.205542	-1.319847
C59	C	1.211982	0.240647	-1.233018
C60	C	1.165193	0.283572	-1.177889
C61	C	1.096317	0.291384	-1.209583
C62	C	0.923379	0.505425	-0.892927
C63	C	0.876593	0.548354	-0.837797
C64	C	0.807725	0.556187	-0.869492
C65	C	0.785639	0.521095	-0.956325
C66	C	0.832425	0.478166	-1.011456
C67	C	0.901292	0.470332	-0.979753
C68	C	0.998701	0.380993	-0.321173
C69	C	0.998822	0.380829	-0.204394
H70	H	0.595547	0.445345	-0.694239
C71	C	1.081917	0.641407	-0.475061
C72	C	1.053699	0.589846	-0.387428
C73	C	1.104753	0.551687	-0.314395
C74	C	1.184025	0.565089	-0.328994
C75	C	1.212247	0.616653	-0.416631
C76	C	1.161193	0.654812	-0.489665
H77	H	0.995014	0.579922	-0.376617
H78	H	1.083861	0.513516	-0.249520
H79	H	1.221818	0.536841	-0.274931
H80	H	1.270932	0.626576	-0.427443
H81	H	1.182085	0.692983	-0.554540
H82	H	0.728369	0.451017	-0.703040
H83	H	0.979456	0.499045	-0.867107
C84	C	0.251824	0.486253	-0.757880
C85	C	0.289990	0.537346	-0.837340
C86	C	0.247621	0.585006	-0.911469
C87	C	0.167085	0.581574	-0.906138
C88	C	0.128915	0.530479	-0.826675
C89	C	0.171284	0.482818	-0.752546
H90	H	0.349611	0.539889	-0.841288
H91	H	0.275877	0.622830	-0.970292
H92	H	0.135721	0.616855	-0.961013
H93	H	0.069293	0.527936	-0.822726
H94	H	0.143027	0.444995	-0.693723
C95	C	0.405574	0.492810	-0.768072
C96	C	0.392065	0.572070	-0.763486
C97	C	0.430225	0.623167	-0.842956
C98	C	0.481894	0.595003	-0.927011
C99	C	0.495404	0.515739	-0.931601
C100	C	0.457244	0.464643	-0.852131
H101	H	0.353815	0.592922	-0.701260
H102	H	0.420224	0.681843	-0.839558
H103	H	0.510142	0.632828	-0.985839
H104	H	0.533654	0.494888	-0.993827
H105	H	0.467246	0.405966	-0.855529
C106	C	0.900602	0.470960	-1.209305
C107	C	0.849149	0.518185	-1.148660
C108	C	0.797721	0.565397	-1.208707
C109	C	0.797746	0.565384	-1.329397
C110	C	0.849201	0.518156	-1.390049
C111	C	0.900629	0.470945	-1.330002
H112	H	0.849128	0.518197	-1.059312
H113	H	0.759630	0.600358	-1.163808
H114	H	0.759676	0.600332	-1.373847
H115	H	0.849221	0.518145	-1.479397
H116	H	0.938719	0.435984	-1.374901
H117	H	0.602475	0.282458	-0.440937
H118	H	0.735309	0.288121	-0.449741
C119	C	0.413591	0.304278	-0.474840
C120	C	0.406955	0.224158	-0.478063
C121	C	0.449309	0.176507	-0.403900
C122	C	0.498299	0.208976	-0.326516
C123	C	0.504937	0.289101	-0.323290
C124	C	0.462583	0.336752	-0.397452
H125	H	0.370688	0.200119	-0.535351
H126	H	0.444395	0.117193	-0.406289
H127	H	0.529652	0.173702	-0.271616
H128	H	0.541204	0.313140	-0.266002
H129	H	0.467497	0.396065	-0.395064
H130	H	0.509023	0.439392	-0.685007
C131	C	1.075412	0.795158	-0.484507
C132	C	1.070157	0.784918	-0.364071
C133	C	1.117806	0.827286	-0.295981
C134	C	1.170710	0.879894	-0.348327
C135	C	1.175968	0.890136	-0.468769
C136	C	1.128319	0.847768	-0.536859
H137	H	1.030992	0.745973	-0.325316
H138	H	1.113913	0.819704	-0.206822
H139	H	1.205983	0.911258	-0.297922
H140	H	1.215133	0.929082	-0.507524
H141	H	1.132212	0.855350	-0.626018
H142	H	0.814437	0.449592	-1.082160
C143	C	0.915609	1.119844	-0.713308
C144	C	0.867974	1.077474	-0.781408
C145	C	0.816925	1.115641	-0.854442
C146	C	0.813511	1.196177	-0.859375
C147	C	0.861148	1.238551	-0.791272
C148	C	0.912197	1.200384	-0.718239
H149	H	0.870499	1.017853	-0.777759
H150	H	0.781661	1.084272	-0.904856
H151	H	0.775722	1.224430	-0.913438
H152	H	0.858623	1.298172	-0.794922
H153	H	0.947461	1.231752	-0.667825
C154	C	0.927145	0.900493	-0.696620
C155	C	0.869993	0.948552	-0.650451
C156	C	0.818948	0.986726	-0.723483
C157	C	0.825055	0.976839	-0.842684
C158	C	0.882209	0.928777	-0.888859
C159	C	0.933255	0.890604	-0.815827
H160	H	0.865470	0.955873	-0.562206
H161	H	0.776639	1.022304	-0.689301
H162	H	0.787268	1.005098	-0.896747
H163	H	0.886732	0.921457	-0.977104
H164	H	0.975564	0.855025	-0.850009
H165	H	0.489108	0.322598	-0.503356
H166	H	0.269766	0.310979	-0.485317
H167	H	1.097260	0.984039	-0.453409
C168	C	1.097018	0.290766	-0.980034
C169	C	1.094743	0.210821	-0.989902
C170	C	1.146186	0.163626	-0.929859
C171	C	1.199905	0.196375	-0.859948
C172	C	1.202182	0.276324	-0.850076
C173	C	1.150739	0.323519	-0.910119
H174	H	1.054975	0.186575	-1.041657
H175	H	1.144500	0.104442	-0.937167
H176	H	1.237987	0.161438	-0.815500
H177	H	1.241950	0.300571	-0.798321
H178	H	1.152425	0.382703	-0.902812
C179	C	0.887006	0.787118	-0.753935
C180	C	0.829845	0.835170	-0.707773
C181	C	0.778796	0.873333	-0.780811
C182	C	0.784908	0.863444	-0.900011
C183	C	0.842072	0.815389	-0.946179
C184	C	0.893121	0.777227	-0.873141
H185	H	0.825318	0.842493	-0.619529
H186	H	0.736480	0.908906	-0.746633
H187	H	0.747119	0.891694	-0.954078
H188	H	0.846599	0.808067	-1.034424
H189	H	0.935437	0.741654	-0.907319
H190	H	1.091636	1.116877	-0.461565
C191	C	1.287742	0.232044	-1.198159
C192	C	1.339208	0.184828	-1.258797
C193	C	1.414968	0.176223	-1.223934
C194	C	1.439262	0.214834	-1.128432
C195	C	1.387795	0.262053	-1.067789
C196	C	1.312035	0.270658	-1.102652
H197	H	1.321224	0.156243	-1.329498
H198	H	1.453067	0.141268	-1.268827
H199	H	1.495345	0.208464	-1.102624
H200	H	1.405779	0.290638	-0.997088
H201	H	1.273936	0.305613	-1.057759
H202	H	0.934496	0.977097	-0.686186
C203	C	1.241365	0.158329	-1.380493
C204	C	1.259068	0.174466	-1.497883
C205	C	1.310533	0.127250	-1.558532
C206	C	1.344296	0.063896	-1.501791
C207	C	1.326593	0.047757	-1.384394
C208	C	1.275128	0.094973	-1.323745
H209	H	1.234074	0.221367	-1.539893
H210	H	1.323637	0.139198	-1.645437
H211	H	1.382393	0.028944	-1.546686
H212	H	1.351587	0.000856	-1.342385
H213	H	1.262024	0.083025	-1.236840
H214	H	1.103037	0.184786	-1.422240
C215	C	0.998476	0.264890	-1.331272
C216	C	0.974188	0.226285	-1.426783
C217	C	0.898429	0.234888	-1.461652
C218	C	0.846957	0.282096	-1.401011
C219	C	0.871244	0.320704	-1.305494
C220	C	0.947003	0.312101	-1.270624
H221	H	1.012291	0.191336	-1.471679
H222	H	0.880451	0.206308	-1.532361
H223	H	0.790876	0.288465	-1.426823
H224	H	0.833141	0.355653	-1.260598
H225	H	0.964982	0.340681	-1.199916
H226	H	0.905890	0.644373	-0.726808
C227	C	0.709880	0.529702	-0.991192
C228	C	0.658415	0.576914	-0.930546
C229	C	0.582655	0.585524	-0.965410
C230	C	0.558360	0.546921	-1.060919
C231	C	0.609827	0.499706	-1.121570
C232	C	0.685587	0.491096	-1.086707
H233	H	0.676398	0.605493	-0.859840
H234	H	0.544556	0.620476	-0.920511
H235	H	0.502278	0.553295	-1.086727
H236	H	0.591843	0.471127	-1.192277
H237	H	0.723685	0.456144	-1.131606
H238	H	0.769634	0.591150	-0.824601
H239	H	1.057125	0.870675	-0.510734
H240	H	0.894584	0.576934	-0.767100
H241	H	1.183178	0.312156	-1.107198
