data_functionalizedCrystal
_audit_creation_method	'MofGen! by Chris Wilmer'
_symmetry_space_group_name_H-M	'P1'
_symmetry_Int_Tables_number	1
_symmetry_cell_setting	triclinic
loop_
_symmetry_equiv_pos_as_xyz
  x,y,z
_cell_length_a	16.625548
_cell_length_b	18.050589
_cell_length_c	16.625539
_cell_angle_alpha	90.024824
_cell_angle_beta	90.020568
_cell_angle_gamma	90.029289
loop_
_atom_site_label
_atom_site_type_symbol
_atom_site_fract_x
_atom_site_fract_y
_atom_site_fract_z
Zn1	Zn	1.232648	-0.295637	0.455929
Zn2	Zn	1.232538	-0.419835	0.321104
Zn3	Zn	1.097810	-0.295665	0.321109
Zn4	Zn	1.097767	-0.419792	0.455894
O5	O	1.165191	-0.357732	0.388509
O6	O	1.345466	-0.312118	0.438056
O7	O	1.214638	-0.403393	0.208272
O8	O	1.115761	-0.191737	0.339010
O9	O	1.345385	-0.403366	0.339001
O10	O	1.214826	-0.191716	0.438061
O11	O	1.115654	-0.312166	0.208276
O12	O	0.984972	-0.312125	0.338976
O13	O	1.115687	-0.403293	0.568731
O14	O	0.984940	-0.403320	0.438002
O15	O	1.214784	-0.312077	0.568757
O16	O	1.214596	-0.523754	0.338968
O17	O	1.115580	-0.523722	0.437997
C18	C	0.955700	-0.357722	0.388487
C19	C	0.866079	-0.357735	0.388496
C20	C	0.537903	-0.357740	0.388531
C21	C	0.629212	-0.357736	0.388518
C22	C	0.701988	-0.357738	0.388513
C23	C	0.793302	-0.357734	0.388502
C24	C	1.165093	-0.550684	0.388496
C25	C	1.165126	-0.633230	0.388517
C26	C	1.111334	-0.832691	0.442350
C27	C	1.091677	-0.882133	0.368775
C28	C	1.165205	-0.784360	0.388528
C29	C	1.184901	-0.882000	0.462112
C30	C	1.165280	-0.930346	0.388544
C31	C	1.145510	-0.832715	0.314913
C32	C	1.238767	-0.832578	0.408300
C33	C	1.219139	-0.881998	0.334673
C34	C	1.165160	-0.700262	0.388519
C35	C	1.165325	-1.014442	0.388544
C36	C	1.375500	-0.357743	0.388532
C37	C	1.465121	-0.357748	0.388542
C38	C	1.165243	-0.357677	0.598818
C39	C	1.165266	-0.357653	0.688439
C40	C	1.165310	-0.164027	0.388540
C41	C	1.165361	-0.081481	0.388553
C42	C	1.165185	-0.357734	0.179018
C43	C	1.165319	-0.357548	0.089398
C44	C	1.165303	-0.357570	1.016615
C45	C	1.165290	-0.357596	0.925307
C46	C	1.165285	-0.357612	0.852530
C47	C	1.165271	-0.357637	0.761216
H48	H	1.029503	-0.903916	0.352066
C49	C	1.321622	-0.803568	0.430787
C50	C	1.341895	-0.828479	0.507914
C51	C	1.418209	-0.801760	0.528670
H52	H	1.360134	-0.821167	0.393172
H53	H	1.321121	-0.750941	0.430178
H54	H	1.342402	-0.881095	0.508517
H55	H	1.303404	-0.810882	0.545547
H56	H	1.417708	-0.749132	0.528061
H57	H	1.456714	-0.819360	0.491050
H58	H	1.431971	-0.818652	0.581005
H59	H	1.128809	-0.811156	0.252673
C60	C	1.279821	-0.910652	0.273798
C61	C	1.258866	-0.885561	0.196923
C62	C	1.314737	-0.911951	0.140822
H63	H	1.331925	-0.892951	0.287284
H64	H	1.279819	-0.963282	0.274394
H65	H	1.258876	-0.832942	0.196329
H66	H	1.206771	-0.903260	0.183412
H67	H	1.314736	-0.964581	0.141419
H68	H	1.366838	-0.894249	0.154316
H69	H	1.300523	-0.894937	0.088656
H70	H	1.201530	-0.903649	0.524335
H71	H	1.065710	-0.811040	0.487802
