data_functionalizedCrystal
_audit_creation_method	'MofGen! by Chris Wilmer'
_symmetry_space_group_name_H-M	'P1'
_symmetry_Int_Tables_number	1
_symmetry_cell_setting	triclinic
loop_
_symmetry_equiv_pos_as_xyz
  x,y,z
_cell_length_a	15.538191
_cell_length_b	19.188930
_cell_length_c	14.750779
_cell_angle_alpha	77.396187
_cell_angle_beta	97.572172
_cell_angle_gamma	65.208438
loop_
_atom_site_label
_atom_site_type_symbol
_atom_site_fract_x
_atom_site_fract_y
_atom_site_fract_z
O1	O	1.230319	-0.206654	-0.079811
O2	O	0.955725	-0.125950	-0.079820
O3	O	1.100951	-0.269953	-0.079797
O4	O	1.085093	-0.062651	-0.079835
O5	O	1.142004	-0.310658	0.079860
O6	O	0.996778	-0.166654	0.079837
O7	O	1.271372	-0.247359	0.079846
Zn8	Zn	1.140594	-0.213470	0.105190
Zn9	Zn	1.086504	-0.159839	-0.105165
O10	O	1.126146	-0.103356	0.079822
C11	C	0.941121	-0.137858	0.000007
C12	C	0.836443	-0.112707	0.000004
C13	C	0.549690	-0.362580	0.000035
C14	C	0.451325	-0.338928	0.000030
C15	C	0.428328	-0.205893	0.000006
C16	C	0.526694	-0.229535	0.000016
C17	C	0.587367	-0.307879	0.000029
C18	C	0.564371	-0.174835	0.000010
C19	C	0.662727	-0.198474	0.000014
C20	C	0.723406	-0.276813	0.000025
C21	C	0.685723	-0.331518	0.000034
C22	C	0.503694	-0.096490	-0.000011
C23	C	0.541372	-0.041789	-0.000017
C24	C	0.639731	-0.065429	-0.000005
C25	C	0.700410	-0.143769	0.000006
C26	C	0.677414	-0.010724	-0.000014
C27	C	0.775770	-0.034363	-0.000009
C28	C	0.798766	-0.167408	0.000010
C29	C	1.120965	-0.316188	0.000035
C30	C	1.119427	-0.393308	0.000043
C31	C	1.204639	-0.459635	0.000050
C32	C	1.203187	-0.532092	0.000035
C33	C	1.116524	-0.538221	0.000031
C34	C	1.031299	-0.471879	0.000018
C35	C	1.032751	-0.399422	0.000024
N36	N	1.064252	-0.643440	0.054363
N37	N	1.062879	-0.712273	0.054360
C38	C	1.112146	-0.756526	0.000012
N39	N	1.162854	-0.729353	-0.054321
N40	N	1.164230	-0.660516	-0.054313
C41	C	1.114941	-0.616784	0.000024
C42	C	1.195790	-0.901421	0.000001
C43	C	1.194333	-0.973876	-0.000020
C44	C	1.022445	-0.913663	-0.000027
C45	C	1.023901	-0.841208	-0.000016
C46	C	1.110577	-0.835093	0.000003
C47	C	1.285976	-0.235450	0.000016
C48	C	1.390652	-0.260600	0.000013
C49	C	1.106132	-0.057120	-0.000011
C50	C	1.107668	0.020001	-0.000026
N51	N	1.177515	-0.250073	0.248752
N52	N	1.049589	-0.123244	-0.248726
C53	C	0.946472	-0.021047	0.600532
C54	C	0.972351	-0.046693	0.701036
C55	C	1.100975	-0.174180	0.701020
C56	C	1.075104	-0.148545	0.600514
C57	C	0.997852	-0.071978	0.550279
C58	C	1.126484	-0.199476	0.550260
C59	C	1.100617	-0.173842	0.449764
C60	C	1.023370	-0.097277	0.399521
C61	C	0.971985	-0.046344	0.449782
C62	C	1.203739	-0.276041	0.600498
C63	C	1.255119	-0.326973	0.550244
C64	C	1.229248	-0.301341	0.449745
C65	C	1.152002	-0.224776	0.399503
C66	C	1.280633	-0.352274	0.399484
C67	C	1.254767	-0.326640	0.298988
C68	C	1.126135	-0.199142	0.299006
H69	H	0.627997	0.053065	-0.000034
H70	H	1.002314	-0.076406	0.317690
H71	H	1.272579	-0.586105	0.000037
H72	H	0.930506	-0.005211	0.741948
H73	H	1.275216	-0.454663	0.000062
H74	H	0.378914	-0.142105	-0.000009
C75	C	0.939016	-0.326457	0.000018
H76	H	0.952292	-0.282427	0.000018
H77	H	0.917776	-0.340162	0.055688
H78	H	0.889154	-0.311757	-0.055671
C79	C	0.887000	0.037874	0.394512
H80	H	0.878952	0.045840	0.327463
H81	H	0.901268	0.077740	0.410968
H82	H	0.828343	0.041988	0.410996
H83	H	0.951881	-0.918651	-0.000035
C84	C	1.311279	-0.382663	0.243705
H85	H	1.360984	-0.431938	0.288016
H86	H	1.340331	-0.357449	0.204488
H87	H	1.267383	-0.393178	0.204513
H88	H	0.806449	0.010177	-0.000005
H89	H	0.848172	-0.231204	0.000027
C90	C	0.752469	-0.417694	0.000044
H91	H	0.715944	-0.446889	0.000042
H92	H	0.805636	-0.443877	0.055718
H93	H	0.776990	-0.415476	-0.055641
C94	C	1.340086	-0.411194	0.605504
H95	H	1.366983	-0.437854	0.561178
H96	H	1.316377	-0.441706	0.644719
H97	H	1.389329	-0.405981	0.644694
H98	H	0.883560	0.041299	0.559629
H99	H	0.599096	-0.426376	0.000052
H100	H	0.420654	-0.383477	0.000033
H101	H	1.224800	-0.296908	0.682329
C102	C	0.395504	-0.070483	-0.000015
H103	H	0.364763	-0.015988	-0.000036
H104	H	0.391814	-0.103894	0.055666
H105	H	0.363185	-0.075509	-0.055693
C106	C	0.474629	0.044382	-0.000025
H107	H	0.410657	0.050626	-0.000021
H108	H	0.471709	0.082040	-0.055700
H109	H	0.500343	0.053636	0.055659
H110	H	0.803490	-0.296055	0.000016
H111	H	1.163877	-0.236521	0.741933
C112	C	0.930171	-0.768244	-0.000018
H113	H	0.943445	-0.724212	-0.000022
H114	H	0.908932	-0.781948	0.055653
H115	H	0.880309	-0.753548	-0.055706
C116	C	0.935973	-0.478620	0.000018
H117	H	0.947315	-0.531275	0.000025
H118	H	0.886582	-0.440175	-0.055659
H119	H	0.915219	-0.468579	0.055700
C120	C	1.041150	-0.114924	0.243736
H121	H	1.033102	-0.106958	0.176687
H122	H	1.055417	-0.075058	0.260192
H123	H	0.982493	-0.110810	0.260221
C124	C	1.291124	-0.894687	0.000011
H125	H	1.341664	-0.944567	-0.000001
H126	H	1.309581	-0.881878	0.055691
H127	H	1.280944	-0.853467	-0.055668
H128	H	1.263725	-1.027882	-0.000019
C129	C	1.365606	-0.436493	0.454746
H130	H	1.392506	-0.463153	0.410423
H131	H	1.341904	-0.467007	0.493966
H132	H	1.414845	-0.431271	0.493933
