data_functionalizedCrystal
_audit_creation_method	'MofGen! by Chris Wilmer'
_symmetry_space_group_name_H-M	'P1'
_symmetry_Int_Tables_number	1
_symmetry_cell_setting	triclinic
loop_
_symmetry_equiv_pos_as_xyz
  x,y,z
_cell_length_a	14.908783
_cell_length_b	19.121725
_cell_length_c	14.908308
_cell_angle_alpha	95.838923
_cell_angle_beta	89.788727
_cell_angle_gamma	91.021521
loop_
_atom_site_label
_atom_site_type_symbol
_atom_site_fract_x
_atom_site_fract_y
_atom_site_fract_z
Zn1	Zn	1.357914	-0.245707	-0.602017
Zn2	Zn	1.372153	-0.356052	-0.458029
Zn3	Zn	1.216188	-0.244947	-0.442945
Zn4	Zn	1.213868	-0.369504	-0.600427
O5	O	1.290031	-0.304053	-0.525854
O6	O	1.485358	-0.255033	-0.589895
O7	O	1.358394	-0.335366	-0.329861
O8	O	1.230000	-0.146741	-0.458399
O9	O	1.495819	-0.336103	-0.484107
O10	O	1.334126	-0.147300	-0.575269
O11	O	1.243807	-0.253738	-0.318779
O12	O	1.090325	-0.266781	-0.456857
O13	O	1.226046	-0.359030	-0.726805
O14	O	1.088620	-0.358293	-0.572559
O15	O	1.331876	-0.268077	-0.727973
O16	O	1.356144	-0.456143	-0.482565
O17	O	1.239853	-0.466026	-0.587185
C18	C	1.056918	-0.313915	-0.512899
C19	C	0.957190	-0.318152	-0.507379
C20	C	0.758894	-0.241827	-0.607346
C21	C	0.665191	-0.245806	-0.602162
C22	C	0.676080	-0.330084	-0.491823
C23	C	0.769783	-0.326105	-0.497007
C24	C	0.811186	-0.281976	-0.554771
C25	C	0.904891	-0.278001	-0.559959
C26	C	0.915778	-0.362275	-0.449616
C27	C	0.822076	-0.366254	-0.444432
C28	C	1.299315	-0.486575	-0.536361
C29	C	1.303367	-0.564656	-0.540890
C30	C	1.251113	-0.601107	-0.482135
C31	C	1.254929	-0.674473	-0.486395
C32	C	1.310996	-0.711387	-0.549415
C33	C	1.363256	-0.674931	-0.608172
C34	C	1.359444	-0.601566	-0.603907
C35	C	1.325220	-0.932913	-0.565335
C36	C	1.329026	-1.006283	-0.569597
C37	C	1.220700	-1.005820	-0.447819
C38	C	1.216889	-0.932454	-0.443563
C39	C	1.269153	-0.896004	-0.502317
C40	C	1.314896	-0.786379	-0.553773
C41	C	1.265257	-0.821013	-0.497954
C42	C	1.524054	-0.294152	-0.538861
C43	C	1.623781	-0.289933	-0.544404
C44	C	1.277114	-0.315139	-0.761017
C45	C	1.271609	-0.319863	-0.861229
C46	C	1.280734	-0.120818	-0.515328
C47	C	1.276772	-0.042734	-0.510843
C48	C	1.371463	-0.234015	-1.050756
C49	C	1.366294	-0.238451	-1.144915
C50	C	1.256098	-0.333168	-1.143706
C51	C	1.261267	-0.328732	-1.049548
C52	C	1.318953	-0.279154	-1.003076
C53	C	1.324126	-0.274722	-0.908916
C54	C	1.213925	-0.369435	-0.907709
C55	C	1.208756	-0.373871	-1.001867
C56	C	1.302946	-0.292957	-0.291606
C57	C	1.308614	-0.288027	-0.191393
H58	H	0.622618	-0.213111	-0.644972
H59	H	1.209133	-0.373531	-1.181559
H60	H	1.409051	-0.201693	-1.183732
C61	C	1.145311	-0.428404	-1.052991
H62	H	1.149756	-0.424585	-1.115898
H63	H	1.085351	-0.419954	-1.033620
H64	H	1.161699	-0.474323	-1.041004
H65	H	1.401996	-0.571888	-0.651750
C66	C	1.156160	-0.419089	-0.855259
H67	H	1.167496	-0.409346	-0.792525
H68	H	1.170841	-0.466461	-0.874136
H69	H	1.094503	-0.412084	-0.866748
H70	H	0.938600	-0.242070	-0.606995
H71	H	0.792605	-0.205899	-0.654384
C72	C	1.424926	-0.715535	-0.677494
H73	H	1.419706	-0.764450	-0.671627
H74	H	1.485317	-0.700302	-0.667002
H75	H	1.407786	-0.706910	-0.736630
C76	C	0.630530	-0.378620	-0.428286
H77	H	0.675092	-0.401960	-0.397711
H78	H	0.593651	-0.412440	-0.462455
H79	H	0.594755	-0.351396	-0.385482
C80	C	0.776531	-0.414795	-0.380898
H81	H	0.821098	-0.438134	-0.350327
H82	H	0.739655	-0.448616	-0.415069
H83	H	0.740754	-0.387576	-0.338090
C84	C	0.973302	-0.406441	-0.391782
H85	H	1.035038	-0.397751	-0.403138
H86	H	0.959632	-0.454926	-0.406750
H87	H	0.960732	-0.393883	-0.329775
H88	H	1.205453	-0.571057	-0.430822
H89	H	1.212380	-0.704148	-0.438549
H90	H	1.418438	-0.193651	-1.012919
H91	H	1.171235	-0.902400	-0.392248
C92	C	1.203584	-0.780413	-0.428637
H93	H	1.173008	-0.812627	-0.394249
H94	H	1.161091	-0.755089	-0.459263
H95	H	1.238612	-0.748479	-0.389622
H96	H	1.367773	-0.903241	-0.613176
H97	H	1.178151	-1.035505	-0.399984
H98	H	1.374669	-1.036338	-0.620932
C99	C	1.387570	-0.220185	-0.857798
H100	H	1.418094	-0.193932	-0.899683
H101	H	1.430049	-0.243665	-0.824780
H102	H	1.353698	-0.189299	-0.817404
H103	H	1.360544	-0.816443	-0.605085
