data_functionalizedCrystal
_audit_creation_method	'MofGen! by Chris Wilmer'
_symmetry_space_group_name_H-M	'P1'
_symmetry_Int_Tables_number	1
_symmetry_cell_setting	triclinic
loop_
_symmetry_equiv_pos_as_xyz
  x,y,z
_cell_length_a	12.759395
_cell_length_b	18.101397
_cell_length_c	18.101398
_cell_angle_alpha	90.002597
_cell_angle_beta	90.003915
_cell_angle_gamma	90.020311
loop_
_atom_site_label
_atom_site_type_symbol
_atom_site_fract_x
_atom_site_fract_y
_atom_site_fract_z
Zn1	Zn	1.606066	-0.295045	0.418651
Zn2	Zn	1.605986	-0.418831	0.294804
Zn3	Zn	1.430411	-0.295007	0.294832
Zn4	Zn	1.430338	-0.418849	0.418612
O5	O	1.518200	-0.356933	0.356725
O6	O	1.753076	-0.311474	0.402228
O7	O	1.582693	-0.402382	0.191175
O8	O	1.453776	-0.191380	0.311285
O9	O	1.753018	-0.402419	0.311238
O10	O	1.582828	-0.191407	0.402254
O11	O	1.453699	-0.311410	0.191195
O12	O	1.283381	-0.311427	0.311246
O13	O	1.453652	-0.402449	0.522250
O14	O	1.283327	-0.402413	0.402187
O15	O	1.582758	-0.311491	0.522279
O16	O	1.582622	-0.522466	0.311199
O17	O	1.453575	-0.522480	0.402160
C18	C	1.245233	-0.356918	0.356716
C19	C	1.128456	-0.356930	0.356729
C20	C	1.128498	-0.262382	0.451630
C21	C	1.073658	-0.215117	0.499086
C22	C	0.963936	-0.215131	0.499096
C23	C	0.909052	-0.262412	0.451642
C24	C	0.963892	-0.309677	0.404185
C25	C	1.073616	-0.309660	0.404183
C26	C	0.963851	-0.404220	0.309282
C27	C	1.073572	-0.404212	0.309275
C28	C	0.908967	-0.451501	0.261828
C29	C	0.963807	-0.498771	0.214374
C30	C	1.073535	-0.498757	0.214368
C31	C	1.128412	-0.451476	0.261819
C32	C	1.518111	-0.549344	0.356689
C33	C	1.518168	-0.631658	0.356698
C34	C	1.518302	-0.930749	0.356766
C35	C	1.599269	-0.899384	0.299382
C36	C	1.599550	-0.813766	0.299531
C37	C	1.518236	-0.782366	0.356732
C38	C	1.548227	-0.813412	0.434791
C39	C	1.548853	-0.899056	0.434478
C40	C	1.407128	-0.899248	0.336765
C41	C	1.407678	-0.813597	0.335023
C42	C	1.518196	-0.698507	0.356717
C43	C	1.518344	-1.014608	0.356785
C44	C	1.792234	-0.356948	0.356734
C45	C	1.909010	-0.356955	0.356738
C46	C	1.518205	-0.356977	0.549887
C47	C	1.518208	-0.356995	0.632201
C48	C	1.518319	-0.163771	0.356777
C49	C	1.518370	-0.081457	0.356799
C50	C	1.518183	-0.356953	0.931292
C51	C	1.436682	-0.413989	0.899948
C52	C	1.436927	-0.414226	0.814330
C53	C	1.518194	-0.356974	0.782909
C54	C	1.628883	-0.378168	0.814002
C55	C	1.628404	-0.378570	0.899647
C56	C	1.489966	-0.278585	0.899723
C57	C	1.487528	-0.279010	0.814072
C58	C	1.518207	-0.356984	0.699050
C59	C	1.518177	-0.356944	1.015151
C60	C	1.518183	-0.356917	1.164314
C61	C	1.518169	-0.356931	1.082000
H62	H	1.217753	-0.451456	0.261814
H63	H	1.549328	-0.236089	0.919994
O64	O	1.480173	-0.789138	0.487260
C65	C	1.535311	-0.748529	0.541195
H66	H	1.621236	-0.765762	0.540852
H67	H	1.500187	-0.759968	0.597962
H68	H	1.529096	-0.687022	0.528386
H69	H	1.406070	-0.263028	0.793750
O70	O	1.126849	-0.544565	0.168189
C71	C	1.190341	-0.502308	0.120447
H72	H	1.157295	-0.443975	0.115988
H73	H	1.191562	-0.528985	0.063402
H74	H	1.273503	-0.499795	0.143343
O75	O	0.802469	-0.262557	0.451650
C76	C	0.765792	-0.333567	0.470555
H77	H	0.829006	-0.376195	0.457820
H78	H	0.692376	-0.346676	0.437131
H79	H	0.746335	-0.335251	0.532001
O80	O	1.644123	-0.787733	0.455219
C81	C	1.684308	-0.741677	0.399148
H82	H	1.645404	-0.756089	0.344311
H83	H	1.772569	-0.750205	0.394394
H84	H	1.667446	-0.681495	0.413397
O85	O	1.374393	-0.925003	0.270061
C86	C	1.274637	-0.895724	0.253811
H87	H	1.234035	-0.878942	0.307337
H88	H	1.225564	-0.939303	0.224281
H89	H	1.283646	-0.845254	0.216676
O90	O	0.802384	-0.451652	0.261840
C91	C	0.765720	-0.522666	0.280741
H92	H	0.828940	-0.565288	0.267999
H93	H	0.692303	-0.535778	0.247319
H94	H	0.746270	-0.524356	0.342187
O95	O	1.126923	-0.169087	0.545107
C96	C	1.100107	-0.095250	0.529083
H97	H	1.069938	-0.091399	0.469929
H98	H	1.172273	-0.058666	0.535536
H99	H	1.036427	-0.075979	0.568827
H100	H	1.580789	-0.792776	0.241651
H101	H	0.919111	-0.537261	0.175738
H102	H	1.217839	-0.262364	0.451624
O103	O	0.910705	-0.169299	0.545300
C104	C	0.937546	-0.185606	0.619077
H105	H	0.967704	-0.244769	0.622700
H106	H	0.865395	-0.179311	0.655678
H107	H	1.001242	-0.145925	0.638510
O108	O	1.658058	-0.445712	0.788340
C109	C	1.751923	-0.439028	0.747786
H110	H	1.760564	-0.379844	0.727134
H111	H	1.749857	-0.478372	0.698628
H112	H	1.821248	-0.453463	0.784800
H113	H	1.385064	-0.793311	0.277578
O114	O	1.331969	-0.788066	0.381315
C115	C	1.377514	-0.741148	0.434575
H116	H	1.464316	-0.754835	0.440467
H117	H	1.336658	-0.749470	0.489961
H118	H	1.368399	-0.681204	0.416366
O119	O	1.395420	-0.255472	0.925559
C120	C	1.408374	-0.188987	0.965109
H121	H	1.492793	-0.184527	0.985252
H122	H	1.353056	-0.188464	1.014559
H123	H	1.389748	-0.140211	0.927498
O124	O	1.338520	-0.398260	0.924601
C125	C	1.342049	-0.335405	0.970541
H126	H	1.424519	-0.328691	0.993828
H127	H	1.284010	-0.342402	1.017907
H128	H	1.320473	-0.284296	0.937036
O129	O	1.577048	-0.924068	0.230174
C130	C	1.487898	-0.970050	0.232593
H131	H	1.478323	-0.993330	0.290719
H132	H	1.497894	-1.017420	0.191695
H133	H	1.415391	-0.936583	0.217320
O134	O	1.459104	-0.483550	0.789978
C135	C	1.382396	-0.533120	0.816205
H136	H	1.343714	-0.509134	0.867652
H137	H	1.420865	-0.588117	0.830534
H138	H	1.320582	-0.542194	0.771636
O139	O	1.335283	-0.923532	0.386673
C140	C	1.385174	-0.968741	0.439448
H141	H	1.460527	-0.992109	0.414995
H142	H	1.330758	-1.016074	0.455444
H143	H	1.404581	-0.934601	0.490580
O144	O	1.553177	-0.225653	0.788437
C145	C	1.547876	-0.223214	0.710673
H146	H	1.518975	-0.278688	0.688884
H147	H	1.629057	-0.211185	0.687276
H148	H	1.491313	-0.177798	0.692979
O149	O	1.696917	-0.925047	0.315099
C150	C	1.692377	-0.971266	0.377713
H151	H	1.620024	-0.956975	0.411775
H152	H	1.765681	-0.962792	0.412716
H153	H	1.687756	-1.031403	0.359280
H154	H	1.630115	-0.918984	0.451421
O155	O	1.697864	-0.789349	0.315235
C156	C	1.768258	-0.815560	0.261228
H157	H	1.734295	-0.867042	0.233956
H158	H	1.846266	-0.829829	0.288410
H159	H	1.781137	-0.771005	0.217649
O160	O	1.481690	-0.923782	0.487324
C161	C	1.514108	-0.897483	0.556995
H162	H	1.601297	-0.883833	0.555166
H163	H	1.499360	-0.941744	0.600576
H164	H	1.467882	-0.845609	0.571581
O165	O	1.339019	-0.398508	0.789158
C166	C	1.301985	-0.457918	0.746061
H167	H	1.371340	-0.490988	0.724118
H168	H	1.254268	-0.435610	0.697719
H169	H	1.250403	-0.495198	0.781493
O170	O	1.657084	-0.446913	0.923393
C171	C	1.758408	-0.463444	0.897094
H172	H	1.775597	-0.428707	0.845979
H173	H	1.763016	-0.524550	0.882203
H174	H	1.818542	-0.450443	0.941833
H175	H	1.455127	-0.471723	0.921469
H176	H	1.691189	-0.338830	0.920382
O177	O	1.703173	-0.330108	0.789630
C178	C	1.656029	-0.276435	0.744015
H179	H	1.579641	-0.299228	0.720594
H180	H	1.711376	-0.261989	0.696732
H181	H	1.638949	-0.224689	0.777833
