data_functionalizedCrystal
_audit_creation_method	'MofGen! by Chris Wilmer'
_symmetry_space_group_name_H-M	'P1'
_symmetry_Int_Tables_number	1
_symmetry_cell_setting	triclinic
loop_
_symmetry_equiv_pos_as_xyz
  x,y,z
_cell_length_a	10.654546
_cell_length_b	10.654554
_cell_length_c	9.130313
_cell_angle_alpha	89.999294
_cell_angle_beta	89.998822
_cell_angle_gamma	84.485114
loop_
_atom_site_label
_atom_site_type_symbol
_atom_site_fract_x
_atom_site_fract_y
_atom_site_fract_z
O1	O	1.667839	0.176372	-0.121830
O2	O	1.302361	0.193183	-0.121825
O3	O	1.493500	0.002038	-0.121820
O4	O	1.476700	0.367516	-0.121835
O5	O	1.493498	0.002043	0.121779
O6	O	1.302358	0.193188	0.121774
O7	O	1.667837	0.176377	0.121769
Cu8	Cu	1.485097	0.184783	0.144014
Cu9	Cu	1.485100	0.184777	-0.144070
O10	O	1.476698	0.367521	0.121764
C11	C	1.492264	-0.044757	-0.000022
C12	C	1.488570	-0.184200	-0.000025
C13	C	1.255561	0.191952	-0.000025
C14	C	1.116118	0.188262	-0.000024
C15	C	1.597643	-0.394710	-0.000045
C16	C	1.601115	-0.263688	-0.000030
C17	C	1.372545	-0.235739	-0.000020
C18	C	1.369075	-0.366758	-0.000024
C19	C	1.710196	-0.474192	-0.000064
C20	C	1.826221	-0.422663	-0.000067
C21	C	1.829693	-0.291641	-0.000052
C22	C	1.717140	-0.212150	-0.000035
C23	C	1.050624	0.186513	-0.132816
C24	C	0.919604	0.183035	-0.132828
C25	C	0.919582	0.183051	0.132757
C26	C	1.050599	0.186537	0.132767
C27	C	1.116143	0.188237	-0.265607
C28	C	1.050649	0.186486	-0.398410
C29	C	0.919629	0.183009	-0.398422
C30	C	0.854101	0.181282	-0.265630
C31	C	1.714636	0.177608	-0.000034
C32	C	1.854080	0.181298	-0.000045
C33	C	1.477933	0.414317	-0.000038
C34	C	1.481628	0.553760	-0.000044
N35	N	1.485105	0.184786	0.346637
N36	N	1.485103	0.184763	-0.346693
C37	C	1.569763	0.100177	0.423291
C38	C	1.569760	0.100162	0.576628
C39	C	1.400435	0.269377	0.576642
C40	C	1.400434	0.269385	0.423308
C41	C	1.654434	0.015578	0.346619
C42	C	1.739100	-0.069037	0.423274
C43	C	1.739097	-0.069053	0.576610
C44	C	1.654427	0.015548	0.653293
H45	H	1.707382	-0.580878	-0.000081
N46	N	1.251166	-0.149994	0.000008
H47	H	1.247510	-0.095004	-0.090289
H48	H	1.177204	-0.202597	0.000071
N49	N	0.848991	0.181114	-0.541652
H50	H	0.756049	0.178647	-0.521515
H51	H	0.862388	0.259434	-0.599651
N52	N	1.947612	-0.508390	-0.000061
H53	H	1.927812	-0.599210	-0.000070
H54	H	1.998129	-0.491585	-0.090362
N55	N	1.954825	-0.236058	-0.000034
H56	H	2.025594	-0.306295	-0.000045
H57	H	1.961244	-0.182298	-0.090333
N58	N	1.309133	0.360645	0.340615
H59	H	1.253115	0.312131	0.276999
H60	H	1.255586	0.414222	0.412541
N61	N	1.654432	0.015539	0.818678
H62	H	1.587957	0.081976	0.855619
H63	H	1.635466	-0.070009	0.855494
N64	N	1.654429	0.015601	0.181237
H65	H	1.739911	0.034677	0.144303
H66	H	1.635374	-0.069914	0.144406
H67	H	1.808029	-0.137924	0.360831
H68	H	1.274605	-0.408714	-0.000006
H69	H	1.331502	0.338257	0.639087
H70	H	1.719976	-0.105464	-0.000006
N71	N	1.830419	-0.160299	0.659292
H72	H	1.884060	-0.213880	0.587449
H73	H	1.886343	-0.111681	0.722903
H74	H	1.222827	0.191066	-0.265612
H75	H	1.104009	0.187903	-0.506524
N76	N	0.712784	0.177549	-0.265637
H77	H	0.681232	0.176710	-0.369912
H78	H	0.690824	0.098997	-0.213433
H79	H	0.866219	0.181643	0.240870
N80	N	1.121249	0.188430	0.275989
H81	H	1.059866	0.186800	0.360110
H82	H	1.185124	0.112160	0.281783
