data_functionalizedCrystal
_audit_creation_method	'MofGen! by Chris Wilmer'
_symmetry_space_group_name_H-M	'P1'
_symmetry_Int_Tables_number	1
_symmetry_cell_setting	triclinic
loop_
_symmetry_equiv_pos_as_xyz
  x,y,z
_cell_length_a	6.817900
_cell_length_b	15.866870
_cell_length_c	14.125465
_cell_angle_alpha	113.228420
_cell_angle_beta	100.398878
_cell_angle_gamma	102.655915
loop_
_atom_site_label
_atom_site_type_symbol
_atom_site_fract_x
_atom_site_fract_y
_atom_site_fract_z
V1	V	-4.011086	-0.131684	-0.346677
O2	O	-3.978431	0.007174	-0.291722
O3	O	-3.982395	-0.261921	-0.390814
O4	O	-3.946868	-0.129287	-0.476657
O5	O	-4.014203	-0.126378	-0.205284
V6	V	-4.494210	-0.115118	-0.324116
O7	O	-4.273220	-0.168021	-0.396168
O8	O	-4.682273	-0.078781	-0.274625
O9	O	-4.299695	0.015119	-0.279979
O10	O	-4.644262	-0.253977	-0.379072
O11	O	-4.608490	-0.120424	-0.465510
O12	O	-4.335221	-0.117516	-0.194136
C13	C	-3.832702	-0.293681	-0.397345
C14	C	-3.890424	-0.400149	-0.434299
C15	C	-3.921038	-0.683174	-0.091525
C16	C	-3.975283	-0.783222	-0.126281
C17	C	-4.038973	-0.810065	-0.312008
C18	C	-3.984723	-0.710017	-0.277268
C19	C	-3.925761	-0.646580	-0.167026
C20	C	-3.989445	-0.673422	-0.352768
C21	C	-3.935210	-0.573384	-0.318031
C22	C	-3.876253	-0.509940	-0.207793
C23	C	-3.871526	-0.546541	-0.132288
C24	C	-4.048422	-0.736862	-0.463011
C25	C	-4.053145	-0.700267	-0.538511
C26	C	-3.998894	-0.600227	-0.503774
C27	C	-3.939937	-0.536783	-0.393536
C28	C	-4.003621	-0.563626	-0.579279
C29	C	-3.949386	-0.463587	-0.544541
C30	C	-3.885702	-0.436744	-0.358798
C31	C	-3.787383	-0.124492	-0.506846
C32	C	-3.816292	-0.123394	-0.613411
C33	C	-3.869280	-0.121380	-0.808519
C34	C	-4.055384	-0.125420	-0.862273
C35	C	-4.084869	-0.124299	-0.970839
C36	C	-3.839787	-0.122501	-0.699944
C37	C	-4.112731	0.046874	-0.273447
C38	C	-4.034246	0.153341	-0.236501
C39	C	-4.158049	-0.122313	-0.163944
C40	C	-4.108378	-0.123406	-0.057376
H41	H	-3.832101	-0.428483	-0.179512
H42	H	-3.837657	-0.385088	-0.269027
C43	C	-3.954466	-0.423662	-0.626346
C44	C	-3.894402	-0.322476	-0.572328
C45	C	-3.899091	-0.285665	-0.647653
H46	H	-3.859818	-0.442352	-0.666055
H47	H	-4.093065	-0.448630	-0.674368
H48	H	-3.755824	-0.297517	-0.524324
H49	H	-3.989031	-0.303760	-0.532623
H50	H	-4.037690	-0.310633	-0.695675
H51	H	-3.804443	-0.304361	-0.687358
H52	H	-3.858358	-0.217007	-0.611013
H53	H	-3.823480	-0.494885	-0.042516
C54	C	-3.686656	-0.115710	-0.856077
C55	C	-3.752703	-0.115750	-0.955884
C56	C	-3.584548	-0.110545	-0.999746
H57	H	-3.574058	-0.057849	-0.808458
H58	H	-3.640406	-0.170029	-0.865765
H59	H	-3.798923	-0.061436	-0.946190
H60	H	-3.865277	-0.173606	-1.003529
H61	H	-3.538298	-0.164864	-1.009435
H62	H	-3.471960	-0.052684	-0.952119
H63	H	-3.629342	-0.110581	-1.067474
C64	C	-3.857199	-0.614450	0.028211
C65	C	-3.864719	-0.667907	0.086902
C66	C	-3.805972	-0.604633	0.197198
H67	H	-3.718094	-0.571722	0.049952
H68	H	-3.951388	-0.578003	0.041478
H69	H	-3.770533	-0.704338	0.073642
H70	H	-4.003805	-0.710633	0.065195
H71	H	-3.900160	-0.568187	0.210465
H72	H	-3.666869	-0.561908	0.218928
H73	H	-3.811085	-0.640895	0.237033
H74	H	-3.971427	-0.813012	-0.064791
H75	H	-4.086995	-0.861729	-0.401769
H76	H	-4.101166	-0.751931	-0.628272
C77	C	-4.106872	-0.845458	-0.500656
C78	C	-3.935406	-0.866657	-0.455416
C79	C	-3.989161	-0.966685	-0.490083
H80	H	-4.223906	-0.866360	-0.478404
H81	H	-4.142583	-0.878030	-0.577121
H82	H	-3.899723	-0.834097	-0.378968
H83	H	-3.818354	-0.845778	-0.477664
H84	H	-4.024872	-0.999257	-0.566547
H85	H	-4.106197	-0.987579	-0.467828
H86	H	-3.872825	-0.981083	-0.459400
H87	H	-4.051655	-0.615292	-0.669039
C88	C	-4.238096	-0.131214	-0.814779
C89	C	-4.172101	-0.131232	-0.715000
C90	C	-4.340357	-0.136588	-0.671223
H91	H	-4.284525	-0.076948	-0.805056
H92	H	-4.350567	-0.189117	-0.862488
H93	H	-4.059667	-0.073335	-0.667302
H94	H	-4.125691	-0.185495	-0.724694
H95	H	-4.452828	-0.194491	-0.718932
H96	H	-4.386774	-0.082320	-0.661507
H97	H	-4.295609	-0.136610	-0.603524
