data_functionalizedCrystal
_audit_creation_method	'MofGen! by Chris Wilmer'
_symmetry_space_group_name_H-M	'P1'
_symmetry_Int_Tables_number	1
_symmetry_cell_setting	triclinic
loop_
_symmetry_equiv_pos_as_xyz
  x,y,z
_cell_length_a	10.654559
_cell_length_b	9.130313
_cell_length_c	10.654550
_cell_angle_alpha	89.999890
_cell_angle_beta	84.486763
_cell_angle_gamma	90.000636
loop_
_atom_site_label
_atom_site_type_symbol
_atom_site_fract_x
_atom_site_fract_y
_atom_site_fract_z
O1	O	-1.667827	0.121766	-0.176447
O2	O	-1.302350	0.121775	-0.193242
O3	O	-1.493492	0.121765	-0.002106
O4	O	-1.476686	0.121776	-0.367584
O5	O	-1.493490	-0.121834	-0.002111
O6	O	-1.302348	-0.121824	-0.193247
O7	O	-1.667825	-0.121833	-0.176453
Cu8	Cu	-1.485086	-0.144071	-0.184850
Cu9	Cu	-1.485089	0.144013	-0.184844
O10	O	-1.476683	-0.121823	-0.367589
C11	C	-1.255551	-0.000023	-0.192009
C12	C	-1.116109	-0.000020	-0.188312
N13	N	-1.485094	-0.346694	-0.184854
C14	C	-0.919572	0.132767	-0.183113
C15	C	-1.050594	0.132768	-0.186575
C16	C	-1.050595	-0.132817	-0.186574
C17	C	-0.919576	-0.132816	-0.183103
C18	C	-0.854062	0.265563	-0.181389
C19	C	-0.919567	0.398361	-0.183125
C20	C	-1.050589	0.398362	-0.186587
C21	C	-1.116107	0.265565	-0.188313
C22	C	-1.569753	-0.423350	-0.100248
C23	C	-1.569749	-0.576687	-0.100233
C24	C	-1.400423	-0.576697	-0.269441
C25	C	-1.400422	-0.423363	-0.269449
C26	C	-1.654425	-0.346680	-0.015653
C27	C	-1.739092	-0.423337	0.068959
C28	C	-1.739089	-0.576674	0.068974
C29	C	-1.654418	-0.653354	-0.015623
C30	C	-0.714624	-0.000030	-0.177685
C31	C	-0.854067	-0.000020	-0.181379
C32	C	-1.492257	-0.000033	0.044690
C33	C	-1.488565	-0.000028	0.184133
N34	N	-1.485092	0.346635	-0.184831
C35	C	-1.477919	-0.000022	-0.414384
C36	C	-1.481610	-0.000018	-0.553827
C37	C	-1.601106	-0.000035	0.263615
C38	C	-1.597629	-0.000025	0.394636
C39	C	-1.369061	-0.000006	0.366680
C40	C	-1.372539	-0.000006	0.235662
C41	C	-1.733068	-0.000052	0.279757
C42	C	-1.729592	-0.000042	0.410777
H43	H	-0.747377	0.265578	-0.178574
F44	F	-0.849859	-0.274143	-0.181243
F45	F	-1.654411	-0.816551	-0.015590
F46	F	-1.800533	0.133184	0.241378
H47	H	-0.866214	0.506479	-0.181710
F48	F	-1.654438	-0.183487	-0.015667
H49	H	-1.808021	-0.360896	0.137842
F50	F	-1.829187	-0.658255	0.159033
H51	H	-1.222796	0.265576	-0.191125
H52	H	-1.103921	0.506492	-0.187988
H53	H	-1.331489	-0.639140	-0.338317
H54	H	-1.103950	-0.240934	-0.187982
F55	F	-1.310313	-0.341779	-0.359494
H56	H	-1.280897	0.000020	0.170951
F57	F	-1.245584	0.000021	0.421532
H58	H	-1.775089	-0.105234	0.244126
F59	F	-1.781719	0.137430	0.470444
H60	H	-1.779312	-0.101987	0.452534
