data_functionalizedCrystal
_audit_creation_method	'MofGen! by Chris Wilmer'
_symmetry_space_group_name_H-M	'P1'
_symmetry_Int_Tables_number	1
_symmetry_cell_setting	triclinic
loop_
_symmetry_equiv_pos_as_xyz
  x,y,z
_cell_length_a	21.295418
_cell_length_b	29.839134
_cell_length_c	21.295411
_cell_angle_alpha	90.025746
_cell_angle_beta	89.980044
_cell_angle_gamma	89.994288
loop_
_atom_site_label
_atom_site_type_symbol
_atom_site_fract_x
_atom_site_fract_y
_atom_site_fract_z
Zn1	Zn	-0.251045	-0.686818	-0.355939
Zn2	Zn	0.248955	-0.186818	0.144061
Zn3	Zn	-0.356297	-0.686752	-0.250667
Zn4	Zn	0.143703	-0.186752	0.249333
Zn5	Zn	-0.251006	-0.611684	-0.250681
Zn6	Zn	0.248994	-0.111684	0.249319
Zn7	Zn	-0.356241	-0.611667	-0.355897
Zn8	Zn	0.143759	-0.111667	0.144103
O9	O	-0.303647	-0.649230	-0.303296
O10	O	0.196353	-0.149230	0.196704
O11	O	-0.265047	-0.749676	-0.341986
O12	O	0.234953	-0.249676	0.158014
O13	O	-0.342337	-0.676774	-0.162580
O14	O	0.157663	-0.176774	0.337420
O15	O	-0.162922	-0.621686	-0.264668
O16	O	0.337078	-0.121686	0.235332
O17	O	-0.342375	-0.749628	-0.264643
O18	O	0.157625	-0.249628	0.235357
O19	O	-0.162951	-0.676886	-0.342000
O20	O	0.337049	-0.176886	0.158000
O21	O	-0.264980	-0.621622	-0.162590
O22	O	0.235020	-0.121622	0.337410
O23	O	-0.264925	-0.548815	-0.264627
O24	O	0.235075	-0.048815	0.235373
O25	O	-0.342279	-0.621656	-0.443992
O26	O	0.157721	-0.121656	0.056008
O27	O	-0.342241	-0.548802	-0.341928
O28	O	0.157759	-0.048802	0.158072
O29	O	-0.264992	-0.676869	-0.444022
O30	O	0.235008	-0.176869	0.055978
O31	O	-0.444379	-0.676757	-0.264602
O32	O	0.055621	-0.176757	0.235398
O33	O	-0.444337	-0.621592	-0.341914
O34	O	0.055663	-0.121592	0.158086
C35	C	-0.303573	-0.532508	-0.303275
C36	C	0.196427	-0.032508	0.196725
C37	C	-0.303557	-0.482573	-0.303281
C38	C	0.196443	0.017427	0.196719
C39	C	-0.263437	-0.126007	-0.343631
C40	C	0.236563	0.373993	0.156369
C41	C	-0.263397	-0.313680	-0.343622
C42	C	0.236603	0.186320	0.156378
O43	O	-0.229224	-0.337963	-0.377937
O44	O	0.270776	0.162037	0.122063
N45	N	-0.303590	-0.337128	-0.303291
N46	N	0.196410	0.162872	0.196709
C47	C	-0.343799	-0.313655	-0.262962
C48	C	0.156201	0.186345	0.237038
O49	O	-0.377989	-0.337905	-0.228662
O50	O	0.122011	0.162095	0.271338
C51	C	-0.343842	-0.125983	-0.262974
C52	C	0.156158	0.374017	0.237026
C53	C	-0.303642	-0.102537	-0.303304
C54	C	0.196358	0.397463	0.196696
C55	C	-0.223241	-0.102562	-0.383958
C56	C	0.276759	0.397438	0.116042
C57	C	-0.223249	-0.055646	-0.383957
C58	C	0.276751	0.444354	0.116043
C59	C	-0.263454	-0.032176	-0.343630
C60	C	0.236546	0.467824	0.156370
C61	C	-0.303650	-0.055622	-0.303303
C62	C	0.196350	0.444378	0.196697
C63	C	-0.384053	-0.102511	-0.222649
C64	C	0.115947	0.397489	0.277351
C65	C	-0.384061	-0.055589	-0.222656
C66	C	0.115939	0.444411	0.277344
C67	C	-0.343861	-0.032144	-0.262986
C68	C	0.156139	0.467856	0.237014
C69	C	-0.343862	0.014764	-0.262975
C70	C	0.156138	0.514764	0.237025
N71	N	-0.303669	0.038211	-0.303306
N72	N	0.196331	0.538211	0.196694
C73	C	-0.263465	0.014742	-0.343634
C74	C	0.236535	0.514742	0.156366
C75	C	-0.343772	-0.412186	-0.262957
C76	C	0.156228	0.087814	0.237043
C77	C	-0.343761	-0.459103	-0.262953
C78	C	0.156239	0.040897	0.237047
C79	C	-0.263360	-0.459125	-0.343615
C80	C	0.236640	0.040875	0.156385
C81	C	-0.263369	-0.412207	-0.343615
C82	C	0.236631	0.087793	0.156385
C83	C	-0.303580	-0.388738	-0.303289
C84	C	0.196420	0.111262	0.196711
C85	C	-0.263485	0.113267	-0.343629
C86	C	0.236515	0.613267	0.156371
C87	C	-0.263494	0.160187	-0.343623
C88	C	0.236506	0.660187	0.156377
C89	C	-0.343897	0.160205	-0.262964
C90	C	0.156103	0.660205	0.237036
C91	C	-0.343885	0.113289	-0.262967
C92	C	0.156115	0.613289	0.237033
C93	C	-0.303677	0.089822	-0.303305
C94	C	0.196323	0.589822	0.196695
O95	O	-0.378022	0.039075	-0.228683
O96	O	0.121978	0.539075	0.271317
O97	O	-0.229290	0.039000	-0.377939
O98	O	0.270710	0.539000	0.122061
C99	C	-0.263429	-0.172923	-0.343632
C100	C	0.236571	0.327077	0.156368
C101	C	-0.303626	-0.196368	-0.303305
C102	C	0.196374	0.303632	0.196695
C103	C	-0.343830	-0.172898	-0.262978
C104	C	0.156170	0.327102	0.237022
C105	C	-0.303614	-0.243286	-0.303301
C106	C	0.196386	0.256714	0.196699
C107	C	-0.263410	-0.266756	-0.343628
C108	C	0.236590	0.233244	0.156372
C109	C	-0.223217	-0.243308	-0.383960
C110	C	0.276783	0.256692	0.116040
C111	C	-0.223225	-0.196392	-0.383959
C112	C	0.276775	0.303608	0.116041
C113	C	-0.384022	-0.196346	-0.222646
C114	C	0.115978	0.303654	0.277354
C115	C	-0.384011	-0.243262	-0.222650
C116	C	0.115989	0.256738	0.277350
C117	C	-0.343806	-0.266732	-0.262977
C118	C	0.156194	0.233268	0.237023
C119	C	-0.467199	-0.649178	-0.303266
C120	C	0.032801	-0.149178	0.196734
C121	C	-0.537167	-0.649196	-0.303274
C122	C	-0.037167	-0.149196	0.196726
C123	C	-1.036625	-0.678063	-0.263141
C124	C	-0.536625	-0.178063	0.236859
C125	C	-0.970883	-0.678045	-0.263126
C126	C	-0.470883	-0.178045	0.236874
C127	C	-0.938006	-0.649294	-0.303340
C128	C	-0.438006	-0.149294	0.196660
C129	C	-0.970878	-0.620548	-0.343560
C130	C	-0.470878	-0.120548	0.156440
C131	C	-1.036619	-0.620563	-0.343569
C132	C	-0.536619	-0.120563	0.156431
N133	N	-0.834761	-0.645804	-0.358423
N134	N	-0.334761	-0.145804	0.141577
N135	N	-0.772310	-0.645793	-0.358412
N136	N	-0.272310	-0.145793	0.141588
C137	C	-0.739932	-0.649247	-0.303314
C138	C	-0.239932	-0.149247	0.196686
N139	N	-0.772364	-0.652721	-0.248225
N140	N	-0.272364	-0.152721	0.251775
N141	N	-0.834821	-0.652735	-0.248236
N142	N	-0.334821	-0.152735	0.251764
C143	C	-0.866721	-0.649274	-0.303334
C144	C	-0.366721	-0.149274	0.196666
C145	C	-0.635783	-0.677969	-0.263077
C146	C	-0.135783	-0.177969	0.236923
C147	C	-0.570039	-0.677949	-0.263061
C148	C	-0.070039	-0.177949	0.236939
C149	C	-0.570035	-0.620454	-0.343500
C150	C	-0.070035	-0.120454	0.156500
C151	C	-0.635777	-0.620472	-0.343511
C152	C	-0.135777	-0.120472	0.156489
C153	C	-0.668647	-0.649232	-0.303300
C154	C	-0.168647	-0.149232	0.196700
C155	C	-0.139457	-0.649295	-0.303340
C156	C	0.360543	-0.149295	0.196660
C157	C	-0.069489	-0.649323	-0.303359
C158	C	0.430511	-0.149323	0.196641
C159	C	-0.303634	-0.649268	-0.467486
C160	C	0.196366	-0.149268	0.032514
C161	C	-0.303628	-0.649283	-0.537454
C162	C	0.196372	-0.149283	-0.037454
C163	C	-0.303708	0.233591	-0.303310
C164	C	0.196292	0.733591	0.196690
C165	C	-0.303698	0.183657	-0.303296
C166	C	0.196302	0.683657	0.196704
C167	C	-0.263383	-0.678032	-0.570338
C168	C	0.236617	-0.178032	-0.070338
C169	C	-0.263356	-0.678031	-0.636081
C170	C	0.236644	-0.178031	-0.136081
C171	C	-0.303585	-0.649287	-0.668937
C172	C	0.196415	-0.149287	-0.168937
C173	C	-0.343833	-0.620533	-0.636045
C174	C	0.156167	-0.120533	-0.136045
C175	C	-0.343854	-0.620531	-0.570304
C176	C	0.156146	-0.120531	-0.070304
N177	N	-0.358651	-0.645823	-0.772154
N178	N	0.141349	-0.145823	-0.272154
N179	N	-0.358628	-0.645827	-0.834605
N180	N	0.141372	-0.145827	-0.334605
C181	C	-0.303521	-0.649290	-0.867012
C182	C	0.196479	-0.149290	-0.367012
N183	N	-0.248436	-0.652757	-0.834608
N184	N	0.251564	-0.152757	-0.334608
N185	N	-0.248459	-0.652755	-0.772150
N186	N	0.251541	-0.152755	-0.272150
C187	C	-0.303566	-0.649285	-0.740222
C188	C	0.196434	-0.149285	-0.240222
C189	C	-0.263243	-0.678039	-0.971181
C190	C	0.236757	-0.178039	-0.471181
C191	C	-0.263215	-0.678035	-1.036925
C192	C	0.236785	-0.178035	-0.536925
C193	C	-0.343697	-0.620540	-1.036888
C194	C	0.156303	-0.120540	-0.536888
C195	C	-0.343720	-0.620541	-0.971146
C196	C	0.156280	-0.120541	-0.471146
C197	C	-0.303494	-0.649293	-0.938296
C198	C	0.196506	-0.149293	-0.438296
C199	C	-0.303615	-0.649219	-0.139744
C200	C	0.196385	-0.149219	0.360256
C201	C	-0.303443	-0.649290	-0.069777
C202	C	0.196557	-0.149290	0.430223
H203	H	-0.230623	-0.478243	-0.376450
H204	H	0.269377	0.021757	0.123550
O205	O	-0.224046	-0.705897	-1.068896
O206	O	0.275954	-0.205897	-0.568896
C207	C	-0.183365	-0.680336	-1.106914
C208	C	0.316635	-0.180336	-0.606914
H209	H	-0.179463	-0.644954	-1.087080
H210	H	0.320537	-0.144954	-0.587080
H211	H	-0.202804	-0.678781	-1.156740
H212	H	0.297196	-0.178781	-0.656740
C213	C	-0.122731	-0.745766	-1.132291
C214	C	0.377269	-0.245766	-0.632291
C215	C	-0.117935	-0.702311	-1.107927
C216	C	0.382065	-0.202311	-0.607927
H217	H	-0.082371	-0.759322	-1.132918
H218	H	0.417629	-0.259322	-0.632918
H219	H	-0.150140	-0.762988	-1.106679
H220	H	0.349860	-0.262988	-0.606679
H221	H	-0.138933	-0.744465	-1.173810
H222	H	0.361067	-0.244465	-0.673810
H223	H	-0.101741	-0.703614	-1.066406
H224	H	0.398259	-0.203614	-0.566406
H225	H	-0.090522	-0.685091	-1.133532
H226	H	0.409478	-0.185091	-0.633532
O227	O	-0.939018	-0.705943	-0.223972
O228	O	-0.439018	-0.205943	0.276028
C229	C	-0.955102	-0.696150	-0.161217
C230	C	-0.455102	-0.196150	0.338783
H231	H	-1.002847	-0.678893	-0.159889
H232	H	-0.502847	-0.178893	0.340111
H233	H	-0.918126	-0.673052	-0.139979
H234	H	-0.418126	-0.173052	0.360021
C235	C	-0.899485	-0.761159	-0.124785
C236	C	-0.399485	-0.261159	0.375215
C237	C	-0.958128	-0.739968	-0.123153
C238	C	-0.458128	-0.239968	0.376847
H239	H	-0.901349	-0.788187	-0.101304
H240	H	-0.401349	-0.288187	0.398696
H241	H	-0.888646	-0.767756	-0.167064
H242	H	-0.388646	-0.267756	0.332936
H243	H	-0.868677	-0.741907	-0.107087
H244	H	-0.368677	-0.241907	0.392913
H245	H	-0.988932	-0.759218	-0.140858
H246	H	-0.488932	-0.259218	0.359142
H247	H	-0.968972	-0.733375	-0.080876
H248	H	-0.468972	-0.233375	0.419124
O249	O	-0.382796	-0.592574	-1.068699
O250	O	0.117204	-0.092574	-0.568699
C251	C	-0.418337	-0.567209	-1.025574
C252	C	0.081663	-0.067209	-0.525574
H253	H	-0.392569	-0.565664	-0.978710
H254	H	0.107431	-0.065664	-0.478710
H255	H	-0.466159	-0.583642	-1.018592
H256	H	0.033841	-0.083642	-0.518592
C257	C	-0.459019	-0.521290	-1.108760
C258	C	0.040981	-0.021290	-0.608760
C259	C	-0.427368	-0.519389	-1.051203
C260	C	0.072632	-0.019389	-0.551203
H261	H	-0.464593	-0.491792	-1.124570
H262	H	0.035407	0.008208	-0.624570
H263	H	-0.435076	-0.538380	-1.137815
H264	H	0.064924	-0.038380	-0.637815
H265	H	-0.498868	-0.534985	-1.102934
H266	H	0.001132	-0.034985	-0.602934
H267	H	-0.387518	-0.505699	-1.057030
H268	H	0.112482	-0.005699	-0.557030
H269	H	-0.451304	-0.502295	-1.022149
H270	H	0.048696	-0.002295	-0.522149
O271	O	-0.382851	-0.592680	-0.939131
O272	O	0.117149	-0.092680	-0.439131
C273	C	-0.423549	-0.618241	-0.901130
C274	C	0.076451	-0.118241	-0.401130
H275	H	-0.401372	-0.652295	-0.891300
H276	H	0.098628	-0.152295	-0.391300
H277	H	-0.470192	-0.623159	-0.926469
H278	H	0.029808	-0.123159	-0.426469
C279	C	-0.462191	-0.551690	-0.850742
C280	C	0.037809	-0.051690	-0.350742
C281	C	-0.434951	-0.593515	-0.838664
C282	C	0.065049	-0.093515	-0.338664
H283	H	-0.469227	-0.536438	-0.812211
H284	H	0.030773	-0.036438	-0.312211
H285	H	-0.434774	-0.534469	-0.876345
H286	H	0.065226	-0.034469	-0.376345
H287	H	-0.501058	-0.555795	-0.871860
H288	H	-0.001058	-0.055795	-0.371860
H289	H	-0.396081	-0.589409	-0.817554
H290	H	0.103919	-0.089409	-0.317554
H291	H	-0.462361	-0.610735	-0.813056
H292	H	0.037639	-0.110735	-0.313056
H293	H	-0.190479	-0.262425	-0.416793
H294	H	0.309521	0.237575	0.083207
O295	O	-0.423096	-0.173621	-0.183408
O296	O	0.076904	0.326379	0.316592
C297	C	-0.458576	-0.204383	-0.147827
C298	C	0.041424	0.295617	0.352173
H299	H	-0.432780	-0.237825	-0.145703
H300	H	0.067220	0.262175	0.354297
H301	H	-0.506419	-0.209381	-0.170790
H302	H	-0.006419	0.290619	0.329210
C303	C	-0.499236	-0.144984	-0.083418
C304	C	0.000764	0.355016	0.416582
C305	C	-0.467549	-0.186057	-0.080805
C306	C	0.032451	0.313943	0.419195
H307	H	-0.504774	-0.133679	-0.042076
H308	H	-0.004774	0.366321	0.457924
H309	H	-0.475334	-0.124258	-0.107391
H310	H	0.024666	0.375742	0.392609
H311	H	-0.539101	-0.149154	-0.102557
H312	H	-0.039101	0.350846	0.397443
H313	H	-0.427682	-0.181885	-0.061673
H314	H	0.072318	0.318115	0.438327
H315	H	-0.491445	-0.206781	-0.056827
H316	H	0.008555	0.293219	0.443173
H317	H	-0.416808	-0.036483	-0.189819
H318	H	0.083192	0.463517	0.310181
O319	O	-0.224245	-0.705972	-0.538527
O320	O	0.275755	-0.205972	-0.038527
C321	C	-0.188728	-0.731353	-0.581654
C322	C	0.311272	-0.231353	-0.081654
H323	H	-0.186524	-0.712955	-0.628506
H324	H	0.313476	-0.212955	-0.128506
H325	H	-0.211801	-0.765464	-0.588663
H326	H	0.288199	-0.265464	-0.088663
C327	C	-0.124451	-0.760453	-0.498460
C328	C	0.375549	-0.260453	0.001540
C329	C	-0.121739	-0.737853	-0.556003
C330	C	0.378261	-0.237853	-0.056003
H331	H	-0.083129	-0.764464	-0.482637
H332	H	0.416871	-0.264464	0.017363
H333	H	-0.148380	-0.743354	-0.469404
H334	H	0.351620	-0.243354	0.030596
H335	H	-0.143681	-0.788876	-0.504309
H336	H	0.356319	-0.288876	-0.004309
H337	H	-0.102516	-0.709428	-0.550152
H338	H	0.397484	-0.209428	-0.050152
H339	H	-0.097804	-0.754947	-0.585058
H340	H	0.402196	-0.254947	-0.085058
H341	H	-0.230756	0.179274	-0.376464
H342	H	0.269244	0.679274	0.123536
H343	H	-0.662547	-0.701387	-0.230334
H344	H	-0.162547	-0.201387	0.269666
O345	O	-0.938915	-0.592685	-0.382692
O346	O	-0.438915	-0.092685	0.117308
C347	C	-0.900843	-0.618239	-0.423370
C348	C	-0.400843	-0.118239	0.076630
H349	H	-0.920636	-0.653624	-0.427310
H350	H	-0.420636	-0.153624	0.072690
H351	H	-0.851028	-0.619785	-0.403902
H352	H	-0.351028	-0.119785	0.096098
C353	C	-0.875503	-0.552805	-0.483939
C354	C	-0.375503	-0.052805	0.016061
C355	C	-0.899815	-0.596265	-0.488783
C356	C	-0.399815	-0.096265	0.011217
H357	H	-0.874866	-0.539250	-0.524289
H358	H	-0.374866	-0.039250	-0.024289
H359	H	-0.901150	-0.535588	-0.456533
H360	H	-0.401150	-0.035588	0.043467
H361	H	-0.833992	-0.554099	-0.467714
H362	H	-0.333992	-0.054099	0.032286
H363	H	-0.941328	-0.594969	-0.505001
H364	H	-0.441328	-0.094969	-0.005001
H365	H	-0.874175	-0.613481	-0.516194
H366	H	-0.374175	-0.113481	-0.016194
H367	H	-0.190517	-0.036561	-0.416801
H368	H	0.309483	0.463439	0.083199
O369	O	-0.382920	-0.389441	-0.223808
O370	O	0.117080	0.110559	0.276192
C371	C	-0.445676	-0.400911	-0.237461
C372	C	0.054324	0.099089	0.262539
H373	H	-0.447002	-0.434982	-0.261663
H374	H	0.052998	0.065018	0.238337
H375	H	-0.466939	-0.374516	-0.269781
H376	H	0.033061	0.125484	0.230219
C377	C	-0.482084	-0.361222	-0.146298
C378	C	0.017916	0.138778	0.353702
C379	C	-0.483714	-0.403071	-0.176018
C380	C	0.016286	0.096929	0.323982
H381	H	-0.505549	-0.362553	-0.108398
H382	H	-0.005549	0.137447	0.391602
H383	H	-0.439805	-0.353494	-0.137100
H384	H	0.060195	0.146506	0.362900
H385	H	-0.499802	-0.339231	-0.173238
H386	H	0.000198	0.160769	0.326762
H387	H	-0.465989	-0.425061	-0.149081
H388	H	0.034011	0.074939	0.350919
H389	H	-0.525991	-0.410804	-0.185209
H390	H	-0.025991	0.089196	0.314791
O391	O	-0.224367	0.090545	-0.382832
O392	O	0.275633	0.590545	0.117168
C393	C	-0.188906	0.121307	-0.418432
C394	C	0.311094	0.621307	0.081568
H395	H	-0.186703	0.154758	-0.392646
H396	H	0.313297	0.654758	0.107354
H397	H	-0.212027	0.126283	-0.466199
H398	H	0.287973	0.626283	0.033801
C399	C	-0.124622	0.061916	-0.459295
C400	C	0.375378	0.561916	0.040705
C401	C	-0.121911	0.103001	-0.427622
C402	C	0.378089	0.603001	0.072378
H403	H	-0.083297	0.050624	-0.464967
H404	H	0.416703	0.550624	0.035033
H405	H	-0.148514	0.041191	-0.435313
H406	H	0.351486	0.541191	0.064687
H407	H	-0.143892	0.066069	-0.499098
H408	H	0.356108	0.566069	0.000902
H409	H	-0.102649	0.098847	-0.387817
H410	H	0.397351	0.598847	0.112183
H411	H	-0.098015	0.123725	-0.451598
H412	H	0.401985	0.623725	0.048402
O413	O	-0.383044	-0.592655	-0.538385
O414	O	0.116956	-0.092655	-0.038385
C415	C	-0.445783	-0.602442	-0.554469
C416	C	0.054217	-0.102442	-0.054469
H417	H	-0.448976	-0.638329	-0.572567
H418	H	0.051024	-0.138329	-0.072567
H419	H	-0.462210	-0.578348	-0.592611
H420	H	0.037790	-0.078348	-0.092611
C421	C	-0.483890	-0.553123	-0.473837
C422	C	0.016110	-0.053123	0.026163
C423	C	-0.487813	-0.597202	-0.496060
C424	C	0.012187	-0.097202	0.003940
H425	H	-0.509817	-0.549889	-0.437809
H426	H	-0.009817	-0.049889	0.062191
H427	H	-0.441622	-0.546528	-0.463002
H428	H	0.058378	-0.046528	0.036998
H429	H	-0.497578	-0.533049	-0.505628
H430	H	0.002422	-0.033049	-0.005628
H431	H	-0.474118	-0.617274	-0.464272
H432	H	0.025882	-0.117274	0.035728
H433	H	-0.530080	-0.603800	-0.506888
H434	H	-0.030080	-0.103800	-0.006888
O435	O	-0.224256	-0.706014	-0.939240
O436	O	0.275744	-0.206014	-0.439240
C437	C	-0.260128	-0.735009	-0.901223
C438	C	0.239872	-0.235009	-0.401223
H439	H	-0.309702	-0.737763	-0.921037
H440	H	0.190298	-0.237763	-0.421037
H441	H	-0.262305	-0.721120	-0.851388
H442	H	0.237695	-0.221120	-0.351388
C443	C	-0.168520	-0.778343	-0.875910
C444	C	0.331480	-0.278343	-0.375910
C445	C	-0.229405	-0.781728	-0.900249
C446	C	0.270595	-0.281728	-0.400249
H447	H	-0.149568	-0.807161	-0.875307
H448	H	0.350432	-0.307161	-0.375307
H449	H	-0.144351	-0.758807	-0.901521
H450	H	0.355649	-0.258807	-0.401521
H451	H	-0.170342	-0.766768	-0.834384
H452	H	0.329658	-0.266768	-0.334384
H453	H	-0.227582	-0.793298	-0.941777
H454	H	0.272418	-0.293298	-0.441777
H455	H	-0.253573	-0.801267	-0.874645
H456	H	0.246427	-0.301267	-0.374645
H457	H	-0.543281	-0.701351	-0.230307
H458	H	-0.043281	-0.201351	0.269693
O459	O	-0.382845	-0.592548	-0.667931
O460	O	0.117155	-0.092548	-0.167931
C461	C	-0.369075	-0.547778	-0.651833
C462	C	0.130925	-0.047778	-0.151833
H463	H	-0.318790	-0.545528	-0.633761
H464	H	0.181210	-0.045528	-0.133761
H465	H	-0.402828	-0.536019	-0.613665
H466	H	0.097172	-0.036019	-0.113665
C467	C	-0.438124	-0.520558	-0.732412
C468	C	0.061876	-0.020558	-0.232412
C469	C	-0.376361	-0.517795	-0.710222
C470	C	0.123639	-0.017795	-0.210222
H471	H	-0.442621	-0.502063	-0.768428
H472	H	0.057379	-0.002063	-0.268428
H473	H	-0.447404	-0.550721	-0.743257
H474	H	0.052596	-0.050721	-0.243257
H475	H	-0.466245	-0.510760	-0.700600
H476	H	0.033755	-0.010760	-0.200600
H477	H	-0.348243	-0.527598	-0.742030
H478	H	0.151757	-0.027598	-0.242030
H479	H	-0.367077	-0.487633	-0.699384
H480	H	0.132923	0.012367	-0.199384
H481	H	-1.063376	-0.597160	-0.376322
H482	H	-0.563376	-0.097160	0.123678
H483	H	-0.543267	-0.597042	-0.376240
H484	H	-0.043267	-0.097042	0.123760
O485	O	-0.184123	-0.125286	-0.423154
O486	O	0.315877	0.374714	0.076846
C487	C	-0.148665	-0.094523	-0.458754
C488	C	0.351335	0.405477	0.041246
H489	H	-0.146468	-0.061070	-0.432971
H490	H	0.353532	0.438930	0.067029
H491	H	-0.171783	-0.089550	-0.506524
H492	H	0.328217	0.410450	-0.006524
C493	C	-0.084369	-0.153910	-0.499609
C494	C	0.415631	0.346090	0.000391
C495	C	-0.081666	-0.112824	-0.467939
C496	C	0.418334	0.387176	0.032061
H497	H	-0.043042	-0.165199	-0.505277
H498	H	0.456958	0.334801	-0.005277
H499	H	-0.108259	-0.174636	-0.475626
H500	H	0.391741	0.325364	0.024374
H501	H	-0.103637	-0.149761	-0.539413
H502	H	0.396363	0.350239	-0.039413
H503	H	-0.062406	-0.116975	-0.428132
H504	H	0.437594	0.383025	0.071868
H505	H	-0.057772	-0.092099	-0.491915
H506	H	0.442228	0.407901	0.008085
O507	O	-0.667607	-0.592544	-0.382643
O508	O	-0.167607	-0.092544	0.117357
C509	C	-0.624495	-0.567154	-0.418123
C510	C	-0.124495	-0.067154	0.081877
H511	H	-0.577620	-0.585543	-0.420321
H512	H	-0.077620	-0.085543	0.079679
H513	H	-0.617535	-0.533041	-0.395023
H514	H	-0.117535	-0.033041	0.104977
C515	C	-0.707696	-0.538073	-0.482414
C516	C	-0.207696	-0.038073	0.017586
C517	C	-0.650125	-0.560661	-0.485119
C518	C	-0.150125	-0.060661	0.014881
H519	H	-0.723506	-0.534066	-0.523740
H520	H	-0.223506	-0.034066	-0.023740
H521	H	-0.736742	-0.555177	-0.458509
H522	H	-0.236742	-0.055177	0.041491
H523	H	-0.701888	-0.509648	-0.463162
H524	H	-0.201888	-0.009648	0.036838
H525	H	-0.655934	-0.589087	-0.504364
H526	H	-0.155934	-0.089087	-0.004364
H527	H	-0.621080	-0.543561	-0.509029
H528	H	-0.121080	-0.043561	-0.009029
H529	H	-0.416788	-0.121592	-0.189808
H530	H	0.083212	0.378408	0.310192
O531	O	-0.224303	-0.389503	-0.382854
O532	O	0.275697	0.110497	0.117146
C533	C	-0.188806	-0.420285	-0.418432
C534	C	0.311194	0.079715	0.081568
H535	H	-0.214587	-0.453731	-0.420556
H536	H	0.285413	0.046269	0.079444
H537	H	-0.140963	-0.425263	-0.395464
H538	H	0.359037	0.074737	0.104536
C539	C	-0.148169	-0.360925	-0.482840
C540	C	0.351831	0.139075	0.017160
C541	C	-0.179836	-0.402003	-0.485454
C542	C	0.320164	0.097997	0.014546
H543	H	-0.142633	-0.349647	-0.524182
H544	H	0.357367	0.150353	-0.024182
H545	H	-0.172082	-0.340186	-0.458870
H546	H	0.327918	0.159814	0.041130
H547	H	-0.108304	-0.365079	-0.463698
H548	H	0.391696	0.134921	0.036302
H549	H	-0.219704	-0.397847	-0.504588
H550	H	0.280296	0.102153	-0.004588
H551	H	-0.155930	-0.422741	-0.509429
H552	H	0.344070	0.077259	-0.009429
H553	H	-0.376614	0.094199	-0.230122
H554	H	0.123386	0.594199	0.269878
H555	H	-0.376489	-0.478189	-0.230106
H556	H	0.123511	0.021811	0.269894
O557	O	-0.383018	0.183029	-0.223883
O558	O	0.116982	0.683029	0.276117
C559	C	-0.423714	0.210162	-0.259660
C560	C	0.076286	0.710162	0.240340
H561	H	-0.427666	0.196002	-0.309229
H562	H	0.072334	0.696002	0.190771
H563	H	-0.404256	0.245719	-0.261869
H564	H	0.095744	0.745719	0.238131
C565	C	-0.484258	0.228292	-0.167916
C566	C	0.015742	0.728292	0.332084
C567	C	-0.489117	0.210897	-0.228796
C568	C	0.010883	0.710897	0.271204
H569	H	-0.524601	0.228747	-0.148877
H570	H	-0.024601	0.728747	0.351123
H571	H	-0.456839	0.210013	-0.143812
H572	H	0.043161	0.710013	0.356188
H573	H	-0.468041	0.257920	-0.169765
H574	H	0.031959	0.757920	0.330235
H575	H	-0.505327	0.181267	-0.226946
H576	H	-0.005327	0.681267	0.273054
H577	H	-0.516540	0.229171	-0.252900
H578	H	-0.016540	0.729171	0.247100
H579	H	-0.190490	-0.177307	-0.416800
H580	H	0.309510	0.322693	0.083200
H581	H	-1.063384	-0.701480	-0.230396
H582	H	-0.563384	-0.201480	0.269604
O583	O	-0.224197	-0.705897	-0.668062
O584	O	0.275803	-0.205897	-0.168062
C585	C	-0.183519	-0.680341	-0.706091
C586	C	0.316481	-0.180341	-0.206091
H587	H	-0.179604	-0.644960	-0.686259
H588	H	0.320396	-0.144960	-0.186259
H589	H	-0.202971	-0.678784	-0.755912
H590	H	0.297029	-0.178784	-0.255912
C591	C	-0.122908	-0.745779	-0.731482
C592	C	0.377092	-0.245779	-0.231482
C593	C	-0.118095	-0.702324	-0.707120
C594	C	0.381905	-0.202324	-0.207120
H595	H	-0.082551	-0.759340	-0.732120
H596	H	0.417449	-0.259340	-0.232120
H597	H	-0.150314	-0.762997	-0.705863
H598	H	0.349686	-0.262997	-0.205863
H599	H	-0.139119	-0.744476	-0.772997
H600	H	0.360881	-0.244476	-0.272997
H601	H	-0.101891	-0.703629	-0.665604
H602	H	0.398109	-0.203629	-0.165604
H603	H	-0.090684	-0.685107	-0.732732
H604	H	0.409316	-0.185107	-0.232732
H605	H	-0.416745	-0.262347	-0.189803
H606	H	0.083255	0.237653	0.310197
