data_functionalizedCrystal
_audit_creation_method	'MofGen! by Chris Wilmer'
_symmetry_space_group_name_H-M	'P1'
_symmetry_Int_Tables_number	1
_symmetry_cell_setting	triclinic
loop_
_symmetry_equiv_pos_as_xyz
  x,y,z
_cell_length_a	15.995350
_cell_length_b	14.971486
_cell_length_c	13.448316
_cell_angle_alpha	89.996136
_cell_angle_beta	89.998570
_cell_angle_gamma	83.553252
loop_
_atom_site_label
_atom_site_type_symbol
_atom_site_fract_x
_atom_site_fract_y
_atom_site_fract_z
O1	O	-1.111102	-0.115292	0.082608
O2	O	-0.777768	0.218041	0.415941
O3	O	-0.444435	0.551375	0.749275
O4	O	-0.867341	-0.129529	0.082629
O5	O	-0.534007	0.203804	0.415962
O6	O	-0.200674	0.537137	0.749295
O7	O	-0.995755	0.007797	0.082611
O8	O	-0.662421	0.341130	0.415944
O9	O	-0.329088	0.674464	0.749277
O10	O	-0.982688	-0.252618	0.082626
O11	O	-0.649355	0.080715	0.415959
O12	O	-0.316021	0.414049	0.749293
O13	O	-0.995742	0.007798	-0.082773
O14	O	-0.662409	0.341131	0.250560
O15	O	-0.329075	0.674465	0.583894
O16	O	-0.867328	-0.129528	-0.082755
O17	O	-0.533995	0.203805	0.250578
O18	O	-0.200661	0.537139	0.583911
O19	O	-1.111089	-0.115291	-0.082776
O20	O	-0.777756	0.218043	0.250558
O21	O	-0.444422	0.551376	0.583891
Cu22	Cu	-0.989207	-0.122409	-0.097866
Cu23	Cu	-0.655874	0.210924	0.235467
Cu24	Cu	-0.322541	0.544257	0.568800
Cu25	Cu	-0.989222	-0.122411	0.097719
Cu26	Cu	-0.655889	0.210923	0.431053
Cu27	Cu	-0.322556	0.544256	0.764386
O28	O	-0.982675	-0.252617	-0.082758
O29	O	-0.649342	0.080716	0.250576
O30	O	-0.316008	0.414050	0.583909
C31	C	-0.836139	-0.128940	-0.000061
C32	C	-0.502806	0.204393	0.333273
C33	C	-0.169472	0.537727	0.666606
C34	C	-0.743187	-0.127175	-0.000053
C35	C	-0.409854	0.206158	0.333280
C36	C	-0.076520	0.539491	0.666614
C37	C	-0.995164	0.041122	-0.000081
C38	C	-0.661831	0.374455	0.333252
C39	C	-0.328497	0.707788	0.666586
C40	C	-0.993413	0.140417	-0.000080
C41	C	-0.660079	0.473750	0.333254
C42	C	-0.326746	0.807083	0.666587
C43	C	-1.142291	-0.115880	-0.000084
C44	C	-0.808957	0.217453	0.333249
C45	C	-0.475624	0.550787	0.666582
C46	C	-1.235243	-0.117645	-0.000085
C47	C	-0.901910	0.215689	0.333248
C48	C	-0.568576	0.549022	0.666581
C49	C	-0.405433	-0.120838	-0.000074
C50	C	-0.072100	0.212495	0.333259
C51	C	0.261234	0.545828	0.666593
C52	C	-0.452769	-0.023037	-0.000449
C53	C	-0.119436	0.310296	0.332885
C54	C	0.213897	0.643630	0.666218
C55	C	-0.549461	-0.024802	-0.000069
C56	C	-0.216128	0.308531	0.333264
C57	C	0.117206	0.641865	0.666598
C58	C	-0.572997	-0.123982	-0.000064
C59	C	-0.239663	0.209352	0.333269
C60	C	0.093670	0.542685	0.666602
C61	C	-0.531965	-0.172221	0.094377
C62	C	-0.198632	0.161112	0.427710
C63	C	0.134701	0.494445	0.761044
C64	C	-0.435327	-0.169764	0.094449
C65	C	-0.101994	0.163569	0.427782
C66	C	0.231340	0.496902	0.761116
C67	C	-0.434976	-0.171784	-0.093623
C68	C	-0.101642	0.161550	0.239710
C69	C	0.231691	0.494883	0.573043
C70	C	-0.531921	-0.171760	-0.094865
C71	C	-0.198588	0.161573	0.238469
C72	C	0.134746	0.494906	0.571802
C73	C	-0.667696	-0.125763	-0.000055
C74	C	-0.334363	0.207570	0.333278
C75	C	-0.001029	0.540903	0.666611
C76	C	-0.310733	-0.119060	-0.000076
C77	C	0.022600	0.214274	0.333257
C78	C	0.355933	0.547607	0.666590
C79	C	-0.983266	-0.285942	-0.000064
C80	C	-0.649932	0.047392	0.333269
C81	C	-0.316599	0.380725	0.666603
C82	C	-0.985017	-0.385237	-0.000059
C83	C	-0.651684	-0.051903	0.333275
C84	C	-0.318350	0.281430	0.666608
N85	N	-0.989203	-0.122408	-0.235431
N86	N	-0.655869	0.210926	0.097903
N87	N	-0.322536	0.544259	0.431236
C88	C	-1.068852	0.197728	-0.000087
C89	C	-0.735519	0.531061	0.333246
C90	C	-0.402186	0.864395	0.666580
C91	C	-1.067202	0.291026	-0.000077
C92	C	-0.733869	0.624359	0.333257
C93	C	-0.400535	0.957692	0.666590
C94	C	-0.990111	0.327010	-0.000067
C95	C	-0.656778	0.660343	0.333267
C96	C	-0.323444	0.993677	0.666600
C97	C	-0.914666	0.269691	-0.000057
C98	C	-0.581332	0.603024	0.333277
C99	C	-0.247999	0.936358	0.666610
C100	C	-0.916317	0.176395	-0.000060
C101	C	-0.582984	0.509729	0.333274
C102	C	-0.249650	0.843062	0.666607
C103	C	-0.911229	0.464150	-0.000053
C104	C	-0.577896	0.797483	0.333281
C105	C	-0.244562	1.130816	0.666614
C106	C	-0.909577	0.557452	-0.000052
C107	C	-0.576244	0.890785	0.333282
C108	C	-0.242911	1.224119	0.666615
C109	C	-1.062114	0.578780	-0.000070
C110	C	-0.728781	0.912113	0.333264
C111	C	-0.395448	1.245447	0.666597
C112	C	-1.063766	0.485484	-0.000073
C113	C	-0.730432	0.818818	0.333260
C114	C	-0.397099	1.152151	0.666594
C115	C	-0.988320	0.428172	-0.000065
C116	C	-0.654986	0.761505	0.333269
C117	C	-0.321653	1.094838	0.666602
C118	C	-1.040035	-0.176691	-0.287468
C119	C	-0.706702	0.156643	0.045866
C120	C	-0.373369	0.489976	0.379199
C121	C	-1.040046	-0.176687	-0.391571
C122	C	-0.706712	0.156646	-0.058238
C123	C	-0.373379	0.489980	0.275096
C124	C	-0.989219	-0.122404	-0.443635
C125	C	-0.655885	0.210929	-0.110302
C126	C	-0.322552	0.544263	0.223031
C127	C	-0.938384	-0.068115	-0.391591
C128	C	-0.605051	0.265218	-0.058257
C129	C	-0.271717	0.598552	0.275076
C130	C	-0.938379	-0.068115	-0.287489
C131	C	-0.605045	0.265219	0.045844
C132	C	-0.271712	0.598552	0.379177
C133	C	-0.938397	-0.068121	-0.608571
C134	C	-0.605064	0.265212	-0.275237
C135	C	-0.271731	0.598546	0.058096
C136	C	-0.938401	-0.068122	-0.712679
C137	C	-0.605068	0.265211	-0.379346
C138	C	-0.271735	0.598545	-0.046013
C139	C	-1.040064	-0.176693	-0.712652
C140	C	-0.706731	0.156640	-0.379319
C141	C	-0.373398	0.489973	-0.045986
C142	C	-1.040059	-0.176693	-0.608551
C143	C	-0.706726	0.156640	-0.275218
C144	C	-0.373392	0.489974	0.058116
C145	C	-0.989223	-0.122405	-0.556514
C146	C	-0.655890	0.210929	-0.223180
C147	C	-0.322556	0.544262	0.110153
N148	N	-0.989234	-0.122405	0.235283
N149	N	-0.655900	0.210928	0.568617
N150	N	-0.322567	0.544261	0.901950
H151	H	-0.434203	0.016057	-0.068177
H152	H	-0.100869	0.349390	0.265157
H153	H	0.232464	0.682724	0.598490
C154	C	-0.570248	-0.126959	0.189324
C155	C	-0.236914	0.206374	0.522657
C156	C	0.096419	0.539708	0.855990
H157	H	-0.611225	-0.078671	0.171613
H158	H	-0.277892	0.254662	0.504946
H159	H	0.055442	0.587996	0.838279
H160	H	-0.596028	-0.169679	0.227537
H161	H	-0.262694	0.163654	0.560870
H162	H	0.070639	0.496988	0.894203
H163	H	-0.527103	-0.104583	0.227389
H164	H	-0.193769	0.228750	0.560722
H165	H	0.139564	0.562084	0.894056
H166	H	-0.854886	0.129732	-0.000054
H167	H	-0.521553	0.463066	0.333280
H168	H	-0.188219	0.796399	0.666613
H169	H	-1.131629	0.168438	-0.000101
H170	H	-0.798296	0.501771	0.333232
H171	H	-0.464962	0.835104	0.666565
C172	C	-1.095967	-0.236403	-0.551282
C173	C	-0.762633	0.096930	-0.217949
C174	C	-0.429300	0.430264	0.115385
H175	H	-1.126249	-0.268729	-0.597181
H176	H	-0.792916	0.064605	-0.263848
H177	H	-0.459583	0.397938	0.069486
H178	H	-1.061693	-0.277544	-0.510670
H179	H	-0.728360	0.055789	-0.177337
H180	H	-0.395026	0.389123	0.155997
H181	H	-1.134465	-0.199764	-0.510673
H182	H	-0.801131	0.133569	-0.177340
H183	H	-0.467798	0.466903	0.155993
H184	H	-1.126540	0.456189	-0.000088
H185	H	-0.793206	0.789523	0.333245
H186	H	-0.459873	1.122856	0.666578
H187	H	-0.414403	-0.139810	-0.165207
H188	H	-0.081069	0.193524	0.168126
H189	H	0.252264	0.526857	0.501459
C190	C	-1.095950	-0.236398	-0.230206
C191	C	-0.762617	0.096935	0.103127
C192	C	-0.429284	0.430268	0.436460
H193	H	-1.126232	-0.268719	-0.276111
H194	H	-0.792899	0.064615	0.057222
H195	H	-0.459566	0.397948	0.390555
H196	H	-1.061683	-0.277544	-0.189593
H197	H	-0.728350	0.055789	0.143741
H198	H	-0.395017	0.389122	0.477074
H199	H	-1.134449	-0.199758	-0.189600
H200	H	-0.801115	0.133576	0.143733
H201	H	-0.467782	0.466909	0.477067
C202	C	-0.882475	-0.008409	-0.551332
C203	C	-0.549142	0.324925	-0.217998
C204	C	-0.215809	0.658258	0.115335
H205	H	-0.852198	0.023913	-0.597247
H206	H	-0.518864	0.357246	-0.263914
H207	H	-0.185531	0.690579	0.069420
H208	H	-0.916740	0.032736	-0.510718
H209	H	-0.583406	0.366070	-0.177385
H210	H	-0.250073	0.699403	0.155948
H211	H	-0.843973	-0.045049	-0.510727
H212	H	-0.510640	0.288284	-0.177393
H213	H	-0.177306	0.621618	0.155940
H214	H	-0.897004	-0.023912	-0.433990
H215	H	-0.563671	0.309421	-0.100656
H216	H	-0.230337	0.642754	0.232677
H217	H	-0.896985	-0.023912	-0.245122
H218	H	-0.563652	0.309421	0.088211
H219	H	-0.230319	0.642755	0.421545
C220	C	-0.392169	-0.269193	-0.094492
C221	C	-0.058835	0.064140	0.238841
C222	C	0.274498	0.397473	0.572174
H223	H	-0.410272	-0.299638	-0.151184
H224	H	-0.076939	0.033696	0.182149
H225	H	0.256395	0.367029	0.515483
H226	H	-0.332852	-0.268855	-0.096922
H227	H	0.000481	0.064479	0.236411
H228	H	0.333814	0.397812	0.569745
H229	H	-0.406986	-0.299187	-0.035902
H230	H	-0.073652	0.034147	0.297432
H231	H	0.259681	0.367480	0.630765
C232	C	-1.150186	0.354065	-0.000095
C233	C	-0.816852	0.687398	0.333239
C234	C	-0.483519	1.020731	0.666572
H235	H	-1.196334	0.319272	-0.000116
H236	H	-0.863001	0.652605	0.333218
H237	H	-0.529668	0.985938	0.666551
H238	H	-1.152725	0.390900	0.057578
H239	H	-0.819392	0.724234	0.390911
H240	H	-0.486059	1.057567	0.724245
H241	H	-1.152701	0.390904	-0.057775
H242	H	-0.819368	0.724238	0.275558
H243	H	-0.486034	1.057571	0.608891
H244	H	-1.081453	-0.220900	-0.755026
H245	H	-0.748120	0.112433	-0.421693
H246	H	-0.414787	0.445766	-0.088360
C247	C	-0.551149	-0.270652	0.099138
C248	C	-0.217816	0.062681	0.432471
C249	C	0.115518	0.396015	0.765804
H250	H	-0.584436	-0.283231	0.043440
H251	H	-0.251102	0.050103	0.376773
H252	H	0.082231	0.383436	0.710107
H253	H	-0.499901	-0.309436	0.098261
H254	H	-0.166568	0.023897	0.431594
H255	H	0.166766	0.357231	0.764928
H256	H	-0.580964	-0.280008	0.158647
H257	H	-0.247631	0.053325	0.491980
H258	H	0.085703	0.386658	0.825314
C259	C	-0.587055	0.026756	0.091545
C260	C	-0.253722	0.360090	0.424878
C261	C	0.079611	0.693423	0.758212
H262	H	-0.543223	0.048856	0.128681
H263	H	-0.209890	0.382189	0.462014
H264	H	0.123444	0.715522	0.795347
H265	H	-0.625977	0.075706	0.070488
H266	H	-0.292644	0.409039	0.403822
H267	H	0.040689	0.742372	0.737155
H268	H	-0.615147	-0.012495	0.132002
H269	H	-0.281814	0.320838	0.465335
H270	H	0.051519	0.654171	0.798668
H271	H	-0.897012	-0.023921	-0.755067
H272	H	-0.563679	0.309412	-0.421734
H273	H	-0.230346	0.642745	-0.088401
C274	C	-0.587812	0.026422	-0.091522
C275	C	-0.254479	0.359755	0.241811
C276	C	0.078854	0.693089	0.575144
H277	H	-0.544303	0.048505	-0.129239
H278	H	-0.210969	0.381838	0.204094
H279	H	0.122364	0.715171	0.537428
H280	H	-0.616139	-0.012999	-0.131472
H281	H	-0.282806	0.320335	0.201861
H282	H	0.050528	0.653668	0.535195
H283	H	-0.626645	0.075379	-0.070273
H284	H	-0.293312	0.408713	0.263061
H285	H	0.040021	0.742046	0.596394
C286	C	-0.426254	0.029538	0.090527
C287	C	-0.092920	0.362871	0.423860
C288	C	0.240413	0.696204	0.757193
H289	H	-0.386463	-0.007857	0.128739
H290	H	-0.053130	0.325477	0.462073
H291	H	0.280204	0.658810	0.795406
H292	H	-0.401658	0.081025	0.068806
H293	H	-0.068324	0.414358	0.402139
H294	H	0.265009	0.747692	0.735473
H295	H	-0.474285	0.047865	0.130174
H296	H	-0.140952	0.381199	0.463508
H297	H	0.192381	0.714532	0.796841
H298	H	-1.123545	0.625449	-0.000073
H299	H	-0.790212	0.958782	0.333260
H300	H	-0.456878	1.292115	0.666593
C301	C	-0.568760	-0.124189	-0.189252
C302	C	-0.235427	0.209144	0.144082
C303	C	0.097907	0.542478	0.477415
H304	H	-0.609009	-0.075416	-0.170972
H305	H	-0.275676	0.257918	0.162361
H306	H	0.057658	0.591251	0.495694
H307	H	-0.524841	-0.102218	-0.226343
H308	H	-0.191508	0.231116	0.106990
H309	H	0.141825	0.564449	0.440324
H310	H	-0.595178	-0.165588	-0.228663
H311	H	-0.261845	0.167745	0.104671
H312	H	0.071489	0.501078	0.438004
H313	H	-0.416989	-0.134587	0.165042
H314	H	-0.083656	0.198746	0.498376
H315	H	0.249678	0.532080	0.831709
H316	H	-0.846803	0.586747	-0.000059
H317	H	-0.513470	0.920080	0.333274
H318	H	-0.180136	1.253413	0.666607
H319	H	-0.849793	0.417488	-0.000043
H320	H	-0.516459	0.750821	0.333290
H321	H	-0.183126	1.084154	0.666623
H322	H	-0.403151	-0.241568	0.098738
H323	H	-0.069817	0.091765	0.432072
H324	H	0.263516	0.425098	0.765405
H325	H	-0.547358	-0.244085	-0.100565
H326	H	-0.214025	0.089248	0.232768
H327	H	0.119309	0.422581	0.566101
C328	C	-0.829865	0.309267	-0.000038
C329	C	-0.496532	0.642600	0.333296
C330	C	-0.163198	0.975934	0.666629
H331	H	-0.785172	0.261770	-0.000023
H332	H	-0.451839	0.595103	0.333310
H333	H	-0.118505	0.928436	0.666644
H334	H	-0.826040	0.345224	-0.057707
H335	H	-0.492707	0.678557	0.275626
H336	H	-0.159373	1.011890	0.608959
H337	H	-0.826060	0.345212	0.057646
H338	H	-0.492727	0.678545	0.390979
H339	H	-0.159393	1.011879	0.724312
H340	H	-1.081440	-0.220888	-0.433935
H341	H	-0.748107	0.112445	-0.100602
H342	H	-0.414773	0.445779	0.232732
