data_functionalizedCrystal
_audit_creation_method	'MofGen! by Chris Wilmer'
_symmetry_space_group_name_H-M	'P1'
_symmetry_Int_Tables_number	1
_symmetry_cell_setting	triclinic
loop_
_symmetry_equiv_pos_as_xyz
  x,y,z
_cell_length_a	21.395364
_cell_length_b	13.032721
_cell_length_c	13.032268
_cell_angle_alpha	103.289627
_cell_angle_beta	97.160422
_cell_angle_gamma	97.219379
loop_
_atom_site_label
_atom_site_type_symbol
_atom_site_fract_x
_atom_site_fract_y
_atom_site_fract_z
Zn1	Zn	0.870063	-0.498700	-0.654171
Zn2	Zn	0.869994	-0.653785	-0.499118
Zn3	Zn	0.780525	-0.476234	-0.476594
Zn4	Zn	0.750027	-0.676311	-0.676665
O5	O	0.817652	-0.576258	-0.576637
O6	O	0.957733	-0.519247	-0.633616
O7	O	0.870861	-0.611403	-0.347510
O8	O	0.805195	-0.330578	-0.481309
O9	O	0.957682	-0.633187	-0.519699
O10	O	0.870978	-0.347084	-0.611774
O11	O	0.805128	-0.480957	-0.330961
O12	O	0.688800	-0.502800	-0.503121
O13	O	0.753215	-0.671580	-0.822301
O14	O	0.666393	-0.649796	-0.650112
O15	O	0.841405	-0.541090	-0.805775
O16	O	0.841288	-0.805409	-0.541511
O17	O	0.753148	-0.821959	-0.671953
C18	C	0.654863	-0.576305	-0.576614
C19	C	0.585216	-0.576355	-0.576632
C20	C	0.552533	-0.517151	-0.636067
C21	C	0.487100	-0.517123	-0.636068
C22	C	0.454350	-0.576320	-0.576647
C23	C	0.487041	-0.635527	-0.517199
C24	C	0.552475	-0.635544	-0.517191
C25	C	0.343159	-0.670894	-0.580256
C26	C	0.277726	-0.670879	-0.580271
C27	C	0.252532	-0.576264	-0.576663
C28	C	0.292777	-0.481664	-0.573062
C29	C	0.358211	-0.481681	-0.573055
C30	C	0.383398	-0.576307	-0.576647
C31	C	0.148899	-0.517025	-0.636102
C32	C	0.083465	-0.516994	-0.636094
C33	C	0.083406	-0.635408	-0.517232
C34	C	0.148840	-0.635428	-0.517232
C35	C	0.181582	-0.576239	-0.576673
C36	C	0.793916	-0.852226	-0.611641
C37	C	0.783816	-0.970292	-0.626651
C38	C	0.822953	-1.014712	-0.568851
C39	C	0.812515	-1.136738	-0.584363
C40	C	0.981077	-0.576210	-0.576661
C41	C	1.050719	-0.576190	-0.576671
C42	C	0.793915	-0.611354	-0.853651
C43	C	0.783800	-0.626310	-0.971698
C44	C	0.841496	-0.299214	-0.541520
C45	C	0.851657	-0.181154	-0.526555
C46	C	0.822925	-0.568414	-1.016150
C47	C	0.812471	-0.583870	-1.138158
C48	C	0.841339	-0.541221	-0.300691
C49	C	0.851602	-0.525966	-0.182606
H50	H	0.175559	-0.468822	-0.684494
H51	H	0.742561	-0.687312	-1.023966
H52	H	0.579187	-0.468953	-0.684468
H53	H	0.771229	-0.644877	-1.190422
C54	C	0.728112	-1.040944	-0.709020
H55	H	0.704915	-0.997252	-0.743278
H56	H	0.700636	-1.079137	-0.673826
H57	H	0.744425	-1.090019	-0.760791
C58	C	0.907312	-0.443540	-1.112011
H59	H	0.907033	-0.443968	-1.039270
H60	H	0.902743	-0.374458	-1.121091
H61	H	0.946531	-0.461362	-1.132113
H62	H	0.864158	-0.507400	-0.963881
H63	H	0.460485	-0.468907	-0.684465
C64	C	0.907366	-1.110509	-0.444185
H65	H	0.930568	-1.154204	-0.409940
H66	H	0.891062	-1.061426	-0.392418
H67	H	0.934845	-1.072325	-0.479392
H68	H	0.771280	-1.189045	-0.645340
H69	H	0.390976	-0.404654	-0.570119
H70	H	0.056856	-0.468777	-0.684491
C71	C	0.265073	-0.377582	-0.569097
H72	H	0.220341	-0.391114	-0.569606
H73	H	0.273180	-0.351924	-0.629514
H74	H	0.284599	-0.325504	-0.505712
H75	H	0.460372	-0.683724	-0.468817
C76	C	0.047392	-0.700521	-0.451864
H77	H	0.076233	-0.735781	-0.416461
H78	H	0.014396	-0.751994	-0.498290
H79	H	0.029338	-0.653946	-0.400490
C80	C	0.184794	-0.700564	-0.451866
H81	H	0.228455	-0.692091	-0.460367
H82	H	0.166591	-0.773906	-0.476348
H83	H	0.181527	-0.675861	-0.378544
C84	C	0.233459	-0.774932	-0.584239
H85	H	0.190880	-0.761376	-0.583742
H86	H	0.246795	-0.800599	-0.523821
H87	H	0.235384	-0.827015	-0.647622
C88	C	0.370864	-0.774979	-0.584233
H89	H	0.337524	-0.831318	-0.586397
H90	H	0.401787	-0.765721	-0.522487
H91	H	0.390366	-0.792120	-0.646288
H92	H	0.579085	-0.683757	-0.468791
H93	H	0.864189	-0.962405	-0.507885
