data_functionalizedCrystal
_audit_creation_method	'MofGen! by Chris Wilmer'
_symmetry_space_group_name_H-M	'P1'
_symmetry_Int_Tables_number	1
_symmetry_cell_setting	triclinic
loop_
_symmetry_equiv_pos_as_xyz
  x,y,z
_cell_length_a	16.974885
_cell_length_b	9.065218
_cell_length_c	8.140239
_cell_angle_alpha	90.002802
_cell_angle_beta	93.650314
_cell_angle_gamma	95.795794
loop_
_atom_site_label
_atom_site_type_symbol
_atom_site_fract_x
_atom_site_fract_y
_atom_site_fract_z
O1	O	0.115934	-1.957272	-0.121211
O2	O	0.125443	-1.527730	-0.119950
O3	O	0.005672	-1.754476	-0.135854
O4	O	0.235704	-1.730526	-0.105307
O5	O	0.005671	-1.754463	0.137372
O6	O	0.125442	-1.527718	0.153277
O7	O	0.115932	-1.957259	0.152016
Zn8	Zn	0.120687	-1.742487	0.196027
Zn9	Zn	0.120689	-1.742503	-0.163961
O10	O	0.235703	-1.730514	0.167920
C11	C	0.124528	-1.472762	0.016542
C12	C	0.121796	-1.308993	0.016178
C13	C	-0.023793	-1.753559	-0.003157
C14	C	-0.111588	-1.750826	-0.014827
C15	C	-0.152843	-1.749532	0.128620
C16	C	-0.235336	-1.746975	0.117640
C17	C	-0.276573	-1.745700	-0.036787
C18	C	-0.235313	-1.746999	-0.180244
C19	C	-0.152822	-1.749567	-0.169263
C20	C	-0.523285	-1.738030	-0.085598
C21	C	-0.605782	-1.735457	-0.096568
C22	C	-0.605799	-1.735436	0.201318
C23	C	-0.523306	-1.737995	0.212285
C24	C	-0.482054	-1.739302	0.068828
N25	N	-0.360895	-1.743081	-0.048013
N26	N	-0.397735	-1.741931	0.080055
C27	C	0.116847	-2.012227	0.015520
C28	C	0.119579	-2.175997	0.015873
C29	C	0.265168	-1.731431	0.035220
C30	C	0.352963	-1.734163	0.046878
N31	N	0.120685	-1.742486	0.441709
N32	N	0.120684	-1.742515	-0.409644
H33	H	-0.119272	-1.750545	0.254371
H34	H	-0.639396	-1.734374	0.318112
N35	N	-0.279793	-1.745634	-0.346801
H36	H	-0.308261	-1.653160	-0.357235
H37	H	-0.241095	-1.746906	-0.435912
H38	H	-0.489738	-1.739065	0.338035
H39	H	-0.119234	-1.750622	-0.286073
N40	N	-0.279838	-1.745547	0.272346
H41	H	-0.319821	-1.835885	0.273682
H42	H	-0.241150	-1.746673	0.371764
H43	H	-0.639354	-1.734405	-0.222327
N44	N	-0.478798	-1.739435	-0.240319
H45	H	-0.517441	-1.738231	-0.339809
H46	H	-0.438815	-1.649093	-0.241492
