data_functionalizedCrystal
_audit_creation_method	'MofGen! by Chris Wilmer'
_symmetry_space_group_name_H-M	'P1'
_symmetry_Int_Tables_number	1
_symmetry_cell_setting	triclinic
loop_
_symmetry_equiv_pos_as_xyz
  x,y,z
_cell_length_a	12.594517
_cell_length_b	12.594516
_cell_length_c	12.827879
_cell_angle_alpha	89.939291
_cell_angle_beta	89.963133
_cell_angle_gamma	90.016010
loop_
_atom_site_label
_atom_site_type_symbol
_atom_site_fract_x
_atom_site_fract_y
_atom_site_fract_z
Zn1	Zn	1.627504	-0.423349	-0.590730
Zn2	Zn	1.627325	-0.601466	-0.415996
Zn3	Zn	1.449438	-0.423502	-0.416018
Zn4	Zn	1.449490	-0.601286	-0.590710
O5	O	1.538439	-0.512401	-0.503363
O6	O	1.776426	-0.446988	-0.567550
O7	O	1.603631	-0.577999	-0.269762
O8	O	1.473112	-0.274536	-0.439212
O9	O	1.776294	-0.577850	-0.439173
O10	O	1.603936	-0.274423	-0.567572
O11	O	1.472938	-0.447249	-0.269779
O12	O	1.300499	-0.447074	-0.439192
O13	O	1.473201	-0.577542	-0.736949
O14	O	1.300537	-0.577691	-0.567538
O15	O	1.603987	-0.446813	-0.736964
O16	O	1.603681	-0.750388	-0.439154
O17	O	1.473027	-0.750255	-0.567516
C18	C	1.261898	-0.512380	-0.503366
C19	C	1.143593	-0.512397	-0.503392
C20	C	1.538369	-0.788942	-0.503353
C21	C	1.538437	-0.907247	-0.503384
C22	C	1.003628	-0.583568	-0.573070
C23	C	1.074360	-0.609534	-0.477696
C24	C	1.074432	-0.486478	-0.598755
C25	C	1.003539	-0.538448	-0.407937
C26	C	1.003605	-0.415346	-0.529060
C27	C	1.074305	-0.441276	-0.433620
C28	C	1.467367	-0.976467	-0.573151
C29	C	1.441395	-1.047391	-0.477798
C30	C	1.564505	-1.047122	-0.598753
C31	C	1.512414	-0.976613	-0.407980
C32	C	1.635569	-0.976338	-0.529000
C33	C	1.609634	-1.047230	-0.433581
C34	C	1.816060	-0.512422	-0.503362
C35	C	1.934365	-0.512431	-0.503361
C36	C	1.538620	-0.512140	-0.775934
C37	C	1.538697	-0.512029	-0.892087
C38	C	1.538538	-0.234780	-0.503397
C39	C	1.538580	-0.116474	-0.503411
C40	C	1.538320	-0.512583	-0.231853
C41	C	1.538450	-0.512395	-0.115700
C42	C	1.603771	-0.576334	0.056185
C43	C	1.603639	-0.576531	-0.063865
H44	H	0.972594	-0.643787	-0.631933
H45	H	1.105571	-0.464541	-0.679415
H46	H	1.659351	-0.631587	-0.108351
C47	C	1.678127	-0.649730	0.115500
C48	C	1.655684	-0.755270	0.089321
C49	C	1.724167	-0.822914	0.143930
H50	H	1.668390	-0.640010	0.188302
H51	H	1.749550	-0.633755	0.097482
H52	H	1.584278	-0.771240	0.107346
H53	H	1.665428	-0.765024	0.016529
H54	H	1.795591	-0.806939	0.125912
H55	H	1.714425	-0.813184	0.216729
H56	H	1.708956	-0.894529	0.126168
H57	H	1.482731	-0.457341	-0.071222
C58	C	1.387186	-0.934819	-0.651693
C59	C	1.388827	-0.823663	-0.651338
C60	C	1.314989	-0.785259	-0.723682
H61	H	1.318201	-0.959038	-0.633423
H62	H	1.404985	-0.959940	-0.719290
H63	H	1.371022	-0.798552	-0.583757
H64	H	1.457795	-0.799415	-0.669620
H65	H	1.332788	-0.810380	-0.791278
H66	H	1.246009	-0.809486	-0.705404
H67	H	1.316100	-0.709836	-0.723457
H68	H	1.105439	-0.691623	-0.455965
C69	C	1.464139	-0.438991	0.048416
C70	C	1.396309	-0.499910	-0.013951
C71	C	1.327600	-0.432664	-0.068759
H72	H	1.504398	-0.392409	0.005560
H73	H	1.423266	-0.398643	0.096406
H74	H	1.437178	-0.540241	-0.061935
H75	H	1.356027	-0.546490	0.028879
H76	H	1.286727	-0.392316	-0.020768
H77	H	1.367867	-0.386086	-0.111608
H78	H	1.281562	-0.473988	-0.111073
H79	H	0.972531	-0.560484	-0.327254
C80	C	1.331945	-1.088864	-0.448741
C81	C	1.304258	-1.051583	-0.349597
C82	C	1.203434	-1.089752	-0.322809
H83	H	1.332839	-1.164279	-0.448249
H84	H	1.281432	-1.064611	-0.498311
H85	H	1.354758	-1.075842	-0.300039
H86	H	1.303341	-0.976173	-0.350063
H87	H	1.152921	-1.065499	-0.372379
H88	H	1.204338	-1.165165	-0.322322
H89	H	1.184632	-1.064455	-0.255542
H90	H	1.105144	-0.381103	-0.374615
C91	C	1.483164	-0.935554	-0.300346
C92	C	1.557346	-0.972223	-0.227478
C93	C	1.530440	-0.934407	-0.128322
H94	H	1.414468	-0.960451	-0.281903
H95	H	1.483309	-0.860121	-0.300951
H96	H	1.557191	-1.047639	-0.226870
H97	H	1.626048	-0.947329	-0.245886
H98	H	1.530585	-0.858975	-0.128927
H99	H	1.461743	-0.959307	-0.109890
H100	H	1.580773	-0.959273	-0.078871
H101	H	0.972502	-0.333282	-0.550818
H102	H	1.669797	-1.078104	-0.374525
H103	H	1.717627	-0.945109	-0.550690
C104	C	1.593689	-1.088278	-0.706370
C105	C	1.518958	-1.052398	-0.779073
C106	C	1.545806	-1.090273	-0.878223
H107	H	1.594149	-1.163694	-0.705596
H108	H	1.662136	-1.062872	-0.725092
H109	H	1.450529	-1.077809	-0.760356
H110	H	1.518487	-0.976987	-0.779880
H111	H	1.614253	-1.064868	-0.896945
H112	H	1.546266	-1.165688	-0.877439
H113	H	1.495111	-1.065927	-0.927566
