data_functionalizedCrystal
_audit_creation_method	'MofGen! by Chris Wilmer'
_symmetry_space_group_name_H-M	'P1'
_symmetry_Int_Tables_number	1
_symmetry_cell_setting	triclinic
loop_
_symmetry_equiv_pos_as_xyz
  x,y,z
_cell_length_a	12.837943
_cell_length_b	9.730223
_cell_length_c	10.654551
_cell_angle_alpha	90.002058
_cell_angle_beta	89.657184
_cell_angle_gamma	90.001479
loop_
_atom_site_label
_atom_site_type_symbol
_atom_site_fract_x
_atom_site_fract_y
_atom_site_fract_z
O1	O	1.377801	0.114255	0.326749
O2	O	1.075880	0.114264	0.310608
O3	O	1.233782	0.114256	0.136697
O4	O	1.219899	0.114262	0.500660
O5	O	1.233773	-0.114324	0.136693
O6	O	1.075871	-0.114316	0.310604
O7	O	1.377793	-0.114325	0.326745
Zn8	Zn	1.226831	-0.150613	0.318674
Zn9	Zn	1.226842	0.150551	0.318679
O10	O	1.219891	-0.114317	0.500656
C11	C	1.037216	-0.000025	0.305153
C12	C	0.922022	-0.000022	0.288891
C13	C	1.232758	-0.000032	0.089786
C14	C	1.229708	-0.000025	-0.049990
N15	N	1.226831	-0.356149	0.318670
C16	C	0.682470	-0.000038	0.484395
C17	C	0.574234	-0.000036	0.469121
C18	C	0.597313	-0.000025	0.243070
C19	C	0.705548	-0.000027	0.258344
C20	C	0.748123	-0.000032	0.379010
C21	C	0.856360	-0.000024	0.394284
C22	C	0.879437	-0.000023	0.168233
C23	C	0.771201	-0.000021	0.152959
C24	C	1.416457	-0.000033	0.332200
C25	C	1.531651	-0.000027	0.348462
C26	C	1.296779	-0.571971	0.241697
C27	C	1.296773	-0.428088	0.241698
C28	C	1.156899	-0.428101	0.395656
C29	C	1.156911	-0.571981	0.395661
N30	N	1.226850	0.356088	0.318674
C31	C	1.228280	0.124575	-0.115648
C32	C	1.225406	0.124576	-0.246982
C33	C	1.225390	-0.124634	-0.246989
C34	C	1.228257	-0.124634	-0.115657
C35	C	1.220915	-0.000027	0.547567
C36	C	1.223965	-0.000024	0.687344
H37	H	0.891022	-0.000030	0.492536
H38	H	1.229459	0.226040	-0.062186
H39	H	1.099966	-0.630560	0.458350
H40	H	1.224210	-0.226086	-0.300472
H41	H	1.224241	0.226038	-0.300435
Cl42	Cl	0.717668	-0.000019	0.001272
H43	H	1.353716	-0.369516	0.179018
H44	H	1.229413	-0.226105	-0.062197
H45	H	0.717134	-0.000040	0.582647
H46	H	0.520782	-0.000045	0.554937
Cl47	Cl	1.384706	-0.662392	0.144920
Cl48	Cl	1.068975	-0.337667	0.492429
Cl49	Cl	0.543771	-0.000038	0.091387
Cl50	Cl	0.961979	0.000006	0.035741
