data_functionalizedCrystal
_audit_creation_method	'MofGen! by Chris Wilmer'
_symmetry_space_group_name_H-M	'P1'
_symmetry_Int_Tables_number	1
_symmetry_cell_setting	triclinic
loop_
_symmetry_equiv_pos_as_xyz
  x,y,z
_cell_length_a	13.339070
_cell_length_b	14.044220
_cell_length_c	12.376457
_cell_angle_alpha	102.319698
_cell_angle_beta	75.589755
_cell_angle_gamma	104.409086
loop_
_atom_site_label
_atom_site_type_symbol
_atom_site_fract_x
_atom_site_fract_y
_atom_site_fract_z
O1	O	1.404410	0.473359	-0.094060
O2	O	1.104116	0.409471	-0.094052
O3	O	1.249753	0.302247	-0.094045
O4	O	1.258772	0.580583	-0.094067
O5	O	1.213353	0.329006	0.093966
O6	O	1.067716	0.436230	0.093959
O7	O	1.368010	0.500118	0.093950
Zn8	Zn	1.212084	0.472423	0.123805
Zn9	Zn	1.260042	0.437166	-0.123907
O10	O	1.222373	0.607343	0.093943
C11	C	1.047253	0.412059	-0.000045
C12	C	0.932047	0.379891	-0.000042
C13	C	0.589833	0.630012	-0.000080
C14	C	0.698075	0.660238	-0.000087
C15	C	0.756573	0.590154	-0.000075
C16	C	0.706819	0.489838	-0.000057
C17	C	0.598569	0.459608	-0.000059
C18	C	0.765309	0.419750	-0.000054
C19	C	0.715555	0.319434	-0.000037
C20	C	0.607315	0.289209	-0.000038
C21	C	0.548816	0.359293	-0.000049
C22	C	0.873559	0.449980	-0.000053
C23	C	0.882295	0.279576	-0.000032
C24	C	0.774053	0.249350	-0.000025
C25	C	1.227607	0.279274	-0.000039
C26	C	1.215836	0.170953	-0.000037
C27	C	1.194321	-0.027370	-0.000053
C28	C	1.277803	-0.063049	-0.000059
C29	C	1.265831	-0.173403	-0.000068
C30	C	1.206291	0.082993	-0.000044
C31	C	1.424874	0.497530	-0.000059
C32	C	1.540081	0.529697	-0.000070
C33	C	1.244519	0.630315	-0.000065
C34	C	1.256291	0.738635	-0.000074
N35	N	1.179361	0.496486	0.292862
N36	N	1.292772	0.413098	-0.292964
C37	C	1.368731	0.357221	0.647856
C38	C	1.391627	0.340378	0.529517
C39	C	1.338563	0.379403	0.470347
C40	C	1.262597	0.435275	0.529528
C41	C	1.239704	0.452127	0.647878
C42	C	1.209536	0.474309	0.470370
C43	C	1.133571	0.530180	0.529551
C44	C	1.110681	0.547029	0.647889
C45	C	1.163746	0.508003	0.707059
C46	C	1.232429	0.457457	0.352020
C47	C	1.103403	0.552362	0.352042
C48	C	1.080506	0.569206	0.470381
H49	H	0.914057	0.531658	-0.000063
C50	C	1.085627	-0.098057	-0.000041
H51	H	1.091738	-0.164024	-0.000035
H52	H	1.061728	-0.096215	-0.065596
H53	H	1.036361	-0.077556	0.065539
C54	C	0.996957	0.630670	0.535488
H55	H	0.990932	0.635119	0.614441
H56	H	0.930596	0.599144	0.516114
H57	H	1.017813	0.695678	0.516086
H58	H	1.357209	0.365687	0.373991
H59	H	1.411935	0.325458	0.696039
C60	C	1.386497	0.007644	-0.000037
H61	H	1.380388	0.073617	-0.000018
H62	H	1.435783	-0.012844	-0.065594
H63	H	1.410363	0.005789	0.065541
H64	H	1.145101	0.521713	0.803420
H65	H	1.048834	0.592532	0.696075
C66	C	1.475175	0.278917	0.464426
H67	H	1.503492	0.258080	0.516612
H68	H	1.530391	0.318635	0.418245
H69	H	1.443174	0.222101	0.418277
C70	C	0.875633	0.623403	-0.000070
H71	H	0.896885	0.693185	-0.000071
H72	H	0.914437	0.589441	-0.065623
H73	H	0.889028	0.608112	0.065512
C74	C	0.752794	0.770576	-0.000093
H75	H	0.702452	0.807988	-0.000088
H76	H	0.807536	0.776583	-0.065654
H77	H	0.782137	0.795238	0.065481
C78	C	1.045032	0.595298	0.286968
H79	H	1.069540	0.577254	0.208012
H80	H	1.058382	0.665823	0.306353
H81	H	0.971165	0.569289	0.306377
C82	C	0.429749	0.326047	-0.000042
H83	H	0.402041	0.382155	-0.000052
H84	H	0.394182	0.297072	0.065524
H85	H	0.419570	0.278412	-0.065611
H86	H	0.542196	0.687062	-0.000099
H87	H	0.566811	0.207524	-0.000036
C88	C	0.719319	0.139008	-0.000017
H89	H	0.646478	0.131046	-0.000029
H90	H	0.726156	0.118281	0.065548
H91	H	0.751549	0.099623	-0.065587
C92	C	1.315988	0.396010	0.286929
H93	H	1.322035	0.391570	0.207973
H94	H	1.295152	0.331007	0.306331
H95	H	1.382345	0.427558	0.306314
H96	H	0.929925	0.222507	-0.000027
