data_functionalizedCrystal
_audit_creation_method	'MofGen! by Chris Wilmer'
_symmetry_space_group_name_H-M	'P1'
_symmetry_Int_Tables_number	1
_symmetry_cell_setting	triclinic
loop_
_symmetry_equiv_pos_as_xyz
  x,y,z
_cell_length_a	14.044220
_cell_length_b	11.792241
_cell_length_c	10.868271
_cell_angle_alpha	89.999893
_cell_angle_beta	90.006070
_cell_angle_gamma	91.308853
loop_
_atom_site_label
_atom_site_type_symbol
_atom_site_fract_x
_atom_site_fract_y
_atom_site_fract_z
O1	O	0.129987	-1.519111	0.102206
O2	O	0.379987	-1.269111	0.352206
O3	O	0.629987	-1.019111	0.602206
O4	O	0.879987	-0.769111	0.852206
O5	O	0.143383	-1.190028	0.102234
O6	O	0.393383	-0.940028	0.352234
O7	O	0.643383	-0.690028	0.602234
O8	O	0.893383	-0.440028	0.852234
O9	O	-0.001325	-1.349630	0.102208
O10	O	0.248675	-1.099630	0.352208
O11	O	0.498675	-0.849630	0.602208
O12	O	0.748675	-0.599630	0.852208
O13	O	0.274695	-1.359509	0.102232
O14	O	0.524695	-1.109509	0.352232
O15	O	0.774695	-0.859509	0.602232
O16	O	1.024695	-0.609509	0.852232
O17	O	-0.001331	-1.349615	-0.102436
O18	O	0.248669	-1.099615	0.147564
O19	O	0.498669	-0.849615	0.397564
O20	O	0.748669	-0.599615	0.647564
O21	O	0.143378	-1.190013	-0.102410
O22	O	0.393378	-0.940013	0.147590
O23	O	0.643378	-0.690013	0.397590
O24	O	0.893378	-0.440013	0.647590
O25	O	0.129981	-1.519096	-0.102439
O26	O	0.379981	-1.269096	0.147561
O27	O	0.629981	-1.019096	0.397561
O28	O	0.879981	-0.769096	0.647561
Zn29	Zn	0.136679	-1.354552	-0.134916
Zn30	Zn	0.386679	-1.104552	0.115084
Zn31	Zn	0.636679	-0.854552	0.365084
Zn32	Zn	0.886679	-0.604552	0.615084
Zn33	Zn	0.136686	-1.354572	0.134712
Zn34	Zn	0.386686	-1.104572	0.384712
Zn35	Zn	0.636686	-0.854572	0.634712
Zn36	Zn	0.886686	-0.604572	0.884712
O37	O	0.274689	-1.359494	-0.102413
O38	O	0.524689	-1.109494	0.147587
O39	O	0.774689	-0.859494	0.397587
O40	O	1.024689	-0.609494	0.647587
C41	C	-0.036664	-1.345298	-0.000114
C42	C	0.213336	-1.095298	0.249886
C43	C	0.463336	-0.845298	0.499886
C44	C	0.713336	-0.595298	0.749886
C45	C	-0.141956	-1.332399	-0.000115
C46	C	0.108044	-1.082399	0.249885
C47	C	0.358044	-0.832399	0.499885
C48	C	0.608044	-0.582399	0.749885
C49	C	0.142539	-1.147650	-0.000084
C50	C	0.392539	-0.897650	0.249916
C51	C	0.642539	-0.647650	0.499916
C52	C	0.892539	-0.397650	0.749916
C53	C	0.140020	-1.021400	-0.000074
C54	C	0.390020	-0.771400	0.249926
C55	C	0.640020	-0.521400	0.499926
C56	C	0.890020	-0.271400	0.749926
C57	C	0.130826	-1.561474	-0.000118
C58	C	0.380826	-1.311474	0.249882
C59	C	0.630826	-1.061474	0.499882
C60	C	0.880826	-0.811474	0.749882
C61	C	0.133344	-1.687724	-0.000120
C62	C	0.383344	-1.437724	0.249880
C63	C	0.633344	-1.187724	0.499880
C64	C	0.883344	-0.937724	0.749880
C65	C	-0.334739	-1.308817	-0.000095
C66	C	-0.084739	-1.058817	0.249905
C67	C	0.165261	-0.808817	0.499905
C68	C	0.415261	-0.558817	0.749905
C69	C	-0.391902	-1.400302	-0.000099
C70	C	-0.141902	-1.150302	0.249901
C71	C	0.108098	-0.900302	0.499901
C72	C	0.358098	-0.650302	0.749901
C73	C	-0.499173	-1.387181	-0.000088
C74	C	-0.249173	-1.137181	0.249912
C75	C	0.000827	-0.887181	0.499912
C76	C	0.250827	-0.637181	0.749912
C77	C	-0.227458	-1.321937	-0.000106
C78	C	0.022542	-1.071937	0.249894
C79	C	0.272542	-0.821937	0.499894
C80	C	0.522542	-0.571937	0.749894
C81	C	0.310029	-1.363826	-0.000088
C82	C	0.560029	-1.113826	0.249912
C83	C	0.810029	-0.863826	0.499912
C84	C	1.060029	-0.613826	0.749912
C85	C	0.415321	-1.376725	-0.000079
C86	C	0.665321	-1.126725	0.249921
C87	C	0.915321	-0.876725	0.499921
C88	C	1.165321	-0.626725	0.749921
N89	N	0.136673	-1.354547	-0.318930
N90	N	0.386673	-1.104547	-0.068930
N91	N	0.636673	-0.854547	0.181070
N92	N	0.886673	-0.604547	0.431070
C93	C	0.135389	-0.790253	-0.000109
C94	C	0.385389	-0.540253	0.249891
C95	C	0.635389	-0.290253	0.499891
C96	C	0.885389	-0.040253	0.749891
C97	C	0.137962	-0.918880	-0.000090
C98	C	0.387962	-0.668880	0.249910
C99	C	0.637962	-0.418880	0.499910
C100	C	0.887962	-0.168880	0.749910
C101	C	0.136684	-1.354566	-0.569937
C102	C	0.386684	-1.104566	-0.319937
C103	C	0.636684	-0.854566	-0.069937
C104	C	0.886684	-0.604566	0.180063
C105	C	0.136681	-1.354552	-0.430259
C106	C	0.386681	-1.104552	-0.180259
C107	C	0.636681	-0.854552	0.069741
C108	C	0.886681	-0.604552	0.319741
N109	N	0.136684	-1.354585	0.318726
N110	N	0.386684	-1.104585	0.568726
N111	N	0.636684	-0.854585	0.818726
N112	N	0.886684	-0.604585	1.068726
H113	H	-0.366361	-1.220647	-0.000084
H114	H	-0.116361	-0.970647	0.249916
H115	H	0.133639	-0.720647	0.499916
H116	H	0.383639	-0.470647	0.749916
H117	H	-0.360278	-1.488479	-0.000024
H118	H	-0.110278	-1.238479	0.249976
H119	H	0.139722	-0.988479	0.499976
H120	H	0.389722	-0.738479	0.749976
