data_functionalizedCrystal
_audit_creation_method	'MofGen! by Chris Wilmer'
_symmetry_space_group_name_H-M	'P1'
_symmetry_Int_Tables_number	1
_symmetry_cell_setting	triclinic
loop_
_symmetry_equiv_pos_as_xyz
  x,y,z
_cell_length_a	19.288867
_cell_length_b	15.186229
_cell_length_c	16.109301
_cell_angle_alpha	90.000293
_cell_angle_beta	83.299326
_cell_angle_gamma	90.004108
loop_
_atom_site_label
_atom_site_type_symbol
_atom_site_fract_x
_atom_site_fract_y
_atom_site_fract_z
O1	O	0.921597	0.073198	0.103717
O2	O	1.254930	0.406531	0.437050
O3	O	1.588263	0.739864	0.770384
O4	O	0.719370	0.073206	0.117706
O5	O	1.052703	0.406540	0.451040
O6	O	1.386036	0.739873	0.784373
O7	O	0.826038	0.073196	-0.010338
O8	O	1.159372	0.406529	0.322995
O9	O	1.492705	0.739863	0.656328
O10	O	0.814928	0.073208	0.231762
O11	O	1.148261	0.406541	0.565095
O12	O	1.481595	0.739875	0.898428
O13	O	0.826026	-0.073261	-0.010331
O14	O	1.159359	0.260072	0.323002
O15	O	1.492693	0.593405	0.656336
O16	O	0.719357	-0.073251	0.117714
O17	O	1.052690	0.260082	0.451047
O18	O	1.386024	0.593416	0.784380
O19	O	0.921584	-0.073259	0.103724
O20	O	1.254918	0.260074	0.437058
O21	O	1.588251	0.593407	0.770391
Zn22	Zn	0.820469	-0.096508	0.110720
Zn23	Zn	1.153802	0.236825	0.444053
Zn24	Zn	1.487135	0.570158	0.777387
Zn25	Zn	0.820485	0.096455	0.110711
Zn26	Zn	1.153819	0.429789	0.444044
Zn27	Zn	1.487152	0.763122	0.777377
O28	O	0.814915	-0.073249	0.231769
O29	O	1.148249	0.260084	0.565102
O30	O	1.481582	0.593417	0.898436
C31	C	0.693486	-0.000021	0.117260
C32	C	1.026819	0.333312	0.450593
C33	C	1.360153	0.666645	0.783926
C34	C	0.616379	-0.000018	0.115908
C35	C	0.949713	0.333315	0.449241
C36	C	1.283046	0.666649	0.782574
C37	C	0.060797	0.079805	0.106165
C38	C	0.394131	0.413138	0.439498
C39	C	0.727464	0.746472	0.772831
C40	C	0.133248	0.079808	0.107430
C41	C	0.466581	0.413142	0.440763
C42	C	0.799915	0.746475	0.774097
C43	C	0.169471	-0.000025	0.108071
C44	C	0.502805	0.333308	0.441404
C45	C	0.836138	0.666641	0.774737
C46	C	0.133240	-0.079868	0.107424
C47	C	0.466574	0.253465	0.440758
C48	C	0.799907	0.586799	0.774091
C49	C	0.060792	-0.079869	0.106151
C50	C	0.394125	0.253464	0.439484
C51	C	0.727459	0.586797	0.772817
C52	C	0.278914	-0.061186	0.158787
C53	C	0.612248	0.272148	0.492120
C54	C	0.945581	0.605481	0.825453
C55	C	0.351361	-0.061181	0.160065
C56	C	0.684694	0.272152	0.493399
C57	C	1.018027	0.605485	0.826732
C58	C	0.392926	-0.000025	0.111996
C59	C	0.726260	0.333308	0.445329
C60	C	1.059593	0.666641	0.778662
C61	C	0.362035	0.061141	0.062658
C62	C	0.695369	0.394475	0.395991
C63	C	1.028702	0.727808	0.729324
C64	C	0.289587	0.061140	0.061384
C65	C	0.622920	0.394474	0.394717
C66	C	0.956254	0.727807	0.728051
C67	C	0.248029	-0.000033	0.109451
C68	C	0.581363	0.333300	0.442785
C69	C	0.914696	0.666634	0.776118
C70	C	0.507708	0.079816	0.114008
C71	C	0.841042	0.413150	0.447341
C72	C	1.174375	0.746483	0.780675
C73	C	0.580161	0.079816	0.115268
C74	C	0.913494	0.413150	0.448602
C75	C	1.246827	0.746483	0.781935
C76	C	0.580151	-0.079863	0.115271
C77	C	0.913484	0.253471	0.448604
C78	C	1.246817	0.586804	0.781938
C79	C	0.507701	-0.079860	0.114002
C80	C	0.841034	0.253473	0.447336
C81	C	1.174367	0.586806	0.780669
C82	C	0.471483	-0.000018	0.113375
C83	C	0.804817	0.333315	0.446708
C84	C	1.138150	0.666648	0.780042
N85	N	0.820463	-0.228201	0.110726
N86	N	1.153796	0.105132	0.444060
N87	N	1.487129	0.438466	0.777393
C88	C	0.862588	-0.453923	0.161011
C89	C	1.195922	-0.120590	0.494344
C90	C	1.529255	0.212744	0.827677
C91	C	0.862596	-0.546113	0.161005
C92	C	1.195929	-0.212779	0.494338
C93	C	1.529263	0.120554	0.827671
C94	C	0.778369	-0.546124	0.060408
C95	C	1.111703	-0.212790	0.393741
C96	C	1.445036	0.120543	0.727074
C97	C	0.778366	-0.453936	0.060410
C98	C	1.111699	-0.120602	0.393743
C99	C	1.445033	0.212731	0.727077
C100	C	0.820474	-0.407838	0.110716
C101	C	1.153808	-0.074504	0.444049
C102	C	1.487141	0.258829	0.777383
C103	C	0.820485	-0.592215	0.110708
C104	C	1.153818	-0.258882	0.444041
C105	C	1.487152	0.074451	0.777375
C106	C	0.820493	-0.692172	0.110701
C107	C	1.153826	-0.358838	0.444034
C108	C	1.487160	-0.025505	0.777368
C109	C	0.820467	-0.307875	0.110722
C110	C	1.153801	0.025458	0.444055
C111	C	1.487134	0.358791	0.777389
C112	C	0.947468	-0.000030	0.104171
C113	C	1.280801	0.333303	0.437504
C114	C	1.614135	0.666637	0.770838
C115	C	1.024575	-0.000027	0.105523
C116	C	1.357908	0.333306	0.438856
C117	C	1.691241	0.666639	0.772190
C118	C	0.825582	-0.000032	-0.041308
C119	C	1.158915	0.333301	0.292025
C120	C	1.492249	0.666634	0.625359
C121	C	0.824233	-0.000031	-0.133599
C122	C	1.157566	0.333302	0.199735
C123	C	1.490899	0.666636	0.533068
N124	N	0.820497	0.228148	0.110698
N125	N	1.153830	0.561481	0.444031
N126	N	1.487164	0.894815	0.777365
C127	C	0.883117	-0.000018	-0.442798
C128	C	1.216450	0.333315	-0.109464
C129	C	1.549783	0.666648	0.223869
C130	C	0.884391	-0.000023	-0.356082
C131	C	1.217724	0.333310	-0.022749
C132	C	1.551058	0.666643	0.310585
C133	C	0.757832	-0.000030	-0.335777
C134	C	1.091165	0.333304	-0.002443
C135	C	1.424499	0.666637	0.330890
C136	C	0.756559	-0.000031	-0.422491
C137	C	1.089892	0.333302	-0.089158
C138	C	1.423225	0.666636	0.244175
C139	C	0.819203	-0.000021	-0.476000
C140	C	1.152536	0.333313	-0.142666
C141	C	1.485870	0.666646	0.190667
C142	C	0.821751	-0.000025	-0.302570
C143	C	1.155084	0.333309	0.030764
C144	C	1.488418	0.666642	0.364097
C145	C	0.823132	-0.000030	-0.208548
C146	C	1.156465	0.333303	0.124785
C147	C	1.489799	0.666636	0.458118
C148	C	0.817822	-0.000017	-0.570027
C149	C	1.151155	0.333316	-0.236694
C150	C	1.484489	0.666650	0.096640
C151	C	0.815372	-0.000019	0.262739
C152	C	1.148705	0.333314	0.596072
C153	C	1.482038	0.666648	0.929405
C154	C	0.816721	-0.000014	0.355029
C155	C	1.150054	0.333319	0.688363
C156	C	1.483388	0.666652	1.021696
H157	H	0.478207	-0.144869	0.113483
H158	H	0.811541	0.188465	0.446816
H159	H	1.144874	0.521798	0.780150
H160	H	0.609643	-0.144865	0.115789
H161	H	0.942977	0.188469	0.449123
H162	H	1.276310	0.521802	0.782456
H163	H	0.704509	-0.000037	-0.449524
H164	H	1.037842	0.333296	-0.116190
H165	H	1.371176	0.666630	0.217143
H166	H	0.896890	-0.583631	0.201958
H167	H	1.230224	-0.250298	0.535292
H168	H	1.563557	0.083035	0.868625
H169	H	0.896876	-0.416393	0.201973
H170	H	1.230209	-0.083060	0.535306
H171	H	1.563542	0.250274	0.868640
Cl172	Cl	0.725431	-0.604081	-0.002824
Cl173	Cl	1.058764	-0.270748	0.330509
Cl174	Cl	1.392097	0.062585	0.663843
H175	H	0.162746	0.144820	0.107957
H176	H	0.496079	0.478153	0.441290
H177	H	0.829412	0.811486	0.774624
H178	H	0.934126	-0.000010	-0.486363
H179	H	1.267459	0.333323	-0.153029
H180	H	1.600793	0.666657	0.180304
Cl181	Cl	0.414281	0.138032	0.002226
Cl182	Cl	0.747614	0.471365	0.335560
Cl183	Cl	1.080947	0.804699	0.668893
Cl184	Cl	0.964744	-0.000017	-0.314346
Cl185	Cl	1.298077	0.333316	0.018987
Cl186	Cl	1.631410	0.666649	0.352320
H187	H	0.264439	0.110942	0.021210
H188	H	0.597772	0.444276	0.354543
H189	H	0.931105	0.777609	0.687876
Cl190	Cl	0.462175	0.180186	0.113213
Cl191	Cl	0.795509	0.513520	0.446546
Cl192	Cl	1.128842	0.846853	0.779880
Cl193	Cl	0.625700	0.180187	0.116066
Cl194	Cl	0.959033	0.513520	0.449399
Cl195	Cl	1.292366	0.846853	0.782733
Cl196	Cl	0.725417	-0.395995	-0.002821
Cl197	Cl	1.058750	-0.062662	0.330512
Cl198	Cl	1.392083	0.270671	0.663846
Cl199	Cl	0.226669	-0.138084	0.219213
Cl200	Cl	0.560002	0.195249	0.552547
Cl201	Cl	0.893336	0.528583	0.885880
Cl202	Cl	0.679084	-0.000035	-0.268504
Cl203	Cl	1.012417	0.333298	0.064830
Cl204	Cl	1.345750	0.666631	0.398163
Cl205	Cl	0.178777	-0.180230	0.108226
Cl206	Cl	0.512111	0.153103	0.441559
Cl207	Cl	0.845444	0.486436	0.774893
Cl208	Cl	0.390187	-0.138068	0.222097
Cl209	Cl	0.723520	0.195265	0.555430
Cl210	Cl	1.056854	0.528598	0.888763
Cl211	Cl	0.015271	0.180178	0.105369
Cl212	Cl	0.348605	0.513511	0.438702
Cl213	Cl	0.681938	0.846844	0.772036
H214	H	0.031300	-0.144880	0.105631
H215	H	0.364633	0.188453	0.438965
H216	H	0.697966	0.521786	0.772298
