data_functionalizedCrystal
_audit_creation_method	'MofGen! by Chris Wilmer'
_symmetry_space_group_name_H-M	'P1'
_symmetry_Int_Tables_number	1
_symmetry_cell_setting	triclinic
loop_
_symmetry_equiv_pos_as_xyz
  x,y,z
_cell_length_a	14.809374
_cell_length_b	21.606444
_cell_length_c	21.606444
_cell_angle_alpha	60.001013
_cell_angle_beta	89.997260
_cell_angle_gamma	52.845983
loop_
_atom_site_label
_atom_site_type_symbol
_atom_site_fract_x
_atom_site_fract_y
_atom_site_fract_z
Zr1	Zr	0.990995	0.527970	-0.006464
O2	O	0.826747	0.681860	-0.117670
O3	O	1.041347	0.391258	0.027623
O4	O	1.041359	0.520371	-0.101490
O5	O	0.826724	0.552751	0.113293
O6	O	1.210647	0.494837	-0.088723
O7	O	0.826735	0.552747	0.011443
O8	O	1.210625	0.263877	0.142236
O9	O	0.826745	0.783711	-0.117667
O10	O	1.189157	0.422072	0.051692
O11	O	1.062812	0.441131	0.118174
O12	O	1.062825	0.593145	-0.033840
O13	O	0.936480	0.612204	0.032642
Zr14	Zr	1.260971	0.487253	0.176335
Zr15	Zr	1.260989	0.487246	0.013897
Zr16	Zr	0.990977	0.527978	0.155974
Zr17	Zr	0.990992	0.690411	-0.006459
Zr18	Zr	1.260974	0.324813	0.176330
O19	O	1.210619	0.623966	0.142247
O20	O	1.210644	0.623955	-0.088719
O21	O	0.826722	0.681870	0.113297
O22	O	1.425219	0.333364	0.287540
O23	O	1.425244	0.333354	0.056574
O24	O	1.041322	0.391268	0.258590
O25	O	1.425242	0.462472	0.056578
O26	O	1.210607	0.494853	0.271360
O27	O	1.041320	0.520387	0.258594
O28	O	1.425231	0.462477	0.158428
O29	O	1.041355	0.751341	-0.101482
O30	O	1.210611	0.263883	0.271353
O31	O	1.425221	0.231513	0.287537
O32	O	1.425235	0.231507	0.158420
O33	O	0.826731	0.783717	0.011450
O34	O	1.041341	0.751346	0.027634
O35	O	1.189141	0.422079	0.203710
O36	O	1.315486	0.403019	0.137229
O37	O	1.189155	0.574093	0.051697
O38	O	1.062809	0.593152	0.118179
C39	C	1.125987	0.304423	0.084929
C40	C	1.125988	0.235463	0.084927
C41	C	0.788261	0.558552	0.059467
C42	C	0.673642	0.575840	0.050823
C43	C	1.191936	0.193117	0.050223
C44	C	1.191941	0.128316	0.050228
C45	C	1.125989	0.105868	0.084933
C46	C	1.060038	0.148217	0.119642
C47	C	1.060042	0.213011	0.119641
C48	C	1.060023	-0.113090	0.119647
C49	C	1.060022	-0.177886	0.119643
C50	C	1.191922	-0.197784	0.050234
C51	C	1.191926	-0.132991	0.050233
C52	C	1.125981	-0.090652	0.084946
C53	C	1.125979	-0.020389	0.084941
C54	C	1.125983	0.035613	0.084934
C55	C	0.685210	0.498684	0.089399
C56	C	0.566746	0.516550	0.080466
C57	C	1.463705	0.456672	0.110404
C58	C	1.578324	0.439384	0.119047
C59	C	1.126005	0.507603	-0.118250
C60	C	1.126013	0.507600	-0.187210
C61	C	1.125980	0.710800	0.084942
C62	C	1.125978	0.779761	0.084944
C63	C	1.032691	0.521693	-0.617552
C64	C	1.032702	0.521684	-0.552752
C65	C	1.125971	0.507615	-0.513324
C66	C	1.219243	0.493542	-0.538694
C67	C	1.219236	0.493543	-0.603490
C68	C	1.219273	0.493535	-0.277380
C69	C	1.219271	0.493538	-0.212582
C70	C	1.032740	0.521676	-0.226642
C71	C	1.032733	0.521678	-0.291438
C72	C	1.126007	0.507600	-0.316800
C73	C	1.125996	0.507607	-0.387063
C74	C	1.125979	0.507614	-0.443066
C75	C	1.125961	0.507621	0.288121
C76	C	1.125953	0.507624	0.357080
C77	C	1.463708	0.253484	0.110397
C78	C	1.578329	0.167235	0.119039
C79	C	1.125964	0.304432	0.288115
C80	C	1.125958	0.235475	0.357072
C81	C	1.463686	0.253493	0.313583
C82	C	1.578299	0.167247	0.391184
C83	C	0.788280	0.761731	-0.143713
C84	C	0.673667	0.847977	-0.221314
C85	C	0.788258	0.761740	0.059473
C86	C	0.673637	0.847989	0.050832
C87	C	1.126002	0.710791	-0.118244
C88	C	1.126008	0.779749	-0.187201
C89	C	1.566214	0.136677	0.078441
C90	C	1.673902	0.055647	0.086545
C91	C	1.793704	0.005173	0.135251
C92	C	1.805817	0.035738	0.175850
C93	C	1.698130	0.116770	0.167742
C94	C	1.191898	0.193147	0.434111
C95	C	1.191887	0.128364	0.498909
C96	C	1.125943	0.105905	0.486668
C97	C	1.059996	0.148241	0.409620
C98	C	1.060000	0.213028	0.344823
C99	C	1.698085	0.116795	0.392924
C100	C	1.805787	0.035765	0.465833
C101	C	1.793700	0.005185	0.537001
C102	C	1.673901	0.055646	0.535258
C103	C	1.566202	0.136678	0.462350
C104	C	0.553881	0.898437	-0.223054
C105	C	0.446179	0.979487	-0.295963
C106	C	0.458266	1.010070	-0.367130
C107	C	0.578065	0.959605	-0.365388
C108	C	0.685764	0.878562	-0.292480
C109	C	0.685752	0.878554	0.091423
C110	C	0.578064	0.959601	0.083301
C111	C	0.458262	1.010078	0.034592
C112	C	0.446149	0.979510	-0.006004
C113	C	0.553836	0.898468	0.002114
C114	C	1.191964	0.802185	-0.174934
C115	C	1.191995	0.866965	-0.239719
C116	C	1.126061	0.909314	-0.316770
C117	C	1.060103	0.886871	-0.329036
C118	C	1.060080	0.822086	-0.264252
H119	H	1.245635	0.211394	0.021958
F120	F	0.989844	-0.068041	0.156594
F121	F	0.933414	0.536675	-0.659512
F122	F	0.705899	0.335745	0.170859
H123	H	1.006308	0.247484	0.282097
F124	F	0.989864	0.124312	0.156589
F125	F	0.439170	0.620188	0.028655
H126	H	1.006306	0.129945	0.399664
H127	H	0.370560	1.076062	-0.426491
H128	H	1.468671	0.177748	0.460944
H129	H	1.245642	0.093837	0.021970
F130	F	1.908335	-0.081060	0.614591
H131	H	1.664078	0.030735	0.593213
F132	F	0.989824	-0.201776	0.156584
H133	H	0.956762	0.533139	-0.532098
H134	H	1.245704	0.885230	-0.229717
H135	H	0.587952	0.984475	0.116364
H136	H	0.783292	0.837461	0.131091
H137	H	1.245597	0.211425	0.444094
F138	F	0.343662	1.096328	0.025961
H139	H	0.576036	0.655123	0.011185
F140	F	1.933330	-0.017993	0.227687
H141	H	0.956781	0.533139	-0.323541
H142	H	0.587892	0.984517	-0.423341
F143	F	0.933470	0.536655	-0.199643
H144	H	0.348592	1.020620	-0.045662
H145	H	1.245594	0.093900	0.561639
F146	F	1.318546	0.478561	-0.170620
H147	H	0.544015	0.873543	-0.165113
F148	F	1.318539	0.478557	-0.304369
H149	H	1.903323	-0.005313	0.467238
F150	F	1.262114	-0.109099	0.013291
H151	H	1.295190	0.482080	-0.506585
H152	H	0.348644	1.020563	-0.297366
F153	F	1.660984	0.023131	0.043333
F154	F	1.262146	0.757125	-0.092936
F155	F	1.318502	0.478565	-0.630484
F156	F	1.438721	0.190384	0.026597
F157	F	1.908304	-0.081069	0.143874
H158	H	1.708012	0.141640	0.200807
H159	H	0.783296	0.837477	-0.291072
H160	H	1.125950	0.053150	0.539437
F161	F	0.540922	0.865944	-0.041088
H162	H	1.707951	0.141680	0.334984
H163	H	0.782816	0.419401	0.129042
F164	F	0.989853	0.258077	0.156580
F165	F	1.126094	0.978265	-0.385713
F166	F	0.989865	0.798224	-0.277320
F167	F	1.262112	-0.242854	0.013293
F168	F	0.989926	0.931957	-0.411047
