data_functionalizedCrystal
_audit_creation_method	'MofGen! by Chris Wilmer'
_symmetry_space_group_name_H-M	'P1'
_symmetry_Int_Tables_number	1
_symmetry_cell_setting	triclinic
loop_
_symmetry_equiv_pos_as_xyz
  x,y,z
_cell_length_a	14.044220
_cell_length_b	14.044220
_cell_length_c	13.101039
_cell_angle_alpha	86.332523
_cell_angle_beta	93.659868
_cell_angle_gamma	93.188878
loop_
_atom_site_label
_atom_site_type_symbol
_atom_site_fract_x
_atom_site_fract_y
_atom_site_fract_z
O1	O	1.281968	0.225348	0.085109
O2	O	1.531968	0.475348	0.335109
O3	O	1.781968	0.725348	0.585109
O4	O	2.031968	0.975348	0.835109
O5	O	1.005298	0.217041	0.085135
O6	O	1.255298	0.467041	0.335135
O7	O	1.505298	0.717041	0.585135
O8	O	1.755298	0.967041	0.835135
O9	O	1.139480	0.082860	0.085112
O10	O	1.389480	0.332860	0.335112
O11	O	1.639480	0.582860	0.585112
O12	O	1.889480	0.832860	0.835112
O13	O	1.147787	0.359530	0.085132
O14	O	1.397787	0.609530	0.335132
O15	O	1.647787	0.859530	0.585132
O16	O	1.897787	1.109530	0.835132
O17	O	1.129854	0.092504	-0.085316
O18	O	1.379854	0.342504	0.164684
O19	O	1.629854	0.592504	0.414684
O20	O	1.879854	0.842504	0.664684
O21	O	0.995673	0.226686	-0.085293
O22	O	1.245673	0.476686	0.164707
O23	O	1.495673	0.726686	0.414707
O24	O	1.745673	0.976686	0.664707
O25	O	1.272343	0.234993	-0.085319
O26	O	1.522343	0.484993	0.164681
O27	O	1.772343	0.734993	0.414681
O28	O	2.022343	0.984993	0.664681
Zn29	Zn	1.132479	0.232371	-0.112365
Zn30	Zn	1.382479	0.482371	0.137635
Zn31	Zn	1.632479	0.732371	0.387635
Zn32	Zn	1.882479	0.982371	0.637635
Zn33	Zn	1.145162	0.219663	0.112181
Zn34	Zn	1.395162	0.469663	0.362181
Zn35	Zn	1.645162	0.719663	0.612181
Zn36	Zn	1.895162	0.969663	0.862181
O37	O	1.138161	0.369175	-0.085296
O38	O	1.388161	0.619175	0.164704
O39	O	1.638161	0.869175	0.414704
O40	O	1.888161	1.119175	0.664704
C41	C	0.964864	0.218228	-0.000076
C42	C	1.214864	0.468228	0.249924
C43	C	1.464864	0.718228	0.499924
C44	C	1.714864	0.968228	0.749924
C45	C	0.858722	0.207383	-0.000066
C46	C	1.108722	0.457383	0.249934
C47	C	1.358722	0.707383	0.499934
C48	C	1.608722	0.957383	0.749934
C49	C	1.131031	0.052060	-0.000102
C50	C	1.381031	0.302060	0.249898
C51	C	1.631031	0.552060	0.499898
C52	C	1.881031	0.802060	0.749898
C53	C	1.120187	-0.054083	-0.000102
C54	C	1.370187	0.195917	0.249898
C55	C	1.620187	0.445917	0.499898
C56	C	1.870187	0.695917	0.749898
C57	C	0.664383	0.187558	-0.000088
C58	C	0.914383	0.437558	0.249912
C59	C	1.164383	0.687558	0.499912
C60	C	1.414383	0.937558	0.749912
C61	C	0.613253	0.264472	-0.000087
C62	C	0.863253	0.514472	0.249913
C63	C	1.113253	0.764472	0.499913
C64	C	1.363253	1.014472	0.749913
C65	C	0.505116	0.253441	-0.000099
C66	C	0.755116	0.503441	0.249901
C67	C	1.005116	0.753441	0.499901
C68	C	1.255116	1.003441	0.749901
C69	C	0.772529	0.198587	-0.000076
C70	C	1.022529	0.448587	0.249924
C71	C	1.272529	0.698587	0.499924
C72	C	1.522529	0.948587	0.749924
C73	C	1.100362	-0.248421	-0.000086
C74	C	1.350362	0.001579	0.249914
C75	C	1.600362	0.251579	0.499914
C76	C	1.850362	0.501579	0.749914
C77	C	1.177276	-0.299551	-0.000090
C78	C	1.427276	-0.049551	0.249910
C79	C	1.677276	0.200449	0.499910
C80	C	1.927276	0.450449	0.749910
C81	C	1.166245	-0.407688	-0.000080
C82	C	1.416245	-0.157688	0.249920
C83	C	1.666245	0.092312	0.499920
C84	C	1.916245	0.342312	0.749920
C85	C	1.111391	-0.140275	-0.000095
C86	C	1.361391	0.109725	0.249905
C87	C	1.611391	0.359725	0.499905
C88	C	1.861391	0.609725	0.749905
C89	C	1.312777	0.233806	-0.000106
C90	C	1.562777	0.483806	0.249894
C91	C	1.812777	0.733806	0.499894
C92	C	2.062777	0.983806	0.749894
C93	C	1.418920	0.244651	-0.000109
C94	C	1.668920	0.494651	0.249891
C95	C	1.918920	0.744651	0.499891
C96	C	2.168920	0.994651	0.749891
C97	C	1.146610	0.399974	-0.000080
C98	C	1.396610	0.649974	0.249920
C99	C	1.646610	0.899974	0.499920
C100	C	1.896610	1.149974	0.749920
C101	C	1.157455	0.506116	-0.000073
C102	C	1.407455	0.756116	0.249927
C103	C	1.657455	1.006116	0.499927
C104	C	1.907455	1.256116	0.749927
N105	N	1.123831	0.241043	-0.265612
N106	N	1.373831	0.491043	-0.015612
N107	N	1.623831	0.741043	0.234388
N108	N	1.873831	0.991043	0.484388
C109	C	1.112065	0.252851	-0.474653
C110	C	1.362065	0.502851	-0.224653
C111	C	1.612065	0.752851	0.025347
C112	C	1.862065	1.002851	0.275347
C113	C	1.165580	0.199179	-0.525538
C114	C	1.415580	0.449179	-0.275538
C115	C	1.665580	0.699179	-0.025538
C116	C	1.915580	0.949179	0.224462
C117	C	1.159034	0.205749	-0.641855
C118	C	1.409034	0.455749	-0.391855
C119	C	1.659034	0.705749	-0.141855
C120	C	1.909034	0.955749	0.108145
C121	C	1.118610	0.246282	-0.358325
C122	C	1.368610	0.496282	-0.108325
C123	C	1.618610	0.746282	0.141675
C124	C	1.868610	0.996282	0.391675
N125	N	1.153817	0.210984	0.265428
N126	N	1.403817	0.460984	0.515428
N127	N	1.653817	0.710984	0.765428
N128	N	1.903817	0.960984	1.015428
H129	H	0.626945	0.113431	-0.000099
H130	H	0.876945	0.363431	0.249901
H131	H	1.126945	0.613431	0.499901
H132	H	1.376945	0.863431	0.749901
H133	H	1.061336	0.303733	-0.518442
H134	H	1.311336	0.553733	-0.268442
H135	H	1.561336	0.803733	-0.018442
H136	H	1.811336	1.053733	0.231558
N137	N	1.270270	-0.252576	-0.000104
N138	N	1.520270	-0.002576	0.249896
N139	N	1.770270	0.247424	0.499896
N140	N	2.020270	0.497424	0.749896
N141	N	1.279218	-0.163524	-0.000116
N142	N	1.529218	0.086476	0.249884
N143	N	1.779218	0.336476	0.499884
N144	N	2.029218	0.586476	0.749884
H145	H	1.344892	-0.130343	-0.000130
H146	H	1.594892	0.119657	0.249870
H147	H	1.844892	0.369657	0.499870
H148	H	2.094892	0.619657	0.749870
H149	H	1.216314	0.148295	-0.481744
H150	H	1.466314	0.398295	-0.231744
H151	H	1.716314	0.648295	0.018256
H152	H	1.966314	0.898295	0.268256
N153	N	0.660227	0.357467	-0.000080
N154	N	0.910227	0.607467	0.249920
N155	N	1.160227	0.857467	0.499920
N156	N	1.410227	1.107467	0.749920
N157	N	0.749279	0.366415	-0.000070
N158	N	0.999279	0.616415	0.249930
N159	N	1.249279	0.866415	0.499930
N160	N	1.499279	1.116415	0.749930
H161	H	0.782460	0.432089	-0.000064
H162	H	1.032460	0.682089	0.249936
H163	H	1.282460	0.932089	0.499936
H164	H	1.532460	1.182089	0.749936
N165	N	1.007374	-0.295396	-0.000070
N166	N	1.257374	-0.045396	0.249930
N167	N	1.507374	0.204604	0.499930
N168	N	1.757374	0.454604	0.749930
N169	N	0.998434	-0.384447	-0.000063
N170	N	1.248434	-0.134447	0.249937
N171	N	1.498434	0.115553	0.499937
N172	N	1.748434	0.365553	0.749937
H173	H	0.932762	-0.417634	-0.000055
H174	H	1.182762	-0.167634	0.249945
H175	H	1.432762	0.082366	0.499945
H176	H	1.682762	0.332366	0.749945
