data_functionalizedCrystal
_audit_creation_method	'MofGen! by Chris Wilmer'
_symmetry_space_group_name_H-M	'P1'
_symmetry_Int_Tables_number	1
_symmetry_cell_setting	triclinic
loop_
_symmetry_equiv_pos_as_xyz
  x,y,z
_cell_length_a	19.188930
_cell_length_b	10.654550
_cell_length_c	18.266242
_cell_angle_alpha	89.994223
_cell_angle_beta	90.011475
_cell_angle_gamma	96.185144
loop_
_atom_site_label
_atom_site_type_symbol
_atom_site_fract_x
_atom_site_fract_y
_atom_site_fract_z
O1	O	0.098063	-1.665774	0.060836
O2	O	0.107406	-1.300098	0.060850
O3	O	0.001148	-1.493489	0.060828
O4	O	0.204321	-1.472383	0.060857
O5	O	0.001142	-1.493456	-0.060934
O6	O	0.107400	-1.300065	-0.060912
O7	O	0.098058	-1.665742	-0.060926
Zn8	Zn	0.102728	-1.482898	-0.080252
Zn9	Zn	0.102735	-1.482941	0.080175
O10	O	0.204315	-1.472351	-0.060905
C11	C	-0.024870	-1.492789	-0.000055
C12	C	-0.102388	-1.490737	-0.000061
C13	C	0.106717	-1.253298	-0.000029
C14	C	0.104665	-1.113898	-0.000025
N15	N	0.102722	-1.482878	-0.189739
C16	C	-0.146570	-1.604213	-0.000069
C17	C	-0.219407	-1.602285	-0.000057
C18	C	-0.248058	-1.486876	-0.000052
C19	C	-0.203866	-1.373386	-0.000040
C20	C	-0.131032	-1.375316	-0.000045
N21	N	-0.356642	-1.398648	-0.041487
N22	N	-0.425832	-1.396822	-0.041484
C23	C	-0.467505	-1.481052	-0.000037
N24	N	-0.437374	-1.567196	0.041398
N25	N	-0.368177	-1.569026	0.041392
C26	C	-0.327034	-1.484769	-0.000047
C27	C	-0.590665	-1.592445	-0.000031
C28	C	-0.663502	-1.590513	-0.000015
C29	C	-0.647960	-1.361610	-0.000005
C30	C	-0.575124	-1.363545	-0.000014
C31	C	-0.546481	-1.478966	-0.000031
C32	C	0.230334	-1.473051	-0.000020
C33	C	0.307852	-1.475102	-0.000009
C34	C	0.098746	-1.712541	-0.000045
C35	C	0.100799	-1.851941	-0.000045
C36	C	0.167228	-1.033089	-0.000018
C37	C	0.165295	-0.902109	-0.000031
C38	C	0.038231	-0.932761	-0.000055
C39	C	0.040164	-1.063738	-0.000047
C40	C	0.055695	-1.568539	-0.228057
C41	C	0.055692	-1.568547	-0.304702
C42	C	0.102728	-1.482906	-0.343025
C43	C	0.149759	-1.397229	-0.304698
C44	C	0.149756	-1.397215	-0.228054
N45	N	0.164429	-1.466583	-0.463349
N46	N	0.164429	-1.466603	-0.536157
C47	C	0.102738	-1.482941	-0.573948
N48	N	0.041045	-1.499282	-0.536180
N49	N	0.041045	-1.499268	-0.463366
C50	C	0.102736	-1.482911	-0.426132
C51	C	0.055703	-1.568616	-0.695374
C52	C	0.055699	-1.568615	-0.772020
C53	C	0.149773	-1.397302	-0.772014
C54	C	0.149771	-1.397297	-0.695369
C55	C	0.102737	-1.482961	-0.657054
N56	N	0.102735	-1.482972	0.189662
H57	H	-0.123254	-1.698197	-0.000080
H58	H	-0.699475	-1.682922	-0.000018
C59	C	-0.082427	-1.250492	-0.000038
H60	H	-0.034946	-1.268172	-0.000038
H61	H	-0.091180	-1.203132	-0.042493
H62	H	-0.091160	-1.203170	0.042435
C63	C	0.201486	-1.303000	-0.346847
H64	H	0.229488	-1.251965	-0.313045
H65	H	0.230791	-1.347987	-0.376739
H66	H	0.176082	-1.250882	-0.376750
H67	H	-0.014283	-0.891904	-0.000077
H68	H	0.017403	-1.638365	-0.664176
C69	C	0.201512	-1.303098	-0.814160
H70	H	0.194782	-1.315378	-0.865295
H71	H	0.193498	-1.219332	-0.801611
H72	H	0.248182	-1.316482	-0.801587
C73	C	0.201514	-1.303094	-0.653213
H74	H	0.194774	-1.315349	-0.602079
H75	H	0.248179	-1.316483	-0.665764
H76	H	0.193501	-1.219323	-0.665782
C77	C	-0.526519	-1.238724	-0.000010
H78	H	-0.479039	-1.256403	-0.000007
H79	H	-0.535271	-1.191365	-0.042467
H80	H	-0.535255	-1.191403	0.042461
C81	C	-0.028658	-1.152635	-0.000051
H82	H	-0.067349	-1.104004	-0.000055
H83	H	-0.030546	-1.204368	-0.042509
H84	H	-0.030541	-1.204363	0.042418
H85	H	0.216240	-0.836318	-0.000027
C86	C	0.003952	-1.662752	-0.185914
H87	H	-0.024061	-1.713762	-0.219717
H88	H	0.029334	-1.714878	-0.155999
H89	H	-0.025350	-1.617727	-0.156033
H90	H	0.219748	-1.073924	-0.000005
H91	H	0.188053	-1.327457	-0.196855
C92	C	0.003964	-1.662781	-0.346865
H93	H	0.010700	-1.650514	-0.397998
H94	H	0.011983	-1.746540	-0.334292
H95	H	-0.042709	-1.649404	-0.334322
C96	C	-0.268015	-1.727112	-0.000071
H97	H	-0.240525	-1.796128	-0.000086
H98	H	-0.296745	-1.731136	0.042389
H99	H	-0.296757	-1.731090	-0.042539
C100	C	-0.235380	-1.246439	-0.000037
H101	H	-0.285086	-1.261540	-0.000044
H102	H	-0.220243	-1.199741	0.042425
H103	H	-0.220259	-1.199722	-0.042502
C104	C	0.003967	-1.662850	-0.814171
H105	H	-0.024037	-1.713870	-0.780371
H106	H	-0.025333	-1.617855	-0.844082
H107	H	0.029363	-1.714983	-0.844056
H108	H	-0.567342	-1.686428	-0.000042
C109	C	-0.679468	-1.234662	0.000003
H110	H	-0.729174	-1.249762	0.000001
H111	H	-0.664327	-1.187965	0.042465
H112	H	-0.664350	-1.187943	-0.042463
