data_functionalizedCrystal
_audit_creation_method	'MofGen! by Chris Wilmer'
_symmetry_space_group_name_H-M	'P1'
_symmetry_Int_Tables_number	1
_symmetry_cell_setting	triclinic
loop_
_symmetry_equiv_pos_as_xyz
  x,y,z
_cell_length_a	6.817900
_cell_length_b	19.551900
_cell_length_c	19.551749
_cell_angle_alpha	96.340710
_cell_angle_beta	101.661913
_cell_angle_gamma	101.664829
loop_
_atom_site_label
_atom_site_type_symbol
_atom_site_fract_x
_atom_site_fract_y
_atom_site_fract_z
V1	V	-3.997253	-0.097408	-0.218188
O2	O	-3.994592	0.003928	-0.213697
O3	O	-3.940063	-0.192420	-0.217021
O4	O	-3.940048	-0.096240	-0.313200
O5	O	-3.994607	-0.092918	-0.116853
V6	V	-4.483161	-0.085248	-0.206028
O7	O	-4.253280	-0.124082	-0.244863
O8	O	-4.677332	-0.058574	-0.179354
O9	O	-4.317145	0.009763	-0.207196
O10	O	-4.603219	-0.186584	-0.210520
O11	O	-4.603204	-0.089739	-0.307364
O12	O	-4.317160	-0.086416	-0.111017
C13	C	-3.783210	-0.215571	-0.213663
C14	C	-3.817678	-0.293247	-0.213342
C15	C	-4.247714	-0.856608	-0.215194
C16	C	-4.215344	-0.783623	-0.215491
C17	C	-4.017368	-0.743449	-0.211485
C18	C	-3.851742	-0.776264	-0.207164
C19	C	-3.884113	-0.849246	-0.206860
C20	C	-3.847003	-0.631533	-0.249901
C21	C	-3.814642	-0.558553	-0.250209
C22	C	-3.917517	-0.518347	-0.212419
C23	C	-4.052794	-0.551132	-0.174330
C24	C	-4.085165	-0.624115	-0.174026
C25	C	-3.982247	-0.664312	-0.211814
C26	C	-4.048034	-0.406402	-0.217057
C27	C	-4.015654	-0.333415	-0.217350
C28	C	-3.652051	-0.326058	-0.209029
C29	C	-3.684432	-0.399043	-0.208729
C30	C	-3.882429	-0.439211	-0.212747
C31	C	-3.783190	-0.092884	-0.336347
C32	C	-3.817644	-0.092558	-0.414022
C33	C	-3.867116	-0.156428	-0.460701
C34	C	-3.899512	-0.156128	-0.533685
C35	C	-3.882392	-0.091955	-0.559987
C36	C	-3.832922	-0.028077	-0.513298
C37	C	-3.800548	-0.028378	-0.440316
C38	C	-3.791548	-0.040179	-0.665510
C39	C	-3.823911	-0.039881	-0.738492
C40	C	-3.982252	-0.091023	-0.785090
C41	C	-4.108208	-0.142476	-0.758699
C42	C	-4.075834	-0.142777	-0.685716
C43	C	-3.917494	-0.091621	-0.639124
C44	C	-4.066857	-0.154573	-0.910908
C45	C	-4.099265	-0.154272	-0.983894
C46	C	-4.032653	-0.026218	-0.963505
C47	C	-4.000268	-0.026521	-0.890521
C48	C	-4.017363	-0.090701	-0.864227
C49	C	-4.137340	0.032911	-0.210552
C50	C	-4.082110	0.110586	-0.210877
C51	C	-4.137360	-0.089775	-0.087866
C52	C	-4.082146	-0.090097	-0.010191
H53	H	-4.136567	-0.518398	-0.143557
H54	H	-4.150515	-0.306705	-0.220862
H55	H	-4.195306	-0.650805	-0.143011
H56	H	-3.704504	-0.531866	-0.281227
O57	O	-3.705499	-0.884639	-0.202214
H58	H	-3.562393	-0.844446	-0.199482
H59	H	-4.408934	-0.889308	-0.218464
H60	H	-3.763195	-0.664262	-0.280668
O61	O	-4.261577	-0.449726	-0.221376
H62	H	-4.261509	-0.475561	-0.173597
O63	O	-3.638211	-0.732942	-0.202851
H64	H	-3.643526	-0.676682	-0.203797
H65	H	-4.237137	-0.184123	-0.796639
O66	O	-3.438517	-0.282741	-0.204711
H67	H	-3.443827	-0.226480	-0.205652
H68	H	-3.721342	0.002013	-0.759973
O69	O	-3.885561	-0.225650	-0.432345
H70	H	-4.008073	-0.231470	-0.402247
H71	H	-3.549579	-0.425754	-0.205217
O72	O	-4.211687	-0.198266	-0.657253
H73	H	-4.162557	-0.189884	-0.598677
O74	O	-4.393976	-0.748232	-0.220161
H75	H	-4.463913	-0.756411	-0.174266
O76	O	-3.952845	-0.225018	-0.584046
H77	H	-3.959274	-0.269695	-0.553500
O78	O	-4.085321	-0.223791	-0.882540
H79	H	-4.125203	-0.268156	-0.927264
H80	H	-4.139564	-0.206285	-1.021901
H81	H	-4.018726	0.026033	-0.984919
O82	O	-3.946863	0.042368	-0.840166
H83	H	-3.940378	0.087044	-0.870714
O84	O	-3.620748	0.014981	-0.615251
H85	H	-3.538582	0.050801	-0.645863
O86	O	-3.814437	0.041142	-0.541659
H87	H	-3.845235	0.030622	-0.600251
H88	H	-3.760263	0.023634	-0.402309
