data_functionalizedCrystal
_audit_creation_method	'MofGen! by Chris Wilmer'
_symmetry_space_group_name_H-M	'P1'
_symmetry_Int_Tables_number	1
_symmetry_cell_setting	triclinic
loop_
_symmetry_equiv_pos_as_xyz
  x,y,z
_cell_length_a	10.685904
_cell_length_b	10.686285
_cell_length_c	19.076919
_cell_angle_alpha	88.081200
_cell_angle_beta	87.727965
_cell_angle_gamma	89.665902
loop_
_atom_site_label
_atom_site_type_symbol
_atom_site_fract_x
_atom_site_fract_y
_atom_site_fract_z
Zn1	Zn	1.925632	-0.388236	-0.463830
Zn2	Zn	1.949920	-0.588369	-0.338636
Zn3	Zn	1.724224	-0.394587	-0.337255
Zn4	Zn	1.733122	-0.612644	-0.445974
O5	O	1.833225	-0.495959	-0.396424
O6	O	2.103874	-0.401967	-0.455274
O7	O	1.926422	-0.555162	-0.240560
O8	O	1.737053	-0.218730	-0.360940
O9	O	2.121719	-0.549004	-0.363295
O10	O	1.885026	-0.214065	-0.453934
O11	O	1.760604	-0.412791	-0.239545
O12	O	1.550384	-0.436330	-0.343625
O13	O	1.752218	-0.590377	-0.546235
O14	O	1.556921	-0.596535	-0.423501
O15	O	1.893654	-0.425506	-0.559354
O16	O	1.935050	-0.766604	-0.345980
O17	O	1.775769	-0.784438	-0.424840
C18	C	1.508272	-0.519757	-0.381476
C19	C	1.369257	-0.529969	-0.375096
C20	C	1.859044	-0.820899	-0.383639
C21	C	1.870202	-0.959903	-0.378199
C22	C	2.159446	-0.472070	-0.411430
C23	C	2.298463	-0.461889	-0.417825
C24	C	1.821219	-0.509941	-0.578887
C25	C	1.816103	-0.515899	-0.656642
C26	C	1.807337	-0.169749	-0.409275
C27	C	1.796306	-0.030738	-0.414751
C28	C	1.887334	-0.432862	-0.700003
C29	C	1.882511	-0.438457	-0.773062
C30	C	1.806464	-0.527095	-0.802758
C31	C	1.735225	-0.610136	-0.759392
C32	C	1.740041	-0.604534	-0.686335
C33	C	1.784156	-0.553047	-1.020523
C34	C	1.779347	-0.558645	-1.093586
C35	C	1.926633	-0.386964	-1.107251
C36	C	1.931448	-0.381375	-1.034192
C37	C	1.860204	-0.464411	-0.990832
N38	N	1.801535	-0.532819	-0.877436
N39	N	1.865127	-0.458681	-0.916156
C40	C	1.845248	-0.481936	-0.214677
C41	C	1.850578	-0.475608	-0.136947
H42	H	1.344210	-0.395784	-0.459286
H43	H	1.984634	-0.319359	-1.142562
O44	O	1.314647	-0.608970	-0.325724
C45	C	1.242884	-0.698364	-0.358870
H46	H	1.279356	-0.707597	-0.415440
H47	H	1.140685	-0.667071	-0.358348
C48	C	1.208487	-0.814476	-0.249887
C49	C	1.253290	-0.825823	-0.319365
H50	H	1.214900	-0.893098	-0.225517
H51	H	1.256831	-0.754247	-0.227555
H52	H	1.123325	-0.788393	-0.249462
H53	H	1.338454	-0.851890	-0.319789
H54	H	1.204960	-0.886060	-0.341696
H55	H	1.724504	-0.985043	-0.450209
H56	H	1.942000	-1.005605	-0.342734
O57	O	1.961232	-0.346646	-0.671274
C58	C	2.023089	-0.274576	-0.725215
H59	H	1.968081	-0.277992	-0.775104
H60	H	2.121200	-0.314013	-0.735555
C61	C	2.099991	-0.133765	-0.641505
C62	C	2.032425	-0.137952	-0.702778
H63	H	2.105756	-0.049490	-0.627664
H64	H	2.058321	-0.182322	-0.605163
H65	H	2.181744	-0.166636	-0.650129
H66	H	1.950670	-0.105096	-0.694150
H67	H	2.074081	-0.089386	-0.739118
O68	O	1.951510	-0.357666	-0.815206
C69	C	1.871103	-0.285355	-0.857373
H70	H	1.773436	-0.283172	-0.831125
H71	H	1.866216	-0.328565	-0.911025
C72	C	2.041759	-0.153628	-0.898655
C73	C	1.921806	-0.150938	-0.866413
H74	H	2.073037	-0.070714	-0.904235
H75	H	2.095933	-0.202348	-0.870248
H76	H	2.037671	-0.189642	-0.943362
H77	H	1.925898	-0.114939	-0.821704
H78	H	1.867634	-0.102209	-0.894813
H79	H	1.717417	-0.630828	-1.117762
H80	H	1.993378	-0.309200	-1.010018
O81	O	1.714898	-0.633820	-0.978511
C82	C	1.646716	-0.713224	-1.020391
H83	H	1.694875	-0.717820	-1.074651
H84	H	1.547595	-0.674947	-1.025609
C85	C	1.581926	-0.839813	-0.919154
C86	C	1.641083	-0.845466	-0.985794
H87	H	1.578446	-0.921385	-0.897812
H88	H	1.627858	-0.786315	-0.890938
H89	H	1.499332	-0.807909	-0.923511
H90	H	1.723681	-0.877354	-0.981436
H91	H	1.595165	-0.898973	-1.014009
H92	H	1.673300	-0.682303	-0.783577
O93	O	1.670827	-0.685340	-0.644314
C94	C	1.602657	-0.764764	-0.686188
H95	H	1.650789	-0.769322	-0.740457
H96	H	1.503515	-0.726532	-0.691383
C97	C	1.537985	-0.891412	-0.584952
C98	C	1.597107	-0.897018	-0.651604
H99	H	1.534555	-0.972991	-0.563618
H100	H	1.583908	-0.837900	-0.556739
H101	H	1.455371	-0.859546	-0.589290
H102	H	1.679723	-0.928868	-0.647264
H103	H	1.551197	-0.950538	-0.679815
