data_functionalizedCrystal
_audit_creation_method	'MofGen! by Chris Wilmer'
_symmetry_space_group_name_H-M	'P1'
_symmetry_Int_Tables_number	1
_symmetry_cell_setting	triclinic
loop_
_symmetry_equiv_pos_as_xyz
  x,y,z
_cell_length_a	21.295418
_cell_length_b	25.639240
_cell_length_c	21.295412
_cell_angle_alpha	89.964267
_cell_angle_beta	89.957310
_cell_angle_gamma	90.048568
loop_
_atom_site_label
_atom_site_type_symbol
_atom_site_fract_x
_atom_site_fract_y
_atom_site_fract_z
Zn1	Zn	0.962339	-0.207943	-0.356211
Zn2	Zn	1.462339	0.292057	0.143789
Zn3	Zn	0.962240	-0.295377	-0.250928
Zn4	Zn	1.462240	0.204623	0.249072
Zn5	Zn	0.857065	-0.207981	-0.250921
Zn6	Zn	1.357065	0.292019	0.249079
Zn7	Zn	0.857028	-0.295373	-0.356124
Zn8	Zn	1.357028	0.204627	0.143876
O9	O	0.909668	-0.251669	-0.303546
O10	O	1.409668	0.248331	0.196454
O11	O	1.050416	-0.219527	-0.342285
O12	O	1.550416	0.280473	0.157715
O13	O	0.948262	-0.283801	-0.162837
O14	O	1.448262	0.216199	0.337163
O15	O	0.871087	-0.134811	-0.264922
O16	O	1.371087	0.365189	0.235078
O17	O	1.050342	-0.283764	-0.264933
O18	O	1.550342	0.216236	0.235067
O19	O	0.948432	-0.134783	-0.342278
O20	O	1.448432	0.365217	0.157722
O21	O	0.870990	-0.219592	-0.162833
O22	O	1.370990	0.280408	0.337167
O23	O	0.768970	-0.219589	-0.264837
O24	O	1.268970	0.280411	0.235163
O25	O	0.871024	-0.283758	-0.444225
O26	O	1.371024	0.216242	0.055775
O27	O	0.768943	-0.283795	-0.342129
O28	O	1.268943	0.216205	0.157871
O29	O	0.948396	-0.219523	-0.444289
O30	O	1.448396	0.280477	0.055711
O31	O	0.948226	-0.368542	-0.264848
O32	O	1.448226	0.131458	0.235152
O33	O	0.870927	-0.368539	-0.342136
O34	O	1.370927	0.131461	0.157864
C35	C	0.746116	-0.251696	-0.303474
C36	C	1.246116	0.248304	0.196526
C37	C	0.676148	-0.251721	-0.303458
C38	C	1.176148	0.248279	0.196542
C39	C	0.643284	-0.285197	-0.343643
C40	C	1.143284	0.214803	0.156357
C41	C	0.577541	-0.285184	-0.343672
C42	C	1.077541	0.214816	0.156328
C43	C	0.544666	-0.251700	-0.303503
C44	C	1.044666	0.248300	0.196497
C45	C	0.577538	-0.218217	-0.263314
C46	C	1.077538	0.281783	0.236686
C47	C	0.643279	-0.218227	-0.263292
C48	C	1.143279	0.281773	0.236708
N49	N	0.441391	-0.247615	-0.248446
N50	N	0.941391	0.252385	0.251554
N51	N	0.378939	-0.247609	-0.248469
N52	N	0.878939	0.252391	0.251531
C53	C	0.346591	-0.251667	-0.303570
C54	C	0.846591	0.248333	0.196430
N55	N	0.379053	-0.255742	-0.358647
N56	N	0.879053	0.244258	0.141353
N57	N	0.441510	-0.255752	-0.358623
N58	N	0.941510	0.244248	0.141377
C59	C	0.473380	-0.251685	-0.303523
C60	C	0.973380	0.248315	0.196477
C61	C	0.242441	-0.285131	-0.343789
C62	C	0.742441	0.214869	0.156211
C63	C	0.176698	-0.285115	-0.343819
C64	C	0.676698	0.214885	0.156181
C65	C	0.176695	-0.218150	-0.263456
C66	C	0.676695	0.281850	0.236544
C67	C	0.242438	-0.218164	-0.263432
C68	C	0.742438	0.281836	0.236568
C69	C	0.275307	-0.251657	-0.303598
C70	C	0.775307	0.248343	0.196402
C71	C	0.909579	-0.387511	-0.303497
C72	C	1.409579	0.112489	0.196503
C73	C	0.909598	-0.445625	-0.303497
C74	C	1.409598	0.054375	0.196503
C75	C	0.949961	-0.805935	-0.343898
C76	C	1.449961	-0.305935	0.156102
C77	C	0.949980	-0.860540	-0.343911
C78	C	1.449980	-0.360540	0.156089
O79	O	0.984192	-0.888731	-0.378211
O80	O	1.484192	-0.388731	0.121789
N81	N	0.909755	-0.887908	-0.303607
N82	N	1.409755	-0.387908	0.196393
C83	C	0.869505	-0.860669	-0.263292
C84	C	1.369505	-0.360669	0.236708
O85	O	0.835292	-0.888962	-0.229012
O86	O	1.335292	-0.388962	0.270988
C87	C	0.869484	-0.806065	-0.263283
C88	C	1.369484	-0.306065	0.236717
C89	C	0.909715	-0.778700	-0.303585
C90	C	1.409715	-0.278700	0.196415
C91	C	0.990190	-0.778570	-0.384197
C92	C	1.490190	-0.278570	0.115803
C93	C	0.990172	-0.723969	-0.384184
C94	C	1.490172	-0.223969	0.115816
C95	C	0.949926	-0.696734	-0.343871
C96	C	1.449926	-0.196734	0.156129
C97	C	0.909698	-0.724100	-0.303571
C98	C	1.409698	-0.224100	0.196429
C99	C	0.829230	-0.778828	-0.222972
C100	C	1.329230	-0.278828	0.277028
C101	C	0.829212	-0.724221	-0.222966
C102	C	1.329212	-0.224221	0.277034
C103	C	0.869444	-0.696855	-0.263268
C104	C	1.369444	-0.196855	0.236732
C105	C	0.869434	-0.642264	-0.263244
C106	C	1.369434	-0.142264	0.236756
N107	N	0.909658	-0.614896	-0.303548
N108	N	1.409658	-0.114896	0.196452
C109	C	0.949904	-0.642131	-0.343861
C110	C	1.449904	-0.142131	0.156139
C111	C	0.869552	-0.975339	-0.263315
C112	C	1.369552	-0.475339	0.236685
C113	C	0.869576	-1.029942	-0.263321
C114	C	1.369576	-0.529942	0.236679
C115	C	0.950050	-1.029809	-0.343941
C116	C	1.450050	-0.529809	0.156059
C117	C	0.950029	-0.975205	-0.343931
C118	C	1.450029	-0.475205	0.156069
C119	C	0.909777	-0.947971	-0.303619
C120	C	1.409777	-0.447971	0.196381
C121	C	0.949864	-0.527466	-0.343829
C122	C	1.449864	-0.027466	0.156171
C123	C	0.949845	-0.472860	-0.343810
C124	C	1.449845	0.027140	0.156190
C125	C	0.869368	-0.472998	-0.263193
C126	C	1.369368	0.027002	0.236807
C127	C	0.869390	-0.527599	-0.263209
C128	C	1.369390	-0.027599	0.236791
C129	C	0.909640	-0.554831	-0.303532
C130	C	1.409640	-0.054831	0.196468
O131	O	0.835237	-0.614038	-0.228964
O132	O	1.335237	-0.114038	0.271036
O133	O	0.984106	-0.613831	-0.378142
O134	O	1.484106	-0.113831	0.121858
C135	C	1.073858	-0.251641	-0.303619
C136	C	1.573858	0.248359	0.196381
C137	C	1.143826	-0.251630	-0.303650
C138	C	1.643826	0.248370	0.196350
C139	C	0.909717	-0.251636	-0.467736
C140	C	1.409717	0.248364	0.032264
C141	C	0.909738	-0.251622	-0.537705
C142	C	1.409738	0.248378	-0.037705
C143	C	0.909774	-0.115296	-0.303609
C144	C	1.409774	0.384704	0.196391
C145	C	0.909820	-0.057182	-0.303636
C146	C	1.409820	0.442818	0.196364
C147	C	0.869513	-0.218185	-0.570559
C148	C	1.369513	0.281815	-0.070559
C149	C	0.869511	-0.218175	-0.636301
C150	C	1.369511	0.281825	-0.136301
C151	C	0.909745	-0.251597	-0.669187
C152	C	1.409745	0.248403	-0.169187
C153	C	0.949972	-0.285041	-0.636325
C154	C	1.449972	0.214959	-0.136325
C155	C	0.949969	-0.285054	-0.570584
C156	C	1.449969	0.214946	-0.070584
N157	N	0.964849	-0.255578	-0.772443
N158	N	1.464849	0.244422	-0.272443
N159	N	0.964851	-0.255563	-0.834895
N160	N	1.464851	0.244437	-0.334895
C161	C	0.909757	-0.251563	-0.867262
C162	C	1.409757	0.248437	-0.367262
N163	N	0.854660	-0.247567	-0.834818
N164	N	1.354660	0.252433	-0.334818
N165	N	0.854659	-0.247580	-0.772361
N166	N	1.354659	0.252420	-0.272361
C167	C	0.909753	-0.251588	-0.740473
C168	C	1.409753	0.248412	-0.240473
C169	C	0.869526	-0.218113	-0.971402
C170	C	1.369526	0.281887	-0.471402
C171	C	0.869523	-0.218107	-1.037146
C172	C	1.369523	0.281893	-0.537146
C173	C	0.949990	-0.284970	-1.037168
C174	C	1.449990	0.215030	-0.537168
C175	C	0.949987	-0.284979	-0.971425
C176	C	1.449987	0.215021	-0.471425
C177	C	0.909756	-0.251547	-0.938546
C178	C	1.409756	0.248453	-0.438546
C179	C	0.909655	-0.251663	-0.139995
C180	C	1.409655	0.248337	0.360005
C181	C	0.909756	-0.251530	-0.070027
C182	C	1.409756	0.248470	0.429973
H183	H	0.149941	-0.312375	-0.376547
H184	H	0.649941	0.187625	0.123453
O185	O	0.826118	-0.182130	-0.535100
O186	O	1.326118	0.317870	-0.035100
H187	H	0.832875	-0.187751	-0.483865
H188	H	1.332875	0.312249	0.016135
O189	O	0.678736	-0.321318	-0.386966
O190	O	1.178736	0.178682	0.113034
H191	H	0.708755	-0.297957	-0.419035
H192	H	1.208755	0.202043	0.080965
O193	O	0.826191	-1.059451	-0.219840
O194	O	1.326191	-0.559451	0.280160
H195	H	0.832965	-1.101997	-0.226611
H196	H	1.332965	-0.601997	0.273389
O197	O	0.993455	-1.059192	-0.387426
O198	O	1.493455	-0.559192	0.112574
H199	H	1.021429	-1.030993	-0.415450
H200	H	1.521429	-0.530993	0.084550
O201	O	0.277904	-0.321235	-0.387127
O202	O	0.777904	0.178765	0.112873
H203	H	0.307795	-0.347816	-0.358892
H204	H	0.807795	0.152184	0.141108
O205	O	0.785801	-0.694848	-0.179478
O206	O	1.285801	-0.194848	0.320522
H207	H	0.736395	-0.705371	-0.190211
H208	H	1.236395	-0.205371	0.309789
H209	H	0.982789	-0.952928	-0.376749
H210	H	1.482789	-0.452928	0.123251
H211	H	0.836634	-0.549881	-0.230387
H212	H	1.336634	-0.049881	0.269613
O213	O	0.141247	-0.182038	-0.220123
O214	O	0.641247	0.317962	0.279877
H215	H	0.090011	-0.187658	-0.226885
H216	H	0.590011	0.312342	0.273115
H217	H	0.982608	-0.450581	-0.376629
H218	H	1.482608	0.049419	0.123371
H219	H	0.982731	-0.312254	-0.663105
H220	H	1.482731	0.187746	-0.163105
O221	O	0.993366	-0.321111	-0.535141
O222	O	1.493366	0.178889	-0.035141
H223	H	1.021348	-0.344348	-0.569051
H224	H	1.521348	0.155652	-0.069051
O225	O	0.826131	-0.182062	-0.935932
O226	O	1.326131	0.317938	-0.435932
H227	H	0.798151	-0.158815	-0.969826
H228	H	1.298151	0.341185	-0.469826
O229	O	0.825959	-0.443619	-0.219714
O230	O	1.325959	0.056381	0.280286
H231	H	0.832704	-0.401053	-0.226485
H232	H	1.332704	0.098947	0.273515
O233	O	0.826138	-0.182038	-1.072587
O234	O	1.326138	0.317962	-0.572587
H235	H	0.798170	-0.158791	-1.038676
H236	H	1.298170	0.341209	-0.538676
H237	H	0.836757	-0.190944	-0.663057
H238	H	1.336757	0.309056	-0.163057
O239	O	0.542082	-0.321312	-0.386992
O240	O	1.042082	0.178688	0.113008
H241	H	0.575983	-0.344612	-0.414907
H242	H	1.075983	0.155388	0.085093
H243	H	0.982750	-0.312182	-1.063943
H244	H	1.482750	0.187818	-0.563943
O245	O	0.993386	-0.321032	-0.935983
O246	O	1.493386	0.178968	-0.435983
H247	H	1.021370	-0.344267	-0.969893
H248	H	1.521370	0.155733	-0.469893
H249	H	0.550766	-0.190953	-0.230610
H250	H	1.050766	0.309047	0.269390
H251	H	0.982635	-0.549632	-0.376668
H252	H	1.482635	-0.049632	0.123332
H253	H	0.670037	-0.190965	-0.230567
H254	H	1.170037	0.309035	0.269433
O255	O	0.277891	-0.182071	-0.220072
O256	O	0.777891	0.317929	0.279928
H257	H	0.243988	-0.158790	-0.192137
H258	H	0.743988	0.341210	0.307863
H259	H	1.022930	-0.701692	-0.417003
H260	H	1.522930	-0.201692	0.082997
H261	H	1.022963	-0.800739	-0.417029
H262	H	1.522963	-0.300739	0.082971
H263	H	0.836775	-0.953168	-0.230483
H264	H	1.336775	-0.453168	0.269517
H265	H	0.796469	-0.801099	-0.190153
H266	H	1.296469	-0.301099	0.309847
