data_functionalizedCrystal
_audit_creation_method	'MofGen! by Chris Wilmer'
_symmetry_space_group_name_H-M	'P1'
_symmetry_Int_Tables_number	1
_symmetry_cell_setting	triclinic
loop_
_symmetry_equiv_pos_as_xyz
  x,y,z
_cell_length_a	11.169417
_cell_length_b	17.640280
_cell_length_c	17.640618
_cell_angle_alpha	114.318309
_cell_angle_beta	101.225449
_cell_angle_gamma	78.802247
loop_
_atom_site_label
_atom_site_type_symbol
_atom_site_fract_x
_atom_site_fract_y
_atom_site_fract_z
Zn1	Zn	2.029423	-0.233833	0.399664
Zn2	Zn	2.029304	-0.399502	0.234019
Zn3	Zn	1.794965	-0.261723	0.261865
Zn4	Zn	1.862446	-0.371600	0.371807
O5	O	1.929035	-0.316665	0.316839
O6	O	2.197360	-0.255815	0.377695
O7	O	1.969928	-0.404575	0.122379
O8	O	1.797875	-0.142706	0.303457
O9	O	2.197273	-0.377531	0.255996
O10	O	1.970131	-0.122215	0.404696
O11	O	1.797759	-0.303349	0.142837
O12	O	1.635964	-0.276293	0.276445
O13	O	1.912887	-0.329976	0.490837
O14	O	1.685542	-0.357019	0.357219
O15	O	2.035565	-0.228759	0.511303
O16	O	2.035362	-0.511119	0.228985
O17	O	1.912772	-0.490619	0.330217
C18	C	1.617205	-0.316655	0.316832
C19	C	1.483812	-0.316667	0.316844
C20	C	1.981413	-0.530765	0.273575
C21	C	2.003938	-0.622353	0.255093
C22	C	1.758485	-0.870407	0.457537
C23	C	1.779646	-0.956473	0.440145
C24	C	1.907421	-0.977733	0.334838
C25	C	1.886275	-0.891666	0.352224
C26	C	1.811806	-0.838010	0.413574
C27	C	1.939595	-0.859269	0.308261
C28	C	1.918446	-0.773211	0.325643
C29	C	1.843977	-0.719550	0.386988
C30	C	1.790656	-0.751952	0.430956
C31	C	2.014058	-0.912928	0.246907
C32	C	2.067378	-0.880530	0.202944
C33	C	2.046236	-0.794470	0.220330
C34	C	1.971767	-0.740809	0.281675
C35	C	2.099557	-0.762068	0.176362
C36	C	2.078407	-0.676009	0.193744
C37	C	1.950617	-0.654750	0.299057
C38	C	2.242082	-0.316674	0.316846
C39	C	2.375484	-0.316678	0.316850
C40	C	1.981767	-0.273144	0.531811
C41	C	2.004238	-0.254598	0.623419
C42	C	1.876489	-0.101724	0.360290
C43	C	1.854097	-0.010129	0.378806
C44	C	1.876562	-0.359957	0.102715
C45	C	1.854267	-0.378270	0.011154
C46	C	2.099774	-0.175764	0.763192
C47	C	2.078652	-0.193197	0.677111
C48	C	1.950910	-0.298587	0.655794
C49	C	1.972017	-0.281160	0.741875
C50	C	2.046451	-0.219748	0.795568
C51	C	1.918693	-0.325144	0.774251
C52	C	1.939804	-0.307721	0.860325
C53	C	2.014238	-0.246314	0.914022
C54	C	2.067561	-0.202325	0.881642
C55	C	1.844267	-0.386559	0.720556
C56	C	1.790943	-0.430543	0.752932
C57	C	1.812046	-0.413116	0.839007
C58	C	1.886480	-0.351709	0.892705
C59	C	1.758722	-0.457105	0.871388
C60	C	1.779833	-0.439682	0.957462
C61	C	1.907590	-0.334286	0.978779
H62	H	1.889987	-0.611059	0.349020
H63	H	2.121825	-0.649632	0.157943
O64	O	1.878767	-0.358298	0.603528
C65	C	1.947915	-0.421612	0.542998
H66	H	2.028611	-0.395161	0.535995
H67	H	1.886892	-0.444902	0.480232
H68	H	1.984155	-0.475970	0.563821
O69	O	1.728002	-0.987884	0.482983
C70	C	1.769086	-0.950178	0.569398
H71	H	1.860167	-0.925611	0.578406
H72	H	1.782597	-0.998530	0.598679
H73	H	1.697719	-0.895904	0.600986
H74	H	2.031278	-0.983001	0.232759
H75	H	1.827087	-0.400746	0.650469
H76	H	2.160180	-0.805768	0.126405
O77	O	1.979781	-0.274531	1.030878
C78	C	1.928299	-0.196648	1.026474
H79	H	1.866422	-0.207584	0.964320
H80	H	2.005164	-0.160292	1.031013
H81	H	1.871684	-0.159092	1.080524
H82	H	1.826749	-0.649477	0.401133
H83	H	2.128007	-0.924229	0.152991
O84	O	2.034791	-0.229537	0.997605
C85	C	2.092000	-0.302689	1.010399
H86	H	2.070927	-0.360197	0.951202
H87	H	2.055571	-0.305674	1.065023
H88	H	2.195758	-0.301349	1.025319
O89	O	1.686338	-0.818219	0.517233
C90	C	1.755433	-0.757596	0.580548
H91	H	1.857573	-0.782445	0.580463
H92	H	1.727272	-0.743784	0.644150
H93	H	1.737327	-0.697541	0.568232
H94	H	1.968050	-1.021431	0.284885
O95	O	1.686609	-0.516878	0.819231
C96	C	1.738074	-0.594744	0.823684
H97	H	1.840769	-0.594101	0.846529
H98	H	1.723839	-0.646918	0.758845
H99	H	1.691231	-0.606179	0.869275
O100	O	2.171965	-0.116009	0.815292
C101	C	2.120483	-0.038126	0.810887
H102	H	2.058606	-0.049062	0.748734
H103	H	2.197348	-0.001769	0.815427
H104	H	2.063868	-0.000569	0.864938
O105	O	2.139752	-0.142570	0.933741
C106	C	2.088270	-0.064687	0.929336
H107	H	2.026393	-0.075623	0.867183
H108	H	2.165135	-0.028330	0.933876
H109	H	2.031655	-0.027130	0.983387
H110	H	2.122078	-0.157374	0.650756
O111	O	1.718627	-0.490142	0.700660
C112	C	1.711454	-0.496107	0.617743
H113	H	1.732344	-0.434895	0.618845
H114	H	1.614895	-0.508309	0.583897
H115	H	1.781321	-0.549938	0.583438
O116	O	1.728233	-0.482481	0.988939
C117	C	1.821783	-0.525614	1.027989
H118	H	1.911192	-0.535967	1.001020
H119	H	1.794107	-0.588829	1.016149
H120	H	1.835695	-0.486925	1.098373
H121	H	1.730026	-0.708261	0.480919
