data_functionalizedCrystal
_audit_creation_method	'MofGen! by Chris Wilmer'
_symmetry_space_group_name_H-M	'P1'
_symmetry_Int_Tables_number	1
_symmetry_cell_setting	triclinic
loop_
_symmetry_equiv_pos_as_xyz
  x,y,z
_cell_length_a	6.817900
_cell_length_b	17.982865
_cell_length_c	17.982856
_cell_angle_alpha	95.933657
_cell_angle_beta	102.449936
_cell_angle_gamma	102.450232
loop_
_atom_site_label
_atom_site_type_symbol
_atom_site_fract_x
_atom_site_fract_y
_atom_site_fract_z
V1	V	-4.009917	-0.106138	-0.237879
O2	O	-4.003017	0.004356	-0.233014
O3	O	-3.956484	-0.209738	-0.236575
O4	O	-3.956481	-0.104831	-0.341478
O5	O	-4.003021	-0.101276	-0.127385
V6	V	-4.494850	-0.092883	-0.224623
O7	O	-4.268083	-0.135213	-0.266955
O8	O	-4.686881	-0.063807	-0.195547
O9	O	-4.325076	0.010717	-0.225927
O10	O	-4.619146	-0.203377	-0.229488
O11	O	-4.619143	-0.097744	-0.335117
O12	O	-4.325079	-0.094189	-0.121024
C13	C	-3.800423	-0.234983	-0.232906
C14	C	-3.837989	-0.319679	-0.232531
C15	C	-3.800418	-0.101164	-0.366719
C16	C	-3.837978	-0.100781	-0.451414
C17	C	-4.032237	-0.828458	-0.160349
C18	C	-3.996940	-0.748878	-0.160712
C19	C	-4.015573	-0.720188	-0.230700
C20	C	-4.069486	-0.771082	-0.300330
C21	C	-4.104768	-0.850660	-0.299967
C22	C	-3.927199	-0.450154	-0.301798
C23	C	-3.891918	-0.370569	-0.302157
C24	C	-3.819372	-0.348371	-0.162544
C25	C	-3.854653	-0.427949	-0.162180
C26	C	-3.908552	-0.478836	-0.231809
C27	C	-3.946821	-0.565126	-0.231415
C28	C	-3.977320	-0.633901	-0.231095
C29	C	-3.891894	-0.170407	-0.502301
C30	C	-3.927194	-0.170046	-0.581881
C31	C	-3.908563	-0.100059	-0.610573
C32	C	-3.854648	-0.030428	-0.559680
C33	C	-3.819363	-0.030789	-0.480102
C34	C	-3.996948	-0.028967	-0.880610
C35	C	-4.032231	-0.028611	-0.960194
C36	C	-4.104779	-0.168224	-0.982389
C37	C	-4.069494	-0.168586	-0.902811
C38	C	-4.015593	-0.098956	-0.851925
C39	C	-3.977321	-0.099348	-0.765636
C40	C	-3.946819	-0.099666	-0.696861
C41	C	-4.144479	0.035959	-0.229594
C42	C	-4.086151	0.120654	-0.229974
C43	C	-4.144484	-0.097859	-0.095779
C44	C	-4.086163	-0.098238	-0.011083
H45	H	-3.953048	-0.707447	-0.104016
O46	O	-4.087260	-0.743246	-0.368331
C47	C	-3.965851	-0.734215	-0.484171
C48	C	-3.945462	-0.765766	-0.407173
H49	H	-3.851256	-0.752423	-0.515605
H50	H	-3.931274	-0.668592	-0.472517
H51	H	-4.130250	-0.758316	-0.521421
H52	H	-3.781095	-0.741723	-0.369886
H53	H	-3.980167	-0.831389	-0.418884
H54	H	-3.839486	-0.451304	-0.105188
O55	O	-3.767055	0.036774	-0.430563
C56	C	-3.680436	0.098096	-0.298126
C57	C	-3.739695	0.021523	-0.354142
H58	H	-3.658255	0.085793	-0.236328
H59	H	-3.809017	0.129672	-0.311232
H60	H	-3.530008	0.135522	-0.305354
H61	H	-3.890071	-0.015963	-0.346946
H62	H	-3.610989	-0.009992	-0.341022
O63	O	-4.013961	-0.856193	-0.092291
C64	C	-3.938384	-0.825768	0.046151
C65	C	-3.958974	-0.794257	-0.030871
H66	H	-3.893968	-0.775710	0.095828
H67	H	-3.813490	-0.859450	0.052794
H68	H	-4.092615	-0.865485	0.046843
H69	H	-3.804846	-0.754509	-0.031617
H70	H	-4.083964	-0.760621	-0.037484
O71	O	-4.087779	-0.236642	-0.875072
C72	C	-4.163377	-0.375085	-0.905486
C73	C	-4.142772	-0.298067	-0.937003
H74	H	-4.207799	-0.424766	-0.955541
H75	H	-4.288273	-0.381722	-0.871805
H76	H	-4.009151	-0.375778	-0.865767
H77	H	-4.296896	-0.297320	-0.976753
H78	H	-4.017780	-0.291461	-0.970639
H79	H	-4.148679	-0.224921	-1.023831
O80	O	-3.766886	-0.298829	-0.094970
C81	C	-3.680494	-0.166399	-0.033648
C82	C	-3.739861	-0.222414	-0.110225
H83	H	-3.658669	-0.104607	-0.045956
H84	H	-3.529955	-0.173524	0.003790
H85	H	-3.809066	-0.179606	-0.002084
H86	H	-3.611426	-0.209242	-0.141854
H87	H	-3.890460	-0.215277	-0.147607
H88	H	-3.907102	-0.347214	-0.359153
O89	O	-3.979633	-0.499473	-0.369505
C90	C	-4.047738	-0.513084	-0.508022
C91	C	-3.988390	-0.457140	-0.431398
H92	H	-4.054794	-0.478879	-0.558082
H93	H	-4.205647	-0.553877	-0.514330
H94	H	-3.926553	-0.547917	-0.508373
H95	H	-4.109435	-0.422256	-0.430994
H96	H	-3.830427	-0.416398	-0.425121
O97	O	-4.157502	-0.900073	-0.367627
C98	C	-4.402972	-0.947072	-0.490491
C99	C	-4.343529	-0.891088	-0.413890
H100	H	-4.553355	-0.939815	-0.527923
H101	H	-4.425140	-1.008894	-0.478257
H102	H	-4.274321	-0.933913	-0.522026
H103	H	-4.472108	-0.904176	-0.382317
H104	H	-4.321290	-0.829282	-0.426177
H105	H	-3.907055	-0.227399	-0.478947
H106	H	-3.971104	-0.226743	-0.623311
O107	O	-3.944860	0.038716	-0.831274
C108	C	-4.044849	0.154294	-0.791649
C109	C	-4.104075	0.077668	-0.847582
H110	H	-4.173560	0.185801	-0.804804
H111	H	-3.894445	0.191767	-0.798846
H112	H	-4.022746	0.142013	-0.729844
H113	H	-4.126290	0.089878	-0.909410
H114	H	-4.254427	0.040219	-0.840318
H115	H	-4.017067	0.028385	-0.983551
O116	O	-3.836883	0.037503	-0.587648
C117	C	-4.007376	0.115328	-0.668279
C118	C	-4.027772	0.038356	-0.636678
H119	H	-4.161698	0.116050	-0.707913
H120	H	-3.882662	0.121925	-0.702043
H121	H	-3.962686	0.165021	-0.618225
H122	H	-4.072531	-0.011382	-0.686685
H123	H	-4.152433	0.031827	-0.602892
