data_functionalizedCrystal
_audit_creation_method	'MofGen! by Chris Wilmer'
_symmetry_space_group_name_H-M	'P1'
_symmetry_Int_Tables_number	1
_symmetry_cell_setting	triclinic
loop_
_symmetry_equiv_pos_as_xyz
  x,y,z
_cell_length_a	10.654546
_cell_length_b	17.038275
_cell_length_c	9.130313
_cell_angle_alpha	90.010948
_cell_angle_beta	89.998487
_cell_angle_gamma	92.203261
loop_
_atom_site_label
_atom_site_type_symbol
_atom_site_fract_x
_atom_site_fract_y
_atom_site_fract_z
O1	O	1.678036	-0.109859	-0.121878
O2	O	1.313529	-0.120331	-0.121875
O3	O	1.493618	-0.001267	-0.121831
O4	O	1.497947	-0.228922	-0.121922
O5	O	1.493616	-0.001271	0.121768
O6	O	1.313527	-0.120334	0.121724
O7	O	1.678034	-0.109862	0.121721
Cu8	Cu	1.495780	-0.115098	0.143965
Cu9	Cu	1.495783	-0.115095	-0.144119
O10	O	1.497945	-0.228926	0.121677
C11	C	1.489677	0.027881	-0.000022
C12	C	1.477921	0.114740	0.000003
C13	C	1.266659	-0.119564	-0.000074
C14	C	1.127002	-0.117266	-0.000071
C15	C	1.724904	-0.110629	-0.000083
C16	C	1.864561	-0.112927	-0.000096
C17	C	1.405701	0.605554	-0.000093
C18	C	1.416756	0.523942	-0.000085
C19	C	1.535757	0.491845	-0.000069
C20	C	1.643709	0.541365	-0.000075
C21	C	1.632652	0.622975	-0.000094
C22	C	1.574817	0.245870	-0.000022
C23	C	1.585865	0.164253	0.000001
C24	C	1.358912	0.146836	-0.000011
C25	C	1.347866	0.228449	-0.000021
C26	C	1.455818	0.277961	-0.000035
C27	C	1.547060	0.408425	-0.000056
C28	C	1.444513	0.361380	-0.000059
C29	C	2.061410	-0.116177	-0.132864
C30	C	1.930188	-0.114011	-0.132877
C31	C	1.930162	-0.114018	0.132708
C32	C	2.061381	-0.116190	0.132719
C33	C	2.061424	-0.116170	-0.286197
C34	C	1.930202	-0.114003	-0.286211
C35	C	1.501887	0.741926	-0.000116
C36	C	1.513645	0.655068	-0.000095
N37	N	1.495788	-0.115101	0.346588
N38	N	1.495785	-0.115086	-0.346741
C39	C	1.575555	-0.062397	0.423259
C40	C	1.575551	-0.062388	0.576596
C41	C	1.416009	-0.167792	0.576576
C42	C	1.416008	-0.167797	0.423242
C43	C	1.667669	-0.001545	0.423272
C44	C	1.667665	-0.001536	0.576609
H45	H	1.308798	0.631681	-0.000089
H46	H	1.271024	0.106515	-0.000001
H47	H	1.760622	-0.020598	0.375704
H48	H	1.351044	-0.210705	0.360818
C49	C	1.298008	0.469480	-0.000098
N50	N	1.208562	0.428460	-0.000114
H51	H	1.250963	0.254576	-0.000051
H52	H	1.631876	0.055286	0.624179
H53	H	1.765421	-0.014939	0.618218
H54	H	1.662720	0.286174	-0.000025
H55	H	1.351053	-0.210695	0.639005
H56	H	1.682774	0.138123	0.000015
C57	C	1.889747	-0.039375	-0.365706
N58	N	1.859277	0.016834	-0.425576
C59	C	1.857968	-0.112830	0.278769
N60	N	1.803593	-0.111934	0.388785
H61	H	1.740602	0.515225	-0.000059
H62	H	1.643951	0.382282	0.000006
H63	H	1.720552	0.663289	-0.000102
H64	H	2.091371	-0.171407	-0.345089
C65	C	1.631151	0.079683	0.367071
N66	N	1.603642	0.140863	0.324741
H67	H	2.107976	-0.060457	-0.333743
H68	H	2.114781	-0.117085	0.240852
H69	H	1.347624	0.387517	-0.000079
C70	C	1.867323	-0.189264	-0.350538
N71	N	1.819961	-0.245950	-0.398987
