data_functionalizedCrystal
_audit_creation_method	'MofGen! by Chris Wilmer'
_symmetry_space_group_name_H-M	'P1'
_symmetry_Int_Tables_number	1
_symmetry_cell_setting	triclinic
loop_
_symmetry_equiv_pos_as_xyz
  x,y,z
_cell_length_a	14.971486
_cell_length_b	9.065218
_cell_length_c	13.448316
_cell_angle_alpha	89.995277
_cell_angle_beta	89.998199
_cell_angle_gamma	84.315007
loop_
_atom_site_label
_atom_site_type_symbol
_atom_site_fract_x
_atom_site_fract_y
_atom_site_fract_z
O1	O	1.188380	0.192261	-0.082573
O2	O	0.928152	0.215285	-0.082600
O3	O	1.063645	-0.010978	-0.082584
O4	O	1.052887	0.418525	-0.082589
O5	O	1.063628	-0.010992	0.082800
O6	O	0.928134	0.215271	0.082784
O7	O	1.188363	0.192248	0.082811
Cu8	Cu	1.058247	0.203758	0.097898
Cu9	Cu	1.058268	0.203775	-0.097687
O10	O	1.052870	0.418511	0.082795
C11	C	0.894811	0.214248	0.000089
C12	C	0.795491	0.211163	0.000078
C13	C	0.739256	0.344086	0.000078
C14	C	0.645935	0.341178	0.000093
C15	C	0.608850	0.205345	0.000101
C16	C	0.665092	0.072412	0.000104
C17	C	0.758411	0.075321	0.000096
C18	C	0.470584	0.066357	0.000118
C19	C	0.377259	0.063446	0.000124
C20	C	0.358108	0.332214	0.000115
C21	C	0.451427	0.335123	0.000107
C22	C	0.507663	0.202189	0.000108
C23	C	1.062602	-0.065951	0.000106
C24	C	1.059511	-0.229731	0.000101
C25	C	1.221704	0.193284	0.000120
C26	C	1.321024	0.196370	0.000124
C27	C	1.053912	0.473483	0.000102
C28	C	1.057004	0.637264	0.000101
N29	N	1.058239	0.203746	0.235462
N30	N	1.058283	0.203775	-0.235252
C31	C	1.118255	0.103597	0.287510
C32	C	1.118260	0.103596	0.391613
C33	C	1.058254	0.203751	0.443667
C34	C	0.998232	0.303904	0.391612
C35	C	0.998223	0.303897	0.287511
C36	C	0.998257	0.303914	0.608592
C37	C	0.998267	0.303924	0.712701
C38	C	1.118294	0.103613	0.712694
C39	C	1.118285	0.103606	0.608593
C40	C	1.058264	0.203761	0.556546
H41	H	0.769442	0.454697	0.000071
C42	C	1.184315	-0.006564	0.769949
N43	N	1.234041	-0.089544	0.813077
H44	H	0.949378	0.385467	0.566219
C45	C	0.336468	-0.085977	0.000134
N46	N	0.305744	-0.198525	0.000142
C47	C	0.532442	-0.079879	0.000116
N48	N	0.579033	-0.190022	0.000107
H49	H	0.949403	0.385479	0.755078
H50	H	0.949369	0.385448	0.434001
H51	H	0.634890	-0.038186	0.000125
H52	H	0.949351	0.385446	0.245135
H53	H	0.804197	-0.032919	0.000096
C54	C	0.296247	0.478443	0.000118
N55	N	0.249650	0.588579	0.000118
C56	C	1.184295	-0.006569	0.551336
N57	N	1.234013	-0.089560	0.508210
C58	C	0.584080	0.487405	0.000111
N59	N	0.537491	0.597550	0.000131
H60	H	1.167122	0.022046	0.245134
H61	H	1.167129	0.022047	0.433990
H62	H	0.481618	0.445730	0.000091
