data_functionalizedCrystal
_audit_creation_method	'MofGen! by Chris Wilmer'
_symmetry_space_group_name_H-M	'P1'
_symmetry_Int_Tables_number	1
_symmetry_cell_setting	triclinic
loop_
_symmetry_equiv_pos_as_xyz
  x,y,z
_cell_length_a	15.995292
_cell_length_b	8.559649
_cell_length_c	15.072220
_cell_angle_alpha	89.992860
_cell_angle_beta	90.006157
_cell_angle_gamma	103.376360
loop_
_atom_site_label
_atom_site_type_symbol
_atom_site_fract_x
_atom_site_fract_y
_atom_site_fract_z
O1	O	-0.028402	-2.120144	0.073769
O2	O	0.014843	-1.654923	0.073772
O3	O	-0.129491	-1.900299	0.073772
O4	O	0.115932	-1.874768	0.073769
O5	O	-0.129504	-1.900269	-0.073793
O6	O	0.014830	-1.654893	-0.073793
O7	O	-0.028414	-2.120114	-0.073796
Zn8	Zn	-0.006794	-1.887498	-0.097224
Zn9	Zn	-0.006778	-1.887538	0.097200
O10	O	0.115920	-1.874738	-0.073796
C11	C	0.018113	-1.595376	-0.000010
C12	C	0.027868	-1.417992	-0.000009
N13	N	-0.006772	-1.887566	0.229888
C14	C	-0.160626	-1.899245	-0.000009
C15	C	-0.253379	-1.896129	-0.000002
C16	C	-0.590381	-1.884677	-0.000010
C17	C	-0.578458	-2.061783	-0.000341
C18	C	-0.481998	-2.065149	-0.000005
C19	C	-0.423191	-1.890360	-0.000006
C20	C	-0.446591	-1.801832	0.084258
C21	C	-0.543244	-1.799700	0.084326
C22	C	-0.542883	-1.796049	-0.083484
C23	C	-0.446813	-1.802612	-0.084594
C24	C	-0.328700	-1.893562	-0.000002
C25	C	-0.684871	-1.881469	-0.000009
C26	C	0.147055	-1.875792	-0.000014
C27	C	0.239807	-1.878907	-0.000015
C28	C	-0.031685	-2.179660	-0.000012
C29	C	-0.041440	-2.357044	-0.000007
C30	C	-0.006784	-1.887538	0.410886
C31	C	-0.083892	-2.019083	0.448527
C32	C	-0.084121	-2.018732	0.551353
C33	C	-0.006795	-1.887515	0.589090
C34	C	-0.015017	-1.720732	0.551740
C35	C	-0.015553	-1.721518	0.448882
C36	C	0.078847	-1.921272	0.448809
C37	C	0.078013	-1.925048	0.551674
C38	C	-0.006799	-1.887490	0.689803
C39	C	-0.006781	-1.887551	0.310172
N40	N	-0.006806	-1.887487	0.770087
H41	H	-0.467438	-2.134482	-0.060408
Br42	Br	0.139217	-1.278779	0.000002
Br43	Br	-0.078619	-2.225349	0.593450
H44	H	-0.108240	-1.440567	-0.000002
H45	H	-0.432398	-1.867074	-0.146932
H46	H	-0.077671	-1.691819	0.424882
Br47	Br	-0.078757	-2.226421	0.407330
Br48	Br	-0.189605	-1.983650	0.405436
H49	H	-0.147893	-1.997153	0.575950
H50	H	0.084504	-2.047741	0.576086
Br51	Br	0.075430	-1.553449	0.407372
Br52	Br	-0.379689	-1.587455	0.089487
Br53	Br	0.076855	-1.553617	0.592474
Br54	Br	-0.117256	-1.670010	0.594656
H55	H	0.089435	-2.040305	0.422880
Br56	Br	-0.378191	-1.589964	-0.093082
Br57	Br	0.176737	-1.775727	0.594490
Br58	Br	-0.419742	-1.904334	0.188783
Br59	Br	0.174274	-1.761394	0.408233
H60	H	-0.610850	-2.130035	-0.060770
Br61	Br	-0.458782	-2.181428	0.100850
Br62	Br	-0.634089	-2.174962	0.099811
H63	H	-0.573998	-1.861035	0.147316
H64	H	-0.549443	-1.669845	0.088142
H65	H	-0.548490	-1.665686	-0.084052
Br66	Br	-0.595998	-1.888371	-0.189936
