data_functionalizedCrystal
_audit_creation_method	'MofGen! by Chris Wilmer'
_symmetry_space_group_name_H-M	'P1'
_symmetry_Int_Tables_number	1
_symmetry_cell_setting	triclinic
loop_
_symmetry_equiv_pos_as_xyz
  x,y,z
_cell_length_a	18.101398
_cell_length_b	18.101397
_cell_length_c	12.645331
_cell_angle_alpha	89.996656
_cell_angle_beta	90.001196
_cell_angle_gamma	89.982081
loop_
_atom_site_label
_atom_site_type_symbol
_atom_site_fract_x
_atom_site_fract_y
_atom_site_fract_z
Zn1	Zn	1.132083	0.295053	0.599272
Zn2	Zn	1.132032	0.418847	0.421998
Zn3	Zn	1.008271	0.295020	0.422032
Zn4	Zn	1.008217	0.418854	0.599228
O5	O	1.070151	0.356943	0.510632
O6	O	1.235709	0.311486	0.575761
O7	O	1.115616	0.402404	0.273655
O8	O	1.024738	0.191391	0.445576
O9	O	1.235672	0.402437	0.445518
O10	O	1.115703	0.191416	0.575794
O11	O	1.024689	0.311428	0.273680
O12	O	0.904631	0.311435	0.445533
O13	O	1.024648	0.402448	0.747581
O14	O	0.904592	0.402416	0.575718
O15	O	1.115651	0.311493	0.747614
O16	O	1.115564	0.522480	0.445474
O17	O	1.024598	0.522486	0.575685
C18	C	0.877740	0.356923	0.510625
C19	C	0.795426	0.356932	0.510647
C20	C	0.644718	0.356946	0.510645
C21	C	0.613364	0.414276	0.592427
C22	C	0.527746	0.414508	0.592185
C23	C	0.496335	0.356960	0.510646
C24	C	0.527410	0.377752	0.398788
C25	C	0.613055	0.378160	0.399261
C26	C	0.613176	0.278680	0.539744
C27	C	0.527526	0.279110	0.542208
C28	C	0.412476	0.356966	0.510639
C29	C	0.728577	0.356941	0.510645
C30	C	1.070090	0.549354	0.510594
C31	C	1.070131	0.631668	0.510613
C32	C	1.070149	0.356975	0.787138
C33	C	1.070149	0.356989	0.904968
C34	C	1.263313	0.356964	0.510640
C35	C	1.345627	0.356973	0.510644
C36	C	1.070232	0.163781	0.510694
C37	C	1.070267	0.081467	0.510721
C38	C	1.070176	0.782376	0.510649
C39	C	1.127466	0.813696	0.428804
C40	C	1.127324	0.899314	0.428503
C41	C	1.070222	0.930759	0.510684
C42	C	0.992125	0.899731	0.480623
C43	C	0.992430	0.814086	0.480008
C44	C	1.090311	0.813905	0.622769
C45	C	1.092059	0.899555	0.622192
C46	C	1.070243	1.014618	0.510706
C47	C	1.070150	0.698517	0.510625
C48	C	1.012688	0.413993	1.072511
C49	C	1.012863	0.414236	0.949951
C50	C	1.148170	0.378186	0.949475
C51	C	1.147830	0.378582	1.072074
C52	C	1.050249	0.278591	1.072177
C53	C	1.048533	0.279022	0.949571
C54	C	1.070144	0.356939	1.235203
C55	C	1.070136	0.356958	1.117373
H56	H	0.507065	0.337274	0.336180
H57	H	0.507239	0.472508	0.572880
H58	H	0.994333	0.259293	1.103091
H59	H	0.507217	0.263424	0.624529
H60	H	0.975391	0.794139	0.398058
N61	N	0.500696	0.222697	0.473000
N62	N	0.432824	0.211109	0.465547
H63	H	0.413873	0.171269	0.416661
N64	N	0.940288	0.397602	0.912173
N65	N	0.928000	0.394940	0.814976
H66	H	0.876740	0.383195	0.788297
N67	N	0.501363	0.398250	0.696205
N68	N	0.461544	0.342866	0.711510
H69	H	0.442910	0.331390	0.784979
H70	H	1.026003	0.472312	0.920628
H71	H	0.633455	0.235970	0.480184
H72	H	0.954647	0.400874	1.101993
H73	H	1.185228	0.920290	0.447279
H74	H	1.025688	0.471726	1.103321
N75	N	1.102746	0.225289	1.108576
N76	N	1.154601	0.244830	1.167545
H77	H	1.191680	0.207191	1.193257
H78	H	0.634867	0.471943	0.573355
H79	H	1.164690	0.435869	1.100675
N80	N	0.638085	0.449917	0.368402
N81	N	0.592302	0.499348	0.346669
H82	H	0.609975	0.550029	0.324875
N83	N	0.640263	0.254832	0.640352
N84	N	0.621039	0.193593	0.676794
H85	H	0.640168	0.176756	0.747853
N86	N	1.110593	0.925038	0.324293
N87	N	1.054949	0.964510	0.308900
H88	H	1.043132	0.982670	0.235293
H89	H	0.948282	0.793370	0.537044
N90	N	1.164158	0.924979	0.650655
N91	N	1.214738	0.879502	0.667810
H92	H	1.265659	0.897461	0.687910
N93	N	0.639069	0.328019	0.320188
N94	N	0.593970	0.292840	0.264824
H95	H	0.612338	0.257428	0.208978
N96	N	0.976521	0.258935	0.913046
N97	N	0.948911	0.198465	0.939771
H98	H	0.898057	0.184274	0.913957
H99	H	0.633969	0.401461	0.675612
N100	N	1.203349	0.328729	1.109296
N101	N	1.242226	0.293759	1.044726
H102	H	1.281436	0.258551	1.071008
N103	N	1.043554	0.926392	0.702768
N104	N	1.006382	0.881981	0.756587
H105	H	0.972117	0.900936	0.813489
N106	N	1.203318	0.327692	0.912924
N107	N	1.185690	0.275396	0.853520
H108	H	1.224637	0.239733	0.827704
N109	N	0.500473	0.448723	0.367412
N110	N	0.458400	0.484110	0.427238
H111	H	0.439375	0.534235	0.405085
H112	H	1.087331	0.234260	0.918951
H113	H	1.114290	0.792196	0.346201
N114	N	1.169709	0.449268	0.910959
N115	N	1.175838	0.460077	0.813723
H116	H	1.191048	0.510280	0.786520
N117	N	1.200317	0.787811	0.452093
N118	N	1.210867	0.745975	0.529279
H119	H	1.262320	0.727690	0.545731
H120	H	0.948289	0.920102	0.538413
N121	N	0.970408	0.926668	0.378950
N122	N	1.008947	0.912549	0.299456
H123	H	0.993615	0.931573	0.227646
H124	H	1.048588	0.793649	0.683748
N125	N	1.160510	0.786748	0.657163
N126	N	1.170586	0.718831	0.667749
H127	H	1.220165	0.699649	0.692034
