data_functionalizedCrystal
_audit_creation_method	'MofGen! by Chris Wilmer'
_symmetry_space_group_name_H-M	'P1'
_symmetry_Int_Tables_number	1
_symmetry_cell_setting	triclinic
loop_
_symmetry_equiv_pos_as_xyz
  x,y,z
_cell_length_a	12.594516
_cell_length_b	12.594517
_cell_length_c	21.395355
_cell_angle_alpha	89.984992
_cell_angle_beta	89.988593
_cell_angle_gamma	90.011939
loop_
_atom_site_label
_atom_site_type_symbol
_atom_site_fract_x
_atom_site_fract_y
_atom_site_fract_z
Zn1	Zn	-0.423982	1.627304	-0.354133
Zn2	Zn	-0.090649	1.960637	-0.020799
Zn3	Zn	0.242684	2.293971	0.312534
Zn4	Zn	-0.601947	1.627184	-0.249368
Zn5	Zn	-0.268613	1.960517	0.083965
Zn6	Zn	0.064720	2.293850	0.417298
Zn7	Zn	-0.423970	1.449297	-0.249387
Zn8	Zn	-0.090636	1.782630	0.083946
Zn9	Zn	0.242697	2.115964	0.417280
Zn10	Zn	-0.601906	1.449290	-0.354126
Zn11	Zn	-0.268573	1.782623	-0.020793
Zn12	Zn	0.064760	2.115957	0.312541
O13	O	-0.512951	1.538269	-0.301754
O14	O	-0.179618	1.871602	0.031580
O15	O	0.153715	2.204935	0.364913
O16	O	-0.447612	1.776234	-0.340231
O17	O	-0.114278	2.109567	-0.006897
O18	O	0.219055	2.442900	0.326436
O19	O	-0.578349	1.603539	-0.161693
O20	O	-0.245016	1.936873	0.171640
O21	O	0.088318	2.270206	0.504974
O22	O	-0.275026	1.472963	-0.263292
O23	O	0.058308	1.806296	0.070041
O24	O	0.391641	2.139630	0.403374
O25	O	-0.578361	1.776146	-0.263261
O26	O	-0.245028	2.109479	0.070073
O27	O	0.088305	2.442812	0.403406
O28	O	-0.275035	1.603744	-0.340249
O29	O	0.058298	1.937077	-0.006915
O30	O	0.391632	2.270411	0.326418
O31	O	-0.447590	1.472847	-0.161707
O32	O	-0.114257	1.806180	0.171627
O33	O	0.219076	2.139513	0.504960
O34	O	-0.447551	1.300350	-0.263286
O35	O	-0.114218	1.633684	0.070048
O36	O	0.219115	1.967017	0.403381
O37	O	-0.578293	1.472951	-0.441805
O38	O	-0.244959	1.806285	-0.108471
O39	O	0.088374	2.139618	0.224862
O40	O	-0.578281	1.300345	-0.340237
O41	O	-0.244947	1.633678	-0.006904
O42	O	0.088386	1.967012	0.326430
O43	O	-0.447573	1.603737	-0.441810
O44	O	-0.114239	1.937071	-0.108476
O45	O	0.219094	2.270404	0.224857
O46	O	-0.750887	1.603533	-0.263254
O47	O	-0.417554	1.936866	0.070079
O48	O	-0.084220	2.270199	0.403413
O49	O	-0.750857	1.472835	-0.340219
O50	O	-0.417524	1.806168	-0.006886
O51	O	-0.084191	2.139502	0.326448
C52	C	-0.512911	1.261728	-0.301763
C53	C	-0.179578	1.595061	0.031570
C54	C	0.153756	1.928394	0.364904
C55	C	-0.512919	1.143422	-0.301782
C56	C	-0.179586	1.476756	0.031551
C57	C	0.153747	1.810089	0.364885
C58	C	-0.584162	1.074197	-0.343555
C59	C	-0.250829	1.407531	-0.010222
C60	C	0.082504	1.740864	0.323112
C61	C	-0.487123	1.003390	-0.358963
C62	C	-0.153790	1.336724	-0.025629
C63	C	0.179544	1.670057	0.307704
C64	C	-0.610039	1.003430	-0.286360
C65	C	-0.276705	1.336764	0.046973
C66	C	0.056628	1.670097	0.380306
C67	C	-0.415829	1.074174	-0.317220
C68	C	-0.082495	1.407507	0.016113
C69	C	0.250838	1.740840	0.349447
C70	C	-0.538810	1.074220	-0.244591
C71	C	-0.205476	1.407553	0.088743
C72	C	0.127857	1.740886	0.422076
C73	C	-0.441704	1.003445	-0.259977
C74	C	-0.108370	1.336778	0.073357
C75	C	0.224963	1.670111	0.406690
C76	C	-0.789492	1.538199	-0.301747
C77	C	-0.456159	1.871532	0.031586
C78	C	-0.122826	2.204866	0.364919
C79	C	-0.907798	1.538266	-0.301766
C80	C	-0.574464	1.871600	0.031568
C81	C	-0.241131	2.204933	0.364901
C82	C	-0.977073	1.467173	-0.343598
C83	C	-0.643740	1.800506	-0.010264
C84	C	-0.310407	2.133840	0.323069
C85	C	-1.047912	1.441234	-0.286428
C86	C	-0.714578	1.774567	0.046905
C87	C	-0.381245	2.107900	0.380239
C88	C	-1.047758	1.564303	-0.358945
C89	C	-0.714425	1.897636	-0.025612
C90	C	-0.381092	2.230969	0.307722
C91	C	-0.977078	1.512276	-0.244566
C92	C	-0.643745	1.845609	0.088767
C93	C	-0.310411	2.178942	0.422101
C94	C	-0.976918	1.635390	-0.317121
C95	C	-0.643585	1.968723	0.016212
C96	C	-0.310251	2.302057	0.349545
C97	C	-1.047724	1.609488	-0.259913
C98	C	-0.714391	1.942821	0.073421
C99	C	-0.381058	2.276154	0.406754
C100	C	-0.235330	1.538368	-0.301773
C101	C	0.098003	1.871701	0.031560
C102	C	0.431336	2.205034	0.364893
C103	C	-0.117025	1.538410	-0.301782
C104	C	0.216308	1.871743	0.031551
C105	C	0.549642	2.205077	0.364885
C106	C	-0.512930	1.538357	-0.465177
C107	C	-0.179596	1.871690	-0.131844
C108	C	0.153737	2.205024	0.201490
C109	C	-0.512921	1.538395	-0.534818
C110	C	-0.179587	1.871728	-0.201485
C111	C	0.153746	2.205061	0.131849
C112	C	-0.512992	1.815889	-0.301744
C113	C	-0.179659	2.149223	0.031589
C114	C	0.153674	2.482556	0.364922
C115	C	-0.513010	1.934195	-0.301740
C116	C	-0.179677	2.267528	0.031593
C117	C	0.153657	2.600862	0.364926
C118	C	-0.444852	1.606492	-0.567535
C119	C	-0.111518	1.939825	-0.234202
C120	C	0.221815	2.273159	0.099132
C121	C	-0.444806	1.606491	-0.632970
C122	C	-0.111473	1.939824	-0.299637
C123	C	0.221861	2.273157	0.033696
C124	C	-0.512848	1.538403	-0.665687
C125	C	-0.179515	1.871736	-0.332353
C126	C	0.153819	2.205070	0.000980
C127	C	-0.580922	1.470292	-0.632962
C128	C	-0.247588	1.803626	-0.299629
C129	C	0.085745	2.136959	0.033705
C130	C	-0.580958	1.470288	-0.567528
C131	C	-0.247625	1.803622	-0.234194
C132	C	0.085709	2.136955	0.099139
C133	C	-0.608685	1.529974	-0.769360
C134	C	-0.275351	1.863308	-0.436027
C135	C	0.057982	2.196641	-0.102693
C136	C	-0.608650	1.529986	-0.834793
C137	C	-0.275317	1.863319	-0.501460
C138	C	0.058016	2.196653	-0.168126
C139	C	-0.512736	1.538410	-0.867507
C140	C	-0.179402	1.871743	-0.534174
C141	C	0.153931	2.205076	-0.200841
C142	C	-0.416852	1.546844	-0.834781
C143	C	-0.083519	1.880177	-0.501447
C144	C	0.249814	2.213510	-0.168114
C145	C	-0.416889	1.546840	-0.769347
C146	C	-0.083555	1.880173	-0.436013
C147	C	0.249778	2.213506	-0.102680
C148	C	-0.512816	1.538399	-0.736639
C149	C	-0.179482	1.871733	-0.403306
C150	C	0.153851	2.205066	-0.069972
C151	C	-0.444611	1.606509	-0.971177
C152	C	-0.111278	1.939842	-0.637843
C153	C	0.222055	2.273176	-0.304510
C154	C	-0.444564	1.606500	-1.036613
C155	C	-0.111230	1.939833	-0.703280
C156	C	0.222103	2.273167	-0.369947
C157	C	-0.580689	1.470307	-1.036604
C158	C	-0.247356	1.803641	-0.703270
C159	C	0.085978	2.136974	-0.369937
C160	C	-0.580727	1.470311	-0.971168
C161	C	-0.247394	1.803644	-0.637835
C162	C	0.085940	2.136977	-0.304502
C163	C	-0.512690	1.538417	-0.938459
C164	C	-0.179356	1.871750	-0.605125
C165	C	0.153977	2.205084	-0.271792
C166	C	-0.512896	1.538242	-0.138966
C167	C	-0.179563	1.871575	0.194367
C168	C	0.153771	2.204909	0.527701
C169	C	-0.512605	1.538410	-0.069325
C170	C	-0.179272	1.871744	0.264008
C171	C	0.154061	2.205077	0.597342
H172	H	-0.692133	0.972350	-0.273336
H173	H	-0.358799	1.305683	0.059998
H174	H	-0.025466	1.639016	0.393331
F175	F	-0.308493	1.114617	-0.334318
F176	F	0.024841	1.447950	-0.000985
F177	F	0.358174	1.781283	0.332348
F178	F	-1.088018	1.688154	-0.213632
F179	F	-0.754685	2.021487	0.119702
F180	F	-0.421351	2.354820	0.453035
H181	H	-0.636079	1.414858	-1.063241
H182	H	-0.302746	1.748192	-0.729907
H183	H	0.030587	2.081525	-0.396574
F184	F	-0.314846	1.555810	-0.734519
F185	F	0.018488	1.889144	-0.401186
F186	F	0.351821	2.222477	-0.067852
F187	F	-0.362918	0.963092	-0.213780
F188	F	-0.029585	1.296425	0.119554
F189	F	0.303748	1.629759	0.452887
F190	F	-0.567413	1.114887	-0.181405
F191	F	-0.234079	1.448221	0.151928
F192	F	0.099254	1.781554	0.485262
H193	H	-0.389449	1.661948	-0.540907
H194	H	-0.056116	1.995282	-0.207573
H195	H	0.277218	2.328615	0.125760
H196	H	-0.389370	1.661941	-0.659614
H197	H	-0.056037	1.995275	-0.326280
H198	H	0.277296	2.328608	0.007053
H199	H	-0.945713	1.717440	-0.330124
H200	H	-0.612380	2.050774	0.003210
H201	H	-0.279047	2.384107	0.336543
H202	H	-1.078805	1.586266	-0.407294
H203	H	-0.745471	1.919600	-0.073961
H204	H	-0.412138	2.252933	0.259372
H205	H	-0.465257	0.972278	-0.407311
H206	H	-0.131923	1.305612	-0.073977
H207	H	0.201410	1.638945	0.259356
H208	H	-0.644294	1.105266	-0.378926
H209	H	-0.310960	1.438599	-0.045593
H210	H	0.022373	1.771933	0.287740
F211	F	-1.088669	1.333958	-0.269454
F212	F	-0.755336	1.667292	0.063879
F213	F	-0.422003	2.000625	0.397212
F214	F	-0.936521	1.388453	-0.389770
F215	F	-0.603188	1.721786	-0.056437
F216	F	-0.269855	2.055120	0.276897
H217	H	-0.946160	1.490217	-0.196203
H218	H	-0.612826	1.823551	0.137130
H219	H	-0.279493	2.156884	0.470463
F220	F	-0.314765	1.555813	-0.869592
F221	F	0.018569	1.889147	-0.536259
F222	F	0.351902	2.222480	-0.202926
F223	F	-0.372197	1.678988	-0.936363
F224	F	-0.038864	2.012322	-0.603029
F225	F	0.294470	2.345655	-0.269696
F226	F	-0.372124	1.678995	-1.071433
F227	F	-0.038790	2.012328	-0.738099
F228	F	0.294543	2.345662	-0.404766
H229	H	-0.636162	1.414865	-0.944530
H230	H	-0.302829	1.748198	-0.611197
H231	H	0.030504	2.081531	-0.277863
H232	H	-0.686724	1.523125	-0.861434
H233	H	-0.353391	1.856458	-0.528100
H234	H	-0.020058	2.189791	-0.194767
F235	F	-0.710780	1.521033	-0.734549
F236	F	-0.377446	1.854366	-0.401216
F237	F	-0.044113	2.187700	-0.067882
F238	F	-0.653333	1.397825	-0.667782
F239	F	-0.320000	1.731159	-0.334448
F240	F	0.013333	2.064492	-0.001115
H241	H	-0.636386	1.414830	-0.540890
H242	H	-0.303053	1.748164	-0.207557
H243	H	0.030280	2.081497	0.125777
