data_functionalizedCrystal
_audit_creation_method	'MofGen! by Chris Wilmer'
_symmetry_space_group_name_H-M	'P1'
_symmetry_Int_Tables_number	1
_symmetry_cell_setting	triclinic
loop_
_symmetry_equiv_pos_as_xyz
  x,y,z
_cell_length_a	19.805407
_cell_length_b	25.639239
_cell_length_c	19.805399
_cell_angle_alpha	89.971274
_cell_angle_beta	89.980427
_cell_angle_gamma	90.038686
loop_
_atom_site_label
_atom_site_type_symbol
_atom_site_fract_x
_atom_site_fract_y
_atom_site_fract_z
Zn1	Zn	1.034678	-0.208163	-0.382714
Zn2	Zn	1.034569	-0.295597	-0.269524
Zn3	Zn	0.921493	-0.208177	-0.269539
Zn4	Zn	0.921432	-0.295569	-0.382670
O5	O	0.978043	-0.251877	-0.326112
O6	O	1.129380	-0.219767	-0.367711
O7	O	1.019548	-0.284018	-0.174809
O8	O	0.936578	-0.135010	-0.284576
O9	O	1.129300	-0.284004	-0.284551
O10	O	1.019735	-0.135000	-0.367726
O11	O	0.936472	-0.219791	-0.174820
O12	O	0.826768	-0.219764	-0.284534
O13	O	0.936475	-0.283957	-0.477393
O14	O	0.826723	-0.283971	-0.367651
O15	O	1.019676	-0.219740	-0.477425
O16	O	1.019489	-0.368758	-0.284508
O17	O	0.936368	-0.368738	-0.367637
C18	C	0.802187	-0.251867	-0.326090
C19	C	0.726955	-0.251875	-0.326097
C20	C	0.691605	-0.285357	-0.369306
C21	C	0.620917	-0.285358	-0.369315
C22	C	0.585579	-0.251879	-0.326112
C23	C	0.620934	-0.218393	-0.282901
C24	C	0.691621	-0.218390	-0.282895
C25	C	0.335860	-0.218404	-0.282923
C26	C	0.265168	-0.218411	-0.282931
C27	C	0.265156	-0.285373	-0.369343
C28	C	0.335843	-0.285370	-0.369338
C29	C	0.371192	-0.251882	-0.326129
C30	C	0.447840	-0.251881	-0.326121
C31	C	0.508932	-0.251883	-0.326117
C32	C	0.977929	-0.387719	-0.326081
C33	C	0.977942	-0.445833	-0.326090
C34	C	1.021437	-0.806194	-0.282901
C35	C	1.021463	-0.860799	-0.282910
O36	O	1.058326	-0.889034	-0.246154
N37	N	0.978162	-0.888116	-0.326157
C38	C	0.934836	-0.860825	-0.369402
O39	O	0.898008	-0.889075	-0.406189
C40	C	0.934814	-0.806222	-0.369396
C41	C	0.978113	-0.778908	-0.326141
C42	C	1.064733	-0.778880	-0.239650
C43	C	1.064706	-0.724279	-0.239640
C44	C	1.021382	-0.696993	-0.282881
C45	C	0.978086	-0.724307	-0.326132
C46	C	0.891492	-0.778933	-0.412645
C47	C	0.891474	-0.724326	-0.412635
C48	C	0.934773	-0.697012	-0.369381
C49	C	0.934735	-0.642421	-0.369363
N50	N	0.978036	-0.615104	-0.326116
C51	C	1.021360	-0.642390	-0.282875
C52	C	0.934887	-0.975496	-0.369413
C53	C	0.934906	-1.030098	-0.369416
C54	C	1.021533	-1.030068	-0.282924
C55	C	1.021511	-0.975464	-0.282918
C56	C	0.978188	-0.948179	-0.326166
C57	C	1.021299	-0.527725	-0.282857
C58	C	1.021266	-0.473119	-0.282849
C59	C	0.934641	-0.473155	-0.369343
C60	C	0.934671	-0.527756	-0.369349
C61	C	0.978006	-0.555039	-0.326104
O62	O	0.897893	-0.614151	-0.406101
O63	O	1.058188	-0.614134	-0.246101
C64	C	1.154585	-0.251887	-0.326134
C65	C	1.229817	-0.251891	-0.326144
C66	C	0.978081	-0.251844	-0.502655
C67	C	0.978097	-0.251830	-0.577887
C68	C	0.978175	-0.115504	-0.326158
C69	C	0.978232	-0.057389	-0.326177
C70	C	1.021421	-0.218390	-0.613249
C71	C	1.021428	-0.218375	-0.683937
C72	C	0.978114	-0.251802	-0.719262
C73	C	0.934785	-0.285243	-0.683895
C74	C	0.934775	-0.285255	-0.613208
C75	C	0.934823	-0.285194	-0.968969
C76	C	0.934838	-0.285181	-1.039661
C77	C	1.021476	-0.218314	-1.039698
C78	C	1.021466	-0.218326	-0.969011
C79	C	0.978135	-0.251765	-0.933650
C80	C	0.978127	-0.251780	-0.857001
C81	C	0.978125	-0.251790	-0.795909
C82	C	0.978044	-0.251872	-0.150256
C83	C	0.978159	-0.251738	-0.075024
H84	H	0.592138	-0.312624	-0.404500
H85	H	0.720372	-0.312622	-0.404485
H86	H	1.056708	-0.191146	-0.712726
H87	H	0.364633	-0.191140	-0.247735
H88	H	0.899641	-1.052333	-0.404632
C89	C	1.068965	-0.557729	-0.235281
N90	N	1.104863	-0.580328	-0.199443
H91	H	0.899515	-0.312458	-0.712663
C92	C	1.112333	-0.694241	-0.192051
N93	N	1.148207	-0.671619	-0.156202
C94	C	0.582060	-0.181564	-0.235378
N95	N	0.552781	-0.153824	-0.199581
H96	H	1.056739	-0.191108	-0.940252
C97	C	1.069133	-0.181524	-1.078601
N98	N	1.105027	-0.153814	-1.107902
C99	C	1.068897	-0.443077	-0.235261
N100	N	1.104772	-0.420451	-0.199417
C101	C	0.887156	-0.321977	-0.930081
N102	N	0.851249	-0.349682	-0.900789
H103	H	0.899489	-0.312480	-0.584417
H104	H	0.364612	-0.312634	-0.404516
H105	H	0.236367	-0.312639	-0.404528
C106	C	0.843814	-0.694316	-0.460213
N107	N	0.807916	-0.671713	-0.496047
C108	C	0.730505	-0.181557	-0.235360
N109	N	0.759792	-0.153813	-0.199557
H110	H	1.100016	-0.801091	-0.204438
H111	H	0.236399	-0.191145	-0.247749
H112	H	0.899563	-0.312402	-1.068421
C113	C	0.886990	-0.443130	-0.416909
N114	N	0.851103	-0.420513	-0.452740
C115	C	1.069145	-0.945424	-0.235337
N116	N	1.105027	-0.922800	-0.199498
H117	H	0.899603	-0.953283	-0.404628
C118	C	1.069196	-1.060093	-0.235363
N119	N	1.105094	-1.082710	-0.199544
H120	H	0.856230	-0.801163	-0.447864
H121	H	0.899415	-0.549996	-0.404573
H122	H	1.056694	-0.191171	-0.584492
