data_functionalizedCrystal
_audit_creation_method	'MofGen! by Chris Wilmer'
_symmetry_space_group_name_H-M	'P1'
_symmetry_Int_Tables_number	1
_symmetry_cell_setting	triclinic
loop_
_symmetry_equiv_pos_as_xyz
  x,y,z
_cell_length_a	16.974800
_cell_length_b	14.519709
_cell_length_c	15.455313
_cell_angle_alpha	87.338395
_cell_angle_beta	90.973911
_cell_angle_gamma	96.464691
loop_
_atom_site_label
_atom_site_type_symbol
_atom_site_fract_x
_atom_site_fract_y
_atom_site_fract_z
O1	O	1.049241	-0.117561	0.001534
O2	O	1.549241	0.382439	0.501534
O3	O	0.819828	-0.131645	-0.014580
O4	O	1.319828	0.368355	0.485420
O5	O	0.940616	0.009630	-0.006071
O6	O	1.440616	0.509630	0.493929
O7	O	0.928453	-0.258836	-0.006974
O8	O	1.428453	0.241164	0.493026
O9	O	0.933709	0.001585	0.137704
O10	O	1.433709	0.501585	0.637704
O11	O	0.812921	-0.139690	0.129196
O12	O	1.312921	0.360310	0.629196
O13	O	1.042334	-0.125607	0.145310
O14	O	1.542334	0.374393	0.645310
Cu15	Cu	0.926997	-0.133383	0.150381
Cu16	Cu	1.426997	0.366617	0.650381
Cu17	Cu	0.935165	-0.123868	-0.019651
Cu18	Cu	1.435165	0.376132	0.480349
O19	O	0.921546	-0.266881	0.136801
O20	O	1.421546	0.233119	0.636801
C21	C	0.787014	-0.134985	0.055246
C22	C	1.287014	0.365015	0.555246
C23	C	0.699530	-0.132938	0.049103
C24	C	1.199530	0.367062	0.549103
C25	C	0.654669	-0.136360	0.124590
C26	C	1.154669	0.363640	0.624590
C27	C	0.572469	-0.134423	0.118820
C28	C	1.072469	0.365577	0.618820
C29	C	0.535132	-0.129070	0.037561
C30	C	1.035132	0.370930	0.537561
C31	C	0.579999	-0.125645	-0.037932
C32	C	1.079999	0.374355	0.462068
C33	C	0.662198	-0.127576	-0.032161
C34	C	1.162198	0.372424	0.467839
C35	C	0.289698	-0.122819	0.011898
C36	C	0.789698	0.377181	0.511898
C37	C	0.207493	-0.120891	0.006132
C38	C	0.707493	0.379109	0.506132
C39	C	0.199970	-0.129667	0.162885
C40	C	0.699970	0.370333	0.662885
C41	C	0.282170	-0.131603	0.168649
C42	C	0.782170	0.368397	0.668649
C43	C	0.327030	-0.128173	0.093156
C44	C	0.827030	0.371827	0.593156
N45	N	0.451110	-0.127092	0.031661
N46	N	0.951110	0.372908	0.531661
N47	N	0.411051	-0.130144	0.099056
N48	N	0.911051	0.369856	0.599056
C49	C	0.936595	0.039967	0.065781
C50	C	1.436595	0.539967	0.565781
C51	C	0.934896	0.142349	0.065675
C52	C	1.434896	0.642349	0.565675
C53	C	0.928640	0.517248	0.065259
C54	C	1.428640	1.017248	0.565259
C55	C	0.930377	0.412939	0.065375
C56	C	1.430377	0.912939	0.565375
C57	C	0.931768	0.329801	0.065468
C58	C	1.431768	0.829801	0.565468
C59	C	0.933505	0.225486	0.065582
C60	C	1.433505	0.725486	0.565582
C61	C	1.075148	-0.122267	0.075482
C62	C	1.575148	0.377733	0.575482
C63	C	1.162633	-0.124313	0.081620
C64	C	1.662633	0.375687	0.581620
C65	C	0.925565	0.702780	0.064978
C66	C	1.425565	1.202780	0.564978
C67	C	0.927261	0.600393	0.065170
C68	C	1.427261	1.100393	0.565170
N69	N	0.921257	-0.140075	0.269972
N70	N	1.421257	0.359925	0.769972
N71	N	0.940911	-0.117170	-0.139241
N72	N	1.440911	0.382830	0.360759
C73	C	0.972590	-0.080078	0.318982
C74	C	1.472590	0.419922	0.818982
C75	C	0.968256	-0.085147	0.409485
C76	C	1.468256	0.414853	0.909485
C77	C	0.912594	-0.150218	0.450976
C78	C	1.412594	0.349782	0.950976
C79	C	0.861255	-0.210217	0.401959
C80	C	1.361255	0.289783	0.901959
C81	C	0.865586	-0.205143	0.311458
C82	C	1.365586	0.294857	0.811458
C83	C	0.893903	-0.172095	0.721241
C84	C	1.393903	0.327905	1.221241
C85	C	0.889578	-0.177166	0.811749
C86	C	1.389578	0.322834	1.311749
C87	C	0.996579	-0.052095	0.819268
C88	C	1.496579	0.447905	1.319268
C89	C	1.000907	-0.047030	0.728765
C90	C	1.500907	0.452970	1.228765
C91	C	0.949566	-0.107026	0.679756
C92	C	1.449566	0.392974	1.179756
N93	N	0.908165	-0.155403	0.543484
N94	N	1.408165	0.344597	1.043484
N95	N	0.953992	-0.101836	0.587249
N96	N	1.453992	0.398164	1.087249
H97	H	0.698722	-0.124791	-0.093631
H98	H	1.198722	0.375209	0.406369
C99	C	1.131588	0.000064	0.856687
C100	C	1.631588	0.500064	1.356687
C101	C	1.053003	0.013861	0.873138
C102	C	1.553003	0.513861	1.373138
H103	H	1.166419	0.040785	0.889947
H104	H	1.666419	0.540785	1.389947
H105	H	1.142125	0.012396	0.796856
H106	H	1.642125	0.512396	1.296856
H107	H	1.139516	-0.062344	0.872115
H108	H	1.639516	0.437656	1.372115
H109	H	1.045073	0.076268	0.857703
H110	H	1.545073	0.576268	1.357703
H111	H	1.042462	0.001536	0.932981
H112	H	1.542462	0.501536	1.432981
C113	C	0.288866	-0.113953	-0.143622
C114	C	0.788866	0.386047	0.356378
C115	C	0.339001	-0.119053	-0.071084
C116	C	0.839001	0.380947	0.428916
H117	H	0.319308	-0.111633	-0.194853
H118	H	0.819308	0.388367	0.305147
H119	H	0.262584	-0.059659	-0.142182
H120	H	0.762584	0.440341	0.357818
H121	H	0.250713	-0.167118	-0.143033
H122	H	0.750713	0.332882	0.356967
H123	H	0.377151	-0.065884	-0.071670
H124	H	0.877151	0.434116	0.428330
H125	H	0.365296	-0.173353	-0.072525
H126	H	0.865296	0.326647	0.427475
H127	H	0.549593	-0.121280	-0.104095
H128	H	1.049593	0.378720	0.395905
H129	H	0.815929	-0.263196	0.435746
H130	H	1.315929	0.236804	0.935746
H131	H	1.046233	0.005955	0.694985
H132	H	1.546233	0.505955	1.194985
C133	C	0.784222	-0.300266	0.795229
C134	C	1.284222	0.199734	1.295229
C135	C	0.828378	-0.248684	0.857357
C136	C	1.328378	0.251316	1.357357
H137	H	0.746438	-0.344409	0.823388
H138	H	1.246438	0.155591	1.323388
H139	H	0.818748	-0.331581	0.762222
H140	H	1.318748	0.168419	1.262222
H141	H	0.757523	-0.259790	0.757951
H142	H	1.257523	0.240210	1.257951
H143	H	0.855082	-0.289160	0.894631
H144	H	1.355082	0.210840	1.394631
H145	H	0.793846	-0.217368	0.890378
H146	H	1.293846	0.282632	1.390378
C147	C	0.853032	-0.219868	0.579178
C148	C	1.353032	0.280132	1.079178
C149	C	0.837483	-0.238056	0.667377
C150	C	1.337483	0.261944	1.167377
H151	H	0.818198	-0.260592	0.545925
H152	H	1.318198	0.239408	1.045925
H153	H	0.906343	-0.229217	0.568031
H154	H	1.406343	0.270783	1.068031
H155	H	0.845087	-0.157461	0.563763
H156	H	1.345087	0.342539	1.063763
H157	H	0.845434	-0.300461	0.682795
H158	H	1.345434	0.199539	1.182795
H159	H	0.784159	-0.228715	0.678530
H160	H	1.284159	0.271285	1.178530
C161	C	0.638969	-0.144827	0.278952
C162	C	1.138969	0.355173	0.778952
C163	C	0.695707	-0.142239	0.213914
C164	C	1.195707	0.357761	0.713914
H165	H	0.664305	-0.148448	0.334097
H166	H	1.164305	0.351552	0.834097
H167	H	0.601132	-0.197619	0.273017
H168	H	1.101132	0.302381	0.773017
H169	H	0.613000	-0.090159	0.273857
H170	H	1.113000	0.409841	0.773857
H171	H	0.721672	-0.196911	0.219005
H172	H	1.221672	0.303089	0.719005
H173	H	0.733558	-0.089442	0.219851
H174	H	1.233558	0.410558	0.719851
C175	C	0.484438	-0.058119	0.203906
C176	C	0.984438	0.441881	0.703906
C177	C	0.523167	-0.138174	0.201804
C178	C	1.023167	0.361826	0.701804
H179	H	0.454008	-0.060430	0.255144
H180	H	0.954008	0.439570	0.755144
H181	H	0.450434	-0.054662	0.154697
H182	H	0.950434	0.445338	0.654697
H183	H	0.522612	-0.004972	0.203316
H184	H	1.022612	0.495028	0.703316
H185	H	0.484993	-0.191321	0.202388
H186	H	0.984993	0.308679	0.702388
H187	H	0.557173	-0.141640	0.251026
H188	H	1.057173	0.358360	0.751026
H189	H	0.823784	-0.253997	0.271554
H190	H	1.323784	0.246003	0.771554
H191	H	0.312565	-0.135957	0.234818
H192	H	0.812565	0.364043	0.734818
C193	C	0.111924	-0.053375	0.247962
C194	C	0.611924	0.446625	0.747962
C195	C	0.150661	-0.133424	0.245865
C196	C	0.650661	0.366576	0.745865
H197	H	0.081488	-0.055691	0.299196
H198	H	0.581488	0.444309	0.799196
H199	H	0.077924	-0.049921	0.198750
H200	H	0.577924	0.450079	0.698750
H201	H	0.150093	-0.000224	0.247378
H202	H	0.650093	0.499776	0.747378
H203	H	0.112491	-0.186575	0.246443
H204	H	0.612491	0.313425	0.746443
H205	H	0.184663	-0.136887	0.295091
H206	H	0.684663	0.363113	0.795091
C207	C	1.013008	0.072787	0.440605
C208	C	1.513008	0.572787	0.940605
C209	C	1.024695	-0.019204	0.463350
C210	C	1.524695	0.480796	0.963350
H211	H	1.047859	0.113497	0.473855
H212	H	1.547859	0.613497	0.973855
H213	H	0.959704	0.082151	0.451771
H214	H	1.459704	0.582151	0.951771
H215	H	1.023549	0.085103	0.380765
H216	H	1.523549	0.585103	0.880765
H217	H	1.014149	-0.031522	0.523189
H218	H	1.514149	0.468478	1.023189
H219	H	1.078012	-0.028572	0.452192
H220	H	1.578012	0.471428	0.952192
H221	H	0.177096	-0.116535	-0.060042
H222	H	0.677096	0.383465	0.439958
H223	H	1.017920	-0.027095	0.285206
H224	H	1.517920	0.472905	0.785206
