data_functionalizedCrystal
_audit_creation_method	'MofGen! by Chris Wilmer'
_symmetry_space_group_name_H-M	'P1'
_symmetry_Int_Tables_number	1
_symmetry_cell_setting	triclinic
loop_
_symmetry_equiv_pos_as_xyz
  x,y,z
_cell_length_a	17.699077
_cell_length_b	14.044220
_cell_length_c	16.176319
_cell_angle_alpha	89.992517
_cell_angle_beta	89.993140
_cell_angle_gamma	88.234727
loop_
_atom_site_label
_atom_site_type_symbol
_atom_site_fract_x
_atom_site_fract_y
_atom_site_fract_z
O1	O	1.012347	0.119823	-0.068738
O2	O	0.793044	0.135422	-0.068742
O3	O	0.899404	-0.010354	-0.068732
O4	O	0.905988	0.265599	-0.068748
O5	O	0.899387	-0.010364	0.068761
O6	O	0.793028	0.135413	0.068751
O7	O	1.012331	0.119814	0.068755
Cu8	Cu	0.902678	0.127612	0.081307
Cu9	Cu	0.902697	0.127623	-0.081294
O10	O	0.905971	0.265590	0.068745
C11	C	0.764800	0.134859	0.000004
C12	C	0.680667	0.133185	0.000003
C13	C	0.641136	0.132392	0.074951
C14	C	0.562084	0.130804	0.074952
C15	C	0.522564	0.130016	0.000004
C16	C	0.562100	0.130807	-0.074951
C17	C	0.641151	0.132388	-0.074951
C18	C	0.243297	0.124429	-0.074952
C19	C	0.164240	0.122851	-0.074946
C20	C	0.164230	0.122845	0.074951
C21	C	0.243280	0.124426	0.074951
C22	C	0.282810	0.125212	-0.000003
C23	C	0.368528	0.126932	-0.000003
C24	C	0.436848	0.128303	0.000003
C25	C	0.896514	-0.045667	0.000015
C26	C	0.887918	-0.150873	0.000016
C27	C	0.872203	-0.343497	0.000004
C28	C	0.933169	-0.401273	0.000002
C29	C	0.924425	-0.508456	-0.000004
C30	C	0.880946	-0.236304	0.000010
C31	C	1.040575	0.120376	0.000007
C32	C	1.124708	0.122050	0.000003
C33	C	0.908861	0.300903	-0.000004
C34	C	0.917457	0.406108	-0.000010
N35	N	0.902669	0.127604	0.195673
N36	N	0.902711	0.127624	-0.195659
C37	C	0.949783	0.063081	0.238941
C38	C	0.949787	0.063080	0.325488
C39	C	0.902680	0.127607	0.368765
C40	C	0.855562	0.192134	0.325490
C41	C	0.855554	0.192130	0.238945
C42	C	0.855589	0.192152	0.674519
C43	C	0.855601	0.192153	0.761070
C44	C	0.949821	0.063102	0.761062
C45	C	0.949814	0.063097	0.674517
C46	C	0.902692	0.127620	0.631249
C47	C	0.902688	0.127619	0.537405
C48	C	0.902688	0.127614	0.462608
H49	H	0.132065	0.122209	-0.135982
H50	H	0.988149	0.010539	0.360717
H51	H	0.991931	-0.370238	-0.000052
H52	H	0.817189	0.244670	0.203716
H53	H	0.275473	0.125066	-0.135984
C54	C	0.519057	0.129997	-0.156239
C55	C	0.441365	0.128471	-0.140200
C56	C	0.401692	0.127740	-0.215063
H57	H	0.533967	0.075026	-0.187093
H58	H	0.529928	0.185525	-0.187045
H59	H	0.430499	0.072949	-0.109407
H60	H	0.426432	0.183438	-0.109358
H61	H	0.412562	0.183267	-0.245869
H62	H	0.416608	0.072768	-0.245912
H63	H	0.348973	0.126713	-0.204191
C64	C	0.793807	-0.384738	0.000133
C65	C	0.754592	-0.353855	0.070863
C66	C	0.682369	-0.391828	0.071007
H67	H	0.798161	-0.452320	0.000173
H68	H	0.767056	-0.363847	-0.047787
H69	H	0.781337	-0.374751	0.118770
H70	H	0.750217	-0.286278	0.070838
H71	H	0.655618	-0.370936	0.023088
H72	H	0.686731	-0.459408	0.071045
H73	H	0.655750	-0.370872	0.118993
H74	H	0.988145	0.010539	0.203711
H75	H	0.988175	0.010556	0.639283
C76	C	1.000925	-0.007116	0.807936
C77	C	0.982380	-0.100227	0.786881
C78	C	1.029447	-0.164933	0.830035
H79	H	0.994227	0.001989	0.865690
H80	H	1.052136	0.003038	0.793725
H81	H	0.931182	-0.110377	0.801098
H82	H	0.989083	-0.109363	0.729134
H83	H	1.080657	-0.154779	0.815823
H84	H	1.022744	-0.155819	0.887786
H85	H	1.016875	-0.228116	0.815749
C86	C	0.804471	0.262114	0.627401
C87	C	0.814530	0.248292	0.542344
C88	C	0.767448	0.312724	0.498910
H89	H	0.816921	0.325391	0.641478
H90	H	0.753254	0.251905	0.641549
H91	H	0.865735	0.258509	0.528202
H92	H	0.802074	0.185028	0.528243
H93	H	0.716231	0.302515	0.513058
H94	H	0.779902	0.375997	0.512994
H95	H	0.774261	0.303349	0.441195
H96	H	0.817239	0.244701	0.796305
H97	H	0.673307	0.133040	0.135983
C98	C	0.519299	0.129999	0.156412
C99	C	0.570827	0.131060	0.222048
C100	C	0.531442	0.130332	0.297104
H101	H	0.490504	0.074152	0.159655
H102	H	0.486430	0.184649	0.159566
H103	H	0.603683	0.076415	0.218896
H104	H	0.599624	0.186903	0.218833
H105	H	0.498573	0.184982	0.300258
H106	H	0.502648	0.074483	0.300339
H107	H	0.566397	0.131060	0.341647
C108	C	0.804331	0.262232	0.372324
C109	C	0.763052	0.318719	0.315904
C110	C	0.715842	0.383296	0.359015
H111	H	0.834131	0.301736	0.406077
H112	H	0.770494	0.228210	0.406080
H113	H	0.796885	0.352738	0.282163
H114	H	0.733236	0.279241	0.282150
H115	H	0.682005	0.349274	0.392771
H116	H	0.745649	0.422794	0.392766
H117	H	0.687824	0.421624	0.320741
H118	H	0.132035	0.122200	0.135982
C119	C	0.286053	0.125228	0.156411
C120	C	0.234513	0.124166	0.222050
C121	C	0.273886	0.124888	0.297103
H122	H	0.314849	0.181074	0.159642
H123	H	0.318919	0.070576	0.159571
H124	H	0.201660	0.178813	0.218890
H125	H	0.205715	0.068324	0.218846
H126	H	0.306753	0.070235	0.300264
H127	H	0.302682	0.180734	0.300326
H128	H	0.238924	0.124158	0.341648
H129	H	0.673336	0.133037	-0.135982
