data_functionalizedCrystal
_audit_creation_method	'MofGen! by Chris Wilmer'
_symmetry_space_group_name_H-M	'P1'
_symmetry_Int_Tables_number	1
_symmetry_cell_setting	triclinic
loop_
_symmetry_equiv_pos_as_xyz
  x,y,z
_cell_length_a	21.295420
_cell_length_b	21.295417
_cell_length_c	21.295411
_cell_angle_alpha	89.978356
_cell_angle_beta	90.024592
_cell_angle_gamma	89.973711
loop_
_atom_site_label
_atom_site_type_symbol
_atom_site_fract_x
_atom_site_fract_y
_atom_site_fract_z
Zn1	Zn	0.962355	0.250752	0.355912
Zn2	Zn	0.962258	0.356004	0.250637
Zn3	Zn	0.857079	0.250744	0.250657
Zn4	Zn	0.857048	0.355979	0.355869
O5	O	0.909685	0.303370	0.303269
O6	O	1.050432	0.264727	0.341957
O7	O	0.948277	0.342048	0.162550
O8	O	0.871097	0.162656	0.264645
O9	O	1.050360	0.342055	0.264612
O10	O	0.948444	0.162661	0.341976
O11	O	0.871003	0.264714	0.162565
O12	O	0.768985	0.264691	0.264604
O13	O	0.871045	0.342014	0.443964
O14	O	0.768963	0.342006	0.341903
O15	O	0.948414	0.264703	0.443996
O16	O	0.948248	0.444090	0.264570
O17	O	0.870951	0.444072	0.341884
C18	C	0.746133	0.303346	0.303251
C19	C	0.676165	0.303351	0.303258
C20	C	0.909737	0.303357	0.467459
C21	C	0.909759	0.303351	0.537427
C22	C	0.909602	0.466921	0.303234
C23	C	0.909625	0.536890	0.303240
C24	C	0.176744	0.263200	0.343617
C25	C	0.242486	0.263195	0.343617
C26	C	0.275326	0.303389	0.303283
C27	C	0.242417	0.343602	0.262958
C28	C	0.176676	0.343610	0.262964
N29	N	0.378516	0.308125	0.248164
N30	N	0.440967	0.308113	0.248160
C31	C	0.473400	0.303368	0.303265
N32	N	0.441023	0.298623	0.358375
N33	N	0.378566	0.298631	0.358377
C34	C	0.346611	0.303385	0.303273
C35	C	0.577587	0.263156	0.343591
C36	C	0.643330	0.263156	0.343592
C37	C	0.643260	0.343559	0.262927
C38	C	0.577517	0.343562	0.262932
C39	C	0.544685	0.303358	0.303263
C40	C	1.073875	0.303394	0.303287
C41	C	1.143843	0.303405	0.303295
C42	C	0.909785	0.139180	0.303318
C43	C	0.909827	0.069211	0.303338
C44	C	0.949909	0.569745	0.263024
C45	C	0.949939	0.635487	0.263038
C46	C	0.909672	0.668372	0.303262
C47	C	0.869385	0.635509	0.343485
C48	C	0.869361	0.569768	0.343474
N49	N	0.854605	0.771635	0.308055
N50	N	0.854630	0.834086	0.308061
C51	C	0.909743	0.866447	0.303298
N52	N	0.964832	0.833997	0.298515
N53	N	0.964807	0.771540	0.298505
C54	C	0.909694	0.739657	0.303278
C55	C	0.950063	0.970587	0.263095
C56	C	0.950093	1.036331	0.263114
C57	C	0.869534	1.036352	0.343557
C58	C	0.869509	0.970609	0.343542
C59	C	0.909773	0.937731	0.303308
C60	C	0.909669	0.303338	0.139717
C61	C	0.909769	0.303166	0.069749
C62	C	0.950044	0.263094	0.570311
C63	C	0.950043	0.263066	0.636054
C64	C	0.909764	0.303308	0.668910
C65	C	0.869472	0.343568	0.636018
C66	C	0.869470	0.343589	0.570276
N67	N	0.904908	0.358375	0.772125
N68	N	0.904914	0.358353	0.834577
C69	C	0.909768	0.303244	0.866985
N70	N	0.914629	0.248157	0.834582
N71	N	0.914626	0.248180	0.772125
C72	C	0.909762	0.303288	0.740195
C73	C	0.950054	0.262953	0.971154
C74	C	0.950048	0.262925	1.036898
C75	C	0.869481	0.343432	1.036861
C76	C	0.869483	0.343455	0.971118
C77	C	0.909773	0.303216	0.938269
H78	H	0.150016	0.230465	0.376460
C79	C	0.994248	0.671638	0.218792
C80	C	1.038532	0.635474	0.174535
C81	C	1.082839	0.671622	0.130287
C82	C	1.082860	0.743935	0.130296
C83	C	1.038573	0.780103	0.174555
C84	C	0.994267	0.743955	0.218803
H85	H	1.038518	0.581940	0.174526
H86	H	1.115622	0.644848	0.097523
H87	H	1.115658	0.770695	0.097541
H88	H	1.038588	0.833637	0.174564
H89	H	0.961483	0.770729	0.251567
C90	C	0.994360	0.218784	0.672237
C91	C	0.994363	0.218762	0.744550
C92	C	1.038681	0.174480	0.780730
C93	C	1.082996	0.130220	0.744598
C94	C	1.082996	0.130240	0.672281
C95	C	1.038678	0.174522	0.636100
H96	H	0.961557	0.251527	0.771300
H97	H	1.038681	0.174465	0.834264
H98	H	1.115803	0.097440	0.771381
H99	H	1.115802	0.097474	0.645530
H100	H	1.038677	0.174536	0.582566
C101	C	0.994199	0.533576	0.218771
C102	C	1.043590	0.488323	0.246083
C103	C	1.087879	0.452152	0.201830
C104	C	1.082777	0.461233	0.130266
C105	C	1.033383	0.506489	0.102950
C106	C	0.989094	0.542660	0.147203
H107	H	1.047369	0.481599	0.299063
H108	H	1.124444	0.418651	0.222051
H109	H	1.115562	0.434457	0.097507
H110	H	1.029604	0.513213	0.049970
H111	H	0.952530	0.576161	0.126982
C112	C	0.825156	0.387878	0.534102
C113	C	0.753598	0.382727	0.543112
C114	C	0.709285	0.427017	0.506937
C115	C	0.736529	0.476460	0.461751
C116	C	0.808091	0.481614	0.452739
C117	C	0.852405	0.437323	0.488915
H118	H	0.733427	0.346124	0.576562
H119	H	0.656310	0.423202	0.513608
H120	H	0.703726	0.509246	0.434972
H121	H	0.828263	0.518216	0.419289
H122	H	0.905380	0.441138	0.482243
C123	C	0.994356	0.934414	0.218847
C124	C	0.989263	0.943497	0.147282
C125	C	1.033557	0.907325	0.103034
C126	C	1.082943	0.862070	0.130352
C127	C	1.088037	0.852984	0.201920
C128	C	1.043744	0.889156	0.246168
H129	H	0.952703	0.977000	0.127056
H130	H	1.029785	0.914051	0.050054
H131	H	1.115732	0.835293	0.097597
H132	H	1.124598	0.819481	0.222146
H133	H	1.047516	0.882430	0.299148
C134	C	0.679376	0.387775	0.218561
C135	C	0.670315	0.459344	0.223572
C136	C	0.706435	0.503564	0.179207
C137	C	0.751616	0.476214	0.129832
C138	C	0.760679	0.404640	0.124819
C139	C	0.724559	0.360421	0.169183
H140	H	0.636867	0.479594	0.260125
H141	H	0.699725	0.556547	0.182919
H142	H	0.778354	0.508947	0.096990
H143	H	0.794127	0.384391	0.088266
H144	H	0.731269	0.307437	0.165472
H145	H	0.836675	0.376330	0.662773
C146	C	0.825190	0.934466	0.387777
C147	C	0.753634	0.943566	0.382576
C148	C	0.709315	0.907424	0.426816
C149	C	0.736551	0.862181	0.476257
C150	C	0.808111	0.853079	0.481460
C151	C	0.852430	0.889221	0.437220
H152	H	0.733469	0.977059	0.345975
H153	H	0.656342	0.914162	0.422965
H154	H	0.703743	0.835426	0.509006
H155	H	0.828276	0.819585	0.518061
H156	H	0.905403	0.882483	0.441072
H157	H	0.982902	1.063080	0.230367
H158	H	0.269159	0.376329	0.230120
C159	C	0.679521	0.218928	0.387952
C160	C	0.670508	0.224161	0.459505
C161	C	0.706698	0.179932	0.503867
C162	C	0.751900	0.130469	0.476677
C163	C	0.760915	0.125233	0.405121
C164	C	0.724725	0.169463	0.360759
H165	H	0.637045	0.260779	0.479636
H166	H	0.700024	0.183808	0.556838
H167	H	0.778690	0.097728	0.509517
H168	H	0.794378	0.088616	0.384990
H169	H	0.731399	0.165586	0.307788
H170	H	0.269279	0.230453	0.376452
C171	C	0.994356	0.218826	0.534180
C172	C	0.989263	0.147261	0.543226
C173	C	1.033575	0.102992	0.507094
C174	C	1.082980	0.130287	0.461917
C175	C	1.088076	0.201855	0.452869
C176	C	1.043764	0.246125	0.489001
H177	H	0.952688	0.127052	0.576670
H178	H	1.029802	0.050012	0.513792
H179	H	1.115783	0.097516	0.435170
H180	H	1.124651	0.222064	0.419425
H181	H	1.047537	0.299104	0.482303
H182	H	0.836683	0.376240	0.944344
H183	H	0.982856	0.230185	0.944407
H184	H	0.982852	0.230139	1.063671
H185	H	0.550729	0.376299	0.230094
H186	H	0.836601	0.662288	0.376237
H187	H	0.149888	0.376351	0.230128
H188	H	0.550853	0.230419	0.376430
H189	H	0.836556	0.543017	0.376224
H190	H	0.836752	1.063126	0.376311
H191	H	0.836679	0.376191	1.063611
