data_functionalizedCrystal
_audit_creation_method	'MofGen! by Chris Wilmer'
_symmetry_space_group_name_H-M	'P1'
_symmetry_Int_Tables_number	1
_symmetry_cell_setting	triclinic
loop_
_symmetry_equiv_pos_as_xyz
  x,y,z
_cell_length_a	10.686220
_cell_length_b	18.050582
_cell_length_c	10.686203
_cell_angle_alpha	94.388161
_cell_angle_beta	89.645579
_cell_angle_gamma	94.355462
loop_
_atom_site_label
_atom_site_type_symbol
_atom_site_fract_x
_atom_site_fract_y
_atom_site_fract_z
Zn1	Zn	1.956062	-0.315837	0.352152
Zn2	Zn	1.972049	-0.181476	0.561918
Zn3	Zn	1.746309	-0.200394	0.368286
Zn4	Zn	1.762353	-0.314357	0.577976
O5	O	1.859193	-0.253016	0.465083
O6	O	2.133724	-0.290716	0.366506
O7	O	1.942080	-0.080060	0.536265
O8	O	1.760728	-0.224244	0.190601
O9	O	2.145470	-0.192002	0.520620
O10	O	1.914833	-0.309060	0.178748
O11	O	1.776230	-0.093959	0.394003
O12	O	1.572896	-0.222809	0.409574
O13	O	1.788073	-0.418479	0.547988
O14	O	1.584684	-0.306537	0.563632
O15	O	1.930391	-0.419566	0.382076
O16	O	1.957638	-0.190566	0.739593
O17	O	1.803575	-0.288194	0.751390
C18	C	1.533274	-0.266566	0.490097
C19	C	1.393847	-0.272379	0.500828
C20	C	1.859238	-0.446722	0.465024
C21	C	1.859257	-0.529269	0.464998
C22	C	1.781921	-0.728131	0.555102
C23	C	1.898726	-0.771269	0.576972
C24	C	1.859312	-0.680401	0.464898
C25	C	1.742567	-0.784343	0.442988
C26	C	1.859355	-0.826389	0.464804
C27	C	1.976182	-0.722447	0.486824
C28	C	1.819942	-0.735522	0.352792
C29	C	1.936823	-0.778637	0.374613
C30	C	1.859286	-0.596301	0.464955
C31	C	1.859394	-0.910486	0.464745
C32	C	2.186386	-0.239414	0.439972
C33	C	2.325815	-0.233617	0.429272
C34	C	1.884116	-0.237181	0.791005
C35	C	1.894893	-0.230427	0.930427
C36	C	1.859214	-0.060065	0.465046
C37	C	1.859411	0.022474	0.464699
C38	C	1.834169	-0.268921	1.137889
C39	C	1.823406	-0.275683	0.998465
H40	H	1.345420	-0.310008	0.570312
H41	H	1.716547	-0.705966	0.631472
H42	H	1.964332	-0.186509	0.978840
H43	H	1.932052	-0.787196	0.671737
C44	C	1.729591	-0.335016	0.933068
H45	H	1.734421	-0.331934	0.844795
H46	H	1.646960	-0.326584	0.961030
H47	H	1.749538	-0.383141	0.953017
C48	C	1.774881	-0.713977	0.224818
H49	H	1.691858	-0.735295	0.209411
H50	H	1.829025	-0.732067	0.160561
H51	H	1.775930	-0.661273	0.225544
H52	H	2.074966	-0.695552	0.505425
H53	H	1.374237	-0.195985	0.359800
H54	H	1.643819	-0.811323	0.424494
H55	H	2.002370	-0.800657	0.298284
