data_functionalizedCrystal
_audit_creation_method	'MofGen! by Chris Wilmer'
_symmetry_space_group_name_H-M	'P1'
_symmetry_Int_Tables_number	1
_symmetry_cell_setting	triclinic
loop_
_symmetry_equiv_pos_as_xyz
  x,y,z
_cell_length_a	15.297475
_cell_length_b	16.959454
_cell_length_c	15.297908
_cell_angle_alpha	99.655881
_cell_angle_beta	72.640407
_cell_angle_gamma	80.323279
loop_
_atom_site_label
_atom_site_type_symbol
_atom_site_fract_x
_atom_site_fract_y
_atom_site_fract_z
Zn1	Zn	1.512718	-0.661370	-0.771455
Zn2	Zn	1.485714	-0.765878	-0.615943
Zn3	Zn	1.330301	-0.606047	-0.589099
Zn4	Zn	1.357164	-0.765808	-0.744542
O5	O	1.421474	-0.699776	-0.680260
O6	O	1.639276	-0.698416	-0.773324
O7	O	1.442555	-0.721552	-0.482246
O8	O	1.354558	-0.502788	-0.613318
O9	O	1.619437	-0.775197	-0.659069
O10	O	1.488579	-0.543434	-0.747294
O11	O	1.328374	-0.604125	-0.462523
O12	O	1.203724	-0.604057	-0.587221
O13	O	1.400342	-0.775078	-0.878248
O14	O	1.223460	-0.721433	-0.701425
O15	O	1.514626	-0.698348	-0.898022
O16	O	1.468603	-0.876466	-0.632973
O17	O	1.374158	-0.876415	-0.727454
C18	C	1.179848	-0.656735	-0.638490
C19	C	1.076484	-0.638344	-0.620643
C20	C	0.826256	-0.831220	-0.807818
C21	C	0.923372	-0.848504	-0.824584
C22	C	0.961655	-0.795965	-0.773601
C23	C	0.902812	-0.726140	-0.705848
C24	C	0.805685	-0.708858	-0.689075
C25	C	0.941084	-0.673603	-0.654858
C26	C	0.882241	-0.603778	-0.587105
C27	C	0.785125	-0.586499	-0.570336
C28	C	0.746842	-0.639037	-0.621319
C29	C	1.038211	-0.690886	-0.671630
C30	C	1.017640	-0.568524	-0.552887
C31	C	0.920524	-0.551240	-0.536121
C32	C	1.421394	-0.905125	-0.680230
C33	C	1.421450	-0.992996	-0.680264
C34	C	1.372382	-1.364492	-0.729465
C35	C	1.470842	-1.364520	-0.631194
C36	C	1.470808	-1.281967	-0.631180
C37	C	1.421559	-1.240672	-0.680308
C38	C	1.372344	-1.281930	-0.729450
C39	C	1.520015	-1.240700	-0.582031
C40	C	1.519982	-1.158141	-0.582014
C41	C	1.470738	-1.116847	-0.631148
C42	C	1.421521	-1.158110	-0.680293
C43	C	1.372272	-1.116815	-0.729421
C44	C	1.323061	-1.158079	-0.778572
C45	C	1.323100	-1.240635	-0.778584
C46	C	1.470699	-1.034290	-0.631136
C47	C	1.372235	-1.034254	-0.729406
C48	C	1.664044	-0.742986	-0.722193
C49	C	1.767412	-0.761399	-0.740062
C50	C	1.463493	-0.742876	-0.922821
C51	C	1.481398	-0.761243	-1.026187
C52	C	1.421584	-0.493632	-0.680314
C53	C	1.421631	-0.405786	-0.680337
C54	C	1.294088	-0.568468	-1.276493
C55	C	1.277266	-0.551204	-1.179376
C56	C	1.328297	-0.603712	-1.141074
C57	C	1.396154	-0.673487	-1.199898
C58	C	1.412982	-0.690750	-1.297025
C59	C	1.447192	-0.725994	-1.161606
C60	C	1.515048	-0.795769	-1.220430
C61	C	1.531873	-0.813029	-1.317547
C62	C	1.480842	-0.760520	-1.355850
C63	C	1.430363	-0.708732	-1.064479
C64	C	1.549258	-0.831014	-1.085011
C65	C	1.566080	-0.848278	-1.182128
C66	C	1.379673	-0.656796	-0.438651
C67	C	1.361948	-0.638238	-0.335317
H68	H	0.795075	-0.873993	-0.849316
H69	H	1.560102	-1.274326	-0.542026
H70	H	1.332134	-1.000638	-0.769416
H71	H	1.621330	-0.905089	-1.230036
H72	H	1.314597	-0.589652	-1.061997
Br73	Br	1.618524	-0.902276	-1.033039
Br74	Br	1.185183	-0.456511	-1.099551
H75	H	1.252550	-0.525720	-1.307689
Br76	Br	1.586775	-1.102150	-0.515319
H77	H	1.332318	-1.398093	-0.769485
H78	H	1.086112	-0.747738	-0.726796
H79	H	0.667763	-0.624967	-0.607674
H80	H	1.040731	-0.810042	-0.787256
H81	H	1.494529	-0.774577	-1.434928
H82	H	1.587134	-0.869840	-1.365441
H83	H	0.971274	-0.905357	-0.879746
H84	H	0.737215	-0.529649	-0.515158
H85	H	1.282957	-1.124446	-0.818567
H86	H	0.872601	-0.494387	-0.480956
Br87	Br	1.256319	-1.296640	-0.845282
H88	H	1.510932	-1.398145	-0.591190
Br89	Br	1.338277	-0.614039	-0.984659
Br90	Br	1.069585	-0.497222	-0.483683
H91	H	1.510761	-1.000696	-0.591113
