data_functionalizedCrystal
_audit_creation_method	'MofGen! by Chris Wilmer'
_symmetry_space_group_name_H-M	'P1'
_symmetry_Int_Tables_number	1
_symmetry_cell_setting	triclinic
loop_
_symmetry_equiv_pos_as_xyz
  x,y,z
_cell_length_a	17.000371
_cell_length_b	9.065218
_cell_length_c	7.540329
_cell_angle_alpha	90.001757
_cell_angle_beta	90.003362
_cell_angle_gamma	80.307566
loop_
_atom_site_label
_atom_site_type_symbol
_atom_site_fract_x
_atom_site_fract_y
_atom_site_fract_z
O1	O	-1.056484	-0.053109	-0.147488
O2	O	-0.825137	-0.106602	-0.147488
O3	O	-0.945592	0.135526	-0.147484
O4	O	-0.936028	-0.295237	-0.147491
O5	O	-0.945585	0.135528	0.147481
O6	O	-0.825129	-0.106601	0.147477
O7	O	-1.056477	-0.053107	0.147477
Cu8	Cu	-0.940802	-0.079854	0.174410
Cu9	Cu	-0.940811	-0.079856	-0.174420
O10	O	-0.936021	-0.295235	0.147474
C11	C	-0.944669	0.190371	-0.000005
C12	C	-0.941921	0.353789	-0.000013
C13	C	-0.795500	-0.109475	-0.000005
C14	C	-0.707203	-0.118019	-0.000005
C15	C	-1.086113	-0.050234	-0.000009
C16	C	-1.174410	-0.041691	-0.000021
C17	C	-0.674230	0.013461	-0.000000
C18	C	-0.591265	0.005425	-0.000013
C19	C	-0.541274	-0.134094	-0.000019
C20	C	-0.574253	-0.265583	-0.000029
C21	C	-0.657217	-0.257545	-0.000029
C22	C	-0.290352	-0.165142	-0.000031
C23	C	-0.207384	-0.173171	-0.000026
C24	C	-0.224401	0.097839	-0.000013
C25	C	-0.307365	0.105864	-0.000002
C26	C	-0.340337	-0.025625	-0.000022
C27	C	-0.456471	-0.142312	-0.000026
C28	C	-0.425139	-0.017406	-0.000027
C29	C	-0.936944	-0.350081	-0.000010
C30	C	-0.939692	-0.513499	-0.000013
N31	N	-0.940802	-0.079850	0.419758
N32	N	-0.940817	-0.079846	-0.419769
H33	H	-0.564422	0.112490	-0.000010
H34	H	-0.348063	0.219475	0.000010
H35	H	-0.197546	0.204890	-0.000017
O36	O	-0.158936	-0.308829	-0.000126
C37	C	-0.205826	-0.423163	-0.000106
H38	H	-0.267461	-0.377713	-0.055945
H39	H	-0.212029	-0.463989	0.141396
C40	C	-0.089706	-0.610125	-0.047219
C41	C	-0.165406	-0.554306	-0.115816
H42	H	-0.064773	-0.691024	-0.118587
H43	H	-0.058114	-0.533098	-0.047226
H44	H	-0.094886	-0.644135	0.070698
H45	H	-0.160225	-0.520280	-0.233721
H46	H	-0.196996	-0.631332	-0.115831
H47	H	-0.317187	-0.272211	-0.000059
H48	H	-0.533544	-0.379182	-0.000046
H49	H	-0.684062	-0.364610	-0.000025
O50	O	-0.473777	0.118031	-0.000258
C51	C	-0.522265	0.130802	-0.153046
H52	H	-0.527302	0.014358	-0.203991
H53	H	-0.494497	0.194588	-0.260009
C54	C	-0.599753	0.358903	-0.044063
C55	C	-0.605944	0.215884	-0.106625
H56	H	-0.651369	0.411391	-0.015433
H57	H	-0.567084	0.350303	0.058871
H58	H	-0.576609	0.412039	-0.133209
H59	H	-0.629077	0.162745	-0.017472
H60	H	-0.638619	0.224477	-0.209543
H61	H	-0.714927	0.127072	0.000012
O62	O	-0.407940	-0.277870	-0.000333
C63	C	-0.423051	-0.358368	-0.153071
H64	H	-0.450845	-0.276886	-0.259846
H65	H	-0.465895	-0.438205	-0.118525
C66	C	-0.310000	-0.548598	-0.091199
C67	C	-0.344131	-0.448519	-0.222348
H68	H	-0.261320	-0.604213	-0.133930
H69	H	-0.299821	-0.494369	0.011707
H70	H	-0.345711	-0.615114	-0.062423
H71	H	-0.308425	-0.381993	-0.251106
H72	H	-0.354303	-0.502739	-0.325261
