data_functionalizedCrystal
_audit_creation_method	'MofGen! by Chris Wilmer'
_symmetry_space_group_name_H-M	'P1'
_symmetry_Int_Tables_number	1
_symmetry_cell_setting	triclinic
loop_
_symmetry_equiv_pos_as_xyz
  x,y,z
_cell_length_a	18.215407
_cell_length_b	16.625546
_cell_length_c	18.215399
_cell_angle_alpha	90.029176
_cell_angle_beta	90.017368
_cell_angle_gamma	90.019912
loop_
_atom_site_label
_atom_site_type_symbol
_atom_site_fract_x
_atom_site_fract_y
_atom_site_fract_z
Zn1	Zn	1.125084	-0.321065	0.416061
Zn2	Zn	1.458418	0.012268	0.749395
Zn3	Zn	1.791751	0.345602	1.082728
Zn4	Zn	1.124998	-0.455905	0.292992
Zn5	Zn	1.458331	-0.122572	0.626326
Zn6	Zn	1.791665	0.210761	0.959659
Zn7	Zn	1.002017	-0.321084	0.293014
Zn8	Zn	1.335350	0.012249	0.626347
Zn9	Zn	1.668684	0.345582	0.959681
Zn10	Zn	1.001988	-0.455853	0.416022
Zn11	Zn	1.335321	-0.122520	0.749356
Zn12	Zn	1.668655	0.210813	1.082689
O13	O	1.063522	-0.388477	0.354522
O14	O	1.396855	-0.055144	0.687856
O15	O	1.730188	0.278190	1.021189
O16	O	1.228057	-0.338965	0.399743
O17	O	1.561390	-0.005632	0.733076
O18	O	1.894724	0.327701	1.066410
O19	O	1.108660	-0.438051	0.190011
O20	O	1.441993	-0.104717	0.523344
O21	O	1.775327	0.228616	0.856677
O22	O	1.018390	-0.208249	0.309362
O23	O	1.351724	0.125084	0.642695
O24	O	1.685057	0.458417	0.976028
O25	O	1.227994	-0.438032	0.309325
O26	O	1.561327	-0.104699	0.642658
O27	O	1.894660	0.228635	0.975991
O28	O	1.108807	-0.208235	0.399764
O29	O	1.442141	0.125098	0.733097
O30	O	1.775474	0.458432	1.066431
O31	O	1.018306	-0.338998	0.190027
O32	O	1.351640	-0.005665	0.523360
O33	O	1.684973	0.327668	0.856693
O34	O	0.899029	-0.338948	0.309324
O35	O	1.232362	-0.005615	0.642657
O36	O	1.565695	0.327719	0.975991
O37	O	1.018341	-0.437943	0.519012
O38	O	1.351674	-0.104610	0.852345
O39	O	1.685008	0.228723	1.185679
O40	O	0.899008	-0.437962	0.399698
O41	O	1.232341	-0.104629	0.733031
O42	O	1.565674	0.228705	1.066365
O43	O	1.108779	-0.338915	0.519040
O44	O	1.442113	-0.005582	0.852374
O45	O	1.775446	0.327752	1.185707
O46	O	1.108632	-0.568731	0.309287
O47	O	1.441965	-0.235397	0.642621
O48	O	1.775299	0.097936	0.975954
O49	O	1.018257	-0.568693	0.399677
O50	O	1.351591	-0.235359	0.733010
O51	O	1.684924	0.097974	1.066344
C52	C	0.872315	-0.388452	0.354510
C53	C	1.205649	-0.055119	0.687843
C54	C	1.538982	0.278215	1.021176
C55	C	0.790517	-0.388461	0.354521
C56	C	1.123850	-0.055128	0.687855
C57	C	1.457183	0.278206	1.021188
C58	C	0.602355	-0.336983	0.401677
C59	C	0.935688	-0.003650	0.735010
C60	C	1.269021	0.329684	1.068343
C61	C	0.525496	-0.336990	0.401679
C62	C	0.858829	-0.003657	0.735012
C63	C	1.192163	0.329677	1.068346
C64	C	0.525441	-0.439993	0.307381
C65	C	0.858774	-0.106660	0.640715
C66	C	1.192107	0.226673	0.974048
C67	C	0.602298	-0.439982	0.307376
C68	C	0.935631	-0.106648	0.640709
C69	C	1.268965	0.226685	0.974042
C70	C	0.640753	-0.388478	0.354527
C71	C	0.974086	-0.055144	0.687861
C72	C	1.307420	0.278189	1.021194
C73	C	0.487037	-0.388496	0.354536
C74	C	0.820370	-0.055163	0.687869
C75	C	1.153704	0.278170	1.021202
C76	C	0.403703	-0.388504	0.354538
C77	C	0.737037	-0.055171	0.687871
C78	C	1.070370	0.278163	1.021205
C79	C	0.724092	-0.388469	0.354524
C80	C	1.057425	-0.055135	0.687858
C81	C	1.390759	0.278198	1.021191
C82	C	1.063452	-0.597968	0.354492
C83	C	1.396785	-0.264634	0.687825
C84	C	1.730119	0.068699	1.021158
C85	C	1.063490	-0.687589	0.354503
C86	C	1.396823	-0.354256	0.687836
C87	C	1.730156	-0.020922	1.021170
C88	C	1.063618	-1.015764	0.354580
C89	C	1.396951	-0.682431	0.687913
C90	C	1.730285	-0.349098	1.021246
C91	C	1.063580	-0.924456	0.354560
C92	C	1.396913	-0.591123	0.687894
C93	C	1.730247	-0.257789	1.021227
C94	C	1.063553	-0.851680	0.354541
C95	C	1.396887	-0.518346	0.687874
C96	C	1.730220	-0.185013	1.021208
C97	C	1.063516	-0.760365	0.354522
C98	C	1.396850	-0.427032	0.687856
C99	C	1.730183	-0.093699	1.021189
C100	C	1.255475	-0.388502	0.354536
C101	C	1.588808	-0.055169	0.687869
C102	C	1.922141	0.278164	1.021202
C103	C	1.337273	-0.388513	0.354541
C104	C	1.670607	-0.055180	0.687875
C105	C	2.003940	0.278153	1.021208
C106	C	1.063567	-0.388421	0.546475
C107	C	1.396900	-0.055088	0.879809
C108	C	1.730233	0.278245	1.213142
C109	C	1.063586	-0.388398	0.628274
C110	C	1.396919	-0.055064	0.961608
C111	C	1.730252	0.278269	1.294941
C112	C	1.063612	-0.178168	0.354569
C113	C	1.396945	0.155165	0.687903
C114	C	1.730278	0.488499	1.021236
C115	C	1.063650	-0.088547	0.354590
C116	C	1.396983	0.244787	0.687923
C117	C	1.730317	0.578120	1.021256
C118	C	1.063519	-0.388474	0.163316
C119	C	1.396853	-0.055141	0.496650
C120	C	1.730186	0.278193	0.829983
C121	C	1.063643	-0.388271	0.081518
C122	C	1.396976	-0.054937	0.414851
C123	C	1.730310	0.278396	0.748184
C124	C	1.110694	-0.336785	0.816484
C125	C	1.444027	-0.003452	1.149818
C126	C	1.777361	0.329881	1.483151
C127	C	1.110703	-0.336762	0.893343
C128	C	1.444036	-0.003428	1.226677
C129	C	1.777369	0.329905	1.560010
C130	C	1.016530	-0.439885	0.893302
C131	C	1.349863	-0.106552	1.226636
C132	C	1.683196	0.226781	1.559969
C133	C	1.016518	-0.439904	0.816445
C134	C	1.349851	-0.106571	1.149778
C135	C	1.683184	0.226763	1.483112
C136	C	1.063604	-0.388355	0.778038
C137	C	1.396937	-0.055022	1.111371
C138	C	1.730271	0.278311	1.444705
C139	C	1.063625	-0.388313	0.931754
C140	C	1.396958	-0.054980	1.265087
C141	C	1.730291	0.278354	1.598421
C142	C	1.063634	-0.388288	1.015088
C143	C	1.396967	-0.054955	1.348421
C144	C	1.730300	0.278379	1.681755
C145	C	1.063594	-0.388379	0.694699
C146	C	1.396927	-0.055046	1.028032
C147	C	1.730261	0.278288	1.361366
H148	H	0.633563	-0.481916	0.268977
H149	H	0.966896	-0.148582	0.602310
H150	H	1.300230	0.184751	0.935644
H151	H	0.978166	-0.481898	0.785141
H152	H	1.311499	-0.148565	1.118474
H153	H	1.644833	0.184769	1.451808
C154	C	1.162484	-0.280073	0.774239
C155	C	1.495817	0.053260	1.107573
C156	C	1.829150	0.386593	1.440906
N157	N	1.201491	-0.237353	0.742423
N158	N	1.534824	0.095980	1.075756
N159	N	1.868157	0.429314	1.409089
C160	C	0.483261	-0.280344	0.453549
C161	C	0.816595	0.052989	0.786882
C162	C	1.149928	0.386323	1.120216
N163	N	0.451450	-0.237676	0.492620
N164	N	0.784784	0.095657	0.825953
N165	N	1.118117	0.428991	1.159287
H166	H	1.149047	-0.294767	0.924643
H167	H	1.482380	0.038566	1.257976
H168	H	1.815713	0.371900	1.591310
H169	H	0.633662	-0.295043	0.440068
H170	H	0.966996	0.038291	0.773402
H171	H	1.300329	0.371624	1.106735
C172	C	0.483133	-0.496650	0.255522
C173	C	0.816466	-0.163316	0.588855
C174	C	1.149800	0.170017	0.922188
N175	N	0.451268	-0.539327	0.216462
N176	N	0.784601	-0.205993	0.549795
N177	N	1.117934	0.127340	0.883128
C178	C	0.964736	-0.496584	0.935557
C179	C	1.298069	-0.163251	1.268890
C180	C	1.631403	0.170082	1.602224
N181	N	0.925724	-0.539291	0.967383
N182	N	1.259057	-0.205958	1.300716
N183	N	1.592390	0.127376	1.634049
