data_functionalizedCrystal
_audit_creation_method	'MofGen! by Chris Wilmer'
_symmetry_space_group_name_H-M	'P1'
_symmetry_Int_Tables_number	1
_symmetry_cell_setting	triclinic
loop_
_symmetry_equiv_pos_as_xyz
  x,y,z
_cell_length_a	18.215407
_cell_length_b	12.827892
_cell_length_c	18.215399
_cell_angle_alpha	89.975743
_cell_angle_beta	89.980650
_cell_angle_gamma	90.015840
loop_
_atom_site_label
_atom_site_type_symbol
_atom_site_fract_x
_atom_site_fract_y
_atom_site_fract_z
Zn1	Zn	1.125117	-0.416027	-0.416137
Zn2	Zn	1.125047	-0.590787	-0.293079
Zn3	Zn	1.002051	-0.416062	-0.293084
Zn4	Zn	1.002036	-0.590728	-0.416104
O5	O	1.063563	-0.503401	-0.354601
O6	O	1.228092	-0.439219	-0.399825
O7	O	1.108708	-0.567650	-0.190096
O8	O	1.018411	-0.269822	-0.309423
O9	O	1.228040	-0.567615	-0.309415
O10	O	1.108828	-0.269796	-0.399829
O11	O	1.018343	-0.439280	-0.190099
O12	O	0.899064	-0.439222	-0.309392
O13	O	1.018386	-0.567514	-0.519093
O14	O	0.899054	-0.567548	-0.399774
O15	O	1.108813	-0.439162	-0.519117
O16	O	1.108694	-0.737016	-0.309383
O17	O	1.018318	-0.736972	-0.399769
C18	C	0.872356	-0.503383	-0.354580
C19	C	0.790557	-0.503401	-0.354589
C20	C	1.063517	-0.774911	-0.354588
C21	C	1.063564	-0.891064	-0.354607
C22	C	0.602377	-0.570325	-0.401592
C23	C	0.525518	-0.570329	-0.401601
C24	C	0.525500	-0.436496	-0.307627
C25	C	0.602357	-0.436488	-0.307622
C26	C	0.640794	-0.503409	-0.354603
C27	C	0.487078	-0.503420	-0.354617
C28	C	0.403744	-0.503423	-0.354627
C29	C	0.724133	-0.503405	-0.354595
C30	C	1.108338	-0.942836	-0.309931
C31	C	1.108388	-1.062886	-0.309950
C32	C	1.255515	-0.503420	-0.354623
C33	C	1.337314	-0.503428	-0.354632
C34	C	1.063606	-0.503327	-0.546554
C35	C	1.063624	-0.503296	-0.628353
C36	C	1.063629	-0.230831	-0.354630
C37	C	1.063657	-0.114678	-0.354643
C38	C	1.110737	-0.436372	-0.893425
C39	C	1.110728	-0.436401	-0.816566
C40	C	1.016571	-0.570067	-0.816531
C41	C	1.016584	-0.570043	-0.893388
C42	C	1.063666	-0.503190	-0.931833
C43	C	1.063644	-0.503242	-0.778117
C44	C	1.063635	-0.503273	-0.694783
C45	C	1.063677	-0.503160	-1.015172
C46	C	1.063562	-0.503400	-0.163395
C47	C	1.063686	-0.503137	-0.081597
H48	H	0.494243	-0.624817	-0.439864
H49	H	1.025272	-0.935617	-0.392873
H50	H	1.149073	-0.381936	-0.924724
H51	H	1.149059	-0.381992	-0.785297
H52	H	0.633670	-0.624814	-0.439849
H53	H	0.494196	-0.382013	-0.269375
H54	H	0.633637	-0.381990	-0.269358
O55	O	1.153920	-0.889646	-0.264203
C56	C	1.111982	-0.826584	-0.216677
H57	H	1.054058	-0.859619	-0.212062
H58	H	1.109345	-0.743888	-0.239471
C59	C	1.219121	-0.784209	-0.145875
C60	C	1.147979	-0.824788	-0.140201
H61	H	1.241326	-0.783096	-0.098701
H62	H	1.247377	-0.826692	-0.177895
H63	H	1.216914	-0.715299	-0.164873
H64	H	1.150187	-0.893700	-0.121212
H65	H	1.119724	-0.782317	-0.108175
H66	H	0.978238	-0.624495	-0.785219
H67	H	1.146719	-1.107409	-0.271699
O68	O	1.017960	-1.061692	-0.400382
C69	C	1.034009	-1.088179	-0.473766
H70	H	1.062281	-1.167418	-0.475380
H71	H	1.071846	-1.026703	-0.498537
C72	C	0.927516	-0.995795	-0.516302
C73	C	0.962234	-1.093122	-0.518285
H74	H	0.883243	-0.998840	-0.543766
H75	H	0.916704	-0.977947	-0.466862
H76	H	0.959054	-0.944576	-0.536944
H77	H	0.930700	-1.144337	-0.497636
H78	H	0.973039	-1.110979	-0.567723
H79	H	0.978253	-0.624460	-0.924661
