data_functionalizedCrystal
_audit_creation_method	'MofGen! by Chris Wilmer'
_symmetry_space_group_name_H-M	'P1'
_symmetry_Int_Tables_number	1
_symmetry_cell_setting	triclinic
loop_
_symmetry_equiv_pos_as_xyz
  x,y,z
_cell_length_a	17.699083
_cell_length_b	10.489741
_cell_length_c	16.776229
_cell_angle_alpha	89.993659
_cell_angle_beta	89.998886
_cell_angle_gamma	83.911094
loop_
_atom_site_label
_atom_site_type_symbol
_atom_site_fract_x
_atom_site_fract_y
_atom_site_fract_z
O1	O	1.005134	0.161296	-0.066176
O2	O	1.505134	0.661296	0.433824
O3	O	0.784893	0.182281	-0.066202
O4	O	1.284893	0.682281	0.433798
O5	O	0.900025	-0.013903	-0.066184
O6	O	1.400025	0.486097	0.433816
O7	O	0.890002	0.357479	-0.066194
O8	O	1.390002	0.857479	0.433806
O9	O	0.900009	-0.013915	0.066393
O10	O	1.400009	0.486085	0.566393
O11	O	0.784877	0.182269	0.066375
O12	O	1.284877	0.682269	0.566375
O13	O	1.005118	0.161284	0.066401
O14	O	1.505118	0.661284	0.566401
Zn15	Zn	0.894995	0.171774	0.087437
Zn16	Zn	1.394995	0.671774	0.587437
Zn17	Zn	0.895016	0.171790	-0.087238
Zn18	Zn	1.395016	0.671790	0.412762
O19	O	0.889986	0.357467	0.066382
O20	O	1.389986	0.857467	0.566382
C21	C	0.756683	0.181523	0.000083
C22	C	1.256683	0.681523	0.500083
C23	C	0.672650	0.179267	0.000073
C24	C	1.172650	0.679267	0.500073
C25	C	0.624782	0.294422	0.000070
C26	C	1.124782	0.794422	0.500070
C27	C	0.545825	0.292295	0.000080
C28	C	1.045825	0.792295	0.500080
C29	C	0.514737	0.175011	0.000088
C30	C	1.014737	0.675011	0.500088
C31	C	0.562611	0.059847	0.000094
C32	C	1.062611	0.559847	0.500094
C33	C	0.641567	0.061975	0.000089
C34	C	1.141567	0.561975	0.500089
C35	C	0.244192	0.051260	0.000114
C36	C	0.744192	0.551260	0.500114
C37	C	0.165230	0.049140	0.000116
C38	C	0.665230	0.549140	0.500116
C39	C	0.148450	0.281580	0.000105
C40	C	0.648450	0.781580	0.500105
C41	C	0.227406	0.283709	0.000100
C42	C	0.727406	0.783709	0.500100
C43	C	0.275273	0.168545	0.000110
C44	C	0.775273	0.668545	0.500110
C45	C	0.360887	0.170853	0.000100
C46	C	0.860887	0.670853	0.500100
C47	C	0.429124	0.172702	0.000092
C48	C	0.929124	0.672702	0.500092
C49	C	0.899260	-0.061427	0.000104
C50	C	1.399260	0.438573	0.500104
C51	C	0.896995	-0.203014	0.000102
C52	C	1.396995	0.296986	0.500102
C53	C	0.823740	-0.269793	0.000088
C54	C	1.323740	0.230207	0.500088
C55	C	0.858337	-0.362564	0.065459
C56	C	1.358337	0.137436	0.565459
C57	C	0.858370	-0.362527	-0.065251
C58	C	1.358370	0.137473	0.434749
C59	C	0.931623	-0.293920	0.065528
C60	C	1.431623	0.206080	0.565528
C61	C	0.931645	-0.293874	-0.065241
C62	C	1.431645	0.206126	0.434759
C63	C	0.966296	-0.386619	0.000146
C64	C	1.466296	0.113381	0.500146
C65	C	1.033328	0.162042	0.000114
C66	C	1.533328	0.662042	0.500114
C67	C	1.117361	0.164297	0.000119
C68	C	1.617361	0.664297	0.500119
C69	C	0.890751	0.404991	0.000093
C70	C	1.390751	0.904991	0.500093
C71	C	0.893016	0.546578	0.000089
C72	C	1.393016	1.046578	0.500089
N73	N	0.894987	0.171763	0.206648
N74	N	1.394987	0.671763	0.706648
N75	N	0.895030	0.171791	-0.206450
N76	N	1.395030	0.671791	0.293550
C77	C	0.945983	0.084928	0.248373
C78	C	1.445983	0.584928	0.748373
C79	C	0.945987	0.084927	0.331826
C80	C	1.445987	0.584927	0.831826
C81	C	0.894998	0.171767	0.373551
C82	C	1.394998	0.671767	0.873551
C83	C	0.843996	0.258606	0.331820
C84	C	1.343996	0.758606	0.831820
C85	C	0.843989	0.258600	0.248369
C86	C	1.343989	0.758600	0.748369
C87	C	0.844024	0.258631	0.668367
C88	C	1.344024	0.758631	1.168367
C89	C	0.844037	0.258633	0.751824
C90	C	1.344037	0.758633	1.251824
C91	C	0.946022	0.084958	0.751823
C92	C	1.446022	0.584958	1.251823
C93	C	0.946015	0.084952	0.668373
C94	C	1.446015	0.584952	1.168373
C95	C	0.895011	0.171786	0.626649
C96	C	1.395011	0.671786	1.126649
C97	C	0.895006	0.171784	0.536161
C98	C	1.395006	0.671784	1.036161
C99	C	0.895006	0.171776	0.464038
C100	C	1.395006	0.671776	0.964038
H101	H	0.252713	0.379213	0.000090
H102	H	0.752713	0.879213	0.500090
H103	H	0.962585	-0.263669	0.120856
H104	H	1.462585	0.236331	0.620856
F105	F	0.494884	0.414860	0.000074
F106	F	0.994884	0.914860	0.500074
H107	H	0.763510	-0.219023	0.000147
H108	H	1.263510	0.280977	0.500147
H109	H	0.827371	-0.392910	-0.120523
H110	H	1.327371	0.107090	0.379477
F111	F	1.045090	-0.452687	0.000200
F112	F	1.545090	0.047313	0.500200
H113	H	0.802476	0.329309	0.365798
H114	H	1.302476	0.829309	0.865798
F115	F	0.789764	0.351064	0.796230
F116	F	1.289764	0.851064	1.296230
F117	F	1.000304	-0.007463	0.796235
F118	F	1.500304	0.492537	1.296235
H119	H	0.109467	0.375352	0.000101
H120	H	0.609467	0.875352	0.500101
F121	F	0.295125	-0.071308	0.000124
F122	F	0.795125	0.428692	0.500124
H123	H	0.987507	0.014218	0.214406
H124	H	1.487507	0.514218	0.714406
F125	F	0.789709	0.351018	0.203963
F126	F	1.289709	0.851018	0.703963
F127	F	0.789744	0.351048	0.623968
F128	F	1.289744	0.851048	1.123968
F129	F	0.972134	-0.254039	-0.137473
F130	F	1.472134	0.245961	0.362527
H131	H	0.537293	-0.035648	0.000111
H132	H	1.037293	0.464352	0.500111
F133	F	0.132146	-0.075695	0.000124
F134	F	0.632146	0.424305	0.500124
F135	F	0.692511	-0.060589	0.000095
F136	F	1.192511	0.439411	0.500095
H137	H	0.650088	0.389929	0.000063
H138	H	1.150088	0.889929	0.500063
H139	H	0.827335	-0.393005	0.120719
H140	H	1.327335	0.106995	0.620719
F141	F	1.000262	-0.007493	0.376233
F142	F	1.500262	0.492507	0.876233
H143	H	0.987537	0.014243	0.634402
H144	H	1.487537	0.514243	1.134402
