data_functionalizedCrystal
_audit_creation_method	'MofGen! by Chris Wilmer'
_symmetry_space_group_name_H-M	'P1'
_symmetry_Int_Tables_number	1
_symmetry_cell_setting	triclinic
loop_
_symmetry_equiv_pos_as_xyz
  x,y,z
_cell_length_a	12.827893
_cell_length_b	15.297327
_cell_length_c	12.827885
_cell_angle_alpha	80.357285
_cell_angle_beta	90.019272
_cell_angle_gamma	99.706564
loop_
_atom_site_label
_atom_site_type_symbol
_atom_site_fract_x
_atom_site_fract_y
_atom_site_fract_z
Zn1	Zn	1.525601	-0.359117	0.662774
Zn2	Zn	2.025601	0.140883	1.162774
Zn3	Zn	1.495216	-0.510002	0.518254
Zn4	Zn	1.995216	-0.010002	1.018254
Zn5	Zn	1.350834	-0.359161	0.488057
Zn6	Zn	1.850834	0.140839	0.988057
Zn7	Zn	1.320562	-0.509935	0.692941
Zn8	Zn	1.820562	-0.009935	1.192941
O9	O	1.423053	-0.434554	0.590506
O10	O	1.923053	0.065446	1.090506
O11	O	1.667805	-0.379142	0.643616
O12	O	2.167805	0.120858	1.143616
O13	O	1.476016	-0.490040	0.368022
O14	O	1.976016	0.009960	0.868022
O15	O	1.399403	-0.232910	0.485971
O16	O	1.899403	0.267090	0.985971
O17	O	1.645481	-0.489997	0.537438
O18	O	2.145481	0.010003	1.037438
O19	O	1.527804	-0.232878	0.614335
O20	O	2.027804	0.267122	1.114335
O21	O	1.369939	-0.379217	0.345836
O22	O	1.869939	0.120783	0.845836
O23	O	1.200584	-0.379152	0.515222
O24	O	1.700584	0.120848	1.015222
O25	O	1.347808	-0.489883	0.835166
O26	O	1.847808	0.010117	1.335166
O27	O	1.178343	-0.489925	0.665749
O28	O	1.678343	0.010075	1.165749
O29	O	1.498450	-0.379077	0.813003
O30	O	1.998450	0.120923	1.313003
O31	O	1.446662	-0.636239	0.566689
O32	O	1.946662	-0.136239	1.066689
O33	O	1.318345	-0.636189	0.695031
O34	O	1.818345	-0.136189	1.195031
C35	C	1.151547	-0.434537	0.590483
C36	C	1.651547	0.065463	1.090483
C37	C	1.035391	-0.434551	0.590502
C38	C	1.535391	0.065449	1.090502
C39	C	0.972611	-0.489451	0.664907
C40	C	1.472611	0.010549	1.164907
C41	C	0.852558	-0.489467	0.664929
C42	C	1.352558	0.010533	1.164929
C43	C	1.375950	-0.668948	0.637433
C44	C	1.875950	-0.168948	1.137433
C45	C	1.355894	-0.769223	0.657544
C46	C	1.855894	-0.269223	1.157544
C47	C	1.566825	-1.051858	0.447130
C48	C	2.066825	-0.551858	0.947130
C49	C	1.585667	-0.957645	0.428230
C50	C	2.085667	-0.457645	0.928230
C51	C	1.528226	-0.910535	0.485557
C52	C	2.028226	-0.410535	0.985557
C53	C	1.451938	-0.957647	0.561787
C54	C	1.951938	-0.457647	1.061787
C55	C	1.433088	-1.051869	0.580683
C56	C	1.933088	-0.551869	1.080683
C57	C	1.394489	-0.910546	0.619110
C58	C	1.894489	-0.410546	1.119110
C59	C	1.318201	-0.957658	0.695340
C60	C	1.818201	-0.457658	1.195340
C61	C	1.299355	-1.051871	0.714233
C62	C	1.799355	-0.551871	1.214233
C63	C	1.356796	-1.098981	0.656906
C64	C	1.856796	-0.598981	1.156906
C65	C	1.413339	-0.816324	0.600214
C66	C	1.913339	-0.316324	1.100214
C67	C	1.279602	-0.816335	0.733767
C68	C	1.779602	-0.316335	1.233767
C69	C	1.260760	-0.910548	0.752667
C70	C	1.760760	-0.410548	1.252667
C71	C	1.695620	-0.434572	0.590531
C72	C	2.195620	0.065428	1.090531
C73	C	1.811771	-0.434580	0.590541
C74	C	2.311771	0.065420	1.090541
C75	C	1.423142	-0.434468	0.863059
C76	C	1.923142	0.065532	1.363059
C77	C	1.423180	-0.434431	0.979205
C78	C	1.923180	0.065569	1.479205
C79	C	1.470370	-0.199245	0.543419
C80	C	1.970370	0.300755	1.043419
C81	C	1.490533	-0.098970	0.523353
C82	C	1.990533	0.401030	1.023353
C83	C	1.423038	-0.434575	0.319001
C84	C	1.923038	0.065425	0.819001
C85	C	1.423254	-0.434358	0.202805
C86	C	1.923254	0.065642	0.702805
C87	C	1.497731	-0.379590	1.020021
C88	C	1.997731	0.120410	1.520021
C89	C	1.497772	-0.379551	1.140063
C90	C	1.997772	0.120449	1.640063
H91	H	0.798610	-0.536471	0.728627
H92	H	1.298610	-0.036471	1.228627
Cl93	Cl	0.981162	-0.361994	0.492177
Cl94	Cl	1.481162	0.138006	0.992177
Cl95	Cl	0.895049	-0.362012	0.492178
Cl96	Cl	1.395049	0.137988	0.992178
H97	H	1.561601	-0.332602	1.175206
H98	H	2.061601	0.167398	1.675206
H99	H	1.475453	-0.777973	0.538147
H100	H	1.975453	-0.277973	1.038147
H101	H	1.647779	-0.919290	0.366164
H102	H	2.147779	-0.419290	0.866164
Cl103	Cl	1.324707	-0.506859	1.148562
Cl104	Cl	1.824707	-0.006859	1.648562
Cl105	Cl	1.332687	-1.217425	0.680239
Cl106	Cl	1.832687	-0.717425	1.180239
Cl107	Cl	1.552202	-0.792094	0.462082
Cl108	Cl	2.052202	-0.292094	0.962082
H109	H	1.613579	-1.090224	0.400457
H110	H	2.113579	-0.590224	0.900457
Cl111	Cl	1.324673	-0.506873	1.062456
Cl112	Cl	1.824673	-0.006873	1.562456
H113	H	1.007743	-0.536437	0.728595
H114	H	1.507743	-0.036437	1.228595
Cl115	Cl	1.203445	-1.111096	0.810061
Cl116	Cl	1.703445	-0.611096	1.310061
Cl117	Cl	1.164857	-0.969785	0.848495
Cl118	Cl	1.664857	-0.469785	1.348495
H119	H	1.232826	-0.777979	0.780445
H120	H	1.732826	-0.277979	1.280445
Cl121	Cl	1.596211	-0.307120	0.936765
Cl122	Cl	2.096211	0.192880	1.436765
