data_functionalizedCrystal
_audit_creation_method	'MofGen! by Chris Wilmer'
_symmetry_space_group_name_H-M	'P1'
_symmetry_Int_Tables_number	1
_symmetry_cell_setting	triclinic
loop_
_symmetry_equiv_pos_as_xyz
  x,y,z
_cell_length_a	17.077404
_cell_length_b	12.827892
_cell_length_c	17.077396
_cell_angle_alpha	90.025067
_cell_angle_beta	90.019501
_cell_angle_gamma	90.015617
loop_
_atom_site_label
_atom_site_type_symbol
_atom_site_fract_x
_atom_site_fract_y
_atom_site_fract_z
Zn1	Zn	1.200096	-0.416027	0.443861
Zn2	Zn	1.200020	-0.590789	0.312603
Zn3	Zn	1.068827	-0.416063	0.312609
Zn4	Zn	1.068812	-0.590727	0.443827
O5	O	1.134439	-0.503402	0.378225
O6	O	1.309932	-0.439220	0.426462
O7	O	1.182591	-0.567653	0.202757
O8	O	1.086278	-0.269823	0.330037
O9	O	1.309877	-0.567617	0.330027
O10	O	1.182720	-0.269796	0.426468
O11	O	1.086205	-0.439282	0.202762
O12	O	0.958978	-0.439222	0.330004
O13	O	1.086253	-0.567511	0.553678
O14	O	0.958968	-0.567547	0.426409
O15	O	1.182706	-0.439160	0.553704
O16	O	1.182577	-0.737017	0.329993
O17	O	1.086179	-0.736971	0.426403
C18	C	0.930491	-0.503383	0.378203
C19	C	0.843241	-0.503400	0.378213
C20	C	1.134390	-0.774912	0.378211
C21	C	1.134440	-0.891065	0.378231
C22	C	0.802266	-0.570319	0.428330
C23	C	0.720285	-0.570321	0.428343
C24	C	0.679282	-0.503409	0.378233
C25	C	0.720263	-0.436482	0.328114
C26	C	0.802242	-0.436475	0.328106
C27	C	0.549393	-0.436502	0.328133
C28	C	0.467408	-0.436510	0.328139
C29	C	0.467436	-0.570349	0.428370
C30	C	0.549415	-0.570342	0.428362
C31	C	0.590391	-0.503416	0.378241
C32	C	1.182142	-0.942753	0.425990
C33	C	1.182195	-1.062803	0.426012
C34	C	1.339183	-0.503421	0.378247
C35	C	1.426433	-0.503430	0.378257
C36	C	1.134486	-0.503325	0.582970
C37	C	1.134506	-0.503292	0.670219
C38	C	1.134509	-0.230831	0.378257
C39	C	1.134540	-0.114678	0.378270
C40	C	1.134437	-0.503403	0.174277
C41	C	1.134568	-0.503141	0.087028
C42	C	1.184731	-0.436454	0.711224
C43	C	1.184741	-0.436419	0.793205
C44	C	1.134529	-0.503228	0.834179
C45	C	1.084298	-0.570069	0.793168
C46	C	1.084285	-0.570098	0.711189
C47	C	1.084330	-0.570007	0.964039
C48	C	1.084344	-0.569980	1.046023
C49	C	1.184785	-0.436327	1.046054
C50	C	1.184772	-0.436356	0.964075
C51	C	1.134543	-0.503199	0.923070
H52	H	0.835645	-0.624811	0.469133
H53	H	1.225622	-0.382053	0.677869
H54	H	1.225683	-0.381900	1.079444
O55	O	1.035491	-0.634906	1.085706
C56	C	0.935890	-0.767507	1.077030
C57	C	0.991162	-0.694014	1.031992
H58	H	0.900047	-0.815331	1.033621
H59	H	0.894818	-0.719555	1.115390
H60	H	0.971933	-0.822098	1.115429
H61	H	0.955182	-0.639409	0.993550
H62	H	1.032236	-0.742032	0.993681
H63	H	1.093701	-1.070235	0.337376
O64	O	1.035524	-0.634929	0.671234
C65	C	0.991021	-0.694249	0.544924
C66	C	1.046275	-0.620760	0.590075
H67	H	0.999706	-0.682834	0.479300
H68	H	0.927716	-0.675882	0.560976
H69	H	1.004777	-0.778497	0.561080
H70	H	1.032590	-0.536487	0.573944
H71	H	1.109564	-0.639216	0.574019
O72	O	0.589332	-0.635194	0.477078
C73	C	0.681899	-0.649409	0.583062
C74	C	0.636757	-0.575851	0.527925
H75	H	0.720239	-0.601459	0.624197
H76	H	0.720309	-0.703970	0.546993
H77	H	0.638516	-0.697263	0.618851
H78	H	0.680083	-0.527929	0.492125
H79	H	0.598334	-0.521359	0.564039
O80	O	1.085690	-0.944130	0.329442
C81	C	0.986183	-0.933056	0.229718
C82	C	1.041341	-0.872835	0.284946
H83	H	0.950324	-0.875440	0.193717
H84	H	0.945121	-0.984142	0.265726
H85	H	1.022317	-0.984183	0.188785
H86	H	1.005271	-0.821652	0.325889
H87	H	1.082406	-0.821815	0.248889
O88	O	0.680472	-0.371330	0.279521
C89	C	0.655441	-0.193512	0.241615
C90	C	0.700535	-0.267175	0.296712
H91	H	0.671657	-0.109288	0.255484
H92	H	0.589799	-0.204918	0.250228
H93	H	0.671523	-0.211808	0.178300
H94	H	0.684518	-0.248925	0.360048
H95	H	0.766165	-0.255755	0.288031
H96	H	1.225664	-0.381960	0.930716
O97	O	1.230793	-0.889365	0.474680
C98	C	1.275040	-0.721036	0.519109
C99	C	1.219915	-0.781364	0.463914
H100	H	1.266253	-0.633707	0.510436
H101	H	1.338386	-0.742294	0.505399
H102	H	1.261252	-0.742457	0.582402
H103	H	1.233632	-0.759975	0.400602
H104	H	1.156586	-0.760100	0.477691
H105	H	0.686927	-0.624815	0.469153
O106	O	1.035653	-0.634990	0.924113
C107	C	1.025071	-0.776146	0.831563
C108	C	1.080275	-0.702600	0.876721
H109	H	1.061126	-0.830842	0.793248
H110	H	0.984046	-0.728238	0.793125
H111	H	0.989166	-0.823855	0.874936
H112	H	1.116230	-0.654875	0.833405
H113	H	1.121248	-0.750568	0.915171
O114	O	0.427759	-0.635461	0.477083
C115	C	0.436438	-0.768180	0.576518
C116	C	0.481474	-0.694508	0.521387
H117	H	0.479847	-0.815923	0.612364
H118	H	0.398055	-0.822829	0.540446
H119	H	0.398062	-0.720266	0.617601
H120	H	0.519893	-0.742337	0.480294
H121	H	0.519808	-0.639856	0.557508
O122	O	0.427697	-0.371409	0.279443
C123	C	0.436315	-0.238689	0.180004
C124	C	0.481385	-0.312347	0.235125
H125	H	0.479702	-0.190934	0.144146
H126	H	0.397979	-0.184051	0.216085
H127	H	0.397889	-0.286616	0.138932
H128	H	0.519854	-0.264504	0.276207
H129	H	0.519672	-0.366988	0.198994
H130	H	0.582752	-0.381995	0.287326
O131	O	0.842014	-0.371587	0.279306
C132	C	0.867016	-0.320596	0.145845
C133	C	0.821939	-0.394166	0.201020
H134	H	0.850790	-0.338810	0.082541
H135	H	0.932660	-0.332089	0.154380
H136	H	0.850928	-0.236362	0.159778
H137	H	0.837962	-0.478428	0.187121
H138	H	0.756306	-0.382582	0.192475
H139	H	1.223037	-1.107254	0.466898
H140	H	1.225641	-0.381995	0.826587
H141	H	1.043412	-0.624463	0.826536
