data_functionalizedCrystal
_audit_creation_method	'MofGen! by Chris Wilmer'
_symmetry_space_group_name_H-M	'P1'
_symmetry_Int_Tables_number	1
_symmetry_cell_setting	triclinic
loop_
_symmetry_equiv_pos_as_xyz
  x,y,z
_cell_length_a	10.654550
_cell_length_b	10.540539
_cell_length_c	9.730223
_cell_angle_alpha	89.997733
_cell_angle_beta	89.999957
_cell_angle_gamma	84.505211
loop_
_atom_site_label
_atom_site_type_symbol
_atom_site_fract_x
_atom_site_fract_y
_atom_site_fract_z
O1	O	1.667902	0.178301	-0.114180
O2	O	1.302429	0.195288	-0.114205
O3	O	1.493504	0.002085	-0.114190
O4	O	1.476827	0.371504	-0.114195
O5	O	1.493491	0.002079	0.114390
O6	O	1.302417	0.195282	0.114375
O7	O	1.667889	0.178295	0.114400
Zn8	Zn	1.485151	0.186788	0.150679
Zn9	Zn	1.485167	0.186795	-0.150484
O10	O	1.476815	0.371498	0.114385
C11	C	1.255625	0.194038	0.000082
C12	C	1.116180	0.190306	0.000072
C13	C	1.036735	0.304061	0.000075
C14	C	0.905712	0.300547	0.000099
C15	C	0.933594	0.069513	0.000112
C16	C	1.064614	0.073029	0.000098
C17	C	1.492247	-0.045221	0.000097
C18	C	1.488505	-0.186167	0.000090
C19	C	1.345134	-0.369543	-0.000433
C20	C	1.348927	-0.222926	0.000082
C21	C	1.555670	-0.247852	0.130624
C22	C	1.550906	-0.394395	0.130734
C23	C	1.553759	-0.394908	-0.129204
C24	C	1.555044	-0.247927	-0.130930
C25	C	1.714694	0.179545	0.000110
C26	C	1.854139	0.183277	0.000110
C27	C	1.478072	0.418804	0.000095
C28	C	1.481813	0.559750	0.000093
N29	N	1.485149	0.186782	0.356216
N30	N	1.485179	0.186791	-0.356021
C31	C	1.569786	0.101269	0.428148
C32	C	1.569799	0.101269	0.572031
C33	C	1.400533	0.272309	0.572037
C34	C	1.400516	0.272301	0.428156
H35	H	1.129302	-0.019610	0.000100
H36	H	1.331588	0.341937	0.369585
O37	O	1.670719	-0.451535	0.137648
C38	C	1.739877	-0.415229	0.022995
H39	H	1.694388	-0.320998	-0.019423
H40	H	1.840921	-0.403534	0.055493
H41	H	1.740248	-0.491795	-0.059793
O42	O	1.500178	-0.197123	0.246648
C43	C	1.561598	-0.253585	0.362927
H44	H	1.661293	-0.293331	0.333682
H45	H	1.566148	-0.178887	0.447049
H46	H	1.507020	-0.334189	0.402078
H47	H	1.078715	0.399556	0.000064
H48	H	1.638716	0.031634	0.630595
H49	H	1.508590	-0.426442	-0.228141
H50	H	1.656808	-0.223742	-0.138805
H51	H	1.658172	-0.225535	0.135484
O52	O	0.828720	0.411168	0.000036
C53	C	0.902335	0.515426	0.000047
H54	H	0.999812	0.484063	-0.043239
H55	H	0.854723	0.595199	-0.066317
H56	H	0.911997	0.551323	0.109703
O57	O	0.883646	-0.044481	-0.000062
C58	C	0.924110	-0.113879	-0.118465
H59	H	1.015273	-0.078481	-0.157938
H60	H	0.941345	-0.219435	-0.091840
H61	H	0.848434	-0.099839	-0.201357
H62	H	1.505901	-0.207048	-0.227496
H63	H	1.654576	-0.442170	-0.130075
H64	H	1.296078	-0.180301	-0.093491
H65	H	1.290216	-0.399732	0.092644
O66	O	1.279192	-0.403449	-0.112062
C67	C	1.157212	-0.338507	-0.109456
H68	H	1.158086	-0.248533	-0.044593
H69	H	1.126540	-0.311487	-0.218683
H70	H	1.088374	-0.402984	-0.062987
H71	H	1.638698	0.031632	0.369578
O72	O	1.318157	0.355252	0.641865
C73	C	1.193650	0.333460	0.606705
H74	H	1.192130	0.231814	0.567162
H75	H	1.130767	0.347468	0.701337
H76	H	1.157374	0.403473	0.523189
O77	O	1.285434	-0.172865	0.111794
C78	C	1.288654	-0.039456	0.112720
H79	H	1.305669	-0.004815	0.003920
H80	H	1.194830	0.007745	0.152259
H81	H	1.368065	-0.013419	0.182728
O82	O	1.491534	-0.428160	0.246986
C83	C	1.383370	-0.488156	0.211337
H84	H	1.394846	-0.528820	0.103015
H85	H	1.370869	-0.568575	0.286981
H86	H	1.296934	-0.415589	0.215187
