data_functionalizedCrystal
_audit_creation_method	'MofGen! by Chris Wilmer'
_symmetry_space_group_name_H-M	'P1'
_symmetry_Int_Tables_number	1
_symmetry_cell_setting	triclinic
loop_
_symmetry_equiv_pos_as_xyz
  x,y,z
_cell_length_a	21.395362
_cell_length_b	12.827892
_cell_length_c	21.395355
_cell_angle_alpha	89.986862
_cell_angle_beta	89.956060
_cell_angle_gamma	90.031272
loop_
_atom_site_label
_atom_site_type_symbol
_atom_site_fract_x
_atom_site_fract_y
_atom_site_fract_z
Zn1	Zn	0.957926	-0.415711	-0.354609
Zn2	Zn	1.457926	0.084289	0.145391
Zn3	Zn	0.957857	-0.590438	-0.249841
Zn4	Zn	1.457857	-0.090438	0.250159
Zn5	Zn	0.853141	-0.415760	-0.249810
Zn6	Zn	1.353141	0.084240	0.250190
Zn7	Zn	0.853138	-0.590459	-0.354546
Zn8	Zn	1.353138	-0.090459	0.145454
O9	O	0.905516	-0.503092	-0.302202
O10	O	1.405516	-0.003092	0.197798
O11	O	1.045595	-0.438860	-0.340751
O12	O	1.545595	0.061140	0.159249
O13	O	0.943938	-0.567278	-0.162159
O14	O	1.443938	-0.067278	0.337841
O15	O	0.867071	-0.269517	-0.263725
O16	O	1.367071	0.230483	0.236275
O17	O	1.045544	-0.567231	-0.263778
O18	O	1.545544	-0.067231	0.236222
O19	O	0.944056	-0.269482	-0.340721
O20	O	1.444056	0.230518	0.159279
O21	O	0.867004	-0.438943	-0.162137
O22	O	1.367004	0.061057	0.337863
O23	O	0.765463	-0.438963	-0.263664
O24	O	1.265463	0.061037	0.236336
O25	O	0.867067	-0.567267	-0.442232
O26	O	1.367067	-0.067267	0.057768
O27	O	0.765461	-0.567314	-0.340613
O28	O	1.265461	-0.067314	0.159387
O29	O	0.944054	-0.438881	-0.442279
O30	O	1.444054	0.061119	0.057721
O31	O	0.943935	-0.736677	-0.263717
O32	O	1.443935	-0.236677	0.236283
O33	O	0.866999	-0.736692	-0.340643
O34	O	1.366999	-0.236692	0.159357
C35	C	0.742728	-0.503147	-0.302129
C36	C	1.242728	-0.003147	0.197871
C37	C	0.673087	-0.503196	-0.302113
C38	C	1.173087	-0.003196	0.197887
C39	C	0.640389	-0.570117	-0.342120
C40	C	1.140389	-0.070117	0.157880
C41	C	0.574953	-0.570091	-0.342148
C42	C	1.074953	-0.070091	0.157852
C43	C	0.542218	-0.503156	-0.302157
C44	C	1.042218	-0.003156	0.197843
C45	C	0.574924	-0.436222	-0.262147
C46	C	1.074924	0.063778	0.237853
C47	C	0.640358	-0.436242	-0.262125
C48	C	1.140358	0.063758	0.237875
C49	C	0.438492	-0.494737	-0.245752
C50	C	0.938492	0.005263	0.254248
C51	C	0.373059	-0.494724	-0.245773
C52	C	0.873059	0.005276	0.254227
C53	C	0.340398	-0.503088	-0.302227
C54	C	0.840398	-0.003088	0.197773
C55	C	0.373177	-0.511486	-0.358661
C56	C	0.873177	-0.011486	0.141339
C57	C	0.438611	-0.511506	-0.358638
C58	C	0.938611	-0.011506	0.141362
C59	C	0.471266	-0.503126	-0.302177
C60	C	0.971266	-0.003126	0.197823
C61	C	0.236747	-0.569984	-0.342268
C62	C	0.736747	-0.069984	0.157732
C63	C	0.171311	-0.569951	-0.342297
C64	C	0.671311	-0.069951	0.157703
C65	C	0.171283	-0.436087	-0.262290
C66	C	0.671283	0.063913	0.237710
C67	C	0.236718	-0.436115	-0.262267
C68	C	0.736718	0.063885	0.237733
C69	C	0.269446	-0.503069	-0.302255
C70	C	0.769446	-0.003069	0.197745
C71	C	0.905476	-0.774602	-0.302191
C72	C	1.405476	-0.274602	0.197809
C73	C	0.905517	-0.890755	-0.302207
C74	C	1.405517	-0.390755	0.197793
C75	C	0.943633	-0.942497	-0.264184
C76	C	1.443633	-0.442497	0.235816
C77	C	0.943675	-1.062548	-0.264200
C78	C	1.443675	-0.562548	0.235800
C79	C	1.068939	-0.503037	-0.302275
C80	C	1.568939	-0.003037	0.197725
C81	C	1.138580	-0.503014	-0.302306
C82	C	1.638580	-0.003014	0.197694
C83	C	0.905568	-0.503071	-0.465625
C84	C	1.405568	-0.003071	0.034375
C85	C	0.905590	-0.503062	-0.535266
C86	C	1.405590	-0.003062	-0.035266
C87	C	0.905572	-0.230522	-0.302227
C88	C	1.405572	0.269478	0.197773
C89	C	0.905596	-0.114369	-0.302237
C90	C	1.405596	0.385631	0.197763
C91	C	0.945675	-0.436208	-0.568005
C92	C	1.445675	0.063792	-0.068005
C93	C	0.945674	-0.436163	-0.633440
C94	C	1.445674	0.063837	-0.133440
C95	C	0.905595	-0.502991	-0.666135
C96	C	1.405595	-0.002991	-0.166135
C97	C	0.865501	-0.569849	-0.633389
C98	C	1.365501	-0.069849	-0.133389
C99	C	0.865499	-0.569885	-0.567954
C100	C	1.365499	-0.069885	-0.067954
C101	C	0.900634	-0.597087	-0.769804
C102	C	1.400634	-0.097087	-0.269804
C103	C	0.900641	-0.597053	-0.835237
C104	C	1.400641	-0.097053	-0.335237
C105	C	0.905598	-0.502880	-0.867956
C106	C	1.405598	-0.002880	-0.367956
C107	C	0.910563	-0.408738	-0.835233
C108	C	1.410563	0.091262	-0.335233
C109	C	0.910560	-0.408774	-0.769799
C110	C	1.410560	0.091226	-0.269799
C111	C	0.905592	-0.502959	-0.737087
C112	C	1.405592	-0.002959	-0.237087
C113	C	0.945685	-0.435972	-0.971646
C114	C	1.445685	0.064028	-0.471646
C115	C	0.945680	-0.435925	-1.037083
C116	C	1.445680	0.064075	-0.537083
C117	C	0.865510	-0.569621	-1.037030
C118	C	1.365510	-0.069621	-0.537030
C119	C	0.865512	-0.569658	-0.971595
C120	C	1.365512	-0.069658	-0.471595
C121	C	0.905603	-0.502835	-0.938907
C122	C	1.405603	-0.002835	-0.438907
C123	C	0.905500	-0.503038	-0.139414
C124	C	1.405500	-0.003038	0.360586
C125	C	0.905599	-0.502752	-0.069773
C126	C	1.405599	-0.002752	0.430227
H127	H	0.346585	-0.518294	-0.404631
H128	H	0.846585	-0.018294	0.095369
H129	H	0.896429	-0.673754	-0.743170
H130	H	1.396429	-0.173754	-0.243170
H131	H	0.346375	-0.487893	-0.199821
H132	H	0.846375	0.012107	0.300179
H133	H	0.832866	-0.624257	-0.660013
H134	H	1.332866	-0.124257	-0.160013
H135	H	0.263396	-0.624497	-0.374831
H136	H	0.763396	-0.124497	0.125169
C137	C	0.474666	-0.520742	-0.420714
C138	C	0.974666	-0.020742	0.079286
N139	N	0.501822	-0.527698	-0.467471
N140	N	1.001822	-0.027698	0.032529
C141	C	0.861472	-0.950973	-0.346201
C142	C	1.361472	-0.450973	0.153799
N143	N	0.828296	-0.996328	-0.379338
N144	N	1.328296	-0.496328	0.120662
H145	H	0.978326	-0.381555	-0.945030
H146	H	1.478326	0.118445	-0.445030
C147	C	0.538979	-0.643716	-0.386159
C148	C	1.038979	-0.143716	0.113841
N149	N	0.511884	-0.699172	-0.419307
N150	N	1.011884	-0.199172	0.080693
C151	C	0.821401	-0.643435	-0.531941
C152	C	1.321401	-0.143435	-0.031941
N153	N	0.788187	-0.698835	-0.504815
N154	N	1.288187	-0.198835	-0.004815
C155	C	0.987760	-1.122658	-0.220219
C156	C	1.487760	-0.622658	0.279781
N157	N	1.020967	-1.167937	-0.187091
N158	N	1.520967	-0.667937	0.312909
C159	C	0.987676	-0.882279	-0.220188
C160	C	1.487676	-0.382279	0.279812
N161	N	1.020849	-0.836924	-0.187048
N162	N	1.520849	-0.336924	0.312952
H163	H	0.978320	-0.381794	-0.541394
H164	H	1.478320	0.118206	-0.041394
C165	C	0.989777	-0.362622	-0.669459
C166	C	1.489777	0.137378	-0.169459
N167	N	1.022997	-0.307234	-0.696587
N168	N	1.522997	0.192766	-0.196587
H169	H	0.144689	-0.624444	-0.374879
H170	H	0.644689	-0.124444	0.125121
C171	C	0.916012	-0.305219	-0.733807
C172	C	1.416012	0.194781	-0.233807
N173	N	0.920115	-0.227220	-0.706698
N174	N	1.420115	0.272780	-0.206698
H175	H	0.144630	-0.381582	-0.229732
H176	H	0.644630	0.118418	0.270268
C177	C	0.474413	-0.485541	-0.183644
C178	C	0.974413	0.014459	0.316356
N179	N	0.501468	-0.478616	-0.136866
N180	N	1.001468	0.021384	0.363134
H181	H	0.263341	-0.381626	-0.229685
H182	H	0.763341	0.118374	0.270315
H183	H	0.914601	-0.332054	-0.861871
H184	H	1.414601	0.167946	-0.361871
C185	C	0.538914	-0.362593	-0.218158
C186	C	1.038914	0.137407	0.281842
N187	N	0.511791	-0.307130	-0.185024
N188	N	1.011791	0.192870	0.314976
H189	H	0.667032	-0.624635	-0.374682
H190	H	1.167032	-0.124635	0.125318
C191	C	0.989778	-0.362375	-1.073095
C192	C	1.489778	0.137625	-0.573095
N193	N	1.022995	-0.306976	-1.100220
N194	N	1.522995	0.193024	-0.600220
H195	H	0.666980	-0.381744	-0.229546
H196	H	1.166980	0.118256	0.270454
H197	H	0.832870	-0.624022	-1.063650
H198	H	1.332870	-0.124022	-0.563650
C199	C	0.821417	-0.643208	-0.935582
C200	C	1.321417	-0.143208	-0.435582
N201	N	0.788201	-0.698607	-0.908457
N202	N	1.288201	-0.198607	-0.408457
H203	H	0.872959	-1.069879	-0.334790
H204	H	1.372959	-0.569879	0.165210
H205	H	0.896602	-0.673709	-0.861874
H206	H	1.396602	-0.173709	-0.361874
