data_functionalizedCrystal
_audit_creation_method	'MofGen! by Chris Wilmer'
_symmetry_space_group_name_H-M	'P1'
_symmetry_Int_Tables_number	1
_symmetry_cell_setting	triclinic
loop_
_symmetry_equiv_pos_as_xyz
  x,y,z
_cell_length_a	12.594517
_cell_length_b	16.994747
_cell_length_c	12.594509
_cell_angle_alpha	90.008624
_cell_angle_beta	90.021327
_cell_angle_gamma	90.010859
loop_
_atom_site_label
_atom_site_type_symbol
_atom_site_fract_x
_atom_site_fract_y
_atom_site_fract_z
Zn1	Zn	1.627304	-0.314008	0.602005
Zn2	Zn	1.627210	-0.445929	0.424087
Zn3	Zn	1.449308	-0.314042	0.424034
Zn4	Zn	1.449306	-0.445874	0.602017
O5	O	1.538282	-0.379963	0.513036
O6	O	1.776237	-0.331517	0.578421
O7	O	1.603573	-0.428471	0.275134
O8	O	1.472960	-0.203657	0.447615
O9	O	1.776169	-0.428438	0.447706
O10	O	1.603733	-0.203632	0.578369
O11	O	1.472869	-0.331574	0.275095
O12	O	1.300362	-0.331521	0.447627
O13	O	1.472956	-0.428345	0.750962
O14	O	1.300360	-0.428377	0.578390
O15	O	1.603730	-0.331464	0.750953
O16	O	1.603571	-0.556303	0.447718
O17	O	1.472865	-0.556262	0.578442
C18	C	1.261741	-0.379947	0.513005
C19	C	1.143435	-0.379960	0.513016
C20	C	1.538220	-0.584903	0.513084
C21	C	1.538228	-0.674225	0.513081
Zn22	Zn	1.449338	-0.945129	0.424004
Zn23	Zn	1.627351	-0.945073	0.601958
Zn24	Zn	1.449342	-0.813266	0.602000
Zn25	Zn	1.627230	-0.813184	0.424053
O26	O	1.538315	-0.879163	0.513004
O27	O	1.473002	-1.055503	0.447572
O28	O	1.603790	-0.927600	0.750910
O29	O	1.300396	-0.830816	0.578385
O30	O	1.603787	-1.055462	0.578315
O31	O	1.300393	-0.927694	0.447612
O32	O	1.473008	-0.830762	0.750940
O33	O	1.472890	-0.702874	0.578432
O34	O	1.603580	-0.830675	0.275100
O35	O	1.603583	-0.702814	0.447695
O36	O	1.472884	-0.927615	0.275065
O37	O	1.776281	-0.927520	0.578362
O38	O	1.776192	-0.830622	0.447655
C39	C	1.074152	-0.327208	0.442030
C40	C	1.003350	-0.399158	0.415883
C41	C	1.003439	-0.308044	0.539181
C42	C	1.074191	-0.451948	0.486819
C43	C	1.074287	-0.360785	0.610163
C44	C	1.003516	-0.432786	0.584053
C45	C	1.815903	-0.379980	0.513068
C46	C	1.934208	-0.379987	0.513082
C47	C	1.538353	-0.379894	0.790657
C48	C	1.538384	-0.379865	0.908962
C49	C	1.538349	-0.174223	0.512982
C50	C	1.538382	-0.084901	0.512959
C51	C	1.538272	-0.379975	0.236495
C52	C	1.538448	-0.379782	0.118190
C53	C	1.467278	-0.432528	0.978221
C54	C	1.564400	-0.451801	1.049020
C55	C	1.441336	-0.360544	1.048962
C56	C	1.635557	-0.399176	0.978204
C57	C	1.512428	-0.307885	0.978140
C58	C	1.609618	-0.327130	1.048907
C59	C	1.814856	-0.879058	0.513012
C60	C	1.933162	-0.879036	0.513047
C61	C	1.538218	-0.879142	0.235383
C62	C	1.538176	-0.879133	0.117077
C63	C	1.260695	-0.879270	0.512998
C64	C	1.142389	-0.879316	0.512995
C65	C	1.538337	-0.879229	0.789545
C66	C	1.538081	-0.879389	0.907850
C67	C	2.002405	-0.826292	0.442036
C68	C	2.073198	-0.807062	0.539194
C69	C	2.073167	-0.898228	0.415965
C70	C	2.002397	-0.859769	0.610256
C71	C	2.002360	-0.950969	0.486961
C72	C	2.073121	-0.931766	0.584186
C73	C	1.609217	-0.826403	0.047843
C74	C	1.635243	-0.898353	-0.022970
C75	C	1.512072	-0.807176	-0.022909
C76	C	1.564254	-0.951121	0.047822
C77	C	1.441037	-0.859895	0.047889
C78	C	1.467027	-0.931895	-0.022892
H79	H	1.105168	-0.282641	0.381924
H80	H	1.105469	-0.344529	0.692265
H81	H	1.105140	-0.512796	0.464625
C82	C	1.386710	-0.991281	-0.064114
C83	C	1.310089	-0.952379	-0.125215
C84	C	1.236082	-1.007060	-0.163196
H85	H	1.421917	-1.029333	-0.106671
H86	H	1.353258	-1.016702	-0.005864
H87	H	1.343538	-0.926971	-0.183457
H88	H	1.274855	-0.914332	-0.082681
H89	H	1.202630	-1.032482	-0.104947
H90	H	1.271299	-1.045110	-0.205749
H91	H	1.184081	-0.980673	-0.204650
H92	H	0.972696	-0.477460	0.644112
C93	C	2.114554	-0.920042	0.306494
C94	C	2.077144	-0.994851	0.278707
C95	C	2.115255	-1.014970	0.177875
H96	H	2.090366	-0.882596	0.256000
H97	H	2.189981	-0.920403	0.307447
H98	H	2.001733	-0.994484	0.277746
H99	H	2.101330	-1.032314	0.329174
H100	H	2.190682	-1.015331	0.178828
H101	H	2.091064	-0.977519	0.127389
H102	H	2.089886	-1.065732	0.159012
C103	C	2.114127	-0.991353	0.664302
C104	C	2.076627	-1.066354	0.637597
C105	C	2.114372	-1.121259	0.711384
H106	H	2.189544	-0.991436	0.663541
H107	H	2.089732	-0.977644	0.733236
H108	H	2.101028	-1.080059	0.568680
H109	H	2.001215	-1.066296	0.638365
H110	H	2.089977	-1.107549	0.780319
H111	H	2.189788	-1.121335	0.710617
H112	H	2.088926	-1.172151	0.693280
H113	H	1.359238	-0.344237	1.080045
H114	H	0.972193	-0.415393	0.333756
H115	H	0.972305	-0.247223	0.561248
C116	C	1.483291	-0.226765	0.936524
C117	C	1.567156	-0.197222	0.875428
C118	C	1.540346	-0.122492	0.837084
H119	H	1.421261	-0.230445	0.893884
H120	H	1.470262	-0.192425	0.994606
H121	H	1.580172	-0.231552	0.817354
H122	H	1.629194	-0.193522	0.918045
H123	H	1.527317	-0.088153	0.895166
H124	H	1.478315	-0.126180	0.794449
H125	H	1.597247	-0.102434	0.795634
C126	C	1.961048	-0.766653	0.362169
C127	C	1.996923	-0.691445	0.390018
C128	C	1.958833	-0.636484	0.316483
H129	H	1.986294	-0.779679	0.293315
H130	H	1.885620	-0.767352	0.362266
H131	H	2.072336	-0.690748	0.389910
H132	H	1.971680	-0.678394	0.458860
H133	H	1.883405	-0.637183	0.316580
H134	H	1.984082	-0.649518	0.247634
H135	H	1.983160	-0.585448	0.335374
C136	C	1.689351	-0.767035	0.089473
C137	C	1.687701	-0.767299	0.200629
C138	C	1.761494	-0.712615	0.239014
H139	H	1.758349	-0.780756	0.065323
H140	H	1.671516	-0.716032	0.064272
H141	H	1.705543	-0.818291	0.225820
H142	H	1.618721	-0.753569	0.224807
H143	H	1.743659	-0.661612	0.213813
H144	H	1.830487	-0.726341	0.214857
H145	H	1.760378	-0.712782	0.314436
H146	H	1.669847	-0.282559	1.079749
H147	H	2.104295	-0.746226	0.561305
C148	C	1.387300	-0.492125	0.936884
C149	C	1.415012	-0.567338	0.972782
C150	C	1.341375	-0.622260	0.934713
H151	H	1.318471	-0.479035	0.962128
H152	H	1.387396	-0.491458	0.861456
H153	H	1.414906	-0.568003	1.048195
H154	H	1.483829	-0.580453	0.947541
H155	H	1.341471	-0.621593	0.859284
H156	H	1.272551	-0.609163	0.959960
H157	H	1.360173	-0.673299	0.959056
H158	H	1.971440	-0.843464	0.692407
H159	H	1.971221	-1.011784	0.464834
C160	C	1.744780	-0.919898	-0.064422
C161	C	1.818903	-0.864505	-0.028613
C162	C	1.919818	-0.884314	-0.066785
H163	H	1.763915	-0.970621	-0.039189
H164	H	1.743822	-0.920172	-0.139850
H165	H	1.819865	-0.864239	0.046799
H166	H	1.799804	-0.813776	-0.053844
H167	H	1.918860	-0.884588	-0.142213
H168	H	1.938942	-0.935038	-0.041549
H169	H	1.970121	-0.846729	-0.042502
C170	C	1.593812	-1.032209	0.089275
C171	C	1.593612	-1.031255	0.200437
C172	C	1.620863	-1.105930	0.238661
H173	H	1.543674	-1.069766	0.064608
H174	H	1.662587	-1.045949	0.064477
H175	H	1.524847	-1.017524	0.225224
H176	H	1.643752	-0.993713	0.225131
H177	H	1.689638	-1.119671	0.213863
H178	H	1.570721	-1.143482	0.213988
H179	H	1.620740	-1.105291	0.314087
C180	C	1.331642	-0.838013	0.089375
C181	C	1.304786	-0.762591	0.053623
C182	C	1.204026	-0.742393	0.091832
H183	H	1.280846	-0.874866	0.064128
H184	H	1.332314	-0.838607	0.164802
H185	H	1.304106	-0.762002	-0.021788
H186	H	1.355555	-0.725721	0.078867
H187	H	1.204698	-0.742988	0.167260
H188	H	1.153238	-0.779251	0.066583
H189	H	1.185795	-0.691215	0.067589
H190	H	1.490046	-0.746329	-0.053982
H191	H	1.586389	-0.512638	1.080153
H192	H	1.717679	-0.415552	0.947252
