data_functionalizedCrystal
_audit_creation_method	'MofGen! by Chris Wilmer'
_symmetry_space_group_name_H-M	'P1'
_symmetry_Int_Tables_number	1
_symmetry_cell_setting	triclinic
loop_
_symmetry_equiv_pos_as_xyz
  x,y,z
_cell_length_a	19.188925
_cell_length_b	19.188930
_cell_length_c	11.295483
_cell_angle_alpha	94.076039
_cell_angle_beta	85.907741
_cell_angle_gamma	83.143665
loop_
_atom_site_label
_atom_site_type_symbol
_atom_site_fract_x
_atom_site_fract_y
_atom_site_fract_z
O1	O	0.930866	0.082431	-0.099063
O2	O	1.264200	0.415764	0.234270
O3	O	1.597533	0.749098	0.567603
O4	O	0.727554	0.094169	-0.099062
O5	O	1.060888	0.427503	0.234272
O6	O	1.394221	0.760836	0.567605
O7	O	0.835076	-0.013354	-0.099039
O8	O	1.168410	0.319979	0.234294
O9	O	1.501743	0.653312	0.567627
O10	O	0.823344	0.189955	-0.099086
O11	O	1.156678	0.523288	0.234248
O12	O	1.490011	0.856622	0.567581
O13	O	0.825633	-0.003925	0.099009
O14	O	1.158966	0.329409	0.432343
O15	O	1.492299	0.662742	0.765676
O16	O	0.718111	0.103599	0.098987
O17	O	1.051444	0.436932	0.432320
O18	O	1.384777	0.770266	0.765654
O19	O	0.921423	0.091861	0.098986
O20	O	1.254756	0.425194	0.432319
O21	O	1.588089	0.758527	0.765652
Cu22	Cu	0.818904	0.098591	0.117070
Cu23	Cu	1.152238	0.431924	0.450403
Cu24	Cu	1.485571	0.765258	0.783736
Cu25	Cu	0.830073	0.087439	-0.117146
Cu26	Cu	1.163406	0.420773	0.216187
Cu27	Cu	1.496739	0.754106	0.549521
O28	O	0.813901	0.199385	0.098963
O29	O	1.147234	0.532718	0.432296
O30	O	1.480567	0.866051	0.765630
C31	C	0.696821	0.098505	-0.000037
C32	C	1.030155	0.431838	0.333296
C33	C	1.363488	0.765171	0.666630
C34	C	0.619317	0.097366	-0.000035
C35	C	0.952650	0.430699	0.333298
C36	C	1.285983	0.764032	0.666631
C37	C	0.057547	0.152829	-0.000051
C38	C	0.390881	0.486162	0.333283
C39	C	0.724214	0.819496	0.666616
C40	C	0.130371	0.153905	-0.000057
C41	C	0.463704	0.487238	0.333276
C42	C	0.797037	0.820572	0.666609
C43	C	0.175304	0.090814	-0.000041
C44	C	0.508638	0.424147	0.333292
C45	C	0.841971	0.757480	0.666626
C46	C	0.147411	0.026640	-0.000048
C47	C	0.480744	0.359973	0.333285
C48	C	0.814077	0.693307	0.666618
C49	C	0.074589	0.025565	-0.000054
C50	C	0.407922	0.358898	0.333280
C51	C	0.741256	0.692232	0.666613
N52	N	0.292766	0.048348	0.067387
N53	N	0.626100	0.381681	0.400720
N54	N	0.959433	0.715015	0.734053
N55	N	0.361943	0.049374	0.067394
N56	N	0.695277	0.382707	0.400728
N57	N	1.028610	0.716040	0.734061
C58	C	0.394713	0.094048	-0.000028
C59	C	0.728046	0.427382	0.333306
C60	C	1.061380	0.760715	0.666639
N61	N	0.355690	0.137670	-0.067442
N62	N	0.689023	0.471004	0.265891
N63	N	1.022357	0.804337	0.599224
N64	N	0.286506	0.136647	-0.067445
N65	N	0.619840	0.469980	0.265889
N66	N	0.953173	0.803314	0.599222
C67	C	0.254268	0.091972	-0.000036
C68	C	0.587602	0.425306	0.333297
C69	C	0.920935	0.758639	0.666631
C70	C	0.501562	0.159385	-0.000036
C71	C	0.834896	0.492718	0.333297
C72	C	1.168229	0.826051	0.666631
C73	C	0.574388	0.160458	-0.000050
C74	C	0.907721	0.493791	0.333283
C75	C	1.241054	0.827124	0.666617
C76	C	0.591426	0.033191	-0.000029
C77	C	0.924759	0.366525	0.333305
C78	C	1.258093	0.699858	0.666638
C79	C	0.518602	0.032120	-0.000027
C80	C	0.851936	0.365453	0.333307
C81	C	1.185269	0.698786	0.666640
C82	C	0.473674	0.095218	-0.000025
C83	C	0.807008	0.428552	0.333309
C84	C	1.140341	0.761885	0.666642
C85	C	0.829974	-0.034650	-0.000011
C86	C	1.163308	0.298683	0.333322
C87	C	1.496641	0.632016	0.666655
C88	C	0.828833	-0.112154	-0.000001
C89	C	1.162167	0.221179	0.333332
C90	C	1.495500	0.554512	0.666665
C91	C	0.891924	-0.157079	0.000004
C92	C	1.225257	0.176254	0.333337
C93	C	1.558591	0.509587	0.666671
C94	C	0.890853	-0.229904	-0.000015
C95	C	1.224187	0.103429	0.333318
C96	C	1.557520	0.436763	0.666652
C97	C	0.826687	-0.257799	-0.000015
C98	C	1.160020	0.075534	0.333318
C99	C	1.493354	0.408867	0.666651
C100	C	0.763588	-0.212865	-0.000027
C101	C	1.096922	0.120468	0.333306
C102	C	1.430255	0.453802	0.666639
C103	C	0.764661	-0.140042	-0.000020
C104	C	1.097995	0.193291	0.333313
C105	C	1.431328	0.526624	0.666646
N106	N	0.774426	-0.362594	0.067385
N107	N	1.107759	-0.029261	0.400718
N108	N	1.441092	0.304072	0.734051
N109	N	0.773410	-0.431773	0.067380
N110	N	1.106744	-0.098440	0.400714
N111	N	1.440077	0.234894	0.734047
C112	C	0.823450	-0.477209	-0.000040
C113	C	1.156783	-0.143876	0.333294
C114	C	1.490117	0.189458	0.666627
N115	N	0.874553	-0.450854	-0.067440
N116	N	1.207886	-0.117520	0.265893
N117	N	1.541220	0.215813	0.599226
N118	N	0.875570	-0.381668	-0.067431
N119	N	1.208904	-0.048335	0.265903
N120	N	1.542237	0.284998	0.599236
C121	C	0.825516	-0.336762	-0.000024
C122	C	1.158850	-0.003429	0.333309
C123	C	1.492183	0.329904	0.666643
C124	C	0.885384	-0.601100	-0.000057
C125	C	1.218717	-0.267766	0.333277
C126	C	1.552051	0.065567	0.666610
C127	C	0.884311	-0.673926	-0.000083
C128	C	1.217644	-0.340592	0.333250
C129	C	1.550978	-0.007259	0.666584
C130	C	0.757044	-0.656884	-0.000083
C131	C	1.090377	-0.323551	0.333250
C132	C	1.423710	0.009782	0.666583
C133	C	0.758119	-0.584060	-0.000069
C134	C	1.091452	-0.250727	0.333264
C135	C	1.424786	0.082606	0.666598
C136	C	0.822291	-0.556172	-0.000050
C137	C	1.155624	-0.222839	0.333283
C138	C	1.488958	0.110494	0.666617
C139	C	0.952156	0.087525	-0.000042
C140	C	1.285489	0.420859	0.333291
C141	C	1.618822	0.754192	0.666625
C142	C	1.029661	0.088664	-0.000051
C143	C	1.362994	0.421997	0.333282
C144	C	1.696327	0.755331	0.666615
C145	C	0.819003	0.220680	-0.000067
C146	C	1.152336	0.554014	0.333266
C147	C	1.485669	0.887347	0.666599
C148	C	0.820144	0.298184	-0.000085
C149	C	1.153478	0.631517	0.333248
C150	C	1.486811	0.964851	0.666581
N151	N	0.811054	0.106434	0.281804
N152	N	1.144387	0.439767	0.615138
N153	N	1.477721	0.773100	0.948471
N154	N	0.837928	0.079591	-0.281881
N155	N	1.171262	0.412924	0.051453
N156	N	1.504595	0.746257	0.384786
C157	C	0.894439	0.023094	0.531111
C158	C	1.227772	0.356427	0.864445
C159	C	1.561105	0.689761	1.197778
C160	C	0.888511	0.029026	0.655774
C161	C	1.221844	0.362359	0.989107
C162	C	1.555178	0.695693	1.322440
C163	C	0.793269	0.124226	0.655794
C164	C	1.126602	0.457559	0.989127
C165	C	1.459935	0.790892	1.322461
C166	C	0.799196	0.118294	0.531131
C167	C	1.132530	0.451627	0.864465
C168	C	1.465863	0.784961	1.197798
C169	C	0.849783	0.067727	0.468795
C170	C	1.183117	0.401060	0.802128
C171	C	1.516450	0.734394	1.135461
C172	C	0.855714	0.061799	0.344130
C173	C	1.189047	0.395132	0.677463
C174	C	1.522381	0.728466	1.010796
C175	C	0.760469	0.156995	0.344152
C176	C	1.093802	0.490328	0.677486
C177	C	1.427135	0.823662	1.010819
C178	C	0.754541	0.162927	0.468815
C179	C	1.087874	0.496260	0.802148
C180	C	1.421208	0.829594	1.135481
H181	H	0.020971	0.204209	-0.000055
H182	H	0.354304	0.537542	0.333278
H183	H	0.687638	0.870876	0.666612
H184	H	0.937637	-0.578392	-0.000047
H185	H	1.270970	-0.245059	0.333287
H186	H	1.604304	0.088274	0.666620
H187	H	0.944178	-0.134378	0.000015
H188	H	1.277511	0.198955	0.333349
H189	H	1.610844	0.532288	0.666682
H190	H	0.896906	0.020627	0.293376
H191	H	1.230240	0.353960	0.626709
H192	H	1.563573	0.687293	0.960043
H193	H	0.942231	-0.266489	-0.000016
H194	H	1.275564	0.066844	0.333318
H195	H	1.608898	0.400178	0.666651
H196	H	0.711344	-0.235582	-0.000030
H197	H	1.044677	0.097751	0.333303
H198	H	1.378010	0.431085	0.666636
Cl199	Cl	0.704333	0.213111	0.265800
Cl200	Cl	1.037666	0.546445	0.599133
Cl201	Cl	1.371000	0.879778	0.932467
Cl202	Cl	0.944650	-0.027088	0.734111
Cl203	Cl	1.277983	0.306245	1.067445
Cl204	Cl	1.611317	0.639578	1.400778
H205	H	0.935690	-0.710504	-0.000085
H206	H	1.269023	-0.377170	0.333248
H207	H	1.602356	-0.043837	0.666581
Cl208	Cl	0.958040	-0.040467	0.452743
Cl209	Cl	1.291373	0.292866	0.786077
Cl210	Cl	1.624706	0.626200	1.119410
Cl211	Cl	0.203898	-0.052675	-0.000033
Cl212	Cl	0.537231	0.280658	0.333301
Cl213	Cl	0.870564	0.613992	0.666634
Cl214	Cl	0.685340	-0.083562	-0.000026
Cl215	Cl	1.018674	0.249771	0.333307
Cl216	Cl	1.352007	0.583105	0.666640
H217	H	0.153080	0.206158	-0.000046
H218	H	0.486413	0.539491	0.333288
H219	H	0.819746	0.872825	0.666621
Cl220	Cl	0.676377	-0.691946	-0.000091
Cl221	Cl	1.009710	-0.358613	0.333242
Cl222	Cl	1.343043	-0.025279	0.666576
Cl223	Cl	0.729670	0.187785	0.734172
Cl224	Cl	1.063003	0.521118	1.067506
Cl225	Cl	1.396337	0.854451	1.400839
Cl226	Cl	0.483543	-0.048550	-0.000032
Cl227	Cl	0.816877	0.284783	0.333301
Cl228	Cl	1.150210	0.618117	0.666635
Cl229	Cl	0.445079	0.238707	-0.000038
Cl230	Cl	0.778412	0.572040	0.333295
Cl231	Cl	1.111745	0.905373	0.666629
Cl232	Cl	0.678800	-0.527580	-0.000070
Cl233	Cl	1.012133	-0.194247	0.333263
Cl234	Cl	1.345467	0.139087	0.666597
H235	H	0.713352	0.204096	0.519584
H236	H	1.046685	0.537429	0.852917
H237	H	1.380019	0.870763	1.186250
H238	H	0.051885	-0.026687	-0.000054
H239	H	0.385219	0.306646	0.333279
H240	H	0.718552	0.639979	0.666612
H241	H	0.628011	-0.018179	-0.000024
H242	H	0.961344	0.315154	0.333309
H243	H	1.294678	0.648487	0.666642
H244	H	0.597091	0.212710	-0.000059
H245	H	0.930424	0.546044	0.333274
H246	H	1.263758	0.879377	0.666607
