data_functionalizedCrystal
_audit_creation_method	'MofGen! by Chris Wilmer'
_symmetry_space_group_name_H-M	'P1'
_symmetry_Int_Tables_number	1
_symmetry_cell_setting	triclinic
loop_
_symmetry_equiv_pos_as_xyz
  x,y,z
_cell_length_a	18.101398
_cell_length_b	15.297327
_cell_length_c	15.296720
_cell_angle_alpha	107.319222
_cell_angle_beta	80.343163
_cell_angle_gamma	80.296826
loop_
_atom_site_label
_atom_site_type_symbol
_atom_site_fract_x
_atom_site_fract_y
_atom_site_fract_z
Zn1	Zn	0.982736	0.461346	0.589967
Zn2	Zn	1.482736	0.961346	1.089967
Zn3	Zn	0.982652	0.589968	0.461361
Zn4	Zn	1.482652	1.089968	0.961361
Zn5	Zn	0.884819	0.434462	0.434471
Zn6	Zn	1.384819	0.934462	0.934471
Zn7	Zn	0.832960	0.616792	0.616785
Zn8	Zn	1.332960	1.116792	1.116785
O9	O	0.920792	0.525642	0.525646
O10	O	1.420792	1.025642	1.025646
O11	O	1.086350	0.478434	0.572937
O12	O	1.586350	0.978434	1.072937
O13	O	0.991342	0.546863	0.327673
O14	O	1.491342	1.046863	0.827673
O15	O	0.919546	0.307894	0.432621
O16	O	1.419546	0.807894	0.932621
O17	O	1.086288	0.572931	0.478451
O18	O	1.586288	1.072931	0.978451
O19	O	0.991485	0.327646	0.546863
O20	O	1.491485	0.827646	1.046863
O21	O	0.919465	0.432613	0.307917
O22	O	1.419465	0.932613	0.807917
O23	O	0.774315	0.458623	0.458625
O24	O	1.274315	0.958623	0.958625
O25	O	0.831160	0.618649	0.743348
O26	O	1.331160	1.118649	1.243348
O27	O	0.736214	0.592580	0.592570
O28	O	1.236214	1.092580	1.092570
O29	O	0.941200	0.504444	0.723645
O30	O	1.441200	1.004444	1.223645
O31	O	0.941056	0.723660	0.504455
O32	O	1.441056	1.223660	1.004455
O33	O	0.831079	0.743368	0.618644
O34	O	1.331079	1.243368	1.118644
C35	C	0.880448	0.767260	0.567398
C36	C	1.380448	1.267260	1.067398
C37	C	0.863251	0.870630	0.585291
C38	C	1.363251	1.370630	1.085291
C39	C	0.728396	0.525596	0.525591
C40	C	1.228396	1.025596	1.025591
C41	C	0.646080	0.525602	0.525593
C42	C	1.146080	1.025602	1.025593
C43	C	0.880405	0.567537	0.768179
C44	C	1.380405	1.067537	1.268179
C45	C	0.863194	0.585390	0.871532
C46	C	1.363194	1.085390	1.371532
C47	C	0.346967	0.525674	0.525681
C48	C	0.846967	1.025674	1.025681
C49	C	0.402240	0.441094	0.441695
C50	C	0.902240	0.941094	0.941695
C51	C	0.487877	0.441234	0.441423
C52	C	0.987877	0.941234	0.941423
C53	C	0.495361	0.525638	0.525637
C54	C	0.995361	1.025638	1.025637
C55	C	0.452388	0.618970	0.515803
C56	C	0.952388	1.118970	1.015803
C57	C	0.366892	0.618483	0.515237
C58	C	0.866892	1.118483	1.015237
C59	C	0.366316	0.517803	0.619817
C60	C	0.866316	1.017803	1.119817
C61	C	0.452419	0.515528	0.618903
C62	C	0.952419	1.015528	1.118903
C63	C	0.579225	0.525623	0.525615
C64	C	1.079225	1.025623	1.025615
C65	C	0.263101	0.525694	0.525702
C66	C	0.763101	1.025694	1.025702
C67	C	1.113939	0.525689	0.525702
C68	C	1.613939	1.025689	1.025702
C69	C	1.196247	0.525709	0.525726
C70	C	1.696247	1.025709	1.025726
C71	C	0.961310	0.283084	0.483751
C72	C	1.461310	0.783084	0.983751
C73	C	0.978577	0.179721	0.465898
C74	C	1.478577	0.679721	0.965898
C75	C	1.043952	1.120875	0.398080
C76	C	1.543952	1.620875	0.898080
C77	C	1.060110	1.023752	0.381264
C78	C	1.560110	1.523752	0.881264
C79	C	1.010897	0.985467	0.432269
C80	C	1.510897	1.485467	0.932269
C81	C	0.945523	1.044314	0.500093
C82	C	1.445523	1.544314	1.000093
C83	C	0.929360	1.141445	0.516906
C84	C	1.429360	1.641445	1.016906
C85	C	0.896305	1.006037	0.551095
C86	C	1.396305	1.506037	1.051095
C87	C	0.830931	1.064884	0.618920
C88	C	1.330931	1.564884	1.118920
C89	C	0.814772	1.162006	0.635729
C90	C	1.314772	1.662006	1.135729
C91	C	0.863985	1.200291	0.584724
C92	C	1.363985	1.700291	1.084724
C93	C	0.912467	0.908906	0.534283
C94	C	1.412467	1.408906	1.034283
C95	C	0.797876	0.929476	0.653109
C96	C	1.297876	1.429476	1.153109
C97	C	0.781718	1.026599	0.669925
C98	C	1.281718	1.526599	1.169925
C99	C	0.961075	0.483843	0.284045
C100	C	1.461075	0.983843	0.784045
C101	C	0.978473	0.465728	0.180647
C102	C	1.478473	0.965728	0.680647
C103	C	1.043853	0.397880	1.121835
C104	C	1.543853	0.897880	1.621835
C105	C	1.060027	0.381108	1.024730
C106	C	1.560027	0.881108	1.524730
C107	C	1.010820	0.432177	0.986426
C108	C	1.510820	0.932177	1.486426
C109	C	0.945436	0.500021	1.045236
C110	C	1.445436	1.000021	1.545236
C111	C	0.929263	0.516800	1.142352
C112	C	1.429263	1.016800	1.642352
C113	C	0.896231	0.551097	1.006942
C114	C	1.396231	1.051097	1.506942
C115	C	0.830847	0.618942	1.065753
C116	C	1.330847	1.118942	1.565753
C117	C	0.814677	0.635717	1.162859
C118	C	1.314677	1.135717	1.662859
C119	C	0.863884	0.584648	1.201163
C120	C	1.363884	1.084648	1.701163
C121	C	0.912404	0.534318	0.909827
C122	C	1.412404	1.034318	1.409827
C123	C	0.797814	0.653238	0.930343
C124	C	1.297814	1.153238	1.430343
C125	C	0.781640	0.670010	1.027449
C126	C	1.281640	1.170010	1.527449
H127	H	0.518221	0.371493	0.445644
H128	H	1.018221	0.871493	0.945644
H129	H	0.965640	0.479077	0.861952
H130	H	1.465640	0.979077	1.361952
H131	H	0.517751	0.445077	0.371325
H132	H	1.017751	0.945077	0.871325
H133	H	1.113336	0.975843	0.326041
H134	H	1.613336	1.475843	0.826041
H135	H	1.084011	1.152056	0.356553
H136	H	1.584011	1.652056	0.856553
H137	H	0.390071	0.444824	0.371989
H138	H	0.890071	0.944824	0.871989
H139	H	1.023994	0.418517	0.907358
H140	H	1.523994	0.918517	1.407358
H141	H	0.328600	0.682724	0.574661
H142	H	0.828600	1.182724	1.074661
H143	H	0.328415	0.579615	0.682186
H144	H	0.828415	1.079615	1.182186
H145	H	0.850834	1.279376	0.598414
H146	H	1.350834	1.779376	1.098414
H147	H	0.481406	0.446930	0.626626
H148	H	0.981406	0.946930	1.126626
H149	H	0.757747	0.694824	0.899157
H150	H	1.257747	1.194824	1.399157
H151	H	1.024056	0.906385	0.418572
H152	H	1.524056	1.406385	0.918572
H153	H	0.355362	0.627151	0.446923
H154	H	0.855362	1.127151	0.946923
H155	H	0.850718	0.598301	1.280233
H156	H	1.350718	1.098301	1.780233
H157	H	0.761533	1.209915	0.690946
H158	H	1.261533	1.709915	1.190946
H159	H	0.728403	0.725250	1.075345
H160	H	1.228403	1.225250	1.575345
H161	H	0.456343	0.574000	0.683462
H162	H	0.956343	1.074000	1.183462
H163	H	1.083913	0.356313	1.153034
H164	H	1.583913	0.856313	1.653034
H165	H	0.757801	0.898305	0.694640
H166	H	1.257801	1.398305	1.194640
H167	H	1.113265	0.325871	0.976854
H168	H	1.613265	0.825871	1.476854
H169	H	0.455138	0.682942	0.575803
H170	H	0.955138	1.182942	1.075803
H171	H	0.391041	0.371098	0.445692
H172	H	0.891041	0.871098	0.945692
H173	H	0.482093	0.628139	0.448330
H174	H	0.982093	1.128139	0.948330
H175	H	0.761441	0.690968	1.210742
H176	H	1.261441	1.190968	1.710742
H177	H	0.728490	1.074525	0.725148
H178	H	1.228490	1.574525	1.225148
H179	H	0.352377	0.451822	0.632023
H180	H	0.852377	0.951822	1.132023
H181	H	0.965695	0.861001	0.479060
H182	H	1.465695	1.361001	0.979060
