data_functionalizedCrystal
_audit_creation_method	'MofGen! by Chris Wilmer'
_symmetry_space_group_name_H-M	'P1'
_symmetry_Int_Tables_number	1
_symmetry_cell_setting	triclinic
loop_
_symmetry_equiv_pos_as_xyz
  x,y,z
_cell_length_a	10.723024
_cell_length_b	10.723024
_cell_length_c	18.366186
_cell_angle_alpha	89.994974
_cell_angle_beta	89.991271
_cell_angle_gamma	84.467869
loop_
_atom_site_label
_atom_site_type_symbol
_atom_site_fract_x
_atom_site_fract_y
_atom_site_fract_z
O1	O	1.657197	0.175029	-0.060543
O2	O	1.294044	0.191782	-0.060545
O3	O	1.483997	0.001830	-0.060541
O4	O	1.467244	0.364982	-0.060547
O5	O	1.483964	0.001820	0.060558
O6	O	1.294012	0.191773	0.060554
O7	O	1.657164	0.175019	0.060556
Zn8	Zn	1.475583	0.183394	0.079782
Zn9	Zn	1.475626	0.183407	-0.079771
O10	O	1.467211	0.364972	0.060553
C11	C	1.247528	0.190558	0.000004
C12	C	1.108974	0.186911	0.000003
C13	C	1.033991	0.293198	0.000001
C14	C	0.890788	0.289431	0.000000
C15	C	1.482762	-0.044675	0.000007
C16	C	1.479114	-0.183229	0.000005
C17	C	1.585401	-0.258212	0.000005
C18	C	1.581634	-0.401415	0.000002
C19	C	1.703680	0.176243	0.000005
C20	C	1.842234	0.179891	0.000002
C21	C	1.468447	0.411477	0.000002
C22	C	1.472094	0.550031	-0.000000
N23	N	1.475562	0.183385	0.188674
N24	N	1.475656	0.183407	-0.188662
C25	C	1.559702	0.099316	0.226776
C26	C	1.559709	0.099310	0.303004
C27	C	1.475590	0.183396	0.341126
C28	C	1.391435	0.267471	0.303015
C29	C	1.391421	0.267466	0.226789
C30	C	1.460213	0.296908	0.461885
C31	C	1.460236	0.296915	0.538110
C32	C	1.475626	0.183412	0.576234
C33	C	1.491019	0.069896	0.538124
C34	C	1.491005	0.069891	0.461897
C35	C	1.475595	0.183410	0.423781
C36	C	1.559778	0.099330	0.696991
C37	C	1.559777	0.099322	0.773220
C38	C	1.391509	0.267494	0.773230
C39	C	1.391504	0.267490	0.697002
C40	C	1.475645	0.183409	0.658887
H41	H	0.826355	0.380421	-0.000004
H42	H	1.381099	-0.385544	0.000005
H43	H	0.906659	0.088896	-0.000001
H44	H	1.628211	0.030850	0.195745
H45	H	1.067152	0.093125	-0.000014
O46	O	1.690275	-0.478145	-0.000096
C47	C	1.760234	-0.454894	-0.062824
H48	H	1.730560	-0.356390	-0.083733
H49	H	1.864235	-0.463290	-0.048719
H50	H	1.742481	-0.526198	-0.106742
O51	O	1.083810	0.405123	0.000129
C52	C	1.043579	0.473420	0.062836
H53	H	1.015822	0.406076	0.106674
H54	H	1.122959	0.527075	0.083889
H55	H	0.959427	0.542337	0.048653
H56	H	1.322994	0.335952	0.665978
H57	H	1.679187	-0.216390	0.000010
O58	O	1.367145	-0.232963	0.000099
C59	C	1.298850	-0.192818	0.062826
H60	H	1.333499	-0.102197	0.083741
H61	H	1.195078	-0.175777	0.048719
H62	H	1.312747	-0.268016	0.106742
O63	O	1.641561	0.017591	0.339914
C64	C	1.715792	-0.056650	0.289926
H65	H	1.717636	-0.005479	0.235585
H66	H	1.815285	-0.074778	0.311942
H67	H	1.674482	-0.149725	0.281832
H68	H	1.503536	-0.022537	0.430871
H69	H	1.503551	-0.022530	0.569162
O70	O	1.309773	0.349323	0.339963
C71	C	1.331117	0.473044	0.321335
H72	H	1.379207	0.473328	0.265982
H73	H	1.237839	0.533638	0.318735
H74	H	1.393564	0.512213	0.364223
O75	O	1.445216	0.407288	0.575014
C76	C	1.431642	0.507469	0.525022
H77	H	1.397055	0.472633	0.470694
H78	H	1.360937	0.584472	0.547052
H79	H	1.525957	0.546309	0.516894
O80	O	1.641637	0.017609	0.810122
C81	C	1.715875	-0.056617	0.760131
H82	H	1.717704	-0.005440	0.705790
H83	H	1.815372	-0.074728	0.782143
H84	H	1.674581	-0.149700	0.752036
O85	O	1.641697	0.017859	0.659952
C86	C	1.719219	0.085460	0.615867
H87	H	1.722050	0.183911	0.638833
H88	H	1.818005	0.035532	0.615038
H89	H	1.680290	0.091600	0.558083
H90	H	1.447659	0.389343	0.430851
O91	O	1.309911	0.349127	0.810366
C92	C	1.327937	0.331080	0.885817
H93	H	1.426752	0.285350	0.896218
H94	H	1.314857	0.425460	0.914783
H95	H	1.256780	0.267840	0.907461
O96	O	1.309863	0.349197	0.189693
C97	C	1.377345	0.426817	0.145604
H98	H	1.474566	0.378005	0.134175
H99	H	1.325425	0.446085	0.092006
H100	H	1.386612	0.519125	0.174976
