data_functionalizedCrystal
_audit_creation_method	'MofGen! by Chris Wilmer'
_symmetry_space_group_name_H-M	'P1'
_symmetry_Int_Tables_number	1
_symmetry_cell_setting	triclinic
loop_
_symmetry_equiv_pos_as_xyz
  x,y,z
_cell_length_a	10.540539
_cell_length_b	16.992694
_cell_length_c	15.455425
_cell_angle_alpha	87.179027
_cell_angle_beta	92.960545
_cell_angle_gamma	92.403143
loop_
_atom_site_label
_atom_site_type_symbol
_atom_site_fract_x
_atom_site_fract_y
_atom_site_fract_z
O1	O	0.274550	-1.044988	0.072014
O2	O	0.271597	-0.816687	0.072040
O3	O	0.088819	-0.936046	0.072025
O4	O	0.457328	-0.925629	0.072029
O5	O	0.078314	-0.929849	-0.072234
O6	O	0.261093	-0.810490	-0.072219
O7	O	0.264045	-1.038790	-0.072245
Cu8	Cu	0.261610	-0.924074	-0.085404
Cu9	Cu	0.274032	-0.931404	0.085199
O10	O	0.446824	-0.919432	-0.072231
C11	C	0.262544	-0.784355	-0.000086
C12	C	0.251204	-0.697248	-0.000077
C13	C	0.036196	-0.932166	-0.000103
C14	C	-0.104955	-0.929829	-0.000098
N15	N	0.252872	-0.918925	-0.205397
C16	C	-0.296129	-0.840283	0.000236
C17	C	-0.149329	-0.842638	-0.000089
C18	C	-0.168970	-0.968250	-0.082481
C19	C	-0.315778	-0.965271	-0.082551
C20	C	-0.304197	-0.974093	0.081499
C21	C	-0.157066	-0.974942	0.082588
C22	C	0.499447	-0.923312	-0.000101
C23	C	0.640597	-0.925649	-0.000100
C24	C	0.273098	-1.071123	-0.000117
C25	C	0.284438	-1.158230	-0.000121
C26	C	0.360624	-0.647620	-0.000076
C27	C	0.349960	-0.565773	-0.000088
C28	C	0.229876	-0.533556	-0.000094
C29	C	0.120447	-0.583190	-0.000097
C30	C	0.131112	-0.665035	-0.000092
C31	C	0.185675	-0.289709	-0.000118
C32	C	0.175018	-0.207858	-0.000121
C33	C	0.404533	-0.190447	-0.000114
C34	C	0.415187	-0.272295	-0.000103
C35	C	0.305758	-0.321921	-0.000110
N36	N	0.218973	-0.449895	-0.000104
N37	N	0.316662	-0.405580	-0.000107
C38	C	0.204186	-0.890496	-0.749392
C39	C	0.210842	-0.894385	-0.658586
C40	C	0.296080	-0.944334	-0.613198
C41	C	0.374658	-0.990402	-0.658620
C42	C	0.367994	-0.986517	-0.749425
C43	C	0.324786	-0.961107	-0.341624
C44	C	0.331447	-0.964988	-0.250814
C45	C	0.167629	-0.868971	-0.250785
C46	C	0.160978	-0.865087	-0.341591
C47	C	0.239551	-0.911158	-0.387006
N48	N	0.302889	-0.948309	-0.520379
N49	N	0.232735	-0.907187	-0.479823
N50	N	0.282760	-0.936559	0.205192
H51	H	-0.105290	-0.812159	0.058967
F52	F	0.488437	-0.681900	-0.000064
H53	H	0.022671	-0.556952	-0.000115
H54	H	-0.114764	-0.806849	-0.059236
F55	F	-0.331791	-0.798579	0.077458
F56	F	0.466422	-0.512959	-0.000084
F57	F	-0.345516	-0.792040	-0.076331
H58	H	-0.351152	-0.931615	-0.144127
F59	F	0.047201	-0.173572	-0.000143
H60	H	0.388767	-0.998621	-0.378590
F61	F	0.070262	-0.811921	-0.389890
H62	H	0.512973	-0.298520	-0.000088
F63	F	0.520986	-0.137626	-0.000108
H64	H	0.096569	-0.330106	-0.000125
F65	F	-0.132784	-1.051771	-0.086498
F66	F	-0.371725	-1.047021	-0.087454
H67	H	0.400866	-1.005661	-0.213861
F68	F	-0.117718	-1.058311	0.089086
F69	F	-0.122434	-0.926710	-0.162607
F70	F	0.014652	-0.717852	-0.000095
H71	H	-0.333652	-0.948556	0.143940
F72	F	0.113470	-0.837329	-0.797689
F73	F	0.127242	-0.845339	-0.610254
F74	F	0.084010	-0.819945	-0.202445
H75	H	0.444054	-1.031076	-0.621658
F76	F	-0.358731	-1.056439	0.082216
F77	F	-0.100720	-0.938550	0.162260
F78	F	0.451619	-1.035546	-0.797760
