data_functionalizedCrystal
_audit_creation_method	'MofGen! by Chris Wilmer'
_symmetry_space_group_name_H-M	'P1'
_symmetry_Int_Tables_number	1
_symmetry_cell_setting	triclinic
loop_
_symmetry_equiv_pos_as_xyz
  x,y,z
_cell_length_a	16.625548
_cell_length_b	12.645330
_cell_length_c	16.625539
_cell_angle_alpha	89.973614
_cell_angle_beta	89.979432
_cell_angle_gamma	90.013714
loop_
_atom_site_label
_atom_site_type_symbol
_atom_site_fract_x
_atom_site_fract_y
_atom_site_fract_z
Zn1	Zn	1.232735	-0.422007	-0.455920
Zn2	Zn	1.732735	0.077993	0.044080
Zn3	Zn	1.232662	-0.599293	-0.321092
Zn4	Zn	1.732662	-0.099293	0.178908
Zn5	Zn	1.097897	-0.422048	-0.321101
Zn6	Zn	1.597897	0.077952	0.178899
Zn7	Zn	1.097891	-0.599232	-0.455882
Zn8	Zn	1.597891	-0.099232	0.044118
O9	O	1.165296	-0.510645	-0.388499
O10	O	1.665296	-0.010645	0.111501
O11	O	1.345558	-0.445533	-0.438047
O12	O	1.845558	0.054467	0.061953
O13	O	1.214757	-0.575824	-0.208261
O14	O	1.714757	-0.075824	0.291739
O15	O	1.115817	-0.273695	-0.339004
O16	O	1.615817	0.226305	0.160996
O17	O	1.345504	-0.575784	-0.338990
O18	O	1.845504	-0.075784	0.161010
O19	O	1.214882	-0.273665	-0.438056
O20	O	1.714882	0.226335	0.061944
O21	O	1.115746	-0.445602	-0.208267
O22	O	1.615746	0.054398	0.291733
O23	O	0.985064	-0.445543	-0.338967
O24	O	1.485064	0.054457	0.161033
O25	O	1.115806	-0.575681	-0.568719
O26	O	1.615806	-0.075681	-0.068719
O27	O	0.985059	-0.575720	-0.437990
O28	O	1.485059	-0.075720	0.062010
O29	O	1.214876	-0.445474	-0.568747
O30	O	1.714876	0.054526	-0.068747
O31	O	1.214751	-0.747632	-0.338952
O32	O	1.714751	-0.247632	0.161048
O33	O	1.115735	-0.747588	-0.437982
O34	O	1.615735	-0.247588	0.062018
C35	C	0.955806	-0.510630	-0.388476
C36	C	1.455806	-0.010630	0.111524
C37	C	0.866184	-0.510649	-0.388486
C38	C	1.366184	-0.010649	0.111514
C39	C	1.165256	-0.786075	-0.388480
C40	C	1.665256	-0.286075	0.111520
C41	C	1.165312	-0.903905	-0.388498
C42	C	1.665312	-0.403905	0.111502
C43	C	0.538009	-0.510656	-0.388520
C44	C	1.038009	-0.010656	0.111480
C45	C	0.629317	-0.510651	-0.388508
C46	C	1.129317	-0.010651	0.111492
C47	C	0.702094	-0.510653	-0.388502
C48	C	1.202094	-0.010653	0.111498
C49	C	0.793408	-0.510647	-0.388491
C50	C	1.293408	-0.010647	0.111509
C51	C	1.227503	-1.071453	-0.326072
C52	C	1.727503	-0.571453	0.173928
C53	C	1.227706	-0.948893	-0.326225
C54	C	1.727706	-0.448893	0.173775
C55	C	1.188356	-0.948288	-0.473491
C56	C	1.688356	-0.448288	0.026509
C57	C	1.188849	-1.070886	-0.473160
C58	C	1.688849	-0.570886	0.026840
C59	C	1.080054	-1.071234	-0.366769
C60	C	1.580054	-0.571234	0.133231
C61	C	1.080463	-0.948630	-0.364863
C62	C	1.580463	-0.448630	0.135137
C63	C	1.375605	-0.510661	-0.388522
C64	C	1.875605	-0.010661	0.111478
C65	C	1.465226	-0.510668	-0.388532
C66	C	1.965226	-0.010668	0.111468
C67	C	1.165349	-0.510566	-0.598808
C68	C	1.665349	-0.010566	-0.098808
C69	C	1.165371	-0.510532	-0.688429
C70	C	1.665371	-0.010532	-0.188429
C71	C	1.165359	-0.234140	-0.388535
C72	C	1.665359	0.265860	0.111465
C73	C	1.165386	-0.116310	-0.388551
C74	C	1.665386	0.383690	0.111449
C75	C	1.165408	-0.510414	-1.016605
C76	C	1.665408	-0.010414	-0.516605
C77	C	1.165396	-0.510450	-0.925296
C78	C	1.665396	-0.010450	-0.425296
C79	C	1.165390	-0.510474	-0.852520
C80	C	1.665390	-0.010474	-0.352520
C81	C	1.165377	-0.510509	-0.761205
C82	C	1.665377	-0.010509	-0.261205
C83	C	1.165291	-0.510647	-0.179008
C84	C	1.665291	-0.010647	0.320992
C85	C	1.165424	-0.510382	-0.089387
C86	C	1.665424	-0.010382	0.410613
H87	H	1.213289	-0.918889	-0.263205
H88	H	1.713289	-0.418889	0.236795
F89	F	1.016702	-0.908618	-0.419981
F90	F	1.516702	-0.408618	0.080019
F91	F	1.131015	-0.910207	-0.535968
F92	F	1.631015	-0.410207	-0.035968
H93	H	1.059099	-1.102243	-0.305872
H94	H	1.559099	-0.602243	0.194128
H95	H	1.290366	-1.102182	-0.340318
H96	H	1.790366	-0.602182	0.159682
F97	F	1.310315	-0.910447	-0.345060
F98	F	1.810315	-0.410447	0.154940
H99	H	1.063088	-0.919632	-0.302316
H100	H	1.563088	-0.419632	0.197684
F101	F	1.268962	-0.908047	-0.498011
F102	F	1.768962	-0.408047	0.001989
H103	H	1.213266	-1.101005	-0.262867
H104	H	1.713266	-0.601005	0.237133
F105	F	1.270375	-1.108155	-0.497274
F106	F	1.770375	-0.608155	0.002726
H107	H	1.145587	-1.100555	-0.521315
H108	H	1.645587	-0.600555	-0.021315
F109	F	1.019558	-1.109153	-0.426246
F110	F	1.519558	-0.609153	0.073754
