data_functionalizedCrystal
_audit_creation_method	'MofGen! by Chris Wilmer'
_symmetry_space_group_name_H-M	'P1'
_symmetry_Int_Tables_number	1
_symmetry_cell_setting	triclinic
loop_
_symmetry_equiv_pos_as_xyz
  x,y,z
_cell_length_a	16.992694
_cell_length_b	15.995350
_cell_length_c	15.455313
_cell_angle_alpha	92.667328
_cell_angle_beta	87.142206
_cell_angle_gamma	87.080299
loop_
_atom_site_label
_atom_site_type_symbol
_atom_site_fract_x
_atom_site_fract_y
_atom_site_fract_z
O1	O	1.043823	0.174116	-0.072015
O2	O	1.543823	0.674116	0.427985
O3	O	0.815539	0.172167	-0.072041
O4	O	1.315539	0.672167	0.427959
O5	O	0.935921	0.051671	-0.072026
O6	O	1.435921	0.551671	0.427974
O7	O	0.923440	0.294611	-0.072029
O8	O	1.423440	0.794611	0.427971
O9	O	0.929037	0.058531	0.072235
O10	O	1.429037	0.558531	0.572235
O11	O	0.808655	0.179027	0.072221
O12	O	1.308655	0.679027	0.572221
O13	O	1.036939	0.180976	0.072246
O14	O	1.536939	0.680976	0.572246
Cu15	Cu	0.922168	0.180628	0.085406
Cu16	Cu	1.422168	0.680628	0.585406
Cu17	Cu	0.930309	0.172515	-0.085200
Cu18	Cu	1.430309	0.672515	0.414800
O19	O	0.916556	0.301471	0.072232
O20	O	1.416556	0.801471	0.572232
C21	C	0.782884	0.173091	0.000087
C22	C	1.282884	0.673091	0.500087
C23	C	0.695840	0.165614	0.000077
C24	C	1.195840	0.665614	0.500077
C25	C	0.645600	0.237750	0.000077
C26	C	1.145600	0.737750	0.500077
C27	C	0.563813	0.230720	0.000089
C28	C	1.063813	0.730720	0.500089
C29	C	0.532268	0.151555	0.000095
C30	C	1.032268	0.651555	0.500095
C31	C	0.582515	0.079414	0.000098
C32	C	1.082515	0.579414	0.500098
C33	C	0.664300	0.086445	0.000092
C34	C	1.164300	0.586445	0.500092
C35	C	0.288669	0.122418	0.000118
C36	C	0.788669	0.622418	0.500118
C37	C	0.206878	0.115393	0.000122
C38	C	0.706878	0.615393	0.500122
C39	C	0.188181	0.266700	0.000114
C40	C	0.688181	0.766700	0.500114
C41	C	0.269969	0.273723	0.000103
C42	C	0.769969	0.773723	0.500103
C43	C	0.320208	0.201582	0.000111
C44	C	0.820208	0.701582	0.500111
N45	N	0.448669	0.144368	0.000104
N46	N	0.948669	0.644368	0.500104
N47	N	0.403806	0.208770	0.000107
N48	N	0.903806	0.708770	0.500107
C49	C	0.931963	0.023872	0.000103
C50	C	1.431963	0.523872	0.500103
C51	C	0.930416	-0.069182	0.000098
C52	C	1.430416	0.430818	0.500098
C53	C	0.924861	-0.407301	0.000100
C54	C	1.424861	0.092699	0.500100
C55	C	0.839142	-0.365620	-0.000233
C56	C	1.339142	0.134380	0.499767
C57	C	0.840674	-0.268811	0.000092
C58	C	1.340674	0.231189	0.500092
C59	C	0.927617	-0.239556	0.000098
C60	C	1.427617	0.260444	0.500098
C61	C	0.965973	-0.273887	0.082482
C62	C	1.465973	0.226113	0.582482
C63	C	0.963816	-0.370663	0.082550
C64	C	1.463816	0.129337	0.582550
C65	C	0.973415	-0.378704	-0.081501
C66	C	1.473415	0.121296	0.418499
C67	C	0.973447	-0.281812	-0.082590
C68	C	1.473447	0.218188	0.417410
C69	C	0.929178	-0.144754	0.000100
C70	C	1.429178	0.355246	0.500100
C71	C	0.923301	-0.502103	0.000104
C72	C	1.423301	-0.002103	0.500104
C73	C	1.069593	0.180052	0.000117
C74	C	1.569593	0.680052	0.500117
C75	C	1.156637	0.187528	0.000121
C76	C	1.656637	0.687528	0.500121
C77	C	0.920514	0.329271	0.000101
C78	C	1.420514	0.829271	0.500101
C79	C	0.922061	0.422324	0.000101
C80	C	1.422061	0.922324	0.500101
N81	N	0.916448	0.186334	0.205401
N82	N	1.416448	0.686334	0.705401
N83	N	0.936036	0.166802	-0.205195
N84	N	1.436036	0.666802	0.294805
C85	C	0.967608	0.135164	0.250801
C86	C	1.467608	0.635164	0.750801
C87	C	0.963289	0.139488	0.341608
C88	C	1.463289	0.639488	0.841608
C89	C	0.907813	0.194986	0.387014
C90	C	1.407813	0.694986	0.887014
C91	C	0.856647	0.246157	0.341607
C92	C	1.356647	0.746157	0.841607
C93	C	0.860963	0.241829	0.250801
C94	C	1.360963	0.741829	0.750801
C95	C	0.889185	0.213646	0.658593
C96	C	1.389185	0.713646	1.158593
C97	C	0.884875	0.217972	0.749405
C98	C	1.384875	0.717972	1.249405
C99	C	0.991517	0.111301	0.749400
C100	C	1.491517	0.611301	1.249400
C101	C	0.995831	0.106981	0.658592
C102	C	1.495831	0.606981	1.158592
C103	C	0.944662	0.158150	0.613194
C104	C	1.444662	0.658150	1.113194
N105	N	0.903399	0.199408	0.479833
N106	N	1.403399	0.699408	0.979833
N107	N	0.949073	0.153722	0.520376
N108	N	1.449073	0.653722	1.020376
H109	H	0.147268	0.325432	0.000110
H110	H	0.647268	0.825432	0.500110
H111	H	0.948364	-0.404089	-0.143943
H112	H	1.448364	0.095911	0.356057
C113	C	0.991615	-0.211621	-0.215541
C114	C	1.491615	0.288379	0.284459
C115	C	0.935699	-0.251656	-0.164870
C116	C	1.435699	0.248344	0.335130
H117	H	0.968310	-0.193004	-0.266337
H118	H	1.468310	0.306996	0.233663
H119	H	1.009324	-0.164900	-0.183191
H120	H	1.509324	0.335100	0.316809
H121	H	1.035128	-0.249815	-0.231470
H122	H	1.535128	0.250185	0.268530
H123	H	0.892188	-0.213460	-0.148935
H124	H	1.392188	0.286540	0.351065
H125	H	0.917978	-0.298383	-0.197226
H126	H	1.417978	0.201617	0.302774
C127	C	0.553548	0.380983	0.000069
C128	C	1.053548	0.880983	0.500069
C129	C	0.508589	0.310014	0.000084
C130	C	1.008589	0.810014	0.500084
H131	H	0.519453	0.429937	0.000062
H132	H	1.019453	0.929937	0.500062
H133	H	0.583443	0.382974	0.050369
H134	H	1.083443	0.882974	0.550369
H135	H	0.588230	0.378175	-0.050245
H136	H	1.088230	0.878175	0.449755
H137	H	0.473910	0.312820	0.050402
H138	H	0.973910	0.812820	0.550402
H139	H	0.478680	0.308024	-0.050221
H140	H	0.978680	0.808024	0.449779
C141	C	0.713100	-0.353860	0.078026
C142	C	1.213100	0.146140	0.578026
C143	C	0.789297	-0.391377	0.079064
C144	C	1.289297	0.108623	0.579064
H145	H	0.682329	-0.369769	0.126978
H146	H	1.182329	0.130231	0.626978
H147	H	0.715896	-0.294652	0.079970
H148	H	1.215896	0.205348	0.579970
H149	H	0.689395	-0.371729	0.026430
H150	H	1.189395	0.128271	0.526430
H151	H	0.813004	-0.373503	0.130657
H152	H	1.313004	0.126497	0.630657
H153	H	0.786504	-0.450598	0.077128
H154	H	1.286504	0.049402	0.577128
C155	C	0.730245	0.329909	-0.074101
C156	C	1.230245	0.829909	0.425899
C157	C	0.680268	0.324773	0.000065
C158	C	1.180268	0.824773	0.500065
H159	H	0.751640	0.383638	-0.074107
H160	H	1.251640	0.883638	0.425893
H161	H	0.771870	0.287963	-0.074095
H162	H	1.271870	0.787963	0.425905
H163	H	0.701111	0.321625	-0.124398
H164	H	1.201111	0.821625	0.375602
H165	H	0.709403	0.333051	0.050363
H166	H	1.209403	0.833051	0.550363
H167	H	0.638636	0.366732	0.000068
H168	H	1.138636	0.866732	0.500068
H169	H	0.295647	0.338187	0.000088
H170	H	0.795647	0.838187	0.500088
C171	C	0.233569	-0.033469	0.000138
C172	C	0.733569	0.466531	0.500138
C173	C	0.172202	0.028367	0.000130
C174	C	0.672202	0.528367	0.500130
H175	H	0.212159	-0.087190	0.000145
H176	H	0.712159	0.412810	0.500145
H177	H	0.267475	-0.029977	-0.050166
H178	H	0.767475	0.470023	0.449834
H179	H	0.262683	-0.025182	0.050449
H180	H	0.762683	0.474818	0.550449
H181	H	0.143091	0.020084	-0.050185
H182	H	0.643091	0.520084	0.449815
H183	H	0.138283	0.024873	0.050439
H184	H	0.638283	0.524873	0.550439
H185	H	1.041003	0.061791	0.621625
H186	H	1.541003	0.561791	1.121625
H187	H	0.804387	-0.240372	0.059241
H188	H	1.304387	0.259628	0.559241
C189	C	1.110855	-0.350859	-0.079575
C190	C	1.610855	0.149141	0.420425
C191	C	1.058783	-0.415907	-0.082248
C192	C	1.558783	0.084093	0.417752
H193	H	1.163554	-0.373831	-0.080026
H194	H	1.663554	0.126169	0.419974
H195	H	1.104769	-0.318059	-0.128716
H196	H	1.604769	0.181941	0.371284
H197	H	1.099564	-0.316579	-0.028162
H198	H	1.599564	0.183421	0.471838
H199	H	1.070071	-0.450183	-0.133665
H200	H	1.570071	0.049817	0.366335
H201	H	1.064873	-0.448721	-0.033102
H202	H	1.564873	0.051279	0.466898
H203	H	0.847523	0.255311	0.621636
H204	H	1.347523	0.755311	1.121636
C205	C	0.609216	-0.069438	0.000106
C206	C	1.109216	0.430562	0.500106
C207	C	0.547844	-0.007607	0.000103
C208	C	1.047844	0.492393	0.500103
H209	H	0.587811	-0.123162	0.000112
H210	H	1.087811	0.376838	0.500112
H211	H	0.643119	-0.065941	-0.050199
H212	H	1.143119	0.434059	0.449801
H213	H	0.638332	-0.061151	0.050416
H214	H	1.138332	0.438849	0.550416
H215	H	0.518731	-0.015891	-0.050210
H216	H	1.018731	0.484109	0.449790
H217	H	0.513927	-0.011107	0.050413
H218	H	1.013927	0.488893	0.550413
C219	C	0.770658	0.003050	-0.074070
C220	C	1.270658	0.503050	0.425930
C221	C	0.719531	0.007154	0.000089
C222	C	1.219531	0.507154	0.500089
H223	H	0.804758	-0.045900	-0.074065
H224	H	1.304758	0.454100	0.425935
H225	H	0.740758	0.001053	-0.124367
H226	H	1.240758	0.501053	0.375633
H227	H	0.801142	0.051210	-0.074064
H228	H	1.301142	0.551210	0.425936
H229	H	0.689043	-0.041004	0.000080
H230	H	1.189043	0.458996	0.500080
H231	H	0.749434	0.009143	0.050398
H232	H	1.249434	0.509143	0.550398
H233	H	0.930041	-0.388100	0.144129
H234	H	1.430041	0.111900	0.644129
H235	H	1.037086	-0.262444	-0.087560
H236	H	1.537086	0.237556	0.412440
H237	H	0.807694	-0.389254	-0.059312
H238	H	1.307694	0.110746	0.440688
H239	H	1.033175	0.069641	0.786372
H240	H	1.533175	0.569641	1.286372
H241	H	0.933677	-0.244555	0.143784
H242	H	1.433677	0.255445	0.643784
H243	H	0.819302	0.283495	0.213837
H244	H	1.319302	0.783495	0.713837
H245	H	1.026582	-0.398522	0.086293
H246	H	1.526582	0.101478	0.586293
C247	C	0.395010	0.039014	-0.074046
C248	C	0.895010	0.539014	0.425954
C249	C	0.343885	0.043120	0.000114
C250	C	0.843885	0.543120	0.500114
H251	H	0.429102	-0.009942	-0.074046
H252	H	0.929102	0.490058	0.425954
H253	H	0.365108	0.037027	-0.124342
H254	H	0.865108	0.537027	0.375658
H255	H	0.425502	0.087168	-0.074037
H256	H	0.925502	0.587168	0.425963
H257	H	0.313388	-0.005031	0.000102
H258	H	0.813388	0.494969	0.500102
H259	H	0.373790	0.045099	0.050423
H260	H	0.873790	0.545099	0.550423
C261	C	0.773381	-0.305544	-0.128107
C262	C	1.273381	0.194456	0.371893
C263	C	0.799595	-0.237228	-0.079623
C264	C	1.299595	0.262772	0.420377
H265	H	0.748012	-0.286046	-0.177316
H266	H	1.248012	0.213954	0.322684
H267	H	0.817174	-0.342426	-0.146641
H268	H	1.317174	0.157574	0.353359
H269	H	0.737167	-0.334482	-0.093245
H270	H	1.237167	0.165518	0.406755
H271	H	0.835813	-0.208293	-0.114482
H272	H	1.335813	0.291707	0.385518
H273	H	0.755796	-0.200332	-0.061089
H274	H	1.255796	0.299668	0.438911
H275	H	1.029701	-0.255341	0.085550
H276	H	1.529701	0.244659	0.585550
H277	H	1.012786	0.089976	0.213838
H278	H	1.512786	0.589976	0.713838
H279	H	1.004948	0.097821	0.378573
H280	H	1.504948	0.597821	0.878573
H281	H	0.839698	0.263168	0.786370
H282	H	1.339698	0.763168	1.286370
C283	C	0.802687	0.300163	0.480806
C284	C	1.302687	0.800163	0.980806
C285	C	0.795668	0.307164	0.391515
C286	C	1.295668	0.807164	0.891515
H287	H	0.765044	0.337833	0.511614
H288	H	1.265044	0.837833	1.011614
H289	H	0.793464	0.244423	0.495694
H290	H	1.293464	0.744423	0.995694
H291	H	0.854311	0.313501	0.495668
H292	H	1.354311	0.813501	0.995668
H293	H	0.744046	0.293821	0.376652
H294	H	1.244046	0.793821	0.876652
H295	H	0.804885	0.362917	0.376621
H296	H	1.304885	0.862917	0.876621
