data_functionalizedCrystal
_audit_creation_method	'MofGen! by Chris Wilmer'
_symmetry_space_group_name_H-M	'P1'
_symmetry_Int_Tables_number	1
_symmetry_cell_setting	triclinic
loop_
_symmetry_equiv_pos_as_xyz
  x,y,z
_cell_length_a	11.169416
_cell_length_b	12.759401
_cell_length_c	11.169409
_cell_angle_alpha	90.019981
_cell_angle_beta	90.031365
_cell_angle_gamma	90.010310
loop_
_atom_site_label
_atom_site_type_symbol
_atom_site_fract_x
_atom_site_fract_y
_atom_site_fract_z
Zn1	Zn	-0.477705	1.606304	0.678556
Zn2	Zn	-0.678445	1.606208	0.477876
Zn3	Zn	-0.477775	1.430601	0.477890
Zn4	Zn	-0.678345	1.430609	0.678521
O5	O	-0.578068	1.518430	0.578211
O6	O	-0.504346	1.753312	0.651944
O7	O	-0.651898	1.582870	0.309928
O8	O	-0.309816	1.453946	0.504529
O9	O	-0.651829	1.753242	0.504506
O10	O	-0.309764	1.583034	0.651958
O11	O	-0.504466	1.453853	0.309938
O12	O	-0.504369	1.283581	0.504495
O13	O	-0.651658	1.453958	0.846475
O14	O	-0.651727	1.283587	0.651897
O15	O	-0.504249	1.583041	0.846501
O16	O	-0.846382	1.582877	0.504472
O17	O	-0.846308	1.453865	0.651884
C18	C	-0.578046	1.245463	0.578194
C19	C	-0.578065	1.128686	0.578216
C20	C	-0.654917	1.073855	0.654841
C21	C	-0.654932	0.964131	0.654854
C22	C	-0.501240	0.964080	0.501606
C23	C	-0.501220	1.073802	0.501600
C24	C	-0.731762	1.128739	0.731457
C25	C	-0.808622	1.073907	0.808088
C26	C	-0.808637	0.964183	0.808101
C27	C	-0.731793	0.909291	0.731483
C28	C	-0.889892	1.518390	0.578199
C29	C	-1.023292	1.518468	0.578234
C30	C	-0.265025	1.518500	0.578249
C31	C	-0.131625	1.518530	0.578265
C32	C	-0.577934	1.518511	0.891253
C33	C	-0.577878	1.518545	1.024653
C34	C	-0.578091	1.792464	0.578228
C35	C	-0.578101	1.909240	0.578235
C36	C	-0.578114	1.518411	0.266386
C37	C	-0.577833	1.518580	0.132986
H38	H	-0.438678	0.919378	0.439226
H39	H	-0.871177	1.118608	0.870475
C40	C	-0.815418	1.285947	0.814876
C41	C	-0.731744	1.249349	0.731448
H42	H	-0.815400	1.360405	0.814871
H43	H	-0.892834	1.261117	0.793982
H44	H	-0.794753	1.261150	0.892361
H45	H	-0.752415	1.274139	0.653961
H46	H	-0.654311	1.274189	0.752335
C47	C	-0.867349	0.930484	1.011234
C48	C	-0.893114	0.903912	0.892335
H49	H	-0.919513	0.893280	1.063233
H50	H	-0.786745	0.912505	1.028933
H51	H	-0.878337	1.003688	1.022174
H52	H	-0.882119	0.830709	0.881392
H53	H	-0.973738	0.921884	0.874630
C54	C	-0.815430	0.752140	0.814998
C55	C	-0.731767	0.788680	0.731539
H56	H	-0.815408	0.677681	0.815035
H57	H	-0.794766	0.777026	0.892456
H58	H	-0.892860	0.776919	0.794089
H59	H	-0.654335	0.763907	0.752453
H60	H	-0.752424	0.763783	0.654065
C61	C	-0.349330	1.062739	0.350094
C62	C	-0.416759	1.134081	0.417357
H63	H	-0.297194	1.099956	0.298080
H64	H	-0.303480	1.019970	0.402459
H65	H	-0.401591	1.019920	0.304109
H66	H	-0.364498	1.176896	0.463348
H67	H	-0.462613	1.176869	0.364985
