data_functionalizedCrystal
_audit_creation_method	'MofGen! by Chris Wilmer'
_symmetry_space_group_name_H-M	'P1'
_symmetry_Int_Tables_number	1
_symmetry_cell_setting	triclinic
loop_
_symmetry_equiv_pos_as_xyz
  x,y,z
_cell_length_a	10.654550
_cell_length_b	10.654550
_cell_length_c	9.130313
_cell_angle_alpha	89.997153
_cell_angle_beta	90.000488
_cell_angle_gamma	95.515069
loop_
_atom_site_label
_atom_site_type_symbol
_atom_site_fract_x
_atom_site_fract_y
_atom_site_fract_z
O1	O	1.667840	-0.176396	0.121690
O2	O	2.167840	0.323604	0.621690
O3	O	1.302362	-0.193202	0.121716
O4	O	1.802362	0.306798	0.621716
O5	O	1.493504	-0.002060	0.121693
O6	O	1.993504	0.497940	0.621693
O7	O	1.476698	-0.367538	0.121713
O8	O	1.976698	0.132462	0.621713
O9	O	1.493489	-0.002060	-0.121906
O10	O	1.993489	0.497940	0.378094
O11	O	1.302347	-0.193202	-0.121882
O12	O	1.802347	0.306798	0.378118
O13	O	1.667826	-0.176396	-0.121909
O14	O	2.167826	0.323604	0.378091
Cu15	Cu	1.485085	-0.184799	-0.144138
Cu16	Cu	1.985085	0.315201	0.355862
Cu17	Cu	1.485102	-0.184799	0.143946
Cu18	Cu	1.985102	0.315201	0.643946
O19	O	1.476683	-0.367538	-0.121886
O20	O	1.976683	0.132462	0.378114
C21	C	1.255556	-0.191968	-0.000080
C22	C	1.755556	0.308032	0.499920
C23	C	1.116113	-0.188276	-0.000070
C24	C	1.616113	0.311724	0.499930
C25	C	1.492263	0.044738	-0.000105
C26	C	1.992263	0.544738	0.499895
C27	C	1.488571	0.184181	-0.000103
C28	C	1.988571	0.684181	0.499897
N29	N	1.485082	-0.184798	-0.346761
N30	N	1.985082	0.315202	0.153239
C31	C	1.036628	-0.300818	-0.000068
C32	C	1.536628	0.199182	0.499932
C33	C	0.905607	-0.297341	-0.000093
C34	C	1.405607	0.202659	0.499907
C35	C	0.933570	-0.068772	-0.000117
C36	C	1.433570	0.431228	0.499883
C37	C	1.064588	-0.072250	-0.000101
C38	C	1.564588	0.427750	0.499899
C39	C	1.714631	-0.177630	-0.000110
C40	C	2.214631	0.322370	0.499890
C41	C	1.854074	-0.181322	-0.000110
C42	C	2.354074	0.318678	0.499890
C43	C	1.477925	-0.414336	-0.000084
C44	C	1.977925	0.085664	0.499916
C45	C	1.481616	-0.553779	-0.000077
C46	C	1.981616	-0.053779	0.499923
C47	C	1.601112	0.263667	-0.000111
C48	C	2.101112	0.763667	0.499889
C49	C	1.597636	0.394688	-0.000092
C50	C	2.097636	0.894688	0.499908
C51	C	1.369066	0.366725	-0.000065
C52	C	1.869066	0.866725	0.499935
C53	C	1.372544	0.235706	-0.000073
C54	C	1.872544	0.735706	0.499927
C55	C	1.561913	-0.261680	-0.423409
C56	C	2.061913	0.238320	0.076591
C57	C	1.561934	-0.261673	-0.576746
C58	C	2.061934	0.238327	-0.076746
C59	C	1.408281	-0.107899	-0.576773
C60	C	1.908281	0.392101	-0.076773
C61	C	1.408268	-0.107900	-0.423439
C62	C	1.908268	0.392100	0.076561
N63	N	1.485115	-0.184790	0.346568
N64	N	1.985115	0.315210	0.846568
H65	H	1.078574	-0.395294	-0.000053
H66	H	1.578574	0.104706	0.499947
Cl67	Cl	1.311669	-0.011243	-0.327074
Cl68	Cl	1.811669	0.488757	0.172926
H69	H	0.840894	-0.388984	-0.000095
H70	H	1.340894	0.111016	0.499905
Cl71	Cl	1.658490	-0.358341	-0.327019
Cl72	Cl	2.158490	0.141659	0.172981
H73	H	1.280893	0.170985	-0.000062
H74	H	1.780893	0.670985	0.499938
Cl75	Cl	0.868786	0.077082	-0.000147
Cl76	Cl	1.368786	0.577082	0.499853
Cl77	Cl	1.658528	-0.358328	-0.673097
Cl78	Cl	2.158528	0.141672	-0.173097
Cl79	Cl	1.311710	-0.011243	-0.673179
Cl80	Cl	1.811710	0.488757	-0.173179
H81	H	1.129309	0.019401	-0.000107
H82	H	1.629309	0.519401	0.499893
Cl83	Cl	1.746974	0.198897	-0.000145
Cl84	Cl	2.246974	0.698897	0.499855
H85	H	1.274601	0.408693	-0.000043
H86	H	1.774601	0.908693	0.499957
Cl87	Cl	1.739124	0.494608	-0.000099
Cl88	Cl	2.239124	0.994608	0.499901
