data_functionalizedCrystal
_audit_creation_method	'MofGen! by Chris Wilmer'
_symmetry_space_group_name_H-M	'P1'
_symmetry_Int_Tables_number	1
_symmetry_cell_setting	triclinic
loop_
_symmetry_equiv_pos_as_xyz
  x,y,z
_cell_length_a	18.878441
_cell_length_b	14.560438
_cell_length_c	14.560438
_cell_angle_alpha	90.001144
_cell_angle_beta	59.998890
_cell_angle_gamma	60.002360
loop_
_atom_site_label
_atom_site_type_symbol
_atom_site_fract_x
_atom_site_fract_y
_atom_site_fract_z
Zr1	Zr	0.775338	-0.120491	0.884751
O2	O	0.923114	-0.267135	0.738100
O3	O	0.627561	-0.075540	0.929709
O4	O	0.775335	-0.267137	0.929706
O5	O	0.775341	0.075600	0.738104
O6	O	0.775334	-0.267135	1.080846
O7	O	0.775339	-0.075538	0.738103
O8	O	0.510992	0.075596	1.080852
O9	O	1.039683	-0.267131	0.738098
O10	O	0.688343	-0.056364	1.061676
O11	O	0.688345	0.056427	0.948882
O12	O	0.862331	-0.169153	0.948878
O13	O	0.862333	-0.056361	0.836084
Zr14	Zr	0.775339	0.120560	1.125804
Zr15	Zr	0.775336	-0.120488	1.125802
Zr16	Zr	0.775341	0.120557	0.884752
Zr17	Zr	0.961252	-0.120486	0.884748
Zr18	Zr	0.589424	0.120554	1.125807
O19	O	0.923116	0.075609	1.080845
O20	O	0.923112	-0.267131	1.080844
O21	O	0.923119	0.075605	0.738102
O22	O	0.627563	0.267203	1.272455
O23	O	0.627558	-0.075536	1.272453
O24	O	0.627565	0.267199	0.929711
O25	O	0.775335	-0.075532	1.272451
O26	O	0.775341	0.267205	1.080849
O27	O	0.775342	0.267204	0.929709
O28	O	0.775337	0.075606	1.272451
O29	O	1.039682	-0.267129	0.929701
O30	O	0.510995	0.267197	1.080853
O31	O	0.510993	0.267199	1.272457
O32	O	0.510991	0.075598	1.272456
O33	O	1.039686	-0.075530	0.738099
O34	O	1.039684	-0.075528	0.929702
O35	O	0.688346	0.169221	1.061677
O36	O	0.688343	0.056430	1.174470
O37	O	0.862332	-0.056359	1.061673
O38	O	0.862334	0.056433	0.948879
C39	C	0.542788	0.000027	1.005281
C40	C	0.463862	0.000025	1.005282
C41	C	0.775341	0.000031	0.703759
C42	C	0.775341	0.000030	0.601426
C43	C	0.775342	0.301549	1.005279
C44	C	0.775344	0.403880	1.005279
C45	C	0.426781	-0.058852	1.064157
C46	C	0.352617	-0.058844	1.064161
C47	C	0.315540	0.000036	1.005283
C48	C	0.352623	0.058921	0.946407
C49	C	0.426781	0.058918	0.946410
C50	C	0.198057	0.058920	0.946403
C51	C	0.123895	0.058921	0.946397
C52	C	0.123893	-0.058842	1.064154
C53	C	0.198051	-0.058845	1.064157
C54	C	0.235130	0.000038	1.005278
C55	C	1.007889	0.000041	1.005273
C56	C	1.086815	0.000044	1.005272
C57	C	0.775334	-0.301480	1.005276
C58	C	0.775333	-0.403811	1.005275
C59	C	0.866162	0.393084	0.946402
C60	C	0.866157	0.489239	0.946396
C61	C	0.684508	0.606983	1.064155
C62	C	0.684514	0.510829	1.064153
C63	C	0.775342	-0.083235	0.553350
C64	C	0.775336	-0.083229	0.457202
C65	C	0.775331	0.083312	0.457214
C66	C	0.775331	0.083310	0.553364
C67	C	0.775336	0.000038	1.306796
C68	C	0.775335	0.000039	1.409128
C69	C	0.542785	0.000031	1.306799
C70	C	0.463859	0.000029	1.409133
C71	C	0.542791	0.301542	1.005283
C72	C	0.463867	0.403871	1.005284
C73	C	0.542789	0.301545	1.306801
C74	C	0.463864	0.403875	1.409135
C75	C	1.007887	-0.301477	0.703754
C76	C	1.086812	-0.403807	0.601419
C77	C	1.007891	0.000038	0.703755
C78	C	1.086818	0.000039	0.601421
C79	C	1.007885	-0.301473	1.005272
C80	C	1.086809	-0.403802	1.005270
C81	C	0.426794	-0.058859	1.398313
C82	C	0.352645	-0.058882	1.494457
C83	C	0.315556	-0.000011	1.601421
C84	C	0.352629	0.058879	1.612239
C85	C	0.426782	0.058895	1.516096
C86	C	0.426804	0.510813	1.064163
C87	C	0.352657	0.606971	1.064161
C88	C	0.315569	0.596184	1.005285
C89	C	0.352639	0.489231	0.946399
C90	C	0.426790	0.393075	0.946396
C91	C	0.426799	0.393054	1.516080
C92	C	0.352651	0.489195	1.612243
C93	C	0.315564	0.596155	1.601459
C94	C	0.352637	0.606974	1.494504
C95	C	0.426789	0.510834	1.398343
C96	C	1.123887	-0.392986	0.494475
C97	C	1.198058	-0.489126	0.398311
C98	C	1.235148	-0.596087	0.409095
C99	C	1.198071	-0.606905	0.516051
C100	C	1.123906	-0.510766	0.612212
C101	C	1.123890	0.058917	0.612242
C102	C	1.198060	0.058914	0.516098
C103	C	1.235151	0.000039	0.409134
C104	C	1.198075	-0.058846	0.398315
C105	C	1.123912	-0.058849	0.494458
C106	C	1.123874	-0.392980	1.064157
C107	C	1.198022	-0.489119	1.064177
C108	C	1.235109	-0.596080	1.005303
C109	C	1.198037	-0.606901	0.946415
C110	C	1.123886	-0.510762	0.946402
H111	H	0.322426	-0.106785	1.112102
N112	N	1.315142	0.000048	0.305441
H113	H	1.332991	0.046287	0.328537
H114	H	1.289279	0.033532	0.259204
H115	H	0.775335	-0.151030	0.418062
H116	H	0.775349	-0.151046	0.592481
N117	N	0.235571	0.699850	1.705175
H118	H	0.261367	0.746140	1.705237
H119	H	0.217744	0.676671	1.774504
N120	N	0.235582	0.699907	1.005313
H121	H	0.174040	0.699959	1.038829
H122	H	0.261465	0.699910	0.925552
N123	N	0.775314	0.173136	0.405379
H124	H	0.775315	0.160504	0.337172
H125	H	0.837075	0.169466	0.382146
N126	N	0.466741	0.522527	1.283003
H127	H	0.453822	0.485271	1.240493
H128	H	0.541171	0.485285	1.240550
N129	N	1.083907	-0.522435	0.727562
H130	H	1.140483	-0.564908	0.736574
H131	H	1.053137	-0.564887	0.736474
N132	N	1.083895	0.122422	0.727602
H133	H	1.118648	0.159710	0.719851
H134	H	1.096799	0.068357	0.770058
H135	H	0.456984	0.305970	1.524882
H136	H	0.456993	0.519617	1.112107
N137	N	0.775309	0.173134	0.605240
H138	H	0.775305	0.225890	0.560203
H139	H	0.837068	0.136734	0.605102
N140	N	0.312674	-0.122403	1.482763
H141	H	0.281905	-0.091507	1.440293
H142	H	0.260113	-0.113478	1.559928
H143	H	0.456990	-0.106813	1.311226
N144	N	1.238073	-0.122327	0.282944
H145	H	1.181491	-0.091432	0.273940
H146	H	1.268857	-0.204683	0.273983
N147	N	0.238053	-0.122360	1.127647
H148	H	0.203311	-0.159661	1.164947
H149	H	0.225149	-0.068301	1.186840
H150	H	0.322430	0.694074	1.485740
N151	N	0.083896	-0.122345	1.127662
H152	H	0.053133	-0.091470	1.210030
H153	H	0.140518	-0.204697	1.096681
H154	H	1.228280	-0.694004	0.524818
N155	N	0.235579	-0.000035	1.705114
H156	H	0.217730	-0.046276	1.682018
H157	H	0.174090	0.079732	1.751355
N158	N	1.083905	-0.277635	0.482813
H159	H	1.096805	-0.235116	0.520089
H160	H	1.009477	-0.235207	0.520054
N161	N	0.964110	0.477598	0.882905
H162	H	0.968166	0.514857	0.823649
H163	H	1.021590	0.395235	0.845685
H164	H	0.322482	0.694047	1.112116
N165	N	1.238012	-0.477442	1.127678
H166	H	1.225098	-0.514691	1.186944
H167	H	1.203255	-0.395074	1.164888
N168	N	0.312673	0.477512	1.727593
H169	H	0.347415	0.395163	1.719823
H170	H	0.238229	0.514841	1.770059
N171	N	0.312628	0.477605	0.882908
H172	H	0.260025	0.554753	0.891859
H173	H	0.281903	0.435100	0.913836
N174	N	1.238038	0.122430	0.527780
H175	H	1.203276	0.159733	0.610132
H176	H	1.225140	0.181619	0.490450
N177	N	1.083929	-0.122356	0.482779
H178	H	1.118684	-0.159647	0.400427
H179	H	1.009488	-0.068298	0.520097
N180	N	0.312623	0.122372	1.727610
H181	H	0.260021	0.113423	1.786865
H182	H	0.281900	0.204713	1.736527
H183	H	0.610557	0.694070	1.112089
H184	H	1.093689	-0.305895	1.112099
N185	N	0.466752	0.122418	1.527775
H186	H	0.431998	0.159709	1.610127
H187	H	0.453837	0.181618	1.490459
H188	H	0.456958	0.306002	0.898454
N189	N	0.964130	0.277740	0.882906
H190	H	1.003840	0.268730	0.800538
H191	H	0.950283	0.218525	0.891925
N192	N	0.586555	0.522469	1.127671
H193	H	0.546841	0.564939	1.096796
H194	H	0.546933	0.564910	1.210024
N195	N	1.238037	-0.477453	0.282958
H196	H	1.268787	-0.434960	0.273959
H197	H	1.181407	-0.435022	0.274032
H198	H	0.093710	0.106865	0.898453
N199	N	1.083931	-0.522456	0.882867
H200	H	1.096847	-0.485201	0.823608
H201	H	1.009501	-0.485214	0.936925
N202	N	1.315139	-0.699776	0.305374
H203	H	1.332990	-0.676680	0.235992
H204	H	1.289277	-0.746014	0.305420
H205	H	1.295488	-0.674353	1.005323
H206	H	0.456969	-0.106805	1.112096
N207	N	0.238048	0.122429	0.882895
H208	H	0.312490	0.068428	0.823646
H209	H	0.225073	0.181678	0.936973
N210	N	1.238043	-0.722269	0.882918
H211	H	1.290645	-0.781520	0.891865
H212	H	1.268768	-0.731183	0.800575
H213	H	0.456974	0.106859	0.898465
H214	H	0.322424	0.106868	0.898474
