data_functionalizedCrystal
_audit_creation_method	'MofGen! by Chris Wilmer'
_symmetry_space_group_name_H-M	'P1'
_symmetry_Int_Tables_number	1
_symmetry_cell_setting	triclinic
loop_
_symmetry_equiv_pos_as_xyz
  x,y,z
_cell_length_a	16.959455
_cell_length_b	18.050590
_cell_length_c	16.959447
_cell_angle_alpha	89.968143
_cell_angle_beta	89.983056
_cell_angle_gamma	90.015500
loop_
_atom_site_label
_atom_site_type_symbol
_atom_site_fract_x
_atom_site_fract_y
_atom_site_fract_z
Zn1	Zn	1.208413	-0.295705	-0.446901
Zn2	Zn	1.708413	0.204295	0.053099
Zn3	Zn	1.208333	-0.419906	-0.314719
Zn4	Zn	1.708333	0.080094	0.185281
Zn5	Zn	1.076235	-0.295728	-0.314738
Zn6	Zn	1.576235	0.204272	0.185262
Zn7	Zn	1.076209	-0.419851	-0.446857
Zn8	Zn	1.576209	0.080149	0.053143
O9	O	1.142297	-0.357797	-0.380804
O10	O	1.642297	0.142203	0.119196
O11	O	1.319013	-0.312194	-0.429376
O12	O	1.819013	0.187806	0.070624
O13	O	1.190787	-0.403467	-0.204110
O14	O	1.690787	0.096533	0.295890
O15	O	1.093813	-0.191800	-0.332296
O16	O	1.593813	0.308200	0.167704
O17	O	1.318954	-0.403444	-0.332263
O18	O	1.818954	0.096556	0.167737
O19	O	1.190923	-0.191783	-0.429395
O20	O	1.690923	0.308217	0.070605
O21	O	1.093735	-0.312234	-0.204125
O22	O	1.593735	0.187766	0.295875
O23	O	0.965621	-0.312180	-0.332254
O24	O	1.465621	0.187820	0.167746
O25	O	1.093769	-0.403349	-0.557474
O26	O	1.593769	0.096651	-0.057474
O27	O	0.965602	-0.403372	-0.429321
O28	O	1.465602	0.096628	0.070679
O29	O	1.190898	-0.312140	-0.557506
O30	O	1.690898	0.187860	-0.057506
O31	O	1.190762	-0.523824	-0.332221
O32	O	1.690762	-0.023824	0.167779
O33	O	1.093691	-0.523783	-0.429303
O34	O	1.593691	-0.023783	0.070697
C35	C	0.936931	-0.357773	-0.380786
C36	C	1.436931	0.142227	0.119214
C37	C	0.849074	-0.357780	-0.380797
C38	C	1.349074	0.142220	0.119203
C39	C	0.477584	-0.310275	-0.330366
C40	C	0.977584	0.189725	0.169634
C41	C	0.477613	-0.405381	-0.431286
C42	C	0.977613	0.094619	0.068714
C43	C	0.560159	-0.405371	-0.431282
C44	C	1.060159	0.094629	0.068718
C45	C	0.601422	-0.357812	-0.380818
C46	C	1.101422	0.142188	0.119182
C47	C	0.560138	-0.310264	-0.330358
C48	C	1.060138	0.189736	0.169642
C49	C	0.601449	-0.452923	-0.481734
C50	C	1.101449	0.047077	0.018266
C51	C	0.684000	-0.452915	-0.481731
C52	C	1.184000	0.047085	0.018269
C53	C	0.725264	-0.405352	-0.431270
C54	C	1.225264	0.094648	0.068730
C55	C	0.683975	-0.357802	-0.380809
C56	C	1.183975	0.142198	0.119191
C57	C	0.725237	-0.310243	-0.330345
C58	C	1.225237	0.189757	0.169655
C59	C	0.683950	-0.262688	-0.279888
C60	C	1.183950	0.237312	0.220112
C61	C	0.601402	-0.262701	-0.279898
C62	C	1.101402	0.237299	0.220102
C63	C	0.807812	-0.405339	-0.431261
C64	C	1.307812	0.094661	0.068739
C65	C	0.807791	-0.310232	-0.330337
C66	C	1.307791	0.189768	0.169663
C67	C	1.142237	-0.550750	-0.380772
C68	C	1.642237	-0.050750	0.119228
C69	C	1.142283	-0.633295	-0.380785
C70	C	1.642283	-0.133295	0.119215
C71	C	1.195180	-0.832741	-0.328066
C72	C	1.695180	-0.332741	0.171934
C73	C	1.214486	-0.882071	-0.400207
C74	C	1.714486	-0.382071	0.099793
C75	C	1.142328	-0.784426	-0.380817
C76	C	1.642328	-0.284426	0.119183
C77	C	1.123102	-0.882178	-0.308709
C78	C	1.623102	-0.382178	0.191291
C79	C	1.142373	-0.930411	-0.380841
C80	C	1.642373	-0.430411	0.119159
C81	C	1.161671	-0.832668	-0.452995
C82	C	1.661671	-0.332668	0.047005
C83	C	1.070254	-0.832771	-0.361449
C84	C	1.570254	-0.332771	0.138551
C85	C	1.089532	-0.882078	-0.433639
C86	C	1.589532	-0.382078	0.066361
C87	C	1.142304	-0.700327	-0.380802
C88	C	1.642304	-0.200327	0.119198
C89	C	1.142396	-1.014507	-0.380864
C90	C	1.642396	-0.514507	0.119136
C91	C	1.348465	-0.357823	-0.380822
C92	C	1.848465	0.142177	0.119178
C93	C	1.436322	-0.357833	-0.380830
C94	C	1.936322	0.142167	0.119170
C95	C	1.142340	-0.357736	-0.586972
C96	C	1.642340	0.142264	-0.086972
C97	C	1.142358	-0.357709	-0.674829
C98	C	1.642358	0.142291	-0.174829
C99	C	1.142380	-0.164092	-0.380853
C100	C	1.642380	0.335908	0.119147
C101	C	1.142415	-0.081546	-0.380874
C102	C	1.642415	0.418454	0.119126
C103	C	1.091897	-0.310130	-1.046318
C104	C	1.591897	0.189870	-0.546318
C105	C	1.192957	-0.405132	-1.046291
C106	C	1.692957	0.094868	-0.546291
C107	C	1.192944	-0.405150	-0.963745
C108	C	1.692944	0.094850	-0.463745
C109	C	1.142405	-0.357657	-0.922482
C110	C	1.642405	0.142343	-0.422482
C111	C	1.091880	-0.310148	-0.963765
C112	C	1.591880	0.189852	-0.463765
C113	C	1.243462	-0.452664	-0.922456
C114	C	1.743462	0.047336	-0.422456
C115	C	1.243450	-0.452683	-0.839905
C116	C	1.743450	0.047317	-0.339905
C117	C	1.192915	-0.405187	-0.798640
C118	C	1.692915	0.094813	-0.298640
C119	C	1.142388	-0.357675	-0.839928
C120	C	1.642388	0.142325	-0.339928
C121	C	1.091850	-0.310182	-0.798665
C122	C	1.591850	0.189818	-0.298665
C123	C	1.041327	-0.262666	-0.839952
C124	C	1.541327	0.237334	-0.339952
C125	C	1.041345	-0.262651	-0.922500
C126	C	1.541345	0.237349	-0.422500
C127	C	1.192896	-0.405202	-0.716092
C128	C	1.692896	0.094798	-0.216092
C129	C	1.091833	-0.310200	-0.716112
C130	C	1.591833	0.189800	-0.216112
C131	C	1.142301	-0.357805	-0.175438
C132	C	1.642301	0.142195	0.324562
C133	C	1.142436	-0.357623	-0.087581
C134	C	1.642436	0.142377	0.412419
H135	H	0.717609	-0.491636	-0.522817
H136	H	1.217609	0.008364	-0.022817
C137	C	0.351036	-0.268052	-0.285565
C138	C	0.851036	0.231948	0.214435
C139	C	0.432206	-0.258005	-0.274904
C140	C	0.932206	0.241995	0.225096
H141	H	0.323023	-0.235785	-0.251321
H142	H	0.823023	0.264215	0.248679
H143	H	0.337536	-0.257244	-0.338689
H144	H	0.837536	0.242756	0.161311
H145	H	0.337500	-0.317939	-0.273901
H146	H	0.837500	0.182061	0.226099
H147	H	0.445743	-0.208118	-0.286574
H148	H	0.945743	0.291882	0.213426
H149	H	0.445712	-0.268807	-0.221768
H150	H	0.945712	0.231193	0.278232
H151	H	1.284588	-0.491375	-0.806297
H152	H	1.784588	0.008625	-0.306297
C153	C	0.932469	-0.829503	-0.393769
C154	C	1.432469	-0.329503	0.106231
C155	C	0.987969	-0.803508	-0.339286
C156	C	1.487969	-0.303508	0.160714
H157	H	0.881670	-0.811440	-0.380075
H158	H	1.381670	-0.311440	0.119925
H159	H	0.946075	-0.812576	-0.445037
H160	H	1.446075	-0.312576	0.054963
H161	H	0.932016	-0.882125	-0.393133
H162	H	1.432016	-0.382125	0.106867
H163	H	0.988427	-0.750886	-0.339926
H164	H	1.488427	-0.250886	0.160074
H165	H	0.974359	-0.820431	-0.288004
H166	H	1.474359	-0.320431	0.211996
C167	C	0.900582	-0.299780	-0.224023
C168	C	1.400582	0.200220	0.275977
C169	C	0.853147	-0.257955	-0.274865
C170	C	1.353147	0.242045	0.225135
H171	H	0.928586	-0.267505	-0.189781
H172	H	1.428586	0.232495	0.310219
H173	H	0.868359	-0.332096	-0.193731
H174	H	1.368359	0.167904	0.306269
H175	H	0.936982	-0.328095	-0.254078
H176	H	1.436982	0.171905	0.245922
H177	H	0.816743	-0.229644	-0.244810
H178	H	1.316743	0.270356	0.255190
H179	H	0.885373	-0.225626	-0.305160
H180	H	1.385373	0.274374	0.194840
H181	H	0.717556	-0.223969	-0.238797
H182	H	1.217556	0.276031	0.261203
H183	H	1.177890	-0.811013	-0.514039
H184	H	1.677890	-0.311013	-0.014039
C185	C	1.295753	-0.988871	-0.422849
C186	C	1.795753	-0.488871	0.077151
C187	C	1.296788	-0.911305	-0.422365
C188	C	1.796788	-0.411305	0.077635
H189	H	1.346563	-1.006913	-0.436536
H190	H	1.846563	-0.506913	0.063464
H191	H	1.281739	-1.006554	-0.371981
H192	H	1.781739	-0.506554	0.128019
H193	H	1.258263	-1.005750	-0.460372
H194	H	1.758263	-0.505750	0.039628
H195	H	1.334275	-0.894427	-0.384838
H196	H	1.834275	-0.394427	0.115162
H197	H	1.310812	-0.893616	-0.473241
H198	H	1.810812	-0.393616	0.026759
C199	C	1.156524	-0.886622	-0.171227
C200	C	1.656524	-0.386622	0.328773
C201	C	1.101117	-0.911532	-0.226375
C202	C	1.601117	-0.411532	0.273625
H203	H	1.142952	-0.904740	-0.120397
H204	H	1.642952	-0.404740	0.379603
H205	H	1.207370	-0.904231	-0.185356
H206	H	1.707370	-0.404231	0.314644
H207	H	1.156816	-0.834001	-0.170520
H208	H	1.656816	-0.334001	0.329480
H209	H	1.100829	-0.964154	-0.227086
H210	H	1.600829	-0.464154	0.272914
H211	H	1.050257	-0.893927	-0.212242
H212	H	1.550257	-0.393927	0.287758
C213	C	1.330994	-0.828374	-0.288399
C214	C	1.830994	-0.328374	0.211601
C215	C	1.255532	-0.803487	-0.267908
C216	C	1.755532	-0.303487	0.232092
H217	H	1.368252	-0.810308	-0.251264
H218	H	1.868252	-0.310308	0.248736
H219	H	1.331754	-0.880989	-0.288324
H220	H	1.831754	-0.380989	0.211676
H221	H	1.344156	-0.810691	-0.339502
H222	H	1.844156	-0.310691	0.160498
H223	H	1.242366	-0.821175	-0.216806
H224	H	1.742366	-0.321175	0.283194
H225	H	1.254769	-0.750861	-0.267974
H226	H	1.754769	-0.250861	0.232026
H227	H	0.567778	-0.223986	-0.238817
H228	H	1.067778	0.276014	0.261183
H229	H	1.050765	-0.271441	-1.079937
H230	H	1.550765	0.228559	-0.579937
H231	H	0.444013	-0.444106	-0.472367
H232	H	0.944013	0.055894	0.027633
C233	C	1.237738	-0.447414	-0.589539
C234	C	1.737738	0.052586	-0.089539
C235	C	1.248423	-0.457428	-0.670709
C236	C	1.748423	0.042572	-0.170709
H237	H	1.272017	-0.479662	-0.561524
H238	H	1.772017	0.020338	-0.061524
H239	H	1.249332	-0.397527	-0.576036
H240	H	1.749332	0.102473	-0.076036
H241	H	1.184619	-0.458276	-0.576009
H242	H	1.684619	0.041724	-0.076009
H243	H	1.301541	-0.446561	-0.684240
H244	H	1.801541	0.053439	-0.184240
H245	H	1.236835	-0.507326	-0.684218
H246	H	1.736835	-0.007326	-0.184218
H247	H	1.050681	-0.271522	-0.682521
H248	H	1.550681	0.228478	-0.182521
H249	H	0.567847	-0.491648	-0.522814
H250	H	1.067847	0.008352	-0.022814
H251	H	1.234098	-0.443804	-1.079892
H252	H	1.734098	0.056196	-0.579892
C253	C	0.941446	-0.168743	-0.914235
C254	C	1.441446	0.331257	-0.414235
C255	C	0.985808	-0.210429	-0.967882
C256	C	1.485808	0.289571	-0.467882
H257	H	0.907163	-0.136503	-0.942256
H258	H	1.407163	0.363497	-0.442256
H259	H	0.911194	-0.201102	-0.882023
H260	H	1.411194	0.298898	-0.382023
H261	H	0.975898	-0.140344	-0.882053
H262	H	1.475898	0.359656	-0.382053
H263	H	0.951357	-0.238832	-1.000061
H264	H	1.451357	0.261168	-0.500061
H265	H	1.016063	-0.178067	-1.000108
H266	H	1.516063	0.321933	-0.500108
H267	H	1.044857	-0.903604	-0.478311
H268	H	1.544857	-0.403604	0.021689
H269	H	1.000175	-0.224001	-0.806344
H270	H	1.500175	0.275999	-0.306344
C271	C	1.288346	-0.494823	-1.048986
C272	C	1.788346	0.005177	-0.548986
C273	C	1.299001	-0.504874	-0.967812
C274	C	1.799001	-0.004874	-0.467812
H275	H	1.322636	-0.527057	-1.076988
H276	H	1.822636	-0.027057	-0.576988
H277	H	1.235238	-0.505672	-1.062497
H278	H	1.735238	-0.005672	-0.562497
H279	H	1.299950	-0.444923	-1.062525
H280	H	1.799950	0.055077	-0.562525
H281	H	1.287391	-0.554773	-0.954272
H282	H	1.787391	-0.054773	-0.454272
H283	H	1.352121	-0.494030	-0.954296
H284	H	1.852121	0.005970	-0.454296
C285	C	0.799545	-0.499351	-0.531013
C286	C	1.299545	0.000649	-0.031013
C287	C	0.853195	-0.457603	-0.486720
C288	C	1.353195	0.042397	0.013280
H289	H	0.827564	-0.531613	-0.565257
H290	H	1.327564	-0.031613	-0.065257
H291	H	0.767336	-0.527721	-0.496521
H292	H	1.267336	-0.027721	0.003479
H293	H	0.767360	-0.467027	-0.561310
H294	H	1.267360	0.032973	-0.061310
H295	H	0.885377	-0.489927	-0.456418
H296	H	1.385377	0.010073	0.043582
H297	H	0.885418	-0.429230	-0.521216
H298	H	1.385418	0.070770	-0.021216
