data_functionalizedCrystal
_audit_creation_method	'MofGen! by Chris Wilmer'
_symmetry_space_group_name_H-M	'P1'
_symmetry_Int_Tables_number	1
_symmetry_cell_setting	triclinic
loop_
_symmetry_equiv_pos_as_xyz
  x,y,z
_cell_length_a	10.540539
_cell_length_b	9.616153
_cell_length_c	10.540539
_cell_angle_alpha	90.000094
_cell_angle_beta	84.525492
_cell_angle_gamma	90.004826
loop_
_atom_site_label
_atom_site_type_symbol
_atom_site_fract_x
_atom_site_fract_y
_atom_site_fract_z
O1	O	1.685892	0.115573	0.178895
O2	O	1.316479	0.115589	0.195751
O3	O	1.509614	0.115579	0.002617
O4	O	1.492758	0.115583	0.372030
O5	O	1.509587	-0.115712	0.002621
O6	O	1.316452	-0.115702	0.195755
O7	O	1.685865	-0.115718	0.178899
Zn8	Zn	1.501155	-0.152433	0.187328
Zn9	Zn	1.501190	0.152304	0.187323
O10	O	1.492731	-0.115708	0.372034
C11	C	1.269163	-0.000054	0.194489
C12	C	1.128215	-0.000048	0.190707
N13	N	1.501140	-0.360407	0.187331
C14	C	0.944788	-0.000589	0.045790
C15	C	1.091406	-0.000054	0.049624
C16	C	1.066557	0.132027	0.258600
C17	C	0.920013	0.132123	0.253785
C18	C	0.919494	-0.130899	0.256660
C19	C	1.066476	-0.132630	0.257959
C20	C	1.397510	-0.580772	0.290298
C21	C	1.397739	-0.419604	0.290684
C22	C	1.633864	-0.418862	0.217464
C23	C	1.633299	-0.580080	0.218193
C24	C	1.473368	-0.580319	0.053892
C25	C	1.470321	-0.419092	0.054757
C26	C	1.733182	-0.000072	0.180161
C27	C	1.874130	-0.000069	0.183943
C28	C	1.508336	-0.000064	-0.044684
C29	C	1.504554	-0.000056	-0.185632
N30	N	1.501215	0.360278	0.187310
C31	C	1.359637	0.000469	-0.369059
C32	C	1.363471	-0.000052	-0.222441
C33	C	1.572435	-0.132138	-0.247288
C34	C	1.567620	-0.132249	-0.393832
C35	C	1.570519	0.130772	-0.394355
C36	C	1.571819	0.132518	-0.247373
C37	C	1.494008	-0.000062	0.419335
C38	C	1.497790	-0.000060	0.560283
H39	H	1.134009	-0.094731	-0.003797
H40	H	0.916192	-0.095307	-0.009944
H41	H	1.088911	0.136942	0.362208
H42	H	1.299122	-0.380085	0.272553
H43	H	1.657654	-0.617668	0.315531
C44	C	1.708184	0.131973	-0.458162
N45	N	1.811867	0.132868	-0.506230
H46	H	1.712918	-0.380514	0.144501
C47	C	1.124097	0.264817	0.194875
N48	N	1.167432	0.364832	0.146869
C49	C	1.345354	-0.635296	0.015174
N50	N	1.248927	-0.676704	-0.013974
H51	H	0.872044	0.138119	0.355250
C52	C	1.290781	-0.128173	-0.166023
N53	N	1.236030	-0.224682	-0.123530
C54	C	0.903976	0.126640	-0.029203
N55	N	0.873231	0.222469	-0.085685
C56	C	1.710786	0.143283	-0.214662
N57	N	1.815463	0.151378	-0.190029
C58	C	1.421375	-0.635481	0.423266
N59	N	1.439354	-0.676689	0.523417
H60	H	1.676042	-0.137054	-0.224933
H61	H	1.415638	-0.381024	0.389668
C62	C	0.876874	-0.266146	0.194971
N63	N	0.844776	-0.368008	0.148492
C64	C	1.284651	-0.126797	-0.409825
N65	N	1.228181	-0.222666	-0.440520
C66	C	1.291302	0.127853	-0.164884
N67	N	1.236935	0.224191	-0.121537
H68	H	1.090701	-0.140603	0.360819
C69	C	1.499802	-0.265620	-0.431927
N70	N	1.448715	-0.366075	-0.460614
H71	H	1.658761	-0.378472	0.313702
H72	H	1.372683	-0.380887	0.031917
C73	C	1.504785	0.264527	-0.192104
N74	N	1.454283	0.363953	-0.150480
H75	H	1.540848	-0.378801	-0.025564
C76	C	1.121750	-0.264631	0.190916
N77	N	1.163380	-0.364053	0.140408
C78	C	0.855688	-0.132107	0.394325
N79	N	0.807622	-0.133008	0.498009
C80	C	1.575509	-0.631827	-0.049667
N81	N	1.652444	-0.670633	-0.127658
H82	H	1.133162	0.094786	-0.004177
H83	H	1.303917	0.095187	-0.397661
H84	H	1.712941	-0.619073	0.146204
H85	H	1.298585	-0.619578	0.272445
C86	C	1.508697	-0.264922	-0.189747
N87	N	1.460681	-0.364932	-0.146409
H88	H	1.669084	-0.138246	-0.441801
H89	H	1.524869	0.230881	-0.425910
C90	C	0.881916	0.265489	0.185978
N91	N	0.853228	0.365941	0.134898
