data_functionalizedCrystal
_audit_creation_method	'MofGen! by Chris Wilmer'
_symmetry_space_group_name_H-M	'P1'
_symmetry_Int_Tables_number	1
_symmetry_cell_setting	triclinic
loop_
_symmetry_equiv_pos_as_xyz
  x,y,z
_cell_length_a	18.050591
_cell_length_b	29.839131
_cell_length_c	29.839125
_cell_angle_alpha	89.988394
_cell_angle_beta	89.980084
_cell_angle_gamma	90.037426
loop_
_atom_site_label
_atom_site_type_symbol
_atom_site_fract_x
_atom_site_fract_y
_atom_site_fract_z
Zn1	Zn	1.135217	-0.178991	-0.254081
Zn2	Zn	1.468550	0.154342	0.079253
Zn3	Zn	1.801884	0.487675	0.412586
Zn4	Zn	1.135101	-0.254095	-0.178950
Zn5	Zn	1.468435	0.079238	0.154383
Zn6	Zn	1.801768	0.412571	0.487716
Zn7	Zn	1.011038	-0.178975	-0.178955
Zn8	Zn	1.344372	0.154358	0.154378
Zn9	Zn	1.677705	0.487692	0.487712
Zn10	Zn	1.010956	-0.254090	-0.254044
Zn11	Zn	1.344289	0.079244	0.079290
Zn12	Zn	1.677622	0.412577	0.412623
O13	O	1.073078	-0.216538	-0.216507
O14	O	1.406411	0.116796	0.116826
O15	O	1.739745	0.450129	0.450159
O16	O	1.239126	-0.188963	-0.244128
O17	O	1.572459	0.144370	0.089205
O18	O	1.905793	0.477704	0.422539
O19	O	1.118630	-0.244126	-0.116084
O20	O	1.451964	0.089207	0.217249
O21	O	1.785297	0.422541	0.550583
O22	O	1.027594	-0.116110	-0.188938
O23	O	1.360927	0.217223	0.144396
O24	O	1.694261	0.550557	0.477729
O25	O	1.239041	-0.244142	-0.188930
O26	O	1.572374	0.089192	0.144403
O27	O	1.905708	0.422525	0.477737
O28	O	1.118827	-0.116122	-0.244132
O29	O	1.452161	0.217211	0.089201
O30	O	1.785494	0.550545	0.422534
O31	O	1.027482	-0.188935	-0.116087
O32	O	1.360815	0.144398	0.217246
O33	O	1.694148	0.477731	0.550579
O34	O	0.907103	-0.188930	-0.188902
O35	O	1.240436	0.144404	0.144431
O36	O	1.573769	0.477737	0.477765
O37	O	1.027453	-0.244132	-0.316916
O38	O	1.360786	0.089201	0.016418
O39	O	1.694120	0.422534	0.349751
O40	O	0.907042	-0.244116	-0.244069
O41	O	1.240375	0.089217	0.089264
O42	O	1.573709	0.422550	0.422597
O43	O	1.118747	-0.188958	-0.316943
O44	O	1.452080	0.144376	0.016391
O45	O	1.785414	0.477709	0.349724
O46	O	1.118550	-0.316962	-0.188894
O47	O	1.451883	0.016372	0.144439
O48	O	1.785217	0.349705	0.477772
O49	O	1.027341	-0.316958	-0.244065
O50	O	1.360674	0.016376	0.089268
O51	O	1.694007	0.349709	0.422602
C52	C	0.880126	-0.216521	-0.216483
C53	C	1.213459	0.116812	0.116851
C54	C	1.546793	0.450146	0.450184
C55	C	0.797580	-0.216525	-0.216483
C56	C	1.130913	0.116809	0.116851
C57	C	1.464247	0.450142	0.450184
C58	C	0.598141	-0.186479	-0.186552
C59	C	0.931474	0.146854	0.146782
C60	C	1.264808	0.480187	0.480115
C61	C	0.548706	-0.227452	-0.175494
C62	C	0.882039	0.105881	0.157840
C63	C	1.215373	0.439214	0.491173
C64	C	0.646450	-0.216538	-0.216503
C65	C	0.979783	0.116795	0.116830
C66	C	1.313116	0.450128	0.450164
C67	C	0.548803	-0.175580	-0.227560
C68	C	0.882136	0.157754	0.105774
C69	C	1.215470	0.491087	0.439107
C70	C	0.500465	-0.216548	-0.216522
C71	C	0.833798	0.116785	0.116812
C72	C	1.167131	0.450119	0.450145
C73	C	0.598102	-0.257533	-0.205424
C74	C	0.931435	0.075801	0.127910
C75	C	1.264769	0.409134	0.461243
C76	C	0.598203	-0.205633	-0.257508
C77	C	0.931537	0.127701	0.075825
C78	C	1.264870	0.461034	0.409158
C79	C	0.548791	-0.246634	-0.246466
C80	C	0.882124	0.086700	0.086867
C81	C	1.215457	0.420033	0.420200
C82	C	0.730548	-0.216532	-0.216491
C83	C	1.063881	0.116801	0.116842
C84	C	1.397215	0.450134	0.450176
C85	C	0.416368	-0.216559	-0.216534
C86	C	0.749701	0.116775	0.116800
C87	C	1.083035	0.450108	0.450133
C88	C	1.072944	-0.333260	-0.216485
C89	C	1.406277	0.000073	0.116848
C90	C	1.739611	0.333406	0.450182
C91	C	1.072954	-0.383195	-0.216491
C92	C	1.406288	-0.049861	0.116843
C93	C	1.739621	0.283472	0.450176
C94	C	1.120657	-0.692828	-0.187822
C95	C	1.453990	-0.359494	0.145511
C96	C	1.787324	-0.026161	0.478845
C97	C	1.120749	-0.880501	-0.187839
C98	C	1.454082	-0.547167	0.145494
C99	C	1.787415	-0.213834	0.478827
O100	O	1.161201	-0.904757	-0.163447
O101	O	1.494534	-0.571423	0.169886
O102	O	1.827867	-0.238090	0.503219
N103	N	1.073232	-0.903980	-0.216541
N104	N	1.406565	-0.570646	0.116792
N105	N	1.739899	-0.237313	0.450125
C106	C	1.025692	-0.880538	-0.245243
C107	C	1.359026	-0.547204	0.088090
C108	C	1.692359	-0.213871	0.421424
O109	O	0.985284	-0.904815	-0.269659
O110	O	1.318617	-0.571481	0.063674
O111	O	1.651951	-0.238148	0.397007
C112	C	1.025605	-0.692866	-0.245227
C113	C	1.358938	-0.359532	0.088106
C114	C	1.692272	-0.026199	0.421439
C115	C	1.073120	-0.669389	-0.216520
C116	C	1.406453	-0.336056	0.116813
C117	C	1.739786	-0.002722	0.450146
C118	C	1.168168	-0.669351	-0.159118
C119	C	1.501502	-0.336018	0.174216
C120	C	1.834835	-0.002684	0.507549
C121	C	1.168142	-0.622435	-0.159112
C122	C	1.501475	-0.289102	0.174221
C123	C	1.834809	0.044231	0.507555
C124	C	1.120605	-0.598997	-0.187810
C125	C	1.453938	-0.265663	0.145523
C126	C	1.787271	0.067670	0.478856
C127	C	1.073093	-0.622473	-0.216515
C128	C	1.406427	-0.289140	0.116819
C129	C	1.739760	0.044193	0.450152
C130	C	0.978070	-0.669424	-0.273931
C131	C	1.311403	-0.336091	0.059402
C132	C	1.644736	-0.002758	0.392736
C133	C	0.978053	-0.622503	-0.273925
C134	C	1.311387	-0.289170	0.059408
C135	C	1.644720	0.044163	0.392741
C136	C	1.025568	-0.599027	-0.245218
C137	C	1.358901	-0.265693	0.088115
C138	C	1.692235	0.067640	0.421448
C139	C	1.025530	-0.552119	-0.245207
C140	C	1.358863	-0.218786	0.088126
C141	C	1.692196	0.114547	0.421459
N142	N	1.073046	-0.528640	-0.216505
N143	N	1.406380	-0.195307	0.116828
N144	N	1.739713	0.138026	0.450161
C145	C	1.120584	-0.552079	-0.187807
C146	C	1.453917	-0.218746	0.145526
C147	C	1.787250	0.114588	0.478860
C148	C	1.025741	-0.979068	-0.245248
C149	C	1.359074	-0.645735	0.088085
C150	C	1.692407	-0.312402	0.421418
C151	C	1.025761	-1.025986	-0.245252
C152	C	1.359095	-0.692653	0.088082
C153	C	1.692428	-0.359320	0.421415
C154	C	1.120819	-1.025946	-0.187849
C155	C	1.454152	-0.692613	0.145485
C156	C	1.787486	-0.359279	0.478818
C157	C	1.120794	-0.979027	-0.187843
C158	C	1.454127	-0.645694	0.145490
C159	C	1.787460	-0.312361	0.478823
C160	C	1.073257	-0.955589	-0.216547
C161	C	1.406591	-0.622256	0.116787
C162	C	1.739924	-0.288923	0.450120
C163	C	1.120525	-0.453553	-0.187797
C164	C	1.453858	-0.120220	0.145537
C165	C	1.787191	0.213114	0.478870
C166	C	1.120492	-0.406633	-0.187792
C167	C	1.453825	-0.073300	0.145541
C168	C	1.787159	0.260033	0.478875
C169	C	1.025438	-0.406678	-0.245197
C170	C	1.358771	-0.073345	0.088137
C171	C	1.692104	0.259989	0.421470
C172	C	1.025467	-0.453593	-0.245200
C173	C	1.358800	-0.120260	0.088134
C174	C	1.692134	0.213073	0.421467
C175	C	1.073017	-0.477030	-0.216498
C176	C	1.406350	-0.143697	0.116835
C177	C	1.739683	0.189637	0.450168
O178	O	0.985105	-0.527835	-0.269590
O179	O	1.318438	-0.194501	0.063743
O180	O	1.651771	0.138832	0.397076
O181	O	1.160998	-0.527794	-0.163401
O182	O	1.494331	-0.194461	0.169932
O183	O	1.827664	0.138873	0.503265
C184	C	1.120683	-0.739743	-0.187828
C185	C	1.454017	-0.406410	0.145506
C186	C	1.787350	-0.073076	0.478839
C187	C	1.073172	-0.763220	-0.216532
C188	C	1.406505	-0.429886	0.116801
C189	C	1.739839	-0.096553	0.450135
C190	C	1.025635	-0.739781	-0.245230
C191	C	1.358968	-0.406448	0.088103
C192	C	1.692301	-0.073114	0.421436
C193	C	1.073193	-0.810138	-0.216535
C194	C	1.406526	-0.476804	0.116798
C195	C	1.739859	-0.143471	0.450131
C196	C	1.120730	-0.833576	-0.187837
C197	C	1.454064	-0.500243	0.145496
C198	C	1.787397	-0.166910	0.478830
C199	C	1.168247	-0.810097	-0.159135
C200	C	1.501580	-0.476764	0.174198
C201	C	1.834914	-0.143431	0.507532
C202	C	1.168221	-0.763182	-0.159129
C203	C	1.501554	-0.429848	0.174204
C204	C	1.834887	-0.096515	0.507537
C205	C	0.978118	-0.763260	-0.273932
C206	C	1.311451	-0.429927	0.059401
C207	C	1.644785	-0.096594	0.392734
C208	C	0.978147	-0.810176	-0.273935
C209	C	1.311481	-0.476842	0.059398
C210	C	1.644814	-0.143509	0.392731
C211	C	1.025685	-0.833614	-0.245237
C212	C	1.359018	-0.500281	0.088096
C213	C	1.692352	-0.166948	0.421430
C214	C	1.266784	-0.216555	-0.216533
C215	C	1.600117	0.116778	0.116801
C216	C	1.933450	0.450112	0.450134
C217	C	1.349329	-0.216562	-0.216543
C218	C	1.682663	0.116771	0.116790
C219	C	2.015996	0.450104	0.450123
C220	C	1.073104	-0.216546	-0.333686
C221	C	1.406437	0.116787	-0.000352
C222	C	1.739770	0.450120	0.332981
C223	C	1.073115	-0.216550	-0.383620
C224	C	1.406448	0.116784	-0.050287
C225	C	1.739781	0.450117	0.283046
C226	C	1.073233	-0.099359	-0.216540
C227	C	1.406566	0.233974	0.116794
C228	C	1.739900	0.567307	0.450127
C229	C	1.073299	-0.049425	-0.216553
C230	C	1.406632	0.283908	0.116780
C231	C	1.739966	0.617242	0.450113
C232	C	1.025629	-0.245176	-0.740193
C233	C	1.358963	0.088157	-0.406860
C234	C	1.692296	0.421491	-0.073527
C235	C	1.025603	-0.245228	-0.552520
C236	C	1.358936	0.088105	-0.219187
C237	C	1.692269	0.421439	0.114146
O238	O	0.985156	-0.269652	-0.528244
O239	O	1.318489	0.063682	-0.194910
O240	O	1.651822	0.397015	0.138423
N241	N	1.073131	-0.216508	-0.529065
N242	N	1.406464	0.116825	-0.195732
N243	N	1.739798	0.450158	0.137601
C244	C	1.120666	-0.187771	-0.552532
C245	C	1.454000	0.145562	-0.219198
C246	C	1.787333	0.478895	0.114135
O247	O	1.161086	-0.163341	-0.528276
O248	O	1.494420	0.169992	-0.194942
O249	O	1.827753	0.503325	0.138391
C250	C	1.120689	-0.187718	-0.740204
C251	C	1.454022	0.145616	-0.406871
C252	C	1.787355	0.478949	-0.073537
C253	C	1.073162	-0.216443	-0.763656
C254	C	1.406496	0.116891	-0.430323
C255	C	1.739829	0.450224	-0.096990
C256	C	0.978106	-0.273898	-0.763646
C257	C	1.311439	0.059435	-0.430313
C258	C	1.644773	0.392768	-0.096979
C259	C	0.978116	-0.273887	-0.810561
C260	C	1.311449	0.059447	-0.477228
C261	C	1.644783	0.392780	-0.143895
C262	C	1.025649	-0.245153	-0.834024
C263	C	1.358983	0.088180	-0.500691
C264	C	1.692316	0.421514	-0.167358
C265	C	1.073172	-0.216431	-0.810572
C266	C	1.406506	0.116902	-0.477239
C267	C	1.739839	0.450236	-0.143905
C268	C	1.168220	-0.158979	-0.763669
C269	C	1.501553	0.174354	-0.430336
C270	C	1.834886	0.507688	-0.097003
C271	C	1.168220	-0.158967	-0.810590
C272	C	1.501553	0.174366	-0.477257
C273	C	1.834886	0.507699	-0.143924
C274	C	1.120693	-0.187692	-0.834043
C275	C	1.454027	0.145641	-0.500709
C276	C	1.787360	0.478975	-0.167376
C277	C	1.120715	-0.187686	-0.880950
C278	C	1.454049	0.145647	-0.547617
C279	C	1.787382	0.478981	-0.214284
N280	N	1.073187	-0.216406	-0.904405
N281	N	1.406520	0.116928	-0.571072
N282	N	1.739853	0.450261	-0.237739
C283	C	1.025654	-0.245139	-0.880942
C284	C	1.358987	0.088194	-0.547609
C285	C	1.692320	0.421527	-0.214276
C286	C	1.120652	-0.187802	-0.454001
C287	C	1.453986	0.145531	-0.120668
C288	C	1.787319	0.478864	0.212666
C289	C	1.120648	-0.187816	-0.407083
C290	C	1.453981	0.145517	-0.073750
C291	C	1.787314	0.478850	0.259584
C292	C	1.025583	-0.245272	-0.407075
C293	C	1.358916	0.088061	-0.073742
C294	C	1.692249	0.421394	0.259592
C295	C	1.025592	-0.245260	-0.453994
C296	C	1.358925	0.088073	-0.120660
C297	C	1.692258	0.421406	0.212673
C298	C	1.073124	-0.216522	-0.477456
C299	C	1.406457	0.116811	-0.144123
C300	C	1.739790	0.450145	0.189211
C301	C	1.025679	-0.245113	-0.979468
C302	C	1.359012	0.088220	-0.646135
C303	C	1.692345	0.421554	-0.312802
C304	C	1.025695	-0.245100	-1.026388
C305	C	1.359028	0.088233	-0.693054
C306	C	1.692362	0.421566	-0.359721
C307	C	1.120757	-0.187643	-1.026392
C308	C	1.454090	0.145690	-0.693058
C309	C	1.787424	0.479024	-0.359725
C310	C	1.120744	-0.187657	-0.979476
C311	C	1.454077	0.145676	-0.646143
C312	C	1.787410	0.479010	-0.312810
C313	C	1.073199	-0.216394	-0.956016
C314	C	1.406532	0.116940	-0.622682
C315	C	1.739865	0.450273	-0.289349
O316	O	1.161135	-0.163271	-0.905256
O317	O	1.494468	0.170062	-0.571922
O318	O	1.827802	0.503395	-0.238589
O319	O	0.985228	-0.269558	-0.905206
O320	O	1.318561	0.063775	-0.571873
O321	O	1.651895	0.397108	-0.238540
C322	C	1.025619	-0.245188	-0.693278
C323	C	1.358953	0.088146	-0.359945
C324	C	1.692286	0.421479	-0.026611
C325	C	1.073142	-0.216466	-0.669825
C326	C	1.406476	0.116868	-0.336492
C327	C	1.739809	0.450201	-0.003159
C328	C	1.120675	-0.187732	-0.693288
C329	C	1.454009	0.145601	-0.359955
C330	C	1.787342	0.478935	-0.026622
C331	C	1.073138	-0.216479	-0.622908
C332	C	1.406471	0.116854	-0.289574
C333	C	1.739804	0.450187	0.043759
C334	C	1.025605	-0.245213	-0.599445
C335	C	1.358938	0.088120	-0.266111
C336	C	1.692271	0.421454	0.067222
C337	C	0.978076	-0.273933	-0.622900
C338	C	1.311409	0.059401	-0.289566
C339	C	1.644743	0.392734	0.043767
C340	C	0.978086	-0.273921	-0.669815
C341	C	1.311419	0.059412	-0.336482
C342	C	1.644753	0.392745	-0.003148
C343	C	1.168204	-0.159012	-0.669833
C344	C	1.501537	0.174321	-0.336500
C345	C	1.834871	0.507654	-0.003167
C346	C	1.168191	-0.159026	-0.622918
C347	C	1.501524	0.174307	-0.289585
C348	C	1.834857	0.507640	0.043749
C349	C	1.120658	-0.187760	-0.599455
C350	C	1.453991	0.145573	-0.266122
C351	C	1.787324	0.478907	0.067212
C352	C	1.073095	-0.216497	-0.099785
C353	C	1.406429	0.116836	0.233548
C354	C	1.739762	0.450170	0.566882
C355	C	1.073228	-0.216367	-0.049851
C356	C	1.406562	0.116967	0.283483
C357	C	1.739895	0.450300	0.616816
H358	H	1.159246	-0.472629	-0.164426
H359	H	1.492579	-0.139296	0.168907
H360	H	1.825912	0.194037	0.502240
H361	H	0.527108	-0.140942	-0.236888
H362	H	0.860442	0.192391	0.096445
H363	H	1.193775	0.525725	0.429779
N364	N	1.169370	-1.049899	-0.158534
N365	N	1.502704	-0.716566	0.174799
N366	N	1.836037	-0.383233	0.508132
N367	N	1.169376	-1.091790	-0.158546
N368	N	1.502710	-0.758457	0.174788
N369	N	1.836043	-0.425123	0.508121
H370	H	1.203666	-1.108710	-0.137845
H371	H	1.536999	-0.775376	0.195488
H372	H	1.870333	-0.442043	0.528821
N373	N	1.216765	-0.129612	-0.834563
N374	N	1.550099	0.203721	-0.501230
N375	N	1.883432	0.537055	-0.167897
N376	N	1.190674	-0.100977	-0.860739
N377	N	1.524007	0.232357	-0.527405
N378	N	1.857341	0.565690	-0.194072
H379	H	1.224959	-0.080245	-0.877670
H380	H	1.558292	0.253088	-0.544337
H381	H	1.891626	0.586421	-0.211003
H382	H	0.619809	-0.161087	-0.161195
H383	H	0.953142	0.172246	0.172138
H384	H	1.286476	0.505580	0.505471
N385	N	0.521758	-0.278563	-0.278245
N386	N	0.855092	0.054770	0.055088
N387	N	1.188425	0.388103	0.388422
N388	N	0.453575	-0.283541	-0.283619
N389	N	0.786908	0.049793	0.049715
N390	N	1.120241	0.383126	0.383048
H391	H	0.434480	-0.306092	-0.306060
H392	H	0.767813	0.027241	0.027273
H393	H	1.101147	0.360574	0.360607
N394	N	1.169030	-0.382660	-0.158462
N395	N	1.502363	-0.049327	0.174871
N396	N	1.835697	0.284006	0.508205
N397	N	1.211470	-0.403597	-0.132841
N398	N	1.544803	-0.070264	0.200492
N399	N	1.878136	0.263070	0.533825
H400	H	1.245750	-0.386668	-0.112127
H401	H	1.579083	-0.053334	0.221206
H402	H	1.912416	0.279999	0.554539
H403	H	0.986779	-0.472709	-0.268577
H404	H	1.320113	-0.139376	0.064757
H405	H	1.653446	0.193958	0.398090
H406	H	0.619667	-0.292185	-0.196041
H407	H	0.953001	0.041148	0.137292
H408	H	1.286334	0.374482	0.470625
N409	N	1.169295	-0.158324	-0.955512
N410	N	1.502628	0.175009	-0.622178
N411	N	1.835962	0.508342	-0.288845
N412	N	1.216592	-0.174138	-0.929335
N413	N	1.549926	0.159196	-0.596002
N414	N	1.883259	0.492529	-0.262669
H415	H	1.250879	-0.153419	-0.912413
H416	H	1.584212	0.179915	-0.579079
H417	H	1.917546	0.513248	-0.245746
N418	N	0.521412	-0.239037	-0.132008
N419	N	0.854746	0.094296	0.201326
N420	N	1.188079	0.427629	0.534659
N421	N	0.481769	-0.273043	-0.127055
N422	N	0.815102	0.060290	0.206278
N423	N	1.148436	0.393623	0.539611
H424	H	0.462493	-0.281223	-0.096343
H425	H	0.795826	0.052110	0.236991
H426	H	1.129160	0.385444	0.570324
N427	N	0.976880	-0.382724	-0.274503
N428	N	1.310213	-0.049391	0.058830
N429	N	1.643546	0.283943	0.392163
N430	N	0.976870	-0.340834	-0.274491
N431	N	1.310203	-0.007500	0.058843
N432	N	1.643536	0.325833	0.392176
H433	H	0.942577	-0.323914	-0.295190
H434	H	1.275911	0.009419	0.038143
H435	H	1.609244	0.342753	0.371477
N436	N	1.216759	-0.739212	-0.129802
N437	N	1.550092	-0.405878	0.203532
N438	N	1.883426	-0.072545	0.536865
N439	N	1.259195	-0.760152	-0.104182
N440	N	1.592528	-0.426819	0.229151
N441	N	1.925862	-0.093486	0.562485
H442	H	1.293478	-0.743226	-0.083468
H443	H	1.626812	-0.409893	0.249866
H444	H	1.960145	-0.076560	0.583199
H445	H	1.206952	-0.829189	-0.135767
H446	H	1.540285	-0.495856	0.197567
H447	H	1.873618	-0.162523	0.530900
N448	N	0.625492	-0.194033	-0.300989
N449	N	0.958825	0.139300	0.032344
N450	N	1.292159	0.472633	0.365678
N451	N	0.609744	-0.156864	-0.317788
N452	N	0.943078	0.176469	0.015546
N453	N	1.276411	0.509803	0.348879
H454	H	0.629017	-0.148667	-0.348496
H455	H	0.962350	0.184666	-0.015163
H456	H	1.295684	0.518000	0.318170
N457	N	1.216683	-0.598465	-0.129786
N458	N	1.550017	-0.265132	0.203547
N459	N	1.883350	0.068201	0.536881
N460	N	1.259121	-0.619406	-0.104168
N461	N	1.592455	-0.286073	0.229166
N462	N	1.925788	0.047261	0.562499
H463	H	1.293408	-0.602480	-0.083455
H464	H	1.626742	-0.269147	0.249878
H465	H	1.960075	0.064187	0.583211
N466	N	1.169224	-0.158454	-0.477964
N467	N	1.502557	0.174879	-0.144630
N468	N	1.835890	0.508213	0.188703
N469	N	1.216535	-0.174256	-0.504151
N470	N	1.549868	0.159077	-0.170817
N471	N	1.883202	0.492410	0.162516
H472	H	1.250842	-0.153531	-0.521073
H473	H	1.584175	0.179803	-0.187740
H474	H	1.917509	0.513136	0.145593
N475	N	0.929598	-0.834147	-0.303260
N476	N	1.262931	-0.500813	0.030073
N477	N	1.596264	-0.167480	0.363406
N478	N	0.887160	-0.813208	-0.328881
N479	N	1.220493	-0.479875	0.004453
N480	N	1.553827	-0.146541	0.337786
H481	H	0.852875	-0.830136	-0.349593
H482	H	1.186209	-0.496802	-0.016260
H483	H	1.519542	-0.163469	0.317074
H484	H	1.206883	-0.688430	-0.135748
H485	H	1.540216	-0.355096	0.197585
H486	H	1.873550	-0.021763	0.530919
N487	N	0.977210	-1.049957	-0.274571
N488	N	1.310543	-0.716624	0.058763
N489	N	1.643876	-0.383291	0.392096
N490	N	0.934771	-1.029018	-0.300191
N491	N	1.268105	-0.695685	0.033143
N492	N	1.601438	-0.362352	0.366476
H493	H	0.900481	-1.045946	-0.320900
H494	H	1.233814	-0.712613	0.012434
H495	H	1.567148	-0.379279	0.345767
N496	N	0.977127	-0.274475	-0.955509
N497	N	1.310460	0.058859	-0.622175
N498	N	1.643794	0.392192	-0.288842
N499	N	1.003216	-0.303114	-0.929337
N500	N	1.336549	0.030219	-0.596003
N501	N	1.669883	0.363553	-0.262670
H502	H	0.968930	-0.323853	-0.912415
H503	H	1.302264	0.009480	-0.579082
H504	H	1.635597	0.342814	-0.245748
H505	H	1.159484	-0.959915	-0.164468
H506	H	1.492818	-0.626582	0.168865
H507	H	1.826151	-0.293249	0.502199
H508	H	0.987029	-0.959988	-0.268622
H509	H	1.320362	-0.626655	0.064711
H510	H	1.653696	-0.293322	0.398044
N511	N	0.929555	-0.739329	-0.303253
N512	N	1.262888	-0.405996	0.030080
N513	N	1.596221	-0.072663	0.363414
N514	N	0.887138	-0.760303	-0.328876
N515	N	1.220471	-0.426970	0.004457
N516	N	1.553804	-0.093636	0.337790
H517	H	0.852834	-0.743404	-0.349585
H518	H	1.186167	-0.410071	-0.016252
H519	H	1.519501	-0.076737	0.317082
N520	N	1.216730	-0.129681	-0.598958
N521	N	1.550063	0.203652	-0.265625
N522	N	1.883397	0.536986	0.067709
N523	N	1.216716	-0.129688	-0.557067
N524	N	1.550050	0.203646	-0.223734
N525	N	1.883383	0.536979	0.109599
H526	H	1.250991	-0.108960	-0.540146
H527	H	1.584324	0.224373	-0.206813
H528	H	1.917658	0.557707	0.126521
N529	N	0.929529	-0.693391	-0.303258
N530	N	1.262862	-0.360057	0.030076
N531	N	1.596195	-0.026724	0.363409
N532	N	0.887097	-0.672449	-0.328879
N533	N	1.220431	-0.339115	0.004454
N534	N	1.553764	-0.005782	0.337788
H535	H	0.852813	-0.689373	-0.349594
H536	H	1.186146	-0.356040	-0.016260
H537	H	1.519479	-0.022707	0.317073
N538	N	1.216761	-0.129640	-0.739712
N539	N	1.550095	0.203693	-0.406379
N540	N	1.883428	0.537027	-0.073046
N541	N	1.264067	-0.145448	-0.713539
N542	N	1.597401	0.187886	-0.380206
N543	N	1.930734	0.521219	-0.046872
H544	H	1.298351	-0.124725	-0.696619
H545	H	1.631684	0.208608	-0.363285
H546	H	1.965018	0.541942	-0.029952
H547	H	0.939344	-0.603423	-0.297300
H548	H	1.272678	-0.270089	0.036033
H549	H	1.606011	0.063244	0.369366
H550	H	0.986993	-0.268493	-1.045481
H551	H	1.320326	0.064840	-0.712147
H552	H	1.653660	0.398173	-0.378814
N553	N	0.929573	-0.303237	-0.834507
N554	N	1.262906	0.030096	-0.501174
N555	N	1.596240	0.363429	-0.167840
N556	N	0.887146	-0.328891	-0.813545
N557	N	1.220479	0.004442	-0.480211
N558	N	1.553812	0.337776	-0.146878
H559	H	0.852862	-0.349623	-0.830453
H560	H	1.186195	-0.016290	-0.497120
H561	H	1.519528	0.317043	-0.163786
H562	H	0.939394	-0.297296	-0.744547
H563	H	1.272728	0.036037	-0.411214
H564	H	1.606061	0.369370	-0.077881
H565	H	0.986891	-0.268650	-0.473086
H566	H	1.320224	0.064683	-0.139752
H567	H	1.653557	0.398017	0.193581
N568	N	0.977032	-0.274620	-0.383097
N569	N	1.310365	0.058713	-0.049763
N570	N	1.643698	0.392047	0.283570
N571	N	0.977038	-0.274623	-0.341206
N572	N	1.310371	0.058711	-0.007873
N573	N	1.643704	0.392044	0.325460
H574	H	0.942747	-0.295346	-0.324269
H575	H	1.276080	0.037988	0.009064
H576	H	1.609413	0.371321	0.342398
H577	H	1.159356	-0.164430	-0.387992
H578	H	1.492690	0.168903	-0.054659
H579	H	1.826023	0.502236	0.278675
N580	N	1.169309	-0.158299	-1.050370
N581	N	1.502642	0.175034	-0.717037
N582	N	1.835975	0.508368	-0.383704
N583	N	1.169303	-0.158296	-1.092261
N584	N	1.502636	0.175038	-0.758928
N585	N	1.835969	0.508371	-0.425594
H586	H	1.203590	-0.137570	-1.109198
H587	H	1.536923	0.195763	-0.775864
H588	H	1.870257	0.529097	-0.442531
N589	N	0.929535	-0.303267	-0.693761
N590	N	1.262869	0.030066	-0.360427
N591	N	1.596202	0.363400	-0.027094
N592	N	0.887103	-0.328918	-0.672798
N593	N	1.220436	0.004416	-0.339465
N594	N	1.553770	0.337749	-0.006132
H595	H	0.852810	-0.349645	-0.689707
H596	H	1.186144	-0.016312	-0.356373
H597	H	1.519477	0.317022	-0.023040
N598	N	0.929530	-0.303283	-0.598921
N599	N	1.262863	0.030050	-0.265588
N600	N	1.596197	0.363384	0.067746
N601	N	0.929536	-0.303285	-0.557030
N602	N	1.262869	0.030048	-0.223697
N603	N	1.596203	0.363382	0.109636
H604	H	0.895250	-0.324011	-0.540093
H605	H	1.228584	0.009322	-0.206759
H606	H	1.561917	0.342656	0.126574
N607	N	1.216764	-0.129656	-0.693789
N608	N	1.550097	0.203677	-0.360456
N609	N	1.883430	0.537011	-0.027123
N610	N	1.259191	-0.104017	-0.672837
N611	N	1.592525	0.229316	-0.339504
N612	N	1.925858	0.562649	-0.006170
H613	H	1.293493	-0.083284	-0.689754
H614	H	1.626826	0.250050	-0.356420
H615	H	1.960159	0.583383	-0.023087
