data_functionalizedCrystal
_audit_creation_method	'MofGen! by Chris Wilmer'
_symmetry_space_group_name_H-M	'P1'
_symmetry_Int_Tables_number	1
_symmetry_cell_setting	triclinic
loop_
_symmetry_equiv_pos_as_xyz
  x,y,z
_cell_length_a	10.686220
_cell_length_b	15.297327
_cell_length_c	15.296721
_cell_angle_alpha	107.319336
_cell_angle_beta	103.181503
_cell_angle_gamma	103.240265
loop_
_atom_site_label
_atom_site_type_symbol
_atom_site_fract_x
_atom_site_fract_y
_atom_site_fract_z
Zn1	Zn	1.730077	-0.346373	-0.475202
Zn2	Zn	1.729929	-0.475005	-0.346606
Zn3	Zn	1.557697	-0.330945	-0.331141
Zn4	Zn	1.466402	-0.519342	-0.519511
O5	O	1.621026	-0.417916	-0.418115
O6	O	1.912486	-0.351338	-0.446072
O7	O	1.745227	-0.430883	-0.211903
O8	O	1.618834	-0.200314	-0.325235
O9	O	1.912377	-0.445843	-0.351593
O10	O	1.745480	-0.211649	-0.431076
O11	O	1.618690	-0.325042	-0.200541
O12	O	1.363158	-0.368034	-0.368200
O13	O	1.463233	-0.521409	-0.646285
O14	O	1.296084	-0.506449	-0.506595
O15	O	1.656955	-0.394330	-0.613731
O16	O	1.656702	-0.613563	-0.394558
O17	O	1.463089	-0.646138	-0.521590
C18	C	1.282319	-0.440379	-0.440528
C19	C	1.137405	-0.450016	-0.450143
C20	C	1.550002	-0.664254	-0.464579
C21	C	1.519728	-0.769636	-0.484480
C22	C	1.837846	-0.998740	-0.276166
C23	C	1.866290	-0.899727	-0.257463
C24	C	1.779653	-0.867199	-0.314216
C25	C	1.664564	-0.933694	-0.389674
C26	C	1.636111	-1.032716	-0.408374
C27	C	1.577918	-0.901176	-0.446424
C28	C	1.462829	-0.967671	-0.521883
C29	C	1.434382	-1.066683	-0.540580
C30	C	1.521019	-1.099211	-0.483827
C31	C	1.606371	-0.802154	-0.427724
C32	C	1.404636	-0.836131	-0.559932
C33	C	1.376192	-0.935144	-0.578635
C34	C	1.961056	-0.395366	-0.395615
C35	C	2.105956	-0.385757	-0.386027
C36	C	1.549927	-0.464536	-0.665365
C37	C	1.519628	-0.484403	-0.770728
C38	C	1.692357	-0.170618	-0.371488
C39	C	1.722754	-0.065234	-0.351619
C40	C	1.404528	-0.559899	-0.837174
C41	C	1.376062	-0.578571	-0.936169
C42	C	1.462686	-0.521743	-0.968726
C43	C	1.577783	-0.446241	-0.902279
C44	C	1.606259	-0.427572	-0.803275
C45	C	1.664416	-0.389416	-0.934828
C46	C	1.779514	-0.313913	-0.868381
C47	C	1.807983	-0.295248	-0.769387
C48	C	1.721359	-0.352076	-0.736829
C49	C	1.635941	-0.408084	-1.033832
C50	C	1.837671	-0.275757	-0.999934
C51	C	1.866138	-0.257086	-0.900939
C52	C	1.691944	-0.371404	-0.171809
C53	C	1.722571	-0.351253	-0.066380
H54	H	1.189895	-0.323370	-0.323777
Br55	Br	0.997498	-0.554019	-0.553895
H56	H	1.334017	-0.606165	-0.810655
Br57	Br	1.278183	-1.156925	-0.642982
Br58	Br	1.287039	-0.791995	-0.636951
H59	H	1.542228	-0.469559	-1.087924
Br60	Br	1.964202	-0.192794	-0.679212
H61	H	1.744524	-0.336873	-0.656220
Br62	Br	1.955406	-1.042889	-0.199150
Br63	Br	1.762556	-0.711922	-0.325318
Br64	Br	2.022483	-0.809491	-0.155067
Br65	Br	2.022323	-0.154610	-0.810750
H66	H	1.908210	-0.229484	-1.026441
H67	H	1.497868	-1.179834	-0.499053
H68	H	1.802819	-0.786577	-0.298982
H69	H	1.282485	-0.989298	-0.640074
Br70	Br	1.424051	-0.547083	-1.103079
Br71	Br	1.219876	-0.681042	-1.026340
