data_functionalizedCrystal
_audit_creation_method	'MofGen! by Chris Wilmer'
_symmetry_space_group_name_H-M	'P1'
_symmetry_Int_Tables_number	1
_symmetry_cell_setting	triclinic
loop_
_symmetry_equiv_pos_as_xyz
  x,y,z
_cell_length_a	15.297475
_cell_length_b	29.839131
_cell_length_c	15.296720
_cell_angle_alpha	99.637563
_cell_angle_beta	91.617114
_cell_angle_gamma	80.343089
loop_
_atom_site_label
_atom_site_type_symbol
_atom_site_fract_x
_atom_site_fract_y
_atom_site_fract_z
Zn1	Zn	1.253182	-0.349614	-0.726505
Zn2	Zn	1.278404	-0.414299	-0.580004
Zn3	Zn	1.132076	-0.324378	-0.554753
Zn4	Zn	1.106633	-0.409883	-0.701134
O5	O	1.192574	-0.374544	-0.640599
O6	O	1.379098	-0.370604	-0.728258
O7	O	1.280197	-0.393657	-0.454082
O8	O	1.148233	-0.264871	-0.577587
O9	O	1.397629	-0.418128	-0.620623
O10	O	1.237209	-0.283412	-0.703773
O11	O	1.172690	-0.327593	-0.435530
O12	O	1.006131	-0.323311	-0.552985
O13	O	1.104870	-0.410602	-0.827071
O14	O	0.987438	-0.386132	-0.660530
O15	O	1.212539	-0.366323	-0.845712
O16	O	1.255527	-0.476568	-0.596021
O17	O	1.129327	-0.473324	-0.685015
C18	C	0.965003	-0.351504	-0.601265
C19	C	0.867644	-0.341660	-0.584458
C20	C	0.554433	-0.444905	-0.760721
C21	C	0.645908	-0.454157	-0.776509
C22	C	0.701346	-0.426033	-0.728498
C23	C	0.665301	-0.388656	-0.664695
C24	C	0.573819	-0.379405	-0.648901
C25	C	0.720732	-0.360534	-0.616678
C26	C	0.684687	-0.323157	-0.552875
C27	C	0.593213	-0.313908	-0.537084
C28	C	0.537775	-0.342031	-0.585095
C29	C	0.812214	-0.369785	-0.632472
C30	C	0.831600	-0.304286	-0.520652
C31	C	0.740125	-0.295034	-0.504864
C32	C	1.192423	-0.491247	-0.640528
C33	C	1.192434	-0.541184	-0.640541
C34	C	1.258374	-0.852537	-0.594359
C35	C	1.258476	-1.040223	-0.594412
O36	O	1.314421	-1.065927	-0.555092
N37	N	1.192744	-1.062009	-0.640696
C38	C	1.126986	-1.036871	-0.686975
O39	O	1.071084	-1.059708	-0.726352
C40	C	1.126888	-0.849186	-0.686927
C41	C	1.192619	-0.827402	-0.640633
C42	C	1.324100	-0.830753	-0.548069
C43	C	1.324071	-0.783833	-0.548053
C44	C	1.258316	-0.758698	-0.594326
C45	C	1.192590	-0.780482	-0.640616
C46	C	1.061134	-0.824049	-0.733211
C47	C	1.061116	-0.777125	-0.733197
C48	C	1.126847	-0.755341	-0.686902
C49	C	1.126806	-0.708428	-0.686873
N50	N	1.192537	-0.686642	-0.640589
C51	C	1.258292	-0.711777	-0.594315
C52	C	1.127041	-1.135408	-0.686996
C53	C	1.127064	-1.182328	-0.687007
C54	C	1.258556	-1.185678	-0.594445
C55	C	1.258528	-1.138756	-0.594429
C56	C	1.192772	-1.113622	-0.640712
C57	C	1.258226	-0.613243	-0.594283
C58	C	1.258189	-0.566319	-0.594268
C59	C	1.126701	-0.562974	-0.686833
C60	C	1.126734	-0.609893	-0.686845
C61	C	1.192505	-0.635027	-0.640569
O62	O	1.070896	-0.682697	-0.726181
O63	O	1.314197	-0.688934	-0.554961
C64	C	1.258403	-0.899456	-0.594376
C65	C	1.192677	-0.921240	-0.640666
C66	C	1.126922	-0.896105	-0.686939
C67	C	1.192700	-0.968161	-0.640677
C68	C	1.258455	-0.993296	-0.594404
C69	C	1.324187	-0.971511	-0.548119
C70	C	1.324158	-0.924591	-0.548103
C71	C	1.061190	-0.917891	-0.733224
C72	C	1.061224	-0.964810	-0.733236
C73	C	1.126979	-0.989946	-0.686962
C74	C	1.421033	-0.397674	-0.680087
C75	C	1.518389	-0.407530	-0.696915
C76	C	1.153053	-0.390785	-0.869062
C77	C	1.136212	-0.397706	-0.966419
C78	C	1.192746	-0.257388	-0.640693
C79	C	1.192819	-0.207464	-0.640733
C80	C	1.312975	-0.325003	-1.279676
C81	C	1.328804	-0.318502	-1.188205
C82	C	1.280657	-0.338302	-1.132754
C83	C	1.216679	-0.364605	-1.168783
C84	C	1.200853	-0.371110	-1.260264
C85	C	1.168535	-0.384409	-1.113342
C86	C	1.104557	-0.410712	-1.149371
C87	C	1.088734	-0.417215	-1.240843
C88	C	1.136881	-0.397415	-1.296294
C89	C	1.184361	-0.377904	-1.021861
C90	C	1.072239	-0.424011	-1.002450
C91	C	1.056410	-0.430512	-1.093921
C92	C	1.231992	-0.358339	-0.413033
C93	C	1.249003	-0.351308	-0.315706
H94	H	0.876738	-0.281386	-0.481556
H95	H	1.236452	-0.356488	-0.992535
Br96	Br	0.479198	-0.483078	-0.825847
H97	H	1.311715	-0.548584	-0.556566
H98	H	1.377650	-0.851213	-0.510389
H99	H	1.352175	-0.308888	-1.324832
Br100	Br	1.347486	-0.647346	-0.531479
Br101	Br	0.413623	-0.329472	-0.563678
H102	H	0.563870	-0.283476	-0.485123
H103	H	0.710765	-0.264601	-0.452915
Br104	Br	1.413371	-0.895035	-0.485274
Br105	Br	1.347736	-1.109196	-0.531598
Br106	Br	1.347792	-1.219798	-0.531642
H107	H	1.036646	-0.438637	-1.270176
H108	H	1.004318	-0.451928	-1.123269
H109	H	1.377596	-0.766100	-0.510359
Br110	Br	1.006900	-0.450889	-0.927204
H111	H	1.007690	-0.982542	-0.770932
Br112	Br	1.037843	-1.211885	-0.749822
H113	H	1.123997	-0.402707	-1.370778
Br114	Br	0.825492	-0.438590	-0.749927
Br115	Br	0.971874	-0.743019	-0.796017
H116	H	1.073213	-0.627631	-0.724545
Br117	Br	1.037469	-0.528854	-0.749634
H118	H	1.073492	-1.114947	-0.724686
H119	H	1.377725	-0.991984	-0.510439
Br120	Br	0.971929	-0.853603	-0.796055
H121	H	1.007645	-0.897429	-0.770906
H122	H	1.380897	-0.297088	-1.158877
H123	H	0.675249	-0.484590	-0.828455
H124	H	0.841552	-0.400218	-0.684422
H125	H	1.293549	-0.333007	-1.058275
