data_functionalizedCrystal
_audit_creation_method	'MofGen! by Chris Wilmer'
_symmetry_space_group_name_H-M	'P1'
_symmetry_Int_Tables_number	1
_symmetry_cell_setting	triclinic
loop_
_symmetry_equiv_pos_as_xyz
  x,y,z
_cell_length_a	9.065218
_cell_length_b	10.654550
_cell_length_c	9.730223
_cell_angle_alpha	90.000193
_cell_angle_beta	89.999690
_cell_angle_gamma	95.249606
loop_
_atom_site_label
_atom_site_type_symbol
_atom_site_fract_x
_atom_site_fract_y
_atom_site_fract_z
O1	O	1.959386	-0.184154	-0.114290
O2	O	1.530019	-0.199259	-0.114291
O3	O	1.754575	-0.009007	-0.114285
O4	O	1.734831	-0.374407	-0.114296
O5	O	1.754572	-0.009011	0.114295
O6	O	1.530016	-0.199264	0.114289
O7	O	1.959384	-0.184159	0.114290
Zn8	Zn	1.744700	-0.191712	0.150581
Zn9	Zn	1.744703	-0.191706	-0.150582
O10	O	1.734828	-0.374412	0.114284
C11	C	1.475039	-0.197810	-0.000001
C12	C	1.311220	-0.193469	-0.000002
C13	C	1.753124	0.037795	0.000003
C14	C	1.748786	0.177255	-0.000002
N15	N	1.744708	-0.191716	0.356118
C16	C	2.014364	-0.185608	-0.000002
C17	C	2.178183	-0.189949	-0.000011
C18	C	1.736279	-0.421213	-0.000007
C19	C	1.740616	-0.560673	-0.000011
C20	C	1.881001	0.256217	0.000003
C21	C	1.876917	0.387254	-0.000007
C22	C	1.608391	0.360354	-0.000020
C23	C	1.612477	0.229320	-0.000020
C24	C	2.036032	0.271749	0.000016
C25	C	2.031948	0.402786	0.000007
N26	N	1.744706	-0.191692	-0.356119
C27	C	1.844167	-0.107501	0.428047
C28	C	1.844163	-0.107486	0.571930
C29	C	1.645236	-0.275911	0.571942
C30	C	1.645234	-0.275920	0.428062
C31	C	1.959020	-0.010265	0.428040
C32	C	1.959016	-0.010250	0.571923
H33	H	1.497413	0.402762	-0.000036
H34	H	2.072399	-0.032217	0.610974
O35	O	2.108575	0.236386	-0.113956
C36	C	2.315411	0.135268	-0.203580
C37	C	2.233431	0.175274	-0.074397
H38	H	2.416356	0.085828	-0.171643
H39	H	2.352625	0.222191	-0.267378
H40	H	2.237867	0.068087	-0.267367
H41	H	2.310888	0.242426	-0.010503
H42	H	2.196194	0.088293	-0.010702
H43	H	1.564247	-0.344467	0.630535
O44	O	1.928878	0.105064	0.381671
C45	C	1.874156	0.315259	0.441740
C46	C	1.908243	0.184705	0.494440
H47	H	1.857493	0.379694	0.532886
H48	H	1.769135	0.305113	0.376704
H49	H	1.970718	0.357648	0.376598
H50	H	1.811772	0.142243	0.559638
H51	H	2.013314	0.194933	0.559401
H52	H	2.090360	0.444312	0.095665
O53	O	1.916482	0.098750	0.625345
C54	C	1.983482	0.280459	0.767180
C55	C	2.031822	0.157042	0.706782
H56	H	2.076720	0.327637	0.833011
H57	H	1.880420	0.258777	0.833222
H58	H	1.957544	0.346380	0.679924
H59	H	2.057839	0.091062	0.793950
H60	H	2.134837	0.178819	0.640704
H61	H	1.564234	-0.344483	0.369499
H62	H	2.066144	-0.041278	0.383414
H63	H	2.078802	0.448245	-0.098688
O64	O	2.094670	0.229181	0.117961
C65	C	2.200306	0.283387	0.339749
C66	C	2.134199	0.331793	0.206134
H67	H	2.232255	0.366320	0.411085
H68	H	2.302860	0.233326	0.314538
H69	H	2.114635	0.214651	0.392579
H70	H	2.219760	0.400574	0.153238
H71	H	2.031615	0.381779	0.231434
O72	O	1.484145	0.152484	0.000142
C73	C	1.332856	-0.011024	0.118571
C74	C	1.478268	0.075900	0.118547
H75	H	1.328043	-0.072946	0.214305
H76	H	1.328059	-0.073125	0.022972
H77	H	1.234758	0.048723	0.118491
H78	H	1.576448	0.016252	0.118675
H79	H	1.482935	0.138007	0.214138
