data_functionalizedCrystal
_audit_creation_method	'MofGen! by Chris Wilmer'
_symmetry_space_group_name_H-M	'P1'
_symmetry_Int_Tables_number	1
_symmetry_cell_setting	triclinic
loop_
_symmetry_equiv_pos_as_xyz
  x,y,z
_cell_length_a	9.065218
_cell_length_b	9.482944
_cell_length_c	11.026607
_cell_angle_alpha	98.126951
_cell_angle_beta	96.800951
_cell_angle_gamma	100.347479
loop_
_atom_site_label
_atom_site_type_symbol
_atom_site_fract_x
_atom_site_fract_y
_atom_site_fract_z
O1	O	2.030079	0.120896	0.195599
O2	O	1.604445	0.120897	0.210237
O3	O	1.781985	0.120891	0.025877
O4	O	1.852539	0.120902	0.379960
O5	O	1.731612	-0.120901	-0.008418
O6	O	1.554073	-0.120895	0.175942
O7	O	1.979707	-0.120897	0.161304
Cu8	Cu	1.762290	-0.142974	0.165492
Cu9	Cu	1.821861	0.142974	0.206050
O10	O	1.802167	-0.120891	0.345665
C11	C	1.523921	0.000001	0.191683
C12	C	1.359030	0.000002	0.187477
N13	N	1.720402	-0.344094	0.136964
C14	C	1.809495	-0.416293	0.197635
C15	C	1.774652	-0.583711	0.173888
C16	C	2.060231	0.000002	0.179859
C17	C	2.225125	0.000011	0.184067
C18	C	1.743783	-0.000003	-0.036624
C19	C	1.704984	0.000002	-0.171764
N20	N	1.863759	0.344095	0.234567
C21	C	1.812118	0.000004	-0.244392
C22	C	1.772020	0.000009	-0.384066
C23	C	1.840369	0.000007	0.408166
C24	C	1.879170	0.000011	0.543307
H25	H	1.911571	-0.354160	0.267152
H26	H	1.583579	0.000012	-0.212989
C27	C	2.043195	0.000011	-0.401027
H28	H	2.105210	0.000024	-0.464706
H29	H	2.045225	-0.084305	-0.363981
H30	H	2.080352	0.084342	-0.340061
H31	H	1.618334	-0.406227	0.067439
C32	C	1.976131	-0.000002	-0.188713
H33	H	1.981562	-0.000016	-0.102141
H34	H	2.041577	0.084314	-0.202856
H35	H	2.006430	-0.084334	-0.226783
H36	H	1.672578	-0.645837	0.104358
C37	C	1.607999	0.000012	-0.439741
H38	H	1.602563	0.000005	-0.526315
H39	H	1.577687	0.084327	-0.401670
H40	H	1.542559	-0.084321	-0.425602
C41	C	2.001658	-0.571993	0.328492
H42	H	2.006984	-0.470478	0.332139
H43	H	2.091646	-0.596850	0.303308
H44	H	1.991397	-0.596867	0.407985
