data_functionalizedCrystal
_audit_creation_method	'MofGen! by Chris Wilmer'
_symmetry_space_group_name_H-M	'P1'
_symmetry_Int_Tables_number	1
_symmetry_cell_setting	triclinic
loop_
_symmetry_equiv_pos_as_xyz
  x,y,z
_cell_length_a	12.759401
_cell_length_b	19.121063
_cell_length_c	12.759393
_cell_angle_alpha	87.597083
_cell_angle_beta	90.018496
_cell_angle_gamma	92.469017
loop_
_atom_site_label
_atom_site_type_symbol
_atom_site_fract_x
_atom_site_fract_y
_atom_site_fract_z
Zn1	Zn	1.588321	-0.279568	0.611771
Zn2	Zn	1.580680	-0.397037	0.443567
Zn3	Zn	1.412621	-0.279605	0.436113
Zn4	Zn	1.405080	-0.396983	0.619205
O5	O	1.496676	-0.338298	0.527664
O6	O	1.734328	-0.295158	0.589467
O7	O	1.558345	-0.381497	0.295559
O8	O	1.442282	-0.181316	0.453184
O9	O	1.728714	-0.381462	0.465888
O10	O	1.571368	-0.181289	0.582240
O11	O	1.434872	-0.295221	0.290083
O12	O	1.264600	-0.295168	0.460392
O13	O	1.429429	-0.381370	0.765237
O14	O	1.259060	-0.381405	0.594909
O15	O	1.564056	-0.295106	0.759776
O16	O	1.551032	-0.495314	0.473095
O17	O	1.422020	-0.495274	0.602136
C18	C	1.223709	-0.338285	0.527649
C19	C	1.106932	-0.338297	0.527668
C20	C	1.049208	-0.383272	0.597605
C21	C	0.939483	-0.383281	0.597616
C22	C	0.945216	-0.293337	0.457747
C23	C	1.054939	-0.293325	0.457741
C24	C	1.101200	-0.428244	0.667532
C25	C	1.043476	-0.473224	0.737473
C26	C	0.933751	-0.473233	0.737485
C27	C	0.881751	-0.428262	0.667556
C28	C	1.484907	-0.520778	0.539254
C29	C	1.479969	-0.598844	0.544247
C30	C	1.544871	-0.635516	0.479464
C31	C	1.540233	-0.708867	0.484167
C32	C	1.470686	-0.745544	0.553648
C33	C	1.405781	-0.708866	0.618438
C34	C	1.410426	-0.635517	0.613740
C35	C	1.453305	-0.967013	0.571195
C36	C	1.448663	-1.040368	0.575886
C37	C	1.583116	-1.040364	0.441616
C38	C	1.587750	-0.967013	0.436920
C39	C	1.522849	-0.930341	0.501714
C40	C	1.465941	-0.820521	0.558454
C41	C	1.527600	-0.855366	0.496912
C42	C	1.770708	-0.338312	0.527680
C43	C	1.887484	-0.338318	0.527686
C44	C	1.496754	-0.338227	0.801693
C45	C	1.496787	-0.338197	0.918468
C46	C	1.508518	-0.155106	0.516052
C47	C	1.513565	-0.077040	0.511103
C48	C	1.496661	-0.338318	0.254698
C49	C	1.496844	-0.338151	0.137911
C50	C	1.566897	-0.293275	0.970488
C51	C	1.566923	-0.293250	1.080210
C52	C	1.426727	-0.383075	1.085884
C53	C	1.426696	-0.383096	0.976163
C54	C	1.636987	-0.248377	0.912792
C55	C	1.707103	-0.203452	0.964812
C56	C	1.707130	-0.203426	1.074535
C57	C	1.637040	-0.248326	1.132237
H58	H	1.601498	-0.605659	0.422881
H59	H	1.764214	-0.166841	1.116886
H60	H	1.190543	-0.428243	0.667528
H61	H	1.635956	-1.070229	0.388866
O62	O	0.877835	-0.516986	0.805463
C63	C	0.947259	-0.556660	0.867196
H64	H	1.025301	-0.559049	0.824300
H65	H	0.912002	-0.612010	0.881781
H66	H	0.960612	-0.531005	0.945423
O67	O	1.111066	-0.249564	0.389946
C68	C	1.177490	-0.204252	0.446989
H69	H	1.144730	-0.199982	0.529477
H70	H	1.182197	-0.150172	0.405688
H71	H	1.259252	-0.225962	0.451929
H72	H	1.637056	-0.248293	1.221580
O73	O	1.338198	-0.744383	0.686026
C74	C	1.281893	-0.696283	0.742181
H75	H	1.328237	-0.643972	0.742505
H76	H	1.269303	-0.717437	0.826304
H77	H	1.202610	-0.688546	0.703145
H78	H	1.369591	-0.419664	0.933807
H79	H	1.392042	-1.070228	0.632484
H80	H	1.085822	-0.509833	0.794413
O81	O	1.347532	-0.599857	0.676778
C82	C	1.410008	-0.557348	0.741944
H83	H	1.491352	-0.579407	0.749914
H84	H	1.372023	-0.556489	0.822711
H85	H	1.417167	-0.501774	0.705902
O86	O	0.775158	-0.428358	0.667705
C87	C	0.735357	-0.477671	0.744467
H88	H	0.795930	-0.518732	0.761654
H89	H	0.660195	-0.504282	0.714429
H90	H	0.717762	-0.449878	0.819388
H91	H	1.369663	-0.419629	1.132874
H92	H	0.902869	-0.256725	0.400813
H93	H	1.644380	-0.937152	0.380343
O94	O	1.603316	-0.744383	0.421127
C95	C	1.665707	-0.696282	0.358808
H96	H	1.625982	-0.644023	0.351789
H97	H	1.675611	-0.717515	0.277399
H98	H	1.745980	-0.688414	0.396841
H99	H	1.400458	-0.937161	0.623951
H100	H	1.584229	-0.825502	0.440345
H101	H	1.409314	-0.850391	0.615023
O102	O	1.637180	-0.248398	0.806209
C103	C	1.736700	-0.266470	0.770741
H104	H	1.797984	-0.254467	0.833242
H105	H	1.757437	-0.234805	0.695344
H106	H	1.735152	-0.324750	0.754957
H107	H	1.764161	-0.166892	0.917823
