data_functionalizedCrystal
_audit_creation_method	'MofGen! by Chris Wilmer'
_symmetry_space_group_name_H-M	'P1'
_symmetry_Int_Tables_number	1
_symmetry_cell_setting	triclinic
loop_
_symmetry_equiv_pos_as_xyz
  x,y,z
_cell_length_a	30.570277
_cell_length_b	30.570279
_cell_length_c	30.570330
_cell_angle_alpha	59.997668
_cell_angle_beta	89.998668
_cell_angle_gamma	60.000192
loop_
_atom_site_label
_atom_site_type_symbol
_atom_site_fract_x
_atom_site_fract_y
_atom_site_fract_z
O1	O	-0.372836	-0.313095	0.013011
O2	O	-0.309225	-0.223519	-0.012953
O3	O	-0.309223	-0.313094	0.076622
O4	O	-0.372839	-0.223520	-0.076564
O5	O	-0.236468	-0.385848	0.076622
O6	O	-0.236471	-0.296273	-0.012953
O7	O	-0.300082	-0.385850	0.013011
Cu8	Cu	-0.261633	-0.347704	0.000029
Cu9	Cu	-0.347674	-0.261664	0.000029
O10	O	-0.300084	-0.296275	-0.076564
C11	C	-0.188654	-0.082303	-0.027139
C12	C	-0.215647	-0.028318	-0.023422
C13	C	-0.136009	-0.108501	-0.027507
C14	C	-0.188656	-0.161512	-0.027144
C15	C	-0.215651	-0.192218	-0.023433
C16	C	-0.136010	-0.187591	-0.027512
C17	C	-0.109441	-0.161515	-0.027139
C18	C	-0.051740	-0.192225	-0.023422
C19	C	-0.215103	-0.108498	-0.027512
C20	C	-0.005122	-0.217036	-0.020418
C21	C	-0.237454	0.015296	-0.020418
C22	C	-0.237459	-0.217026	-0.020433
C23	C	0.053362	-0.248162	-0.016650
C24	C	-0.264813	0.070012	-0.016651
C25	C	-0.264819	-0.248149	-0.016672
C26	C	-0.528835	-0.481158	0.031534
C27	C	-0.502268	-0.534173	0.031905
C28	C	-0.449624	-0.481155	0.031530
C29	C	-0.423176	-0.534171	0.031901
C30	C	-0.449623	-0.560370	0.031533
C31	C	-0.502268	-0.455079	0.031901
C32	C	-0.614448	-0.395339	0.025106
C33	C	-0.668545	-0.366177	0.021050
C34	C	-0.695677	-0.391210	0.019017
C35	C	-0.754333	-0.359592	0.014617
C36	C	-0.668716	-0.445410	0.021045
C37	C	-0.614621	-0.474572	0.025103
C38	C	-0.587489	-0.449534	0.027131
C39	C	-0.449828	-0.639557	0.025109
C40	C	-0.424894	-0.689598	0.021053
C41	C	-0.372730	-0.714694	0.019016
C42	C	-0.345693	-0.768949	0.014615
C43	C	-0.345492	-0.689758	0.021040
C44	C	-0.370425	-0.639721	0.025098
C45	C	-0.422593	-0.614621	0.027130
C46	C	-0.449831	-0.395334	0.025098
C47	C	-0.424899	-0.366164	0.021031
C48	C	-0.372736	-0.391195	0.018994
C49	C	-0.345699	-0.359574	0.014590
C50	C	-0.345499	-0.445391	0.021019
C51	C	-0.370429	-0.474560	0.025084
C52	C	-0.422594	-0.449529	0.027123
C53	C	-0.449629	-0.128223	-0.400622
C54	C	-0.502274	-0.075208	-0.427071
C55	C	-0.449630	-0.128223	-0.321410
C56	C	-0.502275	-0.075207	-0.347979
C57	C	-0.528843	-0.049010	-0.400624
C58	C	-0.423182	-0.154300	-0.347977
C59	C	-0.370237	-0.214043	-0.400414
C60	C	-0.345131	-0.243207	-0.425348
C61	C	-0.372198	-0.218175	-0.477512
C62	C	-0.344980	-0.249795	-0.504549
C63	C	-0.424371	-0.163975	-0.504752
C64	C	-0.449476	-0.134812	-0.479820
C65	C	-0.422408	-0.159848	-0.427652
C66	C	-0.614455	0.030175	-0.480016
C67	C	-0.668553	0.080216	-0.505123
C68	C	-0.695686	0.105313	-0.478056
C69	C	-0.754343	0.159568	-0.505274
C70	C	-0.668725	0.080378	-0.425883
C71	C	-0.614630	0.030342	-0.400778
C72	C	-0.587497	0.005241	-0.427845
C73	C	-0.370239	-0.214042	-0.235795
C74	C	-0.345135	-0.243209	-0.181695
C75	C	-0.372203	-0.218177	-0.154563
C76	C	-0.344985	-0.249796	-0.095906
C77	C	-0.424374	-0.163982	-0.181523
C78	C	-0.449480	-0.134814	-0.235621
C79	C	-0.422410	-0.159847	-0.262755
O80	O	0.226322	-0.385862	0.013031
O81	O	0.073137	-0.296286	-0.012932
O82	O	0.162706	-0.385864	0.076642
O83	O	0.136754	-0.296283	-0.076544
O84	O	0.162707	-0.313113	0.076647
O85	O	0.073139	-0.223534	-0.012927
O86	O	0.226324	-0.313110	0.013035
Cu87	Cu	0.149732	-0.261680	0.000054
Cu88	Cu	0.149730	-0.347717	0.000049
O89	O	0.136756	-0.223532	-0.076539
O90	O	-0.300077	0.213289	0.013034
O91	O	-0.236463	0.086067	-0.012928
O92	O	-0.236466	0.086060	0.076646
O93	O	-0.300074	0.213297	-0.076541
O94	O	-0.309222	0.086062	0.076641
O95	O	-0.309219	0.086070	-0.012933
O96	O	-0.372833	0.213292	0.013029
Cu97	Cu	-0.347669	0.149681	0.000047
Cu98	Cu	-0.261627	0.149678	0.000053
O99	O	-0.372830	0.213300	-0.076546
O100	O	-0.926872	0.304555	-0.541036
O101	O	-0.773688	0.177328	-0.477419
O102	O	-0.863257	0.177325	-0.477417
O103	O	-0.837303	0.304558	-0.541038
O104	O	-0.863255	0.177323	-0.550170
O105	O	-0.773686	0.177326	-0.550173
O106	O	-0.926870	0.304553	-0.613790
Cu107	Cu	-0.850278	0.240940	-0.588624
Cu108	Cu	-0.850280	0.240942	-0.502585
O109	O	-0.837301	0.304556	-0.613792
O110	O	-0.309222	-0.313094	-0.613776
O111	O	-0.372836	-0.223523	-0.550164
O112	O	-0.372834	-0.313097	-0.550160
O113	O	-0.309224	-0.223521	-0.613781
O114	O	-0.300079	-0.385852	-0.477404
O115	O	-0.300081	-0.296279	-0.477409
O116	O	-0.236467	-0.385850	-0.541021
Cu117	Cu	-0.261631	-0.347707	-0.502572
Cu118	Cu	-0.347672	-0.261666	-0.588613
O119	O	-0.236469	-0.296276	-0.541025
C120	C	-0.109443	-0.527076	0.338416
C121	C	-0.051741	-0.581062	0.365410
C122	C	-0.136011	-0.500878	0.364863
C123	C	-0.188656	-0.447863	0.259202
C124	C	-0.215650	-0.417154	0.201500
C125	C	-0.215104	-0.421785	0.285770
C126	C	-0.188656	-0.447863	0.338415
C127	C	-0.215649	-0.417155	0.365408
C128	C	-0.136011	-0.500878	0.285771
C129	C	-0.237457	-0.392345	0.387215
C130	C	-0.005124	-0.624677	0.387218
C131	C	-0.237457	-0.392344	0.154883
C132	C	-0.264816	-0.361220	0.414573
C133	C	0.053360	-0.679395	0.414577
C134	C	-0.264817	-0.361219	0.096399
C135	C	0.176900	-0.447894	0.338441
C136	C	0.173185	-0.417189	0.365437
C137	C	0.177268	-0.500910	0.364887
C138	C	0.176902	-0.447889	0.259226
C139	C	0.173189	-0.417178	0.201523
C140	C	0.177270	-0.500904	0.285792
C141	C	0.176898	-0.527104	0.338437
C142	C	0.173181	-0.581091	0.365429
C143	C	0.177272	-0.421814	0.285795
C144	C	0.170177	-0.624706	0.387234
C145	C	0.170183	-0.392382	0.387246
C146	C	0.170189	-0.392365	0.154906
C147	C	0.166409	-0.679423	0.414591
C148	C	0.166417	-0.361260	0.414607
C149	C	0.166425	-0.361238	0.096422
C150	C	-0.188656	-0.161565	0.338427
C151	C	-0.215650	-0.192274	0.365416
C152	C	-0.136010	-0.187647	0.364876
C153	C	-0.188655	-0.082342	0.259219
C154	C	-0.215648	-0.028347	0.201519
C155	C	-0.136009	-0.108545	0.285789
C156	C	-0.109441	-0.161568	0.338432
C157	C	-0.051739	-0.192281	0.365427
C158	C	-0.215103	-0.108542	0.285783
C159	C	-0.005121	-0.217095	0.387236
C160	C	-0.237458	-0.217086	0.387220
C161	C	-0.237456	0.015274	0.154902
C162	C	0.053363	-0.248225	0.414596
C163	C	-0.264818	-0.248212	0.414575
C164	C	-0.264815	0.070001	0.096420
C165	C	0.118261	-0.049006	-0.400600
C166	C	0.117891	-0.075201	-0.427049
C167	C	0.118257	-0.128221	-0.321388
C168	C	0.117887	-0.154296	-0.347958
C169	C	0.118259	-0.128216	-0.400603
C170	C	0.117889	-0.075206	-0.347955
C171	C	0.124691	0.030176	-0.400391
C172	C	0.128750	0.080217	-0.425324
C173	C	0.130788	0.105316	-0.477489
C174	C	0.135192	0.159570	-0.504524
C175	C	0.128762	0.080383	-0.504729
C176	C	0.124700	0.030348	-0.479798
C177	C	0.122667	0.005244	-0.427629
C178	C	0.124689	-0.134434	-0.479996
C179	C	0.128747	-0.163423	-0.505104
C180	C	0.130780	-0.217623	-0.478038
C181	C	0.135182	-0.249059	-0.505257
C182	C	0.128752	-0.242837	-0.425864
C183	C	0.124692	-0.213848	-0.400759
C184	C	0.122664	-0.159648	-0.427825
C185	C	0.124683	-0.134448	-0.235773
C186	C	0.128745	-0.163447	-0.181672
C187	C	0.130779	-0.217647	-0.154541
C188	C	0.135178	-0.249089	-0.095884
C189	C	0.128755	-0.242857	-0.181502
C190	C	0.124695	-0.213862	-0.235600
C191	C	0.122659	-0.159658	-0.262733
O192	O	0.136720	-0.296316	0.522623
O193	O	0.162693	-0.385890	0.459012
O194	O	0.073116	-0.296315	0.459000
O195	O	0.226297	-0.385891	0.522635
O196	O	0.073125	-0.223561	0.386249
O197	O	0.162702	-0.313136	0.386260
O198	O	0.136728	-0.223562	0.449871
Cu199	Cu	0.149716	-0.261706	0.411423
Cu200	Cu	0.149706	-0.347746	0.497460
O201	O	0.226306	-0.313137	0.449883
C202	C	-0.528835	0.518896	-0.400596
C203	C	-0.502267	0.544976	-0.427040
C204	C	-0.449621	0.439671	-0.321383
C205	C	-0.423173	0.465871	-0.347947
C206	C	-0.449621	0.518894	-0.400591
C207	C	-0.502267	0.465874	-0.347953
C208	C	-0.614449	0.525120	-0.400395
C209	C	-0.668547	0.554117	-0.425332
C210	C	-0.695679	0.608323	-0.477494
C211	C	-0.754336	0.639767	-0.504533
C212	C	-0.668718	0.633538	-0.504729
C213	C	-0.614622	0.604542	-0.479795
C214	C	-0.587490	0.550335	-0.427628
C215	C	-0.449826	0.604722	-0.479976
C216	C	-0.424890	0.633887	-0.505078
C217	C	-0.372726	0.608850	-0.478008
C218	C	-0.345687	0.640471	-0.505221
C219	C	-0.345487	0.554643	-0.425836
C220	C	-0.370420	0.525478	-0.400737
C221	C	-0.422590	0.550520	-0.427807
C222	C	-0.449827	0.360475	-0.235774
C223	C	-0.424895	0.310431	-0.181675
C224	C	-0.372730	0.285329	-0.154541
C225	C	-0.345693	0.231066	-0.095885
C226	C	-0.345493	0.310267	-0.181496
C227	C	-0.370424	0.360310	-0.235593
C228	C	-0.422591	0.385412	-0.262730
H229	H	-0.523599	-0.556098	0.032502
C230	C	-0.288108	0.282655	-0.151648
C231	C	-0.275740	0.323383	-0.146779
C232	C	-0.218354	0.295768	-0.116930
C233	C	-0.173336	0.227425	-0.091950
C234	C	-0.185703	0.186692	-0.096818
C235	C	-0.243088	0.214307	-0.126667
H236	H	-0.309066	0.373979	-0.165272
H237	H	-0.209200	0.325921	-0.113326
H238	H	-0.130856	0.206982	-0.069853
H239	H	-0.152376	0.136097	-0.078325
H240	H	-0.252242	0.184154	-0.130270
C241	C	-0.107196	-0.530490	0.256951
C242	C	-0.049161	-0.588915	0.286160
C243	C	-0.020347	-0.618522	0.257339
C244	C	-0.049568	-0.589703	0.199308
C245	C	-0.107607	-0.531275	0.170095
C246	C	-0.136421	-0.501668	0.198916
H247	H	-0.027526	-0.610252	0.329121
H248	H	0.022617	-0.661775	0.278965
H249	H	-0.028239	-0.611620	0.177973
H250	H	-0.129242	-0.509938	0.127134
H251	H	-0.179385	-0.458415	0.177291
C252	C	0.178047	-0.364163	0.256969
C253	C	0.178419	-0.335328	0.286174
C254	C	0.179178	-0.277668	0.257342
C255	C	0.179565	-0.248843	0.199305
C256	C	0.179193	-0.277678	0.170096
C257	C	0.178434	-0.335338	0.198928
H258	H	0.178133	-0.356666	0.329140
H259	H	0.179454	-0.256323	0.278965
H260	H	0.180127	-0.206160	0.177961
H261	H	0.179479	-0.256341	0.127130
H262	H	0.178158	-0.356684	0.177306
C263	C	-0.288102	0.527102	-0.396058
C264	C	-0.243082	0.507078	-0.419384
C265	C	-0.185697	0.479533	-0.389603
C266	C	-0.173332	0.472013	-0.336496
C267	C	-0.218353	0.492038	-0.313166
C268	C	-0.275738	0.519582	-0.342947
H269	H	-0.252234	0.512644	-0.458700
H270	H	-0.152370	0.464710	-0.406874
H271	H	-0.130852	0.451623	-0.314450
H272	H	-0.209201	0.486471	-0.273851
H273	H	-0.309066	0.534406	-0.325677
C274	C	-0.107191	-0.078884	-0.028312
C275	C	-0.049163	-0.107698	-0.028722
C276	C	-0.020346	-0.078081	-0.029529
C277	C	-0.049558	-0.019651	-0.029927
C278	C	-0.107589	0.009166	-0.029517
C279	C	-0.136406	-0.020451	-0.028710
H280	H	-0.027536	-0.150954	-0.028428
H281	H	0.022613	-0.099414	-0.029833
H282	H	-0.028226	0.002272	-0.030525
H283	H	-0.129216	0.052422	-0.029812
H284	H	-0.179365	0.000882	-0.028407
H285	H	-0.258358	-0.086616	0.264453
H286	H	-0.690492	-0.322048	0.019398
H287	H	-0.258357	-0.379120	0.264434
H288	H	-0.690817	0.677680	-0.547206
C289	C	-0.107179	-0.245224	-0.028311
C290	C	-0.130272	-0.242644	-0.074975
C291	C	-0.101433	-0.300278	-0.075770
C292	C	-0.049503	-0.360492	-0.029902
C293	C	-0.026407	-0.363074	0.016765
C294	C	-0.055246	-0.305440	0.017561
H295	H	-0.168716	-0.198068	-0.108932
H296	H	-0.118530	-0.298366	-0.110316
H297	H	-0.028155	-0.403156	-0.030490
H298	H	0.012037	-0.407650	0.050723
H299	H	-0.038149	-0.307352	0.052107
H300	H	-0.114679	-0.522807	0.408119
C301	C	0.178078	-0.530525	0.256978
C302	C	0.178478	-0.501709	0.198945
C303	C	0.179287	-0.531331	0.170135
C304	C	0.179696	-0.589770	0.199357
C305	C	0.179295	-0.618590	0.257393
C306	C	0.178486	-0.588967	0.286204
H307	H	0.178176	-0.458446	0.177310
H308	H	0.179584	-0.509997	0.127172
H309	H	0.180295	-0.611698	0.178030
H310	H	0.179598	-0.661852	0.279028
H311	H	0.178190	-0.610302	0.329166
C312	C	0.130978	-0.135688	-0.562491
C313	C	0.179916	-0.173893	-0.573680
C314	C	0.182147	-0.146162	-0.631068
C315	C	0.135441	-0.080226	-0.677267
C316	C	0.086501	-0.042017	-0.666080
C317	C	0.084269	-0.069748	-0.608692
H318	H	0.214493	-0.222707	-0.539479
H319	H	0.218377	-0.174447	-0.639349
H320	H	0.137093	-0.059698	-0.719749
H321	H	0.051923	0.006797	-0.700281
H322	H	0.048040	-0.041463	-0.600411
C323	C	0.178072	-0.530536	0.423323
C324	C	0.178469	-0.501725	0.452543
C325	C	0.179274	-0.531352	0.510977
C326	C	0.179682	-0.589790	0.540190
C327	C	0.179285	-0.618605	0.510969
C328	C	0.178480	-0.588978	0.452535
H329	H	0.178168	-0.458463	0.430919
H330	H	0.179569	-0.510022	0.532608
H331	H	0.180278	-0.611722	0.583445
H332	H	0.179586	-0.661867	0.532593
H333	H	0.178186	-0.610308	0.430904
H334	H	-0.302652	-0.287333	-0.403167
C335	C	-0.107191	-0.078925	0.256981
C336	C	-0.136402	-0.020487	0.198950
C337	C	-0.107585	0.009131	0.170145
C338	C	-0.049555	-0.019689	0.199371
C339	C	-0.020341	-0.078130	0.257405
C340	C	-0.049158	-0.107748	0.286210
H341	H	-0.179362	0.000850	0.177312
H342	H	-0.129212	0.052393	0.127184
H343	H	-0.028223	0.002236	0.178048
H344	H	0.022619	-0.099467	0.279043
H345	H	-0.027531	-0.151011	0.329171
H346	H	-0.447073	0.678020	-0.547557
H347	H	-0.379918	0.443941	-0.326613
H348	H	-0.114684	-0.230310	0.408133
C349	C	-0.340460	-0.241578	-0.343032
C350	C	-0.321278	-0.307459	-0.296745
C351	C	-0.291501	-0.334998	-0.239360
C352	C	-0.280906	-0.296654	-0.228263
C353	C	-0.300087	-0.230768	-0.274551
C354	C	-0.329864	-0.203230	-0.331936
H355	H	-0.329122	-0.335847	-0.304959
H356	H	-0.277302	-0.383771	-0.205095
H357	H	-0.258863	-0.317039	-0.185783
H358	H	-0.292244	-0.202381	-0.266337
H359	H	-0.344064	-0.154457	-0.366201
H360	H	0.117290	-0.196956	-0.326627
H361	H	0.130406	-0.286972	-0.403829
H362	H	0.123038	-0.234377	-0.358280
C363	C	0.117089	-0.045585	-0.485484
C364	C	0.070426	0.021598	-0.529559
C365	C	0.069625	0.051210	-0.587991
C366	C	0.115487	0.013637	-0.602349
C367	C	0.162154	-0.053550	-0.558274
C368	C	0.162955	-0.083162	-0.499841
H369	H	0.036473	0.049415	-0.518932
H370	H	0.035078	0.100947	-0.620619
H371	H	0.114893	0.035557	-0.645604
H372	H	0.196106	-0.081367	-0.568901
H373	H	0.197501	-0.132899	-0.467214
C374	C	0.117081	-0.045595	-0.319131
C375	C	0.162946	-0.039542	-0.310810
C376	C	0.162136	-0.009935	-0.281984
C377	C	0.115460	0.013618	-0.261478
C378	C	0.069592	0.007566	-0.269797
C379	C	0.070402	-0.022041	-0.298624
H380	H	0.197501	-0.056978	-0.325990
H381	H	0.196091	-0.005455	-0.275825
H382	H	0.114861	0.035535	-0.240139
H383	H	0.035037	0.025003	-0.254617
H384	H	0.036447	-0.026521	-0.304783
H385	H	-0.258359	-0.086568	-0.028112
H386	H	0.130388	-0.142913	-0.159727
H387	H	-0.379922	-0.556092	0.032492
H388	H	-0.303016	-0.710195	0.019376
C389	C	-0.531085	0.436256	-0.319141
C390	C	-0.539379	0.430182	-0.267209
C391	C	-0.568197	0.400568	-0.238397
C392	C	-0.588721	0.377026	-0.261517
C393	C	-0.580428	0.383099	-0.313452
C394	C	-0.551610	0.412714	-0.342263
H395	H	-0.524185	0.447610	-0.250092
H396	H	-0.574336	0.396072	-0.199952
H397	H	-0.610054	0.355104	-0.240189
H398	H	-0.595622	0.365672	-0.330569
H399	H	-0.545471	0.417209	-0.380709
C400	C	0.130983	0.107638	-0.395362
C401	C	0.176574	0.066765	-0.342223
C402	C	0.178805	0.094191	-0.312262
C403	C	0.135444	0.162489	-0.335441
C404	C	0.089850	0.203366	-0.388582
C405	C	0.087619	0.175940	-0.418543
H406	H	0.208676	0.016203	-0.325063
H407	H	0.212557	0.063931	-0.272923
H408	H	0.137095	0.182791	-0.313262
H409	H	0.057748	0.253928	-0.405742
H410	H	0.053867	0.206200	-0.457882
C411	C	-0.698565	-0.472946	0.018805
C412	C	-0.723555	-0.492979	0.062160
C413	C	-0.753400	-0.520518	0.059921
C414	C	-0.758255	-0.528024	0.014327
C415	C	-0.733264	-0.507991	-0.029032
C416	C	-0.703419	-0.480452	-0.026793
H417	H	-0.719961	-0.487423	0.095915
H418	H	-0.771900	-0.535348	0.092018
H419	H	-0.780348	-0.548410	0.012669
H420	H	-0.736857	-0.513547	-0.062787
H421	H	-0.684919	-0.465622	-0.058890
H422	H	0.123023	-0.090311	-0.257863
C423	C	0.122467	-0.241590	-0.265259
C424	C	0.169177	-0.307523	-0.245524
C425	C	0.166950	-0.335252	-0.275183
C426	C	0.118014	-0.297047	-0.324577
C427	C	0.071300	-0.231110	-0.344315
C428	C	0.073527	-0.203381	-0.314656
H429	H	0.205406	-0.335808	-0.208957
H430	H	0.201530	-0.384063	-0.260571
H431	H	0.116365	-0.317574	-0.346533
H432	H	0.035072	-0.202825	-0.380883
H433	H	0.038947	-0.154570	-0.329268
H434	H	0.123031	0.009743	-0.357914
C435	C	0.131006	0.107993	-0.562113
C436	C	0.087655	0.176340	-0.607137
C437	C	0.089899	0.203946	-0.664520
C438	C	0.135494	0.163206	-0.676881
C439	C	0.178849	0.094855	-0.631856
C440	C	0.176605	0.067248	-0.574473
H441	H	0.053900	0.206502	-0.597988
H442	H	0.057805	0.254544	-0.697850
H443	H	0.137155	0.183642	-0.719359
H444	H	0.212604	0.064693	-0.641005
H445	H	0.208699	0.016650	-0.541143
H446	H	-0.447075	0.290129	-0.159733
H447	H	0.123059	0.010043	-0.501975
H448	H	-0.592670	0.625071	-0.501973
C449	C	0.130992	-0.302481	-0.151658
C450	C	0.179931	-0.362525	-0.102218
C451	C	0.182166	-0.422148	-0.072374
C452	C	0.135462	-0.421725	-0.091970
C453	C	0.086519	-0.361679	-0.141413
C454	C	0.084284	-0.302057	-0.171257
H455	H	0.214507	-0.362840	-0.087709
H456	H	0.218396	-0.466598	-0.035773
H457	H	0.137116	-0.465861	-0.069877
H458	H	0.051943	-0.361364	-0.155921
H459	H	0.048054	-0.257606	-0.207858
H460	H	-0.348244	0.380614	-0.257539
C461	C	-0.531094	-0.045582	-0.485506
C462	C	-0.583024	-0.039513	-0.499866
C463	C	-0.611845	-0.009886	-0.558299
C464	C	-0.588735	0.013672	-0.602372
C465	C	-0.536802	0.007603	-0.588013
C466	C	-0.507981	-0.022024	-0.529580
H467	H	-0.600134	-0.056952	-0.467240
H468	H	-0.650289	-0.005394	-0.568929
H469	H	-0.610069	0.035603	-0.645628
H470	H	-0.519692	0.025042	-0.620640
H471	H	-0.469537	-0.026516	-0.518951
H472	H	-0.348242	0.481343	-0.358259
C473	C	-0.287748	-0.302822	-0.152035
C474	C	-0.276566	-0.362951	-0.102646
C475	C	-0.219178	-0.422569	-0.072979
C476	C	-0.172974	-0.422059	-0.092701
C477	C	-0.184156	-0.361928	-0.142092
C478	C	-0.241543	-0.302310	-0.171759
H479	H	-0.310770	-0.363331	-0.088045
H480	H	-0.210901	-0.467082	-0.036417
H481	H	-0.130493	-0.466192	-0.070740
H482	H	-0.149952	-0.361548	-0.156693
H483	H	-0.249820	-0.257797	-0.208322
C484	C	-0.531075	0.602631	-0.485466
C485	C	-0.582984	0.662855	-0.499802
C486	C	-0.611789	0.720515	-0.558221
C487	C	-0.588685	0.717950	-0.602304
C488	C	-0.536773	0.657723	-0.587969
C489	C	-0.507968	0.600063	-0.529550
H490	H	-0.600090	0.664757	-0.467168
H491	H	-0.650218	0.765099	-0.568833
H492	H	-0.610008	0.760633	-0.645550
H493	H	-0.519667	0.655822	-0.620603
H494	H	-0.469540	0.555479	-0.518939
C495	C	-0.506868	-0.075199	-0.265280
C496	C	-0.553064	-0.075714	-0.245543
C497	C	-0.610453	-0.016099	-0.275201
C498	C	-0.621645	0.044032	-0.324596
C499	C	-0.575448	0.044550	-0.344335
C500	C	-0.518059	-0.015066	-0.314677
H501	H	-0.544780	-0.120228	-0.208976
H502	H	-0.644651	-0.016482	-0.260589
H503	H	-0.664128	0.088163	-0.346551
H504	H	-0.583732	0.089064	-0.380903
H505	H	-0.483860	-0.014682	-0.329290
H506	H	-0.523604	-0.053284	-0.326647
H507	H	-0.492303	0.380909	-0.257867
H508	H	0.123035	-0.090300	-0.502039
H509	H	-0.592359	0.480981	-0.357920
C510	C	-0.507213	-0.367802	0.027342
C511	C	-0.552231	-0.347773	-0.016013
C512	C	-0.609615	-0.320240	-0.013773
C513	C	-0.621980	-0.312735	0.031822
C514	C	-0.576960	-0.332764	0.075180
C515	C	-0.519577	-0.360298	0.072940
H516	H	-0.543079	-0.353328	-0.049768
H517	H	-0.642941	-0.305412	-0.045870
H518	H	-0.664459	-0.292353	0.033480
H519	H	-0.586113	-0.327209	0.108935
H520	H	-0.486250	-0.375125	0.105037
H521	H	-0.690494	0.533582	-0.403153
H522	H	-0.348248	-0.619417	0.026742
C523	C	-0.454859	-0.306553	0.018806
C524	C	-0.474070	-0.307072	0.065523
C525	C	-0.504032	-0.247456	0.063295
C526	C	-0.514783	-0.187320	0.014349
C527	C	-0.495572	-0.186798	-0.032372
C528	C	-0.465610	-0.246415	-0.030143
H529	H	-0.466112	-0.351590	0.101759
H530	H	-0.518253	-0.247842	0.097881
H531	H	-0.536962	-0.143188	0.012699
H532	H	-0.503530	-0.142280	-0.068608
H533	H	-0.451389	-0.246028	-0.064729
C534	C	-0.584955	-0.534192	0.027337
C535	C	-0.604676	-0.533689	-0.019371
C536	C	-0.575006	-0.593310	-0.017136
C537	C	-0.525615	-0.653433	0.031807
C538	C	-0.505891	-0.653938	0.078519
C539	C	-0.535561	-0.594317	0.076283
H540	H	-0.641241	-0.489180	-0.055605
H541	H	-0.589608	-0.592935	-0.051715
H542	H	-0.503651	-0.697568	0.033462
H543	H	-0.469326	-0.698446	0.114753
H544	H	-0.520959	-0.594691	0.110863
H545	H	-0.492302	0.625111	-0.502024
H546	H	-0.523602	-0.412416	0.032492
H547	H	-0.492305	-0.619125	0.026767
C548	C	-0.454856	-0.717024	0.018826
C549	C	-0.474081	-0.743997	0.065536
C550	C	-0.504039	-0.771427	0.063309
C551	C	-0.514773	-0.771884	0.014372
C552	C	-0.495547	-0.744909	-0.032341
C553	C	-0.465589	-0.717479	-0.030114
H554	H	-0.466136	-0.743660	0.101765
H555	H	-0.518271	-0.791396	0.097889
H556	H	-0.536950	-0.792189	0.012724
H557	H	-0.503493	-0.745246	-0.068570
H558	H	-0.451357	-0.697511	-0.064695
H559	H	-0.348250	-0.518687	0.026730
H560	H	-0.303023	-0.465770	0.019357
H561	H	-0.379925	-0.196959	-0.326649
C562	C	-0.454148	-0.136441	-0.562136
C563	C	-0.464753	-0.174782	-0.573230
C564	C	-0.494532	-0.147245	-0.630613
C565	C	-0.513706	-0.081367	-0.676903
C566	C	-0.503102	-0.043022	-0.665811
C567	C	-0.473323	-0.070560	-0.608427
H568	H	-0.450558	-0.223552	-0.538962
H569	H	-0.502381	-0.175630	-0.638824
H570	H	-0.535750	-0.060982	-0.719381
H571	H	-0.517296	0.005748	-0.700078
H572	H	-0.465473	-0.042174	-0.600216
H573	H	-0.348193	-0.234426	-0.257886
C574	C	-0.698207	0.107639	-0.562510
C575	C	-0.702928	0.066768	-0.574776
C576	C	-0.732586	0.094197	-0.632163
C577	C	-0.757523	0.162496	-0.677285
C578	C	-0.752802	0.203371	-0.665020
C579	C	-0.723144	0.175942	-0.607632
H580	H	-0.684467	0.016206	-0.541373
H581	H	-0.736080	0.063938	-0.641242
H582	H	-0.779477	0.182800	-0.719767
H583	H	-0.771263	0.253934	-0.698423
H584	H	-0.719650	0.206201	-0.598553
H585	H	-0.491953	-0.090678	-0.502003
C586	C	-0.698575	0.107987	-0.396107
C587	C	-0.703429	0.067246	-0.343003
C588	C	-0.733275	0.094852	-0.313225
C589	C	-0.758267	0.163199	-0.336552
C590	C	-0.753413	0.203943	-0.389658
C591	C	-0.723567	0.176337	-0.419436
H592	H	-0.684928	0.016649	-0.325733
H593	H	-0.736867	0.064690	-0.273912
H594	H	-0.780360	0.183634	-0.314508
H595	H	-0.771914	0.254541	-0.406929
H596	H	-0.719975	0.206499	-0.458749
C597	C	-0.454154	-0.136441	-0.151679
C598	C	-0.507254	-0.128937	-0.146818
C599	C	-0.537031	-0.101397	-0.116974
C600	C	-0.513709	-0.081361	-0.091990
C601	C	-0.460607	-0.088865	-0.096850
C602	C	-0.430829	-0.116405	-0.126694
H603	H	-0.524521	-0.143769	-0.165314
H604	H	-0.576341	-0.095843	-0.113376
H605	H	-0.535752	-0.060975	-0.069897
H606	H	-0.443340	-0.074032	-0.078354
H607	H	-0.391520	-0.121959	-0.130292
H608	H	-0.592365	0.009742	-0.502060
H609	H	-0.592359	-0.374950	0.026761
H610	H	-0.592678	0.010046	-0.358301
