data_functionalizedCrystal
_audit_creation_method	'MofGen! by Chris Wilmer'
_symmetry_space_group_name_H-M	'P1'
_symmetry_Int_Tables_number	1
_symmetry_cell_setting	triclinic
loop_
_symmetry_equiv_pos_as_xyz
  x,y,z
_cell_length_a	6.817900
_cell_length_b	16.417825
_cell_length_c	14.858572
_cell_angle_alpha	95.076393
_cell_angle_beta	104.524003
_cell_angle_gamma	103.385495
loop_
_atom_site_label
_atom_site_type_symbol
_atom_site_fract_x
_atom_site_fract_y
_atom_site_fract_z
V1	V	-4.037850	-0.116413	-0.290288
V2	V	-3.704517	0.216920	0.043046
V3	V	-3.371184	0.550254	0.376379
O4	O	-4.025633	0.005052	-0.284426
O5	O	-3.692299	0.338385	0.048907
O6	O	-3.358966	0.671718	0.382240
O7	O	-3.988830	-0.230306	-0.288625
O8	O	-3.655496	0.103027	0.044709
O9	O	-3.322163	0.436361	0.378042
O10	O	-3.994497	-0.114860	-0.416745
O11	O	-3.661163	0.218473	-0.083411
O12	O	-3.327830	0.551806	0.249922
O13	O	-4.019927	-0.111193	-0.155419
O14	O	-3.686593	0.222140	0.177914
O15	O	-3.353260	0.555474	0.511247
V16	V	-4.520905	-0.101856	-0.274117
V17	V	-4.187572	0.231477	0.059216
V18	V	-3.854238	0.564810	0.392550
O19	O	-4.300137	-0.148344	-0.325759
O20	O	-3.966803	0.184989	0.007574
O21	O	-3.633470	0.518322	0.340908
O22	O	-4.708816	-0.069925	-0.238646
O23	O	-4.375483	0.263408	0.094688
O24	O	-4.042149	0.596742	0.428021
O25	O	-4.346719	0.012036	-0.275780
O26	O	-4.013386	0.345370	0.057553
O27	O	-3.680052	0.678703	0.390887
O28	O	-4.650519	-0.223321	-0.279978
O29	O	-4.317186	0.110012	0.053355
O30	O	-3.983853	0.443345	0.386688
O31	O	-4.656225	-0.107076	-0.408985
O32	O	-4.322892	0.226257	-0.075652
O33	O	-3.989559	0.559590	0.257681
O34	O	-4.341052	-0.103409	-0.147660
O35	O	-4.007719	0.229924	0.185674
O36	O	-3.674385	0.563258	0.519007
C37	C	-3.833516	-0.258063	-0.284129
C38	C	-3.500183	0.075270	0.049205
C39	C	-3.166850	0.408604	0.382538
C40	C	-3.874757	-0.351173	-0.283612
C41	C	-3.541423	-0.017840	0.049721
C42	C	-3.208090	0.315493	0.383055
C43	C	-3.926095	-0.553281	-0.197243
C44	C	-3.592762	-0.219947	0.136090
C45	C	-3.259429	0.113386	0.469424
C46	C	-3.964868	-0.640769	-0.196765
C47	C	-3.631534	-0.307436	0.136568
C48	C	-3.298201	0.025898	0.469902
C49	C	-4.052041	-0.664989	-0.367172
C50	C	-3.718707	-0.331656	-0.033839
C51	C	-3.385374	0.001678	0.299495
C52	C	-4.013283	-0.577502	-0.367649
C53	C	-3.679949	-0.244169	-0.034316
C54	C	-3.346616	0.089164	0.299017
C55	C	-3.950299	-0.521650	-0.282682
C56	C	-3.616966	-0.188316	0.050651
C57	C	-3.283633	0.145017	0.383985
C58	C	-4.027830	-0.696625	-0.281726
C59	C	-3.694496	-0.363292	0.051607
C60	C	-3.361163	-0.029958	0.384940
C61	C	-4.069869	-0.791484	-0.281208
C62	C	-3.736535	-0.458151	0.052125
C63	C	-3.403202	-0.124817	0.385458
C64	C	-3.908261	-0.426785	-0.283199
C65	C	-3.574928	-0.093451	0.050134
C66	C	-3.241595	0.239882	0.383467
C67	C	-3.840744	-0.110800	-0.447557
C68	C	-3.507411	0.222534	-0.114224
C69	C	-3.174077	0.555867	0.219109
C70	C	-3.886577	-0.110284	-0.550939
C71	C	-3.553244	0.223049	-0.217606
C72	C	-3.219910	0.556383	0.115728
C73	C	-4.054327	-0.108399	-0.929502
C74	C	-3.720993	0.224935	-0.596168
C75	C	-3.387660	0.558268	-0.262835
C76	C	-4.007645	-0.108923	-0.824174
C77	C	-3.674312	0.224410	-0.490840
C78	C	-3.340978	0.557743	-0.157507
C79	C	-3.970453	-0.109342	-0.740224
C80	C	-3.637120	0.223991	-0.406890
C81	C	-3.303787	0.557325	-0.073557
C82	C	-3.923769	-0.109865	-0.634889
C83	C	-3.590435	0.223468	-0.301556
C84	C	-3.257102	0.556802	0.031778
C85	C	-4.165374	0.039789	-0.280274
C86	C	-3.832041	0.373123	0.053060
C87	C	-3.498708	0.706456	0.386393
C88	C	-4.103372	0.132899	-0.280796
C89	C	-3.770039	0.466232	0.052537
C90	C	-3.436706	0.799565	0.385870
C91	C	-4.158147	-0.107472	-0.116842
C92	C	-3.824813	0.225861	0.216491
C93	C	-3.491480	0.559194	0.549824
C94	C	-4.091552	-0.107984	-0.013460
C95	C	-3.758219	0.225349	0.319873
C96	C	-3.424886	0.558683	0.653207
H97	H	-3.874811	-0.507807	-0.128057
H98	H	-3.541478	-0.174474	0.205276
H99	H	-3.208144	0.158860	0.538610
H100	H	-4.103322	-0.710475	-0.436349
H101	H	-3.769988	-0.377141	-0.103016
H102	H	-3.436655	-0.043808	0.230317
O103	O	-3.938754	-0.674885	-0.104611
O104	O	-3.605421	-0.341551	0.228722
O105	O	-3.272088	-0.008218	0.562055
H106	H	-3.818048	-0.710978	-0.096844
H107	H	-3.484714	-0.377644	0.236489
H108	H	-3.151381	-0.044311	0.569823
O109	O	-4.039374	-0.543377	-0.459805
O110	O	-3.706041	-0.210043	-0.126471
O111	O	-3.372707	0.123290	0.206862
H112	H	-4.089647	-0.596910	-0.518807
H113	H	-3.756314	-0.263577	-0.185474
H114	H	-3.422980	0.069757	0.147860
