data_functionalizedCrystal
_audit_creation_method	'MofGen! by Chris Wilmer'
_symmetry_space_group_name_H-M	'P1'
_symmetry_Int_Tables_number	1
_symmetry_cell_setting	triclinic
loop_
_symmetry_equiv_pos_as_xyz
  x,y,z
_cell_length_a	10.654550
_cell_length_b	16.109301
_cell_length_c	14.586319
_cell_angle_alpha	90.005770
_cell_angle_beta	90.007659
_cell_angle_gamma	83.973192
loop_
_atom_site_label
_atom_site_type_symbol
_atom_site_fract_x
_atom_site_fract_y
_atom_site_fract_z
O1	O	-1.666256	-0.116773	-0.076319
O2	O	-1.166256	0.383227	0.423681
O3	O	-1.300627	-0.127899	-0.076305
O4	O	-0.800627	0.372101	0.423695
O5	O	-1.493486	-0.001365	-0.076303
O6	O	-0.993486	0.498635	0.423697
O7	O	-1.473398	-0.243307	-0.076321
O8	O	-0.973398	0.256693	0.423679
O9	O	-1.493470	-0.001362	0.076178
O10	O	-0.993470	0.498638	0.576178
O11	O	-1.300612	-0.127896	0.076176
O12	O	-0.800612	0.372104	0.576176
O13	O	-1.666241	-0.116770	0.076162
O14	O	-1.166241	0.383230	0.576162
Cu15	Cu	-1.483425	-0.122333	0.090092
Cu16	Cu	-0.983425	0.377667	0.590092
Cu17	Cu	-1.483443	-0.122336	-0.090234
Cu18	Cu	-0.983443	0.377664	0.409766
O19	O	-1.473382	-0.243304	0.076160
O20	O	-0.973382	0.256696	0.576160
C21	C	-1.253832	-0.127080	-0.000062
C22	C	-0.753832	0.372920	0.499938
C23	C	-1.114422	-0.124636	-0.000056
C24	C	-0.614422	0.375364	0.499944
C25	C	-1.492665	0.029616	-0.000062
C26	C	-0.992665	0.529616	0.499938
C27	C	-1.490225	0.121926	-0.000061
C28	C	-0.990225	0.621926	0.499939
C29	C	-1.713036	-0.117589	-0.000083
C30	C	-1.213036	0.382411	0.499917
C31	C	-1.852446	-0.120033	-0.000094
C32	C	-1.352446	0.379967	0.499906
C33	C	-1.033926	-0.199138	-0.000075
C34	C	-0.533926	0.300862	0.499925
C35	C	-0.902936	-0.196836	-0.000091
C36	C	-0.402936	0.303164	0.499909
C37	C	-0.932952	-0.045526	-0.000073
C38	C	-0.432952	0.454474	0.499927
C39	C	-1.063939	-0.047828	-0.000050
C40	C	-0.563939	0.452172	0.499950
C41	C	-1.084409	-0.275946	-0.000081
C42	C	-0.584409	0.224054	0.499919
C43	C	-1.003911	-0.350453	-0.000101
C44	C	-0.503911	0.149547	0.499899
C45	C	-0.872921	-0.348152	-0.000117
C46	C	-0.372921	0.151848	0.499883
C47	C	-0.822430	-0.271343	-0.000113
C48	C	-0.322430	0.228657	0.499887
C49	C	-1.474204	-0.274286	-0.000083
C50	C	-0.974204	0.225714	0.499917
C51	C	-1.476643	-0.366595	-0.000090
C52	C	-0.976643	0.133405	0.499910
N53	N	-1.483421	-0.122330	0.216923
N54	N	-0.983421	0.377670	0.716923
C55	C	-1.598991	0.343552	-0.000079
C56	C	-1.098991	0.843552	0.499921
C57	C	-1.596689	0.430286	-0.000087
C58	C	-1.096689	0.930286	0.499913
C59	C	-1.367868	0.411772	-0.000074
C60	C	-0.867868	0.911772	0.499926
C61	C	-1.370172	0.325040	-0.000073
C62	C	-0.870172	0.825040	0.499927
C63	C	-1.485737	0.290932	-0.000071
C64	C	-0.985737	0.790932	0.499929
C65	C	-1.481131	0.464399	-0.000080
C66	C	-0.981131	0.964399	0.499920
C67	C	-1.478634	0.558440	-0.000088
C68	C	-0.978634	1.058440	0.499912
C69	C	-1.488234	0.196885	-0.000065
C70	C	-0.988234	0.696885	0.499935
N71	N	-1.483457	-0.122333	-0.217066
N72	N	-0.983457	0.377667	0.282934
C73	C	-1.568852	-0.066319	0.547918
C74	C	-1.068852	0.433681	1.047918
C75	C	-1.568849	-0.066319	0.451937
C76	C	-1.068849	0.433681	0.951937
C77	C	-1.398022	-0.178350	0.451946
C78	C	-0.898022	0.321650	0.951946
C79	C	-1.398032	-0.178353	0.547925
C80	C	-0.898032	0.321647	1.047925
C81	C	-1.483446	-0.122333	0.595909
C82	C	-0.983446	0.377667	1.095909
C83	C	-1.483432	-0.122330	0.403948
C84	C	-0.983432	0.377670	0.903948
C85	C	-1.483428	-0.122331	0.299881
C86	C	-0.983428	0.377669	0.799881
C87	C	-1.483451	-0.122333	0.699983
C88	C	-0.983451	0.377667	1.199983
H89	H	-1.191065	-0.277828	-0.000073
H90	H	-0.691065	0.222172	0.499927
Cl91	Cl	-1.227783	0.258884	-0.000071
Cl92	Cl	-0.727783	0.758884	0.499929
H93	H	-1.045031	-0.412988	-0.000097
H94	H	-0.545031	0.087012	0.499903
H95	H	-1.328483	-0.223969	0.587002
H96	H	-0.828483	0.276031	1.087002
H97	H	-1.328478	-0.223959	0.412868
H98	H	-0.828478	0.276041	0.912868
H99	H	-1.638403	-0.020705	0.586984
H100	H	-1.138403	0.479295	1.086984
Cl101	Cl	-0.657755	-0.268453	-0.000119
Cl102	Cl	-0.157755	0.231547	0.499881
Cl103	Cl	-0.771728	-0.441816	-0.000133
Cl104	Cl	-0.271728	0.058184	0.499867
Cl105	Cl	-1.676225	0.004099	0.391608
Cl106	Cl	-1.176225	0.504099	0.891608
Cl107	Cl	-1.739073	0.496434	-0.000099
Cl108	Cl	-1.239073	0.996434	0.499901
Cl109	Cl	-0.869475	0.051027	-0.000072
Cl110	Cl	-0.369475	0.551027	0.499928
H111	H	-1.273779	0.439553	-0.000074
H112	H	-0.773779	0.939553	0.499926
H113	H	-1.129482	0.012837	-0.000038
H114	H	-0.629482	0.512837	0.499962
H115	H	-1.693091	0.315785	-0.000080
H116	H	-1.193091	0.815785	0.499920
