data_functionalizedCrystal
_audit_creation_method	'MofGen! by Chris Wilmer'
_symmetry_space_group_name_H-M	'P1'
_symmetry_Int_Tables_number	1
_symmetry_cell_setting	triclinic
loop_
_symmetry_equiv_pos_as_xyz
  x,y,z
_cell_length_a	19.077212
_cell_length_b	19.120785
_cell_length_c	19.076919
_cell_angle_alpha	90.270819
_cell_angle_beta	90.114942
_cell_angle_gamma	94.653042
loop_
_atom_site_label
_atom_site_type_symbol
_atom_site_fract_x
_atom_site_fract_y
_atom_site_fract_z
Zn1	Zn	1.047852	-0.254945	0.429244
Zn2	Zn	1.047883	-0.367491	0.306732
Zn3	Zn	0.935082	-0.254576	0.307036
Zn4	Zn	0.925318	-0.376859	0.419049
O5	O	0.989034	-0.313468	0.365515
O6	O	1.146344	-0.266109	0.417132
O7	O	1.037019	-0.348438	0.208623
O8	O	0.954115	-0.156348	0.327642
O9	O	1.146366	-0.348796	0.327123
O10	O	1.036966	-0.156619	0.417428
O11	O	0.954145	-0.265479	0.208847
O12	O	0.835299	-0.274562	0.317755
O13	O	0.937473	-0.364762	0.518551
O14	O	0.828125	-0.364403	0.400050
O15	O	1.027498	-0.275193	0.526041
O16	O	1.027551	-0.467011	0.317237
O17	O	0.937503	-0.473893	0.399755
C18	C	0.806175	-0.320460	0.357830
C19	C	0.727946	-0.323469	0.354558
C20	C	0.287600	-0.345020	0.331125
C21	C	0.361105	-0.342189	0.334194
C22	C	0.397842	-0.297799	0.382661
C23	C	0.361070	-0.256232	0.428058
C24	C	0.287567	-0.259060	0.424985
C25	C	0.617671	-0.284730	0.396881
C26	C	0.691180	-0.281907	0.399952
C27	C	0.691210	-0.367863	0.306087
C28	C	0.617705	-0.370690	0.303021
C29	C	0.580940	-0.329120	0.348415
N30	N	0.472975	-0.294906	0.385801
N31	N	0.505808	-0.332010	0.345272
C32	C	0.981489	-0.495934	0.357373
C33	C	0.978325	-0.573993	0.353915
C34	C	0.958249	-1.015473	0.332037
C35	C	0.961223	-0.942129	0.335286
C36	C	1.005814	-0.905541	0.383691
C37	C	1.047429	-0.942303	0.428855
C38	C	1.044450	-1.015646	0.425609
C39	C	1.016961	-0.684097	0.395834
C40	C	1.019938	-0.610748	0.399075
C41	C	0.933731	-0.610580	0.305506
C42	C	0.930759	-0.683924	0.302262
C43	C	0.972371	-0.720679	0.347428
C44	C	1.008857	-0.830572	0.387011
C45	C	0.969324	-0.795648	0.344111
C46	C	1.172606	-0.306449	0.373231
C47	C	1.250834	-0.303458	0.376519
C48	C	0.981393	-0.321063	0.548457
C49	C	0.978137	-0.324300	0.626415
C50	C	0.996626	-0.130289	0.373706
C51	C	0.999861	-0.052229	0.377196
C52	C	0.996687	-0.305849	0.183290
C53	C	1.000088	-0.302410	0.105346
C54	C	1.023476	-0.279189	0.666941
C55	C	1.020408	-0.282228	0.740191
C56	C	0.972004	-0.330382	0.772914
C57	C	0.926660	-0.375495	0.732383
C58	C	0.929725	-0.372452	0.659134
C59	C	0.957809	-0.344480	0.991566
C60	C	0.954749	-0.347521	1.064820
C61	C	1.048496	-0.254252	1.072624
C62	C	1.051559	-0.251217	0.999373
C63	C	1.006213	-0.296327	0.958848
N64	N	0.968869	-0.333491	0.847787
N65	N	1.009346	-0.293214	0.883976
H66	H	0.257694	-0.381171	0.291660
H67	H	0.915330	-0.386736	1.091460
H68	H	0.927338	-0.912203	0.298514
F69	F	0.400233	-0.386411	0.285865
F70	F	0.578614	-0.417919	0.251421
F71	F	1.068688	-0.234237	0.783319
H72	H	0.721152	-0.401705	0.269130
H73	H	1.062894	-0.239979	0.640304
H74	H	0.721089	-0.245754	0.439420
H75	H	0.390987	-0.220086	0.467518
F76	F	0.909547	-0.392491	0.948445
F77	F	0.883298	-0.722858	0.250744
F78	F	0.578552	-0.240492	0.445198
H79	H	0.257632	-0.225214	0.461948
H80	H	1.045166	-0.800776	0.426422
F81	F	0.910792	-1.054405	0.280514
F82	F	0.889446	-0.571458	0.257442
F83	F	1.096752	-0.206244	1.115759
F84	F	0.881468	-0.420464	0.616003
F85	F	0.921864	-0.834588	0.292600
F86	F	1.103078	-0.199965	0.964553
H87	H	0.887246	-0.414701	0.759031
H88	H	1.056252	-0.580962	0.438494
F89	F	1.061242	-0.723205	0.443909
F90	F	1.088739	-1.054764	0.473675
F91	F	1.094880	-0.903362	0.480377
