data_functionalizedCrystal
_audit_creation_method	'MofGen! by Chris Wilmer'
_symmetry_space_group_name_H-M	'P1'
_symmetry_Int_Tables_number	1
_symmetry_cell_setting	triclinic
loop_
_symmetry_equiv_pos_as_xyz
  x,y,z
_cell_length_a	13.897448
_cell_length_b	13.033293
_cell_length_c	13.897441
_cell_angle_alpha	82.791234
_cell_angle_beta	89.970373
_cell_angle_gamma	97.187372
loop_
_atom_site_label
_atom_site_type_symbol
_atom_site_fract_x
_atom_site_fract_y
_atom_site_fract_z
Zn1	Zn	-0.196879	1.597757	-0.733027
Zn2	Zn	0.303121	2.097757	-0.233027
Zn3	Zn	-0.358211	1.597649	-0.571716
Zn4	Zn	0.141789	2.097649	-0.071716
Zn5	Zn	-0.217386	1.422990	-0.551220
Zn6	Zn	0.282614	1.922990	-0.051220
Zn7	Zn	-0.378604	1.422964	-0.712453
Zn8	Zn	0.121396	1.922964	-0.212453
O9	O	-0.287770	1.510340	-0.642104
O10	O	0.212230	2.010340	-0.142104
O11	O	-0.201163	1.743990	-0.728817
O12	O	0.298837	2.243990	-0.228817
O13	O	-0.339578	1.574446	-0.434011
O14	O	0.160422	2.074446	0.065989
O15	O	-0.079677	1.446230	-0.575370
O16	O	0.420323	1.946230	-0.075370
O17	O	-0.319693	1.743910	-0.610302
O18	O	0.180307	2.243910	-0.110302
O19	O	-0.064611	1.574630	-0.708943
O20	O	0.435389	2.074630	-0.208943
O21	O	-0.236114	1.446125	-0.418953
O22	O	0.263886	1.946125	0.081047
O23	O	-0.255888	1.276740	-0.555420
O24	O	0.244112	1.776740	-0.055420
O25	O	-0.354450	1.446185	-0.850168
O26	O	0.145550	1.946185	-0.350168
O27	O	-0.374335	1.276720	-0.673877
O28	O	0.125665	1.776720	-0.173877
O29	O	-0.220938	1.574605	-0.865284
O30	O	0.279062	2.074605	-0.365284
O31	O	-0.495904	1.574420	-0.590352
O32	O	0.004096	2.074420	-0.090352
O33	O	-0.510887	1.446080	-0.693751
O34	O	-0.010887	1.946080	-0.193751
C35	C	-0.319551	1.238810	-0.610193
C36	C	0.180449	1.738810	-0.110193
C37	C	-0.333170	1.122648	-0.596564
C38	C	0.166830	1.622648	-0.096564
C39	C	-0.280686	1.070899	-0.649217
C40	C	0.219314	1.570899	-0.149217
C41	C	-0.294761	0.950839	-0.635132
C42	C	0.205239	1.450839	-0.135132
C43	C	-0.538393	1.510264	-0.642067
C44	C	-0.038393	2.010264	-0.142067
C45	C	-0.645600	1.510327	-0.642095
C46	C	-0.145600	2.010327	-0.142095
C47	C	-0.841882	1.510436	-0.642168
C48	C	-0.341882	2.010436	-0.142168
C49	C	-0.732657	1.510373	-0.642130
C50	C	-0.232657	2.010373	-0.142130
C51	C	-0.036165	1.510445	-0.642165
C52	C	0.463835	2.010445	-0.142165
C53	C	0.071055	1.510490	-0.642192
C54	C	0.571055	2.010490	-0.142192
C55	C	-0.287681	1.510404	-0.893705
C56	C	0.212319	2.010404	-0.393705
C57	C	-0.287644	1.510431	-1.000922
C58	C	0.212356	2.010431	-0.500922
C59	C	-0.255866	1.782931	-0.674141
C60	C	0.244134	2.282931	-0.174141
C61	C	-0.242270	1.899092	-0.687793
C62	C	0.257730	2.399092	-0.187793
C63	C	-0.287614	1.510453	-1.087994
C64	C	0.212386	2.010453	-0.587994
C65	C	-0.287567	1.510483	-1.197230
C66	C	0.212433	2.010483	-0.697230
C67	C	-0.287781	1.510336	-0.391489
C68	C	0.212219	2.010336	0.108511
C69	C	-0.287524	1.510512	-0.284296
C70	C	0.212476	2.010512	0.215704
H71	H	-0.225330	1.115477	-0.704719
H72	H	0.274670	1.615477	-0.204719
C73	C	-0.168541	0.958704	-0.761798
C74	C	0.331459	1.458704	-0.261798
C75	C	-0.169260	1.065934	-0.761082
C76	C	0.330740	1.565934	-0.261082
C77	C	-0.101365	1.120879	-0.829251
C78	C	0.398635	1.620879	-0.329251
H79	H	-0.105735	0.940997	-0.745796
H80	H	0.394265	1.440997	-0.245796
H81	H	-0.184816	0.940956	-0.824536
H82	H	0.315184	1.440956	-0.324536
H83	H	-0.152979	1.083675	-0.698358
H84	H	0.347021	1.583675	-0.198358
H85	H	-0.232049	1.083672	-0.777095
H86	H	0.267951	1.583672	-0.277095
H87	H	-0.117640	1.103131	-0.891989
H88	H	0.382360	1.603131	-0.391989
H89	H	-0.038564	1.103164	-0.813243
H90	H	0.461436	1.603164	-0.313243
H91	H	-0.101850	1.193640	-0.828781
H92	H	0.398150	1.693640	-0.328781
C93	C	-0.368702	0.891359	-0.561269
C94	C	0.131298	1.391359	-0.061269
C95	C	-0.437899	0.828727	-0.608485
C96	C	0.062101	1.328727	-0.108485
C97	C	-0.506034	0.773930	-0.540478
C98	C	-0.006034	1.273930	-0.040478
H99	H	-0.336834	0.848678	-0.514313
H100	H	0.163166	1.348678	-0.014313
H101	H	-0.399866	0.939362	-0.530075
H102	H	0.100134	1.439362	-0.030075
H103	H	-0.406739	0.780730	-0.639663
H104	H	0.093261	1.280730	-0.139663
H105	H	-0.469792	0.871383	-0.655435
H106	H	0.030208	1.371383	-0.155435
H107	H	-0.537198	0.821933	-0.509284
H108	H	-0.037198	1.321933	-0.009284
H109	H	-0.474157	0.731255	-0.493526
H110	H	0.025843	1.231255	0.006474
H111	H	-0.552997	0.731436	-0.572505
H112	H	-0.052997	1.231436	-0.072505
H113	H	-0.388520	1.078069	-0.541056
H114	H	0.111480	1.578069	-0.041056
