data_functionalizedCrystal
_audit_creation_method	'MofGen! by Chris Wilmer'
_symmetry_space_group_name_H-M	'P1'
_symmetry_Int_Tables_number	1
_symmetry_cell_setting	triclinic
loop_
_symmetry_equiv_pos_as_xyz
  x,y,z
_cell_length_a	15.298114
_cell_length_b	15.299816
_cell_length_c	11.169409
_cell_angle_alpha	99.647603
_cell_angle_beta	99.666835
_cell_angle_gamma	69.256891
loop_
_atom_site_label
_atom_site_type_symbol
_atom_site_fract_x
_atom_site_fract_y
_atom_site_fract_z
Zn1	Zn	1.485572	-0.615756	-0.477842
Zn2	Zn	1.512356	-0.771234	-0.306803
Zn3	Zn	1.330078	-0.588932	-0.306852
Zn4	Zn	1.356935	-0.744294	-0.537081
O5	O	1.421235	-0.680054	-0.407145
O6	O	1.619244	-0.658881	-0.430341
O7	O	1.488146	-0.747099	-0.138878
O8	O	1.328256	-0.462403	-0.304763
O9	O	1.638922	-0.773110	-0.304680
O10	O	1.442497	-0.482110	-0.430388
O11	O	1.354227	-0.613163	-0.138914
O12	O	1.203522	-0.587041	-0.362205
O13	O	1.374030	-0.727195	-0.697155
O14	O	1.223254	-0.701185	-0.531353
O15	O	1.468539	-0.632759	-0.653632
O16	O	1.514188	-0.897748	-0.362122
O17	O	1.400001	-0.877955	-0.531306
C18	C	1.179650	-0.638279	-0.453213
C19	C	1.076302	-0.620430	-0.472955
C20	C	0.825895	-0.807630	-0.266348
C21	C	0.922995	-0.824399	-0.247792
C22	C	0.961327	-0.773409	-0.304081
C23	C	0.902549	-0.705646	-0.378930
C24	C	0.805438	-0.688870	-0.397481
C25	C	0.940870	-0.654649	-0.435214
C26	C	0.882091	-0.586886	-0.510062
C27	C	0.784991	-0.570114	-0.528611
C28	C	0.746659	-0.621104	-0.472321
C29	C	1.037980	-0.671425	-0.416662
C30	C	1.017523	-0.552664	-0.547795
C31	C	0.920423	-0.535895	-0.566352
C32	C	1.462941	-0.921586	-0.453158
C33	C	1.480867	-1.024929	-0.472867
C34	C	1.293720	-1.275533	-0.266576
C35	C	1.276872	-1.178436	-0.248063
C36	C	1.327870	-1.140055	-0.304262
C37	C	1.395718	-1.198779	-0.378978
C38	C	1.412562	-1.295885	-0.397501
C39	C	1.446712	-1.160406	-0.435186
C40	C	1.514559	-1.219131	-0.509903
C41	C	1.531401	-1.316227	-0.528421
C42	C	1.480404	-1.354609	-0.472222
C43	C	1.429867	-1.063301	-0.416663
C44	C	1.548709	-1.083653	-0.547588
C45	C	1.565557	-1.180750	-0.566102
C46	C	1.663765	-0.721993	-0.360897
C47	C	1.767116	-0.739864	-0.341189
C48	C	1.421292	-0.679964	-0.720153
C49	C	1.421316	-0.679926	-0.853539
C50	C	1.379393	-0.437583	-0.360973
C51	C	1.361562	-0.334257	-0.341298
C52	C	1.421221	-0.680086	-0.095331
C53	C	1.421332	-0.679894	0.038139
H54	H	0.872552	-0.480722	-0.627294
H55	H	1.374625	-1.015495	-0.355829
Cl56	Cl	1.306363	-1.017933	-0.281468
Cl57	Cl	1.229604	-1.323787	-0.195957
H58	H	1.048731	-0.511141	-0.593627
H59	H	0.667594	-0.607457	-0.487431
H60	H	1.221630	-1.130626	-0.187231
H61	H	0.737134	-0.514930	-0.589548
Cl62	Cl	1.111861	-0.756611	-0.322572
Cl63	Cl	0.996877	-0.909564	-0.153673
H64	H	1.494121	-1.433673	-0.487287
Cl65	Cl	1.616678	-1.390047	-0.622378
H66	H	1.620799	-1.228577	-0.626937
H67	H	1.590234	-1.052404	-0.593353
H68	H	1.040391	-0.787066	-0.288967
H69	H	0.794675	-0.849133	-0.220517
