data_functionalizedCrystal
_audit_creation_method	'MofGen! by Chris Wilmer'
_symmetry_space_group_name_H-M	'P1'
_symmetry_Int_Tables_number	1
_symmetry_cell_setting	triclinic
loop_
_symmetry_equiv_pos_as_xyz
  x,y,z
_cell_length_a	10.654555
_cell_length_b	9.798715
_cell_length_c	10.654549
_cell_angle_alpha	90.002164
_cell_angle_beta	95.514124
_cell_angle_gamma	89.998950
loop_
_atom_site_label
_atom_site_type_symbol
_atom_site_fract_x
_atom_site_fract_y
_atom_site_fract_z
O1	O	-1.667836	0.113405	0.176426
O2	O	-1.302358	0.113426	0.193226
O3	O	-1.493501	0.113409	0.002087
O4	O	-1.476694	0.113421	0.367565
O5	O	-1.493486	-0.113573	0.002086
O6	O	-1.302344	-0.113557	0.193225
O7	O	-1.667822	-0.113577	0.176426
Zn8	Zn	-1.485081	-0.149605	0.184825
Zn9	Zn	-1.485100	0.149454	0.184826
O10	O	-1.476680	-0.113561	0.367565
C11	C	-1.255553	-0.000063	0.191991
C12	C	-1.116110	-0.000055	0.188296
N13	N	-1.485077	-0.353705	0.184824
C14	C	-0.919573	0.123666	0.183095
C15	C	-1.050595	0.123672	0.186558
C16	C	-1.050598	-0.123796	0.186557
C17	C	-0.919579	-0.123801	0.183085
C18	C	-1.565332	-0.421489	0.104217
C19	C	-1.565352	-0.578651	0.104212
C20	C	-0.714627	-0.000081	0.177662
C21	C	-0.854069	-0.000066	0.181360
C22	C	-1.492259	-0.000080	-0.044711
C23	C	-1.488568	-0.000076	-0.184155
N24	N	-1.485113	0.353553	0.184817
C25	C	-1.597631	-0.000073	-0.394668
C26	C	-1.601109	-0.000084	-0.263647
C27	C	-1.372540	-0.000071	-0.235689
C28	C	-1.369063	-0.000070	-0.366708
C29	C	-1.477921	-0.000068	0.414363
C30	C	-1.481613	-0.000064	0.553806
H31	H	-0.866238	0.224419	0.181689
C32	C	-1.658137	-0.342723	0.010985
H33	H	-1.708486	-0.405630	-0.039594
H34	H	-1.710890	-0.286967	0.056539
H35	H	-1.612283	-0.286996	-0.041530
C36	C	-1.392285	-0.567725	0.278058
H37	H	-1.341953	-0.630647	0.328633
H38	H	-1.339517	-0.511988	0.232508
H39	H	-1.438126	-0.511980	0.330576
H40	H	-1.416377	-0.412023	0.253828
H41	H	-1.689276	-0.000068	-0.459382
H42	H	-1.103923	0.224427	0.187969
C43	C	-1.728729	-0.000085	-0.206973
H44	H	-1.795256	-0.000071	-0.273080
H45	H	-1.734839	-0.079240	-0.156448
H46	H	-1.734837	0.079078	-0.156441
H47	H	-1.103952	-0.224537	0.187965
C48	C	-1.248747	-0.000060	-0.148252
H49	H	-1.267432	-0.000047	-0.062841
H50	H	-1.201210	-0.079208	-0.163979
H51	H	-1.201232	0.079109	-0.163982
H52	H	-1.634067	-0.636943	0.035205
C53	C	-1.241440	-0.000058	-0.423397
H54	H	-1.255492	-0.000071	-0.512811
H55	H	-1.195054	0.079097	-0.396183
H56	H	-1.195050	-0.079220	-0.396186
C57	C	-0.847520	-0.259913	0.181181
H58	H	-0.905296	-0.333604	0.182724
H59	H	-0.805348	-0.265060	0.106719
H60	H	-0.787470	-0.265049	0.252945
