data_functionalizedCrystal
_audit_creation_method	'MofGen! by Chris Wilmer'
_symmetry_space_group_name_H-M	'P1'
_symmetry_Int_Tables_number	1
_symmetry_cell_setting	triclinic
loop_
_symmetry_equiv_pos_as_xyz
  x,y,z
_cell_length_a	12.759401
_cell_length_b	19.120786
_cell_length_c	12.759393
_cell_angle_alpha	92.477119
_cell_angle_beta	90.018496
_cell_angle_gamma	92.465417
loop_
_atom_site_label
_atom_site_type_symbol
_atom_site_fract_x
_atom_site_fract_y
_atom_site_fract_z
Zn1	Zn	1.588335	-0.279587	0.576097
Zn2	Zn	1.580700	-0.397064	0.392903
Zn3	Zn	1.412635	-0.279624	0.400435
Zn4	Zn	1.405099	-0.397010	0.568548
O5	O	1.496692	-0.338321	0.484496
O6	O	1.734343	-0.295178	0.551804
O7	O	1.558364	-0.381523	0.246879
O8	O	1.442291	-0.181328	0.430048
O9	O	1.728733	-0.381488	0.417212
O10	O	1.571377	-0.181301	0.559107
O11	O	1.434887	-0.295241	0.252412
O12	O	1.264615	-0.295188	0.422728
O13	O	1.429448	-0.381396	0.716573
O14	O	1.259078	-0.381431	0.546240
O15	O	1.564070	-0.295126	0.722120
O16	O	1.551057	-0.495348	0.409892
O17	O	1.422044	-0.495308	0.538937
C18	C	1.223726	-0.338308	0.484482
C19	C	1.106948	-0.338320	0.484500
C20	C	1.049227	-0.383298	0.548698
C21	C	0.939502	-0.383307	0.548708
C22	C	0.945231	-0.293357	0.420316
C23	C	1.054953	-0.293345	0.420312
C24	C	1.101221	-0.428273	0.612887
C25	C	1.043499	-0.473256	0.677088
C26	C	0.933775	-0.473265	0.677099
C27	C	0.881772	-0.428291	0.612908
C28	C	1.484933	-0.520814	0.472801
C29	C	1.479998	-0.598885	0.467833
C30	C	1.544838	-0.635488	0.532747
C31	C	1.540197	-0.708844	0.528081
C32	C	1.470721	-0.745595	0.458494
C33	C	1.405874	-0.708987	0.393577
C34	C	1.410510	-0.635632	0.398249
C35	C	1.453358	-0.967082	0.441028
C36	C	1.448729	-1.040442	0.436358
C37	C	1.583052	-1.040294	0.570864
C38	C	1.587686	-0.966938	0.575526
C39	C	1.522835	-0.930336	0.510612
C40	C	1.465978	-0.820577	0.453721
C41	C	1.527574	-0.855356	0.515392
C42	C	1.770725	-0.338335	0.484510
C43	C	1.887501	-0.338341	0.484516
C44	C	1.496770	-0.338251	0.758534
C45	C	1.496804	-0.338220	0.875312
C46	C	1.508526	-0.155117	0.496260
C47	C	1.513569	-0.077046	0.501273
C48	C	1.496678	-0.338341	0.211527
C49	C	1.496861	-0.338174	0.094762
C50	C	1.566911	-0.293295	0.933065
C51	C	1.566938	-0.293270	1.042790
C52	C	1.426746	-0.383101	1.037002
C53	C	1.426715	-0.383122	0.927278
C54	C	1.636999	-0.248394	0.881099
C55	C	1.707113	-0.203465	0.938851
C56	C	1.707140	-0.203440	1.048577
C57	C	1.637053	-0.248343	1.100550
H58	H	0.902881	-0.256742	0.368054
H59	H	1.764170	-0.166903	0.896527
C60	C	1.118451	-0.243869	0.349688
N61	N	1.166277	-0.206601	0.296493
H62	H	0.886780	-0.509887	0.729382
C63	C	1.621270	-0.595068	0.609297
N64	N	1.678838	-0.564626	0.666960
H65	H	1.409413	-0.850508	0.397060
H66	H	1.637068	-0.248310	1.189897
C67	C	1.636973	-0.248415	0.760399
N68	N	1.636952	-0.248432	0.669487
H69	H	1.764223	-0.166852	1.095596
C70	C	1.603997	-0.814927	0.591933
N71	N	1.661564	-0.784470	0.649580
C72	C	1.349657	-0.432491	1.094177
N73	N	1.291593	-0.469694	1.137241
C74	C	1.349598	-0.432546	0.863747
N75	N	1.291512	-0.469772	0.815895
H76	H	1.357710	-0.605830	0.345390
H77	H	1.349301	-0.738915	0.336922
C78	C	1.221919	-0.428285	0.612854
N79	N	1.312828	-0.428299	0.612817
C80	C	1.654375	-1.080563	0.642271
N81	N	1.708096	-1.110893	0.696061
H82	H	1.400556	-0.937287	0.388171
H83	H	0.792427	-0.428296	0.612932
C84	C	1.664134	-0.926518	0.652057
N85	N	1.721726	-0.896072	0.709693
C86	C	1.100704	-0.522723	0.747695
N87	N	1.143790	-0.559984	0.800877
H88	H	1.593005	-0.738643	0.580933
H89	H	1.392148	-1.070363	0.379691
