data_functionalizedCrystal
_audit_creation_method	'MofGen! by Chris Wilmer'
_symmetry_space_group_name_H-M	'P1'
_symmetry_Int_Tables_number	1
_symmetry_cell_setting	triclinic
loop_
_symmetry_equiv_pos_as_xyz
  x,y,z
_cell_length_a	12.594517
_cell_length_b	29.839131
_cell_length_c	12.594509
_cell_angle_alpha	89.965034
_cell_angle_beta	89.978673
_cell_angle_gamma	90.041220
loop_
_atom_site_label
_atom_site_type_symbol
_atom_site_fract_x
_atom_site_fract_y
_atom_site_fract_z
Zn1	Zn	1.627079	-0.178842	-0.601810
Zn2	Zn	1.626891	-0.253977	-0.423811
Zn3	Zn	1.449083	-0.178861	-0.423839
Zn4	Zn	1.448987	-0.253946	-0.601741
O5	O	1.538010	-0.216407	-0.512800
O6	O	1.776000	-0.188814	-0.578215
O7	O	1.603266	-0.244034	-0.274869
O8	O	1.472814	-0.115992	-0.447488
O9	O	1.775862	-0.244015	-0.447440
O10	O	1.603587	-0.115978	-0.578243
O11	O	1.472632	-0.188847	-0.274889
O12	O	1.300125	-0.188816	-0.447421
O13	O	1.472649	-0.243962	-0.750696
O14	O	1.300054	-0.243981	-0.578124
O15	O	1.603493	-0.188784	-0.750747
O16	O	1.603173	-0.316840	-0.447373
O17	O	1.472467	-0.316817	-0.578097
C18	C	1.261469	-0.216398	-0.512769
C19	C	1.143164	-0.216404	-0.512781
C20	C	1.073918	-0.186360	-0.441827
C21	C	1.003064	-0.227339	-0.415635
C22	C	1.003219	-0.175445	-0.538990
C23	C	1.073868	-0.257405	-0.486538
C24	C	1.074029	-0.205484	-0.609939
C25	C	1.003207	-0.246491	-0.583784
C26	C	1.537818	-0.333129	-0.512747
C27	C	1.537833	-0.383064	-0.512760
C28	C	1.606192	-0.692706	-0.444831
C29	C	1.606324	-0.880379	-0.444873
O30	O	1.664293	-0.904643	-0.387076
N31	N	1.538231	-0.903849	-0.512880
C32	C	1.470105	-0.880397	-0.580888
O33	O	1.412199	-0.904665	-0.638741
C34	C	1.469980	-0.692725	-0.580851
C35	C	1.538070	-0.669258	-0.512831
C36	C	1.674278	-0.669239	-0.376818
C37	C	1.674240	-0.622324	-0.376804
C38	C	1.606117	-0.598875	-0.444804
C39	C	1.538032	-0.622342	-0.512817
C40	C	1.401860	-0.669274	-0.648863
C41	C	1.401837	-0.622353	-0.648849
C42	C	1.469927	-0.598886	-0.580829
C43	C	1.469872	-0.551978	-0.580803
N44	N	1.537965	-0.528509	-0.512796
C45	C	1.606087	-0.551957	-0.444796
C46	C	1.470174	-0.978927	-0.580901
C47	C	1.470204	-1.025845	-0.580909
C48	C	1.606424	-1.025824	-0.444895
C49	C	1.606388	-0.978906	-0.444882
C50	C	1.538267	-0.955458	-0.512893
C51	C	1.606003	-0.453432	-0.444772
C52	C	1.605956	-0.406512	-0.444761
C53	C	1.469740	-0.406537	-0.580778
C54	C	1.469782	-0.453452	-0.580785
C55	C	1.537922	-0.476899	-0.512779
O56	O	1.411941	-0.527685	-0.638578
O57	O	1.664002	-0.527681	-0.386968
C58	C	1.606230	-0.739622	-0.444845
C59	C	1.538145	-0.763089	-0.512859
C60	C	1.470022	-0.739640	-0.580858
C61	C	1.538175	-0.810006	-0.512867
C62	C	1.606297	-0.833455	-0.444867
C63	C	1.674390	-0.809986	-0.376859
C64	C	1.674353	-0.763070	-0.376846
C65	C	1.401929	-0.763109	-0.648866
C66	C	1.401972	-0.810025	-0.648873
C67	C	1.470094	-0.833473	-0.580874
C68	C	1.815631	-0.216416	-0.512832
C69	C	1.933936	-0.216420	-0.512846
C70	C	1.538081	-0.216367	-0.790421
C71	C	1.538112	-0.216350	-0.908727
C72	C	1.538232	-0.099228	-0.512876
C73	C	1.538327	-0.049294	-0.512909
C74	C	1.466968	-0.246345	-0.977952
C75	C	1.564077	-0.257322	-1.048740
C76	C	1.441079	-0.205346	-1.048739
C77	C	1.635272	-0.227349	-0.977956
C78	C	1.512208	-0.175355	-0.977949
C79	C	1.609384	-0.186316	-1.048704
C80	C	1.538000	-0.216413	-0.236259
C81	C	1.538176	-0.216304	-0.117954
H82	H	1.661403	-0.387407	-0.389367
O83	O	0.966212	-0.276808	-0.655392
C84	C	0.812513	-0.310643	-0.736370
C85	C	0.854268	-0.276286	-0.655263
H86	H	0.722002	-0.310239	-0.736277
H87	H	0.842882	-0.301626	-0.818953
H88	H	0.841756	-0.345526	-0.713871
H89	H	0.825042	-0.241391	-0.677663
H90	H	0.823907	-0.285341	-0.572701
H91	H	1.729798	-0.743967	-0.321458
O92	O	1.111201	-0.194362	-0.707865
C93	C	1.117393	-0.138600	-0.846207
C94	C	1.075242	-0.151141	-0.735287
H95	H	1.088318	-0.103659	-0.868421
H96	H	1.207902	-0.138994	-0.845442
H97	H	1.087101	-0.163881	-0.906910
H98	H	1.105455	-0.125872	-0.674521
H99	H	0.984733	-0.150761	-0.736139
O100	O	1.395130	-0.276588	-0.940831
C101	C	1.236794	-0.288621	-0.837171
C102	C	1.318052	-0.254321	-0.879161
H103	H	1.174469	-0.270633	-0.787284
H104	H	1.196526	-0.306044	-0.906919
H105	H	1.279282	-0.314586	-0.786160
H106	H	1.275645	-0.228329	-0.930156
H107	H	1.358317	-0.236932	-0.809365
O108	O	1.672639	-1.048537	-0.378743
C109	C	1.807814	-1.043580	-0.243900
C110	C	1.732861	-1.017799	-0.318731
H111	H	1.856539	-1.018739	-0.195377
H112	H	1.759049	-1.065571	-0.188131
H113	H	1.863397	-1.065519	-0.292856
H114	H	1.677263	-0.995835	-0.269860
H115	H	1.781692	-0.995836	-0.374503
O116	O	0.966319	-0.134081	-0.565288
C117	C	0.960351	-0.055663	-0.520106
C118	C	1.002225	-0.102481	-0.490228
H119	H	0.989345	-0.030104	-0.459424
H120	H	0.990788	-0.046064	-0.602296
H121	H	0.869843	-0.056169	-0.520683
H122	H	1.092730	-0.102011	-0.489590
H123	H	0.971707	-0.112062	-0.408058
O124	O	1.404019	-1.048569	-0.647075
C125	C	1.268866	-1.043624	-0.781940
C126	C	1.343779	-1.017837	-0.707070
H127	H	1.220126	-1.018789	-0.830450
H128	H	1.317662	-1.065540	-0.837719
H129	H	1.213293	-1.065640	-0.733014
H130	H	1.399366	-0.995797	-0.755910
H131	H	1.294917	-0.995949	-0.651288
H132	H	1.661491	-0.472516	-0.389396
H133	H	1.717382	-0.236676	-0.946994
H134	H	0.971896	-0.236586	-0.333498
H135	H	1.729687	-0.603220	-0.321420
O136	O	1.681351	-0.156027	-1.085357
C137	C	1.813599	-0.100809	-1.040464
C138	C	1.732146	-0.135100	-0.998812
H139	H	1.854673	-0.083873	-0.970514
H140	H	1.875259	-0.118688	-1.091388
H141	H	1.771102	-0.074456	-1.090339
H142	H	1.774551	-0.161462	-0.948893
H143	H	1.670491	-0.117189	-0.947946
H144	H	1.414699	-0.959839	-0.636284
H145	H	1.729757	-0.688326	-0.321444
H146	H	1.586022	-0.291971	-1.079835
H147	H	1.414341	-0.472560	-0.636176
H148	H	1.358992	-0.196059	-1.079831
O149	O	1.403423	-0.383776	-0.646727
C150	C	1.222351	-0.369496	-0.698309
C151	C	1.297322	-0.395292	-0.623527
H152	H	1.136554	-0.378804	-0.679593
H153	H	1.233937	-0.331927	-0.686616
H154	H	1.241074	-0.378684	-0.784142
H155	H	1.278645	-0.386142	-0.537665
H156	H	1.285722	-0.432855	-0.635312
O157	O	1.672383	-0.956092	-0.378701
C158	C	1.686763	-0.903138	-0.235038
C159	C	1.611898	-0.928952	-0.309907
H160	H	1.637892	-0.881183	-0.179415
H161	H	1.735433	-0.927941	-0.186362
H162	H	1.742403	-0.881157	-0.283973
H163	H	1.556194	-0.950934	-0.261054
H164	H	1.563303	-0.904125	-0.358587
H165	H	1.346515	-0.829128	-0.704262
O166	O	1.110915	-0.156128	-0.370016
C167	C	1.116668	-0.133493	-0.186482
C168	C	1.074720	-0.167766	-0.267691
H169	H	1.087403	-0.142885	-0.103736
H170	H	1.207181	-0.133541	-0.187566
H171	H	1.086414	-0.098659	-0.208043
H172	H	1.104895	-0.202617	-0.246186
H173	H	0.984209	-0.167679	-0.266591
O174	O	1.110675	-0.298777	-0.460181
C175	C	1.115511	-0.377291	-0.504566
C176	C	1.073774	-0.330463	-0.534553
H177	H	1.085675	-0.402923	-0.564666
H178	H	1.206027	-0.376975	-0.504769
H179	H	1.085667	-0.386645	-0.422003
H180	H	1.103539	-0.321079	-0.617121
H181	H	0.983260	-0.330804	-0.534277
H182	H	1.729855	-0.829086	-0.321488
H183	H	1.346409	-0.688372	-0.704247
O184	O	1.335645	-0.740405	-0.714952
C185	C	1.200570	-0.745388	-0.849890
C186	C	1.275577	-0.771154	-0.775086
H187	H	1.152001	-0.770238	-0.898543
H188	H	1.144851	-0.723477	-0.801013
H189	H	1.249391	-0.723370	-0.905548
H190	H	1.226842	-0.793197	-0.719414
H191	H	1.331299	-0.793037	-0.824029
H192	H	1.346366	-0.603264	-0.704235
H193	H	1.490234	-0.140715	-0.946830
