data_functionalizedCrystal
_audit_creation_method	'MofGen! by Chris Wilmer'
_symmetry_space_group_name_H-M	'P1'
_symmetry_Int_Tables_number	1
_symmetry_cell_setting	triclinic
loop_
_symmetry_equiv_pos_as_xyz
  x,y,z
_cell_length_a	13.635800
_cell_length_b	11.353959
_cell_length_c	9.514088
_cell_angle_alpha	80.909212
_cell_angle_beta	118.843545
_cell_angle_gamma	72.473377
loop_
_atom_site_label
_atom_site_type_symbol
_atom_site_fract_x
_atom_site_fract_y
_atom_site_fract_z
V1	V	2.138969	-0.183460	0.552045
O2	O	2.099622	0.006428	0.489413
O3	O	2.143408	-0.361473	0.598400
O4	O	2.156066	-0.181686	0.769941
O5	O	2.086876	-0.174604	0.316685
V6	V	2.371721	-0.160623	0.517805
O7	O	2.289362	-0.233554	0.627155
O8	O	2.446428	-0.110529	0.442695
O9	O	2.255679	0.017390	0.471450
O10	O	2.469767	-0.350511	0.580437
O11	O	2.482513	-0.169479	0.753165
O12	O	2.243022	-0.162397	0.299909
V13	V	2.638969	-0.183460	0.552045
O14	O	2.599622	0.006428	0.489413
O15	O	2.643408	-0.361473	0.598400
O16	O	2.656066	-0.181686	0.769941
O17	O	2.586876	-0.174604	0.316685
V18	V	2.871721	-0.160623	0.517805
O19	O	2.789362	-0.233554	0.627155
O20	O	2.946428	-0.110529	0.442695
O21	O	2.755679	0.017390	0.471450
O22	O	2.969767	-0.350511	0.580437
O23	O	2.982513	-0.169479	0.753165
O24	O	2.743022	-0.162397	0.299909
C25	C	2.071539	-0.404836	0.602627
C26	C	2.116087	-0.550371	0.641979
C27	C	2.087173	-0.596840	0.514603
C28	C	2.133214	-0.747257	0.555273
C29	C	2.087685	-0.175498	0.821441
C30	C	2.142494	-0.175225	0.999901
C31	C	2.159219	0.060746	0.467221
C32	C	2.104293	0.206279	0.427879
C33	C	2.143073	-0.168589	0.248402
C34	C	2.077881	-0.168855	0.069938
C35	C	2.571539	-0.404836	0.602627
C36	C	2.616087	-0.550371	0.641979
C37	C	2.587685	-0.175498	0.821441
C38	C	2.642494	-0.175225	0.999901
C39	C	2.659219	0.060746	0.467221
C40	C	2.604293	0.206279	0.427879
C41	C	2.643073	-0.168589	0.248402
C42	C	2.577881	-0.168855	0.069938
C43	C	2.730708	-0.625428	0.670361
C44	C	2.772588	-0.762178	0.707363
C45	C	2.699842	-0.823866	0.715970
C46	C	2.585213	-0.748799	0.687590
C47	C	2.543338	-0.612053	0.650601
C48	C	2.662167	0.281336	0.399502
C49	C	2.610560	0.418085	0.362508
C50	C	2.501084	0.479772	0.353904
C51	C	2.443205	0.404706	0.382280
C52	C	2.494807	0.267962	0.419261
H53	H	2.028338	-0.525266	0.375444
H54	H	2.739751	-0.180473	1.076476
H55	H	2.733953	-0.935214	0.746091
H56	H	2.239751	-0.180473	1.076476
H57	H	2.459079	0.591120	0.323790
H58	H	2.192060	-0.818828	0.694443
H59	H	2.354064	0.454954	0.375267
H60	H	2.174931	-0.621946	0.781140
C61	C	2.024826	-0.697062	0.239860
C62	C	2.071251	-0.604115	0.182084
C63	C	1.991797	-0.507465	-0.005933
C64	C	1.865919	-0.503762	-0.136176
C65	C	1.819487	-0.596713	-0.078404
C66	C	1.898941	-0.693363	0.109614
H67	H	2.164440	-0.606853	0.278500
H68	H	2.026170	-0.438657	-0.048700
H69	H	1.807102	-0.432216	-0.275358
H70	H	1.726299	-0.593975	-0.174819
H71	H	1.864569	-0.762171	0.152381
C72	C	2.898673	-0.844728	0.738554
C73	C	3.019097	-0.849878	0.886863
C74	C	3.145177	-0.932422	0.918048
C75	C	3.150834	-1.009816	0.800923
C76	C	3.030406	-1.004669	0.652604
C77	C	2.904325	-0.922125	0.621419
H78	H	3.014913	-0.792584	0.973574
H79	H	3.234326	-0.936232	1.027844
H80	H	3.244167	-1.070920	0.824008
H81	H	3.034589	-1.061964	0.565893
H82	H	2.815176	-0.918316	0.511623
H83	H	1.980637	-0.163622	0.993379
H84	H	2.480637	-0.163622	0.993379
C85	C	2.505198	-0.816672	0.697043
C86	C	2.471027	-0.810838	0.829058
C87	C	2.391011	-0.878716	0.838497
C88	C	2.345167	-0.952428	0.715921
C89	C	2.379337	-0.958265	0.583897
C90	C	2.459353	-0.890387	0.574458
H91	H	2.504965	-0.756269	0.919804
H92	H	2.365716	-0.874395	0.936231
H93	H	2.285934	-1.002676	0.722908
H94	H	2.345400	-1.012834	0.493150
H95	H	2.484648	-0.894708	0.476724
H96	H	2.789954	-0.575220	0.663349
C97	C	2.674250	0.500634	0.331322
C98	C	2.719945	0.578022	0.448454
C99	C	2.783638	0.660565	0.417275
C100	C	2.801636	0.665720	0.268963
C101	C	2.755940	0.588329	0.151822
C102	C	2.692247	0.505786	0.183001
H103	H	2.706622	0.574209	0.558252
H104	H	2.817465	0.717855	0.503991
H105	H	2.848786	0.726824	0.245882
H106	H	2.769263	0.592143	0.042024
H107	H	2.658420	0.448496	0.096284
H108	H	2.450001	-0.550950	0.627485
H109	H	2.751310	0.231129	0.406503
H110	H	2.447676	0.206858	0.442379
