data_functionalizedCrystal
_audit_creation_method	'MofGen! by Chris Wilmer'
_symmetry_space_group_name_H-M	'P1'
_symmetry_Int_Tables_number	1
_symmetry_cell_setting	triclinic
loop_
_symmetry_equiv_pos_as_xyz
  x,y,z
_cell_length_a	15.297475
_cell_length_b	12.645330
_cell_length_c	15.296720
_cell_angle_alpha	80.351223
_cell_angle_beta	91.617114
_cell_angle_gamma	99.670433
loop_
_atom_site_label
_atom_site_type_symbol
_atom_site_fract_x
_atom_site_fract_y
_atom_site_fract_z
Zn1	Zn	1.253346	0.825044	-0.726641
Zn2	Zn	1.753346	1.325044	-0.226641
Zn3	Zn	1.278598	0.977691	-0.580164
Zn4	Zn	1.778598	1.477691	-0.080164
Zn5	Zn	1.132227	0.765490	-0.554878
Zn6	Zn	1.632227	1.265490	-0.054878
Zn7	Zn	1.106825	0.967271	-0.701292
Zn8	Zn	1.606825	1.467271	-0.201292
O9	O	1.192749	0.883874	-0.640744
O10	O	1.692749	1.383874	-0.140744
O11	O	1.379271	0.874578	-0.728401
O12	O	1.879271	1.374578	-0.228401
O13	O	1.280381	0.928980	-0.454234
O14	O	1.780381	1.428980	0.045766
O15	O	1.148357	0.625061	-0.577689
O16	O	1.648357	1.125061	-0.077689
O17	O	1.397824	0.986727	-0.620785
O18	O	1.897824	1.486727	-0.120785
O19	O	1.237342	0.668815	-0.703882
O20	O	1.737342	1.168815	-0.203882
O21	O	1.172843	0.773077	-0.435657
O22	O	1.672843	1.273077	0.064343
O23	O	1.006282	0.762973	-0.553110
O24	O	1.506282	1.262973	-0.053110
O25	O	1.105062	0.968967	-0.827230
O26	O	1.605062	1.468967	-0.327230
O27	O	0.987619	0.911220	-0.660680
O28	O	1.487619	1.411220	-0.160680
O29	O	1.212710	0.864474	-0.845854
O30	O	1.712710	1.364474	-0.345854
O31	O	1.255749	1.124638	-0.596206
O32	O	1.755749	1.624638	-0.096206
O33	O	1.129548	1.116982	-0.685198
O34	O	1.629548	1.616982	-0.185198
C35	C	0.965167	0.829504	-0.601401
C36	C	1.465167	1.329504	-0.101401
C37	C	0.867803	0.806273	-0.584590
C38	C	1.367803	1.306273	-0.084590
C39	C	0.554641	1.049917	-0.760893
C40	C	1.054641	1.549917	-0.260893
C41	C	0.646120	1.071751	-0.776685
C42	C	1.146120	1.571751	-0.276685
C43	C	0.701545	1.005383	-0.728663
C44	C	1.201545	1.505383	-0.228663
C45	C	0.665483	0.917178	-0.664846
C46	C	1.165483	1.417178	-0.164846
C47	C	0.573996	0.895347	-0.649047
C48	C	1.073996	1.395347	-0.149047
C49	C	0.720900	0.850813	-0.616817
C50	C	1.220900	1.350813	-0.116817
C51	C	0.684838	0.762608	-0.553000
C52	C	1.184838	1.262608	-0.053000
C53	C	0.593360	0.740781	-0.537206
C54	C	1.093360	1.240781	-0.037206
C55	C	0.537934	0.807148	-0.585227
C56	C	1.037934	1.307148	-0.085227
C57	C	0.812387	0.872644	-0.632616
C58	C	1.312387	1.372644	-0.132616
C59	C	0.831742	0.718074	-0.520770
C60	C	1.331742	1.218074	-0.020770
C61	C	0.740263	0.696241	-0.504978
C62	C	1.240263	1.196241	-0.004978
C63	C	1.192653	1.159279	-0.640718
C64	C	1.692653	1.659279	-0.140718
C65	C	1.192687	1.277123	-0.640751
C66	C	1.692687	1.777123	-0.140751
C67	C	1.113516	1.440012	-0.696991
C68	C	1.613516	1.940012	-0.196991
C69	C	1.113224	1.317337	-0.696714
C70	C	1.613224	1.817337	-0.196714
C71	C	1.183681	1.300235	-0.544124
C72	C	1.683681	1.800235	-0.044124
C73	C	1.183183	1.422801	-0.544464
C74	C	1.683183	1.922801	-0.044464
C75	C	1.281358	1.470345	-0.680456
C76	C	1.781358	1.970345	-0.180456
C77	C	1.280455	1.347945	-0.682377
C78	C	1.780455	1.847945	-0.182377
C79	C	1.421219	0.938458	-0.680241
C80	C	1.921219	1.438458	-0.180241
C81	C	1.518579	0.961718	-0.697073
C82	C	2.018579	1.461718	-0.197073
C83	C	1.153236	0.922201	-0.869213
C84	C	1.653236	1.422201	-0.369213
C85	C	1.136397	0.938533	-0.966573
C86	C	1.636397	1.438533	-0.466573
C87	C	1.192835	1.607396	-0.640791
C88	C	1.692835	2.107396	-0.140791
C89	C	1.192791	1.489560	-0.640806
C90	C	1.692791	1.989560	-0.140806
C91	C	1.313127	0.766965	-1.279802
C92	C	1.813127	1.266965	-0.779802
C93	C	1.328953	0.751623	-1.188328
C94	C	1.828953	1.251623	-0.688328
C95	C	1.280815	0.798349	-1.132885
C96	C	1.780815	1.298349	-0.632885
C97	C	1.216849	0.860420	-1.168924
C98	C	1.716849	1.360420	-0.668924
C99	C	1.201027	0.875771	-1.260408
C100	C	1.701027	1.375771	-0.760408
C101	C	1.168715	0.907155	-1.113491
C102	C	1.668715	1.407155	-0.613491
C103	C	1.104749	0.969226	-1.149530
C104	C	1.604749	1.469226	-0.649530
C105	C	1.088929	0.984573	-1.241005
C106	C	1.588929	1.484573	-0.741005
C107	C	1.137066	0.937848	-1.296448
C108	C	1.637066	1.437848	-0.796448
C109	C	1.184537	0.891804	-1.022008
C110	C	1.684537	1.391804	-0.522008
C111	C	1.072437	1.000610	-1.002614
C112	C	1.572437	1.500610	-0.502614
C113	C	1.056611	1.015952	-1.094087
C114	C	1.556611	1.515952	-0.594087
C115	C	1.232159	0.845632	-0.413172
C116	C	1.732159	1.345632	0.086828
C117	C	1.249167	0.829042	-0.315842
C118	C	1.749167	1.329042	0.184158
H119	H	0.776030	1.023165	-0.741525
H120	H	1.276030	1.523165	-0.241525
H121	H	1.120190	1.250193	-0.512154
H122	H	1.620190	1.750193	-0.012154
H123	H	1.292689	1.517751	-0.750561
H124	H	1.792689	2.017751	-0.250561
Cl125	Cl	0.422926	0.779698	-0.565383
Cl126	Cl	0.922926	1.279698	-0.065383
Cl127	Cl	0.691449	1.182633	-0.856907
Cl128	Cl	1.191449	1.682633	-0.356907
Cl129	Cl	1.409363	0.673595	-1.143027
Cl130	Cl	1.909363	1.173595	-0.643027
H131	H	1.124185	0.950336	-1.370934
H132	H	1.624185	1.450336	-0.870934
Cl133	Cl	0.976201	1.093984	-1.139405
Cl134	Cl	1.476201	1.593984	-0.639405
H135	H	1.352319	0.728935	-1.324952
H136	H	1.852319	1.228935	-0.824952
Cl137	Cl	1.374487	1.308257	-0.625767
Cl138	Cl	1.874487	1.808257	-0.125767
Cl139	Cl	1.291393	1.327517	-0.792291
Cl140	Cl	1.791393	1.827517	-0.292291
Cl141	Cl	1.012252	1.458566	-0.654929
Cl142	Cl	1.512252	1.958566	-0.154929
H143	H	0.841739	0.944461	-0.684577
H144	H	1.341739	1.444461	-0.184577
H145	H	0.876870	0.664034	-0.481665
H146	H	1.376870	1.164034	0.018335
Cl147	Cl	1.011363	1.242805	-0.654213
Cl148	Cl	1.511363	1.742805	-0.154213
H149	H	0.509507	1.103949	-0.799980
H150	H	1.009507	1.603949	-0.299980
H151	H	1.293705	0.785854	-1.058403
H152	H	1.793705	1.285854	-0.558403
H153	H	1.340225	1.503040	-0.639728
H154	H	1.840225	2.003040	-0.139728
Cl155	Cl	1.264948	0.813773	-0.976712
Cl156	Cl	1.764948	1.313773	-0.476712
H157	H	1.036851	1.035126	-1.270346
H158	H	1.536851	1.535126	-0.770346
Cl159	Cl	1.011922	1.059361	-0.932921
Cl160	Cl	1.511922	1.559361	-0.432921
H161	H	0.564003	0.668967	-0.485232
H162	H	1.064003	1.168967	0.014768
Cl163	Cl	0.694917	0.585358	-0.424754
Cl164	Cl	1.194917	1.085358	0.075246
Cl165	Cl	1.119055	1.508952	-0.807148
Cl166	Cl	1.619055	2.008952	-0.307148
Cl167	Cl	1.119059	1.294301	-0.806561
Cl168	Cl	1.619059	1.794301	-0.306561
H169	H	1.239285	1.454907	-0.500314
H170	H	1.739285	1.954907	-0.000314
Cl171	Cl	1.271103	1.259302	-0.476637
Cl172	Cl	1.771103	1.759302	0.023363
Cl173	Cl	1.083960	1.436934	-0.495477
Cl174	Cl	1.583960	1.936934	0.004523
