data_functionalizedCrystal
_audit_creation_method	'MofGen! by Chris Wilmer'
_symmetry_space_group_name_H-M	'P1'
_symmetry_Int_Tables_number	1
_symmetry_cell_setting	triclinic
loop_
_symmetry_equiv_pos_as_xyz
  x,y,z
_cell_length_a	10.723024
_cell_length_b	10.268362
_cell_length_c	10.723023
_cell_angle_alpha	90.000328
_cell_angle_beta	84.467709
_cell_angle_gamma	90.004333
loop_
_atom_site_label
_atom_site_type_symbol
_atom_site_fract_x
_atom_site_fract_y
_atom_site_fract_z
O1	O	1.657189	0.108289	0.175021
O2	O	1.294036	0.108293	0.191774
O3	O	1.483990	0.108285	0.001821
O4	O	1.467235	0.108296	0.364974
O5	O	1.483972	-0.108315	0.001828
O6	O	1.294018	-0.108308	0.191781
O7	O	1.657171	-0.108312	0.175027
Cu8	Cu	1.475593	-0.128087	0.183405
Cu9	Cu	1.475614	0.128068	0.183397
O10	O	1.467217	-0.108304	0.364980
C11	C	1.247528	-0.000007	0.190558
C12	C	1.108973	-0.000005	0.186911
N13	N	1.475587	-0.308253	0.183409
C14	C	1.033991	-0.000001	0.293198
C15	C	0.890787	0.000000	0.289431
C16	C	1.475596	-0.426095	0.183410
C17	C	1.475611	-0.573933	0.183399
C18	C	1.703679	-0.000009	0.176243
C19	C	1.842234	-0.000002	0.179891
C20	C	1.482762	-0.000014	-0.044675
C21	C	1.479114	-0.000009	-0.183229
N22	N	1.475630	0.308234	0.183383
C23	C	1.473709	-0.112206	-0.388200
C24	C	1.477479	-0.112213	-0.244997
C25	C	1.468445	-0.000003	0.411477
C26	C	1.472093	0.000002	0.550031
H27	H	1.075812	-0.000006	0.386984
H28	H	0.826354	0.000009	0.380421
H29	H	1.067152	0.000025	0.093125
H30	H	0.906659	0.000003	0.088896
H31	H	1.472296	-0.208265	-0.441334
N32	N	1.479236	-0.232721	-0.178352
N33	N	1.482301	-0.232556	-0.062118
H34	H	1.483543	-0.317669	-0.015046
N35	N	1.477346	0.120514	-0.249849
N36	N	1.389918	0.199588	-0.224659
H37	H	1.388667	0.284708	-0.271718
N38	N	1.473872	0.120503	-0.383307
N39	N	1.563599	0.146739	-0.321377
H40	H	1.564857	0.231846	-0.274297
