data_functionalizedCrystal
_audit_creation_method	'MofGen! by Chris Wilmer'
_symmetry_space_group_name_H-M	'P1'
_symmetry_Int_Tables_number	1
_symmetry_cell_setting	triclinic
loop_
_symmetry_equiv_pos_as_xyz
  x,y,z
_cell_length_a	12.759394
_cell_length_b	12.759401
_cell_length_c	12.759393
_cell_angle_alpha	89.979062
_cell_angle_beta	89.968780
_cell_angle_gamma	90.016362
loop_
_atom_site_label
_atom_site_type_symbol
_atom_site_fract_x
_atom_site_fract_y
_atom_site_fract_z
Zn1	Zn	-0.418173	1.606265	-0.594015
Zn2	Zn	-0.593889	1.606156	-0.418333
Zn3	Zn	-0.418229	1.430564	-0.418350
Zn4	Zn	-0.593815	1.430556	-0.593970
O5	O	-0.506026	1.518385	-0.506167
O6	O	-0.441489	1.753272	-0.570722
O7	O	-0.570641	1.582821	-0.271314
O8	O	-0.271200	1.453921	-0.441678
O9	O	-0.570587	1.753192	-0.441649
O10	O	-0.271159	1.583008	-0.570739
O11	O	-0.441585	1.453815	-0.271327
O12	O	-0.441513	1.283542	-0.441635
O13	O	-0.570462	1.453906	-0.740997
O14	O	-0.570516	1.283536	-0.570662
O15	O	-0.441418	1.582999	-0.741030
O16	O	-0.740900	1.582813	-0.441605
O17	O	-0.740846	1.453800	-0.570645
C18	C	-0.506014	1.245418	-0.506146
C19	C	-0.506033	1.128641	-0.506162
C20	C	-0.573307	1.073804	-0.573241
C21	C	-0.573311	0.964080	-0.573262
C22	C	-0.438765	0.964041	-0.439116
C23	C	-0.438756	1.073763	-0.439101
C24	C	-0.778994	1.518322	-0.506141
C25	C	-0.895771	1.518391	-0.506166
C26	C	-0.895773	1.652833	-0.371897
C27	C	-0.950636	1.720082	-0.304775
C28	C	-1.060357	1.720143	-0.304804
C29	C	-1.115219	1.652951	-0.371964
C30	C	-1.060357	1.585703	-0.439086
C31	C	-0.950633	1.585647	-0.439048
C32	C	-1.060354	1.451268	-0.573358
C33	C	-0.950632	1.451200	-0.573326
C34	C	-1.115216	1.384076	-0.640518
C35	C	-1.060354	1.316821	-0.707636
C36	C	-0.950626	1.316761	-0.707604
C37	C	-0.895770	1.383951	-0.640448
C38	C	-0.231993	1.518477	-0.506215
C39	C	-0.115216	1.518516	-0.506236
C40	C	-0.505925	1.518464	-0.780200
C41	C	-0.505883	1.518497	-0.896977
C42	C	-0.506040	1.792419	-0.506188
C43	C	-0.506046	1.909195	-0.506198
C44	C	-0.438679	1.585721	-0.951858
C45	C	-0.438633	1.585739	-1.061582
C46	C	-0.573005	1.451306	-1.061535
C47	C	-0.573044	1.451284	-0.951813
C48	C	-0.506051	1.518367	-0.233200
C49	C	-0.505798	1.518537	-0.116423
H50	H	-0.628086	1.118483	-0.627849
H51	H	-0.383908	1.640478	-1.106261
H52	H	-0.806432	1.652776	-0.371854
O53	O	-1.221802	1.652825	-0.371999
C54	C	-1.258578	1.552176	-0.344924
H55	H	-1.195386	1.491611	-0.362796
H56	H	-1.331954	1.533525	-0.392329
H57	H	-1.278133	1.550003	-0.257756
O58	O	-0.373324	0.910892	-0.373935
C59	C	-0.313962	0.982826	-0.314708
H60	H	-0.310366	1.061060	-0.357739
H61	H	-0.231174	0.951133	-0.303646
H62	H	-0.352341	0.994450	-0.234848
O63	O	-0.789188	1.383890	-0.640222
C64	C	-0.752637	1.356905	-0.539504
H65	H	-0.815906	1.374909	-0.479022
H66	H	-0.679212	1.404266	-0.520842
H67	H	-0.733238	1.269723	-0.537206
H68	H	-1.204557	1.384136	-0.640541
H69	H	-0.627687	1.396586	-1.106195
H70	H	-1.105031	1.262124	-0.762317
O71	O	-0.373550	1.127154	-0.373883
C72	C	-0.433281	1.190558	-0.305898
H73	H	-0.512944	1.206993	-0.342810
H74	H	-0.390466	1.267718	-0.291887
H75	H	-0.444731	1.148234	-0.228023
H76	H	-0.905957	1.774791	-0.250096
H77	H	-0.627768	1.396535	-0.907128
O78	O	-0.373335	1.651036	-0.898752
C79	C	-0.314028	1.710390	-0.970726
H80	H	-0.310362	1.667372	-1.048933
H81	H	-0.231261	1.721618	-0.939043
H82	H	-0.352500	1.790172	-0.982402
H83	H	-0.905962	1.262004	-0.762267
O84	O	-1.113537	1.785615	-0.239655
C85	C	-1.086642	1.890304	-0.262711
H86	H	-1.006941	1.892423	-0.303076
H87	H	-1.082916	1.937447	-0.186924
H88	H	-1.148321	1.925697	-0.316774
O89	O	-0.638762	0.910973	-0.638453
C90	C	-0.698116	0.982943	-0.697655
H91	H	-0.701696	1.061133	-0.654601
H92	H	-0.780909	0.951229	-0.708721
H93	H	-0.659740	0.994665	-0.777514
