data_functionalizedCrystal
_audit_creation_method	'MofGen! by Chris Wilmer'
_symmetry_space_group_name_H-M	'P1'
_symmetry_Int_Tables_number	1
_symmetry_cell_setting	triclinic
loop_
_symmetry_equiv_pos_as_xyz
  x,y,z
_cell_length_a	19.188905
_cell_length_b	23.532407
_cell_length_c	22.610064
_cell_angle_alpha	90.000603
_cell_angle_beta	90.015326
_cell_angle_gamma	82.991616
loop_
_atom_site_label
_atom_site_type_symbol
_atom_site_fract_x
_atom_site_fract_y
_atom_site_fract_z
O1	O	0.925934	0.071025	0.049288
O2	O	1.425934	0.571025	0.549288
O3	O	0.722590	0.080612	0.049269
O4	O	1.222590	0.580612	0.549269
O5	O	0.830394	-0.007101	0.049268
O6	O	1.330394	0.492899	0.549268
O7	O	0.818130	0.158738	0.049289
O8	O	1.318130	0.658738	0.549289
O9	O	0.830375	-0.007088	-0.049101
O10	O	1.330375	0.492912	0.450899
O11	O	0.722571	0.080625	-0.049101
O12	O	1.222571	0.580625	0.450899
O13	O	0.925915	0.071038	-0.049081
O14	O	1.425915	0.571038	0.450919
Zn15	Zn	0.824240	0.075833	-0.064709
Zn16	Zn	1.324240	0.575833	0.435291
Zn17	Zn	0.824265	0.075817	0.064896
Zn18	Zn	1.324265	0.575817	0.564896
O19	O	0.818111	0.158750	-0.049081
O20	O	1.318111	0.658750	0.450919
C21	C	0.696570	0.080310	0.000081
C22	C	1.196570	0.580310	0.500081
C23	C	0.619067	0.079385	0.000073
C24	C	1.119067	0.579385	0.500073
C25	C	0.830072	-0.028311	0.000082
C26	C	1.330072	0.471689	0.500082
C27	C	0.829133	-0.091530	0.000077
C28	C	1.329133	0.408470	0.500077
C29	C	0.582687	0.078934	0.053696
C30	C	1.082687	0.578934	0.553696
C31	C	0.509867	0.078059	0.053703
C32	C	1.009867	0.578059	0.553703
C33	C	0.473430	0.077623	0.000085
C34	C	0.973430	0.577623	0.500085
C35	C	0.509819	0.078078	-0.053545
C36	C	1.009819	0.578078	0.446455
C37	C	0.582637	0.078959	-0.053550
C38	C	1.082637	0.578959	0.446450
N39	N	0.364510	0.043836	-0.039822
N40	N	0.864510	0.543836	0.460178
N41	N	0.295336	0.042998	-0.039813
N42	N	0.795336	0.542998	0.460187
C43	C	0.254032	0.074970	0.000099
C44	C	0.754032	0.574970	0.500099
N45	N	0.284517	0.107805	0.040010
N46	N	0.784517	0.607805	0.540010
N47	N	0.353698	0.108641	0.040003
N48	N	0.853698	0.608641	0.540003
C49	C	0.394471	0.076668	0.000085
C50	C	0.894471	0.576668	0.500085
C51	C	0.138691	0.073571	0.053733
C52	C	0.638691	0.573571	0.553733
C53	C	0.065869	0.072699	0.053738
C54	C	0.565869	0.572699	0.553738
C55	C	0.065823	0.072712	-0.053512
C56	C	0.565823	0.572712	0.446488
C57	C	0.138644	0.073590	-0.053515
C58	C	0.638644	0.573590	0.446485
C59	C	0.175074	0.074016	0.000109
C60	C	0.675074	0.574016	0.500109
C61	C	0.887040	-0.490514	0.000115
C62	C	1.387040	0.009486	0.500115
C63	C	0.886168	-0.549916	0.000120
C64	C	1.386168	-0.049916	0.500120
O65	O	0.939848	-0.586551	0.000147
O66	O	1.439848	-0.086551	0.500147
N67	N	0.822078	-0.572674	0.000113
N68	N	1.322078	-0.072674	0.500113
C69	C	0.758857	-0.536026	0.000108
C70	C	1.258857	-0.036026	0.500108
O71	O	0.704264	-0.560837	0.000104
O72	O	1.204264	-0.060837	0.500104
C73	C	0.759730	-0.476625	0.000108
C74	C	1.259730	0.023375	0.500108
C75	C	0.823824	-0.453871	0.000108
C76	C	1.323824	0.046129	0.500108
C77	C	0.951129	-0.467760	0.000116
C78	C	1.451129	0.032240	0.500116
C79	C	0.952000	-0.408362	0.000111
C80	C	1.452000	0.091638	0.500111
C81	C	0.888784	-0.371718	0.000104
C82	C	1.388784	0.128282	0.500104
C83	C	0.824696	-0.394473	0.000103
C84	C	1.324696	0.105527	0.500103
C85	C	0.696509	-0.439978	0.000107
C86	C	1.196509	0.060022	0.500107
C87	C	0.697388	-0.380574	0.000108
C88	C	1.197388	0.119426	0.500108
C89	C	0.761482	-0.357820	0.000108
C90	C	1.261482	0.142180	0.500108
C91	C	0.762351	-0.298432	0.000091
C92	C	1.262351	0.201568	0.500091
N93	N	0.826440	-0.275674	0.000097
N94	N	1.326440	0.224326	0.500097
C95	C	0.889657	-0.312317	0.000104
C96	C	1.389657	0.187683	0.500104
C97	C	0.757029	-0.660772	0.000110
C98	C	1.257029	-0.160772	0.500110
C99	C	0.756155	-0.720172	0.000105
C100	C	1.256155	-0.220172	0.500105
C101	C	0.883466	-0.734058	0.000118
C102	C	1.383466	-0.234058	0.500118
C103	C	0.884339	-0.674657	0.000118
C104	C	1.384339	-0.174657	0.500118
C105	C	0.821118	-0.638014	0.000116
C106	C	1.321118	-0.138014	0.500116
C107	C	0.891483	-0.187577	0.000092
C108	C	1.391483	0.312423	0.500092
C109	C	0.892350	-0.128173	0.000084
C110	C	1.392350	0.371827	0.500084
C111	C	0.765039	-0.114292	0.000074
C112	C	1.265039	0.385708	0.500074
C113	C	0.764172	-0.173691	0.000079
C114	C	1.264172	0.326309	0.500079
C115	C	0.827400	-0.210332	0.000090
C116	C	1.327400	0.289668	0.500090
O117	O	0.708699	-0.261762	0.000066
O118	O	1.208699	0.238238	0.500066
O119	O	0.944241	-0.287498	0.000116
O120	O	1.444241	0.212502	0.500116
C121	C	0.951935	0.071340	0.000107
C122	C	1.451935	0.571340	0.500107
C123	C	1.029437	0.072265	0.000119
C124	C	1.529437	0.572265	0.500119
C125	C	0.818433	0.179961	0.000107
C126	C	1.318433	0.679961	0.500107
C127	C	0.819372	0.243180	0.000115
C128	C	1.319372	0.743180	0.500115
N129	N	0.824228	0.075845	-0.153162
N130	N	1.324228	0.575845	0.346838
C131	C	0.872003	0.036983	-0.561803
C132	C	1.372003	0.536983	-0.061803
C133	C	0.872006	0.036979	-0.623723
C134	C	1.372006	0.536979	-0.123723
O135	O	0.912596	0.003947	-0.655742
O136	O	1.412596	0.503947	-0.155742
N137	N	0.824264	0.075805	-0.654699
N138	N	1.324264	0.575805	-0.154699
C139	C	0.776511	0.114633	-0.623751
C140	C	1.276511	0.614633	-0.123751
O141	O	0.735903	0.147656	-0.655784
O142	O	1.235903	0.647656	-0.155784
C143	C	0.776505	0.114634	-0.561832
C144	C	1.276505	0.614634	-0.061832
C145	C	0.824255	0.075810	-0.530860
C146	C	1.324255	0.575810	-0.030860
C147	C	0.919748	-0.001838	-0.530831
C148	C	1.419748	0.498162	-0.030831
C149	C	0.919745	-0.001833	-0.468915
C150	C	1.419745	0.498167	0.031085
C151	C	0.871997	0.036993	-0.437972
C152	C	1.371997	0.536993	0.062028
C153	C	0.824252	0.075815	-0.468944
C154	C	1.324252	0.575815	0.031056
C155	C	0.728749	0.153459	-0.530886
C156	C	1.228749	0.653459	-0.030886
C157	C	0.728746	0.153456	-0.468963
C158	C	1.228746	0.653456	0.031037
C159	C	0.776496	0.114632	-0.437991
C160	C	1.276496	0.614632	0.062009
C161	C	0.776501	0.114646	-0.376086
C162	C	1.276501	0.614646	0.123914
N163	N	0.824242	0.075821	-0.345110
N164	N	1.324242	0.575821	0.154890
C165	C	0.871991	0.036994	-0.376053
C166	C	1.371991	0.536994	0.123947
C167	C	0.776527	0.114627	-0.753785
C168	C	1.276527	0.614627	-0.253785
C169	C	0.776537	0.114629	-0.815702
C170	C	1.276537	0.614629	-0.315702
C171	C	0.872031	0.036975	-0.815670
C172	C	1.372031	0.536975	-0.315670
C173	C	0.872025	0.036976	-0.753751
C174	C	1.372025	0.536976	-0.253751
C175	C	0.824269	0.075802	-0.722809
C176	C	1.324269	0.575802	-0.222809
C177	C	0.871981	0.037008	-0.246026
C178	C	1.371981	0.537008	0.253974
C179	C	0.871976	0.037018	-0.184105
C180	C	1.371976	0.537018	0.315895
C181	C	0.776480	0.114670	-0.184143
C182	C	1.276480	0.614670	0.315857
C183	C	0.776487	0.114663	-0.246058
C184	C	1.276487	0.614663	0.253942
C185	C	0.824240	0.075827	-0.276998
C186	C	1.324240	0.575827	0.223002
O187	O	0.735929	0.147660	-0.344027
O188	O	1.235929	0.647660	0.155973
O189	O	0.912586	0.003972	-0.344013
O190	O	1.412586	0.503972	0.155987
N191	N	0.824283	0.075801	0.153349
N192	N	1.324283	0.575801	0.653349
H193	H	0.612344	0.079282	0.097361
H194	H	1.112344	0.579282	0.597361
H195	H	0.645904	-0.350741	0.000107
H196	H	1.145904	0.149259	0.500107
N197	N	0.026631	0.072211	0.111579
N198	N	0.526631	0.572211	0.611579
H199	H	0.002330	0.036550	0.113962
H200	H	0.502330	0.536550	0.613962
H201	H	-0.009455	0.107166	0.113946
H202	H	0.490545	0.607166	0.613946
H203	H	0.958625	-0.033448	-0.443701
H204	H	1.458625	0.466552	0.056299
H205	H	0.737641	0.146249	-0.728595
H206	H	1.237641	0.646249	-0.228595
H207	H	0.480147	0.077725	-0.097201
H208	H	0.980147	0.577725	0.402799
N209	N	0.677235	0.195326	-0.564280
N210	N	1.177235	0.695326	-0.064280
H211	H	0.684977	0.235733	-0.553501
H212	H	1.184977	0.735733	-0.053501
H213	H	0.627760	0.188804	-0.553492
H214	H	1.127760	0.688804	-0.053492
N215	N	0.687029	-0.744714	0.000101
N216	N	1.187029	-0.244714	0.500101
H217	H	0.683820	-0.769052	-0.036363
H218	H	1.183820	-0.269052	0.463637
H219	H	0.647155	-0.712454	0.000118
H220	H	1.147155	-0.212454	0.500118
H221	H	0.944544	-0.109650	0.000083
H222	H	1.444544	0.390350	0.500083
N223	N	0.923491	-0.004872	-0.279393
N224	N	1.423491	0.495128	0.220607
H225	H	0.915739	-0.045277	-0.268614
H226	H	1.415739	0.454723	0.231386
H227	H	0.972968	0.001642	-0.268585
H228	H	1.472968	0.501642	0.231415
N229	N	0.688831	-0.621258	0.000092
N230	N	1.188831	-0.121258	0.500092
H231	H	0.686348	-0.596306	-0.036376
H232	H	1.186348	-0.096306	0.463624
H233	H	0.686390	-0.596337	0.036580
H234	H	1.186390	-0.096337	0.536580
H235	H	0.644318	-0.458493	0.000110
H236	H	1.144318	0.041507	0.500110
N237	N	0.470621	0.077561	0.111542
N238	N	0.970621	0.577561	0.611542
H239	H	0.418963	0.076935	0.103407
H240	H	0.918963	0.576935	0.603407
H241	H	0.477441	0.113005	0.134970
H242	H	0.977441	0.613005	0.634970
N243	N	1.021130	-0.383824	0.000114
N244	N	1.521130	0.116176	0.500114
H245	H	1.061039	-0.416058	0.000120
H246	H	1.561039	0.083942	0.500120
H247	H	1.024275	-0.359481	0.036580
H248	H	1.524275	0.140519	0.536580
N249	N	0.695045	-0.198237	0.000071
N250	N	1.195045	0.301763	0.500071
H251	H	0.655131	-0.166008	0.000063
H252	H	1.155131	0.333992	0.500063
H253	H	0.691918	-0.222574	0.036542
H254	H	1.191918	0.277426	0.536542
N255	N	1.019318	-0.507277	0.000123
N256	N	1.519318	-0.007277	0.500123
H257	H	1.060043	-0.483839	0.000123
H258	H	1.560043	0.016161	0.500123
H259	H	1.021723	-0.532222	-0.036345
H260	H	1.521723	-0.032222	0.463655
N261	N	0.959681	-0.227087	0.000096
N262	N	1.459681	0.272913	0.500096
H263	H	0.962150	-0.252043	-0.036369
H264	H	1.462150	0.247957	0.463631
H265	H	0.962136	-0.252005	0.036586
H266	H	1.462136	0.247995	0.536586
H267	H	0.713570	-0.084446	0.000067
H268	H	1.213570	0.415554	0.500067
H269	H	0.036157	0.072361	-0.097169
H270	H	0.536157	0.572361	0.402831
H271	H	0.689856	0.185072	-0.443773
H272	H	1.189856	0.685072	0.056227
N273	N	0.971263	-0.043709	-0.564199
N274	N	1.471263	0.456291	-0.064199
H275	H	1.001507	-0.068295	-0.535174
H276	H	1.501507	0.431705	-0.035174
H277	H	1.001976	-0.021961	-0.589872
H278	H	1.501976	0.478039	-0.089872
H279	H	0.910862	0.005403	-0.158889
H280	H	1.410862	0.505403	0.341111
N281	N	0.953467	-0.650117	0.000118
N282	N	1.453467	-0.150117	0.500118
H283	H	0.993378	-0.682349	0.000121
H284	H	1.493378	-0.182349	0.500121
H285	H	0.956614	-0.625776	0.036585
H286	H	1.456614	-0.125776	0.536585
N287	N	0.724977	0.156540	-0.150760
N288	N	1.224977	0.656540	0.349240
H289	H	0.694726	0.181135	-0.179773
H290	H	1.194726	0.681135	0.320227
H291	H	0.751524	0.181664	-0.125061
H292	H	1.251524	0.681664	0.374939
H293	H	0.737612	0.146282	-0.271276
H294	H	1.237612	0.646282	0.228724
H295	H	0.612257	0.079327	-0.097218
H296	H	1.112257	0.579327	0.402782
H297	H	0.910906	0.005362	-0.728537
H298	H	1.410906	0.505362	-0.228537
N299	N	0.177990	0.074034	0.111566
N300	N	0.677990	0.574034	0.611566
H301	H	0.143890	0.073620	0.145538
H302	H	0.643890	0.573620	0.645538
H303	H	0.202294	0.109695	0.113903
H304	H	0.702294	0.609695	0.613903
N305	N	0.923536	-0.004903	-0.849049
N306	N	1.423536	0.495097	-0.349049
H307	H	0.897036	-0.030066	-0.874746
H308	H	1.397036	0.469934	-0.374746
H309	H	0.953769	-0.029458	-0.819995
H310	H	1.453769	0.470542	-0.319995
N311	N	0.177888	0.074076	-0.111351
N312	N	0.677888	0.574076	0.388649
H313	H	0.143758	0.073668	-0.145318
H314	H	0.643758	0.573668	0.354682
H315	H	0.214014	0.039145	-0.113695
H316	H	0.714014	0.539145	0.386305
N317	N	0.951652	-0.773587	0.000125
N318	N	1.451652	-0.273587	0.500125
H319	H	0.941368	-0.814668	0.000127
H320	H	1.441368	-0.314668	0.500127
H321	H	0.979609	-0.766238	0.036595
H322	H	1.479609	-0.266238	0.536595
N323	N	0.725039	0.156507	-0.849105
N324	N	1.225039	0.656507	-0.349105
H325	H	0.694792	0.181101	-0.820101
H326	H	1.194792	0.681101	-0.320101
H327	H	0.694327	0.134764	-0.874800
H328	H	1.194327	0.634764	-0.374800
