data_functionalizedCrystal
_audit_creation_method	'MofGen! by Chris Wilmer'
_symmetry_space_group_name_H-M	'P1'
_symmetry_Int_Tables_number	1
_symmetry_cell_setting	triclinic
loop_
_symmetry_equiv_pos_as_xyz
  x,y,z
_cell_length_a	16.625547
_cell_length_b	16.625545
_cell_length_c	12.759393
_cell_angle_alpha	90.032830
_cell_angle_beta	90.026979
_cell_angle_gamma	90.025495
loop_
_atom_site_label
_atom_site_type_symbol
_atom_site_fract_x
_atom_site_fract_y
_atom_site_fract_z
Zn1	Zn	1.232680	-0.320964	0.594172
Zn2	Zn	1.566014	0.012369	0.927506
Zn3	Zn	1.899347	0.345703	1.260839
Zn4	Zn	1.232571	-0.455818	0.418485
Zn5	Zn	1.565905	-0.122485	0.751819
Zn6	Zn	1.899238	0.210849	1.085152
Zn7	Zn	1.097837	-0.321003	0.418489
Zn8	Zn	1.431170	0.012330	0.751822
Zn9	Zn	1.764504	0.345664	1.085156
Zn10	Zn	1.097805	-0.455758	0.594104
Zn11	Zn	1.431139	-0.122425	0.927437
Zn12	Zn	1.764472	0.210909	1.260771
O13	O	1.165224	-0.388386	0.506313
O14	O	1.498557	-0.055052	0.839646
O15	O	1.831890	0.278281	1.172979
O16	O	1.345498	-0.338861	0.570894
O17	O	1.678832	-0.005528	0.904228
O18	O	2.012165	0.327805	1.237561
O19	O	1.214666	-0.437976	0.271465
O20	O	1.547999	-0.104643	0.604798
O21	O	1.881333	0.228691	0.938131
O22	O	1.115783	-0.208165	0.441824
O23	O	1.449117	0.125168	0.775157
O24	O	1.782450	0.458501	1.108491
O25	O	1.345418	-0.437938	0.441818
O26	O	1.678751	-0.104605	0.775151
O27	O	2.012085	0.228728	1.108484
O28	O	1.214852	-0.208137	0.570898
O29	O	1.548185	0.125197	0.904231
O30	O	1.881519	0.458530	1.237564
O31	O	1.115677	-0.338928	0.271467
O32	O	1.449011	-0.005595	0.604801
O33	O	1.782344	0.327739	0.938134
O34	O	0.985001	-0.338870	0.441758
O35	O	1.318334	-0.005537	0.775091
O36	O	1.651667	0.327797	1.108424
O37	O	1.115729	-0.437836	0.741134
O38	O	1.449063	-0.104502	1.074468
O39	O	1.782396	0.228831	1.407801
O40	O	0.984977	-0.437874	0.570781
O41	O	1.318311	-0.104540	0.904115
O42	O	1.651644	0.228793	1.237448
O43	O	1.214821	-0.338803	0.741184
O44	O	1.548155	-0.005470	1.074518
O45	O	1.881488	0.327864	1.407851
O46	O	1.214635	-0.568643	0.441751
O47	O	1.547969	-0.235309	0.775085
O48	O	1.881302	0.098024	1.108418
O49	O	1.115623	-0.568598	0.570778
O50	O	1.448957	-0.235265	0.904111
O51	O	1.782290	0.098068	1.237444
C52	C	0.955733	-0.388370	0.506263
C53	C	1.289066	-0.055037	0.839596
C54	C	1.622399	0.278297	1.172930
C55	C	0.866112	-0.388383	0.506267
C56	C	1.199445	-0.055050	0.839600
C57	C	1.532778	0.278284	1.172933
C58	C	0.793329	-0.388384	0.506280
C59	C	1.126662	-0.055051	0.839613
C60	C	1.459996	0.278282	1.172946
C61	C	0.702021	-0.388389	0.506306
C62	C	1.035354	-0.055055	0.839639
C63	C	1.368687	0.278278	1.172973
C64	C	0.629244	-0.388396	0.506333
C65	C	0.962578	-0.055063	0.839666
C66	C	1.295911	0.278271	1.172999
C67	C	0.537930	-0.388402	0.506358
C68	C	0.871263	-0.055068	0.839691
C69	C	1.204597	0.278265	1.173025
C70	C	1.165136	-0.597877	0.506280
C71	C	1.498469	-0.264543	0.839613
C72	C	1.831803	0.068790	1.172946
C73	C	1.165172	-0.687498	0.506301
C74	C	1.498506	-0.354164	0.839634
C75	C	1.831839	-0.020831	1.172967
C76	C	1.165204	-0.760280	0.506321
C77	C	1.498537	-0.426947	0.839655
C78	C	1.831870	-0.093614	1.172988
C79	C	1.165250	-0.851589	0.506345
C80	C	1.498584	-0.518255	0.839678
C81	C	1.831917	-0.184922	1.173011
C82	C	1.165292	-0.924365	0.506358
C83	C	1.498626	-0.591032	0.839691
C84	C	1.831959	-0.257698	1.173025
C85	C	1.165338	-1.015679	0.506380
C86	C	1.498672	-0.682346	0.839713
C87	C	1.832005	-0.349013	1.173046
C88	C	1.375532	-0.388402	0.506363
C89	C	1.708866	-0.055069	0.839696
C90	C	2.042199	0.278265	1.173030
C91	C	1.465153	-0.388409	0.506385
C92	C	1.798487	-0.055076	0.839718
C93	C	2.131820	0.278258	1.173051
C94	C	1.165284	-0.388308	0.780346
C95	C	1.498617	-0.054975	1.113680
C96	C	1.831951	0.278358	1.447013
C97	C	1.165310	-0.388275	0.897123
C98	C	1.498643	-0.054942	1.230456
C99	C	1.831976	0.278391	1.563790
C100	C	1.165333	-0.178077	0.506369
C101	C	1.498667	0.155256	0.839702
C102	C	1.832000	0.488590	1.173036
C103	C	1.165380	-0.088456	0.506393
C104	C	1.498714	0.244878	0.839726
C105	C	1.832047	0.578211	1.173060
C106	C	1.165210	-0.388405	0.233345
C107	C	1.498543	-0.055071	0.566679
C108	C	1.831876	0.278262	0.900012
C109	C	1.165340	-0.388211	0.116569
C110	C	1.498674	-0.054877	0.449903
C111	C	1.832007	0.278456	0.783236
C112	C	1.216911	-0.336701	0.952013
C113	C	1.550244	-0.003367	1.285346
C114	C	1.883577	0.329966	1.618679
C115	C	1.216924	-0.336666	1.061737
C116	C	1.550258	-0.003333	1.395070
C117	C	1.883591	0.330001	1.728404
C118	C	1.113734	-0.439787	1.061672
C119	C	1.447067	-0.106454	1.395005
C120	C	1.780400	0.226879	1.728338
C121	C	1.113716	-0.439817	0.951950
C122	C	1.447050	-0.106484	1.285283
C123	C	1.780383	0.226849	1.618616
H124	H	1.258919	-0.294730	0.907376
H125	H	1.592252	0.038604	1.240709
H126	H	1.925586	0.371937	1.574043
H127	H	1.258942	-0.294668	1.106423
H128	H	1.592275	0.038666	1.439757
H129	H	1.925608	0.371999	1.773090
H130	H	1.071730	-0.481753	1.106325
H131	H	1.405063	-0.148420	1.439658
H132	H	1.738397	0.184914	1.772992
Cl133	Cl	1.048836	-0.504655	0.882940
Cl134	Cl	1.382170	-0.171322	1.216273
Cl135	Cl	1.715503	0.162012	1.549607
