data_functionalizedCrystal
_audit_creation_method	'MofGen! by Chris Wilmer'
_symmetry_space_group_name_H-M	'P1'
_symmetry_Int_Tables_number	1
_symmetry_cell_setting	triclinic
loop_
_symmetry_equiv_pos_as_xyz
  x,y,z
_cell_length_a	9.065218
_cell_length_b	10.268362
_cell_length_c	9.065218
_cell_angle_alpha	89.987294
_cell_angle_beta	94.984082
_cell_angle_gamma	90.004643
loop_
_atom_site_label
_atom_site_type_symbol
_atom_site_fract_x
_atom_site_fract_y
_atom_site_fract_z
O1	O	1.960402	0.108329	-0.216358
O2	O	2.460402	0.608329	0.283642
O3	O	1.531117	0.108333	-0.234104
O4	O	2.031117	0.608333	0.265896
O5	O	1.754632	0.108297	-0.010589
O6	O	2.254632	0.608297	0.489411
O7	O	1.736886	0.108364	-0.439874
O8	O	2.236886	0.608364	0.060126
O9	O	1.754613	-0.108303	-0.010579
O10	O	2.254613	0.391697	0.489421
O11	O	1.531097	-0.108268	-0.234095
O12	O	2.031097	0.391732	0.265905
O13	O	1.960382	-0.108272	-0.216348
O14	O	2.460382	0.391728	0.283652
Cu15	Cu	1.745738	-0.128047	-0.225221
Cu16	Cu	2.245738	0.371953	0.274779
Cu17	Cu	1.745761	0.128108	-0.225232
Cu18	Cu	2.245761	0.628108	0.274768
O19	O	1.736866	-0.108237	-0.439864
O20	O	2.236866	0.391763	0.060136
C21	C	1.476120	0.000032	-0.232394
C22	C	1.976120	0.500032	0.267606
C23	C	1.312277	0.000032	-0.227294
C24	C	1.812277	0.500032	0.272706
N25	N	1.745732	-0.308213	-0.225212
N26	N	2.245732	0.191787	0.274788
C27	C	1.745754	-0.573884	-0.225229
C28	C	2.245754	-0.073884	0.274771
C29	C	1.745737	-0.426046	-0.225224
C30	C	2.245737	0.073954	0.274776
C31	C	2.015378	0.000031	-0.218059
C32	C	2.515378	0.500031	0.281941
C33	C	2.179221	0.000040	-0.223158
C34	C	2.679221	0.500040	0.276842
C35	C	1.752917	-0.000009	0.044403
C36	C	2.252917	0.499991	0.544403
C37	C	1.747817	-0.000026	0.208245
C38	C	2.247817	0.499974	0.708245
N39	N	1.745778	0.308274	-0.225229
N40	N	2.245778	0.808274	0.274771
C41	C	1.738582	0.000036	0.505145
C42	C	2.238582	0.500036	1.005145
C43	C	1.743681	-0.000045	0.341302
C44	C	2.243681	0.499955	0.841302
