data_functionalizedCrystal
_audit_creation_method	'MofGen! by Chris Wilmer'
_symmetry_space_group_name_H-M	'P1'
_symmetry_Int_Tables_number	1
_symmetry_cell_setting	triclinic
loop_
_symmetry_equiv_pos_as_xyz
  x,y,z
_cell_length_a	16.625547
_cell_length_b	18.101396
_cell_length_c	16.625527
_cell_angle_alpha	89.915529
_cell_angle_beta	90.064128
_cell_angle_gamma	89.963039
loop_
_atom_site_label
_atom_site_type_symbol
_atom_site_fract_x
_atom_site_fract_y
_atom_site_fract_z
Zn1	Zn	1.232912	0.294409	0.456009
Zn2	Zn	1.482912	0.544409	0.706009
Zn3	Zn	1.732912	0.794409	0.956009
Zn4	Zn	1.982912	1.044409	1.206009
Zn5	Zn	1.232688	0.418383	0.321179
Zn6	Zn	1.482688	0.668383	0.571179
Zn7	Zn	1.732688	0.918383	0.821179
Zn8	Zn	1.982688	1.168383	1.071179
Zn9	Zn	1.097981	0.294559	0.321179
Zn10	Zn	1.347981	0.544559	0.571179
Zn11	Zn	1.597981	0.794559	0.821179
Zn12	Zn	1.847981	1.044559	1.071179
Zn13	Zn	1.098010	0.418213	0.455959
Zn14	Zn	1.348010	0.668213	0.705959
Zn15	Zn	1.598010	0.918213	0.955959
Zn16	Zn	1.848010	1.168213	1.205959
O17	O	1.165398	0.356391	0.388582
O18	O	1.415398	0.606391	0.638582
O19	O	1.665398	0.856391	0.888582
O20	O	1.915398	1.106391	1.138582
O21	O	1.345715	0.310863	0.438144
O22	O	1.595715	0.560863	0.688144
O23	O	1.845715	0.810863	0.938144
O24	O	2.095715	1.060863	1.188144
O25	O	1.214714	0.402091	0.208346
O26	O	1.464714	0.652091	0.458346
O27	O	1.714714	0.902091	0.708346
O28	O	1.964714	1.152091	0.958346
O29	O	1.115962	0.190906	0.339086
O30	O	1.365962	0.440906	0.589086
O31	O	1.615962	0.690906	0.839086
O32	O	1.865962	0.940906	1.089086
O33	O	1.345551	0.401945	0.339085
O34	O	1.595551	0.651945	0.589085
O35	O	1.845551	0.901945	0.839085
O36	O	2.095551	1.151945	1.089085
O37	O	1.215095	0.190796	0.438145
O38	O	1.465095	0.440796	0.688145
O39	O	1.715095	0.690796	0.938145
O40	O	1.965095	0.940796	1.188145
O41	O	1.115745	0.311118	0.208347
O42	O	1.365745	0.561118	0.458347
O43	O	1.615745	0.811118	0.708347
O44	O	1.865745	1.061118	0.958347
O45	O	0.985153	0.310954	0.339037
O46	O	1.235153	0.560954	0.589037
O47	O	1.485153	0.810954	0.839037
O48	O	1.735153	1.060954	1.089037
O49	O	1.116011	0.401657	0.568798
O50	O	1.366011	0.651657	0.818798
O51	O	1.616011	0.901657	1.068798
O52	O	1.866011	1.151657	1.318798
O53	O	0.985174	0.401802	0.438060
O54	O	1.235174	0.651802	0.688060
O55	O	1.485174	0.901802	0.938060
O56	O	1.735174	1.151802	1.188060
O57	O	1.215123	0.310699	0.568835
O58	O	1.465123	0.560699	0.818835
O59	O	1.715123	0.810699	1.068835
O60	O	1.965123	1.060699	1.318835
O61	O	1.214742	0.521993	0.339037
O62	O	1.464742	0.771993	0.589037
O63	O	1.714742	1.021993	0.839037
O64	O	1.964742	1.271993	1.089037
O65	O	1.115794	0.521869	0.438059
O66	O	1.365794	0.771869	0.688059
O67	O	1.615794	1.021869	0.938059
O68	O	1.865794	1.271869	1.188059
C69	C	0.955907	0.356377	0.388544
C70	C	1.205907	0.606377	0.638544
C71	C	1.455907	0.856377	0.888544
C72	C	1.705907	1.106377	1.138544
C73	C	0.866286	0.356389	0.388546
C74	C	1.116286	0.606389	0.638546
C75	C	1.366286	0.856389	0.888546
C76	C	1.616286	1.106389	1.138546
C77	C	0.793504	0.356390	0.388556
C78	C	1.043504	0.606390	0.638556
C79	C	1.293504	0.856390	0.888556
C80	C	1.543504	1.106390	1.138556
C81	C	0.702195	0.356394	0.388577
C82	C	0.952195	0.606394	0.638577
C83	C	1.202195	0.856394	0.888577
C84	C	1.452195	1.106394	1.138577
C85	C	0.629419	0.356401	0.388597
C86	C	0.879419	0.606401	0.638597
C87	C	1.129419	0.856401	0.888597
C88	C	1.379419	1.106401	1.138597
C89	C	0.538104	0.356406	0.388616
C90	C	0.788104	0.606406	0.638616
C91	C	1.038104	0.856406	0.888616
C92	C	1.288104	1.106406	1.138616
C93	C	1.165268	0.548802	0.388560
C94	C	1.415268	0.798802	0.638560
C95	C	1.665268	1.048802	0.888560
C96	C	1.915268	1.298802	1.138560
C97	C	1.165287	0.631116	0.388578
C98	C	1.415287	0.881116	0.638578
C99	C	1.665287	1.131116	0.888578
C100	C	1.915287	1.381116	1.138578
C101	C	1.165430	0.930207	0.388625
C102	C	1.415430	1.180207	0.638625
C103	C	1.665430	1.430207	0.888625
C104	C	1.915430	1.680207	1.138625
C105	C	1.103323	0.898834	0.451082
C106	C	1.353323	1.148834	0.701082
C107	C	1.603323	1.398834	0.951082
C108	C	1.853323	1.648834	1.201082
C109	C	1.103037	0.813216	0.450885
C110	C	1.353037	1.063216	0.700885
C111	C	1.603037	1.313216	0.950885
C112	C	1.853037	1.563216	1.200885
C113	C	1.165359	0.781824	0.388602
C114	C	1.415359	1.031824	0.638602
C115	C	1.665359	1.281824	0.888602
C116	C	1.915359	1.531824	1.138602
C117	C	1.142290	0.813054	0.303623
C118	C	1.392290	1.063054	0.553623
C119	C	1.642290	1.313054	0.803623
C120	C	1.892290	1.563054	1.053623
C121	C	1.141880	0.898699	0.303998
C122	C	1.391880	1.148699	0.553998
C123	C	1.641880	1.398699	0.803998
C124	C	1.891880	1.648699	1.053998
C125	C	1.250745	0.898530	0.410400
C126	C	1.500745	1.148530	0.660400
C127	C	1.750745	1.398530	0.910400
C128	C	2.000745	1.648530	1.160400
C129	C	1.250255	0.812878	0.412262
C130	C	1.500255	1.062878	0.662262
C131	C	1.750255	1.312878	0.912262
C132	C	2.000255	1.562878	1.162262
C133	C	1.165320	0.697965	0.388584
C134	C	1.415320	0.947965	0.638584
C135	C	1.665320	1.197965	0.888584
C136	C	1.915320	1.447965	1.138584
C137	C	1.165467	1.014066	0.388637
C138	C	1.415467	1.264066	0.638637
C139	C	1.665467	1.514066	0.888637
C140	C	1.915467	1.764066	1.138637
C141	C	1.375707	0.356406	0.388620
C142	C	1.625707	0.606406	0.638620
C143	C	1.875707	0.856406	0.888620
C144	C	2.125707	1.106406	1.138620
C145	C	1.465328	0.356412	0.388637
C146	C	1.715328	0.606412	0.638637
C147	C	1.965328	0.856412	0.888637
C148	C	2.215328	1.106412	1.138637
C149	C	1.165522	1.163229	0.388624
C150	C	1.415522	1.413229	0.638624
C151	C	1.665522	1.663229	0.888624
C152	C	1.915522	1.913229	1.138624
C153	C	1.165502	1.080915	0.388649
C154	C	1.415502	1.330915	0.638649
C155	C	1.665502	1.580915	0.888649
C156	C	1.915502	1.830915	1.138649
C157	C	1.165248	0.356586	0.179090
C158	C	1.415248	0.606586	0.429090
C159	C	1.665248	0.856586	0.679090
C160	C	1.915248	1.106586	0.929090
C161	C	1.165321	0.356483	0.089469
C162	C	1.415321	0.606483	0.339469
C163	C	1.665321	0.856483	0.589469
C164	C	1.915321	1.106483	0.839469
C165	C	1.165620	0.356120	-0.238705
C166	C	1.415620	0.606120	0.011295
C167	C	1.665620	0.856120	0.261295
C168	C	1.915620	1.106120	0.511295
C169	C	1.165539	0.356224	-0.147397
C170	C	1.415539	0.606224	0.102603
C171	C	1.665539	0.856224	0.352603
C172	C	1.915539	1.106224	0.602603
C173	C	1.165470	0.356302	-0.074621
C174	C	1.415470	0.606302	0.175379
C175	C	1.665470	0.856302	0.425379
C176	C	1.915470	1.106302	0.675379
C177	C	1.165390	0.356404	0.016693
C178	C	1.415390	0.606404	0.266693
C179	C	1.665390	0.856404	0.516693
C180	C	1.915390	1.106404	0.766693
C181	C	1.165595	0.356142	0.598891
C182	C	1.415595	0.606142	0.848891
C183	C	1.665595	0.856142	1.098891
C184	C	1.915595	1.106142	1.348891
C185	C	1.165679	0.356036	0.688512
C186	C	1.415679	0.606036	0.938512
C187	C	1.665679	0.856036	1.188512
C188	C	1.915679	1.106036	1.438512
H189	H	1.117477	0.792094	0.513896
H190	H	1.367477	1.042094	0.763896
H191	H	1.617477	1.292094	1.013896
H192	H	1.867477	1.542094	1.263896
Cl193	Cl	1.283191	0.931709	0.504444
Cl194	Cl	1.533191	1.181709	0.754444
Cl195	Cl	1.783191	1.431709	1.004444
Cl196	Cl	2.033191	1.681709	1.254444
H197	H	1.267650	0.792457	0.474802
H198	H	1.517650	1.042457	0.724802
H199	H	1.767650	1.292457	0.974802
H200	H	2.017650	1.542457	1.224802
Cl201	Cl	1.125384	0.930470	0.548685
Cl202	Cl	1.375384	1.180470	0.798685
Cl203	Cl	1.625384	1.430470	1.048685
Cl204	Cl	1.875384	1.680470	1.298685
Cl205	Cl	1.006287	0.932197	0.429111
Cl206	Cl	1.256287	1.182197	0.679111
Cl207	Cl	1.506287	1.432197	0.929111
Cl208	Cl	1.756287	1.682197	1.179111
Cl209	Cl	1.325497	0.779875	0.347153
Cl210	Cl	1.575497	1.029875	0.597153
Cl211	Cl	1.825497	1.279875	0.847153
Cl212	Cl	2.075497	1.529875	1.097153
H213	H	1.080588	0.791687	0.284847
H214	H	1.330588	1.041687	0.534847
H215	H	1.580588	1.291687	0.784847
H216	H	1.830588	1.541687	1.034847
H217	H	1.039806	0.792806	0.436461
H218	H	1.289806	1.042806	0.686461
H219	H	1.539806	1.292806	0.936461
H220	H	1.789806	1.542806	1.186461
Cl221	Cl	1.045591	0.929674	0.275522
Cl222	Cl	1.295591	1.179674	0.525522
Cl223	Cl	1.545591	1.429674	0.775522
Cl224	Cl	1.795591	1.679674	1.025522
H225	H	1.185151	0.919461	0.255876
H226	H	1.435151	1.169461	0.505876
H227	H	1.685151	1.419461	0.755876
H228	H	1.935151	1.669461	1.005876
H229	H	1.186105	0.792728	0.255818
H230	H	1.436105	1.042728	0.505818
H231	H	1.686105	1.292728	0.755818
H232	H	1.936105	1.542728	1.005818
Cl233	Cl	1.322192	0.929875	0.340181
Cl234	Cl	1.572192	1.179875	0.590181
Cl235	Cl	1.822192	1.429875	0.840181
Cl236	Cl	2.072192	1.679875	1.090181
