data_functionalizedCrystal
_audit_creation_method	'MofGen! by Chris Wilmer'
_symmetry_space_group_name_H-M	'P1'
_symmetry_Int_Tables_number	1
_symmetry_cell_setting	triclinic
loop_
_symmetry_equiv_pos_as_xyz
  x,y,z
_cell_length_a	23.532407
_cell_length_b	9.065218
_cell_length_c	7.540329
_cell_angle_alpha	90.003038
_cell_angle_beta	89.991770
_cell_angle_gamma	96.067719
loop_
_atom_site_label
_atom_site_type_symbol
_atom_site_fract_x
_atom_site_fract_y
_atom_site_fract_z
O1	O	0.083497	-1.956284	-0.147508
O2	O	0.583497	-1.456284	0.352492
O3	O	0.090346	-1.526662	-0.147513
O4	O	0.590346	-1.026662	0.352487
O5	O	0.004085	-1.754428	-0.147478
O6	O	0.504085	-1.254428	0.352522
O7	O	0.169758	-1.728517	-0.147543
O8	O	0.669758	-1.228517	0.352457
O9	O	0.004084	-1.754415	0.147487
O10	O	0.504084	-1.254415	0.647487
O11	O	0.090345	-1.526648	0.147453
O12	O	0.590345	-1.026648	0.647453
O13	O	0.083496	-1.956270	0.147457
O14	O	0.583496	-1.456270	0.647457
Cu15	Cu	0.086921	-1.741458	0.174387
Cu16	Cu	0.586921	-1.241458	0.674387
Cu17	Cu	0.086922	-1.741474	-0.174443
Cu18	Cu	0.586922	-1.241474	0.325557
O19	O	0.169757	-1.728504	0.147422
O20	O	0.669757	-1.228504	0.647422
C21	C	0.089687	-1.471701	-0.000030
C22	C	0.589687	-0.971701	0.499970
C23	C	0.087719	-1.307955	-0.000030
C24	C	0.587719	-0.807955	0.499970
C25	C	-0.017136	-1.753761	0.000009
C26	C	0.482864	-1.253761	0.500009
C27	C	-0.080368	-1.751778	0.000023
C28	C	0.419632	-1.251778	0.500023
C29	C	0.084155	-2.011231	-0.000030
C30	C	0.584155	-1.511231	0.499970
C31	C	0.086123	-2.174977	-0.000041
C32	C	0.586123	-1.674977	0.499959
C33	C	-0.478573	-1.874123	-0.000073
C34	C	0.021427	-1.374123	0.499927
C35	C	-0.537986	-1.872280	-0.000087
C36	C	-0.037986	-1.372280	0.499913
O37	O	-0.573898	-1.985695	-0.000151
O38	O	-0.073898	-1.485695	0.499849
N39	N	-0.561607	-1.736873	-0.000087
N40	N	-0.061607	-1.236873	0.499913
C41	C	-0.525810	-1.603300	-0.000091
C42	C	-0.025810	-1.103300	0.499909
O43	O	-0.551356	-1.487956	-0.000094
O44	O	-0.051356	-0.987956	0.499906
C45	C	-0.466397	-1.605144	-0.000090
C46	C	0.033603	-1.105144	0.499910
C47	C	-0.442780	-1.740560	-0.000072
C48	C	0.057220	-1.240560	0.499928
C49	C	-0.454955	-2.009527	-0.000057
C50	C	0.045045	-1.509527	0.499943
C51	C	-0.395546	-2.011370	-0.000040
C52	C	0.104454	-1.511370	0.499960
C53	C	-0.359753	-1.877807	-0.000040
C54	C	0.140247	-1.377807	0.499960
C55	C	-0.383371	-1.742402	-0.000056
C56	C	0.116629	-1.242402	0.499944
C57	C	-0.430601	-1.471573	-0.000108
C58	C	0.069399	-0.971573	0.499892
C59	C	-0.371185	-1.473429	-0.000108
C60	C	0.128815	-0.973429	0.499892
C61	C	-0.347568	-1.608845	-0.000090
C62	C	0.152432	-1.108845	0.499910
C63	C	-0.288169	-1.610682	-0.000038
C64	C	0.211831	-1.110682	0.499962
N65	N	-0.264548	-1.746089	-0.000038
N66	N	0.235452	-1.246089	0.499962
C67	C	-0.300341	-1.879651	-0.000039
C68	C	0.199659	-1.379651	0.499961
C69	C	-0.650581	-1.599437	-0.000096
C70	C	-0.150581	-1.099437	0.499904
C71	C	-0.709992	-1.597591	-0.000084
C72	C	-0.209992	-1.097591	0.499916
C73	C	-0.722165	-1.866571	-0.000083
C74	C	-0.222165	-1.366571	0.499917
C75	C	-0.662752	-1.868416	-0.000082
C76	C	-0.162752	-1.368416	0.499918
C77	C	-0.626960	-1.734844	-0.000096
C78	C	-0.126960	-1.234844	0.499904
C79	C	-0.175576	-1.883510	-0.000002
C80	C	0.324424	-1.383510	0.499998
C81	C	-0.116160	-1.885340	0.000022
C82	C	0.383840	-1.385340	0.500022
C83	C	-0.103993	-1.616360	0.000011
C84	C	0.396007	-1.116360	0.500011
C85	C	-0.163403	-1.614529	-0.000003
C86	C	0.336597	-1.114529	0.499997
C87	C	-0.199194	-1.748116	-0.000016
C88	C	0.300806	-1.248116	0.499984
O89	O	-0.252222	-1.497326	0.000019
O90	O	0.247778	-0.997326	0.500019
O91	O	-0.274786	-1.994976	-0.000059
O92	O	0.225214	-1.494976	0.499941
C93	C	0.190979	-1.729170	-0.000069
C94	C	0.690979	-1.229170	0.499931
C95	C	0.254210	-1.731154	-0.000094
C96	C	0.754210	-1.231154	0.499906
N97	N	0.086919	-1.741458	0.419736
N98	N	0.586919	-1.241458	0.919736
N99	N	0.086919	-1.741486	-0.419792
N100	N	0.586919	-1.241486	0.080208
H101	H	-0.096935	-1.995617	0.000041
H102	H	0.403065	-1.495617	0.500041
O103	O	-0.210255	-2.013409	0.000071
O104	O	0.289745	-1.513409	0.500071
C105	C	-0.176659	-2.133301	0.000045
C106	C	0.323341	-1.633301	0.500045
H107	H	-0.132528	-2.095163	0.055893
H108	H	0.367472	-1.595163	0.555893
H109	H	-0.172200	-2.174860	-0.141459
H110	H	0.327800	-1.674860	0.358541
C111	C	-0.259799	-2.306485	0.047135
C112	C	0.240201	-1.806485	0.547135
C113	C	-0.205598	-2.259646	0.115742
C114	C	0.294402	-1.759646	0.615742
H115	H	-0.277651	-2.384424	0.118495
H116	H	0.222349	-1.884424	0.618495
H117	H	-0.282434	-2.225713	0.047146
H118	H	0.217566	-1.725713	0.547146
H119	H	-0.256076	-2.341107	-0.070784
H120	H	0.243924	-1.841107	0.429216
H121	H	-0.209322	-2.225007	0.233650
H122	H	0.290678	-1.725007	0.733650
H123	H	-0.182964	-2.340415	0.115754
H124	H	0.317036	-1.840415	0.615754
H125	H	-0.449820	-1.361303	-0.000133
H126	H	0.050180	-0.861303	0.499867
O127	O	-0.756917	-1.996357	0.000213
O128	O	-0.256917	-1.496357	0.500213
C129	C	-0.746109	-2.078651	0.152952
C130	C	-0.246109	-1.578651	0.652952
H131	H	-0.726218	-2.000478	0.259738
H132	H	-0.226218	-1.500478	0.759738
H133	H	-0.715422	-2.163592	0.118416
H134	H	-0.215422	-1.663592	0.618416
C135	C	-0.827058	-2.255414	0.091044
C136	C	-0.327058	-1.755414	0.591044
C137	C	-0.802632	-2.159399	0.222205
C138	C	-0.302632	-1.659399	0.722205
H139	H	-0.861922	-2.305230	0.133759
H140	H	-0.361922	-1.805230	0.633759
H141	H	-0.834338	-2.199975	-0.011864
H142	H	-0.334338	-1.699975	0.488136
H143	H	-0.801480	-2.326185	0.062275
H144	H	-0.301480	-1.826185	0.562275
H145	H	-0.828206	-2.088619	0.250955
H146	H	-0.328206	-1.588619	0.750955
H147	H	-0.795357	-2.214828	0.325120
H148	H	-0.295357	-1.714828	0.825120
O149	O	-0.615896	-1.469540	-0.000006
O150	O	-0.115896	-0.969540	0.499994
C151	C	-0.649491	-1.349645	-0.000049
C152	C	-0.149491	-0.849645	0.499951
H153	H	-0.693629	-1.387773	0.055788
H154	H	-0.193629	-0.887773	0.555788
H155	H	-0.653932	-1.308100	-0.141558
H156	H	-0.153932	-0.808100	0.358442
C157	C	-0.566354	-1.176463	0.047053
C158	C	-0.066354	-0.676463	0.547053
C159	C	-0.620564	-1.223290	0.115647
C160	C	-0.120564	-0.723290	0.615647
H161	H	-0.548510	-1.098517	0.118413
H162	H	-0.048510	-0.598517	0.618413
H163	H	-0.543720	-1.257237	0.047076
H164	H	-0.043720	-0.757237	0.547076
H165	H	-0.570063	-1.141852	-0.070869
H166	H	-0.070063	-0.641852	0.429131
H167	H	-0.616854	-1.257917	0.233559
H168	H	-0.116854	-0.757917	0.733559
H169	H	-0.643196	-1.142518	0.115647
H170	H	-0.143196	-0.642518	0.615647
O171	O	-0.069137	-1.486759	-0.000069
O172	O	0.430863	-0.986759	0.499931
C173	C	-0.011635	-1.517440	-0.000015
C174	C	0.488365	-1.017440	0.499985
H175	H	-0.008756	-1.633283	-0.055841
H176	H	0.491244	-1.133283	0.444159
H177	H	0.005507	-1.511576	0.141495
H178	H	0.505507	-1.011576	0.641495
C179	C	0.020595	-1.260111	-0.047139
C180	C	0.520595	-0.760111	0.452861
C181	C	0.024132	-1.402387	-0.115718
C182	C	0.524132	-0.902387	0.384282
H183	H	0.042659	-1.189138	-0.118502
H184	H	0.542659	-0.689138	0.381498
H185	H	-0.018144	-1.239439	-0.047168
H186	H	0.481856	-0.739439	0.452832
H187	H	0.034879	-1.255245	0.070785
H188	H	0.534879	-0.755245	0.570785
H189	H	0.009841	-1.407256	-0.233631
H190	H	0.509841	-0.907256	0.266369
H191	H	0.062870	-1.423058	-0.115711
H192	H	0.562870	-0.923058	0.384289
H193	H	-0.376323	-2.121639	-0.000033
H194	H	0.123677	-1.621639	0.499967
H195	H	-0.342046	-1.364656	-0.000122
H196	H	0.157954	-0.864656	0.499878
H197	H	-0.484092	-2.118297	-0.000064
H198	H	0.015908	-1.618297	0.499936
H199	H	-0.643528	-1.978683	-0.000069
H200	H	-0.143528	-1.478683	0.499931
H201	H	-0.729215	-1.487322	-0.000068
H202	H	-0.229215	-0.987322	0.499932
H203	H	-0.182633	-1.504263	0.000031
H204	H	0.317367	-1.004263	0.500031
