data_functionalizedCrystal
_audit_creation_method	'MofGen! by Chris Wilmer'
_symmetry_space_group_name_H-M	'P1'
_symmetry_Int_Tables_number	1
_symmetry_cell_setting	triclinic
loop_
_symmetry_equiv_pos_as_xyz
  x,y,z
_cell_length_a	11.026607
_cell_length_b	15.944551
_cell_length_c	10.065875
_cell_angle_alpha	98.788968
_cell_angle_beta	79.302338
_cell_angle_gamma	96.042377
loop_
_atom_site_label
_atom_site_type_symbol
_atom_site_fract_x
_atom_site_fract_y
_atom_site_fract_z
O1	O	1.627949	0.342077	-0.113512
O2	O	1.274640	0.302024	-0.113511
O3	O	1.460941	0.201235	-0.113499
O4	O	1.441648	0.442866	-0.113524
O5	O	1.425416	0.220553	0.113487
O6	O	1.239115	0.321342	0.113475
O7	O	1.592424	0.361394	0.113475
Zn8	Zn	1.410129	0.344435	0.149514
Zn9	Zn	1.456935	0.318983	-0.149550
O10	O	1.406123	0.462183	0.113463
C11	C	1.211666	0.304294	-0.000018
C12	C	1.076950	0.282267	-0.000017
C13	C	1.003150	0.343086	-0.000024
C14	C	0.863914	0.320322	-0.000024
C15	C	1.442377	0.179479	-0.000006
C16	C	1.439975	0.085870	-0.000005
C17	C	1.318759	-0.147313	-0.000024
C18	C	1.357533	-0.190296	0.111894
C19	C	1.435632	-0.085514	-0.000015
C20	C	1.392586	-0.209321	-0.111896
C21	C	1.431429	-0.251063	-0.000031
C22	C	1.474424	-0.127256	0.111995
C23	C	1.509476	-0.146286	-0.111896
C24	C	1.548331	-0.189236	0.000049
C25	C	1.438050	0.009855	-0.000005
C26	C	1.429019	-0.346429	-0.000032
C27	C	1.655399	0.359124	-0.000022
C28	C	1.790116	0.381150	-0.000031
C29	C	1.424687	0.483939	-0.000034
C30	C	1.427090	0.577548	-0.000043
N31	N	1.378194	0.361806	0.353617
N32	N	1.488879	0.301607	-0.353654
C33	C	1.445816	0.325021	0.421401
C34	C	1.421248	0.338398	0.578566
H35	H	1.037057	0.213342	-0.000045
H36	H	1.221730	-0.128661	0.000088
C37	C	0.786447	0.524184	0.116634
C38	C	0.843967	0.474199	-0.000044
H39	H	0.819704	0.581625	0.116625
H40	H	0.699955	0.521098	0.116623
H41	H	0.800694	0.503735	0.195785
H42	H	0.829713	0.494644	-0.079196
H43	H	0.930480	0.477289	-0.000045
H44	H	1.302107	0.403200	0.411939
C45	C	1.606353	0.237675	0.435409
C46	C	1.548526	0.269132	0.342683
H47	H	1.669758	0.203167	0.386812
H48	H	1.641496	0.283901	0.491123
H49	H	1.547023	0.204610	0.491163
H50	H	1.607855	0.302202	0.286936
H51	H	1.513385	0.222898	0.286946
H52	H	1.043047	0.412009	-0.000024
H53	H	0.824027	0.251392	-0.000052
H54	H	1.293291	-0.209825	0.206512
H55	H	1.508991	-0.091738	0.206717
H56	H	1.645418	-0.207712	0.000112
H57	H	1.573676	-0.126742	-0.206519
H58	H	1.564962	0.260203	0.588030
H59	H	1.357946	-0.244926	-0.206521
C60	C	1.204418	0.360035	0.622875
C61	C	1.318527	0.394284	0.657283
H62	H	1.141005	0.394533	0.671480
H63	H	1.207460	0.358385	0.527596
H64	H	1.187394	0.303962	0.646236
H65	H	1.335556	0.450354	0.633912
H66	H	1.315487	0.395943	0.752583
