data_functionalizedCrystal
_audit_creation_method	'MofGen! by Chris Wilmer'
_symmetry_space_group_name_H-M	'P1'
_symmetry_Int_Tables_number	1
_symmetry_cell_setting	triclinic
loop_
_symmetry_equiv_pos_as_xyz
  x,y,z
_cell_length_a	11.792241
_cell_length_b	14.519709
_cell_length_c	10.268362
_cell_angle_alpha	89.993769
_cell_angle_beta	89.999626
_cell_angle_gamma	83.936780
loop_
_atom_site_label
_atom_site_type_symbol
_atom_site_fract_x
_atom_site_fract_y
_atom_site_fract_z
O1	O	1.506208	0.126405	-0.108177
O2	O	2.006208	0.626405	0.391823
O3	O	1.175795	0.139432	-0.108207
O4	O	1.675795	0.639432	0.391793
O5	O	1.349762	-0.001288	-0.108180
O6	O	1.849762	0.498712	0.391820
O7	O	1.332241	0.267125	-0.108205
O8	O	1.832241	0.767125	0.391795
O9	O	1.349747	-0.001294	0.108421
O10	O	1.849747	0.498706	0.608421
O11	O	1.175780	0.139426	0.108393
O12	O	1.675780	0.639426	0.608393
O13	O	1.506193	0.126399	0.108424
O14	O	2.006193	0.626399	0.608424
Cu15	Cu	1.340985	0.132912	0.128186
Cu16	Cu	1.840985	0.632912	0.628186
Cu17	Cu	1.341003	0.132919	-0.127969
Cu18	Cu	1.841003	0.632919	0.372031
O19	O	1.332226	0.267119	0.108396
O20	O	1.832226	0.767119	0.608396
C21	C	1.133501	0.138611	0.000089
C22	C	1.633501	0.638611	0.500089
C23	C	1.007501	0.136161	0.000078
C24	C	1.507501	0.636161	0.500078
C25	C	1.348938	-0.035654	0.000121
C26	C	1.848938	0.464346	0.500121
C27	C	1.346491	-0.138044	0.000121
C28	C	1.846491	0.361956	0.500121
C29	C	0.776813	0.131657	0.000116
C30	C	1.276813	0.631657	0.500116
C31	C	0.905185	0.134160	0.000095
C32	C	1.405185	0.634160	0.500095
C33	C	1.337483	-0.512973	0.000087
C34	C	1.837483	-0.012973	0.500087
C35	C	1.339984	-0.408656	0.000097
C36	C	1.839984	0.091344	0.500097
C37	C	1.341987	-0.325512	0.000105
C38	C	1.841987	0.174488	0.500105
C39	C	1.344489	-0.221188	0.000113
C40	C	1.844489	0.278812	0.500113
C41	C	1.548487	0.127220	0.000124
C42	C	2.048487	0.627220	0.500124
C43	C	1.674487	0.129669	0.000127
C44	C	2.174487	0.629669	0.500127
C45	C	1.333050	0.301484	0.000093
C46	C	1.833050	0.801484	0.500093
C47	C	1.335497	0.403875	0.000084
C48	C	1.835497	0.903875	0.500084
N49	N	1.340981	0.132906	0.308352
N50	N	1.840981	0.632906	0.808352
N51	N	1.341016	0.132917	-0.308135
N52	N	1.841016	0.632917	0.191865
C53	C	1.340997	0.132917	0.574022
C54	C	1.840997	0.632917	1.074022
C55	C	1.340984	0.132914	0.426184
C56	C	1.840984	0.632914	0.926184
