data_functionalizedCrystal
_audit_creation_method	'MofGen! by Chris Wilmer'
_symmetry_space_group_name_H-M	'P1'
_symmetry_Int_Tables_number	1
_symmetry_cell_setting	triclinic
loop_
_symmetry_equiv_pos_as_xyz
  x,y,z
_cell_length_a	23.532407
_cell_length_b	13.339070
_cell_length_c	12.376457
_cell_angle_alpha	75.601917
_cell_angle_beta	78.776505
_cell_angle_gamma	80.761014
loop_
_atom_site_label
_atom_site_type_symbol
_atom_site_fract_x
_atom_site_fract_y
_atom_site_fract_z
O1	O	0.782875	-0.103125	-0.094068
O2	O	0.619870	-0.120868	-0.094056
O3	O	0.682665	0.035078	-0.094057
O4	O	0.720081	-0.259071	-0.094067
O5	O	0.666965	-0.003856	0.093955
O6	O	0.604171	-0.159802	0.093957
O7	O	0.767176	-0.142059	0.093945
Zn8	Zn	0.683181	-0.157112	0.123802
Zn9	Zn	0.703865	-0.105815	-0.123913
O10	O	0.704381	-0.298005	0.093946
C11	C	0.590732	-0.139884	-0.000048
C12	C	0.527295	-0.138526	-0.000043
C13	C	0.668495	0.053237	-0.000052
C14	C	0.649656	0.165350	-0.000055
C15	C	0.796314	-0.123043	-0.000066
C16	C	0.859751	-0.124399	-0.000078
C17	C	1.245348	-0.040641	-0.000036
C18	C	1.304951	-0.041904	-0.000031
O19	O	1.329174	0.035739	0.000012
N20	N	1.342523	-0.134612	-0.000037
C21	C	1.320488	-0.226066	-0.000037
O22	O	1.357918	-0.305038	-0.000041
C23	C	1.260885	-0.224804	-0.000034
C24	C	1.223317	-0.132087	-0.000039
C25	C	1.207780	0.052068	-0.000040
C26	C	1.148181	0.053330	-0.000047
C27	C	1.126150	-0.038116	-0.000050
C28	C	1.163718	-0.130825	-0.000046
C29	C	1.238850	-0.316259	-0.000025
C30	C	1.179243	-0.314989	-0.000021
C31	C	1.141674	-0.222272	-0.000027
C32	C	1.082088	-0.221008	-0.000056
N33	N	1.044516	-0.128300	-0.000050
C34	C	1.066547	-0.036854	-0.000047
C35	C	1.445657	-0.228710	-0.000041
C36	C	1.505260	-0.229972	-0.000053
C37	C	1.489718	-0.045810	-0.000044
C38	C	1.430115	-0.044547	-0.000041
C39	C	1.408085	-0.136002	-0.000035
C40	C	0.941386	-0.034208	-0.000063
C41	C	0.881783	-0.032953	-0.000074
C42	C	0.897328	-0.217116	-0.000077
C43	C	0.956927	-0.218371	-0.000071
C44	C	0.978953	-0.126910	-0.000060
O45	O	1.057823	-0.298612	-0.000095
O46	O	1.029109	0.042102	-0.000028
C47	C	0.718551	-0.316164	-0.000062
C48	C	0.737390	-0.428275	-0.000066
N49	N	0.669068	-0.192120	0.292860
C50	C	0.796138	0.531617	-0.000065
C51	C	0.813839	0.426280	-0.000056
C52	C	0.772795	0.361043	-0.000056
C53	C	0.714047	0.401152	-0.000065
C54	C	0.696343	0.506497	-0.000065
C55	C	0.673000	0.335923	-0.000056
C56	C	0.614252	0.376032	-0.000065
C57	C	0.596551	0.481367	-0.000066
C58	C	0.637596	0.546605	-0.000066
C59	C	0.690704	0.230578	-0.000056
C60	C	0.590909	0.205458	-0.000056
C61	C	0.573208	0.310795	-0.000065
N62	N	0.717981	-0.070799	-0.292971
C63	C	0.750737	0.010485	0.647844
C64	C	0.760611	0.034988	0.529504
C65	C	0.737726	-0.021787	0.470337
C66	C	0.704966	-0.103068	0.529522
C67	C	0.695094	-0.127578	0.647874
C68	C	0.682084	-0.159851	0.470367
C69	C	0.649323	-0.241132	0.529552
C70	C	0.639453	-0.265638	0.647892
C71	C	0.662338	-0.208863	0.707059
C72	C	0.691955	-0.135341	0.352015
C73	C	0.636312	-0.273405	0.352045
C74	C	0.626438	-0.297907	0.470385
H75	H	0.851196	0.042552	-0.000082
H76	H	0.959312	0.040268	-0.000054
H77	H	1.161309	-0.389465	-0.000011
C78	C	0.755326	0.186472	-0.000054
N79	N	0.804003	0.153254	-0.000057
H80	H	1.117597	0.128829	-0.000046
H81	H	0.829549	0.584740	-0.000056
H82	H	1.225710	0.126538	-0.000033
C83	C	0.651464	-0.235792	0.837241
N84	N	0.643269	-0.256066	0.935296
H85	H	1.507666	0.028651	-0.000042
C86	C	1.280161	-0.418260	-0.000001
N87	N	1.311276	-0.495095	0.000025
C88	C	0.727986	-0.045928	0.286926
N89	N	0.755126	0.021426	0.237901
C90	C	0.998254	-0.320360	-0.000078
N91	N	1.029378	-0.397183	-0.000073
H92	H	0.787211	0.275273	-0.000048
H93	H	0.617678	-0.319638	0.303872
C94	C	0.531926	0.525482	-0.000064
N95	N	0.483249	0.558707	-0.000064
C96	C	0.508584	0.354926	-0.000059
N97	N	0.459909	0.388166	-0.000050
C98	C	0.618126	0.662481	-0.000063
N99	N	0.603462	0.749759	-0.000055
H100	H	0.879380	-0.291567	-0.000085
H101	H	0.557486	0.152340	-0.000050
H102	H	1.399531	0.030951	-0.000045
H103	H	0.612783	-0.331829	0.696080
C104	C	1.421431	-0.329322	-0.000047
N105	N	1.403187	-0.405103	-0.000049
H106	H	0.861672	0.393631	-0.000047
C107	C	1.546579	-0.331965	-0.000056
N108	N	1.577699	-0.408792	-0.000050
C109	C	0.796643	0.124399	0.464409
N110	N	0.823782	0.191751	0.415379
H111	H	0.745767	-0.001833	0.373979
C112	C	0.775908	0.072926	0.712934
N113	N	0.794868	0.119960	0.761962
H114	H	0.599764	-0.364088	0.518588
