data_functionalizedCrystal
_audit_creation_method	'MofGen! by Chris Wilmer'
_symmetry_space_group_name_H-M	'P1'
_symmetry_Int_Tables_number	1
_symmetry_cell_setting	triclinic
loop_
_symmetry_equiv_pos_as_xyz
  x,y,z
_cell_length_a	19.188930
_cell_length_b	19.188930
_cell_length_c	18.266242
_cell_angle_alpha	90.011475
_cell_angle_beta	90.022918
_cell_angle_gamma	83.144779
loop_
_atom_site_label
_atom_site_type_symbol
_atom_site_fract_x
_atom_site_fract_y
_atom_site_fract_z
O1	O	0.926149	0.087169	0.061124
O2	O	1.426149	0.587169	0.561124
O3	O	0.722838	0.098903	0.061075
O4	O	1.222838	0.598903	0.561075
O5	O	0.830361	-0.008620	0.061087
O6	O	1.330361	0.491380	0.561087
O7	O	0.818627	0.194691	0.061113
O8	O	1.318627	0.694691	0.561113
O9	O	0.830343	-0.008625	-0.060675
O10	O	1.330343	0.491375	0.439325
O11	O	0.722820	0.098897	-0.060687
O12	O	1.222820	0.598897	0.439313
O13	O	0.926131	0.087163	-0.060638
O14	O	1.426131	0.587163	0.439362
Zn15	Zn	0.824473	0.093029	-0.079994
Zn16	Zn	1.324473	0.593029	0.420006
Zn17	Zn	0.824497	0.093037	0.080432
Zn18	Zn	1.324497	0.593037	0.580432
O19	O	0.818608	0.194686	-0.060649
O20	O	1.318608	0.694686	0.439351
C21	C	0.696818	0.098520	0.000188
C22	C	1.196818	0.598520	0.500188
C23	C	0.619313	0.097380	0.000169
C24	C	1.119313	0.597380	0.500169
C25	C	0.574389	0.160470	0.000188
C26	C	1.074389	0.660470	0.500188
C27	C	0.501566	0.159399	0.000196
C28	C	1.001566	0.659399	0.500196
C29	C	0.473669	0.095233	0.000199
C30	C	0.973669	0.595233	0.500199
C31	C	0.518603	0.032133	0.000175
C32	C	1.018603	0.532133	0.500175
C33	C	0.591425	0.033207	0.000160
C34	C	1.091425	0.533207	0.500160
N35	N	0.365695	0.046188	0.041663
N36	N	0.865695	0.546188	0.541663
N37	N	0.296516	0.045172	0.041679
N38	N	0.796516	0.545172	0.541679
C39	C	0.254260	0.091994	0.000243
C40	C	0.754260	0.591994	0.500243
N41	N	0.283795	0.139881	-0.041200
N42	N	0.783795	0.639881	0.458800
N43	N	0.352980	0.140899	-0.041213
N44	N	0.852980	0.640899	0.458787
C45	C	0.394707	0.094062	0.000215
C46	C	0.894707	0.594062	0.500215
C47	C	0.130372	0.153928	0.000270
C48	C	0.630372	0.653928	0.500270
C49	C	0.057547	0.152853	0.000274
C50	C	0.557547	0.652853	0.500274
C51	C	0.074586	0.025586	0.000261
C52	C	0.574586	0.525586	0.500261
C53	C	0.147409	0.026662	0.000250
C54	C	0.647409	0.526662	0.500250
C55	C	0.175298	0.090835	0.000258
C56	C	0.675298	0.590835	0.500258
C57	C	0.829972	-0.034634	0.000204
C58	C	1.329972	0.465366	0.500204
C59	C	0.828831	-0.112138	0.000197
C60	C	1.328831	0.387862	0.500197
C61	C	0.891922	-0.157062	0.000209
C62	C	1.391922	0.342938	0.500209
C63	C	0.890850	-0.229886	0.000220
C64	C	1.390850	0.270114	0.500220
C65	C	0.826684	-0.257782	0.000206
C66	C	1.326684	0.242218	0.500206
C67	C	0.763585	-0.212849	0.000198
C68	C	1.263585	0.287151	0.500198
C69	C	0.764658	-0.140026	0.000194
C70	C	1.264658	0.359974	0.500194
N71	N	0.777631	-0.365789	-0.041244
N72	N	1.277631	0.134211	0.458756
N73	N	0.776615	-0.434968	-0.041242
N74	N	1.276615	0.065032	0.458758
C75	C	0.823446	-0.477191	0.000220
C76	C	1.323446	0.022809	0.500220
N77	N	0.871341	-0.447624	0.041669
N78	N	1.371341	0.052376	0.541669
N79	N	0.872359	-0.378439	0.041664
N80	N	1.372359	0.121561	0.541664
C81	C	0.825513	-0.336745	0.000210
C82	C	1.325513	0.163255	0.500210
C83	C	0.885379	-0.601079	0.000245
C84	C	1.385379	-0.101079	0.500245
C85	C	0.884305	-0.673904	0.000261
C86	C	1.384305	-0.173904	0.500261
C87	C	0.757038	-0.656865	0.000231
C88	C	1.257038	-0.156865	0.500231
C89	C	0.758114	-0.584042	0.000222
C90	C	1.258114	-0.084042	0.500222
C91	C	0.822287	-0.556154	0.000226
C92	C	1.322287	-0.056154	0.500226
C93	C	0.952151	0.087546	0.000252
C94	C	1.452151	0.587546	0.500252
C95	C	1.029656	0.088687	0.000276
C96	C	1.529656	0.588687	0.500276
C97	C	0.818997	0.220700	0.000236
C98	C	1.318997	0.720700	0.500236
C99	C	0.820138	0.298204	0.000247
C100	C	1.320138	0.798204	0.500247
N101	N	0.824461	0.093024	-0.189481
N102	N	1.324461	0.593024	0.310519
C103	C	0.872088	0.045436	-0.227785
C104	C	1.372088	0.545436	0.272215
C105	C	0.872092	0.045433	-0.304430
C106	C	1.372092	0.545433	0.195570
C107	C	0.824477	0.093030	-0.342768
C108	C	1.324477	0.593030	0.157232
C109	C	0.776841	0.140621	-0.304455
C110	C	1.276841	0.640621	0.195545
C111	C	0.776834	0.140618	-0.227812
C112	C	1.276834	0.640618	0.272188
N113	N	0.815401	0.154837	-0.463094
N114	N	1.315401	0.654837	0.036906
N115	N	0.815413	0.154838	-0.535902
N116	N	1.315413	0.654838	-0.035902
C117	C	0.824496	0.093040	-0.573691
C118	C	1.324496	0.593040	-0.073691
N119	N	0.833582	0.031239	-0.535920
N120	N	1.333582	0.531239	-0.035920
N121	N	0.833574	0.031240	-0.463106
N122	N	1.333574	0.531240	0.036894
C123	C	0.824480	0.093038	-0.425875
C124	C	1.324480	0.593038	0.074125
C125	C	0.872131	0.045444	-0.695101
C126	C	1.372131	0.545444	-0.195101
C127	C	0.872130	0.045440	-0.771748
C128	C	1.372130	0.545440	-0.271748
C129	C	0.776882	0.140634	-0.771772
C130	C	1.276882	0.640634	-0.271772
C131	C	0.776879	0.140632	-0.695127
C132	C	1.276879	0.640632	-0.195127
C133	C	0.824507	0.093038	-0.656796
C134	C	1.324507	0.593038	-0.156796
N135	N	0.824513	0.093037	0.189919
N136	N	1.324513	0.593037	0.689919
H137	H	0.020970	0.204232	0.000285
H138	H	0.520970	0.704232	0.500285
H139	H	0.628003	-0.018171	0.000145
H140	H	1.128003	0.481829	0.500145
N141	N	0.044504	-0.043621	0.000257
N142	N	0.544504	0.456379	0.500257
H143	H	0.014694	-0.046903	0.045399
H144	H	0.514694	0.453097	0.545399
H145	H	0.084054	-0.083387	0.000217
H146	H	0.584054	0.416613	0.500217
N147	N	0.952358	-0.722360	0.000268
N148	N	1.452358	-0.222360	0.500268
H149	H	0.941942	-0.772725	0.000273
H150	H	1.441942	-0.272725	0.500273
H151	H	0.980345	-0.713339	0.045408
H152	H	1.480345	-0.213339	0.545408
N153	N	0.958900	-0.278352	0.000235
N154	N	1.458900	0.221648	0.500235
H155	H	0.999715	-0.249634	0.000238
H156	H	1.499715	0.250366	0.500238
H157	H	0.961213	-0.308946	-0.044903
H158	H	1.461213	0.191054	0.455097
H159	H	0.711340	-0.235567	0.000187
H160	H	1.211340	0.264433	0.500187
H161	H	0.738049	0.179371	-0.196624
H162	H	1.238049	0.679371	0.303376
N163	N	0.488524	-0.037077	0.000184
N164	N	0.988524	0.462923	0.500184
H165	H	0.504894	-0.064709	-0.044961
H166	H	1.004894	0.435291	0.455039
H167	H	0.435579	-0.028130	0.000227
H168	H	0.935579	0.471870	0.500227
H169	H	0.738100	0.179386	-0.663938
H170	H	1.238100	0.679386	-0.163938
N171	N	0.696608	-0.091567	0.000182
N172	N	1.196608	0.408433	0.500182
H173	H	0.655794	-0.120287	0.000176
H174	H	1.155794	0.379713	0.500176
H175	H	0.694274	-0.060994	-0.044961
H176	H	1.194274	0.439006	0.455039
N177	N	0.923495	-0.005888	-0.653752
N178	N	1.423495	0.494112	-0.153752
H179	H	0.953664	-0.036040	-0.689651
H180	H	1.453664	0.463960	-0.189651
H181	H	0.896860	-0.036688	-0.621971
H182	H	1.396860	0.463312	-0.121971
N183	N	0.923505	-0.005883	-0.813068
N184	N	1.423505	0.494117	-0.313068
H185	H	0.954327	0.020735	-0.844844
H186	H	1.454327	0.520735	-0.344844
H187	H	0.896879	-0.036722	-0.844848
H188	H	1.396879	0.463278	-0.344848
N189	N	0.954589	-0.570993	0.000252
N190	N	1.454589	-0.070993	0.500252
H191	H	0.994396	-0.610505	0.000267
H192	H	1.494396	-0.110505	0.500267
H193	H	0.957813	-0.541136	0.045387
H194	H	1.457813	-0.041136	0.545387
H195	H	0.738110	0.179386	-0.802986
H196	H	1.238110	0.679386	-0.302986
H197	H	0.704792	-0.679578	0.000222
H198	H	1.204792	-0.179578	0.500222
N199	N	0.923471	-0.005894	-0.345748
N200	N	1.423471	0.494106	0.154252
H201	H	0.954298	0.020719	-0.377522
H202	H	1.454298	0.520719	0.122478
H203	H	0.896847	-0.036734	-0.377530
H204	H	1.396847	0.463266	0.122470
H205	H	0.183988	-0.024713	0.000238
H206	H	0.683988	0.475287	0.500238
N207	N	0.690066	-0.535583	0.000205
N208	N	1.190066	-0.035583	0.500205
H209	H	0.649253	-0.564303	0.000197
H210	H	1.149253	-0.064303	0.500197
H211	H	0.687733	-0.505008	-0.044936
H212	H	1.187733	-0.005008	0.455064
H213	H	0.910868	0.006681	-0.196579
H214	H	1.410868	0.506681	0.303421
N215	N	0.725483	0.191953	-0.345805
N216	N	1.225483	0.691953	0.154195
H217	H	0.752068	0.222806	-0.377580
H218	H	1.252068	0.722806	0.122420
H219	H	0.695320	0.222053	-0.309861
H220	H	1.195320	0.722053	0.190139
N221	N	0.604460	0.229687	0.000198
N222	N	1.104460	0.729687	0.500198
H223	H	0.588035	0.257319	-0.044931
H224	H	1.088035	0.757319	0.455069
H225	H	0.657406	0.220744	0.000215
H226	H	1.157406	0.720744	0.500215
N227	N	0.453100	0.227449	0.000219
N228	N	0.953100	0.727449	0.500219
H229	H	0.481817	0.268264	0.000221
H230	H	0.981817	0.768264	0.500221
H231	H	0.422543	0.229769	0.045366
H232	H	0.922543	0.729769	0.545366
H233	H	0.944176	-0.134360	0.000214
H234	H	1.444176	0.365640	0.500214
N235	N	0.160459	0.223138	0.000276
N236	N	0.660459	0.723138	0.500276
H237	H	0.120946	0.262945	0.000283
H238	H	0.620946	0.762945	0.500283
H239	H	0.190280	0.226352	-0.044867
H240	H	0.690280	0.726352	0.455133
