data_functionalizedCrystal
_audit_creation_method	'MofGen! by Chris Wilmer'
_symmetry_space_group_name_H-M	'P1'
_symmetry_Int_Tables_number	1
_symmetry_cell_setting	triclinic
loop_
_symmetry_equiv_pos_as_xyz
  x,y,z
_cell_length_a	16.974810
_cell_length_b	17.699104
_cell_length_c	16.776229
_cell_angle_alpha	90.011179
_cell_angle_beta	86.350051
_cell_angle_gamma	83.342085
loop_
_atom_site_label
_atom_site_type_symbol
_atom_site_fract_x
_atom_site_fract_y
_atom_site_fract_z
O1	O	-1.048968	-0.096427	0.001404
O2	O	-0.818740	-0.108722	-0.013457
O3	O	-0.940350	0.007609	-0.005593
O4	O	-0.927358	-0.212758	-0.006460
O5	O	-0.940334	0.007616	0.126983
O6	O	-0.818724	-0.108715	0.119118
O7	O	-1.048952	-0.096420	0.133980
Zn8	Zn	-0.933836	-0.102566	0.147598
Zn9	Zn	-0.933857	-0.102576	-0.027076
O10	O	-0.927342	-0.212751	0.126115
C11	C	-0.789275	-0.108252	0.050929
C12	C	-0.701501	-0.106854	0.045264
C13	C	-0.660260	-0.106191	0.114871
C14	C	-0.577789	-0.104865	0.109550
C15	C	-0.536559	-0.104207	0.034621
C16	C	-0.577806	-0.104868	-0.034991
C17	C	-0.660276	-0.106188	-0.029669
C18	C	-0.289911	-0.100253	0.010956
C19	C	-0.207434	-0.098935	0.005640
C20	C	-0.207424	-0.098931	0.150182
C21	C	-0.289895	-0.100256	0.155497
C22	C	-0.331135	-0.100912	0.085884
N23	N	-0.452260	-0.102854	0.029181
N24	N	-0.415433	-0.102260	0.091326
C25	C	-0.939874	0.035810	0.060667
C26	C	-0.938469	0.119828	0.060582
C27	C	-0.078418	-0.096885	0.069590
C28	C	-0.166194	-0.098272	0.075247
C29	C	-1.001928	0.644656	0.064690
C30	C	-1.003243	0.565711	0.064777
C31	C	-0.931853	0.517142	0.060167
C32	C	-0.859144	0.547522	0.055479
C33	C	-0.857829	0.626465	0.055398
C34	C	-0.864443	0.229152	0.055807
C35	C	-0.865764	0.150204	0.055886
C36	C	-1.009858	0.168398	0.065186
C37	C	-1.008543	0.247341	0.065105
C38	C	-0.935834	0.277714	0.060420
C39	C	-0.934408	0.363315	0.060328
C40	C	-0.933278	0.431543	0.060254
C41	C	-0.927819	0.759048	0.059871
C42	C	-0.929224	0.675030	0.060000
N43	N	-0.933827	-0.102559	0.266809
N44	N	-0.933872	-0.102576	-0.146286
C45	C	-0.987692	-0.051069	0.312009
C46	C	-0.987697	-0.051068	0.395462
C47	C	-0.933839	-0.102562	0.433713
C48	C	-0.879968	-0.154055	0.388506
C49	C	-0.879960	-0.154052	0.305055
C50	C	-0.879996	-0.154070	0.725055
C51	C	-0.880010	-0.154071	0.808512
C52	C	-0.987733	-0.051087	0.815462
C53	C	-0.987725	-0.051083	0.732011
C54	C	-0.933852	-0.102573	0.686811
C55	C	-0.933847	-0.102572	0.596323
C56	C	-0.933847	-0.102567	0.524200
H57	H	-0.693853	-0.106730	-0.086351
O58	O	-0.827793	-0.204166	0.845712
C59	C	-0.870047	-0.250832	0.896702
H60	H	-0.932393	-0.252086	0.875559
H61	H	-0.837666	-0.311004	0.895555
H62	H	-0.874249	-0.227142	0.960224
H63	H	-1.069061	0.143660	0.068989
H64	H	-0.801017	0.507970	0.051731
H65	H	-0.544217	-0.104313	0.166232
H66	H	-0.836097	-0.195979	0.268253
H67	H	-0.836132	-0.195996	0.688260
O68	O	-0.537631	-0.104260	-0.107714
C69	C	-0.455998	-0.102935	-0.097487
H70	H	-0.441409	-0.126702	-0.036322
H71	H	-0.419571	-0.139163	-0.145998
H72	H	-0.441005	-0.041871	-0.101872
O73	O	-0.793886	0.258775	0.051283
C74	C	-0.808026	0.338867	0.052180
H75	H	-0.869759	0.357473	0.081272
H76	H	-0.761500	0.363063	0.087661
H77	H	-0.804251	0.360829	-0.011668
H78	H	-0.807626	0.110660	0.052134
H79	H	-0.693823	-0.106733	0.175886
O80	O	-0.827726	-0.204048	0.425788
C81	C	-0.839270	-0.193001	0.509137
H82	H	-0.902185	-0.164681	0.524588
H83	H	-0.830368	-0.250325	0.540263
H84	H	-0.794593	-0.155064	0.529957
O85	O	-1.039947	-0.001081	0.439488
C86	C	-1.028418	-0.012133	0.521347
H87	H	-0.965504	-0.040449	0.528692
H88	H	-1.037330	0.045190	0.553648
H89	H	-1.073097	-0.050074	0.547895
O90	O	-0.787184	0.655937	0.050695
C91	C	-0.743673	0.631092	-0.020767
H92	H	-0.786196	0.614705	-0.066015
H93	H	-0.710131	0.678881	-0.045976
H94	H	-0.699509	0.579600	-0.008097
O95	O	-0.329826	-0.100859	0.228347
C96	C	-0.275738	-0.100011	0.288645
H97	H	-0.220273	-0.075117	0.263886
H98	H	-0.304654	-0.063667	0.341063
H99	H	-0.258551	-0.160560	0.309745
O100	O	-1.040072	-0.000988	0.694981
C101	C	-1.087630	0.044448	0.752773
H102	H	-1.055223	0.045284	0.810176
H103	H	-1.099802	0.104900	0.729459
H104	H	-1.146320	0.019905	0.765414
H105	H	-0.173838	-0.098395	0.206856
H106	H	-1.031597	-0.009158	0.852273
O107	O	-1.040041	-0.000974	0.274982
C108	C	-1.087596	0.044461	0.332777
H109	H	-1.055186	0.045295	0.390179
H110	H	-1.099771	0.104913	0.309466
H111	H	-1.146285	0.019915	0.345422
H112	H	-0.173866	-0.098401	-0.055379
H113	H	-1.066676	0.286883	0.068854
H114	H	-0.323478	-0.100785	-0.045727
H115	H	-1.060062	0.684196	0.068437
H116	H	-1.062446	0.540985	0.068597
