data_functionalizedCrystal
_audit_creation_method	'MofGen! by Chris Wilmer'
_symmetry_space_group_name_H-M	'P1'
_symmetry_Int_Tables_number	1
_symmetry_cell_setting	triclinic
loop_
_symmetry_equiv_pos_as_xyz
  x,y,z
_cell_length_a	18.215407
_cell_length_b	12.645330
_cell_length_c	18.215399
_cell_angle_alpha	90.025165
_cell_angle_beta	90.019833
_cell_angle_gamma	90.013094
loop_
_atom_site_label
_atom_site_type_symbol
_atom_site_fract_x
_atom_site_fract_y
_atom_site_fract_z
Zn1	Zn	1.125135	-0.422038	0.416130
Zn2	Zn	1.458468	-0.088704	0.749463
Zn3	Zn	1.791801	0.244629	1.082797
Zn4	Zn	1.125069	-0.599320	0.293070
Zn5	Zn	1.458403	-0.265986	0.626403
Zn6	Zn	1.791736	0.067347	0.959736
Zn7	Zn	1.002067	-0.422072	0.293077
Zn8	Zn	1.335400	-0.088739	0.626411
Zn9	Zn	1.668734	0.244594	0.959744
Zn10	Zn	1.002059	-0.599261	0.416095
Zn11	Zn	1.335393	-0.265927	0.749428
Zn12	Zn	1.668726	0.067406	1.082761
O13	O	1.063583	-0.510673	0.354593
O14	O	1.396916	-0.177339	0.687926
O15	O	1.730249	0.155994	1.021260
O16	O	1.228110	-0.445565	0.399818
O17	O	1.561443	-0.112231	0.733151
O18	O	1.894777	0.221102	1.066484
O19	O	1.108729	-0.575847	0.190087
O20	O	1.442062	-0.242513	0.523420
O21	O	1.775395	0.090820	0.856753
O22	O	1.018423	-0.273720	0.309419
O23	O	1.351756	0.059613	0.642752
O24	O	1.685090	0.392946	0.976085
O25	O	1.228062	-0.575813	0.309406
O26	O	1.561395	-0.242480	0.642739
O27	O	1.894729	0.090854	0.976072
O28	O	1.108840	-0.273695	0.399825
O29	O	1.442173	0.059638	0.733158
O30	O	1.775507	0.392972	1.066492
O31	O	1.018360	-0.445624	0.190092
O32	O	1.351693	-0.112290	0.523425
O33	O	1.685026	0.221043	0.856759
O34	O	0.899082	-0.445566	0.309384
O35	O	1.232415	-0.112233	0.642718
O36	O	1.565748	0.221100	0.976051
O37	O	1.018410	-0.575713	0.519084
O38	O	1.351743	-0.242379	0.852417
O39	O	1.685076	0.090954	1.185750
O40	O	0.899076	-0.575746	0.399765
O41	O	1.232409	-0.242413	0.733098
O42	O	1.565743	0.090921	1.066431
O43	O	1.108832	-0.445507	0.519110
O44	O	1.442166	-0.112174	0.852443
O45	O	1.775499	0.221159	1.185776
O46	O	1.108721	-0.747659	0.309371
O47	O	1.442054	-0.414326	0.642705
O48	O	1.775388	-0.080993	0.976038
O49	O	1.018346	-0.747616	0.399757
O50	O	1.351680	-0.414283	0.733091
O51	O	1.685013	-0.080949	1.066424
C52	C	0.872376	-0.510654	0.354572
C53	C	1.205710	-0.177321	0.687905
C54	C	1.539043	0.156012	1.021239
C55	C	0.790577	-0.510672	0.354580
C56	C	1.123911	-0.177339	0.687914
C57	C	1.457244	0.155994	1.021247
C58	C	0.602400	-0.578563	0.401582
C59	C	0.935733	-0.245230	0.734916
C60	C	1.269066	0.088103	1.068249
C61	C	0.525541	-0.578567	0.401591
C62	C	0.858874	-0.245233	0.734925
C63	C	1.192208	0.088100	1.068258
C64	C	0.525517	-0.442801	0.307620
C65	C	0.858851	-0.109468	0.640953
C66	C	1.192184	0.223866	0.974287
C67	C	0.602375	-0.442793	0.307615
C68	C	0.935708	-0.109460	0.640948
C69	C	1.269041	0.223874	0.974282
C70	C	0.640814	-0.510680	0.354595
C71	C	0.974147	-0.177347	0.687928
C72	C	1.307481	0.155986	1.021262
C73	C	0.487098	-0.510692	0.354609
C74	C	0.820431	-0.177358	0.687943
C75	C	1.153764	0.155975	1.021276
C76	C	0.403764	-0.510695	0.354619
C77	C	0.737097	-0.177361	0.687952
C78	C	1.070431	0.155972	1.021285
C79	C	0.724153	-0.510676	0.354587
C80	C	1.057486	-0.177343	0.687920
C81	C	1.390820	0.155991	1.021253
C82	C	1.063546	-0.786102	0.354576
C83	C	1.396879	-0.452769	0.687909
C84	C	1.730212	-0.119436	1.021242
C85	C	1.063597	-0.903932	0.354593
C86	C	1.396931	-0.570599	0.687926
C87	C	1.730264	-0.237266	1.021259
C88	C	1.120361	-1.071479	0.297616
C89	C	1.453694	-0.738146	0.630949
C90	C	1.787027	-0.404813	0.964282
C91	C	1.120546	-0.948919	0.297755
C92	C	1.453879	-0.615586	0.631088
C93	C	1.787212	-0.282252	0.964422
C94	C	1.084628	-0.948318	0.432167
C95	C	1.417961	-0.614984	0.765501
C96	C	1.751295	-0.281651	1.098834
C97	C	1.085079	-1.070916	0.431865
C98	C	1.418412	-0.737583	0.765198
C99	C	1.751745	-0.404249	1.098532
C100	C	0.985781	-1.071260	0.334760
C101	C	1.319114	-0.737926	0.668093
C102	C	1.652447	-0.404593	1.001427
C103	C	0.986153	-0.948655	0.333020
C104	C	1.319487	-0.615322	0.666354
C105	C	1.652820	-0.281989	0.999687
C106	C	1.255535	-0.510692	0.354615
C107	C	1.588869	-0.177358	0.687948
C108	C	1.922202	0.155975	1.021281
C109	C	1.337334	-0.510700	0.354624
C110	C	1.670668	-0.177366	0.687957
C111	C	2.004001	0.155967	1.021291
C112	C	1.063627	-0.510599	0.546546
C113	C	1.396961	-0.177266	0.879879
C114	C	1.730294	0.156067	1.213213
C115	C	1.063646	-0.510568	0.628345
C116	C	1.396980	-0.177235	0.961678
C117	C	1.730313	0.156098	1.295012
C118	C	1.063640	-0.234167	0.354627
C119	C	1.396973	0.099166	0.687960
C120	C	1.730306	0.432499	1.021293
C121	C	1.063664	-0.116337	0.354641
C122	C	1.396997	0.216996	0.687974
C123	C	1.730331	0.550329	1.021308
C124	C	1.063580	-0.510669	0.163387
C125	C	1.396914	-0.177336	0.496720
C126	C	1.730247	0.155998	0.830053
C127	C	1.063704	-0.510401	0.081588
C128	C	1.397037	-0.177068	0.414922
C129	C	1.730370	0.156265	0.748255
C130	C	1.110747	-0.442707	0.816554
C131	C	1.444080	-0.109374	1.149887
C132	C	1.777413	0.223960	1.483220
C133	C	1.110755	-0.442676	0.893413
C134	C	1.444089	-0.109343	1.226746
C135	C	1.777422	0.223990	1.560079
C136	C	1.016598	-0.578266	0.893374
C137	C	1.349932	-0.244932	1.226708
C138	C	1.683265	0.088401	1.560041
C139	C	1.016586	-0.578290	0.816517
C140	C	1.349920	-0.244957	1.149850
C141	C	1.683253	0.088376	1.483183
C142	C	1.063665	-0.510513	0.778109
C143	C	1.396998	-0.177179	1.111442
C144	C	1.730331	0.156154	1.444775
C145	C	1.063685	-0.510457	0.931825
C146	C	1.397019	-0.177124	1.265158
C147	C	1.730352	0.156210	1.598491
C148	C	1.063695	-0.510424	1.015158
C149	C	1.397028	-0.177091	1.348492
C150	C	1.730361	0.156243	1.681825
C151	C	1.063655	-0.510544	0.694770
C152	C	1.396988	-0.177211	1.028103
C153	C	1.730321	0.156123	1.361436
H154	H	0.633695	-0.633839	0.439838
H155	H	0.967028	-0.300505	0.773172
H156	H	1.300361	0.032828	1.106505
F157	F	1.033440	-1.109700	0.489287
F158	F	1.366774	-0.776367	0.822621
F159	F	1.700107	-0.443034	1.155954
F160	F	0.966469	-0.650457	0.775598
F161	F	1.299803	-0.317124	1.108932
F162	F	1.633136	0.016209	1.442265
H163	H	0.494268	-0.633842	0.439854
H164	H	0.827601	-0.300509	0.773188
H165	H	1.160934	0.032824	1.106521
H166	H	0.494211	-0.387531	0.269369
H167	H	0.827544	-0.054198	0.602703
H168	H	1.160877	0.279135	0.936036
F169	F	0.643260	-0.370533	0.257606
F170	F	0.976594	-0.037200	0.590939
F171	F	1.309927	0.296133	0.924273
F172	F	1.160849	-0.370570	0.775679
F173	F	1.494183	-0.037236	1.109013
F174	F	1.827516	0.296097	1.442346
H175	H	1.107388	-0.918914	0.240235
H176	H	1.440721	-0.585580	0.573568
H177	H	1.774054	-0.252247	0.906902
H178	H	0.978271	-0.633450	0.924656
H179	H	1.311604	-0.300117	1.257989
H180	H	1.644937	0.033217	1.591322
F181	F	1.160871	-0.370515	0.934325
F182	F	1.494205	-0.037182	1.267659
F183	F	1.827538	0.296152	1.600992
H184	H	1.107367	-1.101030	0.239927
H185	H	1.440701	-0.767696	0.573260
H186	H	1.774034	-0.434363	0.906594
F187	F	1.195357	-1.111641	0.314610
F188	F	1.528690	-0.778308	0.647944
F189	F	1.862024	-0.444974	0.981277
F190	F	1.195944	-0.910476	0.314946
F191	F	1.529278	-0.577142	0.648280
F192	F	1.862611	-0.243809	0.981613
F193	F	0.965422	-0.910747	0.258404
F194	F	1.298756	-0.577413	0.591737
F195	F	1.632089	-0.244080	0.925070
H196	H	1.142007	-1.099429	0.448705
H197	H	1.475341	-0.766095	0.782038
H198	H	1.808674	-0.432762	1.115372
H199	H	0.943537	-1.100270	0.376294
H200	H	1.276870	-0.766937	0.709627
H201	H	1.610203	-0.433603	1.042961
H202	H	1.044590	-0.919174	0.475794
H203	H	1.377923	-0.585841	0.809127
H204	H	1.711256	-0.252508	1.142461
H205	H	1.140914	-0.917530	0.449288
H206	H	1.474247	-0.584196	0.782621
H207	H	1.807581	-0.250863	1.115955
F208	F	0.960781	-1.111788	0.262111
F209	F	1.294115	-0.778455	0.595444
F210	F	1.627448	-0.445121	0.928777
H211	H	0.941631	-0.918043	0.371509
H212	H	1.274965	-0.584710	0.704843
H213	H	1.608298	-0.251376	1.038176
