data_functionalizedCrystal
_audit_creation_method	'MofGen! by Chris Wilmer'
_symmetry_space_group_name_H-M	'P1'
_symmetry_Int_Tables_number	1
_symmetry_cell_setting	triclinic
loop_
_symmetry_equiv_pos_as_xyz
  x,y,z
_cell_length_a	17.077404
_cell_length_b	14.908520
_cell_length_c	17.077396
_cell_angle_alpha	86.732643
_cell_angle_beta	90.017244
_cell_angle_gamma	93.320938
loop_
_atom_site_label
_atom_site_type_symbol
_atom_site_fract_x
_atom_site_fract_y
_atom_site_fract_z
Zn1	Zn	1.182006	-0.359146	0.461867
Zn2	Zn	1.174344	-0.510020	0.338173
Zn3	Zn	1.050741	-0.359180	0.330617
Zn4	Zn	1.043134	-0.509964	0.469394
O5	O	1.112556	-0.434578	0.400013
O6	O	1.290836	-0.379169	0.445471
O7	O	1.157924	-0.490048	0.227326
O8	O	1.074544	-0.232931	0.341715
O9	O	1.285206	-0.490015	0.354594
O10	O	1.170984	-0.232906	0.438144
O11	O	1.067114	-0.379227	0.221774
O12	O	0.939886	-0.379173	0.349013
O13	O	1.061579	-0.489920	0.578240
O14	O	0.934297	-0.489953	0.450972
O15	O	1.163607	-0.379115	0.572711
O16	O	1.150548	-0.636257	0.361892
O17	O	1.054149	-0.636216	0.458299
C18	C	0.908609	-0.434561	0.399990
C19	C	0.821359	-0.434576	0.400000
C20	C	0.777474	-0.492346	0.453014
C21	C	0.695494	-0.492348	0.453027
C22	C	0.657399	-0.434584	0.400021
C23	C	0.701289	-0.376807	0.347005
C24	C	0.783268	-0.376801	0.346997
C25	C	0.530418	-0.376825	0.347025
C26	C	0.448433	-0.376832	0.347032
C27	C	0.442644	-0.492372	0.453055
C28	C	0.524623	-0.492366	0.453047
C29	C	0.568507	-0.434590	0.400029
C30	C	1.100713	-0.668971	0.411749
C31	C	1.095718	-0.769245	0.416797
C32	C	1.186815	-0.957653	0.325973
C33	C	1.182125	-1.051870	0.330713
C34	C	1.081650	-1.051897	0.431020
C35	C	1.086341	-0.957680	0.426280
C36	C	1.138924	-0.910561	0.373754
C37	C	1.143610	-0.816343	0.369011
C38	C	1.043141	-0.816372	0.469321
C39	C	1.038450	-0.910589	0.474061
C40	C	1.317300	-0.434595	0.400036
C41	C	1.404549	-0.434602	0.400046
C42	C	1.112599	-0.434508	0.604754
C43	C	1.112617	-0.434478	0.692002
C44	C	1.124467	-0.199269	0.388247
C45	C	1.129543	-0.098995	0.383234
C46	C	1.112562	-0.434582	0.196065
C47	C	1.112708	-0.434358	0.108804
C48	C	1.065348	-0.376766	0.730100
C49	C	1.065362	-0.376746	0.812080
C50	C	1.112650	-0.434433	0.855959
C51	C	1.159921	-0.492151	0.817855
C52	C	1.159902	-0.492175	0.735877
C53	C	1.159958	-0.492095	0.988722
C54	C	1.159978	-0.492069	1.070706
C55	C	1.065417	-0.376665	1.064925
C56	C	1.065399	-0.376690	0.982947
C57	C	1.112671	-0.434407	0.944849
H58	H	0.406909	-0.539413	0.496226
H59	H	1.038845	-1.090277	0.473789
H60	H	0.995640	-0.948966	0.516828
H61	H	0.566147	-0.329770	0.303859
H62	H	1.186424	-0.777980	0.326239
Cl63	Cl	0.400543	-0.304216	0.280392
Cl64	Cl	1.252906	-0.898415	0.259931
Cl65	Cl	0.982921	-0.757166	0.529381
H66	H	1.026897	-0.329711	0.947222
Cl67	Cl	1.242335	-1.111067	0.270645
H68	H	0.818998	-0.329754	0.303831
Cl69	Cl	0.653398	-0.304182	0.280374
H70	H	1.026846	-0.329786	0.694379
Cl71	Cl	1.005896	-0.304233	0.859974
H72	H	1.198459	-0.539086	0.957705
H73	H	0.808485	-0.539388	0.496175
H74	H	1.026928	-0.329669	1.095948
H75	H	1.198419	-0.539126	0.853588
Cl76	Cl	0.640328	-0.564978	0.519676
Cl77	Cl	0.572513	-0.564992	0.519678
Cl78	Cl	1.219431	-0.564586	1.125867
Cl79	Cl	1.219325	-0.564734	0.687982
