data_functionalizedCrystal
_audit_creation_method	'MofGen! by Chris Wilmer'
_symmetry_space_group_name_H-M	'P1'
_symmetry_Int_Tables_number	1
_symmetry_cell_setting	triclinic
loop_
_symmetry_equiv_pos_as_xyz
  x,y,z
_cell_length_a	23.096457
_cell_length_b	23.096457
_cell_length_c	14.395555
_cell_angle_alpha	60.003670
_cell_angle_beta	89.998972
_cell_angle_gamma	59.998679
loop_
_atom_site_label
_atom_site_type_symbol
_atom_site_fract_x
_atom_site_fract_y
_atom_site_fract_z
Zr1	Zr	0.557793	0.633712	-0.121879
O2	O	0.465346	0.754496	-0.270191
O3	O	0.586130	0.512927	-0.076419
O4	O	0.586134	0.633708	-0.270204
O5	O	0.465341	0.633720	0.076461
O6	O	0.681417	0.633705	-0.270207
O7	O	0.465342	0.633716	-0.076407
O8	O	0.681410	0.417651	0.076439
O9	O	0.465348	0.849774	-0.270185
O10	O	0.669327	0.562607	-0.057026
O11	O	0.598218	0.562612	0.057059
O12	O	0.598223	0.704815	-0.171097
O13	O	0.527114	0.704820	-0.057012
Zr14	Zr	0.709756	0.633716	0.121922
Zr15	Zr	0.709757	0.633709	-0.121884
Zr16	Zr	0.557791	0.633719	0.121927
Zr17	Zr	0.557796	0.785670	-0.121869
Zr18	Zr	0.709752	0.481758	0.121911
O19	O	0.681418	0.754501	0.076462
O20	O	0.681420	0.754491	-0.270199
O21	O	0.465344	0.754506	0.076469
O22	O	0.802202	0.512932	0.270234
O23	O	0.802204	0.512922	-0.076426
O24	O	0.586129	0.512937	0.270241
O25	O	0.802207	0.633708	-0.076418
O26	O	0.681414	0.633721	0.270246
O27	O	0.586132	0.633723	0.270249
O28	O	0.802206	0.633712	0.076449
O29	O	0.586140	0.849771	-0.270189
O30	O	0.681409	0.417657	0.270232
O31	O	0.802200	0.417654	0.270227
O32	O	0.802201	0.417648	0.076435
O33	O	0.465348	0.849780	-0.076392
O34	O	0.586139	0.849777	-0.076396
O35	O	0.669326	0.562613	0.171140
O36	O	0.740434	0.562608	0.057054
O37	O	0.669330	0.704817	-0.057017
O38	O	0.598222	0.704821	0.057069
C39	C	0.633769	0.443639	0.000008
C40	C	0.633768	0.379129	0.000004
C41	C	0.670881	0.348825	-0.059551
C42	C	0.670888	0.288203	-0.059542
C43	C	0.633768	0.257898	0.000007
C44	C	0.596653	0.288206	0.059576
C45	C	0.596653	0.348821	0.059574
N46	N	0.573362	0.195504	-0.008248
N47	N	0.573364	0.137923	-0.008253
C48	C	0.633767	0.075266	0.000018
N49	N	0.694168	0.072373	0.008271
N50	N	0.694165	0.129961	0.008270
C51	C	0.633764	0.192170	0.000016
C52	C	0.670891	-0.020772	-0.059531
C53	C	0.670900	-0.081399	-0.059513
C54	C	0.596658	-0.081389	0.059598
C55	C	0.596656	-0.020769	0.059588
C56	C	0.633771	0.009539	0.000017
C57	C	0.443690	0.633719	0.000028
C58	C	0.379177	0.633720	0.000030
C59	C	0.348875	0.633724	-0.084191
C60	C	0.288263	0.633716	-0.084191
C61	C	0.257947	0.633722	0.000022
C62	C	0.288259	0.633713	0.084258
C63	C	0.348874	0.633713	0.084262
N64	N	0.139596	0.680077	0.025520
N65	N	0.082013	0.680080	0.025509
C66	C	0.075317	0.633722	0.000016
N67	N	0.128375	0.587372	-0.025488
N68	N	0.185961	0.587373	-0.025483
C69	C	0.192220	0.633722	0.000027
C70	C	-0.020707	0.633717	-0.084210
C71	C	-0.081318	0.633704	-0.084202
C72	C	-0.081325	0.633709	0.084243
C73	C	-0.020711	0.633714	0.084239
C74	C	0.009592	0.633721	0.000007
C75	C	0.823858	0.633710	0.000015
C76	C	0.888371	0.633708	0.000013
C77	C	0.633776	0.633706	-0.304942
C78	C	0.633776	0.633703	-0.408444
C79	C	0.633779	0.823790	0.000034
C80	C	0.633781	0.888299	0.000039
C81	C	0.672549	0.556164	-0.406836
C82	C	0.605687	0.594927	-0.499853
C83	C	0.700621	0.594943	-0.499856
C84	C	0.566875	0.672466	-0.500098
C85	C	0.661857	0.672471	-0.500086
C86	C	0.594956	0.711290	-0.593120
C87	C	0.633773	0.633723	0.304985
C88	C	0.633772	0.633726	0.408487
C89	C	0.823854	0.443634	0.000002
C90	C	0.888365	0.379123	-0.000005
C91	C	0.633768	0.443647	0.304972
C92	C	0.633766	0.379140	0.408470
C93	C	0.823852	0.443643	0.304966
C94	C	0.888363	0.379134	0.408461
C95	C	0.443696	0.823786	-0.304923
C96	C	0.379186	0.888294	-0.408418
C97	C	0.443695	0.823794	0.000041
C98	C	0.379184	0.888306	0.000047
C99	C	0.633780	0.823781	-0.304929
C100	C	0.633783	0.888288	-0.408427
C101	C	0.881542	0.348827	-0.059567
C102	C	0.942152	0.288220	-0.059596
C103	C	1.009583	0.257906	-0.000055
C104	C	1.016404	0.288208	0.059509
C105	C	0.955795	0.348818	0.059531
C106	C	0.670882	0.348848	0.516632
C107	C	0.670878	0.288245	0.613888
C108	C	0.633760	0.257932	0.602979
C109	C	0.596639	0.288230	0.494805
C110	C	0.596640	0.348836	0.397552
C111	C	0.955782	0.348838	0.397512
C112	C	1.016403	0.288234	0.494747
C113	C	1.009602	0.257923	0.602931
C114	C	0.942176	0.288225	0.613877
C115	C	0.881557	0.348832	0.516643
C116	C	0.311766	0.918598	-0.397469
C117	C	0.251146	0.979221	-0.494705
C118	C	0.257946	1.009535	-0.602888
C119	C	0.325373	0.979228	-0.613835
C120	C	0.385991	0.918611	-0.516600
C121	C	0.386006	0.918608	0.059599
C122	C	0.325397	0.979232	0.059601
C123	C	0.257966	1.009548	0.000057
C124	C	0.251145	0.979243	-0.059502
C125	C	0.311753	0.918624	-0.059510
C126	C	0.670907	0.918582	-0.397481
C127	C	0.670923	0.979185	-0.494719
C128	C	0.633810	1.009497	-0.602901
C129	C	0.596684	0.979197	-0.613844
C130	C	0.596673	0.918591	-0.516608
H131	H	0.701104	0.373498	-0.108054
C132	C	0.483874	0.949503	-0.588245
C133	C	0.555842	0.885320	-0.528670
H134	H	0.458663	0.928967	-0.595696
H135	H	0.478590	0.989925	-0.661614
H136	H	0.465559	0.973136	-0.547813
H137	H	0.574158	0.861691	-0.569106
H138	H	0.561130	0.844884	-0.455288
H139	H	0.581931	0.562158	-0.500786
H140	H	0.826642	0.373508	-0.108066
C141	C	0.763452	0.170590	0.792343
C142	C	0.711688	0.254943	0.732786
H143	H	0.788642	0.150032	0.865745
H144	H	0.795481	0.160654	0.751926
H145	H	0.741334	0.143874	0.799764
H146	H	0.733806	0.281659	0.725358
H147	H	0.679653	0.264885	0.773213
H148	H	0.196250	1.003886	-0.485769
H149	H	0.701154	1.003849	-0.485787
C150	C	0.663061	0.121599	0.709886
C151	C	0.633766	0.191309	0.709888
H152	H	0.663063	0.080471	0.775887
H153	H	0.710344	0.101741	0.709872
H154	H	0.635635	0.135309	0.643905
H155	H	0.661195	0.177600	0.775865
H156	H	0.586475	0.211170	0.709914
C157	C	0.304592	0.563725	-0.171636
C158	C	0.254942	0.633725	-0.176777
H159	H	0.284023	0.563735	-0.228799
H160	H	0.318396	0.516243	-0.098950
H161	H	0.345027	0.563732	-0.183691
H162	H	0.214510	0.633714	-0.164713
H163	H	0.241129	0.681219	-0.249480
H164	H	1.058928	0.208553	-0.000081
C165	C	0.130699	1.096347	-0.677293
C166	C	0.191308	1.076160	-0.709763
H167	H	0.089559	1.137473	-0.743272
H168	H	0.130712	1.116213	-0.633305
H169	H	0.130717	1.049045	-0.633295
H170	H	0.191292	1.123462	-0.753755
H171	H	0.191294	1.056297	-0.753770
C172	C	-0.075236	0.633710	0.250743
C173	C	-0.114638	0.633711	0.176817
H174	H	-0.095802	0.633703	0.307901
H175	H	-0.075342	0.681197	0.209152
H176	H	-0.027846	0.586219	0.285325
H177	H	-0.162027	0.681205	0.142228
H178	H	-0.114540	0.586219	0.218414
C179	C	0.139915	0.997914	-0.049128
C180	C	0.177020	1.012565	-0.124938
H181	H	0.094155	1.018480	-0.089522
H182	H	0.135313	1.024635	-0.013669
H183	H	0.165110	0.940686	0.007209
H184	H	0.151828	1.069793	-0.181271
H185	H	0.181620	0.985846	-0.160416
H186	H	0.566418	0.373492	0.309484
C187	C	0.862656	0.294313	-0.177292
C188	C	0.934643	0.254912	-0.125059
H189	H	0.858021	0.273745	-0.217699
H190	H	0.840559	0.351530	-0.228682
H191	H	0.840570	0.284370	-0.120914
H192	H	0.956727	0.264859	-0.181439
H193	H	0.956749	0.197681	-0.073665
C194	C	0.441788	0.633714	0.159057
C195	C	0.382185	0.633713	0.176840
H196	H	0.462354	0.633711	0.216215
H197	H	0.427974	0.681201	0.086369
H198	H	0.475464	0.586223	0.162545
H199	H	0.348506	0.681208	0.173344
H200	H	0.395998	0.586222	0.249547
H201	H	0.701108	0.373522	0.525536
C202	C	0.744267	-0.075300	-0.177273
C203	C	0.711697	-0.114710	-0.124985
H204	H	0.769449	-0.095862	-0.217699
H205	H	0.776304	-0.085233	-0.120933
H206	H	0.709134	-0.018077	-0.228665
H207	H	0.746831	-0.171932	-0.073587
H208	H	0.679657	-0.104783	-0.181332
C209	C	0.483871	-0.050532	0.081674
C210	C	0.555848	-0.114688	0.125042
H211	H	0.458677	-0.071093	0.122081
H212	H	0.465556	-0.026898	0.003339
H213	H	0.478567	-0.010102	0.090208
H214	H	0.561152	-0.155116	0.116500
H215	H	0.574168	-0.138335	0.203396
H216	H	0.701129	0.893911	-0.309403
C217	C	-0.026780	0.633698	-0.250699
C218	C	0.012614	0.633710	-0.176782
H219	H	-0.006206	0.633688	-0.307843
H220	H	-0.074165	0.681184	-0.285292
H221	H	-0.026676	0.586206	-0.209090
H222	H	0.012506	0.681205	-0.218390
H223	H	0.060011	0.586219	-0.142187
H224	H	-0.105988	0.633702	-0.152783
C225	C	0.674245	1.096307	-0.677311
C226	C	0.633822	1.076121	-0.709779
H227	H	0.674249	1.137443	-0.743291
H228	H	0.721526	1.049014	-0.633329
H229	H	0.654365	1.116169	-0.633309
H230	H	0.653705	1.056254	-0.753774
H231	H	0.586532	1.123424	-0.753780
C232	C	0.504084	0.096905	0.049255
C233	C	0.555851	0.012555	0.125039
H234	H	0.478896	0.117476	0.089668
H235	H	0.472053	0.106828	-0.007081
H236	H	0.526199	0.123619	0.013795
H237	H	0.533735	-0.014160	0.160492
H238	H	0.587886	0.002626	0.181394
H239	H	1.071314	0.263517	0.107984
H240	H	0.003961	0.633716	0.152816
H241	H	0.701111	0.263525	-0.108041
C242	C	0.452044	0.563705	-0.125745
C243	C	0.382191	0.633714	-0.176765
H244	H	0.472614	0.563699	-0.182895
H245	H	0.452132	0.516229	-0.084158
H246	H	0.478763	0.563716	-0.075594
H247	H	0.355471	0.633700	-0.226910
H248	H	0.382099	0.681201	-0.218370
H249	H	0.705282	0.490600	-0.327082
H250	H	0.306189	0.893954	-0.108001
C251	C	0.195329	0.633732	0.159030
C252	C	0.254936	0.633724	0.176823
H253	H	0.174757	0.633741	0.216177
H254	H	0.209141	0.586246	0.162522
H255	H	0.161658	0.681224	0.086328
H256	H	0.288609	0.586229	0.249522
H257	H	0.241125	0.681215	0.173342
C258	C	0.491220	0.716228	-0.401369
C259	C	0.490522	0.716671	-0.498989
H260	H	0.444084	0.743513	-0.400681
H261	H	0.511216	0.743578	-0.401582
H262	H	0.518824	0.661289	-0.335637
H263	H	0.462922	0.771611	-0.564722
H264	H	0.470516	0.689323	-0.498786
C265	C	0.523262	0.294282	0.367350
C266	C	0.555845	0.254901	0.482824
H267	H	0.498077	0.273704	0.359959
H268	H	0.558383	0.284343	0.331892
H269	H	0.491218	0.351507	0.331890
H270	H	0.587893	0.197676	0.518283
H271	H	0.520720	0.264833	0.518297
H272	H	0.961360	0.373477	0.108040
C273	C	1.035253	0.342651	0.289551
C274	C	0.963270	0.382079	0.278604
H275	H	1.039879	0.363155	0.216143
H276	H	1.057346	0.285428	0.330046
H277	H	1.057351	0.352642	0.329874
H278	H	0.941174	0.372082	0.238288
H279	H	0.941168	0.439314	0.238092
H280	H	1.071299	0.263568	0.485814
C281	C	0.480679	0.840268	-0.701583
C282	C	0.550632	0.799869	-0.700617
H283	H	0.453314	0.894950	-0.767953
H284	H	0.480130	0.840735	-0.635982
H285	H	0.461147	0.812523	-0.701490
H286	H	0.570166	0.827611	-0.700702
H287	H	0.551184	0.799406	-0.766236
H288	H	0.330901	1.003918	-0.701929
C289	C	0.763989	0.675937	-0.497292
C290	C	0.693948	0.716668	-0.498753
H291	H	0.783806	0.703216	-0.496457
H292	H	0.764621	0.675836	-0.563185
H293	H	0.791041	0.621136	-0.431231
H294	H	0.666894	0.771468	-0.564819
H295	H	0.693311	0.716778	-0.432854
C296	C	0.563733	1.072128	-0.815787
C297	C	0.555883	1.012530	-0.732764
H298	H	0.538537	1.092713	-0.889204
H299	H	0.612562	1.048470	-0.807254
H300	H	0.545412	1.115627	-0.807219
H301	H	0.574208	0.969028	-0.741328
H302	H	0.507044	1.036187	-0.741302
C303	C	0.265472	1.072137	0.112528
C304	C	0.332905	1.012525	0.125090
H305	H	0.270110	1.092690	0.152956
H306	H	0.240282	1.048503	0.141922
H307	H	0.240297	1.115655	0.034185
H308	H	0.358078	0.969004	0.203433
H309	H	0.358105	1.036158	0.095701
C310	C	1.136850	0.171106	0.677335
C311	C	1.076241	0.191295	0.709806
H312	H	1.177990	0.129968	0.743314
H313	H	1.136839	0.218397	0.633354
H314	H	1.136829	0.151247	0.633332
H315	H	1.076259	0.211160	0.753803
H316	H	1.076252	0.143995	0.753807
C317	C	1.002158	0.195295	0.815820
C318	C	0.934709	0.254894	0.732800
H319	H	0.997548	0.174711	0.889238
H320	H	1.027330	0.218951	0.807283
H321	H	1.027336	0.151795	0.807252
H322	H	0.909533	0.298397	0.741362
H323	H	0.909526	0.231239	0.741341
C324	C	0.814292	0.342707	0.644183
C325	C	0.807450	0.382120	0.528691
H326	H	0.768542	0.363252	0.651624
H327	H	0.839472	0.352655	0.679623
H328	H	0.839494	0.285482	0.679623
H329	H	0.782253	0.439345	0.493252
H330	H	0.782259	0.372179	0.493236
H331	H	0.566430	0.263527	0.108063
C332	C	0.150942	1.145891	-0.111760
C333	C	0.191351	1.076184	0.000074
H334	H	0.109822	1.187030	-0.111742
H335	H	0.137219	1.132188	-0.155739
H336	H	0.178379	1.165738	-0.143634
H337	H	0.163915	1.056334	0.031945
H338	H	0.205073	1.089888	0.044070
H339	H	0.757155	0.562159	-0.500759
H340	H	0.306216	0.893919	-0.309390
H341	H	0.440886	0.893938	-0.525529
H342	H	0.566429	0.373495	0.108072
H343	H	0.440906	0.893929	0.108095
H344	H	0.701115	0.003903	-0.108032
