data_functionalizedCrystal
_audit_creation_method	'MofGen! by Chris Wilmer'
_symmetry_space_group_name_H-M	'P1'
_symmetry_Int_Tables_number	1
_symmetry_cell_setting	triclinic
loop_
_symmetry_equiv_pos_as_xyz
  x,y,z
_cell_length_a	10.723023
_cell_length_b	23.532409
_cell_length_c	9.198806
_cell_angle_alpha	89.999886
_cell_angle_beta	89.996513
_cell_angle_gamma	83.658554
loop_
_atom_site_label
_atom_site_type_symbol
_atom_site_fract_x
_atom_site_fract_y
_atom_site_fract_z
O1	O	1.654702	0.079869	-0.120867
O2	O	1.291311	0.087514	-0.120872
O3	O	1.483963	0.000831	-0.120871
O4	O	1.462050	0.166552	-0.120868
O5	O	1.483948	0.000831	0.120914
O6	O	1.291296	0.087514	0.120913
O7	O	1.654686	0.079868	0.120918
Cu8	Cu	1.472990	0.083691	0.142993
Cu9	Cu	1.473008	0.083691	-0.142946
O10	O	1.462034	0.166552	0.120918
C11	C	1.244821	0.086958	0.000020
C12	C	1.106319	0.085293	0.000018
C13	C	1.044562	0.084551	0.125268
C14	C	0.901412	0.082831	0.125269
C15	C	1.483397	-0.020389	0.000018
C16	C	1.481718	-0.083617	0.000007
C17	C	1.474586	-0.356908	-0.131796
C18	C	1.476145	-0.297498	-0.131796
O19	O	1.477002	-0.266767	-0.243880
N20	N	1.476909	-0.267791	0.000003
C21	C	1.476126	-0.297498	0.131811
O22	O	1.476919	-0.266774	0.243916
C23	C	1.474575	-0.356907	0.131810
C24	C	1.473799	-0.386611	0.000002
C25	C	1.473811	-0.386611	-0.263593
C26	C	1.472250	-0.446017	-0.263592
C27	C	1.471463	-0.475720	-0.131794
C28	C	1.472238	-0.446017	0.000003
C29	C	1.473801	-0.386614	0.263616
C30	C	1.472252	-0.446028	0.263604
C31	C	1.471476	-0.475731	0.131796
C32	C	1.469890	-0.535126	0.131801
N33	N	1.469126	-0.564833	0.000002
C34	C	1.469913	-0.535130	-0.131796
C35	C	1.479383	-0.172733	0.131803
C36	C	1.480924	-0.113324	0.131806
C37	C	1.480946	-0.113328	-0.131802
C38	C	1.479396	-0.172738	-0.131803
C39	C	1.478620	-0.202440	0.000004
C40	C	1.466633	-0.659887	-0.131784
C41	C	1.465066	-0.719298	-0.131771
C42	C	1.465051	-0.719289	0.131835
C43	C	1.466611	-0.659883	0.131824
C44	C	1.467406	-0.630183	0.000002
O45	O	1.469037	-0.565894	0.243828
O46	O	1.469136	-0.565861	-0.243882
C47	C	1.701176	0.080425	0.000023
C48	C	1.839679	0.082089	0.000016
C49	C	1.462600	0.187771	0.000025
C50	C	1.464279	0.250999	0.000026
N51	N	1.472986	0.083691	0.344107
N52	N	1.473021	0.083687	-0.344060
C53	C	1.553880	0.047134	0.416304
C54	C	1.553900	0.047132	0.583716
H55	H	1.053214	0.084654	-0.107214
C56	C	0.829668	0.081969	0.270140
N57	N	0.775627	0.081319	0.379261
H58	H	1.481533	-0.089144	0.239138
H59	H	1.403765	0.114989	0.593863
H60	H	1.097668	0.085186	0.232500
C61	C	1.647406	0.004844	0.332377
N62	N	1.717845	-0.027013	0.269165
C63	C	1.467498	-0.627226	-0.276794
N64	N	1.468139	-0.602625	-0.386016
H65	H	1.403739	0.114984	0.406234
H66	H	1.623161	0.015837	0.645803
C67	C	1.467458	-0.627208	0.276818
N68	N	1.468110	-0.602602	0.386031
H69	H	0.892779	0.082731	-0.107221
C70	C	1.481824	-0.080645	-0.276783
N71	N	1.482487	-0.056026	-0.385976
C72	C	1.464254	-0.751970	-0.276776
N73	N	1.463661	-0.776578	-0.385991
H74	H	1.474456	-0.362434	-0.370925
C75	C	1.478571	-0.205408	-0.276800
N76	N	1.477960	-0.230012	-0.386019
C77	C	1.471496	-0.478689	-0.408593
N78	N	1.470965	-0.503295	-0.517815
H79	H	1.478740	-0.196913	0.239143
H80	H	1.474446	-0.362441	0.370949
C81	C	1.464181	-0.751973	0.276806
N82	N	1.463532	-0.776593	0.385999
H83	H	1.471621	-0.470208	0.370940
