data_functionalizedCrystal
_audit_creation_method	'MofGen! by Chris Wilmer'
_symmetry_space_group_name_H-M	'P1'
_symmetry_Int_Tables_number	1
_symmetry_cell_setting	triclinic
loop_
_symmetry_equiv_pos_as_xyz
  x,y,z
_cell_length_a	16.974800
_cell_length_b	10.654545
_cell_length_c	16.053802
_cell_angle_alpha	92.592866
_cell_angle_beta	91.074188
_cell_angle_gamma	83.936430
loop_
_atom_site_label
_atom_site_type_symbol
_atom_site_fract_x
_atom_site_fract_y
_atom_site_fract_z
O1	O	1.049953	0.160086	0.001545
O2	O	0.820596	0.179311	-0.013959
O3	O	0.940547	-0.013097	-0.005850
O4	O	0.930002	0.352493	-0.006564
O5	O	0.933944	-0.002550	0.132562
O6	O	0.813993	0.189857	0.124453
O7	O	1.043350	0.170633	0.139957
Zn8	Zn	0.927623	0.181920	0.154181
Zn9	Zn	0.936323	0.168024	-0.028183
O10	O	0.923399	0.363040	0.131848
C11	C	0.787927	0.183660	0.053262
C12	C	0.700419	0.180890	0.047346
C13	C	0.655713	0.185336	0.120018
C14	C	0.573492	0.182714	0.114462
C15	C	0.535977	0.175656	0.036234
C16	C	0.580689	0.171206	-0.036443
C17	C	0.662909	0.173819	-0.030887
C18	C	0.290460	0.167216	0.011524
C19	C	0.208233	0.164607	0.005973
C20	C	0.201042	0.176112	0.156879
C21	C	0.283264	0.178732	0.162429
C22	C	0.327969	0.174276	0.089752
N23	N	0.451933	0.172980	0.030553
N24	N	0.412012	0.176943	0.095433
C25	C	0.936471	-0.054613	0.063302
C26	C	0.934154	-0.194032	0.063141
C27	C	0.941362	-0.205539	-0.087760
C28	C	0.943880	-0.276791	-0.163284
C29	C	0.941703	-0.407787	-0.163432
C30	C	0.937005	-0.467533	-0.088049
C31	C	0.934487	-0.396281	-0.012525
C32	C	0.936667	-0.265283	-0.012385
C33	C	0.927274	-0.384773	0.138374
C34	C	0.929456	-0.253778	0.138524
C35	C	0.922576	-0.444519	0.213757
C36	C	0.920063	-0.373268	0.289283
C37	C	0.922241	-0.242264	0.289428
C38	C	0.926938	-0.182526	0.214047
C39	C	1.076019	0.166284	0.072734
C40	C	1.163527	0.169052	0.078645
C41	C	0.927475	0.404556	0.062694
C42	C	0.929792	0.543975	0.062850
N43	N	0.921692	0.191403	0.278641
N44	N	0.942260	0.158531	-0.152642
C45	C	0.972750	0.109562	0.325786
C46	C	0.968609	0.116208	0.412913
C47	C	0.913412	0.204700	0.452893
C48	C	0.862348	0.286544	0.405741
C49	C	0.866487	0.279892	0.318615
C50	C	0.895335	0.233722	0.713080
C51	C	0.891202	0.240371	0.800212
C52	C	0.997462	0.070032	0.807378
C53	C	1.001598	0.063393	0.720251
C54	C	0.950532	0.145232	0.673107
N55	N	0.909179	0.211498	0.541950
N56	N	0.954762	0.138428	0.584050
H57	H	0.326850	0.163584	-0.047654
H58	H	0.164634	0.179738	0.216048
H59	H	0.699308	0.170202	-0.090064
F60	F	0.840989	0.320824	0.662912
F61	F	0.803599	0.380720	0.448290
F62	F	0.525914	0.187462	0.191809
H63	H	0.916233	-0.421922	0.350653
H64	H	0.947704	-0.228132	-0.224660
H65	H	1.017701	0.037508	0.293241
F66	F	0.920252	-0.583935	0.213597
F67	F	0.323183	0.186251	0.245690
H68	H	0.928716	-0.075864	0.214158
H69	H	0.943144	-0.098878	-0.087647
H70	H	1.039037	0.003401	0.845771
F71	F	0.832451	0.334565	0.842756
H72	H	0.177691	0.158863	-0.057733
F73	F	0.944378	-0.483620	-0.243812
H74	H	0.824909	0.346533	0.280230
H75	H	1.046544	-0.008664	0.687702
F76	F	0.695631	0.192856	0.203279
F77	F	0.540764	0.163656	-0.119700
H78	H	0.935224	-0.574195	-0.088177
H79	H	0.920178	-0.184255	0.350928
F80	F	1.022950	0.029103	0.463089
