data_functionalizedCrystal
_audit_creation_method	'MofGen! by Chris Wilmer'
_symmetry_space_group_name_H-M	'P1'
_symmetry_Int_Tables_number	1
_symmetry_cell_setting	triclinic
loop_
_symmetry_equiv_pos_as_xyz
  x,y,z
_cell_length_a	19.121063
_cell_length_b	19.077241
_cell_length_c	19.121242
_cell_angle_alpha	85.148886
_cell_angle_beta	85.049781
_cell_angle_gamma	85.144908
loop_
_atom_site_label
_atom_site_type_symbol
_atom_site_fract_x
_atom_site_fract_y
_atom_site_fract_z
Zn1	Zn	-0.255515	-1.084325	0.451571
Zn2	Zn	0.244485	-0.584325	0.951571
Zn3	Zn	-0.368540	-1.074582	0.338545
Zn4	Zn	0.131460	-0.574582	0.838545
Zn5	Zn	-0.255233	-0.961419	0.329185
Zn6	Zn	0.244767	-0.461419	0.829185
Zn7	Zn	-0.377857	-0.961366	0.451802
Zn8	Zn	0.122143	-0.461366	0.951802
O9	O	-0.314286	-1.020423	0.392776
O10	O	0.185714	-0.520423	0.892776
O11	O	-0.266727	-1.181851	0.440398
O12	O	0.233273	-0.681851	0.940398
O13	O	-0.349492	-1.055516	0.238687
O14	O	0.150508	-0.555516	0.738687
O15	O	-0.156651	-0.981823	0.341406
O16	O	0.343349	-0.481823	0.841406
O17	O	-0.349765	-1.174693	0.357359
O18	O	0.150235	-0.674693	0.857359
O19	O	-0.156858	-1.072121	0.431322
O20	O	0.343142	-0.572121	0.931322
O21	O	-0.266246	-0.972375	0.231810
O22	O	0.233754	-0.472375	0.731810
O23	O	-0.275281	-0.862594	0.341630
O24	O	0.224719	-0.362594	0.841630
O25	O	-0.365646	-0.981732	0.550388
O26	O	0.134354	-0.481732	1.050388
O27	O	-0.365372	-0.862555	0.431716
O28	O	0.134628	-0.362555	0.931716
O29	O	-0.275761	-1.072069	0.550218
O30	O	0.224239	-0.572069	1.050218
O31	O	-0.468396	-1.055464	0.357583
O32	O	0.031604	-0.555464	0.857583
O33	O	-0.475241	-0.972284	0.440792
O34	O	0.024759	-0.472284	0.940792
C35	C	-0.321308	-0.836952	0.385683
C36	C	0.178692	-0.336952	0.885683
C37	C	-0.324329	-0.758462	0.382666
C38	C	0.175671	-0.258462	0.882666
C39	C	-0.282589	-0.725315	0.424554
C40	C	0.217411	-0.225315	0.924554
C41	C	-0.285424	-0.651565	0.421714
C42	C	0.214576	-0.151565	0.921714
C43	C	-0.330004	-0.610964	0.376987
C44	C	0.169996	-0.110964	0.876987
C45	C	-0.371745	-0.644116	0.335094
C46	C	0.128255	-0.144116	0.835094
C47	C	-0.368906	-0.717865	0.337932
C48	C	0.131094	-0.217865	0.837932
C49	C	-0.343120	-0.390000	0.363853
C50	C	0.156880	0.110000	0.863853
C51	C	-0.345958	-0.316247	0.361020
C52	C	0.154042	0.183753	0.861020
C53	C	-0.259636	-0.323701	0.447639
C54	C	0.240364	0.176299	0.947639
C55	C	-0.256804	-0.397451	0.450476
C56	C	0.243196	0.102549	0.950476
C57	C	-0.298542	-0.430596	0.408580
C58	C	0.201458	0.069404	0.908580
N59	N	-0.332905	-0.535580	0.374084
N60	N	0.167095	-0.035580	0.874084
N61	N	-0.295637	-0.505979	0.411480
N62	N	0.204363	-0.005979	0.911480
C63	C	-0.497389	-1.012831	0.400245
C64	C	0.002611	-0.512831	0.900245
C65	C	-0.575720	-1.009648	0.403466
C66	C	-0.075720	-0.509648	0.903466
C67	C	-0.608933	-1.051497	0.361696
C68	C	-0.108933	-0.551497	0.861696
C69	C	-0.682533	-1.048508	0.364729
C70	C	-0.182533	-0.548508	0.864729
C71	C	-0.722919	-1.003666	0.409531
C72	C	-0.222919	-0.503666	0.909531
C73	C	-0.689701	-0.961816	0.451306
C74	C	-0.189701	-0.461816	0.951306
C75	C	-0.616102	-0.964809	0.448275
C76	C	-0.116102	-0.464809	0.948275
C77	C	-0.945320	-0.992464	0.420850
C78	C	-0.445320	-0.492464	0.920850
C79	C	-1.018923	-0.989473	0.423876
C80	C	-0.518923	-0.489473	0.923876
C81	C	-1.011750	-1.076166	0.337300
C82	C	-0.511750	-0.576166	0.837300
C83	C	-0.938150	-1.079152	0.334271
C84	C	-0.438150	-0.579152	0.834271
C85	C	-0.904939	-1.037305	0.376048
C86	C	-0.404939	-0.537305	0.876048
C87	C	-0.798150	-1.000608	0.412631
C88	C	-0.298150	-0.500608	0.912631
C89	C	-0.829708	-1.040366	0.372951
C90	C	-0.329708	-0.540366	0.872951
C91	C	-0.130468	-1.028065	0.385294
C92	C	0.369532	-0.528065	0.885294
C93	C	-0.052136	-1.031322	0.382106
C94	C	0.447864	-0.531322	0.882106
C95	C	-0.321774	-1.027981	0.576588
C96	C	0.178226	-0.527981	1.076588
C97	C	-0.324965	-1.031202	0.654918
C98	C	0.175035	-0.531202	1.154918
C99	C	-0.307234	-0.204611	0.399891
C100	C	0.192766	0.295389	0.899891
C101	C	-0.304218	-0.283100	0.402909
C102	C	0.195782	0.216900	0.902909
C103	C	-0.306775	-1.012937	0.209678
C104	C	0.193225	-0.512937	0.709678
C105	C	-0.303380	-1.009861	0.131345
C106	C	0.196620	-0.509861	0.631345
C107	C	-0.345220	-1.051628	1.098119
C108	C	0.154780	-0.551628	1.598119
C109	C	-0.342218	-1.048592	1.024520
C110	C	0.157782	-0.548592	1.524520
C111	C	-0.297372	-1.003791	0.984147
C112	C	0.202628	-0.503791	1.484147
C113	C	-0.255531	-0.962019	1.017378
C114	C	0.244469	-0.462019	1.517378
C115	C	-0.258537	-0.965052	1.090976
C116	C	0.241463	-0.465052	1.590976
C117	C	-0.286130	-0.992464	0.761748
C118	C	0.213870	-0.492464	1.261748
C119	C	-0.283125	-0.989435	0.688144
C120	C	0.216875	-0.489435	1.188144
C121	C	-0.369814	-1.076007	0.695291
C122	C	0.130186	-0.576007	1.195291
C123	C	-0.372813	-1.079039	0.768891
C124	C	0.127187	-0.579039	1.268891
C125	C	-0.330975	-1.037265	0.802115
C126	C	0.169025	-0.537265	1.302115
C127	C	-0.294301	-1.000688	0.908916
C128	C	0.205699	-0.500688	1.408916
C129	C	-0.334050	-1.040365	0.877345
C130	C	0.165950	-0.540365	1.377345
H131	H	-0.251436	-0.624580	0.455825
H132	H	0.248564	-0.124580	0.955825
H133	H	-0.722590	-0.925308	0.487787
H134	H	-0.222590	-0.425308	0.987787
Cl135	Cl	-0.848927	-0.944237	0.468950
Cl136	Cl	-0.348927	-0.444237	0.968950
H137	H	-0.589062	-0.930732	0.482290
H138	H	-0.089062	-0.430732	0.982290
Cl139	Cl	-1.053505	-1.128776	0.284788
Cl140	Cl	-0.553505	-0.628776	0.784788
Cl141	Cl	-1.069694	-0.933087	0.480192
Cl142	Cl	-0.569694	-0.433087	0.980192
H143	H	-0.576055	-1.088008	0.325211
H144	H	-0.076055	-0.588008	0.825211
H145	H	-0.246289	-0.758367	0.460977
H146	H	0.253711	-0.258367	0.960977
Cl147	Cl	-0.233565	-0.939913	0.803506
Cl148	Cl	0.266435	-0.439913	1.303506
H149	H	-0.905268	-1.115666	0.297790
H150	H	-0.405268	-0.615666	0.797790
H151	H	-0.409333	-1.115520	0.801758
H152	H	0.090667	-0.615520	1.301758
H153	H	-0.709571	-1.082585	0.330715
H154	H	-0.209571	-0.582585	0.830715
H155	H	-0.246601	-0.952954	0.655274
H156	H	0.253399	-0.452954	1.155274
H157	H	-0.220505	-0.430504	0.486899
H158	H	0.279495	0.069496	0.986899
H159	H	-0.403878	-1.110017	0.668232
H160	H	0.096122	-0.610017	1.168232
H161	H	-0.219019	-0.925538	0.984501
H162	H	0.280981	-0.425538	1.484501
H163	H	-0.381736	-1.088113	1.130986
H164	H	0.118264	-0.588113	1.630986
Cl165	Cl	-0.402023	-0.265206	0.304806
Cl166	Cl	0.097977	0.234794	0.804806
Cl167	Cl	-0.903578	-0.939854	0.473370
Cl168	Cl	-0.403578	-0.439854	0.973370
Cl169	Cl	-0.778936	-1.096740	0.316635
Cl170	Cl	-0.278936	-0.596740	0.816635
Cl171	Cl	-0.394818	-1.101103	0.982753
Cl172	Cl	0.105182	-0.601103	1.482753
Cl173	Cl	-0.395577	-0.431660	0.311168
Cl174	Cl	0.104423	0.068340	0.811168
H175	H	-0.224466	-0.931042	1.118028
H176	H	0.275534	-0.431042	1.618028
H177	H	-0.225654	-0.296706	0.481747
H178	H	0.274346	0.203294	0.981747
H179	H	-0.370565	-1.076840	0.910220
H180	H	0.129435	-0.576840	1.410220
H181	H	-0.408039	-0.611053	0.298674
H182	H	0.091961	-0.111053	0.798674
Cl183	Cl	-0.421382	-0.759535	0.285271
Cl184	Cl	0.078618	-0.259535	0.785271
H185	H	-0.257786	-0.964212	0.876036
H186	H	0.242214	-0.464212	1.376036
