data_functionalizedCrystal
_audit_creation_method	'MofGen! by Chris Wilmer'
_symmetry_space_group_name_H-M	'P1'
_symmetry_Int_Tables_number	1
_symmetry_cell_setting	triclinic
loop_
_symmetry_equiv_pos_as_xyz
  x,y,z
_cell_length_a	12.759401
_cell_length_b	13.032721
_cell_length_c	13.033429
_cell_angle_alpha	89.068252
_cell_angle_beta	97.162366
_cell_angle_gamma	97.205831
loop_
_atom_site_label
_atom_site_type_symbol
_atom_site_fract_x
_atom_site_fract_y
_atom_site_fract_z
Zn1	Zn	1.482513	-0.335469	-0.633435
Zn2	Zn	1.476803	-0.529323	-0.483297
Zn3	Zn	1.325969	-0.357370	-0.461486
Zn4	Zn	1.282050	-0.507408	-0.655217
O5	O	1.391834	-0.432393	-0.558359
O6	O	1.628774	-0.361190	-0.613531
O7	O	1.472785	-0.524851	-0.336494
O8	O	1.367505	-0.210545	-0.466052
O9	O	1.624579	-0.503614	-0.503225
O10	O	1.482517	-0.194454	-0.592382
O11	O	1.361968	-0.398517	-0.320469
O12	O	1.173125	-0.377267	-0.487173
O13	O	1.292652	-0.466263	-0.796237
O14	O	1.140858	-0.487500	-0.629506
O15	O	1.439931	-0.339940	-0.780234
O16	O	1.430199	-0.670336	-0.524346
O17	O	1.287115	-0.654236	-0.650655
C18	C	1.118871	-0.432383	-0.558337
C19	C	1.002090	-0.432400	-0.558355
C20	C	1.353297	-0.699600	-0.592253
C21	C	1.336903	-0.813908	-0.606788
C22	C	0.930451	-0.489911	-0.632377
C23	C	0.820724	-0.489913	-0.632398
C24	C	0.854286	-0.374890	-0.484365
C25	C	0.964010	-0.374883	-0.484350
C26	C	1.400441	-0.872796	-0.550819
C27	C	1.383498	-0.990939	-0.565840
C28	C	1.665863	-0.432403	-0.558381
C29	C	1.782638	-0.432408	-0.558391
C30	C	1.362029	-0.398214	-0.826593
C31	C	1.349328	-0.383649	-0.940899
C32	C	1.430547	-0.164139	-0.524354
C33	C	1.447045	-0.049826	-0.509864
C34	C	1.385373	-0.424624	-1.117928
C35	C	1.398502	-0.439672	-0.999786
C36	C	1.421594	-0.466364	-0.291158
C37	C	1.434540	-0.480640	-0.176816
H38	H	0.961450	-0.536742	-0.692638
Br39	Br	1.271926	-1.052673	-0.664256
H40	H	1.022343	-0.328045	-0.424072
H41	H	1.486357	-0.539733	-1.139769
H42	H	1.467385	-0.835749	-0.491786
H43	H	1.513993	-1.012782	-0.450827
H44	H	0.762399	-0.536742	-0.692675
Br45	Br	0.802599	-0.296836	-0.383935
Br46	Br	1.225336	-0.875646	-0.705199
Br47	Br	1.299022	-0.326112	-1.179662
Br48	Br	1.484877	-0.538172	-0.938054
H49	H	1.297518	-0.324542	-0.977940
