data_functionalizedCrystal
_audit_creation_method	'MofGen! by Chris Wilmer'
_symmetry_space_group_name_H-M	'P1'
_symmetry_Int_Tables_number	1
_symmetry_cell_setting	triclinic
loop_
_symmetry_equiv_pos_as_xyz
  x,y,z
_cell_length_a	8.497366
_cell_length_b	8.497374
_cell_length_c	13.032831
_cell_angle_alpha	97.192176
_cell_angle_beta	82.791383
_cell_angle_gamma	90.036547
loop_
_atom_site_label
_atom_site_type_symbol
_atom_site_fract_x
_atom_site_fract_y
_atom_site_fract_z
Zn1	Zn	-1.198102	0.934395	1.598073
Zn2	Zn	-0.698102	1.434395	2.098073
Zn3	Zn	-0.934348	1.198313	1.597970
Zn4	Zn	-0.434348	1.698313	2.097970
Zn5	Zn	-0.900856	0.901008	1.423256
Zn6	Zn	-0.400856	1.401008	1.923256
Zn7	Zn	-1.164639	1.164587	1.423325
Zn8	Zn	-0.664639	1.664587	1.923325
O9	O	-1.049486	1.049576	1.510656
O10	O	-0.549486	1.549576	2.010656
O11	O	-1.191136	0.997490	1.744310
O12	O	-0.691136	1.497490	2.244310
O13	O	-0.709129	1.159017	1.574722
O14	O	-0.209129	1.659017	2.074722
O15	O	-0.940274	0.684677	1.446460
O16	O	-0.440274	1.184677	1.946460
O17	O	-0.997356	1.191390	1.744235
O18	O	-0.497356	1.691390	2.244235
O19	O	-1.158660	0.709206	1.574897
O20	O	-0.658660	1.209206	2.074897
O21	O	-0.684522	0.940588	1.446360
O22	O	-0.184522	1.440588	1.946360
O23	O	-0.907826	0.907886	1.277014
O24	O	-0.407826	1.407886	1.777014
O25	O	-1.389854	1.133910	1.446577
O26	O	-0.889854	1.633910	1.946577
O27	O	-1.101627	1.101536	1.277065
O28	O	-0.601627	1.601536	1.777065
O29	O	-1.414440	0.964788	1.574964
O30	O	-0.914440	1.464788	2.074964
O31	O	-0.964909	1.414599	1.574789
O32	O	-0.464909	1.914599	2.074789
O33	O	-1.134103	1.389821	1.446478
O34	O	-0.634103	1.889821	1.946478
C35	C	-0.997462	0.997430	1.239118
C36	C	-0.497462	1.497430	1.739118
C37	C	-0.975243	0.975159	1.122953
C38	C	-0.475243	1.475159	1.622953
C39	C	-1.061082	1.061199	1.071216
C40	C	-0.561082	1.561199	1.571216
C41	C	-1.038120	1.038184	0.951153
C42	C	-0.538120	1.538184	1.451153
C43	C	-0.460978	1.049444	1.510717
C44	C	0.039022	1.549444	2.010717
C45	C	-0.639595	1.049747	1.510578
C46	C	-0.139595	1.549747	2.010578
C47	C	-1.049507	1.459453	1.510643
C48	C	-0.549507	1.959453	2.010643
C49	C	-1.049486	1.638102	1.510670
C50	C	-0.549486	2.138102	2.010670
C51	C	-1.101715	1.101927	1.783254
C52	C	-0.601715	1.601927	2.283254
C53	C	-1.123971	1.124235	1.899419
C54	C	-0.623971	1.624235	2.399419
H55	H	-1.151577	1.151894	1.115808
H56	H	-0.651577	1.651894	1.615808
Br57	Br	-0.887298	0.886984	0.876846
Br58	Br	-0.387298	1.386984	1.376846
Br59	Br	-1.274839	1.275392	0.973723
Br60	Br	-0.774839	1.775392	1.473723
H61	H	-0.884760	0.884453	1.078362
H62	H	-0.384760	1.384453	1.578362
