data_functionalizedCrystal
_audit_creation_method	'MofGen! by Chris Wilmer'
_symmetry_space_group_name_H-M	'P1'
_symmetry_Int_Tables_number	1
_symmetry_cell_setting	triclinic
loop_
_symmetry_equiv_pos_as_xyz
  x,y,z
_cell_length_a	16.120484
_cell_length_b	16.625548
_cell_length_c	16.625539
_cell_angle_alpha	90.018832
_cell_angle_beta	92.870299
_cell_angle_gamma	87.074492
loop_
_atom_site_label
_atom_site_type_symbol
_atom_site_fract_x
_atom_site_fract_y
_atom_site_fract_z
Zn1	Zn	-0.331925	-1.216357	-0.472207
Zn2	Zn	0.168075	-0.716357	0.027793
Zn3	Zn	-0.471345	-1.209424	-0.344203
Zn4	Zn	0.028655	-0.709424	0.155797
Zn5	Zn	-0.331949	-1.081526	-0.337384
Zn6	Zn	0.168051	-0.581526	0.162616
Zn7	Zn	-0.471299	-1.074647	-0.478987
Zn8	Zn	0.028701	-0.574647	0.021013
O9	O	-0.401629	-1.145488	-0.408195
O10	O	0.098371	-0.645488	0.091805
O11	O	-0.350428	-1.328269	-0.455243
O12	O	0.149572	-0.828269	0.044757
O13	O	-0.452883	-1.192435	-0.230468
O14	O	0.047117	-0.692435	0.269532
O15	O	-0.215280	-1.105192	-0.349577
O16	O	0.284720	-0.605192	0.150423
O17	O	-0.452860	-1.323175	-0.361199
O18	O	0.047140	-0.823175	0.138801
O19	O	-0.215262	-1.204252	-0.448631
O20	O	0.284738	-0.704252	0.051369
O21	O	-0.350470	-1.098469	-0.225458
O22	O	0.149530	-0.598469	0.274542
O23	O	-0.350425	-0.967781	-0.356152
O24	O	0.149575	-0.467781	0.143848
O25	O	-0.452781	-1.093468	-0.590918
O26	O	0.047219	-0.593468	-0.090918
O27	O	-0.452804	-0.962727	-0.460186
O28	O	0.047196	-0.462727	0.039814
O29	O	-0.350384	-1.197581	-0.585937
O30	O	0.149616	-0.697581	-0.085937
O31	O	-0.588005	-1.185765	-0.367774
O32	O	-0.088005	-0.685765	0.132226
O33	O	-0.587971	-1.086745	-0.466799
O34	O	-0.087971	-0.586745	0.033201
C35	C	-0.401613	-0.935998	-0.408165
C36	C	0.098387	-0.435998	0.091835
C37	C	-0.401626	-0.846377	-0.408173
C38	C	0.098374	-0.346377	0.091827
C39	C	-0.618238	-1.134778	-0.418779
C40	C	-0.118238	-0.634778	0.081221
C41	C	-0.710904	-1.130270	-0.423334
C42	C	-0.210904	-0.630270	0.076666
C43	C	-0.401624	-0.518201	-0.408197
C44	C	0.098376	-0.018201	0.091803
C45	C	-0.401622	-0.609510	-0.408187
C46	C	0.098378	-0.109510	0.091813
C47	C	-0.401625	-0.682286	-0.408184
C48	C	0.098375	-0.182286	0.091816
C49	C	-0.401623	-0.773600	-0.408176
C50	C	0.098377	-0.273600	0.091824
C51	C	-0.880566	-1.122043	-0.431667
C52	C	-0.380566	-0.622043	0.068333
C53	C	-0.921852	-1.169078	-0.384736
C54	C	-0.421852	-0.669078	0.115264
C55	C	-1.016258	-1.164501	-0.389373
C56	C	-0.516258	-0.664501	0.110627
C57	C	-0.786152	-1.126619	-0.427032
C58	C	-0.286152	-0.626619	0.072968
C59	C	-0.184175	-1.156263	-0.397587
C60	C	0.315825	-0.656263	0.102413
C61	C	-0.091509	-1.160854	-0.393067
C62	C	0.408491	-0.660854	0.106933
C63	C	-0.401574	-1.145531	-0.618501
C64	C	0.098426	-0.645531	-0.118501
C65	C	-0.401551	-1.145549	-0.708121
C66	C	0.098449	-0.645549	-0.208121
C67	C	-0.401641	-0.355797	-0.408218
C68	C	0.098359	0.144203	0.091782
C69	C	-0.401632	-0.445418	-0.408207
C70	C	0.098368	0.054582	0.091793
C71	C	-0.401532	-1.145563	-0.780903
C72	C	0.098468	-0.645563	-0.280903
C73	C	-0.401501	-1.145583	-0.872210
C74	C	0.098499	-0.645583	-0.372210
C75	C	-0.401472	-1.145603	-0.944985
C76	C	0.098528	-0.645603	-0.444985
C77	C	-0.401442	-1.145625	-1.036298
C78	C	0.098558	-0.645625	-0.536298
C79	C	-0.401624	-1.145496	-0.198704
C80	C	0.098376	-0.645496	0.301296
C81	C	-0.401413	-1.145645	-0.109073
C82	C	0.098587	-0.645645	0.390927
H83	H	-0.886298	-1.212782	-0.341075
H84	H	-0.386298	-0.712782	0.158925
C85	C	-0.928590	-1.063000	-0.490645
C86	C	-0.428590	-0.563000	0.009355
C87	C	-1.024361	-1.058450	-0.495250
C88	C	-0.524361	-0.558450	0.004750
C89	C	-1.072397	-0.999406	-0.554225
C90	C	-0.572397	-0.499406	-0.054225
C91	C	-1.024662	-0.944913	-0.608594
C92	C	-0.524662	-0.444913	-0.108594
C93	C	-0.928885	-0.949461	-0.603990
C94	C	-0.428885	-0.449461	-0.103990
C95	C	-0.880849	-1.008505	-0.545015
C96	C	-0.380849	-0.508505	-0.045015
H97	H	-1.059703	-1.098791	-0.455001
H98	H	-0.559703	-0.598791	0.044999
H99	H	-1.143298	-0.996040	-0.557633
H100	H	-0.643298	-0.496040	-0.057633
H101	H	-1.060221	-0.901205	-0.652251
H102	H	-0.560221	-0.401205	-0.152251
H103	H	-0.893544	-0.909120	-0.644239
H104	H	-0.393544	-0.409120	-0.144239
H105	H	-0.809949	-1.011871	-0.541608
H106	H	-0.309949	-0.511871	-0.041608
