data_functionalizedCrystal
_audit_creation_method	'MofGen! by Chris Wilmer'
_symmetry_space_group_name_H-M	'P1'
_symmetry_Int_Tables_number	1
_symmetry_cell_setting	triclinic
loop_
_symmetry_equiv_pos_as_xyz
  x,y,z
_cell_length_a	18.101395
_cell_length_b	16.625547
_cell_length_c	16.625539
_cell_angle_alpha	90.027058
_cell_angle_beta	89.972352
_cell_angle_gamma	89.969710
loop_
_atom_site_label
_atom_site_type_symbol
_atom_site_fract_x
_atom_site_fract_y
_atom_site_fract_z
Zn1	Zn	-0.294844	-1.232632	-0.456053
Zn2	Zn	0.038489	-0.899299	-0.122719
Zn3	Zn	0.371822	-0.565965	0.210614
Zn4	Zn	-0.418693	-1.232515	-0.321221
Zn5	Zn	-0.085360	-0.899182	0.012112
Zn6	Zn	0.247973	-0.565848	0.345445
Zn7	Zn	-0.294868	-1.097794	-0.321218
Zn8	Zn	0.038465	-0.764461	0.012115
Zn9	Zn	0.371798	-0.431127	0.345449
Zn10	Zn	-0.418647	-1.097744	-0.455996
Zn11	Zn	-0.085313	-0.764411	-0.122663
Zn12	Zn	0.248020	-0.431077	0.210671
O13	O	-0.356763	-1.165171	-0.388622
O14	O	-0.023430	-0.831838	-0.055289
O15	O	0.309903	-0.498505	0.278045
O16	O	-0.311283	-1.345449	-0.438192
O17	O	0.022051	-1.012116	-0.104859
O18	O	0.355384	-0.678782	0.228475
O19	O	-0.402297	-1.214616	-0.208388
O20	O	-0.068964	-0.881283	0.124945
O21	O	0.264369	-0.547949	0.458278
O22	O	-0.191232	-1.115750	-0.339126
O23	O	0.142101	-0.782417	-0.005793
O24	O	0.475434	-0.449084	0.327540
O25	O	-0.402274	-1.345363	-0.339132
O26	O	-0.068941	-1.012030	-0.005799
O27	O	0.264393	-0.678696	0.327534
O28	O	-0.191215	-1.214815	-0.438189
O29	O	0.142119	-0.881482	-0.104855
O30	O	0.475452	-0.548149	0.228478
O31	O	-0.311324	-1.115637	-0.208386
O32	O	0.022010	-0.782304	0.124947
O33	O	0.355343	-0.448970	0.458281
O34	O	-0.311279	-0.984955	-0.339071
O35	O	0.022055	-0.651622	-0.005738
O36	O	0.355388	-0.318288	0.327595
O37	O	-0.402195	-1.115665	-0.568836
O38	O	-0.068861	-0.782332	-0.235503
O39	O	0.264472	-0.448999	0.097831
O40	O	-0.402218	-0.984918	-0.438092
O41	O	-0.068885	-0.651585	-0.104759
O42	O	0.264449	-0.318252	0.228574
O43	O	-0.311237	-1.214767	-0.568878
O44	O	0.022096	-0.881434	-0.235544
O45	O	0.355429	-0.548100	0.097789
O46	O	-0.522320	-1.214567	-0.339077
O47	O	-0.188987	-0.881234	-0.005744
O48	O	0.144347	-0.547901	0.327589
O49	O	-0.522286	-1.115552	-0.438096
O50	O	-0.188953	-0.782218	-0.104762
O51	O	0.144381	-0.448885	0.228571
C52	C	-0.356746	-0.955680	-0.388576
C53	C	-0.023413	-0.622347	-0.055242
C54	C	0.309920	-0.289014	0.278091
C55	C	-0.356757	-0.866059	-0.388575
C56	C	-0.023424	-0.532726	-0.055242
C57	C	0.309910	-0.199393	0.278092
C58	C	-0.356757	-0.793277	-0.388582
C59	C	-0.023424	-0.459944	-0.055249
C60	C	0.309909	-0.126610	0.278085
C61	C	-0.356760	-0.701968	-0.388599
C62	C	-0.023427	-0.368635	-0.055265
C63	C	0.309906	-0.035302	0.278068
C64	C	-0.356766	-0.629192	-0.388616
C65	C	-0.023433	-0.295859	-0.055283
C66	C	0.309900	0.037475	0.278050
C67	C	-0.356770	-0.537878	-0.388632
C68	C	-0.023437	-0.204544	-0.055299
C69	C	0.309896	0.128789	0.278034
C70	C	-0.549174	-1.165063	-0.388598
C71	C	-0.215840	-0.831730	-0.055265
C72	C	0.117493	-0.498397	0.278068
C73	C	-0.631488	-1.165091	-0.388615
C74	C	-0.298155	-0.831758	-0.055282
C75	C	0.035179	-0.498424	0.278052
C76	C	-0.930579	-1.165268	-0.388659
C77	C	-0.597245	-0.831935	-0.055325
C78	C	-0.263912	-0.498601	0.278008
C79	C	-0.899263	-1.103114	-0.451113
C80	C	-0.565930	-0.769781	-0.117779
C81	C	-0.232596	-0.436448	0.215554
C82	C	-0.813645	-1.102819	-0.450917
C83	C	-0.480312	-0.769486	-0.117584
C84	C	-0.146978	-0.436152	0.215749
C85	C	-0.782196	-1.165180	-0.388638
C86	C	-0.448863	-0.831847	-0.055304
C87	C	-0.115530	-0.498513	0.278029
C88	C	-0.813348	-1.142173	-0.303657
C89	C	-0.480014	-0.808840	0.029676
C90	C	-0.146681	-0.475506	0.363010
C91	C	-0.898993	-1.141772	-0.304031
C92	C	-0.565660	-0.808439	0.029303
C93	C	-0.232326	-0.475106	0.362636
C94	C	-0.898923	-1.250565	-0.410437
C95	C	-0.565590	-0.917231	-0.077103
C96	C	-0.232257	-0.583898	0.256230
C97	C	-0.813272	-1.250063	-0.412300
C98	C	-0.479939	-0.916730	-0.078967
C99	C	-0.146606	-0.583396	0.254366
C100	C	-0.698337	-1.165132	-0.388621
C101	C	-0.365003	-0.831799	-0.055287
C102	C	-0.031670	-0.498465	0.278046
C103	C	-1.014438	-1.165314	-0.388670
C104	C	-0.681105	-0.831981	-0.055336
C105	C	-0.347772	-0.498648	0.277997
C106	C	-0.163601	-1.165302	-0.388663
C107	C	0.169732	-0.831968	-0.055330
C108	C	0.503065	-0.498635	0.278003
C109	C	-0.081287	-1.165357	-0.388681
C110	C	0.252046	-0.832024	-0.055348
C111	C	0.585380	-0.498690	0.277986
C112	C	-0.356708	-1.165224	-0.598931
C113	C	-0.023375	-0.831890	-0.265598
C114	C	0.309959	-0.498557	0.067736
C115	C	-0.356685	-1.165246	-0.688552
C116	C	-0.023351	-0.831913	-0.355219
C117	C	0.309982	-0.498579	-0.021885
C118	C	-0.356778	-0.375480	-0.388659
C119	C	-0.023444	-0.042147	-0.055326
C120	C	0.309889	0.291187	0.278008
C121	C	-0.356776	-0.465101	-0.388650
C122	C	-0.023443	-0.131768	-0.055317
C123	C	0.309891	0.201565	0.278017
C124	C	-0.356602	-1.165283	-1.016728
C125	C	-0.023268	-0.831950	-0.683395
C126	C	0.310065	-0.498617	-0.350061
C127	C	-0.356627	-1.165271	-0.925419
C128	C	-0.023294	-0.831937	-0.592086
C129	C	0.310040	-0.498604	-0.258753
C130	C	-0.356644	-1.165265	-0.852643
C131	C	-0.023310	-0.831932	-0.519310
C132	C	0.310023	-0.498598	-0.185976
C133	C	-0.356668	-1.165252	-0.761329
C134	C	-0.023335	-0.831918	-0.427995
C135	C	0.309999	-0.498585	-0.094662
C136	C	-0.356765	-1.165165	-0.179131
C137	C	-0.023431	-0.831832	0.154202
C138	C	0.309902	-0.498499	0.487536
C139	C	-0.356580	-1.165299	-0.089510
C140	C	-0.023246	-0.831966	0.243823
C141	C	0.310087	-0.498633	0.577156
H142	H	-0.792581	-1.117214	-0.513929
H143	H	-0.459247	-0.783880	-0.180596
H144	H	-0.125914	-0.450547	0.152737
Cl145	Cl	-0.932605	-1.006097	-0.429138
Cl146	Cl	-0.599272	-0.672764	-0.095804
Cl147	Cl	-0.265938	-0.339430	0.237529
H148	H	-0.791861	-1.298821	-0.370128
H149	H	-0.458527	-0.965487	-0.036795
H150	H	-0.125194	-0.632154	0.296539
H151	H	-0.791962	-1.080482	-0.284879
H152	H	-0.458629	-0.747149	0.048454
H153	H	-0.125296	-0.413815	0.381787
Cl154	Cl	-0.782106	-1.005205	-0.428647
Cl155	Cl	-0.448773	-0.671872	-0.095314
Cl156	Cl	-0.115440	-0.338538	0.238019
Cl157	Cl	-0.929940	-1.045507	-0.275551
Cl158	Cl	-0.596607	-0.712173	0.057782
Cl159	Cl	-0.263273	-0.378840	0.391116
Cl160	Cl	-0.930989	-1.125112	-0.548717
Cl161	Cl	-0.597656	-0.791778	-0.215383
Cl162	Cl	-0.264323	-0.458445	0.117950
H163	H	-0.919174	-1.296871	-0.364949
H164	H	-0.585841	-0.963538	-0.031616
H165	H	-0.252508	-0.630205	0.301718
Cl166	Cl	-0.930984	-1.208623	-0.229731
Cl167	Cl	-0.597651	-0.875289	0.103603
Cl168	Cl	-0.264317	-0.541956	0.436936
Cl169	Cl	-0.932190	-1.282949	-0.504482
Cl170	Cl	-0.598856	-0.949616	-0.171148
Cl171	Cl	-0.265523	-0.616283	0.162185
H172	H	-0.792909	-1.267413	-0.474841
H173	H	-0.459576	-0.934080	-0.141508
H174	H	-0.126243	-0.600746	0.191825
Cl175	Cl	-0.781901	-1.209864	-0.229850
Cl176	Cl	-0.448568	-0.876531	0.103484
Cl177	Cl	-0.115235	-0.543198	0.436817
