data_functionalizedCrystal
_audit_creation_method	'MofGen! by Chris Wilmer'
_symmetry_space_group_name_H-M	'P1'
_symmetry_Int_Tables_number	1
_symmetry_cell_setting	triclinic
loop_
_symmetry_equiv_pos_as_xyz
  x,y,z
_cell_length_a	23.532355
_cell_length_b	12.784905
_cell_length_c	11.892095
_cell_angle_alpha	93.478840
_cell_angle_beta	86.132146
_cell_angle_gamma	77.967409
loop_
_atom_site_label
_atom_site_type_symbol
_atom_site_fract_x
_atom_site_fract_y
_atom_site_fract_z
O1	O	0.753262	0.122006	-0.093847
O2	O	1.253262	0.622006	0.406153
O3	O	0.586525	0.140740	-0.093883
O4	O	1.086525	0.640740	0.406117
O5	O	0.682095	-0.023487	-0.093859
O6	O	1.182095	0.476513	0.406141
O7	O	0.657693	0.286233	-0.093871
O8	O	1.157693	0.786233	0.406129
O9	O	0.674128	-0.009815	0.094146
O10	O	1.174128	0.490185	0.594146
O11	O	0.578558	0.154412	0.094123
O12	O	1.078558	0.654412	0.594123
O13	O	0.745295	0.135678	0.094159
O14	O	1.245295	0.635678	0.594159
Zn15	Zn	0.660661	0.147216	0.123991
Zn16	Zn	1.160661	0.647216	0.623991
Zn17	Zn	0.671159	0.129202	-0.123715
Zn18	Zn	1.171159	0.629202	0.376285
O19	O	0.649725	0.299905	0.094135
O20	O	1.149725	0.799905	0.594135
C21	C	0.561347	0.147107	0.000116
C22	C	1.061347	0.647107	0.500116
C23	C	0.498194	0.145698	0.000102
C24	C	0.998194	0.645698	0.500102
C25	C	0.679699	-0.056268	0.000142
C26	C	1.179699	0.443732	0.500142
C27	C	0.684421	-0.174313	0.000139
C28	C	1.184421	0.325687	0.500139
C29	C	0.588211	-0.369649	0.000129
C30	C	1.088211	0.130351	0.500129
C31	C	0.592645	-0.480563	0.000126
C32	C	1.092645	0.019437	0.500126
C33	C	0.697723	-0.507056	0.000136
C34	C	1.197723	-0.007056	0.500136
C35	C	0.693289	-0.396142	0.000140
C36	C	1.193289	0.103858	0.500140
C37	C	0.638531	-0.327442	0.000135
C38	C	1.138531	0.172558	0.500135
C39	C	0.634097	-0.216527	0.000130
C40	C	1.134097	0.283473	0.500130
C41	C	0.739175	-0.243022	0.000149
C42	C	1.239175	0.256978	0.500149
C43	C	0.743609	-0.353935	0.000145
C44	C	1.243609	0.146065	0.500145
C45	C	0.102247	0.144307	0.102631
C46	C	0.602247	0.644307	0.602631
C47	C	0.042910	0.142967	0.102636
C48	C	0.542910	0.642967	0.602636
O49	O	0.008531	0.148577	0.189792
O50	O	0.508531	0.648577	0.689792
N51	N	0.017575	0.134851	0.000154
N52	N	0.517575	0.634851	0.500154
C53	C	0.051582	0.128062	-0.102338
C54	C	0.551582	0.628062	0.397662
O55	O	0.024585	0.121034	-0.189506
O56	O	0.524585	0.621034	0.310494
C57	C	0.110919	0.129394	-0.102341
C58	C	0.610919	0.629394	0.397659
C59	C	0.136249	0.137522	0.000147
C60	C	0.636249	0.637522	0.500147
C61	C	0.127577	0.152433	0.205111
C62	C	0.627577	0.652433	0.705111
C63	C	0.186910	0.153774	0.205106
C64	C	0.686910	0.653774	0.705106
C65	C	0.220913	0.146989	0.102622
C66	C	0.720913	0.646989	0.602622
C67	C	0.195582	0.138863	0.000142
C68	C	0.695582	0.638863	0.500142
C69	C	0.144927	0.122597	-0.204833
C70	C	0.644927	0.622597	0.295167
C71	C	0.204267	0.123929	-0.204827
C72	C	0.704267	0.623929	0.295173
C73	C	0.229597	0.132057	-0.102339
C74	C	0.729597	0.632057	0.397661
C75	C	0.288918	0.133419	-0.102347
C76	C	0.788918	0.633419	0.397653
N77	N	0.314252	0.141536	0.000134
N78	N	0.814252	0.641536	0.500134
C79	C	0.280250	0.148321	0.102619
C80	C	0.780250	0.648321	0.602619
C81	C	-0.073030	0.125264	-0.102323
C82	C	0.426970	0.625264	0.397677
C83	C	-0.132367	0.123939	-0.102321
C84	C	0.367633	0.623939	0.397679
C85	C	-0.141035	0.138843	0.102653
C86	C	0.358965	0.638843	0.602653
C87	C	-0.081698	0.140175	0.102650
C88	C	0.418302	0.640175	0.602650
C89	C	-0.047695	0.133381	0.000158
C90	C	0.452305	0.633381	0.500158
C91	C	0.404854	0.151138	0.102601
C92	C	0.904854	0.651138	0.602601
C93	C	0.464192	0.152483	0.102587
C94	C	0.964192	0.652483	0.602587
C95	C	0.472856	0.137574	-0.102387
C96	C	0.972856	0.637574	0.397613
C97	C	0.413522	0.136235	-0.102374
C98	C	0.913522	0.636235	0.397626
C99	C	0.379523	0.143014	0.000129
C100	C	0.879523	0.643014	0.500129
O101	O	0.323332	0.127810	-0.189459
O102	O	0.823332	0.627810	0.310541
O103	O	0.307257	0.155334	0.189772
O104	O	0.807257	0.655334	0.689772
C105	C	0.770473	0.129310	0.000158
C106	C	1.270473	0.629310	0.500158
C107	C	0.833626	0.130719	0.000164
C108	C	1.333626	0.630719	0.500164
C109	C	0.652122	0.332686	0.000131
C110	C	1.152122	0.832686	0.500131
C111	C	0.647400	0.450731	0.000127
C112	C	1.147400	0.950731	0.500127
N113	N	0.653501	0.159509	0.293043
N114	N	1.153501	0.659509	0.793043
N115	N	0.678324	0.116901	-0.292767
N116	N	1.178324	0.616901	0.207233
C117	C	0.728149	0.031300	0.529709
C118	C	1.228149	0.531300	1.029709
C119	C	0.723148	0.039900	0.648050
C120	C	1.223148	0.539900	1.148050
C121	C	0.638496	0.185304	0.648067
C122	C	1.138496	0.685304	1.148067
C123	C	0.643497	0.176704	0.529726
C124	C	1.143497	0.676704	1.029726
C125	C	0.688326	0.099700	0.470552
C126	C	1.188326	0.599700	0.970552
C127	C	0.693329	0.091105	0.352209
C128	C	1.193329	0.591105	0.852209
C129	C	0.608675	0.236504	0.352228
C130	C	1.108675	0.736504	0.852228
C131	C	0.603674	0.245104	0.470569
C132	C	1.103674	0.745104	0.970569
H133	H	0.589510	-0.160593	0.000123
H134	H	1.089510	0.339407	0.500123
Br135	Br	-0.187193	0.148050	0.241741
Br136	Br	0.312807	0.648050	0.741741
Br137	Br	0.513900	-0.276410	0.000103
Br138	Br	1.013900	0.223590	0.500103
H139	H	0.231950	0.118397	-0.288290
H140	H	0.731950	0.618397	0.211710
H141	H	0.764654	-0.031393	0.481528
H142	H	1.264654	0.468607	0.981528
Br143	Br	0.777194	-0.052938	0.728333
Br144	Br	1.277194	0.447062	1.228333
Br145	Br	0.524350	-0.537840	0.000126
Br146	Br	1.024350	-0.037840	0.500126
Br147	Br	0.519014	0.128362	-0.241467
Br148	Br	1.019014	0.628362	0.258533
Br149	Br	0.498563	0.163522	0.241687
Br150	Br	0.998563	0.663522	0.741687
Br151	Br	0.772030	-0.600304	0.000181
Br152	Br	1.272030	-0.100304	0.500181
Br153	Br	0.817919	-0.447178	0.000165
Br154	Br	1.317919	0.052822	0.500165
Br155	Br	0.807471	-0.185738	0.000142
Br156	Br	1.307471	0.314262	0.500142
Br157	Br	0.754169	-0.013393	0.271901
Br158	Br	1.254169	0.486607	0.771901
Br159	Br	0.577654	0.289789	0.728386
Br160	Br	1.077654	0.789789	1.228386
H161	H	0.567174	0.307797	0.518762
H162	H	1.067174	0.807797	1.018762
H163	H	0.576249	0.292203	0.304049
H164	H	1.076249	0.792203	0.804049
Br165	Br	0.358721	0.160335	0.241713
Br166	Br	0.858721	0.660335	0.741713
Br167	Br	-0.047328	0.151206	0.241745
Br168	Br	0.452672	0.651206	0.741745
Br169	Br	0.221278	0.164801	0.344205
Br170	Br	0.721278	0.664801	0.844205
H171	H	0.099898	0.157956	0.288571
H172	H	0.599898	0.657956	0.788571
Br173	Br	-0.026889	0.116051	-0.241433
Br174	Br	0.473111	0.616051	0.258567
Br175	Br	-0.166738	0.112934	-0.241418
Br176	Br	0.333262	0.612934	0.258582
H177	H	0.124314	0.115977	-0.288290
H178	H	0.624314	0.615977	0.211710
H179	H	0.392896	0.129633	-0.185828
H180	H	0.892896	0.629633	0.314172
