data_functionalizedCrystal
_audit_creation_method	'MofGen! by Chris Wilmer'
_symmetry_space_group_name_H-M	'P1'
_symmetry_Int_Tables_number	1
_symmetry_cell_setting	triclinic
loop_
_symmetry_equiv_pos_as_xyz
  x,y,z
_cell_length_a	11.026607
_cell_length_b	10.654541
_cell_length_c	10.065875
_cell_angle_alpha	98.874761
_cell_angle_beta	79.302338
_cell_angle_gamma	96.534973
loop_
_atom_site_label
_atom_site_type_symbol
_atom_site_fract_x
_atom_site_fract_y
_atom_site_fract_z
O1	O	1.632228	0.512405	-0.113500
O2	O	1.278417	0.452409	-0.113501
O3	O	1.463458	0.301435	-0.113493
O4	O	1.447188	0.663380	-0.113509
O5	O	1.428174	0.330372	0.113494
O6	O	1.243134	0.481346	0.113486
O7	O	1.596944	0.541342	0.113487
Zn8	Zn	1.414437	0.515938	0.149525
Zn9	Zn	1.460925	0.477813	-0.149540
O10	O	1.411904	0.692316	0.113478
C11	C	1.215472	0.455810	-0.000008
C12	C	1.080480	0.422815	-0.000008
C13	C	1.007442	0.513918	-0.000013
C14	C	0.867921	0.479819	-0.000014
C15	C	1.444622	0.268846	0.000000
C16	C	1.441049	0.128627	-0.000002
C17	C	1.662314	0.148689	0.000016
C18	C	1.771262	0.092846	0.000027
C19	C	1.767898	-0.038903	0.000023
C20	C	1.655575	-0.114814	0.000003
C21	C	1.546627	-0.058971	-0.000009
C22	C	1.550002	0.072783	-0.000000
C23	C	1.325366	-0.079034	-0.000036
C24	C	1.328726	0.052716	-0.000022
C25	C	1.213042	-0.154944	-0.000056
C26	C	1.104090	-0.099100	-0.000058
C27	C	1.107458	0.032657	-0.000053
C28	C	1.219777	0.108559	-0.000034
C29	C	1.659891	0.537941	-0.000010
C30	C	1.794883	0.570935	-0.000019
C31	C	1.430740	0.724905	-0.000018
C32	C	1.434314	0.865123	-0.000025
N33	N	1.382720	0.541959	0.353629
N34	N	1.492652	0.451785	-0.353644
C35	C	1.449881	0.486857	0.421411
C36	C	1.425480	0.506895	0.578577
H37	H	1.039726	0.319570	-0.000038
H38	H	1.568217	0.389765	0.588039
H39	H	0.827171	0.376567	-0.000044
C40	C	1.282056	0.624650	0.431629
C41	C	1.277894	0.628119	0.572008
C42	C	1.185187	0.704296	0.643900
H43	H	1.204265	0.589954	0.408462
H44	H	1.299798	0.708682	0.408353
H45	H	1.260143	0.544103	0.595275
H46	H	1.355661	0.662827	0.595216
H47	H	1.202929	0.788328	0.620624
H48	H	1.107403	0.669592	0.620721
H49	H	1.182358	0.706669	0.739154
H50	H	1.048201	0.617160	-0.000010
H51	H	0.835635	0.674184	-0.000014
H52	H	1.525442	0.424841	0.363091
C53	C	1.893287	0.175167	-0.000235
C54	C	1.977364	0.134315	-0.117028
C55	C	2.089780	0.210125	-0.117332
H56	H	1.926046	0.167840	0.078831
H57	H	1.879752	0.261637	-0.000307
H58	H	1.990902	0.047867	-0.116943
H59	H	1.944646	0.141646	-0.196112
H60	H	2.076244	0.296595	-0.117403
H61	H	2.122526	0.202793	-0.038261
H62	H	2.146836	0.182426	-0.196579
H63	H	1.665061	0.255969	0.000038
H64	H	1.349906	0.568903	0.636895
C65	C	1.886187	-0.099647	-0.000246
C66	C	1.908890	-0.189556	-0.117044
C67	C	2.017853	-0.245527	-0.117348
H68	H	1.877288	-0.140645	0.078816
H69	H	1.953612	-0.035621	-0.000311
H70	H	1.841482	-0.253572	-0.116967
H71	H	1.917813	-0.148590	-0.196125
H72	H	2.085278	-0.181501	-0.117413
H73	H	2.008943	-0.286518	-0.038281
H74	H	2.033277	-0.306528	-0.196600
H75	H	1.652848	-0.222092	-0.000017
H76	H	1.210313	-0.262222	-0.000068
H77	H	1.018740	0.078115	-0.000068
H78	H	1.012646	-0.160918	-0.000084
H79	H	1.222529	0.215838	-0.000021
