data_functionalizedCrystal
_audit_creation_method	'MofGen! by Chris Wilmer'
_symmetry_space_group_name_H-M	'P1'
_symmetry_Int_Tables_number	1
_symmetry_cell_setting	triclinic
loop_
_symmetry_equiv_pos_as_xyz
  x,y,z
_cell_length_a	17.019282
_cell_length_b	14.519709
_cell_length_c	13.596369
_cell_angle_alpha	89.998664
_cell_angle_beta	86.124696
_cell_angle_gamma	96.465707
loop_
_atom_site_label
_atom_site_type_symbol
_atom_site_fract_x
_atom_site_fract_y
_atom_site_fract_z
O1	O	1.046846	-0.117428	-0.006905
O2	O	1.380180	0.215906	0.326428
O3	O	1.713513	0.549239	0.659762
O4	O	0.817203	-0.132423	0.012555
O5	O	1.150536	0.200911	0.345888
O6	O	1.483869	0.534244	0.679221
O7	O	0.938113	0.009333	0.002300
O8	O	1.271446	0.342667	0.335633
O9	O	1.604780	0.676000	0.668967
O10	O	0.925936	-0.259184	0.003350
O11	O	1.259269	0.074150	0.336683
O12	O	1.592602	0.407483	0.670016
O13	O	0.938098	0.009325	-0.161282
O14	O	1.271432	0.342659	0.172052
O15	O	1.604765	0.675992	0.505385
O16	O	0.817188	-0.132431	-0.151027
O17	O	1.150521	0.200903	0.182306
O18	O	1.483854	0.534236	0.515640
O19	O	1.046831	-0.117436	-0.170487
O20	O	1.380165	0.215898	0.162847
O21	O	1.713498	0.549231	0.496180
Zn22	Zn	0.932007	-0.124934	-0.186729
Zn23	Zn	1.265340	0.208399	0.146604
Zn24	Zn	1.598674	0.541732	0.479938
Zn25	Zn	0.932027	-0.124924	0.028797
Zn26	Zn	1.265360	0.208409	0.362130
Zn27	Zn	1.598693	0.541743	0.695464
O28	O	0.925921	-0.259192	-0.160232
O29	O	1.259254	0.074142	0.173101
O30	O	1.592588	0.407475	0.506435
C31	C	0.787805	-0.131860	-0.066746
C32	C	1.121139	0.201473	0.266588
C33	C	1.454472	0.534806	0.599921
C34	C	0.700233	-0.130161	-0.059325
C35	C	1.033566	0.203172	0.274008
C36	C	1.366899	0.536505	0.607342
C37	C	0.659088	-0.129365	-0.145010
C38	C	0.992421	0.203968	0.188324
C39	C	1.325754	0.537302	0.521657
C40	C	0.576805	-0.127754	-0.138040
C41	C	0.910139	0.205579	0.195293
C42	C	1.243472	0.538913	0.528627
C43	C	0.535669	-0.126946	-0.045385
C44	C	0.869003	0.206388	0.287948
C45	C	1.202336	0.539721	0.621282
C46	C	0.576820	-0.127739	0.040306
C47	C	0.910154	0.205594	0.373639
C48	C	1.243487	0.538927	0.706972
C49	C	0.659102	-0.129344	0.033335
C50	C	0.992435	0.203990	0.366669
C51	C	1.325768	0.537323	0.700002
C52	C	0.287234	-0.122095	-0.019878
C53	C	0.620567	0.211238	0.313456
C54	C	0.953900	0.544572	0.646789
C55	C	0.204946	-0.120493	-0.012914
C56	C	0.538280	0.212840	0.320420
C57	C	0.871613	0.546173	0.653753
C58	C	0.204937	-0.120506	-0.191260
C59	C	0.538271	0.212827	0.142073
C60	C	0.871604	0.546160	0.475406
C61	C	0.287220	-0.122116	-0.198223
C62	C	0.620553	0.211217	0.135111
C63	C	0.953886	0.544550	0.468444
C64	C	0.328364	-0.122905	-0.112532
C65	C	0.661697	0.210428	0.220801
C66	C	0.995031	0.543762	0.554135
C67	C	0.451563	-0.125302	-0.038259
C68	C	0.784897	0.208032	0.295074
C69	C	1.118230	0.541365	0.628408
C70	C	0.412469	-0.124542	-0.119659
C71	C	0.745802	0.208791	0.213674
C72	C	1.079136	0.542125	0.547008
C73	C	0.937538	0.043687	-0.079443
C74	C	1.270871	0.377021	0.253891
C75	C	1.604205	0.710354	0.587224
C76	C	0.935837	0.146063	-0.079299
C77	C	1.269171	0.479396	0.254034
C78	C	1.602504	0.812730	0.587367
C79	C	1.076229	-0.117998	-0.091184
C80	C	1.409562	0.215335	0.242149
C81	C	1.742895	0.548669	0.575483
C82	C	1.163801	-0.119697	-0.098598
C83	C	1.497135	0.213636	0.234735
C84	C	1.830468	0.546970	0.568069
C85	C	0.926496	-0.293546	-0.078487
C86	C	1.259829	0.039788	0.254846
C87	C	1.593163	0.373121	0.588180
C88	C	0.928196	-0.395921	-0.078624
C89	C	1.261530	-0.062588	0.254709
C90	C	1.594863	0.270745	0.588043
N91	N	0.932000	-0.124941	-0.333820
N92	N	1.265333	0.208393	-0.000487
N93	N	1.598666	0.541726	0.332847
C94	C	0.929577	0.520938	-0.078743
C95	C	1.262910	0.854271	0.254590
C96	C	1.596243	1.187605	0.587923
C97	C	0.931315	0.416636	-0.078898
C98	C	1.264649	0.749969	0.254435
C99	C	1.597982	1.083303	0.587769
C100	C	0.932707	0.333504	-0.079022
C101	C	1.266040	0.666837	0.254311
C102	C	1.599374	1.000170	0.587645
C103	C	0.934446	0.229195	-0.079175
C104	C	1.267779	0.562528	0.254158
C105	C	1.601113	0.895862	0.587492
C106	C	0.932003	-0.124943	-0.422818
C107	C	1.265337	0.208390	-0.089485
C108	C	1.598670	0.541724	0.243848
C109	C	0.932011	-0.124937	-0.534470
C110	C	1.265345	0.208397	-0.201137
C111	C	1.598678	0.541730	0.132196
C112	C	0.932021	-0.124926	-0.623462
C113	C	1.265355	0.208407	-0.290128
C114	C	1.598688	0.541741	0.043205
C115	C	0.932030	-0.124921	-0.735121
C116	C	1.265364	0.208413	-0.401788
C117	C	1.598697	0.541746	-0.068454
N118	N	0.932041	-0.124910	0.175888
N119	N	1.265374	0.208423	0.509221
N120	N	1.598707	0.541757	0.842554
H121	H	0.320724	-0.122734	0.049898
H122	H	0.654057	0.210599	0.383231
H123	H	0.987391	0.543933	0.716565
O124	O	0.407194	-0.124431	0.061676
O125	O	0.740528	0.208903	0.395009
O126	O	1.073861	0.542236	0.728342
H127	H	0.416043	-0.187561	0.103694
H128	H	0.749377	0.145772	0.437027
H129	H	1.082710	0.479106	0.770361
H130	H	0.171455	-0.119838	0.062541
H131	H	0.504789	0.213496	0.395874
H132	H	0.838122	0.546829	0.729208
H133	H	0.543322	-0.127075	0.115747
H134	H	0.876655	0.206259	0.449081
H135	H	1.209988	0.539592	0.782414
H136	H	0.692601	-0.129994	0.103109
H137	H	1.025934	0.203340	0.436442
H138	H	1.359268	0.536673	0.769776
O139	O	0.703448	-0.130242	-0.244949
O140	O	1.036782	0.203091	0.088384
O141	O	1.370115	0.536424	0.421717
H142	H	0.767576	-0.131502	-0.235405
H143	H	1.100909	0.201831	0.097928
H144	H	1.434242	0.535165	0.431262
O145	O	0.532423	-0.126905	-0.230456
O146	O	0.865757	0.206428	0.102878
O147	O	1.199090	0.539762	0.436211
H148	H	0.574850	-0.127752	-0.296055
H149	H	0.908183	0.205582	0.037279
H150	H	1.241516	0.538915	0.370612
O151	O	0.331584	-0.123031	-0.298157
O152	O	0.664917	0.210302	0.035177
O153	O	0.998251	0.543635	0.368510
H154	H	0.289148	-0.122217	-0.356570
H155	H	0.622481	0.211116	-0.023236
H156	H	0.955815	0.544450	0.310097
H157	H	0.171429	-0.119863	-0.261025
H158	H	0.504762	0.213471	0.072309
H159	H	0.838095	0.546804	0.405642
O160	O	0.456829	-0.125426	-0.219594
O161	O	0.790163	0.207907	0.113739
O162	O	1.123496	0.541240	0.447073
H163	H	0.501269	-0.063337	-0.227635
H164	H	0.834603	0.269996	0.105698
H165	H	1.167936	0.603329	0.439032
