data_functionalizedCrystal
_audit_creation_method	'MofGen! by Chris Wilmer'
_symmetry_space_group_name_H-M	'P1'
_symmetry_Int_Tables_number	1
_symmetry_cell_setting	triclinic
loop_
_symmetry_equiv_pos_as_xyz
  x,y,z
_cell_length_a	21.883469
_cell_length_b	21.882911
_cell_length_c	21.879399
_cell_angle_alpha	60.006540
_cell_angle_beta	60.013207
_cell_angle_gamma	59.992231
loop_
_atom_site_label
_atom_site_type_symbol
_atom_site_fract_x
_atom_site_fract_y
_atom_site_fract_z
O1	O	0.084645	-0.892842	0.746620
O2	O	0.584645	-0.392842	1.246620
O3	O	0.031867	-0.695139	0.601571
O4	O	0.531867	-0.195139	1.101571
O5	O	0.157054	-0.820237	0.601476
O6	O	0.657054	-0.320237	1.101476
O7	O	-0.040542	-0.767744	0.746716
O8	O	0.459458	-0.267744	1.246716
O9	O	0.198586	-0.778715	0.642912
O10	O	0.698586	-0.278715	1.142912
O11	O	0.073399	-0.653617	0.643007
O12	O	0.573399	-0.153617	1.143007
O13	O	0.126177	-0.851320	0.788056
O14	O	0.626177	-0.351320	1.288056
Cu15	Cu	0.103580	-0.748677	0.719315
Cu16	Cu	0.603580	-0.248677	1.219315
Cu17	Cu	0.054464	-0.797782	0.670313
Cu18	Cu	0.554464	-0.297782	1.170313
O19	O	0.000990	-0.726222	0.788151
O20	O	0.500990	-0.226222	1.288151
N21	N	0.138128	-0.714145	0.753785
N22	N	0.638128	-0.214145	1.253785
N23	N	0.019923	-0.832320	0.635843
N24	N	0.519923	-0.332320	1.135843
C25	C	0.190018	-0.547369	0.805644
C26	C	0.690018	-0.047369	1.305644
C27	C	0.190029	-0.662289	0.805630
C28	C	0.690029	-0.162289	1.305630
C29	C	0.218780	-0.633565	0.834353
C30	C	0.718780	-0.133565	1.334353
C31	C	0.344122	-0.611968	0.768360
C32	C	0.844122	-0.111968	1.268360
C33	C	0.422474	-0.638085	0.742222
C34	C	0.922474	-0.138085	1.242222
C35	C	0.422504	-0.764859	0.790561
C36	C	0.922504	-0.264859	1.290561
C37	C	0.344154	-0.738739	0.816702
C38	C	0.844154	-0.238739	1.316702
C39	C	0.208899	-0.508180	0.728617
C40	C	0.708899	-0.008180	1.228617
C41	C	0.182748	-0.429822	0.702522
C42	C	0.682748	0.070178	1.202522
C43	C	0.118843	-0.429847	0.830485
C44	C	0.618843	0.070153	1.330485
C45	C	0.144993	-0.508205	0.856580
C46	C	0.644993	-0.008205	1.356580
C47	C	0.112994	-0.643364	0.824587
C48	C	0.612994	-0.143364	1.324587
C49	C	0.086865	-0.669476	0.798467
C50	C	0.586865	-0.169476	1.298467
C51	C	0.214799	-0.733437	0.734451
C52	C	0.714799	-0.233437	1.234451
C53	C	0.240932	-0.707325	0.760562
C54	C	0.740932	-0.207325	1.260562
C55	C	0.113084	-0.643389	0.959747
C56	C	0.613084	-0.143389	1.459747
C57	C	0.087018	-0.669524	1.038102
C58	C	0.587018	-0.169524	1.538102
C59	C	0.214996	-0.733501	1.038048
C60	C	0.714996	-0.233501	1.538048
C61	C	0.241061	-0.707367	0.959690
C62	C	0.741061	-0.207367	1.459690
C63	C	0.190103	-0.662308	0.920542
C64	C	0.690103	-0.162308	1.420542
C65	C	0.304966	-0.662293	0.805598
C66	C	0.804966	-0.162293	1.305598
C67	C	-0.117460	-0.854702	0.612901
C68	C	0.382540	-0.354702	1.112901
C69	C	-0.002405	-0.854864	0.498145
C70	C	0.497595	-0.354864	0.998145
C71	C	-0.002621	-0.969735	0.613108
C72	C	0.497379	-0.469735	1.113108
C73	C	-0.002603	-0.854858	0.613180
C74	C	0.497397	-0.354858	1.113180
C75	C	-0.031272	-0.883541	0.584334
C76	C	0.468728	-0.383541	1.084334
N77	N	0.460550	-0.714150	0.753681
N78	N	0.960550	-0.214150	1.253681
O79	O	0.699805	-0.721060	0.574973
O80	O	1.199805	-0.221060	1.074973
O81	O	0.700047	-0.866553	0.772482
O82	O	1.200047	-0.366553	1.272482
O83	O	0.699952	-0.866219	0.647213
O84	O	1.199952	-0.366219	1.147213
O85	O	0.699900	-0.721394	0.700242
O86	O	1.199900	-0.221394	1.200242
O87	O	0.575478	-0.824800	0.688791
O88	O	1.075478	-0.324800	1.188791
O89	O	0.575573	-0.825134	0.814060
O90	O	1.075573	-0.325134	1.314060
O91	O	0.575331	-0.679641	0.616551
O92	O	1.075331	-0.179641	1.116551
Cu93	Cu	0.564087	-0.748606	0.719102
Cu94	Cu	1.064087	-0.248606	1.219102
Cu95	Cu	0.711292	-0.797588	0.669931
Cu96	Cu	1.211292	-0.297588	1.169931
O97	O	0.575426	-0.679975	0.741820
O98	O	1.075426	-0.179975	1.241820
N99	N	0.814828	-0.832044	0.635345
N100	N	1.314828	-0.332044	1.135345
N101	N	0.138106	-0.391772	0.753815
N102	N	0.638106	0.108228	1.253815
O103	O	-0.040520	-0.152377	0.746758
O104	O	0.459480	0.347623	1.246758
O105	O	0.156993	-0.152371	0.601281
O106	O	0.656993	0.347629	1.101281
O107	O	0.031698	-0.152390	0.601639
O108	O	0.531698	0.347610	1.101639
O109	O	0.084775	-0.152358	0.746401
O110	O	0.584775	0.347642	1.246401
O111	O	0.073234	-0.276876	0.643130
O112	O	0.573234	0.223124	1.143130
O113	O	0.198529	-0.276856	0.642772
O114	O	0.698529	0.223144	1.142772
O115	O	0.001015	-0.276863	0.788249
O116	O	0.501015	0.223137	1.288249
Cu117	Cu	0.103564	-0.288226	0.719299
Cu118	Cu	0.603564	0.211774	1.219299
Cu119	Cu	0.054444	-0.141007	0.670231
Cu120	Cu	0.554444	0.358993	1.170231
O121	O	0.126310	-0.276844	0.787892
O122	O	0.626310	0.223156	1.287892
N123	N	0.019892	-0.037461	0.635717
N124	N	0.519892	0.462539	1.135717
N125	N	0.138332	-0.714192	1.076133
N126	N	0.638332	-0.214192	1.576133
O127	O	0.131293	-0.892804	1.315506
O128	O	0.631293	-0.392804	1.815506
O129	O	-0.014162	-0.695219	1.315533
O130	O	0.485838	-0.195219	1.815533
O131	O	-0.013826	-0.820490	1.315480
O132	O	0.486174	-0.320490	1.815480
O133	O	0.130957	-0.767533	1.315559
O134	O	0.630957	-0.267533	1.815559
O135	O	0.027651	-0.778981	1.191001
O136	O	0.527651	-0.278981	1.691001
O137	O	0.027314	-0.653710	1.191054
O138	O	0.527314	-0.153710	1.691054
O139	O	0.172770	-0.851295	1.191026
O140	O	0.672770	-0.351295	1.691026
Cu141	Cu	0.103829	-0.748713	1.179674
Cu142	Cu	0.603829	-0.248713	1.679674
Cu143	Cu	0.054778	-0.797802	1.326885
Cu144	Cu	0.554778	-0.297802	1.826885
O145	O	0.172434	-0.726024	1.191079
O146	O	0.672434	-0.226024	1.691079
N147	N	0.020275	-0.832331	1.430426
N148	N	0.520275	-0.332331	1.930426
C149	C	0.047687	-0.649466	0.602306
C150	C	0.547687	-0.149466	1.102306
C151	C	0.202716	-0.804385	0.602188
C152	C	0.702716	-0.304385	1.102188
C153	C	0.110357	-0.896993	0.787321
C154	C	0.610357	-0.396993	1.287321
C155	C	-0.044672	-0.742074	0.787439
C156	C	0.455328	-0.242074	1.287439
C157	C	0.637839	-0.865879	0.818154
C158	C	1.137839	-0.365879	1.318154
C159	C	0.637724	-0.865466	0.663023
C160	C	1.137724	-0.365466	1.163023
C161	C	0.637536	-0.680313	0.570880
C162	C	1.137536	-0.180313	1.070880
C163	C	0.637655	-0.680728	0.726010
C164	C	1.137655	-0.180728	1.226010
C165	C	0.202592	-0.214459	0.601942
C166	C	0.702592	0.285541	1.101942
C167	C	0.047481	-0.214636	0.602435
C168	C	0.547481	0.285364	1.102435
C169	C	-0.044635	-0.214620	0.787537
C170	C	0.455365	0.285380	1.287537
C171	C	0.110528	-0.214598	0.787096
C172	C	0.610528	0.285402	1.287096
C173	C	-0.013455	-0.649572	1.253296
C174	C	0.486545	-0.149572	1.753296
C175	C	-0.013030	-0.804697	1.253206
C176	C	0.486970	-0.304697	1.753206
C177	C	0.172063	-0.896942	1.253263
C178	C	0.672063	-0.396942	1.753263
C179	C	0.171648	-0.741808	1.253325
C180	C	0.671648	-0.241808	1.753325
H181	H	0.024299	-0.654107	1.070013
H182	H	0.524299	-0.154107	1.570013
H183	H	0.217133	-0.730478	1.253340
H184	H	0.717133	-0.230478	1.753340
H185	H	0.259199	-0.214112	0.556156
H186	H	0.759199	0.285888	1.056156
O187	O	-0.112252	-0.214652	0.842119
O188	O	0.387748	0.285348	1.342119
C189	C	-0.112209	-0.214620	0.906523
C190	C	0.387791	0.285380	1.406523
H191	H	-0.052163	-0.238182	0.905628
H192	H	0.447837	0.261818	1.405628
H193	H	-0.145464	-0.250760	0.958626
H194	H	0.354536	0.249240	1.458626
H195	H	-0.138965	-0.154895	0.907396
H196	H	0.361035	0.345105	1.407396
H197	H	-0.059121	-0.592825	1.253304
H198	H	0.440879	-0.092825	1.753304
O199	O	0.034322	-0.581685	0.547974
O200	O	0.534322	-0.081685	1.047974
C201	C	0.085686	-0.548452	0.527802
C202	C	0.585686	-0.048452	1.027802
H203	H	0.107588	-0.573240	0.575782
H204	H	0.607588	-0.073240	1.075782
H205	H	0.056575	-0.485490	0.515576
H206	H	0.556575	0.014510	1.015576
H207	H	0.134426	-0.559750	0.475738
H208	H	0.634426	-0.059750	0.975738
O209	O	-0.067180	-0.818295	1.253082
O210	O	0.432820	-0.318295	1.753082
C211	C	-0.039918	-0.891871	1.253059
C212	C	0.460082	-0.391871	1.753059
H213	H	0.023834	-0.911590	1.229542
H214	H	0.523834	-0.411590	1.729542
H215	H	-0.062668	-0.892919	1.216856
H216	H	0.437332	-0.392919	1.716856
H217	H	-0.058873	-0.930598	1.312759
H218	H	0.441127	-0.430598	1.812759
H219	H	0.217732	-0.953686	1.253245
H220	H	0.717732	-0.453686	1.753245
H221	H	0.071582	-0.606692	0.927876
H222	H	0.571582	-0.106692	1.427876
H223	H	0.121892	-0.214588	0.832572
H224	H	0.621892	0.285412	1.332572
O225	O	0.637770	-0.626471	0.739463
O226	O	1.137770	-0.126471	1.239463
C227	C	0.702180	-0.606276	0.688116
C228	C	1.202180	-0.106276	1.188116
H229	H	0.747249	-0.654210	0.666143
H230	H	1.247249	-0.154210	1.166143
H231	H	0.723840	-0.594140	0.717270
H232	H	1.223840	-0.094140	1.217270
H233	H	0.687534	-0.554149	0.639417
H234	H	1.187534	-0.054149	1.139417
O235	O	0.033824	-0.214701	0.548278
O236	O	0.533824	0.285299	1.048278
C237	C	-0.039749	-0.214699	0.575546
C238	C	0.460251	0.285301	1.075546
H239	H	-0.059422	-0.238241	0.639300
H240	H	0.440578	0.261759	1.139300
H241	H	-0.040828	-0.250872	0.552788
H242	H	0.459172	0.249128	1.052788
H243	H	-0.078489	-0.154985	0.556602
H244	H	0.421511	0.345015	1.056602
O245	O	0.270472	-0.817842	0.547865
O246	O	0.770472	-0.317842	1.047865
C247	C	0.316974	-0.891397	0.574917
C248	C	0.816974	-0.391397	1.074917
H249	H	0.296662	-0.911216	0.638670
H250	H	0.796662	-0.411216	1.138670
H251	H	0.376948	-0.892352	0.552003
H252	H	0.876948	-0.392352	1.052003
H253	H	0.314916	-0.930101	0.555953
H254	H	0.814916	-0.430101	1.055953
O255	O	0.638051	-0.920394	0.885793
O256	O	1.138051	-0.420394	1.385793
C257	C	0.702529	-0.937729	0.899199
C258	C	1.202529	-0.437729	1.399199
H259	H	0.747540	-0.921131	0.843632
H260	H	1.247540	-0.421131	1.343632
H261	H	0.724228	-1.000406	0.929426
H262	H	1.224228	-0.500406	1.429426
H263	H	0.687957	-0.905670	0.935381
H264	H	1.187957	-0.405670	1.435381
H265	H	0.256495	-0.770176	1.069914
H266	H	0.756495	-0.270176	1.569914
H267	H	0.637457	-0.634634	0.514159
H268	H	1.137457	-0.134634	1.014159
O269	O	0.315906	-0.725793	0.921724
O270	O	0.815906	-0.225793	1.421724
C271	C	0.355289	-0.771177	0.973083
C272	C	0.855289	-0.271177	1.473083
H273	H	0.317947	-0.761185	1.028946
H274	H	0.817947	-0.261185	1.528946
H275	H	0.407572	-0.756493	0.950429
H276	H	0.907572	-0.256493	1.450429
H277	H	0.372193	-0.832552	0.981403
H278	H	0.872193	-0.332552	1.481403
O279	O	0.123790	-0.964800	0.841604
O280	O	0.623790	-0.464800	1.341604
C281	C	0.141388	-1.021169	0.815904
C282	C	0.641388	-0.521169	1.315904
H283	H	0.117271	-0.995632	0.769395
H284	H	0.617271	-0.495632	1.269395
H285	H	0.116353	-1.065963	0.864135
H286	H	0.616353	-0.565963	1.364135
H287	H	0.204766	-1.047493	0.793400
H288	H	0.704766	-0.547493	1.293400
O289	O	0.063446	-0.599594	0.868327
O290	O	0.563446	-0.099594	1.368327
C291	C	-0.010149	-0.588503	0.879465
C292	C	0.489851	-0.088503	1.379465
H293	H	-0.010038	-0.597245	0.832225
H294	H	0.489962	-0.097245	1.332225
H295	H	-0.047357	-0.529078	0.879896
H296	H	0.452643	-0.029078	1.379896
H297	H	-0.032564	-0.630216	0.935279
H298	H	0.467436	-0.130216	1.435279
H299	H	0.024137	-0.654049	0.813885
H300	H	0.524137	-0.154049	1.313885
O301	O	-0.112407	-0.728596	0.841783
O302	O	0.387593	-0.228596	1.341783
C303	C	-0.158923	-0.655055	0.814718
C304	C	0.341077	-0.155055	1.314718
H305	H	-0.122882	-0.619515	0.766651
H306	H	0.377118	-0.119515	1.266651
H307	H	-0.194776	-0.629991	0.861687
H308	H	0.305224	-0.129991	1.361687
H309	H	-0.196724	-0.656189	0.793931
H310	H	0.303276	-0.156189	1.293931
O311	O	0.637613	-0.919678	0.649499
O312	O	1.137613	-0.419678	1.149499
C313	C	0.573124	-0.893918	0.631905
C314	C	1.073124	-0.393918	1.131905
H315	H	0.528054	-0.847460	0.656092
H316	H	1.028054	-0.347460	1.156092
H317	H	0.551531	-0.942140	0.656876
H318	H	1.051531	-0.442140	1.156876
H319	H	0.587638	-0.871323	0.568524
H320	H	1.087638	-0.371323	1.068524
O321	O	0.264349	-0.777154	0.690659
O322	O	0.764349	-0.277154	1.190659
C323	C	0.337943	-0.788273	0.679553
C324	C	0.837943	-0.288273	1.179553
H325	H	0.337802	-0.741037	0.688315
H326	H	0.837802	-0.241037	1.188315
H327	H	0.375114	-0.788674	0.620120
H328	H	0.875114	-0.288674	1.120120
H329	H	0.360422	-0.844098	0.721242
H330	H	0.860422	-0.344098	1.221242
H331	H	0.312274	-0.779724	0.847024
H332	H	0.812274	-0.279724	1.347024
O333	O	0.460461	-0.839147	0.801428
O334	O	0.960461	-0.339147	1.301428
C335	C	0.409099	-0.877965	0.839881
C336	C	0.909099	-0.377965	1.339881
H337	H	0.353256	-0.843786	0.872005
H338	H	0.853256	-0.343786	1.372005
H339	H	0.431771	-0.934473	0.880771
H340	H	0.931771	-0.434473	1.380771
H341	H	0.400737	-0.887025	0.797965
H342	H	0.900737	-0.387025	1.297965
O343	O	0.460396	-0.589095	0.706033
O344	O	0.960396	-0.089095	1.206033
C345	C	0.409006	-0.516022	0.701853
C346	C	0.909006	-0.016022	1.201853
H347	H	0.353147	-0.512967	0.707001
H348	H	0.853147	-0.012967	1.207001
H349	H	0.431617	-0.474614	0.645852
H350	H	0.931617	0.025386	1.145852
H351	H	0.400700	-0.501398	0.749325
H352	H	0.900700	-0.001398	1.249325
O353	O	0.315754	-0.725568	0.742069
O354	O	0.815754	-0.225568	1.242069
C355	C	0.334639	-0.659718	0.702657
C356	C	0.834639	-0.159718	1.202657
H357	H	0.290438	-0.612650	0.676162
H358	H	0.790438	-0.112650	1.176162
H359	H	0.391504	-0.670024	0.656982
H360	H	0.891504	-0.170024	1.156982
H361	H	0.337248	-0.643232	0.742955
H362	H	0.837248	-0.143232	1.242955
H363	H	0.129609	-0.540114	0.919306
H364	H	0.629609	-0.040114	1.419306
H365	H	0.245557	-0.540066	0.687141
H366	H	0.745557	-0.040066	1.187141
O367	O	0.305976	-0.537738	0.757707
O368	O	0.805976	-0.037738	1.257707
C369	C	0.260703	-0.527084	0.827650
C370	C	0.760703	-0.027084	1.327650
H371	H	0.248988	-0.580955	0.871313
H372	H	0.748988	-0.080955	1.371313
H373	H	0.205594	-0.480032	0.823145
H374	H	0.705594	0.019968	1.323145
H375	H	0.290918	-0.511651	0.845050
H376	H	0.790918	-0.011651	1.345050
H377	H	0.198119	-0.397913	0.639797
H378	H	0.698119	0.102087	1.139797
H379	H	0.082193	-0.397958	0.871963
H380	H	0.582193	0.102042	1.371963
