data_functionalizedCrystal
_audit_creation_method	'MofGen! by Chris Wilmer'
_symmetry_space_group_name_H-M	'P1'
_symmetry_Int_Tables_number	1
_symmetry_cell_setting	triclinic
loop_
_symmetry_equiv_pos_as_xyz
  x,y,z
_cell_length_a	25.639242
_cell_length_b	18.215405
_cell_length_c	18.215399
_cell_angle_alpha	89.969449
_cell_angle_beta	89.971544
_cell_angle_gamma	90.020412
loop_
_atom_site_label
_atom_site_type_symbol
_atom_site_fract_x
_atom_site_fract_y
_atom_site_fract_z
Zn1	Zn	0.799308	-0.293080	-0.416272
Zn2	Zn	0.799243	-0.416151	-0.293200
Zn3	Zn	0.711874	-0.293093	-0.293201
Zn4	Zn	0.711850	-0.416099	-0.416206
O5	O	0.755569	-0.354606	-0.354720
O6	O	0.872464	-0.309421	-0.399973
O7	O	0.787636	-0.399854	-0.190216
O8	O	0.723510	-0.190107	-0.309554
O9	O	0.872416	-0.399841	-0.309553
O10	O	0.787747	-0.190097	-0.399974
O11	O	0.723447	-0.309444	-0.190216
O12	O	0.638706	-0.309394	-0.309491
O13	O	0.723469	-0.399753	-0.519199
O14	O	0.638688	-0.399766	-0.399862
O15	O	0.787723	-0.309371	-0.519247
O16	O	0.787612	-0.519128	-0.309489
O17	O	0.723406	-0.519090	-0.399862
C18	C	0.755514	-0.545812	-0.354684
C19	C	0.755538	-0.627611	-0.354694
C20	C	0.619726	-0.354577	-0.354670
C21	C	0.561612	-0.354582	-0.354666
C22	C	0.789049	-0.815800	-0.307724
C23	C	0.789072	-0.892659	-0.307741
C24	C	0.722156	-0.892659	-0.401769
C25	C	0.722135	-0.815802	-0.401754
C26	C	0.755581	-0.777374	-0.354727
C27	C	0.755625	-0.931090	-0.354760
C28	C	0.755650	-1.014424	-0.354779
C29	C	0.755557	-0.694035	-0.354708
C30	C	0.201249	-0.401741	-0.401732
C31	C	0.146644	-0.401746	-0.401743
O32	O	0.118407	-0.441806	-0.441718
N33	N	0.119330	-0.354626	-0.354768
C34	C	0.146622	-0.307493	-0.307783
O35	O	0.118375	-0.267414	-0.267828
C36	C	0.201225	-0.307486	-0.307775
C37	C	0.228537	-0.354614	-0.354749
C38	C	0.228561	-0.448865	-0.448702
C39	C	0.283161	-0.448861	-0.448689
C40	C	0.310450	-0.401734	-0.401706
C41	C	0.283138	-0.354610	-0.354736
C42	C	0.228517	-0.260350	-0.260795
C43	C	0.283124	-0.260346	-0.260792
C44	C	0.310436	-0.307474	-0.307765
C45	C	0.365027	-0.307479	-0.307740
N46	N	0.392342	-0.354599	-0.354716
C47	C	0.365053	-0.401726	-0.401699
C48	C	0.031951	-0.307512	-0.307803
C49	C	-0.022651	-0.307523	-0.307806
C50	C	-0.022625	-0.401774	-0.401767
C51	C	0.031979	-0.401767	-0.401760
C52	C	0.059266	-0.354632	-0.354778
C53	C	0.479718	-0.401715	-0.401668
C54	C	0.534324	-0.401709	-0.401649
C55	C	0.534293	-0.307456	-0.307690
C56	C	0.479692	-0.307464	-0.307706
C57	C	0.452406	-0.354596	-0.354701
O58	O	0.393299	-0.267437	-0.267788
O59	O	0.393307	-0.441792	-0.441654
C60	C	0.891942	-0.354635	-0.354770
C61	C	0.950056	-0.354648	-0.354792
C62	C	0.755601	-0.354555	-0.546673
C63	C	0.755614	-0.354533	-0.628472
C64	C	0.755638	-0.162653	-0.354771
C65	C	0.755668	-0.080854	-0.354793
C66	C	0.789084	-0.307427	-0.816692
C67	C	0.789090	-0.307406	-0.893551
C68	C	0.722182	-0.401525	-0.893489
C69	C	0.722173	-0.401543	-0.816632
C70	C	0.755627	-0.354495	-0.778235
C71	C	0.755642	-0.354456	-0.931951
C72	C	0.755648	-0.354433	-1.015285
C73	C	0.755620	-0.354516	-0.694896
C74	C	0.755567	-0.354603	-0.163513
C75	C	0.755655	-0.354417	-0.081715
H76	H	0.816326	-0.923942	-0.269467
H77	H	0.694924	-0.923956	-0.440055
H78	H	0.694882	-0.784514	-0.440034
H79	H	0.816333	-0.269078	-0.924859
O80	O	0.560773	-0.447514	-0.447352
C81	C	0.555026	-0.541028	-0.540519
C82	C	0.525010	-0.489185	-0.488811
H83	H	0.526125	-0.574744	-0.574041
H84	H	0.580600	-0.507325	-0.579106
H85	H	0.580580	-0.579435	-0.506646
H86	H	0.499428	-0.450768	-0.522625
H87	H	0.499468	-0.522934	-0.450222
H88	H	0.556521	-0.269088	-0.269436
O89	O	0.453106	-0.261641	-0.262182
C90	C	0.391521	-0.162212	-0.252507
C91	C	0.421579	-0.214088	-0.304135
H92	H	0.366033	-0.123742	-0.286406
H93	H	0.365888	-0.195890	-0.213974
H94	H	0.420423	-0.128566	-0.218916
H95	H	0.392715	-0.247745	-0.337774
H96	H	0.447220	-0.180368	-0.342620
H97	H	0.816323	-0.269116	-0.785432
H98	H	0.694946	-0.439832	-0.924761
O99	O	0.689656	-0.447338	-0.779384
C100	C	0.623271	-0.540660	-0.787427
C101	C	0.660078	-0.488853	-0.829702
H102	H	0.599340	-0.574227	-0.828091
H103	H	0.647235	-0.579200	-0.751463
H104	H	0.595964	-0.506862	-0.751422
H105	H	0.687393	-0.522591	-0.865747
H106	H	0.636082	-0.450310	-0.865619
H107	H	0.816283	-0.784514	-0.269433
O108	O	0.453193	-0.447395	-0.447394
C109	C	0.391571	-0.457446	-0.546725
C110	C	0.421587	-0.405627	-0.495005
H111	H	0.366002	-0.423699	-0.585221
H112	H	0.420453	-0.491111	-0.580344
H113	H	0.366007	-0.495901	-0.512858
H114	H	0.447152	-0.367127	-0.528815
H115	H	0.392677	-0.372014	-0.461383
O116	O	0.309663	-0.494558	-0.494432
C117	C	0.326373	-0.530461	-0.619553
C118	C	0.296343	-0.478652	-0.567827
H119	H	0.315607	-0.517630	-0.678903
H120	H	0.370096	-0.522369	-0.611552
H121	H	0.315623	-0.589781	-0.606488
H122	H	0.307050	-0.419312	-0.580860
H123	H	0.252628	-0.486808	-0.575838
O124	O	0.202034	-0.494545	-0.494422
C125	C	0.140412	-0.504612	-0.593752
C126	C	0.170424	-0.452786	-0.542034
H127	H	0.114840	-0.470871	-0.632249
H128	H	0.169298	-0.538272	-0.627370
H129	H	0.114853	-0.543071	-0.559883
H130	H	0.195984	-0.414282	-0.575846
H131	H	0.141511	-0.419177	-0.508413
H132	H	0.054212	-0.440142	-0.440011
H133	H	-0.044853	-0.440146	-0.440026
H134	H	0.054166	-0.269130	-0.269539
O135	O	-0.049098	-0.261679	-0.262146
C136	C	-0.043345	-0.168226	-0.168918
C137	C	-0.013332	-0.220100	-0.220599
H138	H	-0.014442	-0.134607	-0.135303
H139	H	-0.068870	-0.129738	-0.202742
H140	H	-0.068948	-0.201976	-0.130410
H141	H	0.012299	-0.186410	-0.259117
H142	H	0.012160	-0.258591	-0.186730
O143	O	0.202076	-0.214496	-0.215145
C144	C	0.207836	-0.121027	-0.121933
C145	C	0.237845	-0.172913	-0.173607
H146	H	0.236743	-0.087405	-0.088325
H147	H	0.182312	-0.082542	-0.155762
H148	H	0.182233	-0.154767	-0.083417
H149	H	0.263476	-0.139233	-0.212133
H150	H	0.263336	-0.211401	-0.139733
O151	O	0.309689	-0.214663	-0.215114
C152	C	0.371267	-0.204628	-0.115726
C153	C	0.341225	-0.256442	-0.167422
H154	H	0.396762	-0.238386	-0.077144
H155	H	0.396890	-0.166200	-0.149537
H156	H	0.342354	-0.170933	-0.082191
H157	H	0.370100	-0.290185	-0.200968
H158	H	0.315593	-0.294821	-0.133569
