data_functionalizedCrystal
_audit_creation_method	'MofGen! by Chris Wilmer'
_symmetry_space_group_name_H-M	'P1'
_symmetry_Int_Tables_number	1
_symmetry_cell_setting	triclinic
loop_
_symmetry_equiv_pos_as_xyz
  x,y,z
_cell_length_a	14.853567
_cell_length_b	14.853567
_cell_length_c	13.930277
_cell_angle_alpha	89.999243
_cell_angle_beta	89.995755
_cell_angle_gamma	83.634930
loop_
_atom_site_label
_atom_site_type_symbol
_atom_site_fract_x
_atom_site_fract_y
_atom_site_fract_z
O1	O	1.196368	0.117704	-0.079756
O2	O	0.933909	0.131725	-0.079772
O3	O	1.072149	-0.006516	-0.079767
O4	O	1.058128	0.255944	-0.079762
O5	O	1.072130	-0.006519	0.079895
O6	O	0.933890	0.131722	0.079890
O7	O	1.196349	0.117701	0.079905
Zn8	Zn	1.065116	0.124711	0.105247
Zn9	Zn	1.065142	0.124715	-0.105114
O10	O	1.058109	0.255941	0.079900
C11	C	0.900311	0.131088	0.000057
C12	C	0.800227	0.129184	0.000051
C13	C	0.387693	0.039019	0.000070
C14	C	0.366412	0.203251	0.000073
C15	C	0.460446	0.205042	0.000070
C16	C	0.518108	0.123819	0.000066
C17	C	0.481736	0.040806	0.000065
C18	C	0.496825	0.288053	0.000061
C19	C	0.590864	0.289846	0.000057
C20	C	0.648528	0.208623	0.000060
C21	C	0.612150	0.125607	0.000060
C22	C	0.669812	0.044384	0.000056
C23	C	0.633437	-0.038633	0.000063
C24	C	0.539399	-0.040417	0.000067
C25	C	0.742565	0.210407	0.000055
C26	C	0.763855	0.046172	0.000050
C27	C	1.071504	-0.040106	0.000061
C28	C	1.069601	-0.140189	0.000053
C29	C	0.979435	-0.552723	0.000066
C30	C	1.143668	-0.574004	0.000076
C31	C	1.145458	-0.479971	0.000070
C32	C	1.064235	-0.422309	0.000064
C33	C	0.981223	-0.458680	0.000063
C34	C	1.228469	-0.443591	0.000080
C35	C	1.230262	-0.349552	0.000076
C36	C	1.149039	-0.291889	0.000063
C37	C	1.066023	-0.328266	0.000061
C38	C	0.984800	-0.270604	0.000055
C39	C	0.901783	-0.306979	0.000047
C40	C	0.899999	-0.401017	0.000050
C41	C	1.150823	-0.197851	0.000059
C42	C	0.986588	-0.176561	0.000052
C43	C	1.229947	0.118337	0.000075
C44	C	1.330031	0.120241	0.000075
C45	C	1.058754	0.289531	0.000070
C46	C	1.060657	0.389615	0.000072
N47	N	1.065106	0.124708	0.248814
N48	N	1.065160	0.124711	-0.248680
C49	C	1.003926	0.185904	0.701081
C50	C	1.126382	0.063519	0.701055
C51	C	1.126371	0.063516	0.600559
C52	C	1.065138	0.124709	0.550319
C53	C	1.003916	0.185904	0.600576
C54	C	1.187598	0.002328	0.550295
C55	C	1.187591	0.002323	0.449793
C56	C	1.126353	0.063512	0.399552
C57	C	1.065127	0.124710	0.449814
C58	C	1.003894	0.185902	0.399575
C59	C	0.942664	0.247096	0.449835
C60	C	0.942677	0.247094	0.550334
C61	C	1.126339	0.063515	0.299053
C62	C	1.003883	0.185903	0.299070
H63	H	0.620472	0.357443	0.000051
H64	H	0.832411	-0.430643	0.000044
C65	C	0.528577	-0.180960	0.082138
C66	C	0.499415	-0.131664	0.000064
H67	H	0.503885	-0.237289	0.082134
H68	H	0.592826	-0.191520	0.082131
H69	H	0.508783	-0.147507	0.137811
H70	H	0.519215	-0.165114	-0.055609
H71	H	0.435152	-0.121107	0.000062
H72	H	0.772178	0.277998	0.000051
C73	C	0.762359	-0.259871	-0.082040
C74	C	0.812503	-0.243593	0.000040
H75	H	0.707241	-0.220739	-0.082039
H76	H	0.796402	-0.248830	-0.137703
H77	H	0.749413	-0.321082	-0.082034
H78	H	0.825455	-0.182383	0.000030
H79	H	0.778453	-0.254627	0.055717
C80	C	0.882840	0.306879	0.309191
C81	C	0.936574	0.253172	0.243850
H82	H	0.841292	0.348411	0.275099
H83	H	0.850372	0.269289	0.348390
H84	H	0.920416	0.339373	0.348387
H85	H	0.898998	0.220673	0.204658
H86	H	0.969044	0.290767	0.204635
C87	C	0.847161	-0.129472	-0.082035
C88	C	0.897302	-0.113184	0.000045
H89	H	0.792038	-0.090348	-0.082035
H90	H	0.881202	-0.118426	-0.137698
H91	H	0.834225	-0.190686	-0.082027
H92	H	0.910244	-0.051970	0.000034
H93	H	0.863254	-0.124222	0.055722
C94	C	1.327559	-0.256158	-0.082006
C95	C	1.321511	-0.309571	0.000074
H96	H	1.383891	-0.231471	-0.082005
H97	H	1.323456	-0.292407	-0.137669
H98	H	1.279440	-0.208360	-0.082001
H99	H	1.369627	-0.357373	0.000065
H100	H	1.325624	-0.273320	0.055751
H101	H	0.911844	-0.582344	0.000055
H102	H	0.449870	0.354180	0.000054
C103	C	1.367888	-0.490690	0.082170
C104	C	1.317746	-0.506970	0.000088
H105	H	1.423004	-0.529824	0.082174
H106	H	1.380831	-0.429486	0.082167
H107	H	1.333838	-0.501734	0.137838
H108	H	1.351794	-0.495919	-0.055580
H109	H	1.304805	-0.568187	0.000083
H110	H	1.209795	-0.620958	0.000088
C111	C	1.248117	-0.104445	-0.082009
C112	C	1.242063	-0.157861	0.000069
H113	H	1.304445	-0.079753	-0.081999
H114	H	1.244022	-0.140693	-0.137673
H115	H	1.199993	-0.056651	-0.082008
H116	H	1.290183	-0.205659	0.000064
H117	H	1.246166	-0.121610	0.055748
H118	H	0.892811	0.296924	0.408919
C119	C	0.888336	0.301443	0.704402
C120	C	0.875386	0.314362	0.605582
H121	H	0.846798	0.342977	0.738510
H122	H	0.878470	0.241264	0.720873
H123	H	0.948520	0.311342	0.720843
H124	H	0.815204	0.304456	0.589140
H125	H	0.885246	0.374555	0.589105
C126	C	1.179116	-0.092456	0.731993
C127	C	1.193678	-0.003747	0.756279
H128	H	1.220664	-0.133986	0.766088
H129	H	1.118943	-0.102340	0.748475
H130	H	1.187878	-0.101207	0.664946
H131	H	1.184909	0.005006	0.823326
H132	H	1.253865	0.006141	0.739804
H133	H	0.954071	0.235724	0.742005
C134	C	1.343596	-0.050348	0.581213
C135	C	1.254896	-0.064946	0.605509
H136	H	1.385140	-0.091884	0.615305
H137	H	1.352348	-0.059098	0.514173
H138	H	1.353459	0.009836	0.597699
H139	H	1.245032	-0.125128	0.589016
H140	H	1.246141	-0.056203	0.672563
H141	H	1.176196	0.013696	0.258136
C142	C	0.881955	-0.047097	-0.082037
C143	C	0.827237	-0.043111	0.000044
H144	H	0.921087	-0.102214	-0.082035
H145	H	0.844825	-0.044386	-0.137699
H146	H	0.917074	0.002600	-0.082032
H147	H	0.792113	-0.092805	0.000036
H148	H	0.864371	-0.045831	0.055721
C149	C	0.376892	-0.101520	-0.082003
C150	C	0.347716	-0.052232	0.000075
H151	H	0.352215	-0.157856	-0.081996
H152	H	0.357100	-0.068073	-0.137667
H153	H	0.441151	-0.112069	-0.082000
H154	H	0.283458	-0.041677	0.000068
H155	H	0.367503	-0.085686	0.055754
C156	C	1.240222	-0.153692	0.419114
C157	C	1.254883	-0.065045	0.394670
H158	H	1.281761	-0.195312	0.385113
H159	H	1.248925	-0.162336	0.486173
H160	H	1.180040	-0.163549	0.402618
H161	H	1.315064	-0.055186	0.411173
H162	H	1.246187	-0.056397	0.327597
H163	H	0.680397	-0.104764	0.000053
C164	C	0.248312	0.296511	-0.081996
C165	C	0.303029	0.292526	0.000077
H166	H	0.209175	0.351626	-0.081987
H167	H	0.285442	0.293806	-0.137664
H168	H	0.213197	0.246811	-0.081988
H169	H	0.338149	0.342223	0.000065
H170	H	0.265895	0.295240	0.055759
