data_functionalizedCrystal
_audit_creation_method	'MofGen! by Chris Wilmer'
_symmetry_space_group_name_H-M	'P1'
_symmetry_Int_Tables_number	1
_symmetry_cell_setting	triclinic
loop_
_symmetry_equiv_pos_as_xyz
  x,y,z
_cell_length_a	18.101398
_cell_length_b	18.101395
_cell_length_c	18.101389
_cell_angle_alpha	89.983159
_cell_angle_beta	89.985654
_cell_angle_gamma	90.029256
loop_
_atom_site_label
_atom_site_type_symbol
_atom_site_fract_x
_atom_site_fract_y
_atom_site_fract_z
Zn1	Zn	1.132121	-0.294944	-0.418650
Zn2	Zn	1.632121	0.205056	0.081350
Zn3	Zn	1.132017	-0.418770	-0.294812
Zn4	Zn	1.632017	0.081230	0.205188
Zn5	Zn	1.008280	-0.294942	-0.294832
Zn6	Zn	1.508280	0.205058	0.205168
Zn7	Zn	1.008231	-0.418744	-0.418622
Zn8	Zn	1.508231	0.081256	0.081378
O9	O	1.070162	-0.356850	-0.356729
O10	O	1.570162	0.143150	0.143271
O11	O	1.235740	-0.311381	-0.402225
O12	O	1.735740	0.188619	0.097775
O13	O	1.115580	-0.402354	-0.191181
O14	O	1.615580	0.097646	0.308819
O15	O	1.024772	-0.191310	-0.311277
O16	O	1.524772	0.308690	0.188723
O17	O	1.235663	-0.402355	-0.311242
O18	O	1.735663	0.097645	0.188758
O19	O	1.115757	-0.191311	-0.402245
O20	O	1.615757	0.308689	0.097755
O21	O	1.024671	-0.311378	-0.191197
O22	O	1.524671	0.188622	0.308803
O23	O	0.904640	-0.311354	-0.311250
O24	O	1.404640	0.188646	0.188750
O25	O	1.024688	-0.402312	-0.522258
O26	O	1.524688	0.097688	-0.022258
O27	O	0.904604	-0.402310	-0.402198
O28	O	1.404604	0.097690	0.097802
O29	O	1.115710	-0.311356	-0.522279
O30	O	1.615710	0.188644	-0.022279
O31	O	1.115532	-0.522399	-0.311215
O32	O	1.615532	-0.022399	0.188785
O33	O	1.024587	-0.522380	-0.402178
O34	O	1.524587	-0.022380	0.097822
C35	C	0.877752	-0.356830	-0.356724
C36	C	1.377752	0.143170	0.143276
C37	C	0.795437	-0.356839	-0.356739
C38	C	1.295437	0.143161	0.143261
C39	C	0.644729	-0.356852	-0.356738
C40	C	1.144729	0.143148	0.143262
C41	C	0.613377	-0.414168	-0.413871
C42	C	1.113377	0.085832	0.086129
C43	C	0.527759	-0.414400	-0.413702
C44	C	1.027759	0.085600	0.086298
C45	C	0.496346	-0.356866	-0.356738
C46	C	0.996346	0.143134	0.143262
C47	C	0.527399	-0.377679	-0.278597
C48	C	1.027399	0.122321	0.221403
C49	C	0.613044	-0.378087	-0.278927
C50	C	1.113044	0.121913	0.221073
C51	C	0.613208	-0.278582	-0.377064
C52	C	1.113208	0.221418	0.122936
C53	C	0.527558	-0.279011	-0.378785
C54	C	1.027558	0.220989	0.121215
C55	C	0.412487	-0.356873	-0.356733
C56	C	0.912487	0.143127	0.143267
C57	C	0.728588	-0.356848	-0.356737
C58	C	1.228588	0.143152	0.143263
C59	C	1.070063	-0.549261	-0.356707
C60	C	1.570063	-0.049261	0.143293
C61	C	1.070088	-0.631575	-0.356722
C62	C	1.570088	-0.131575	0.143278
C63	C	1.070251	-0.930665	-0.356762
C64	C	1.570251	-0.430665	0.143238
C65	C	1.013163	-0.899359	-0.414136
C66	C	1.513163	-0.399359	0.085864
C67	C	1.012892	-0.813741	-0.413956
C68	C	1.512892	-0.313741	0.086044
C69	C	1.070170	-0.782283	-0.356743
C70	C	1.570170	-0.282283	0.143257
C71	C	1.049041	-0.813419	-0.278695
C72	C	1.549041	-0.313419	0.221305
C73	C	1.048673	-0.899065	-0.279039
C74	C	1.548673	-0.399065	0.220961
C75	C	1.148593	-0.899015	-0.376750
C76	C	1.648593	-0.399015	0.123250
C77	C	1.148132	-0.813365	-0.378461
C78	C	1.648132	-0.313365	0.121539
C79	C	1.070126	-0.698424	-0.356728
C80	C	1.570126	-0.198424	0.143272
C81	C	1.070293	-1.014525	-0.356773
C82	C	1.570293	-0.514525	0.143227
C83	C	1.263324	-0.356871	-0.356734
C84	C	1.763324	0.143129	0.143266
C85	C	1.345638	-0.356880	-0.356737
C86	C	1.845638	0.143120	0.143263
C87	C	1.070205	-0.356831	-0.549891
C88	C	1.570205	0.143169	-0.049891
C89	C	1.070223	-0.356823	-0.632205
C90	C	1.570223	0.143177	-0.132205
C91	C	1.070282	-0.163688	-0.356767
C92	C	1.570282	0.336312	0.143233
C93	C	1.070333	-0.081374	-0.356783
C94	C	1.570333	0.418626	0.143217
C95	C	1.070266	-0.356684	-0.931296
C96	C	1.570266	0.143316	-0.431296
C97	C	1.012801	-0.413729	-0.899958
C98	C	1.512801	0.086271	-0.399958
C99	C	1.012956	-0.413994	-0.814340
C100	C	1.512956	0.086006	-0.314340
C101	C	1.070244	-0.356753	-0.782913
C102	C	1.570244	0.143247	-0.282913
C103	C	1.148270	-0.377940	-0.814006
C104	C	1.648270	0.122060	-0.314006
C105	C	1.147949	-0.378314	-0.899651
C106	C	1.647949	0.121686	-0.399651
C107	C	1.050385	-0.278326	-0.899722
C108	C	1.550385	0.221674	-0.399722
C109	C	1.048649	-0.278779	-0.814071
C110	C	1.548649	0.221221	-0.314071
C111	C	1.070237	-0.356791	-0.699054
C112	C	1.570237	0.143209	-0.199054
C113	C	1.070279	-0.356649	-1.015156
C114	C	1.570279	0.143351	-0.515156
C115	C	1.070162	-0.356815	-0.164318
C116	C	1.570162	0.143185	0.335682
C117	C	1.070287	-0.356615	-0.082005
C118	C	1.570287	0.143385	0.417995
H119	H	0.507237	-0.472403	-0.400217
H120	H	1.007237	0.027597	0.099783
H121	H	1.167856	-0.920574	-0.432692
H122	H	1.667856	-0.420574	0.067308
H123	H	1.026082	-0.472075	-0.793856
H124	H	1.526082	0.027925	-0.293856
H125	H	1.191125	-0.919259	-0.334963
H126	H	1.691125	-0.419259	0.165037
H127	H	1.192236	-0.337697	-0.793651
H128	H	1.692236	0.162303	-0.293651
N129	N	0.940749	-0.926409	-0.397742
N130	N	1.440749	-0.426409	0.102258
N131	N	0.887213	-0.907805	-0.437169
N132	N	1.387213	-0.407805	0.062831
H133	H	0.836070	-0.926907	-0.425589
H134	H	1.336070	-0.426907	0.074411
H135	H	0.991229	-0.262802	-0.793749
H136	H	1.491229	0.237198	-0.293749
H137	H	1.088449	-0.919775	-0.234834
H138	H	1.588449	-0.419775	0.265166
N139	N	0.501887	-0.326924	-0.223714
N140	N	1.001887	0.173076	0.276286
N141	N	0.547284	-0.289783	-0.187269
N142	N	1.047284	0.210217	0.312731
H143	H	0.529267	-0.253936	-0.148508
H144	H	1.029267	0.246064	0.351492
H145	H	1.192915	-0.791947	-0.339719
H146	H	1.692915	-0.291947	0.160281
N147	N	1.169100	-0.450172	-0.924712
N148	N	1.669100	0.049828	-0.424712
N149	N	1.183992	-0.499698	-0.878950
N150	N	1.683992	0.000302	-0.378950
H151	H	1.198931	-0.550449	-0.896645
H152	H	1.698931	-0.050449	-0.396645
N153	N	0.939994	-0.397260	-0.925780
N154	N	1.439994	0.102740	-0.425780
N155	N	0.911158	-0.336265	-0.911136
N156	N	1.411158	0.163735	-0.411136
H157	H	0.859737	-0.324632	-0.929378
H158	H	1.359737	0.175368	-0.429378
H159	H	0.954823	-0.793314	-0.400717
H160	H	1.454823	-0.293314	0.099283
H161	H	0.634865	-0.471838	-0.400549
H162	H	1.134865	0.028162	0.099451
N163	N	1.169790	-0.449038	-0.787126
N164	N	1.669790	0.050962	-0.287126
N165	N	1.230588	-0.475983	-0.805692
N166	N	1.730588	0.024017	-0.305692
H167	H	1.245785	-0.526198	-0.786711
H168	H	1.745785	-0.026198	-0.286711
N169	N	1.097326	-0.222634	-0.787230
N170	N	1.597326	0.277366	-0.287230
N171	N	1.148960	-0.239251	-0.744512
N172	N	1.648960	0.260749	-0.244512
H173	H	1.183345	-0.199600	-0.725555
H174	H	1.683345	0.300400	-0.225555
N175	N	1.203482	-0.328453	-0.925653
N176	N	1.703482	0.171547	-0.425653
N177	N	1.242355	-0.293493	-0.880544
N178	N	1.742355	0.206507	-0.380544
H179	H	1.281576	-0.258279	-0.898904
H180	H	1.781576	0.241721	-0.398904
H181	H	1.089313	-0.793042	-0.234783
H182	H	1.589313	-0.293042	0.265217
H183	H	0.506177	-0.234054	-0.340239
H184	H	1.006177	0.265946	0.159761
N185	N	0.638068	-0.449844	-0.257366
N186	N	1.138068	0.050156	0.242634
N187	N	0.620897	-0.475273	-0.195488
N188	N	1.120897	0.024727	0.304512
H189	H	0.638568	-0.525954	-0.180259
H190	H	1.138568	-0.025954	0.319741
N191	N	0.639073	-0.327961	-0.223694
N192	N	1.139073	0.172039	0.276306
N193	N	0.622289	-0.261072	-0.227102
N194	N	1.122289	0.238928	0.272898
H195	H	0.640671	-0.225672	-0.188094
H196	H	1.140671	0.274328	0.311906
N197	N	1.029559	-0.925151	-0.486976
N198	N	1.529559	-0.425151	0.013024
N199	N	0.989931	-0.905936	-0.540152
N200	N	1.489931	-0.405936	-0.040152
H201	H	1.001509	-0.924156	-0.591598
H202	H	1.501509	-0.424156	-0.091598
N203	N	0.502114	-0.259328	-0.450936
N204	N	1.002114	0.240672	0.049064
N205	N	0.461144	-0.302438	-0.486031
N206	N	0.961144	0.197562	0.013969
H207	H	0.443175	-0.288543	-0.536991
H208	H	0.943175	0.211457	-0.036991
H209	H	0.991406	-0.919103	-0.262107
H210	H	1.491406	-0.419103	0.237893
H211	H	0.955097	-0.400735	-0.793317
H212	H	1.455097	0.099265	-0.293317
N213	N	1.029103	-0.486143	-0.926970
N214	N	1.529103	0.013857	-0.426970
N215	N	1.082860	-0.495922	-0.969200
N216	N	1.582860	0.004078	-0.469200
H217	H	1.094376	-0.547063	-0.988280
H218	H	1.594376	-0.047063	-0.488280
H219	H	0.634834	-0.259564	-0.433084
H220	H	1.134834	0.240436	0.066916
N221	N	0.980251	-0.254117	-0.926818
N222	N	1.480251	0.245883	-0.426818
N223	N	0.944065	-0.294328	-0.969735
N224	N	1.444065	0.205672	-0.469735
H225	H	0.894530	-0.277238	-0.988874
H226	H	1.394530	0.222762	-0.488874
N227	N	0.500444	-0.448655	-0.256680
N228	N	1.000444	0.051345	0.243320
N229	N	0.458372	-0.484032	-0.298474
N230	N	0.958372	0.015968	0.201526
H231	H	0.439334	-0.534161	-0.283000
H232	H	0.939334	-0.034161	0.217000
N233	N	0.638647	-0.225022	-0.324862
N234	N	1.138647	0.274978	0.175138
N235	N	0.679811	-0.244311	-0.272895
N236	N	1.179811	0.255689	0.227105
H237	H	0.697781	-0.206490	-0.236024
H238	H	1.197781	0.293510	0.263976
N239	N	1.102896	-0.225015	-0.925148
N240	N	1.602896	0.274985	-0.425148
N241	N	1.154758	-0.244545	-0.966343
N242	N	1.654758	0.255455	-0.466343
H243	H	1.191848	-0.206900	-0.984304
H244	H	1.691848	0.293100	-0.484304
H245	H	0.633998	-0.401337	-0.471982
H246	H	1.133998	0.098663	0.028018
N247	N	0.501427	-0.398108	-0.486376
N248	N	1.001427	0.101892	0.013624
N249	N	0.546304	-0.386487	-0.537577
N250	N	1.046304	0.113513	-0.037577
H251	H	0.527712	-0.374982	-0.588908
H252	H	1.027712	0.125018	-0.088908
N253	N	1.029477	-0.787337	-0.486558
N254	N	1.529477	-0.287337	0.013442
N255	N	1.041332	-0.832162	-0.537715
N256	N	1.541332	-0.332162	-0.037715
H257	H	1.053043	-0.813517	-0.588994
H258	H	1.553043	-0.313517	-0.088994
H259	H	0.992380	-0.792030	-0.261460
H260	H	1.492380	-0.292030	0.238540
H261	H	1.164065	-0.793013	-0.435900
H262	H	1.664065	-0.293013	0.064100
