data_functionalizedCrystal
_audit_creation_method	'MofGen! by Chris Wilmer'
_symmetry_space_group_name_H-M	'P1'
_symmetry_Int_Tables_number	1
_symmetry_cell_setting	triclinic
loop_
_symmetry_equiv_pos_as_xyz
  x,y,z
_cell_length_a	14.971491
_cell_length_b	10.654550
_cell_length_c	13.448316
_cell_angle_alpha	90.002477
_cell_angle_beta	90.006926
_cell_angle_gamma	84.050569
loop_
_atom_site_label
_atom_site_type_symbol
_atom_site_fract_x
_atom_site_fract_y
_atom_site_fract_z
O1	O	1.187833	0.163685	0.082732
O2	O	1.687833	0.663685	0.582732
O3	O	0.927541	0.183277	0.082724
O4	O	1.427541	0.683277	0.582724
O5	O	1.063672	-0.009322	0.082725
O6	O	1.563672	0.490678	0.582725
O7	O	1.051702	0.356284	0.082732
O8	O	1.551702	0.856284	0.582732
O9	O	1.063658	-0.009324	-0.082659
O10	O	1.563658	0.490676	0.417341
O11	O	0.927527	0.183275	-0.082660
O12	O	1.427527	0.683275	0.417340
O13	O	1.187820	0.163683	-0.082652
O14	O	1.687820	0.663683	0.417348
Cu15	Cu	1.057672	0.173479	-0.097757
Cu16	Cu	1.557672	0.673479	0.402243
Cu17	Cu	1.057688	0.173481	0.097829
Cu18	Cu	1.557688	0.673481	0.597829
O19	O	1.051689	0.356282	-0.082652
O20	O	1.551689	0.856282	0.417348
C21	C	0.894204	0.182399	0.000031
C22	C	1.394204	0.682399	0.500031
C23	C	0.794893	0.179769	0.000028
C24	C	1.294893	0.679769	0.500028
C25	C	0.367133	0.168425	0.090202
C26	C	0.867133	0.668425	0.590202
C27	C	0.460447	0.170892	0.090198
C28	C	0.960447	0.670892	0.590198
C29	C	0.507092	0.172133	0.000044
C30	C	1.007092	0.672133	0.500044
C31	C	0.460420	0.170894	-0.090112
C32	C	0.960420	0.670894	0.409888
C33	C	0.367108	0.168418	-0.090107
C34	C	0.867108	0.668418	0.409893
C35	C	0.654910	0.176056	-0.090116
C36	C	1.154910	0.676056	0.409884
C37	C	0.748227	0.178534	-0.090121
C38	C	1.248227	0.678534	0.409879
C39	C	0.748248	0.178530	0.090190
C40	C	1.248248	0.678530	0.590190
C41	C	0.654937	0.176055	0.090195
C42	C	1.154937	0.676055	0.590195
C43	C	0.608271	0.174818	0.000038
C44	C	1.108271	0.674818	0.500038
C45	C	1.062786	-0.056112	0.000034
C46	C	1.562786	0.443888	0.500034
C47	C	1.060157	-0.195527	0.000037
C48	C	1.560157	0.304473	0.500037
C49	C	1.140308	-0.275870	0.000037
C50	C	1.640308	0.224130	0.500037
C51	C	1.137832	-0.406865	0.000043
C52	C	1.637832	0.093135	0.500043
C53	C	0.975046	-0.377159	0.000047
C54	C	1.475046	0.122841	0.500047
C55	C	0.977523	-0.246168	0.000048
C56	C	1.477523	0.253832	0.500048
C57	C	1.234292	-0.293022	0.000030
C58	C	1.734292	0.206978	0.500030
C59	C	1.231816	-0.424016	0.000037
C60	C	1.731816	0.075984	0.500037
C61	C	1.221156	0.164561	0.000043
C62	C	1.721156	0.664561	0.500043
C63	C	1.320467	0.167191	0.000053
C64	C	1.820467	0.667191	0.500053
C65	C	1.052574	0.403072	0.000041
C66	C	1.552574	0.903072	0.500041
C67	C	1.055204	0.542487	0.000044
C68	C	1.555204	1.042487	0.500044
N69	N	1.057667	0.173477	-0.235321
N70	N	1.557667	0.673477	0.264679
C71	C	1.112384	0.249774	-0.287354
C72	C	1.612384	0.749774	0.212646
C73	C	1.112396	0.249769	-0.391457
C74	C	1.612396	0.749769	0.108543
C75	C	1.057684	0.173472	-0.443525
C76	C	1.557684	0.673472	0.056475
C77	C	1.002964	0.097166	-0.391485
C78	C	1.502964	0.597166	0.108515
C79	C	1.002959	0.097165	-0.287384
C80	C	1.502959	0.597165	0.212616
C81	C	1.002979	0.097174	-0.608465
C82	C	1.502979	0.597174	-0.108465
C83	C	1.002983	0.097176	-0.712574
C84	C	1.502983	0.597176	-0.212574
C85	C	1.112415	0.249778	-0.712538
C86	C	1.612415	0.749778	-0.212538
C87	C	1.112410	0.249777	-0.608437
C88	C	1.612410	0.749777	-0.108437
C89	C	1.057689	0.173472	-0.556404
C90	C	1.557689	0.673472	-0.056404
N91	N	1.057700	0.173473	0.235393
N92	N	1.557700	0.673473	0.735393
H93	H	0.616915	0.175065	-0.163531
H94	H	1.116915	0.675065	0.336469
H95	H	0.912255	-0.180755	0.000062
H96	H	1.412255	0.319245	0.500062
C97	C	0.799583	0.179884	0.189364
C98	C	1.299583	0.679884	0.689364
N99	N	0.838252	0.180907	0.264058
N100	N	1.338252	0.680907	0.764058
H101	H	1.264214	-0.257716	-0.071379
H102	H	1.764214	0.242284	0.428621
C103	C	0.884153	-0.432877	0.000048
C104	C	1.384153	0.067123	0.500048
N105	N	0.815691	-0.474842	0.000043
N106	N	1.315691	0.025158	0.500043
H107	H	0.329161	0.167424	0.163616
H108	H	0.829161	0.667424	0.663616
C109	C	0.799536	0.179886	-0.189295
C110	C	1.299536	0.679886	0.310705
N111	N	0.838182	0.180900	-0.263995
N112	N	1.338182	0.680900	0.236005
H113	H	0.616960	0.175053	0.163606
H114	H	1.116960	0.675053	0.663606
H115	H	1.267222	-0.466156	-0.069174
H116	H	1.767222	0.033844	0.430826
H117	H	1.271058	-0.264056	0.069239
H118	H	1.771058	0.235944	0.569239
C119	C	1.172596	0.333707	-0.551164
C120	C	1.672596	0.833707	-0.051164
N121	N	1.217932	0.396920	-0.508025
N122	N	1.717932	0.896920	-0.008025
C123	C	0.511728	0.172311	-0.189283
C124	C	1.011728	0.672311	0.310717
N125	N	0.550371	0.173403	-0.263981
N126	N	1.050371	0.673403	0.236019
H127	H	1.260225	-0.469962	0.071446
H128	H	1.760225	0.030038	0.571446
H129	H	0.498439	0.171890	0.163607
H130	H	0.998439	0.671890	0.663607
C131	C	0.315776	0.167065	-0.189279
C132	C	0.815776	0.667065	0.310721
N133	N	0.277113	0.166043	-0.263978
N134	N	0.777113	0.666043	0.236022
C135	C	1.172573	0.333708	-0.230088
C136	C	1.672573	0.833708	0.269912
N137	N	1.217913	0.396925	-0.186958
N138	N	1.717913	0.896925	0.313042
H139	H	1.156954	0.311895	-0.433817
H140	H	1.656954	0.811895	0.066183
C141	C	1.172614	0.333708	-0.769776
C142	C	1.672614	0.833708	-0.269776
N143	N	1.217951	0.396924	-0.812893
N144	N	1.717951	0.896924	-0.312893
H145	H	0.958420	0.035037	-0.566103
H146	H	1.458420	0.535037	-0.066103
C147	C	0.942810	0.013228	-0.769847
C148	C	1.442810	0.513228	-0.269847
N149	N	0.897490	-0.050009	-0.812986
N150	N	1.397490	0.449991	-0.312986
H151	H	0.958422	0.035037	-0.433888
H152	H	1.458422	0.535037	0.066112
C153	C	0.942763	0.013235	-0.230149
C154	C	1.442763	0.513235	0.269851
N155	N	0.897423	-0.049986	-0.187040
N156	N	1.397423	0.450014	0.312960
