data_functionalizedCrystal
_audit_creation_method	'MofGen! by Chris Wilmer'
_symmetry_space_group_name_H-M	'P1'
_symmetry_Int_Tables_number	1
_symmetry_cell_setting	triclinic
loop_
_symmetry_equiv_pos_as_xyz
  x,y,z
_cell_length_a	19.077105
_cell_length_b	21.295417
_cell_length_c	21.295120
_cell_angle_alpha	89.638316
_cell_angle_beta	87.622669
_cell_angle_gamma	87.726672
loop_
_atom_site_label
_atom_site_type_symbol
_atom_site_fract_x
_atom_site_fract_y
_atom_site_fract_z
Zn1	Zn	1.076318	-0.287084	-0.394550
Zn2	Zn	1.409651	0.046250	-0.061216
Zn3	Zn	1.742984	0.379583	0.272117
Zn4	Zn	1.076121	-0.392953	-0.289264
Zn5	Zn	1.409454	-0.059620	0.044069
Zn6	Zn	1.742787	0.273713	0.377402
Zn7	Zn	0.958519	-0.283494	-0.285064
Zn8	Zn	1.291852	0.049840	0.048270
Zn9	Zn	1.625185	0.383173	0.381603
Zn10	Zn	0.958572	-0.388106	-0.390281
Zn11	Zn	1.291905	-0.054773	-0.056948
Zn12	Zn	1.625239	0.278561	0.276386
O13	O	1.017382	-0.337909	-0.339790
O14	O	1.350716	-0.004576	-0.006456
O15	O	1.684049	0.328758	0.326877
O16	O	1.174785	-0.304659	-0.384128
O17	O	1.508119	0.028675	-0.050794
O18	O	1.841452	0.362008	0.282539
O19	O	1.060416	-0.378960	-0.200611
O20	O	1.393749	-0.045626	0.132722
O21	O	1.727083	0.287707	0.466056
O22	O	0.974205	-0.195882	-0.299615
O23	O	1.307538	0.137451	0.033718
O24	O	1.640872	0.470784	0.367051
O25	O	1.174641	-0.382441	-0.306775
O26	O	1.507974	-0.049107	0.026558
O27	O	1.841307	0.284226	0.359892
O28	O	1.060751	-0.198520	-0.380054
O29	O	1.394085	0.134813	-0.046721
O30	O	1.727418	0.468147	0.286612
O31	O	0.974014	-0.298540	-0.197525
O32	O	1.307347	0.034793	0.135809
O33	O	1.640681	0.368127	0.469142
O34	O	0.860032	-0.293839	-0.295476
O35	O	1.193365	0.039494	0.037857
O36	O	1.526699	0.372827	0.371190
O37	O	0.974296	-0.374179	-0.478943
O38	O	1.307629	-0.040845	-0.145610
O39	O	1.640963	0.292488	0.187723
O40	O	0.860071	-0.370698	-0.372779
O41	O	1.193405	-0.037364	-0.039446
O42	O	1.526738	0.295969	0.293887
O43	O	1.060803	-0.299958	-0.482080
O44	O	1.394136	0.033375	-0.148746
O45	O	1.727470	0.366708	0.184587
O46	O	1.060468	-0.480398	-0.302636
O47	O	1.393801	-0.147064	0.030697
O48	O	1.727134	0.186269	0.364031
O49	O	0.974105	-0.476836	-0.376853
O50	O	1.307439	-0.143503	-0.043519
O51	O	1.640772	0.189830	0.289814
C52	C	0.834513	-0.331353	-0.333209
C53	C	1.167847	0.001980	0.000124
C54	C	1.501180	0.335313	0.333457
C55	C	0.756281	-0.328564	-0.330409
C56	C	1.089614	0.004769	0.002924
C57	C	1.422948	0.338103	0.336258
C58	C	0.719566	-0.367330	-0.369278
C59	C	1.052900	-0.033997	-0.035944
C60	C	1.386233	0.299336	0.297389
C61	C	0.646059	-0.364701	-0.366650
C62	C	0.979392	-0.031368	-0.033316
C63	C	1.312725	0.301966	0.300017
C64	C	0.609268	-0.323308	-0.325149
C65	C	0.942601	0.010025	0.008184
C66	C	1.275934	0.343359	0.341517
C67	C	0.645988	-0.284537	-0.286279
C68	C	0.979321	0.048796	0.047054
C69	C	1.312654	0.382130	0.380388
C70	C	0.719494	-0.287164	-0.288911
C71	C	1.052827	0.046170	0.044423
C72	C	1.386160	0.379503	0.377756
C73	C	0.389424	-0.311152	-0.312973
C74	C	0.722757	0.022182	0.020361
C75	C	1.056090	0.355515	0.353694
C76	C	0.315912	-0.308529	-0.310343
C77	C	0.649246	0.024804	0.022991
C78	C	0.982579	0.358137	0.356324
C79	C	0.315989	-0.388693	-0.390714
C80	C	0.649322	-0.055359	-0.057381
C81	C	0.982655	0.277974	0.275952
C82	C	0.389496	-0.391318	-0.393340
C83	C	0.722830	-0.057985	-0.060006
C84	C	1.056163	0.275348	0.273327
C85	C	0.426210	-0.352545	-0.354472
C86	C	0.759543	-0.019212	-0.021138
C87	C	1.092877	0.314121	0.312195
N88	N	0.534131	-0.320621	-0.322461
N89	N	0.867465	0.012713	0.010873
N90	N	1.200798	0.346046	0.344206
N91	N	0.501345	-0.355230	-0.357164
N92	N	0.834678	-0.021896	-0.023831
N93	N	1.168012	0.311437	0.309503
C94	C	1.017290	-0.501458	-0.339751
C95	C	1.350623	-0.168124	-0.006418
C96	C	1.683957	0.165209	0.326915
C97	C	1.017315	-0.571427	-0.339758
C98	C	1.350648	-0.238093	-0.006425
C99	C	1.683982	0.095240	0.326908
C100	C	1.062324	-0.606128	-0.301157
C101	C	1.395657	-0.272795	0.032177
C102	C	1.728991	0.060539	0.365510
C103	C	1.062357	-0.671872	-0.301172
C104	C	1.395690	-0.338538	0.032161
C105	C	1.729024	-0.005205	0.365495
C106	C	1.017368	-0.702911	-0.339782
C107	C	1.350702	-0.369578	-0.006449
C108	C	1.684035	-0.036244	0.326885
C109	C	0.972356	-0.668201	-0.378392
C110	C	1.305690	-0.334868	-0.045058
C111	C	1.639023	-0.001535	0.288275
C112	C	0.972330	-0.602459	-0.378380
C113	C	1.305663	-0.269126	-0.045047
C114	C	1.638996	0.064207	0.288287
N115	N	0.955801	-0.803946	-0.342366
N116	N	1.289135	-0.470613	-0.009032
N117	N	1.622468	-0.137279	0.324301
N118	N	0.955829	-0.866398	-0.342373
N119	N	1.289162	-0.533065	-0.009040
N120	N	1.622495	-0.199732	0.324293
C121	C	1.017447	-0.900988	-0.339821
C122	C	1.350781	-0.567655	-0.006488
C123	C	1.684114	-0.234322	0.326846
N124	N	1.079039	-0.870767	-0.337249
N125	N	1.412372	-0.537433	-0.003915
N126	N	1.745705	-0.204100	0.329418
N127	N	1.079011	-0.808308	-0.337238
N128	N	1.412344	-0.474975	-0.003904
N129	N	1.745677	-0.141642	0.329429
C130	C	1.017393	-0.774197	-0.339799
C131	C	1.350726	-0.440864	-0.006466
C132	C	1.684059	-0.107530	0.326867
C133	C	1.062496	-1.006976	-0.301234
C134	C	1.395829	-0.673643	0.032100
C135	C	1.729162	-0.340310	0.365433
C136	C	1.062530	-1.072721	-0.301254
C137	C	1.395863	-0.739388	0.032080
C138	C	1.729197	-0.406055	0.365413
C139	C	0.972523	-1.069050	-0.378470
C140	C	1.305856	-0.735716	-0.045136
C141	C	1.639190	-0.402383	0.288197
C142	C	0.972495	-1.003306	-0.378454
C143	C	1.305828	-0.669973	-0.045120
C144	C	1.639162	-0.336640	0.288213
C145	C	1.017481	-0.972274	-0.339832
C146	C	1.350814	-0.638940	-0.006499
C147	C	1.684147	-0.305607	0.326835
C148	C	1.200965	-0.344491	-0.346396
C149	C	1.534299	-0.011158	-0.013063
C150	C	1.867632	0.322176	0.320271
C151	C	1.279198	-0.347296	-0.349211
C152	C	1.612531	-0.013962	-0.015878
C153	C	1.945864	0.319371	0.317455
C154	C	1.017577	-0.336928	-0.503993
C155	C	1.350911	-0.003595	-0.170659
C156	C	1.684244	0.329738	0.162674
C157	C	1.017661	-0.336510	-0.573966
C158	C	1.350994	-0.003177	-0.240633
C159	C	1.684327	0.330156	0.092701
C160	C	1.017494	-0.173723	-0.339842
C161	C	1.350827	0.159611	-0.006509
C162	C	1.684161	0.492944	0.326824
C163	C	1.017542	-0.103756	-0.339865
C164	C	1.350875	0.229577	-0.006532
C165	C	1.684208	0.562911	0.326802
C166	C	1.017228	-0.338842	-0.176227
C167	C	1.350562	-0.005509	0.157106
C168	C	1.683895	0.327824	0.490440
C169	C	1.017282	-0.339088	-0.106259
C170	C	1.350615	-0.005754	0.227075
C171	C	1.683948	0.327579	0.560408
C172	C	1.062010	-0.299980	-0.075524
C173	C	1.395343	0.033354	0.257809
C174	C	1.728676	0.366687	0.591143
C175	C	1.062062	-0.299663	-0.009785
C176	C	1.395395	0.033670	0.323548
C177	C	1.728728	0.367003	0.656881
C178	C	1.017373	-0.338448	0.025217
C179	C	1.350706	-0.005115	0.358550
C180	C	1.684039	0.328218	0.691883
C181	C	0.972641	-0.377564	-0.005526
C182	C	1.305975	-0.044231	0.327808
C183	C	1.639308	0.289102	0.661141
C184	C	0.972596	-0.377884	-0.071263
C185	C	1.305929	-0.044551	0.262070
C186	C	1.639263	0.288783	0.595403
N187	N	0.955871	-0.340967	0.130797
N188	N	1.289204	-0.007634	0.464131
N189	N	1.622538	0.325699	0.797464
N190	N	0.955916	-0.340660	0.193245
N191	N	1.289250	-0.007327	0.526579
N192	N	1.622583	0.326006	0.859912
C193	C	1.017508	-0.337489	0.223281
C194	C	1.350841	-0.004155	0.556614
C195	C	1.684175	0.329178	0.889947
N196	N	1.079054	-0.334624	0.188509
N197	N	1.412388	-0.001291	0.521842
N198	N	1.745721	0.332043	0.855175
N199	N	1.079008	-0.334928	0.126055
N200	N	1.412342	-0.001595	0.459388
N201	N	1.745675	0.331739	0.792722
C202	C	1.017417	-0.338107	0.096498
C203	C	1.350751	-0.004773	0.429832
C204	C	1.684084	0.328560	0.763165
C205	C	1.062296	-0.298036	0.325297
C206	C	1.395629	0.035297	0.658630
C207	C	1.728963	0.368631	0.991963
C208	C	1.062349	-0.297724	0.391037
C209	C	1.395683	0.035609	0.724370
C210	C	1.729016	0.368942	1.057703
C211	C	0.972923	-0.375622	0.395295
C212	C	1.306256	-0.042288	0.728628
C213	C	1.639589	0.291045	1.061962
C214	C	0.972876	-0.375937	0.329556
C215	C	1.306209	-0.042603	0.662889
C216	C	1.639543	0.290730	0.996223
C217	C	1.017562	-0.337140	0.294561
C218	C	1.350895	-0.003807	0.627894
C219	C	1.684228	0.329526	0.961228
H220	H	0.616169	-0.396269	-0.398300
H221	H	0.949502	-0.062936	-0.064967
H222	H	1.282835	0.270397	0.268367
H223	H	0.285959	-0.274815	-0.276552
H224	H	0.619292	0.058519	0.056781
H225	H	0.952626	0.391852	0.390115
H226	H	0.936172	-0.409731	-0.096287
H227	H	1.269505	-0.076398	0.237046
H228	H	1.602838	0.256935	0.570380
H229	H	1.099011	-0.700131	-0.269738
H230	H	1.432344	-0.366798	0.063595
H231	H	1.765678	-0.033464	0.396929
Br232	Br	0.769322	-0.234547	-0.236162
Br233	Br	1.102655	0.098787	0.097171
Br234	Br	1.435989	0.432120	0.430505
Br235	Br	1.122684	-0.247356	-0.123016
Br236	Br	1.456018	0.085978	0.210318
Br237	Br	1.789351	0.419311	0.543651
Br238	Br	0.911305	-0.710324	-0.430797
Br239	Br	1.244639	-0.376991	-0.097464
Br240	Br	1.577972	-0.043658	0.235870
H241	H	0.419307	-0.279585	-0.281319
H242	H	0.752640	0.053749	0.052014
H243	H	1.085974	0.387082	0.385348
Br244	Br	0.596058	-0.228354	-0.229962
Br245	Br	0.929391	0.104979	0.103371
Br246	Br	1.262724	0.438313	0.436704
Br247	Br	0.911242	-0.555361	-0.430773
Br248	Br	1.244575	-0.222028	-0.097440
Br249	Br	1.577909	0.111306	0.235893
H250	H	1.098484	-0.267815	0.015244
H251	H	1.431818	0.065519	0.348577
H252	H	1.765151	0.398852	0.681910
Br253	Br	1.123385	-0.564015	-0.248751
Br254	Br	1.456718	-0.230682	0.084582
Br255	Br	1.790052	0.102651	0.417915
Br256	Br	0.439422	-0.447500	-0.449660
Br257	Br	0.772756	-0.114167	-0.116327
Br258	Br	1.106089	0.219167	0.217007
Br259	Br	1.123543	-0.964857	-0.248818
Br260	Br	1.456877	-0.631523	0.084515
Br261	Br	1.790210	-0.298190	0.417848
H262	H	0.935896	-1.094321	-0.409910
H263	H	1.269229	-0.760988	-0.076577
H264	H	1.602562	-0.427655	0.256757
Br265	Br	1.123627	-1.119818	-0.248867
Br266	Br	1.456960	-0.786485	0.084466
Br267	Br	1.790293	-0.453151	0.417799
H268	H	0.935842	-0.975050	-0.409884
H269	H	1.269175	-0.641717	-0.076551
H270	H	1.602508	-0.308384	0.256783
H271	H	0.936539	-0.407203	0.423793
H272	H	1.269872	-0.073870	0.757126
H273	H	1.603206	0.259463	1.090460
Br274	Br	0.911996	-0.430206	0.041975
Br275	Br	1.245329	-0.096872	0.375308
Br276	Br	1.578663	0.236461	0.708641
H277	H	1.098681	-0.266445	0.296802
H278	H	1.432015	0.066888	0.630135
H279	H	1.765348	0.400221	0.963469
H280	H	1.098777	-0.265880	0.416059
H281	H	1.432110	0.067454	0.749393
H282	H	1.765444	0.400787	1.082726
H283	H	0.936451	-0.407780	0.304532
H284	H	1.269784	-0.074447	0.637865
H285	H	1.603117	0.258887	0.971199
H286	H	0.286089	-0.420258	-0.422359
H287	H	0.619422	-0.086925	-0.089026
H288	H	0.952755	0.246408	0.244307
Br289	Br	0.769490	-0.423514	-0.425598
Br290	Br	1.102823	-0.090181	-0.092264
Br291	Br	1.436157	0.243152	0.241069
