data_functionalizedCrystal
_audit_creation_method	'MofGen! by Chris Wilmer'
_symmetry_space_group_name_H-M	'P1'
_symmetry_Int_Tables_number	1
_symmetry_cell_setting	triclinic
loop_
_symmetry_equiv_pos_as_xyz
  x,y,z
_cell_length_a	16.625548
_cell_length_b	25.639239
_cell_length_c	16.625539
_cell_angle_alpha	89.970608
_cell_angle_beta	89.982945
_cell_angle_gamma	90.039754
loop_
_atom_site_label
_atom_site_type_symbol
_atom_site_fract_x
_atom_site_fract_y
_atom_site_fract_z
Zn1	Zn	1.232562	-0.208145	-0.455893
Zn2	Zn	1.565895	0.125189	-0.122559
Zn3	Zn	1.899228	0.458522	0.210774
Zn4	Zn	1.232435	-0.295580	-0.321053
Zn5	Zn	1.565768	0.037754	0.012280
Zn6	Zn	1.899102	0.371087	0.345614
Zn7	Zn	1.097732	-0.208162	-0.321073
Zn8	Zn	1.431065	0.125172	0.012260
Zn9	Zn	1.764398	0.458505	0.345593
Zn10	Zn	1.097656	-0.295552	-0.455843
Zn11	Zn	1.430989	0.037781	-0.122510
Zn12	Zn	1.764322	0.371114	0.210824
O13	O	1.165096	-0.251860	-0.388466
O14	O	1.498429	0.081474	-0.055132
O15	O	1.831763	0.414807	0.278201
O16	O	1.345377	-0.219747	-0.438018
O17	O	1.678711	0.113586	-0.104685
O18	O	2.012044	0.446919	0.228648
O19	O	1.214545	-0.284002	-0.208223
O20	O	1.547878	0.049331	0.125110
O21	O	1.881212	0.382665	0.458443
O22	O	1.115702	-0.134994	-0.338987
O23	O	1.449035	0.198339	-0.005653
O24	O	1.782369	0.531673	0.327680
O25	O	1.345284	-0.283985	-0.338952
O26	O	1.678617	0.049348	-0.005619
O27	O	2.011951	0.382681	0.327714
O28	O	1.214761	-0.134982	-0.438038
O29	O	1.548094	0.198352	-0.104705
O30	O	1.881428	0.531685	0.228629
O31	O	1.115579	-0.219776	-0.208238
O32	O	1.448913	0.113557	0.125095
O33	O	1.782246	0.446890	0.458428
O34	O	0.984889	-0.219750	-0.338938
O35	O	1.318223	0.113583	-0.005605
O36	O	1.651556	0.446917	0.327728
O37	O	1.115572	-0.283939	-0.568682
O38	O	1.448906	0.049394	-0.235349
O39	O	1.782239	0.382728	0.097985
O40	O	0.984833	-0.283956	-0.437953
O41	O	1.318167	0.049378	-0.104620
O42	O	1.651500	0.382711	0.228714
O43	O	1.214687	-0.219721	-0.568719
O44	O	1.548021	0.113612	-0.235385
O45	O	1.881354	0.446946	0.097948
O46	O	1.214471	-0.368741	-0.338904
O47	O	1.547805	-0.035408	-0.005571
O48	O	1.881138	0.297925	0.327763
O49	O	1.115450	-0.368721	-0.437933
O50	O	1.448783	-0.035388	-0.104600
O51	O	1.782116	0.297945	0.228733
C52	C	0.955605	-0.251852	-0.388443
C53	C	1.288938	0.081481	-0.055110
C54	C	1.622272	0.414815	0.278224
C55	C	0.865984	-0.251861	-0.388452
C56	C	1.199317	0.081472	-0.055119
C57	C	1.532651	0.414805	0.278214
C58	C	0.537808	-0.251865	-0.388487
C59	C	0.871142	0.081468	-0.055154
C60	C	1.204475	0.414802	0.278180
C61	C	0.629117	-0.251863	-0.388475
C62	C	0.962450	0.081471	-0.055141
C63	C	1.295784	0.414804	0.278192
C64	C	0.701893	-0.251863	-0.388469
C65	C	1.035227	0.081470	-0.055136
C66	C	1.368560	0.414803	0.278198
C67	C	0.793208	-0.251861	-0.388458
C68	C	1.126541	0.081473	-0.055125
C69	C	1.459874	0.414806	0.278209
C70	C	1.164960	-0.387702	-0.388429
C71	C	1.498294	-0.054369	-0.055095
C72	C	1.831627	0.278964	0.278238
C73	C	1.164976	-0.445816	-0.388440
C74	C	1.498309	-0.112483	-0.055106
C75	C	1.831643	0.220850	0.278227
C76	C	1.216791	-0.806177	-0.336989
C77	C	1.550124	-0.472844	-0.003655
C78	C	1.883458	-0.139510	0.329678
C79	C	1.216822	-0.860781	-0.336999
C80	C	1.550156	-0.527448	-0.003666
C81	C	1.883489	-0.194115	0.329667
O82	O	1.260737	-0.889016	-0.293213
O83	O	1.594070	-0.555683	0.040120
O84	O	1.927403	-0.222350	0.373453
N85	N	1.165238	-0.888099	-0.388519
N86	N	1.498571	-0.554765	-0.055186
N87	N	1.831904	-0.221432	0.278148
C88	C	1.113624	-0.860809	-0.440037
C89	C	1.446958	-0.527475	-0.106703
C90	C	1.780291	-0.194142	0.226630
O91	O	1.069751	-0.889058	-0.483860
O92	O	1.403084	-0.555725	-0.150526
O93	O	1.736417	-0.222392	0.182807
C94	C	1.113598	-0.806205	-0.440029
C95	C	1.446931	-0.472872	-0.106696
C96	C	1.780264	-0.139539	0.226637
C97	C	1.165180	-0.778891	-0.388501
C98	C	1.498513	-0.445558	-0.055168
C99	C	1.831847	-0.112224	0.278166
C100	C	1.268370	-0.778863	-0.285465
C101	C	1.601703	-0.445529	0.047868
C102	C	1.935037	-0.112196	0.381202
C103	C	1.268337	-0.724262	-0.285453
C104	C	1.601671	-0.390929	0.047880
C105	C	1.935004	-0.057595	0.381213
C106	C	1.216726	-0.696976	-0.336965
C107	C	1.550059	-0.363643	-0.003632
C108	C	1.883393	-0.030309	0.329701
C109	C	1.165147	-0.724290	-0.388489
C110	C	1.498481	-0.390957	-0.055156
C111	C	1.831814	-0.057624	0.278177
C112	C	1.061989	-0.778917	-0.491551
C113	C	1.395322	-0.445583	-0.158217
C114	C	1.728655	-0.112250	0.175116
C115	C	1.061967	-0.724310	-0.491539
C116	C	1.395300	-0.390976	-0.158206
C117	C	1.728634	-0.057643	0.175127
C118	C	1.113549	-0.696995	-0.440011
C119	C	1.446883	-0.363662	-0.106677
C120	C	1.780216	-0.030328	0.226656
C121	C	1.113504	-0.642404	-0.439990
C122	C	1.446837	-0.309071	-0.106656
C123	C	1.780170	0.024263	0.226677
N124	N	1.165088	-0.615087	-0.388470
N125	N	1.498422	-0.281753	-0.055137
N126	N	1.831755	0.051580	0.278196
C127	C	1.216700	-0.642373	-0.336958
C128	C	1.550033	-0.309039	-0.003625
C129	C	1.883366	0.024294	0.329709
C130	C	1.113685	-0.975479	-0.440049
C131	C	1.447018	-0.642146	-0.106716
C132	C	1.780352	-0.308813	0.226617
C133	C	1.113707	-1.030082	-0.440053
C134	C	1.447040	-0.696748	-0.106720
C135	C	1.780374	-0.363415	0.226614
C136	C	1.216906	-1.030050	-0.337017
C137	C	1.550240	-0.696717	-0.003683
C138	C	1.883573	-0.363384	0.329650
C139	C	1.216880	-0.975447	-0.337009
C140	C	1.550213	-0.642114	-0.003676
C141	C	1.883546	-0.308781	0.329657
C142	C	1.165270	-0.948162	-0.388530
C143	C	1.498603	-0.614829	-0.055196
C144	C	1.831936	-0.281495	0.278137
C145	C	1.216627	-0.527708	-0.336937
C146	C	1.549960	-0.194374	-0.003604
C147	C	1.883294	0.138959	0.329730
C148	C	1.216587	-0.473102	-0.336928
C149	C	1.549921	-0.139769	-0.003594
C150	C	1.883254	0.193564	0.329739
C151	C	1.113391	-0.473138	-0.439967
C152	C	1.446725	-0.139805	-0.106633
C153	C	1.780058	0.193528	0.226700
C154	C	1.113427	-0.527739	-0.439973
C155	C	1.446761	-0.194405	-0.106640
C156	C	1.780094	0.138928	0.226693
C157	C	1.165052	-0.555022	-0.388456
C158	C	1.498385	-0.221689	-0.055123
C159	C	1.831718	0.111645	0.278211
O160	O	1.069614	-0.614134	-0.483756
O161	O	1.402947	-0.280801	-0.150422
O162	O	1.736281	0.052532	0.182911
O163	O	1.260573	-0.614117	-0.293150
O164	O	1.593906	-0.280783	0.040183
O165	O	1.927240	0.052550	0.373517
C166	C	1.375405	-0.251867	-0.388489
C167	C	1.708738	0.081466	-0.055155
C168	C	2.042072	0.414799	0.278178
C169	C	1.465026	-0.251871	-0.388498
C170	C	1.798359	0.081463	-0.055165
C171	C	2.131693	0.414796	0.278168
C172	C	1.165136	-0.251825	-0.598775
C173	C	1.498469	0.081508	-0.265441
C174	C	1.831802	0.414842	0.067892
C175	C	1.165152	-0.251810	-0.688396
C176	C	1.498486	0.081523	-0.355062
C177	C	1.831819	0.414856	-0.021729
C178	C	1.165254	-0.115487	-0.388520
C179	C	1.498587	0.217847	-0.055187
C180	C	1.831921	0.551180	0.278146
C181	C	1.165321	-0.057372	-0.388544
C182	C	1.498655	0.275961	-0.055210
C183	C	1.831988	0.609294	0.278123
C184	C	1.165166	-0.251799	-0.761178
C185	C	1.498499	0.081535	-0.427845
C186	C	1.831832	0.414868	-0.094511
C187	C	1.165184	-0.251779	-0.852487
C188	C	1.498518	0.081554	-0.519153
C189	C	1.831851	0.414887	-0.185820
C190	C	1.165203	-0.251761	-0.925263
C191	C	1.498537	0.081572	-0.591930
C192	C	1.831870	0.414906	-0.258597
C193	C	1.165223	-0.251742	-1.016578
C194	C	1.498557	0.081591	-0.683244
C195	C	1.831890	0.414925	-0.349911
C196	C	1.165103	-0.251856	-0.178975
C197	C	1.498436	0.081477	0.154359
C198	C	1.831770	0.414810	0.487692
C199	C	1.165242	-0.251724	-0.089354
C200	C	1.498576	0.081610	0.243979
C201	C	1.831909	0.414943	0.577313
H202	H	1.258666	-0.549915	-0.294988
H203	H	1.591999	-0.216582	0.038345
H204	H	1.925333	0.116751	0.371678
Cl205	Cl	1.281439	-0.438767	-0.272144
Cl206	Cl	1.614772	-0.105434	0.061189
Cl207	Cl	1.948106	0.227899	0.394523
Cl208	Cl	1.333200	-0.689932	-0.220683
Cl209	Cl	1.666533	-0.356599	0.112650
Cl210	Cl	1.999866	-0.023265	0.445984
H211	H	1.071696	-1.052316	-0.482005
H212	H	1.405029	-0.718983	-0.148672
H213	H	1.738362	-0.385650	0.184661
H214	H	1.071651	-0.953266	-0.482001
H215	H	1.404984	-0.619933	-0.148668
H216	H	1.738318	-0.286600	0.184666
Cl217	Cl	1.048564	-0.562078	-0.504736
Cl218	Cl	1.381897	-0.228745	-0.171403
Cl219	Cl	1.715231	0.104589	0.161930
Cl220	Cl	1.333262	-0.813155	-0.220698
Cl221	Cl	1.666595	-0.479822	0.112635
Cl222	Cl	1.999929	-0.146488	0.445969
Cl223	Cl	1.281729	-0.941115	-0.272229
Cl224	Cl	1.615063	-0.607781	0.061104
Cl225	Cl	1.948396	-0.274448	0.394437
Cl226	Cl	1.281789	-1.064363	-0.272257
Cl227	Cl	1.615122	-0.731030	0.061077
Cl228	Cl	1.948455	-0.397697	0.394410
H229	H	1.071367	-0.450913	-0.481905
H230	H	1.404701	-0.117580	-0.148572
H231	H	1.738034	0.215753	0.184762
Cl232	Cl	0.997147	-0.813241	-0.556343
Cl233	Cl	1.330481	-0.479908	-0.223010
Cl234	Cl	1.663814	-0.146575	0.110323
H235	H	1.019941	-0.702097	-0.533496
H236	H	1.353274	-0.368763	-0.200163
H237	H	1.686607	-0.035430	0.133170
