data_functionalizedCrystal
_audit_creation_method	'MofGen! by Chris Wilmer'
_symmetry_space_group_name_H-M	'P1'
_symmetry_Int_Tables_number	1
_symmetry_cell_setting	triclinic
loop_
_symmetry_equiv_pos_as_xyz
  x,y,z
_cell_length_a	14.044191
_cell_length_b	10.489763
_cell_length_c	12.503572
_cell_angle_alpha	86.445212
_cell_angle_beta	86.162165
_cell_angle_gamma	91.129931
loop_
_atom_site_label
_atom_site_type_symbol
_atom_site_fract_x
_atom_site_fract_y
_atom_site_fract_z
O1	O	1.265245	-0.301026	-0.089289
O2	O	1.765245	0.198974	0.410711
O3	O	0.989200	-0.289910	-0.089302
O4	O	1.489200	0.210090	0.410698
O5	O	1.133492	-0.110510	-0.089275
O6	O	1.633492	0.389490	0.410725
O7	O	1.120954	-0.480426	-0.089316
O8	O	1.620954	0.019574	0.410684
O9	O	1.122640	-0.124026	0.089365
O10	O	1.622640	0.375974	0.589365
O11	O	0.978349	-0.303427	0.089338
O12	O	1.478349	0.196573	0.589338
O13	O	1.254394	-0.314542	0.089351
O14	O	1.754394	0.185458	0.589351
Cu15	Cu	1.115380	-0.310219	0.105655
Cu16	Cu	1.615380	0.189781	0.605655
Cu17	Cu	1.128214	-0.294234	-0.105607
Cu18	Cu	1.628214	0.205766	0.394393
O19	O	1.110102	-0.493943	0.089324
O20	O	1.610102	0.006057	0.589324
C21	C	0.948426	-0.291806	0.000016
C22	C	1.448426	0.208194	0.500016
C23	C	0.843101	-0.277303	0.000012
C24	C	1.343101	0.222697	0.500012
C25	C	0.593340	-0.353648	0.000015
C26	C	1.093340	0.146352	0.500015
C27	C	0.650260	-0.250809	0.000024
C28	C	1.150260	0.249191	0.500024
C29	C	0.757567	-0.265554	0.000018
C30	C	1.257567	0.234446	0.500018
C31	C	0.486024	-0.338906	0.000021
C32	C	0.986024	0.161094	0.500021
C33	C	1.127114	-0.069640	0.000047
C34	C	1.627114	0.430360	0.500047
C35	C	1.124266	0.072276	0.000056
C36	C	1.624266	0.572276	0.500056
C37	C	1.032446	0.149732	0.000049
C38	C	1.532446	0.649732	0.500049
C39	C	1.070463	0.230789	0.088137
C40	C	1.570463	0.730789	0.588137
C41	C	1.081183	0.244087	-0.087988
C42	C	1.581183	0.744087	0.412012
C43	C	1.162317	0.151458	0.088216
C44	C	1.662317	0.651458	0.588216
C45	C	1.173029	0.164754	-0.087988
C46	C	1.673029	0.664754	0.412012
C47	C	1.211112	0.245775	0.000121
C48	C	1.711112	0.745775	0.500121
C49	C	1.295168	-0.312646	0.000030
C50	C	1.795168	0.187354	0.500030
C51	C	1.400494	-0.327149	0.000027
C52	C	1.900494	0.172851	0.500027
N53	N	1.106361	-0.321461	0.254246
N54	N	1.606361	0.178539	0.754246
C55	C	1.116464	0.465186	0.000017
C56	C	1.616464	0.965186	0.500017
C57	C	1.119264	0.323263	0.000057
C58	C	1.619264	0.823263	0.500057
N59	N	1.137240	-0.282982	-0.254198
N60	N	1.637240	0.217018	0.245802
C61	C	1.093094	-0.338011	0.473359
C62	C	1.593094	0.161989	0.973359
C63	C	1.150505	-0.266436	0.526697
C64	C	1.650505	0.233564	1.026697
C65	C	1.143122	-0.275645	0.648618
C66	C	1.643122	0.224355	1.148618
C67	C	1.100475	-0.328804	0.351426
C68	C	1.600475	0.171196	0.851426
H69	H	0.618406	-0.151687	-0.000040
H70	H	1.118406	0.348313	0.499960
H71	H	0.625197	-0.452757	0.000001
H72	H	1.125197	0.047243	0.500001
H73	H	0.956952	0.107734	0.000131
H74	H	1.456952	0.607734	0.500131
H75	H	1.046844	0.284628	-0.162458
H76	H	1.546844	0.784628	0.337542
H77	H	1.038403	-0.406199	0.519256
H78	H	1.538403	0.093801	1.019256
H79	H	1.286665	0.287529	0.000176
H80	H	1.786665	0.787529	0.500176
C81	C	1.011865	0.270404	0.188733
C82	C	1.511865	0.770404	0.688733
N83	N	0.967723	0.300240	0.264497
N84	N	1.467723	0.800240	0.764497
H85	H	1.196607	0.111047	0.162762
H86	H	1.696607	0.611047	0.662762
C87	C	1.231582	0.125100	-0.188593
C88	C	1.731582	0.625100	0.311407
N89	N	1.275678	0.095231	-0.264378
N90	N	1.775678	0.595231	0.235622
H91	H	1.205200	-0.198245	0.480794
H92	H	1.705200	0.301755	0.980794
