data_functionalizedCrystal
_audit_creation_method	'MofGen! by Chris Wilmer'
_symmetry_space_group_name_H-M	'P1'
_symmetry_Int_Tables_number	1
_symmetry_cell_setting	triclinic
loop_
_symmetry_equiv_pos_as_xyz
  x,y,z
_cell_length_a	13.635800
_cell_length_b	27.923497
_cell_length_c	9.514088
_cell_angle_alpha	86.305300
_cell_angle_beta	118.843545
_cell_angle_gamma	81.035752
loop_
_atom_site_label
_atom_site_type_symbol
_atom_site_fract_x
_atom_site_fract_y
_atom_site_fract_z
V1	V	2.097753	-0.067989	0.501814
O2	O	2.101066	0.002382	0.491173
O3	O	2.062199	-0.133960	0.499429
O4	O	2.115248	-0.067332	0.720195
O5	O	2.047649	-0.064708	0.268879
V6	V	2.335635	-0.059526	0.473826
O7	O	2.236891	-0.086554	0.563209
O8	O	2.421596	-0.040962	0.412432
O9	O	2.259586	0.006445	0.476211
O10	O	2.391021	-0.129898	0.484467
O11	O	2.444437	-0.062808	0.706762
O12	O	2.206537	-0.060184	0.255445
V13	V	2.597753	-0.067989	0.501814
O14	O	2.601066	0.002382	0.491173
O15	O	2.562199	-0.133960	0.499429
O16	O	2.615248	-0.067332	0.720195
O17	O	2.547649	-0.064708	0.268879
V18	V	2.835635	-0.059526	0.473826
O19	O	2.736891	-0.086554	0.563209
O20	O	2.921596	-0.040962	0.412432
O21	O	2.759586	0.006445	0.476211
O22	O	2.891021	-0.129898	0.484467
O23	O	2.944437	-0.062808	0.706762
O24	O	2.706537	-0.060184	0.255445
C25	C	1.980588	-0.150031	0.491783
C26	C	1.992440	-0.203965	0.491289
C27	C	2.019009	-0.531229	0.340862
C28	C	2.063569	-0.733933	0.338917
O29	O	2.029428	-0.754038	0.213494
N30	N	2.116108	-0.766460	0.485863
C31	C	2.157517	-0.748308	0.633308
O32	O	2.203238	-0.780625	0.758251
C33	C	2.112964	-0.545605	0.635252
C34	C	2.060412	-0.513080	0.488294
C35	C	1.966462	-0.498705	0.193916
C36	C	1.955317	-0.448032	0.194404
C37	C	1.996720	-0.429883	0.341836
C38	C	2.049267	-0.462407	0.488782
C39	C	2.154380	-0.527454	0.782695
C40	C	2.143239	-0.476774	0.783168
C41	C	2.090687	-0.444250	0.636211
C42	C	2.079526	-0.393585	0.636701
N43	N	2.026986	-0.361059	0.489755
C44	C	1.985584	-0.379208	0.342322
C45	C	2.180902	-0.854729	0.632276
C46	C	2.192039	-0.905405	0.631791
C47	C	2.098092	-0.891027	0.337399
C48	C	2.086948	-0.840350	0.337886
C49	C	2.128363	-0.822203	0.485330
C50	C	1.962182	-0.272791	0.343356
C51	C	1.951037	-0.222114	0.343856
C52	C	2.044990	-0.236497	0.638247
C53	C	2.056129	-0.287169	0.637748
C54	C	2.014725	-0.305315	0.490289
O55	O	2.113650	-0.373446	0.762060
O56	O	1.939889	-0.346883	0.217399
C57	C	2.030153	-0.581902	0.340374
C58	C	2.082700	-0.614426	0.487320
C59	C	2.124103	-0.596277	0.634752
C60	C	2.093837	-0.665102	0.486834
C61	C	2.052434	-0.683251	0.339401
C62	C	1.999895	-0.650725	0.192455
C63	C	1.988750	-0.600052	0.192942
C64	C	2.176643	-0.628804	0.781699
C65	C	2.187782	-0.679476	0.781200
C66	C	2.146379	-0.697625	0.633767
C67	C	2.048257	-0.065039	0.773390
C68	C	2.103128	-0.064938	0.951925
C69	C	2.172867	0.022512	0.483853
C70	C	2.150636	0.076446	0.484358
C71	C	2.105197	-0.062479	0.202242
C72	C	2.039946	-0.062577	0.023706
C73	C	2.480588	-0.150031	0.491783
C74	C	2.492440	-0.203965	0.491289
C75	C	2.548257	-0.065039	0.773390
C76	C	2.603128	-0.064938	0.951925
C77	C	2.672867	0.022512	0.483853
C78	C	2.650636	0.076446	0.484358
C79	C	2.605197	-0.062479	0.202242
C80	C	2.539946	-0.062577	0.023706
C81	C	2.590198	-0.231781	0.499120
C82	C	2.601356	-0.282460	0.498680
C83	C	2.514750	-0.305321	0.490398
C84	C	2.416986	-0.277502	0.482571
C85	C	2.405833	-0.226824	0.483022
C86	C	2.725373	0.104262	0.476531
C87	C	2.704488	0.154940	0.476979
C88	C	2.608871	0.177802	0.485265
C89	C	2.534127	0.149982	0.493088
C90	C	2.555008	0.099306	0.492628
H91	H	1.908238	-0.195634	0.224180
C92	C	1.930945	-0.564281	0.031276
N93	N	1.887405	-0.537341	-0.090500
C94	C	2.428950	0.175138	0.502201
N95	N	2.349733	0.194086	0.509072
C96	C	1.910158	-0.059954	0.922214
N97	N	1.812397	-0.057978	0.845759
C98	C	2.472792	0.068712	0.501262
N99	N	2.410861	0.045672	0.507767
C100	C	2.527033	-0.361068	0.489891
N101	N	2.536288	-0.403057	0.489503
C102	C	2.585910	0.233550	0.485750
N103	N	2.568620	0.275539	0.486111
C104	C	2.321719	-0.302656	0.473431
N105	N	2.249959	-0.321603	0.466530
C106	C	2.410158	-0.059954	0.922214
N107	N	2.312397	-0.057978	0.845759
C108	C	2.830557	0.079125	0.467402
N109	N	2.909780	0.060196	0.460514
H110	H	2.699206	-0.066883	1.027063
C111	C	2.685484	-0.206644	0.508243
N112	N	2.757263	-0.187715	0.515127
H113	H	2.680966	-0.305104	0.505050
C114	C	2.029147	-0.804578	0.176224
N115	N	1.985613	-0.777636	0.054453
H116	H	2.326223	-0.204180	0.476636
C117	C	1.916625	-0.292743	0.181144
N118	N	1.882303	-0.307771	0.058965
C119	C	2.232923	-0.067561	1.053424
N120	N	2.330684	-0.069535	1.129875
H121	H	2.078693	-0.221710	0.758283
H122	H	1.912532	-0.421555	0.074736
C123	C	2.249836	-0.941176	0.793454
N124	N	2.293378	-0.968118	0.915226
C125	C	2.226449	-0.834774	0.794485
N126	N	2.260747	-0.819746	0.916662
C127	C	2.052559	-0.911000	0.175223
N128	N	2.018276	-0.926047	0.053079
H129	H	2.197172	-0.553927	0.902364
C130	C	2.188796	-0.456816	0.945372
N131	N	2.223105	-0.441784	1.067543
C132	C	2.113932	-0.322947	0.799407
N133	N	2.157480	-0.349892	0.921172
C134	C	2.786746	0.185529	0.468441
N135	N	2.848713	0.208566	0.462032
H136	H	1.966178	-0.665510	0.072409
H137	H	1.932746	-0.513476	0.073853
H138	H	2.230570	-0.705954	0.900879
H139	H	2.210360	-0.614033	0.901759
