data_functionalizedCrystal
_audit_creation_method	'MofGen! by Chris Wilmer'
_symmetry_space_group_name_H-M	'P1'
_symmetry_Int_Tables_number	1
_symmetry_cell_setting	triclinic
loop_
_symmetry_equiv_pos_as_xyz
  x,y,z
_cell_length_a	14.044220
_cell_length_b	14.519709
_cell_length_c	12.996460
_cell_angle_alpha	90.007090
_cell_angle_beta	90.000499
_cell_angle_gamma	88.434511
loop_
_atom_site_label
_atom_site_type_symbol
_atom_site_fract_x
_atom_site_fract_y
_atom_site_fract_z
O1	O	-1.258085	-0.222370	-0.085462
O2	O	-0.924752	0.110963	0.247872
O3	O	-0.591418	0.444297	0.581205
O4	O	-0.982102	-0.214346	-0.085488
O5	O	-0.648769	0.118987	0.247846
O6	O	-0.315435	0.452321	0.581179
O7	O	-1.127411	-0.084710	-0.085465
O8	O	-0.794077	0.248624	0.247869
O9	O	-0.460744	0.581957	0.581202
O10	O	-1.112776	-0.352006	-0.085485
O11	O	-0.779443	-0.018673	0.247849
O12	O	-0.446110	0.314660	0.581182
O13	O	-1.127396	-0.084701	0.085669
O14	O	-0.794062	0.248633	0.419002
O15	O	-0.460729	0.581966	0.752336
O16	O	-0.982087	-0.214337	0.085646
O17	O	-0.648754	0.118997	0.418979
O18	O	-0.315420	0.452330	0.752313
O19	O	-1.258070	-0.222361	0.085672
O20	O	-0.924736	0.110972	0.419005
O21	O	-0.591403	0.444306	0.752339
Cu22	Cu	-1.120077	-0.218348	0.101285
Cu23	Cu	-0.786744	0.114985	0.434618
Cu24	Cu	-0.453410	0.448319	0.767952
Cu25	Cu	-1.120095	-0.218359	-0.101101
Cu26	Cu	-0.786762	0.114975	0.232233
Cu27	Cu	-0.453428	0.448308	0.565566
O28	O	-1.112761	-0.351997	0.085649
O29	O	-0.779428	-0.018664	0.418982
O30	O	-0.446094	0.314669	0.752316
C31	C	-1.126721	-0.050290	0.000102
C32	C	-0.793388	0.283043	0.333436
C33	C	-0.460054	0.616376	0.666769
C34	C	-1.124677	0.052256	0.000103
C35	C	-0.791344	0.385589	0.333436
C36	C	-0.458011	0.718922	0.666769
C37	C	-0.946774	-0.210829	0.000076
C38	C	-0.613441	0.122504	0.333409
C39	C	-0.280107	0.455838	0.666743
C40	C	-0.841531	-0.200352	0.000066
C41	C	-0.508197	0.132982	0.333400
C42	C	-0.174864	0.466315	0.666733
C43	C	-1.293398	-0.225878	0.000106
C44	C	-0.960064	0.107455	0.333439
C45	C	-0.626731	0.440789	0.666773
C46	C	-1.398641	-0.236355	0.000109
C47	C	-1.065308	0.096978	0.333442
C48	C	-0.731975	0.430311	0.666776
C49	C	-0.648837	-0.181197	0.000088
C50	C	-0.315503	0.152136	0.333422
C51	C	0.017830	0.485469	0.666755
C52	C	-0.591329	-0.255505	0.000087
C53	C	-0.257996	0.077828	0.333420
C54	C	0.075337	0.411161	0.666754
C55	C	-0.484108	-0.244848	0.000099
C56	C	-0.150775	0.088486	0.333433
C57	C	0.182559	0.421819	0.666766
C58	C	-0.756068	-0.191854	0.000076
C59	C	-0.422735	0.141480	0.333409
C60	C	-0.089402	0.474813	0.666743
C61	C	-1.113451	-0.386416	0.000080
C62	C	-0.780117	-0.053083	0.333413
C63	C	-0.446784	0.280250	0.666747
C64	C	-1.115494	-0.488963	0.000073
C65	C	-0.782161	-0.155629	0.333406
C66	C	-0.448828	0.177704	0.666739
N67	N	-1.120071	-0.218341	0.243632
N68	N	-0.786738	0.114993	0.576965
N69	N	-0.453405	0.448326	0.910299
C70	C	-1.117153	0.427758	0.000075
C71	C	-0.783820	0.761092	0.333409
C72	C	-0.450487	1.094425	0.666742
C73	C	-1.119243	0.323282	0.000083
C74	C	-0.785909	0.656615	0.333416
C75	C	-0.452576	0.989949	0.666750
C76	C	-1.120915	0.240010	0.000090
C77	C	-0.787582	0.573344	0.333423
C78	C	-0.454248	0.906677	0.666757
C79	C	-1.123005	0.135527	0.000096
C80	C	-0.789672	0.468861	0.333429
C81	C	-0.456338	0.802194	0.666763
N82	N	-1.120108	-0.218360	-0.243448
N83	N	-0.786775	0.114974	0.089886
N84	N	-0.453441	0.448307	0.423219
C85	C	-1.120094	-0.218360	0.663446
C86	C	-0.786760	0.114974	0.996780
C87	C	-0.453427	0.448307	1.330113
C88	C	-1.120085	-0.218357	0.546641
C89	C	-0.786751	0.114976	0.879975
C90	C	-0.453418	0.448309	1.213308
C91	C	-1.120083	-0.218351	0.453543
C92	C	-0.786750	0.114982	0.786876
C93	C	-0.453416	0.448316	1.120210
C94	C	-1.120073	-0.218347	0.336730
C95	C	-0.786740	0.114986	0.670064
C96	C	-0.453406	0.448320	1.003397
H97	H	-0.622622	-0.327127	0.000077
H98	H	-0.289289	0.006206	0.333410
H99	H	0.044045	0.339540	0.666743
F100	F	-0.607938	-0.087589	0.000098
F101	F	-0.274605	0.245745	0.333432
F102	F	0.058729	0.579078	0.666765
