data_functionalizedCrystal
_audit_creation_method	'MofGen! by Chris Wilmer'
_symmetry_space_group_name_H-M	'P1'
_symmetry_Int_Tables_number	1
_symmetry_cell_setting	triclinic
loop_
_symmetry_equiv_pos_as_xyz
  x,y,z
_cell_length_a	12.811449
_cell_length_b	12.837942
_cell_length_c	11.295483
_cell_angle_alpha	94.530417
_cell_angle_beta	99.539705
_cell_angle_gamma	90.588229
loop_
_atom_site_label
_atom_site_type_symbol
_atom_site_fract_x
_atom_site_fract_y
_atom_site_fract_z
O1	O	-1.422916	0.121944	-0.252690
O2	O	-1.116721	0.139454	-0.219625
O3	O	-1.263028	-0.020181	-0.235417
O4	O	-1.276608	0.281579	-0.236898
O5	O	-1.250176	-0.006181	-0.035979
O6	O	-1.103869	0.153454	-0.020187
O7	O	-1.410063	0.135944	-0.053252
Cu8	Cu	-1.255792	0.145977	-0.018509
Cu9	Cu	-1.270992	0.129421	-0.254368
O10	O	-1.263756	0.295579	-0.037460
C11	C	-1.070831	0.145902	-0.115644
C12	C	-0.953241	0.144245	-0.102946
C13	C	-0.780497	0.149540	0.023658
C14	C	-0.890983	0.151098	0.011732
C15	C	-0.905004	0.135836	-0.205707
C16	C	-0.794518	0.134277	-0.193781
C17	C	-0.732268	0.141128	-0.079095
C18	C	-0.621780	0.139563	-0.067170
C19	C	-0.635803	0.124308	-0.284608
C20	C	-0.746289	0.125866	-0.296534
C21	C	-1.252015	-0.051786	-0.135203
C22	C	-1.238334	-0.166818	-0.133728
C23	C	-1.402809	-0.408321	-0.151513
C24	C	-1.389959	-0.516404	-0.150128
C25	C	-1.199786	-0.491072	-0.129580
C26	C	-1.212636	-0.382988	-0.130965
C27	C	-1.314150	-0.341617	-0.141931
C28	C	-1.326999	-0.233531	-0.143308
C29	C	-1.136827	-0.208201	-0.122768
C30	C	-1.123977	-0.316284	-0.121382
C31	C	-0.455953	0.129496	-0.157232
C32	C	-0.573543	0.131154	-0.169931
C33	C	-1.274769	0.327184	-0.137676
C34	C	-1.288451	0.442216	-0.139159
N35	N	-1.245109	0.157621	0.147380
N36	N	-1.281682	0.117769	-0.420258
C37	C	-1.358579	0.033891	0.384422
C38	C	-1.350514	0.042698	0.509957
C39	C	-1.220909	0.184036	0.523986
C40	C	-1.228974	0.175229	0.398452
C41	C	-1.297813	0.100155	0.328674
C42	C	-1.305883	0.091354	0.203137
C43	C	-1.176273	0.232687	0.217169
C44	C	-1.168208	0.241493	0.342703
H45	H	-0.729811	0.155124	0.117040
H46	H	-1.409656	-0.199848	-0.152232
H47	H	-0.571097	0.145148	0.026213
H48	H	-1.126796	0.286646	0.171764
H49	H	-0.796988	0.120292	-0.389908
C50	C	-1.514466	-0.362808	-0.163565
H51	H	-1.565429	-0.418016	-0.169077
H52	H	-1.518946	-0.316291	-0.094984
H53	H	-1.527914	-0.326051	-0.234090
C54	C	-1.487483	-0.589775	-0.160662
H55	H	-1.549777	-0.549651	-0.167382
H56	H	-1.490904	-0.637346	-0.230095
H57	H	-1.481942	-0.627583	-0.090990
C58	C	-1.417360	-0.030190	0.571276
H59	H	-1.459515	-0.076155	0.511735
H60	H	-1.371829	-0.069785	0.624837
H61	H	-1.461995	0.010407	0.615072
C62	C	-1.092496	0.324072	0.419463
H63	H	-1.096400	0.319832	0.502211
H64	H	-1.022110	0.311580	0.406652
H65	H	-1.112288	0.391759	0.396891
H66	H	-0.930246	0.157951	0.095405
H67	H	-1.041327	-0.349985	-0.112459
C68	C	-1.088133	-0.536594	-0.117520
H69	H	-1.093183	-0.610518	-0.118062
H70	H	-1.055644	-0.518554	-0.183070
H71	H	-1.046692	-0.508804	-0.043965
H72	H	-0.596523	0.117462	-0.368277
C73	C	-0.973491	0.128296	-0.331847
H74	H	-1.046199	0.130423	-0.324227
H75	H	-0.956291	0.185319	-0.374362
H76	H	-0.960245	0.064476	-0.374767
C77	C	-1.039299	-0.134825	-0.112236
H78	H	-1.061488	-0.064528	-0.114640
H79	H	-0.993641	-0.142456	-0.038243
H80	H	-1.002611	-0.152214	-0.177349
H81	H	-1.414638	-0.027230	0.327608
C82	C	-1.381596	0.008774	0.126384
H83	H	-1.416622	-0.029436	0.177571
H84	H	-1.432521	0.042487	0.072239
H85	H	-1.342345	-0.037694	0.082005
H86	H	-1.164855	0.245152	0.580815
