data_functionalizedCrystal
_audit_creation_method	'MofGen! by Chris Wilmer'
_symmetry_space_group_name_H-M	'P1'
_symmetry_Int_Tables_number	1
_symmetry_cell_setting	triclinic
loop_
_symmetry_equiv_pos_as_xyz
  x,y,z
_cell_length_a	13.897448
_cell_length_b	12.759401
_cell_length_c	12.759393
_cell_angle_alpha	90.020566
_cell_angle_beta	89.967728
_cell_angle_gamma	89.984099
loop_
_atom_site_label
_atom_site_type_symbol
_atom_site_fract_x
_atom_site_fract_y
_atom_site_fract_z
Zn1	Zn	-0.384014	-1.606244	-0.593997
Zn2	Zn	0.115986	-1.106244	-0.093997
Zn3	Zn	-0.545341	-1.606126	-0.418311
Zn4	Zn	-0.045341	-1.106126	0.081689
Zn5	Zn	-0.384056	-1.430543	-0.418333
Zn6	Zn	0.115944	-0.930543	0.081667
Zn7	Zn	-0.545264	-1.430526	-0.593950
Zn8	Zn	-0.045264	-0.930526	-0.093950
O9	O	-0.464669	-1.518360	-0.506148
O10	O	0.035331	-1.018360	-0.006148
O11	O	-0.405429	-1.753250	-0.570702
O12	O	0.094571	-1.253250	-0.070702
O13	O	-0.523996	-1.582793	-0.271293
O14	O	-0.023996	-1.082793	0.228707
O15	O	-0.249069	-1.453907	-0.441664
O16	O	0.250931	-0.953907	0.058336
O17	O	-0.523955	-1.753163	-0.441627
O18	O	-0.023955	-1.253163	0.058373
O19	O	-0.249038	-1.582994	-0.570723
O20	O	0.250962	-1.082994	-0.070723
O21	O	-0.405501	-1.453793	-0.271309
O22	O	0.094499	-0.953793	0.228691
O23	O	-0.405426	-1.283520	-0.441618
O24	O	0.094574	-0.783520	0.058382
O25	O	-0.523824	-1.453878	-0.740977
O26	O	-0.023824	-0.953878	-0.240977
O27	O	-0.523865	-1.283507	-0.570643
O28	O	-0.023865	-0.783507	-0.070643
O29	O	-0.405355	-1.582977	-0.741012
O30	O	0.094645	-1.082977	-0.241012
O31	O	-0.680312	-1.582776	-0.441581
O32	O	-0.180312	-1.082776	0.058419
O33	O	-0.680256	-1.453763	-0.570622
O34	O	-0.180256	-0.953763	-0.070622
C35	C	-0.464643	-1.245393	-0.506129
C36	C	0.035357	-0.745393	-0.006129
C37	C	-0.464655	-1.128616	-0.506145
C38	C	0.035345	-0.628616	-0.006145
C39	C	-0.403048	-1.073800	-0.573458
C40	C	0.096952	-0.573800	-0.073458
C41	C	-0.403054	-0.964076	-0.573463
C42	C	0.096946	-0.464076	-0.073463
C43	C	-0.526282	-0.963994	-0.438841
C44	C	-0.026282	-0.463994	0.061159
C45	C	-0.526270	-1.073716	-0.438831
C46	C	-0.026270	-0.573716	0.061169
C47	C	-0.715283	-1.518283	-0.506117
C48	C	-0.215283	-1.018283	-0.006117
C49	C	-0.822497	-1.518347	-0.506139
C50	C	-0.322497	-1.018347	-0.006139
C51	C	-1.018792	-1.518457	-0.506205
C52	C	-0.518792	-1.018457	-0.006205
C53	C	-0.909560	-1.518393	-0.506172
C54	C	-0.409560	-1.018393	-0.006172
C55	C	-0.213076	-1.518466	-0.506201
C56	C	0.286924	-1.018466	-0.006201
C57	C	-0.105862	-1.518511	-0.506224
C58	C	0.394138	-1.018511	-0.006224
C59	C	-0.464576	-1.518439	-0.780181
C60	C	0.035424	-1.018439	-0.280181
C61	C	-0.464537	-1.518472	-0.896958
C62	C	0.035463	-1.018472	-0.396958
C63	C	-0.464687	-0.792393	-0.506164
C64	C	0.035313	-0.292393	-0.006164
C65	C	-0.464672	-0.909170	-0.506160
C66	C	0.035328	-0.409170	-0.006160
C67	C	-0.402840	-1.585699	-0.951839
C68	C	0.097160	-1.085699	-0.451839
C69	C	-0.402798	-1.585717	-1.061564
C70	C	0.097202	-1.085717	-0.561564
C71	C	-0.526159	-1.451278	-1.061515
C72	C	-0.026159	-0.951278	-0.561515
C73	C	-0.526195	-1.451255	-0.951793
C74	C	-0.026195	-0.951255	-0.451793
C75	C	-0.464691	-1.518342	-0.233180
C76	C	0.035309	-1.018342	0.266820
C77	C	-0.464459	-1.518512	-0.116404
C78	C	0.035541	-1.018512	0.383596
H79	H	-0.352886	-0.919449	-0.628274
H80	H	0.147114	-0.419449	-0.128274
Br81	Br	-0.319070	-1.676966	-1.136042
Br82	Br	0.180930	-1.176966	-0.636042
H83	H	-0.352873	-1.118496	-0.628266
H84	H	0.147127	-0.618496	-0.128266
H85	H	-0.576448	-0.919281	-0.384037
H86	H	-0.076448	-0.419281	0.115963
Br87	Br	-0.609872	-1.148116	-0.347457
Br88	Br	-0.109872	-0.648116	0.152543
Br89	Br	-0.319160	-1.676919	-0.877424
Br90	Br	0.180840	-1.176919	-0.377424
H91	H	-0.576361	-1.396554	-1.106175
H92	H	-0.076361	-0.896554	-0.606175
Br93	Br	-0.609924	-1.360002	-0.877303
Br94	Br	-0.109924	-0.860002	-0.377303
