data_functionalizedCrystal
_audit_creation_method	'MofGen! by Chris Wilmer'
_symmetry_space_group_name_H-M	'P1'
_symmetry_Int_Tables_number	1
_symmetry_cell_setting	triclinic
loop_
_symmetry_equiv_pos_as_xyz
  x,y,z
_cell_length_a	11.792241
_cell_length_b	17.699104
_cell_length_c	16.176319
_cell_angle_alpha	89.991696
_cell_angle_beta	90.001799
_cell_angle_gamma	96.257534
loop_
_atom_site_label
_atom_site_type_symbol
_atom_site_fract_x
_atom_site_fract_y
_atom_site_fract_z
O1	O	-0.143640	1.004834	-0.068754
O2	O	-0.162288	0.784558	-0.068751
O3	O	0.012270	0.900041	-0.068758
O4	O	-0.318198	0.889350	-0.068748
O5	O	0.012281	0.900025	0.068736
O6	O	-0.162277	0.784542	0.068742
O7	O	-0.143628	1.004818	0.068739
Cu8	Cu	-0.152952	0.894678	0.081295
Cu9	Cu	-0.152965	0.894697	-0.081307
O10	O	-0.318187	0.889334	0.068746
C11	C	-0.161610	0.756349	-0.000004
C12	C	-0.159593	0.672321	-0.000003
C13	C	-0.250682	0.147936	-0.000009
C14	C	-0.252570	0.226890	-0.000012
C15	C	-0.150098	0.274961	-0.000015
C16	C	-0.045731	0.244075	-0.000024
C17	C	-0.043844	0.165122	-0.000027
C18	C	-0.053338	0.562481	-0.000010
C19	C	-0.055233	0.641439	-0.000004
C20	C	-0.262065	0.624249	0.000005
C21	C	-0.260178	0.545296	0.000002
C22	C	-0.155811	0.514417	-0.000012
C23	C	-0.153765	0.428806	-0.000011
C24	C	-0.152143	0.360570	-0.000010
C25	C	-0.360475	0.890014	0.000000
C26	C	-0.486465	0.892024	0.000004
C27	C	-0.717133	0.895720	-0.000017
C28	C	-0.588773	0.893667	-0.000006
C29	C	0.054559	0.899362	-0.000014
C30	C	0.180549	0.897352	-0.000023
C31	C	-0.144306	1.033027	-0.000010
C32	C	-0.146323	1.117055	-0.000016
N33	N	-0.152942	0.894671	0.195660
N34	N	-0.152966	0.894711	-0.195672
C35	C	-0.075679	0.945823	0.238921
C36	C	-0.075678	0.945826	0.325468
C37	C	-0.152946	0.894681	0.368753
C38	C	-0.230212	0.843524	0.325485
C39	C	-0.230207	0.843517	0.238940
C40	C	-0.230233	0.843550	0.674514
C41	C	-0.230235	0.843562	0.761065
C42	C	-0.075704	0.945859	0.761042
C43	C	-0.075699	0.945852	0.674497
C44	C	-0.152961	0.894693	0.631237
C45	C	-0.152960	0.894688	0.537393
C46	C	-0.152953	0.894689	0.462595
H47	H	0.037704	0.283221	-0.000031
C48	C	-0.372905	0.492421	0.000011
N49	N	-0.457814	0.452597	0.000017
C50	C	0.009345	1.002079	0.373052
N51	N	0.073398	1.044445	0.408891
H52	H	-0.347045	0.649399	0.000013
H53	H	0.041136	0.139981	-0.000034
H54	H	-0.012784	0.987502	0.639257
C55	C	-0.315197	0.787257	0.373101
N56	N	-0.379210	0.744875	0.408965
H57	H	-0.293158	0.801911	0.796306
H58	H	-0.293145	0.801895	0.639298
H59	H	0.028217	0.680578	-0.000009
H60	H	-0.012789	0.987514	0.796273
H61	H	-0.293121	0.801863	0.203717
H62	H	-0.012763	0.987474	0.203685
C63	C	-0.363412	0.095064	-0.000004
N64	N	-0.448324	0.055242	-0.000004
H65	H	-0.337550	0.252029	-0.000014
H66	H	0.031643	0.537350	-0.000019
