data_functionalizedCrystal
_audit_creation_method	'MofGen! by Chris Wilmer'
_symmetry_space_group_name_H-M	'P1'
_symmetry_Int_Tables_number	1
_symmetry_cell_setting	triclinic
loop_
_symmetry_equiv_pos_as_xyz
  x,y,z
_cell_length_a	16.120530
_cell_length_b	19.121063
_cell_length_c	16.120297
_cell_angle_alpha	95.179432
_cell_angle_beta	90.128140
_cell_angle_gamma	89.687057
loop_
_atom_site_label
_atom_site_type_symbol
_atom_site_fract_x
_atom_site_fract_y
_atom_site_fract_z
Zn1	Zn	1.228532	-0.355748	-0.551587
Zn2	Zn	1.229542	-0.467532	-0.417878
Zn3	Zn	1.097153	-0.343883	-0.404937
Zn4	Zn	1.083532	-0.466885	-0.549816
O5	O	1.159690	-0.408512	-0.481054
O6	O	1.344754	-0.375813	-0.540007
O7	O	1.218103	-0.446434	-0.299571
O8	O	1.119859	-0.247198	-0.419716
O9	O	1.345496	-0.457940	-0.441771
O10	O	1.216382	-0.255916	-0.527458
O11	O	1.120838	-0.355590	-0.290063
O12	O	0.979258	-0.354963	-0.417999
O13	O	1.096644	-0.456838	-0.666641
O14	O	0.969251	-0.445332	-0.524441
O15	O	1.203175	-0.375186	-0.667942
O16	O	1.204895	-0.565705	-0.440054
O17	O	1.097623	-0.565230	-0.536989
C18	C	0.944155	-0.398790	-0.469624
C19	C	0.851946	-0.394649	-0.464754
C20	C	1.149912	-0.590946	-0.489753
C21	C	1.145804	-0.668997	-0.493506
C22	C	0.683119	-0.387072	-0.455870
C23	C	0.637096	-0.430006	-0.506302
C24	C	0.543155	-0.425790	-0.501358
C25	C	0.777068	-0.391287	-0.460812
C26	C	1.199763	-0.705893	-0.444847
C27	C	1.195904	-0.779230	-0.448382
C28	C	1.138080	-0.815670	-0.500573
C29	C	1.084118	-0.778769	-0.549237
C30	C	1.087982	-0.705433	-0.545706
C31	C	1.123621	-1.037085	-0.513761
C32	C	1.119760	-1.110426	-0.517287
C33	C	1.231547	-1.110882	-0.416433
C34	C	1.235403	-1.037545	-0.412903
C35	C	1.181443	-1.000650	-0.461570
C36	C	1.134132	-0.890632	-0.504185
C37	C	1.185396	-0.925690	-0.457962
C38	C	1.376067	-0.418272	-0.492530
C39	C	1.468274	-0.422431	-0.497420
C40	C	1.148278	-0.417263	-0.698367
C41	C	1.143414	-0.420993	-0.790973
C42	C	1.169527	-0.225367	-0.472341
C43	C	1.173720	-0.147322	-0.468628
C44	C	1.134506	-0.427785	-0.960523
C45	C	1.185049	-0.389036	-1.002436
C46	C	1.180092	-0.392815	-1.096780
C47	C	1.139461	-0.424006	-0.866171
C48	C	1.171108	-0.399746	-0.264587
C49	C	1.176143	-0.395826	-0.171981
H50	H	0.668246	-0.469929	-0.553190
C51	C	0.641700	-0.333884	-0.393221
C52	C	0.666213	-0.346663	-0.312566
C53	C	0.628073	-0.297679	-0.254832
H54	H	0.583161	-0.338045	-0.398053
H55	H	0.657752	-0.287823	-0.403930
H56	H	0.650156	-0.392713	-0.301860
H57	H	0.724746	-0.342497	-0.307707
H58	H	0.644125	-0.251617	-0.265541
H59	H	0.569536	-0.301843	-0.259671
H60	H	0.644705	-0.306338	-0.200101
H61	H	1.072682	-1.140094	-0.559802
C62	C	1.071769	-0.475823	-1.006992
C63	C	1.026096	-0.510823	-0.949782
C64	C	0.968292	-0.555076	-0.992569
H65	H	1.100023	-0.509235	-1.044088
H66	H	1.035272	-0.448681	-1.037718
H67	H	1.062587	-0.537964	-0.919070
H68	H	0.997824	-0.477428	-0.912684
H69	H	0.931796	-0.527934	-1.023295
H70	H	0.996553	-0.588484	-1.029664
H71	H	0.937291	-0.578824	-0.953759
C72	C	1.290041	-1.150896	-0.363460
C73	C	1.277302	-1.128986	-0.279197
C74	C	1.331169	-1.165839	-0.230376
H75	H	1.345796	-1.141864	-0.377969
H76	H	1.279455	-1.199795	-0.372983
H77	H	1.287895	-1.080098	-0.269679
H78	H	1.221559	-1.138019	-0.264662
H79	H	1.320583	-1.214737	-0.239898
H80	H	1.386920	-1.156804	-0.244892
H81	H	1.322528	-1.150982	-0.173198
H82	H	1.246846	-0.676228	-0.402345
H83	H	1.044044	-0.675393	-0.585330
H84	H	1.087051	-0.920309	-0.546677
C85	C	1.247619	-0.340896	-0.955856
C86	C	1.232189	-0.271436	-0.972663
C87	C	1.289804	-0.227071	-0.929760
H88	H	1.302107	-0.354155	-0.973489
H89	H	1.242668	-0.344652	-0.897712
H90	H	1.237147	-0.267683	-1.030794
H91	H	1.177712	-0.258155	-0.955027
H92	H	1.284853	-0.230827	-0.871616
H93	H	1.344288	-0.240336	-0.947396
H94	H	1.279338	-0.179936	-0.941151
H95	H	1.239843	-0.809268	-0.408758
H96	H	1.282487	-1.007877	-0.370405
H97	H	1.079684	-1.007051	-0.553387
H98	H	1.037040	-0.808444	-0.591735
H99	H	1.232479	-0.896019	-0.415471
