data_functionalizedCrystal
_audit_creation_method	'MofGen! by Chris Wilmer'
_symmetry_space_group_name_H-M	'P1'
_symmetry_Int_Tables_number	1
_symmetry_cell_setting	triclinic
loop_
_symmetry_equiv_pos_as_xyz
  x,y,z
_cell_length_a	18.101398
_cell_length_b	21.295416
_cell_length_c	18.101389
_cell_angle_alpha	90.020092
_cell_angle_beta	89.975673
_cell_angle_gamma	89.974402
loop_
_atom_site_label
_atom_site_type_symbol
_atom_site_fract_x
_atom_site_fract_y
_atom_site_fract_z
Zn1	Zn	1.132125	0.250755	-0.418830
Zn2	Zn	1.465458	0.584088	-0.085497
Zn3	Zn	1.798792	0.917421	0.247837
Zn4	Zn	1.132023	0.356008	-0.294985
Zn5	Zn	1.465356	0.689342	0.038348
Zn6	Zn	1.798689	1.022675	0.371682
Zn7	Zn	1.008284	0.250748	-0.294991
Zn8	Zn	1.341617	0.584081	0.038342
Zn9	Zn	1.674951	0.917415	0.371675
Zn10	Zn	1.008236	0.355981	-0.418774
Zn11	Zn	1.341570	0.689315	-0.085440
Zn12	Zn	1.674903	1.022648	0.247893
O13	O	1.070167	0.303373	-0.356895
O14	O	1.403500	0.636706	-0.023562
O15	O	1.736834	0.970040	0.309772
O16	O	1.235744	0.264731	-0.402423
O17	O	1.569078	0.598064	-0.069089
O18	O	1.902411	0.931397	0.264244
O19	O	1.115585	0.342054	-0.191353
O20	O	1.448919	0.675387	0.141980
O21	O	1.782252	1.008720	0.475314
O22	O	1.024774	0.162660	-0.311445
O23	O	1.358108	0.495993	0.021888
O24	O	1.691441	0.829326	0.355222
O25	O	1.235669	0.342060	-0.311434
O26	O	1.569002	0.675393	0.021899
O27	O	1.902336	1.008727	0.355232
O28	O	1.115760	0.162664	-0.402429
O29	O	1.449093	0.495998	-0.069096
O30	O	1.782427	0.829331	0.264238
O31	O	1.024675	0.264720	-0.191357
O32	O	1.358008	0.598053	0.141976
O33	O	1.691342	0.931386	0.475309
O34	O	0.904645	0.264694	-0.311390
O35	O	1.237978	0.598027	0.021943
O36	O	1.571311	0.931360	0.355276
O37	O	1.024693	0.342014	-0.522414
O38	O	1.358027	0.675348	-0.189081
O39	O	1.691360	1.008681	0.144253
O40	O	0.904610	0.342008	-0.402332
O41	O	1.237943	0.675341	-0.068999
O42	O	1.571276	1.008675	0.264334
O43	O	1.115714	0.264705	-0.522456
O44	O	1.449047	0.598038	-0.189122
O45	O	1.782380	0.931371	0.144211
O46	O	1.115539	0.444094	-0.311379
O47	O	1.448873	0.777427	0.021954
O48	O	1.782206	1.110761	0.355287
O49	O	1.024594	0.444074	-0.402326
O50	O	1.357927	0.777408	-0.068993
O51	O	1.691261	1.110741	0.264340
C52	C	0.877756	0.303348	-0.356856
C53	C	1.211090	0.636681	-0.023523
C54	C	1.544423	0.970014	0.309810
C55	C	0.795442	0.303352	-0.356857
C56	C	1.128776	0.636685	-0.023524
C57	C	1.462109	0.970018	0.309809
C58	C	0.496351	0.303391	-0.356920
C59	C	0.829685	0.636724	-0.023586
C60	C	1.163018	0.970058	0.309747
C61	C	0.527674	0.254504	-0.299980
C62	C	0.861007	0.587837	0.033353
C63	C	1.194340	0.921171	0.366686
C64	C	0.613292	0.254635	-0.299737
C65	C	0.946625	0.587968	0.033596
C66	C	1.279959	0.921302	0.366929
C67	C	0.644734	0.303371	-0.356889
C68	C	0.978067	0.636704	-0.023555
C69	C	1.311401	0.970038	0.309778
C70	C	0.613617	0.369679	-0.335562
C71	C	0.946950	0.703012	-0.002229
C72	C	1.280283	1.036346	0.331105
C73	C	0.527972	0.369407	-0.335166
C74	C	0.861305	0.702741	-0.001833
C75	C	1.194638	1.036074	0.331501
C76	C	0.527966	0.286547	-0.435320
C77	C	0.861299	0.619880	-0.101986
C78	C	1.194632	0.953214	0.231347
C79	C	0.613616	0.285070	-0.434892
C80	C	0.946950	0.618403	-0.101558
C81	C	1.280283	0.951737	0.231775
C82	C	0.728593	0.303364	-0.356872
C83	C	1.061927	0.636697	-0.023539
C84	C	1.395260	0.970030	0.309794
C85	C	0.412492	0.303403	-0.356934
C86	C	0.745825	0.636736	-0.023601
C87	C	1.079159	0.970069	0.309733
C88	C	1.070070	0.466925	-0.356862
C89	C	1.403404	0.800258	-0.023529
C90	C	1.736737	1.133591	0.309804
C91	C	1.070097	0.536893	-0.356873
C92	C	1.403430	0.870226	-0.023540
C93	C	1.736764	1.203559	0.309794
C94	C	1.117494	0.569749	-0.309567
C95	C	1.450828	0.903082	0.023766
C96	C	1.784161	1.236416	0.357100
C97	C	1.117529	0.635491	-0.309587
C98	C	1.450863	0.968825	0.023746
C99	C	1.784196	1.302158	0.357080
C100	C	1.070154	0.668375	-0.356905
C101	C	1.403487	1.001709	-0.023572
C102	C	1.736820	1.335042	0.309761
C103	C	1.022753	0.635511	-0.404220
C104	C	1.356086	0.968845	-0.070887
C105	C	1.689420	1.302178	0.262446
C106	C	1.022725	0.569770	-0.404204
C107	C	1.356058	0.903103	-0.070871
C108	C	1.689391	1.236437	0.262462
N109	N	1.005370	0.771637	-0.362543
N110	N	1.338703	1.104971	-0.029210
N111	N	1.672036	1.438304	0.304123
N112	N	1.005399	0.834089	-0.362554
N113	N	1.338732	1.167422	-0.029221
N114	N	1.672065	1.500755	0.304113
C115	C	1.070237	0.866450	-0.356958
C116	C	1.403571	1.199783	-0.023624
C117	C	1.736904	1.533117	0.309709
N118	N	1.135047	0.834001	-0.351335
N119	N	1.468380	1.167334	-0.018002
N120	N	1.801714	1.500667	0.315331
N121	N	1.135017	0.771543	-0.351321
N122	N	1.468351	1.104877	-0.017987
N123	N	1.801684	1.438210	0.315346
C124	C	1.070179	0.739661	-0.356928
C125	C	1.403513	1.072994	-0.023595
C126	C	1.736846	1.406327	0.309738
C127	C	1.117676	0.970592	-0.309671
C128	C	1.451010	1.303925	0.023662
C129	C	1.784343	1.637258	0.356996
C130	C	1.117713	1.036335	-0.309696
C131	C	1.451046	1.369669	0.023637
C132	C	1.784379	1.703002	0.356970
C133	C	1.022930	1.036354	-0.404326
C134	C	1.356263	1.369687	-0.070992
C135	C	1.689596	1.703021	0.262341
C136	C	1.022900	0.970612	-0.404304
C137	C	1.356234	1.303945	-0.070971
C138	C	1.689567	1.637278	0.262362
C139	C	1.070273	0.937734	-0.356973
C140	C	1.403606	1.271068	-0.023640
C141	C	1.736939	1.604401	0.309694
C142	C	1.263329	0.303399	-0.356934
C143	C	1.596662	0.636733	-0.023601
C144	C	1.929995	0.970066	0.309732
C145	C	1.345643	0.303410	-0.356951
C146	C	1.678976	0.636744	-0.023618
C147	C	2.012310	0.970077	0.309716
C148	C	1.070285	1.139183	-0.356957
C149	C	1.403618	1.472516	-0.023623
C150	C	1.736952	1.805849	0.309710
C151	C	1.070337	1.069215	-0.357016
C152	C	1.403671	1.402548	-0.023682
C153	C	1.737004	1.735881	0.309651
C154	C	1.070210	0.303357	-0.550057
C155	C	1.403543	0.636690	-0.216724
C156	C	1.736876	0.970024	0.116610
C157	C	1.070228	0.303350	-0.632371
C158	C	1.403561	0.636684	-0.299038
C159	C	1.736895	0.970017	0.034296
C160	C	1.070271	0.303232	-0.931462
C161	C	1.403604	0.636566	-0.598129
C162	C	1.736938	0.969899	-0.264796
C163	C	1.012806	0.351719	-0.900111
C164	C	1.346140	0.685052	-0.566778
C165	C	1.679473	1.018385	-0.233444
C166	C	1.012962	0.351944	-0.814493
C167	C	1.346295	0.685277	-0.481159
C168	C	1.679628	1.018610	-0.147826
C169	C	1.070249	0.303291	-0.783080
C170	C	1.403582	0.636624	-0.449746
C171	C	1.736916	0.969958	-0.116413
C172	C	1.148275	0.321303	-0.814185
C173	C	1.481608	0.654636	-0.480851
C174	C	1.814941	0.987970	-0.147518
C175	C	1.147955	0.321621	-0.899830
C176	C	1.481288	0.654955	-0.566496
C177	C	1.814621	0.988288	-0.233163
C178	C	1.050389	0.236626	-0.899889
C179	C	1.383722	0.569959	-0.566555
C180	C	1.717055	0.903293	-0.233222
C181	C	1.048653	0.237011	-0.814238
C182	C	1.381986	0.570344	-0.480904
C183	C	1.715319	0.903677	-0.147571
C184	C	1.070241	0.303323	-0.699220
C185	C	1.403575	0.636656	-0.365887
C186	C	1.736908	0.969990	-0.032553
C187	C	1.070284	0.303202	-1.015322
C188	C	1.403617	0.636535	-0.681988
C189	C	1.736951	0.969869	-0.348655
C190	C	1.070167	0.303344	-0.164484
C191	C	1.403500	0.636677	0.168849
C192	C	1.736834	0.970010	0.502182
C193	C	1.070292	0.303173	-0.082171
C194	C	1.403626	0.636506	0.251163
C195	C	1.736959	0.969840	0.584496
H196	H	0.634332	0.205465	-0.313106
H197	H	0.967665	0.538798	0.020228
H198	H	1.300998	0.872131	0.353561
H199	H	0.633746	0.265769	-0.241644
H200	H	0.967079	0.599103	0.091690
H201	H	1.300412	0.932436	0.425023
H202	H	1.156069	0.542982	-0.271029
H203	H	1.489403	0.876315	0.062304
H204	H	1.822736	1.209649	0.395637
H205	H	0.506125	0.265512	-0.242225
H206	H	0.839458	0.598846	0.091109
H207	H	1.172791	0.932179	0.424442
H208	H	1.087453	0.198968	-0.792855
H209	H	1.420786	0.532301	-0.459522
H210	H	1.754120	0.865634	-0.126188
N211	N	0.974315	0.536206	-0.452537
N212	N	1.307648	0.869539	-0.119204
N213	N	1.640981	1.202873	0.214129
N214	N	0.979195	0.543510	-0.520879
N215	N	1.312528	0.876843	-0.187546
N216	N	1.645861	1.210177	0.145787
H217	H	0.945005	0.519805	-0.555016
H218	H	1.278338	0.853138	-0.221683
H219	H	1.611671	1.186471	0.111651
H220	H	1.026088	0.401314	-0.794008
H221	H	1.359422	0.734648	-0.460675
H222	H	1.692755	1.067981	-0.127342
N223	N	1.165936	0.669056	-0.261246
N224	N	1.499269	1.002389	0.072088
N225	N	1.832602	1.335722	0.405421
N226	N	1.161044	0.661747	-0.192905
N227	N	1.494377	0.995081	0.140428
N228	N	1.827711	1.328414	0.473762
H229	H	1.195228	0.685451	-0.158760
H230	H	1.528561	1.018784	0.174573
H231	H	1.861894	1.352118	0.507906
N232	N	0.974526	1.069926	-0.452660
N233	N	1.307860	1.403259	-0.119327
N234	N	1.641193	1.736593	0.214006
N235	N	0.932204	1.040578	-0.494891
N236	N	1.265537	1.373912	-0.161558
N237	N	1.598871	1.707245	0.171775
H238	H	0.898018	1.064290	-0.529031
H239	H	1.231352	1.397624	-0.195698
H240	H	1.564685	1.730957	0.137635
H241	H	1.156314	1.063086	-0.271176
H242	H	1.489647	1.396419	0.062158
H243	H	1.822981	1.729752	0.395491
N244	N	0.974478	0.937056	-0.452630
N245	N	1.307812	1.270389	-0.119297
N246	N	1.641145	1.603722	0.214036
N247	N	0.932184	0.966421	-0.494879
N248	N	1.265517	1.299754	-0.161545
N249	N	1.598850	1.633088	0.171788
H250	H	0.897985	0.942723	-0.529014
H251	H	1.231318	1.276056	-0.195680
H252	H	1.564652	1.609390	0.137653
N253	N	0.976638	0.219941	-0.788710
N254	N	1.309971	0.553275	-0.455377
N255	N	1.643304	0.886608	-0.122043
N256	N	0.949042	0.168536	-0.807377
N257	N	1.282376	0.501869	-0.474044
N258	N	1.615709	0.835202	-0.140710
H259	H	0.898186	0.156476	-0.789336
H260	H	1.231519	0.489810	-0.456002
H261	H	1.564852	0.823143	-0.122669
H262	H	0.507960	0.383693	-0.277852
H263	H	0.841293	0.717027	0.055482
H264	H	1.174627	1.050360	0.388815
N265	N	1.029123	0.413274	-0.927110
N266	N	1.362457	0.746607	-0.593776
N267	N	1.695790	1.079940	-0.260443
N268	N	1.090181	0.437984	-0.913208
N269	N	1.423514	0.771317	-0.579874
N270	N	1.756848	1.104651	-0.246541
H271	H	1.101710	0.481457	-0.932277
H272	H	1.435043	0.814790	-0.598944
H273	H	1.768376	1.148123	-0.265610
N274	N	1.166068	0.937013	-0.261322
N275	N	1.499402	1.270347	0.072011
N276	N	1.832735	1.603680	0.405345
N277	N	1.208390	0.966361	-0.219090
N278	N	1.541724	1.299694	0.114243
N279	N	1.875057	1.633027	0.447576
H280	H	1.242568	0.942648	-0.184942
H281	H	1.575901	1.275981	0.148391
H282	H	1.909234	1.609315	0.481724
N283	N	0.974369	0.669108	-0.452555
N284	N	1.307702	1.002441	-0.119221
N285	N	1.641035	1.335775	0.214112
N286	N	0.974399	0.727805	-0.452562
N287	N	1.307733	1.061138	-0.119229
N288	N	1.641066	1.394471	0.214104
H289	H	0.940229	0.751533	-0.486702
H290	H	1.273563	1.084866	-0.153369
H291	H	1.606896	1.418200	0.179964
N292	N	0.940376	0.337800	-0.788114
N293	N	1.273710	0.671133	-0.454781
N294	N	1.607043	1.004467	-0.121447
N295	N	0.889248	0.327694	-0.832958
N296	N	1.222582	0.661028	-0.499624
N297	N	1.555915	0.994361	-0.166291
H298	H	0.837981	0.317708	-0.814332
H299	H	1.171314	0.651041	-0.480999
H300	H	1.504647	0.984375	-0.147665
N301	N	1.102891	0.191311	-0.925339
N302	N	1.436224	0.524644	-0.592005
N303	N	1.769557	0.857977	-0.258672
N304	N	1.110788	0.181848	-0.993038
N305	N	1.444121	0.515181	-0.659705
N306	N	1.777455	0.848515	-0.326372
H307	H	1.147870	0.149848	-1.011017
H308	H	1.481203	0.483182	-0.677683
H309	H	1.814536	0.816515	-0.344350
N310	N	0.501871	0.192630	-0.316565
N311	N	0.835204	0.525963	0.016768
N312	N	1.168537	0.859297	0.350101
N313	N	0.516545	0.168161	-0.377613
N314	N	0.849878	0.501494	-0.044280
N315	N	1.183212	0.834828	0.289054
H316	H	0.498315	0.124461	-0.389328
H317	H	0.831648	0.457795	-0.055994
H318	H	1.164981	0.791128	0.277339
N319	N	0.501983	0.416652	-0.384919
N320	N	0.835316	0.749985	-0.051586
N321	N	1.168650	1.083319	0.281747
N322	N	0.547100	0.449722	-0.419820
N323	N	0.880434	0.783056	-0.086487
N324	N	1.213767	1.116389	0.246847
H325	H	0.528749	0.483092	-0.454954
H326	H	0.862083	0.816425	-0.121621
H327	H	1.195416	1.149758	0.211712
N328	N	0.940005	0.337715	-0.925933
N329	N	1.273338	0.671048	-0.592600
N330	N	1.606671	1.004382	-0.259267
N331	N	0.929619	0.291839	-0.967748
N332	N	1.262952	0.625172	-0.634414
N333	N	1.596286	0.958505	-0.301081
H334	H	0.878201	0.281948	-0.985992
H335	H	1.211535	0.615281	-0.652658
H336	H	1.544868	0.948614	-0.319325
H337	H	1.192221	0.287839	-0.920571
H338	H	1.525555	0.621173	-0.587238
H339	H	1.858888	0.954506	-0.253905
N340	N	0.639165	0.416593	-0.385964
N341	N	0.972498	0.749926	-0.052630
N342	N	1.305832	1.083259	0.280703
N343	N	0.680692	0.401645	-0.438289
N344	N	1.014025	0.734979	-0.104955
N345	N	1.347359	1.068312	0.228378
H346	H	0.698737	0.434777	-0.473887
H347	H	1.032070	0.768110	-0.140554
H348	H	1.365403	1.101444	0.192779
N349	N	1.169110	0.382697	-0.924905
N350	N	1.502444	0.716030	-0.591572
N351	N	1.835777	1.049364	-0.258238
N352	N	1.230840	0.404579	-0.907782
N353	N	1.564174	0.737912	-0.574448
N354	N	1.897507	1.071245	-0.241115
H355	H	1.245783	0.447714	-0.925489
H356	H	1.579116	0.781048	-0.592155
H357	H	1.912450	1.114381	-0.258822
N358	N	0.640484	0.387907	-0.264438
N359	N	0.973818	0.721240	0.068895
N360	N	1.307151	1.054574	0.402229
N361	N	0.682540	0.352179	-0.229334
N362	N	1.015873	0.685512	0.104000
N363	N	1.349207	1.018845	0.437333
H364	H	0.701515	0.365049	-0.179101
H365	H	1.034848	0.698382	0.154233
H366	H	1.368182	1.031715	0.487566
N367	N	1.203424	0.278389	-0.788662
N368	N	1.536758	0.611723	-0.455328
N369	N	1.870091	0.945056	-0.121995
N370	N	1.185795	0.233946	-0.747162
N371	N	1.519129	0.567280	-0.413829
N372	N	1.852462	0.900613	-0.080495
H373	H	1.224743	0.203637	-0.729135
H374	H	1.558077	0.536970	-0.395802
H375	H	1.891410	0.870303	-0.062468
H376	H	1.165421	0.369476	-0.792741
H377	H	1.498755	0.702809	-0.459407
H378	H	1.832088	1.036143	-0.126074
H379	H	0.507710	0.322155	-0.477745
H380	H	0.841043	0.655488	-0.144411
H381	H	1.174376	0.988821	0.188922
N382	N	0.500894	0.226949	-0.459640
N383	N	0.834227	0.560283	-0.126307
N384	N	1.167560	0.893616	0.207026
N385	N	0.457965	0.196163	-0.419480
N386	N	0.791298	0.529496	-0.086147
N387	N	1.124631	0.862830	0.247186
H388	H	0.438843	0.154070	-0.436649
H389	H	0.772176	0.487403	-0.103316
H390	H	1.105510	0.820737	0.230017
N391	N	0.980258	0.216032	-0.926971
N392	N	1.313592	0.549365	-0.593638
N393	N	1.646925	0.882699	-0.260305
N394	N	0.970189	0.209688	-0.994876
N395	N	1.303522	0.543022	-0.661543
N396	N	1.636855	0.876355	-0.328210
H397	H	0.920657	0.195149	-1.014005
H398	H	1.253991	0.528482	-0.680672
H399	H	1.587324	0.861815	-0.347339
H400	H	0.633960	0.236275	-0.450973
H401	H	0.967293	0.569608	-0.117640
H402	H	1.300626	0.902942	0.215694
N403	N	0.640448	0.326516	-0.490943
N404	N	0.973782	0.659849	-0.157610
N405	N	1.307115	0.993182	0.175724
N406	N	0.708322	0.331044	-0.502501
N407	N	1.041655	0.664378	-0.169167
N408	N	1.374989	0.997711	0.164166
H409	H	0.727263	0.360334	-0.542076
H410	H	1.060596	0.693668	-0.208742
H411	H	1.393930	1.027001	0.124591
