data_functionalizedCrystal
_audit_creation_method	'MofGen! by Chris Wilmer'
_symmetry_space_group_name_H-M	'P1'
_symmetry_Int_Tables_number	1
_symmetry_cell_setting	triclinic
loop_
_symmetry_equiv_pos_as_xyz
  x,y,z
_cell_length_a	6.817900
_cell_length_b	11.102288
_cell_length_c	10.773894
_cell_angle_alpha	95.422831
_cell_angle_beta	96.645922
_cell_angle_gamma	108.605689
loop_
_atom_site_label
_atom_site_type_symbol
_atom_site_fract_x
_atom_site_fract_y
_atom_site_fract_z
V1	V	-3.974360	-0.171169	-0.388944
O2	O	-3.936004	0.013031	-0.381540
O3	O	-3.952076	-0.344021	-0.386284
O4	O	-3.891317	-0.166427	-0.558576
O5	O	-3.997183	-0.165792	-0.208056
V6	V	-4.459093	-0.149386	-0.367309
O7	O	-4.232965	-0.218952	-0.436404
O8	O	-4.650687	-0.101602	-0.319849
O9	O	-4.258172	0.023467	-0.369968
O10	O	-4.614847	-0.333586	-0.374713
O11	O	-4.553667	-0.154762	-0.548197
O12	O	-4.318930	-0.154127	-0.197677
C13	C	-3.804550	-0.386225	-0.380149
C14	C	-3.867386	-0.527520	-0.379104
C15	C	-3.727046	-0.159684	-0.599922
C16	C	-3.740605	-0.156951	-0.738597
C17	C	-4.078719	-0.600299	-0.384837
C18	C	-4.137749	-0.733063	-0.383866
C19	C	-3.774091	-0.720254	-0.371423
C20	C	-3.715066	-0.587494	-0.372404
C21	C	-3.919395	-0.161688	-0.806460
C22	C	-3.933414	-0.158863	-0.949788
C23	C	-4.069041	0.065663	-0.376101
C24	C	-3.985442	0.206958	-0.377153
C25	C	-4.146546	-0.160874	-0.156324
C26	C	-4.112224	-0.163601	-0.017648
H27	H	-4.202751	-0.551472	-0.390292
H28	H	-3.650086	-0.769101	-0.365965
Cl29	Cl	-4.139716	-0.171184	-0.732347
Cl30	Cl	-3.713078	-0.149363	-1.023894
H31	H	-3.597910	-0.150796	-0.786607
H32	H	-4.309833	-0.792315	-0.388537
H33	H	-3.542968	-0.528236	-0.367739
Cl34	Cl	-4.332546	-0.173065	-0.943539
