data_functionalizedCrystal
_audit_creation_method	'MofGen! by Chris Wilmer'
_symmetry_space_group_name_H-M	'P1'
_symmetry_Int_Tables_number	1
_symmetry_cell_setting	triclinic
loop_
_symmetry_equiv_pos_as_xyz
  x,y,z
_cell_length_a	17.699083
_cell_length_b	10.654550
_cell_length_c	16.776229
_cell_angle_alpha	89.994543
_cell_angle_beta	89.998886
_cell_angle_gamma	83.883959
loop_
_atom_site_label
_atom_site_type_symbol
_atom_site_fract_x
_atom_site_fract_y
_atom_site_fract_z
O1	O	1.005088	0.158809	-0.066174
O2	O	0.784841	0.179470	-0.066200
O3	O	0.900029	-0.013689	-0.066184
O4	O	0.889901	0.351967	-0.066191
O5	O	0.900013	-0.013700	0.066393
O6	O	0.784826	0.179458	0.066376
O7	O	1.005073	0.158797	0.066402
Zn8	Zn	0.894947	0.169126	0.087439
Zn9	Zn	0.894967	0.169141	-0.087237
O10	O	0.889885	0.351955	0.066386
C11	C	0.756632	0.178724	0.000085
C12	C	0.672599	0.176503	0.000075
C13	C	0.624699	0.289883	0.000073
C14	C	0.545743	0.287788	0.000083
C15	C	0.514688	0.172313	0.000090
C16	C	0.562594	0.058924	0.000094
C17	C	0.641549	0.061020	0.000090
C18	C	0.244177	0.050470	0.000114
C19	C	0.165216	0.048383	0.000116
C20	C	0.148371	0.277239	0.000108
C21	C	0.227326	0.279334	0.000103
C22	C	0.275225	0.165946	0.000112
C23	C	0.360839	0.168219	0.000102
C24	C	0.429076	0.170039	0.000094
C25	C	0.899277	-0.060479	0.000103
C26	C	0.897052	-0.199884	0.000100
C27	C	0.964873	-0.280557	0.000111
C28	C	0.962778	-0.411541	0.000105
C29	C	0.825036	-0.381166	0.000082
C30	C	0.827132	-0.250185	0.000082
C31	C	1.034794	-0.230256	0.000129
C32	C	1.102620	-0.310930	0.000141
C33	C	1.100525	-0.441914	0.000135
C34	C	1.030603	-0.492224	0.000118
C35	C	1.033282	0.159543	0.000115
C36	C	1.117314	0.161764	0.000120
C37	C	0.890637	0.398746	0.000097
C38	C	0.892861	0.538151	0.000095
N39	N	0.894938	0.169114	0.206650
N40	N	0.894981	0.169143	-0.206448
C41	C	0.945959	0.083619	0.248374
C42	C	0.945963	0.083618	0.331826
C43	C	0.894950	0.169119	0.373553
C44	C	0.843923	0.254619	0.331822
C45	C	0.843916	0.254613	0.248372
C46	C	0.843951	0.254643	0.668370
C47	C	0.843964	0.254645	0.751826
C48	C	0.945998	0.083648	0.751824
C49	C	0.945991	0.083642	0.668374
C50	C	0.894962	0.169137	0.626651
C51	C	0.894957	0.169135	0.536162
C52	C	0.894958	0.169128	0.464040
H53	H	0.506745	0.380114	0.000081
C54	C	0.787844	0.348693	0.797728
H55	H	0.795165	0.336458	0.853403
H56	H	0.737262	0.335153	0.784064
H57	H	0.796498	0.432496	0.784043
C58	C	0.787811	0.348671	0.377719
H59	H	0.795127	0.336440	0.433396
H60	H	0.737228	0.335140	0.364053
H61	H	0.796472	0.432469	0.364031
C62	C	1.028296	-0.636303	0.000106
H63	H	0.976942	-0.654708	0.000093
H64	H	1.053252	-0.671557	0.046339
H65	H	1.053261	-0.671527	-0.046131
H66	H	1.036507	-0.123604	0.000137
H67	H	1.159547	-0.269958	0.000135
C68	C	0.752531	-0.161440	0.000072
H69	H	0.710589	-0.210155	0.000072
H70	H	0.750495	-0.109708	-0.046161
H71	H	0.750480	-0.109719	0.046309
H72	H	0.802369	0.324230	0.214401
C73	C	1.002122	-0.010409	0.797722
H74	H	0.994817	0.001826	0.853398
H75	H	1.052701	0.003125	0.784039
H76	H	0.993460	-0.094209	0.784050
H77	H	0.649978	0.383916	0.000067
C78	C	0.748130	-0.436506	0.000073
H79	H	0.756596	-0.526068	0.000082
H80	H	0.720179	-0.408798	-0.046162
H81	H	0.720174	-0.408805	0.046309
C82	C	0.787828	0.348694	0.622485
H83	H	0.757456	0.399624	0.659290
H84	H	0.756083	0.303589	0.589939
H85	H	0.815327	0.400917	0.589924
H86	H	1.155752	-0.507596	0.000136
H87	H	0.252606	0.373366	0.000094
H88	H	0.987503	0.013999	0.214406
H89	H	0.987508	0.014000	0.365798
H90	H	0.680549	-0.031306	0.000091
C91	C	1.002103	-0.010413	0.622479
H92	H	1.032486	-0.061341	0.659281
H93	H	1.033840	0.034690	0.589914
H94	H	0.974595	-0.062637	0.589936
C95	C	0.131053	-0.078643	0.000126
H96	H	0.077170	-0.063646	0.000118
H97	H	0.147451	-0.125320	0.046361
H98	H	0.147454	-0.125316	-0.046110
C99	C	0.296856	-0.074252	0.000118
H100	H	0.267051	-0.143321	0.000114
H101	H	0.328008	-0.078200	0.046350
H102	H	0.328006	-0.078191	-0.046121
H103	H	0.537303	-0.035099	0.000111
H104	H	0.109361	0.369564	0.000105
