data_functionalizedCrystal
_audit_creation_method	'MofGen! by Chris Wilmer'
_symmetry_space_group_name_H-M	'P1'
_symmetry_Int_Tables_number	1
_symmetry_cell_setting	triclinic
loop_
_symmetry_equiv_pos_as_xyz
  x,y,z
_cell_length_a	14.519709
_cell_length_b	17.766277
_cell_length_c	19.288865
_cell_angle_alpha	89.988397
_cell_angle_beta	83.408197
_cell_angle_gamma	89.996257
loop_
_atom_site_label
_atom_site_type_symbol
_atom_site_fract_x
_atom_site_fract_y
_atom_site_fract_z
O1	O	1.223296	-0.062505	0.091051
O2	O	1.723296	0.437495	0.591051
O3	O	0.954751	-0.062529	0.101773
O4	O	1.454751	0.437471	0.601773
O5	O	1.096783	-0.062502	-0.004690
O6	O	1.596783	0.437498	0.495310
O7	O	1.081264	-0.062533	0.197514
O8	O	1.581264	0.437467	0.697514
O9	O	1.096759	0.062687	-0.004696
O10	O	1.596759	0.562687	0.495304
O11	O	0.954726	0.062659	0.101768
O12	O	1.454726	0.562659	0.601768
O13	O	1.223271	0.062683	0.091045
O14	O	1.723271	0.562683	0.591045
Cu15	Cu	1.088997	0.074102	0.096406
Cu16	Cu	1.588997	0.574102	0.596406
Cu17	Cu	1.089026	-0.073948	0.096413
Cu18	Cu	1.589026	0.426052	0.596413
O19	O	1.081239	0.062656	0.197509
O20	O	1.581239	0.562656	0.697509
C21	C	0.920382	0.000062	0.101271
C22	C	1.420382	0.500062	0.601271
C23	C	0.818010	0.000054	0.099773
C24	C	1.318010	0.500054	0.599773
N25	N	1.088983	0.178232	0.096401
N26	N	1.588983	0.678232	0.596401
N27	N	1.089047	-0.178078	0.096412
N28	N	1.589047	0.321922	0.596412
C29	C	0.443150	0.000089	0.094261
C30	C	0.943150	0.500089	0.594261
C31	C	0.547448	0.000079	0.095792
C32	C	1.047448	0.500079	0.595792
C33	C	0.630577	0.000070	0.097017
C34	C	1.130577	0.500070	0.597017
C35	C	0.734882	0.000062	0.098548
C36	C	1.234882	0.500062	0.598548
C37	C	1.257640	0.000090	0.091548
C38	C	1.757640	0.500090	0.591548
C39	C	1.360012	0.000094	0.093045
C40	C	1.860012	0.500094	0.593045
C41	C	1.096272	0.000095	-0.030571
C42	C	1.596272	0.500095	0.469429
C43	C	1.094773	0.000101	-0.107680
C44	C	1.594773	0.500101	0.392320
C45	C	1.151895	0.217631	0.049282
C46	C	1.651895	0.717631	0.549282
C47	C	1.151900	0.296433	0.049279
C48	C	1.651900	0.796433	0.549279
C49	C	1.089002	0.335833	0.096407
C50	C	1.589002	0.835833	0.596407
C51	C	1.026078	0.296424	0.143529
C52	C	1.526078	0.796424	0.643529
C53	C	1.026069	0.217624	0.143526
C54	C	1.526069	0.717624	0.643526
C55	C	1.076656	0.460660	0.159650
C56	C	1.576656	0.960660	0.659650
C57	C	1.076672	0.539459	0.159654
C58	C	1.576672	1.039459	0.659654
C59	C	1.089027	0.578879	0.096415
C60	C	1.589027	1.078879	0.596415
C61	C	1.101385	0.539491	0.033170
C62	C	1.601385	1.039491	0.533170
C63	C	1.101375	0.460690	0.033167
C64	C	1.601375	0.960690	0.533167
C65	C	1.089005	0.421279	0.096415
C66	C	1.589005	0.921279	0.596415
C67	C	1.151948	0.703724	0.049289
C68	C	1.651948	1.203724	0.549289
C69	C	1.151947	0.782528	0.049285
C70	C	1.651947	1.282528	0.549285
C71	C	1.026129	0.782517	0.143541
C72	C	1.526129	1.282517	0.643541
C73	C	1.026126	0.703715	0.143539
C74	C	1.526126	1.203715	0.643539
C75	C	1.089040	0.664324	0.096414
C76	C	1.589040	1.164324	0.596414
C77	C	1.178111	0.000112	-0.152077
C78	C	1.678111	0.500112	0.347923
C79	C	1.176702	0.000100	-0.224529
C80	C	1.676702	0.500100	0.275471
C81	C	1.091951	0.000092	-0.252581
C82	C	1.591951	0.500092	0.247419
C83	C	1.008602	0.000077	-0.208175
C84	C	1.508602	0.500077	0.291825
C85	C	1.010013	0.000081	-0.135725
C86	C	1.510013	0.500081	0.364275
C87	C	1.025318	0.043937	-0.361110
C88	C	1.525318	0.543937	0.138890
C89	C	1.023911	0.043937	-0.433560
C90	C	1.523911	0.543937	0.066440
C91	C	1.087597	0.000075	-0.476043
C92	C	1.587597	0.500075	0.023957
C93	C	1.152705	-0.043778	-0.446068
C94	C	1.652705	0.456222	0.053932
C95	C	1.154116	-0.043773	-0.373618
C96	C	1.654116	0.456227	0.126382
C97	C	1.090412	0.000087	-0.331141
C98	C	1.590412	0.500087	0.168859
C99	C	1.169414	0.000072	-0.599000
C100	C	1.669414	0.500072	-0.099000
C101	C	1.168002	0.000055	-0.671454
C102	C	1.668002	0.500055	-0.171454
C103	C	0.999899	0.000040	-0.655098
C104	C	1.499899	0.500040	-0.155098
C105	C	1.001314	0.000049	-0.582647
C106	C	1.501314	0.500049	-0.082647
C107	C	1.086073	0.000069	-0.554602
C108	C	1.586073	0.500069	-0.054602
C109	C	1.081751	0.000058	0.223390
C110	C	1.581751	0.500058	0.723390
C111	C	1.083250	0.000046	0.300499
C112	C	1.583250	0.500046	0.800499
H113	H	1.203121	0.185561	0.010909
H114	H	1.703121	0.685561	0.510909
H115	H	1.238430	0.000085	-0.576166
H116	H	1.738430	0.500085	-0.076166
H117	H	1.203174	0.671650	0.010914
H118	H	1.703174	1.171650	0.510914
H119	H	0.942147	0.000073	-0.099576
H120	H	1.442147	0.500073	0.400424
Br121	Br	1.242468	-0.103288	-0.332939
Br122	Br	1.742468	0.396712	0.167061
Br123	Br	1.289812	0.000112	-0.284793
Br124	Br	1.789812	0.500112	0.215207
H125	H	1.203132	0.328518	0.010908
H126	H	1.703132	0.828518	0.510908
H127	H	0.974864	0.328507	0.181900
H128	H	1.474864	0.828507	0.681900
H129	H	0.974837	0.185544	0.181897
H130	H	1.474837	0.685544	0.681897
Br131	Br	1.059980	0.407170	0.245484
Br132	Br	1.559980	0.907170	0.745484
Br133	Br	1.293141	0.000118	-0.114019
Br134	Br	1.793141	0.500118	0.385981
Br135	Br	1.118137	0.407236	-0.052660
Br136	Br	1.618137	0.907236	0.447340
H137	H	1.235869	0.000060	-0.707601
H138	H	1.735869	0.500060	-0.207601
H139	H	1.203175	0.814607	0.010911
H140	H	1.703175	1.314607	0.510911
H141	H	1.066615	0.571523	0.211151
H142	H	1.566615	1.071523	0.711151
Br143	Br	1.239144	-0.103309	-0.503714
Br144	Br	1.739144	0.396691	-0.003714
Br145	Br	0.884878	0.000021	-0.693161
Br146	Br	1.384878	0.500021	-0.193161
H147	H	0.933451	0.000044	-0.546498
H148	H	1.433451	0.500044	-0.046498
H149	H	0.970892	0.079640	-0.457959
H150	H	1.470892	0.579640	0.042041
H151	H	0.973455	0.079659	-0.326526
H152	H	1.473455	0.579659	0.173474
H153	H	1.111445	0.571585	-0.018325
H154	H	1.611445	1.071585	0.481675
Br155	Br	0.940757	0.835981	0.207493
Br156	Br	1.440757	1.335981	0.707493
Br157	Br	0.893582	0.000056	-0.246244
Br158	Br	1.393582	0.500056	0.253756
H159	H	0.974901	0.671634	0.181910
H160	H	1.474901	1.171634	0.681910
