data_functionalizedCrystal
_audit_creation_method	'MofGen! by Chris Wilmer'
_symmetry_space_group_name_H-M	'P1'
_symmetry_Int_Tables_number	1
_symmetry_cell_setting	triclinic
loop_
_symmetry_equiv_pos_as_xyz
  x,y,z
_cell_length_a	11.026607
_cell_length_b	10.489741
_cell_length_c	9.482900
_cell_angle_alpha	99.430409
_cell_angle_beta	78.636152
_cell_angle_gamma	96.562595
loop_
_atom_site_label
_atom_site_type_symbol
_atom_site_fract_x
_atom_site_fract_y
_atom_site_fract_z
O1	O	1.633618	0.519526	-0.120902
O2	O	1.279780	0.458584	-0.120903
O3	O	1.464749	0.305229	-0.120894
O4	O	1.448649	0.672881	-0.120911
O5	O	1.427179	0.336539	0.120897
O6	O	1.242210	0.489894	0.120887
O7	O	1.596048	0.550836	0.120889
Cu8	Cu	1.415698	0.523224	0.142965
Cu9	Cu	1.460129	0.486196	-0.142980
O10	O	1.411079	0.704190	0.120879
C11	C	1.215686	0.462996	-0.000008
C12	C	1.080679	0.429482	-0.000008
C13	C	1.007683	0.522021	-0.000014
C14	C	0.868146	0.487384	-0.000014
C15	C	1.444748	0.273085	0.000000
C16	C	1.441110	0.130655	-0.000002
C17	C	1.323420	0.036624	-0.000013
C18	C	1.360492	-0.027831	0.119202
C19	C	1.397561	-0.058669	-0.119184
C20	C	1.478215	0.068088	0.119312
C21	C	1.515284	0.037242	-0.119182
C22	C	1.552438	-0.027163	0.000063
C23	C	1.660143	0.546423	-0.000010
C24	C	1.795151	0.579936	-0.000019
C25	C	1.431080	0.736334	-0.000018
C26	C	1.434720	0.878763	-0.000025
N27	N	1.384457	0.549268	0.344084
N28	N	1.491380	0.460144	-0.344099
C29	C	1.450906	0.493869	0.416286
C30	C	1.424922	0.515551	0.583703
H31	H	0.827348	0.382504	-0.000046
H32	H	0.835951	0.684814	-0.000014
H33	H	1.039876	0.324608	-0.000041
C34	C	1.192679	0.074977	0.000140
C35	C	1.085746	0.049662	0.126439
C36	C	0.955008	0.088018	0.126599
C37	C	0.931203	0.151690	0.000461
C38	C	1.038139	0.177009	-0.125847
C39	C	1.168877	0.138652	-0.126008
H40	H	1.103365	0.002525	0.219822
H41	H	0.875847	0.069275	0.220102
H42	H	0.834423	0.180084	0.000580
H43	H	1.020520	0.224146	-0.219231
H44	H	1.248038	0.157395	-0.219510
H45	H	1.308326	0.612742	0.406210
H46	H	1.527029	0.430383	0.354162
H47	H	1.567508	0.396654	0.593781
H48	H	1.295034	-0.056746	0.219990
H49	H	1.048490	0.626890	-0.000010
C50	C	1.524246	0.142162	0.255629
C51	C	1.440644	0.234988	0.365025
C52	C	1.486669	0.309064	0.501342
C53	C	1.616295	0.290314	0.528264
C54	C	1.699905	0.197484	0.418866
C55	C	1.653880	0.123408	0.282548
H56	H	1.344680	0.248872	0.345098
H57	H	1.424775	0.377783	0.582326
H58	H	1.650366	0.345149	0.629175
H59	H	1.795869	0.183600	0.438792
H60	H	1.715775	0.054689	0.201564
C61	C	1.683262	-0.065149	0.000146
C62	C	1.706609	-0.130692	0.125129
C63	C	1.837430	-0.168677	0.125221
C64	C	1.944904	-0.141119	0.000331
C65	C	1.921560	-0.075573	-0.124662
C66	C	1.790739	-0.037588	-0.124754
H67	H	1.627047	-0.151095	0.217589
H68	H	1.854710	-0.217199	0.217749
H69	H	2.041746	-0.169238	0.000399
H70	H	2.001122	-0.055170	-0.217122
H71	H	1.773460	0.010934	-0.217282
C72	C	1.351426	-0.132956	-0.255344
C73	C	1.221304	-0.115194	-0.281498
C74	C	1.175158	-0.189477	-0.417648
C75	C	1.259135	-0.281521	-0.527645
C76	C	1.389265	-0.299287	-0.501494
C77	C	1.435411	-0.225004	-0.365343
H78	H	1.159132	-0.047054	-0.200069
H79	H	1.078826	-0.176325	-0.437006
H80	H	1.224975	-0.336509	-0.628431
H81	H	1.451437	-0.367427	-0.582923
H82	H	1.531743	-0.238156	-0.345985
H83	H	1.580702	0.066180	-0.219975
H84	H	1.348785	0.579029	0.645823
