data_functionalizedCrystal
_audit_creation_method	'MofGen! by Chris Wilmer'
_symmetry_space_group_name_H-M	'P1'
_symmetry_Int_Tables_number	1
_symmetry_cell_setting	triclinic
loop_
_symmetry_equiv_pos_as_xyz
  x,y,z
_cell_length_a	14.560432
_cell_length_b	14.560438
_cell_length_c	14.560438
_cell_angle_alpha	59.999258
_cell_angle_beta	90.000577
_cell_angle_gamma	59.997309
loop_
_atom_site_label
_atom_site_type_symbol
_atom_site_fract_x
_atom_site_fract_y
_atom_site_fract_z
Zr1	Zr	0.884707	1.005312	-0.120522
O2	O	0.738046	1.196928	-0.267178
O3	O	0.929674	0.813701	-0.075561
O4	O	0.929662	1.005314	-0.267169
O5	O	0.738058	1.005311	0.075571
O6	O	1.080803	1.005312	-0.267165
O7	O	0.738058	1.005314	-0.075570
O8	O	1.080824	0.662550	0.075586
O9	O	0.738037	1.348073	-0.267181
O10	O	1.061637	0.892510	-0.056386
O11	O	0.948842	0.892510	0.056405
O12	O	0.948828	1.118110	-0.169188
O13	O	0.836034	1.118110	-0.056396
Zr14	Zr	1.125759	1.005304	0.120537
Zr15	Zr	1.125759	1.005308	-0.120516
Zr16	Zr	0.884707	1.005308	0.120530
Zr17	Zr	0.884692	1.246372	-0.120526
Zr18	Zr	1.125774	0.764244	0.120541
O19	O	1.080792	1.196916	0.075576
O20	O	1.080791	1.196922	-0.267169
O21	O	0.738046	1.196922	0.075567
O22	O	1.272420	0.813689	0.267193
O23	O	1.272419	0.813695	-0.075553
O24	O	0.929674	0.813695	0.267184
O25	O	1.272407	1.005305	-0.075556
O26	O	1.080804	1.005302	0.267184
O27	O	0.929663	1.005305	0.267180
O28	O	1.272408	1.005302	0.075585
O29	O	0.929641	1.348070	-0.267176
O30	O	1.080824	0.662546	0.267191
O31	O	1.272429	0.662543	0.267195
O32	O	1.272429	0.662547	0.075591
O33	O	0.738037	1.348070	-0.075576
O34	O	0.929641	1.348067	-0.075571
O35	O	1.061637	0.892506	0.169203
O36	O	1.174432	0.892506	0.056411
O37	O	1.061623	1.118107	-0.056391
O38	O	0.948829	1.118106	0.056401
C39	C	1.005251	0.703779	0.000013
C40	C	1.005257	0.601443	0.000015
C41	C	1.088492	0.373948	0.083274
C42	C	1.088519	0.470084	0.083280
C43	C	0.921969	0.636668	-0.083268
C44	C	0.921948	0.540533	-0.083277
C45	C	0.703713	1.005313	-0.000000
C46	C	0.601380	1.005315	-0.000003
C47	C	0.601356	1.005334	-0.166547
C48	C	0.553266	1.005348	-0.249819
C49	C	0.457116	1.005347	-0.249815
C50	C	0.409056	1.005329	-0.166529
C51	C	0.457146	1.005316	-0.083257
C52	C	0.553295	1.005320	-0.083272
C53	C	0.457175	1.005288	0.083289
C54	C	0.553320	1.005297	0.083283
C55	C	0.409114	1.005270	0.166576
C56	C	0.457199	1.005265	0.249845
C57	C	0.553354	1.005267	0.249837
C58	C	0.601409	1.005283	0.166555
C59	C	1.306752	1.005303	0.000015
C60	C	1.409085	1.005302	0.000018
C61	C	1.005232	1.005314	-0.301512
C62	C	1.005232	1.005315	-0.403845
C63	C	1.005214	1.306837	0.000002
C64	C	1.005208	1.409173	-0.000000
C65	C	1.088497	1.005315	-0.451919
C66	C	1.088500	1.005303	-0.548065
C67	C	0.921964	1.005297	-0.548058
C68	C	0.921967	1.005300	-0.451909
C69	C	1.005233	1.005303	0.301527
C70	C	1.005233	1.005301	0.403860
C71	C	1.306771	0.703774	0.000021
C72	C	1.409110	0.601436	0.000025
C73	C	1.005252	0.703774	0.301533
C74	C	1.005258	0.601436	0.403867
C75	C	1.306771	0.703769	0.301540
C76	C	1.409111	0.601429	0.403878
C77	C	0.703694	1.306848	-0.301526
C78	C	0.601355	1.409187	-0.403863
C79	C	0.703695	1.306842	-0.000006
C80	C	0.601356	1.409180	-0.000011
C81	C	1.005214	1.306843	-0.301518
C82	C	1.005208	1.409180	-0.403853
C83	C	1.398314	0.553357	-0.058849
C84	C	1.494477	0.457208	-0.058849
C85	C	1.612227	0.457221	0.058910
C86	C	1.516066	0.553376	0.058902
C87	C	1.064138	0.553354	0.510824
C88	C	1.064131	0.457205	0.606974
C89	C	0.946363	0.457227	0.489199
C90	C	0.946364	0.553380	0.393050
C91	C	1.516067	0.553348	0.393083
C92	C	1.612222	0.457197	0.489244
C93	C	1.494450	0.457214	0.606991
C94	C	1.398297	0.553370	0.510831
H95	H	0.854126	0.569227	-0.151095
Cl96	Cl	0.396784	1.005231	0.354541
Cl97	Cl	1.746682	0.396757	0.475666
H98	H	1.156298	1.005325	-0.412787
H99	H	0.898416	0.418086	0.480405
H100	H	0.854162	1.005296	-0.412762
Cl101	Cl	1.529664	0.613771	0.258631
Cl102	Cl	0.817289	1.005286	-0.608488
Cl103	Cl	1.138151	0.396766	0.741433
H104	H	1.485659	0.418071	0.694082
Cl105	Cl	0.872330	0.613838	0.258580
H106	H	1.156338	0.441391	0.151089
H107	H	1.156303	1.005301	-0.587203
Cl108	Cl	0.613806	1.005239	0.354533
H109	H	1.311230	0.592497	-0.106802
Cl110	Cl	0.722279	1.005292	0.166533
Cl111	Cl	0.288244	1.005260	0.166588
H112	H	1.485677	0.418068	-0.106792
H113	H	1.699320	0.418077	0.106847
H114	H	1.524865	0.592525	0.106845
H115	H	1.112088	0.592483	0.519638
H116	H	0.679638	1.005350	-0.166567
Cl117	Cl	1.193166	0.208814	0.187961
Cl118	Cl	0.817299	0.801807	-0.187947
H119	H	1.311202	0.592522	0.519629
H120	H	0.330774	1.005313	-0.166523
Cl121	Cl	0.396665	1.005355	-0.354496
Cl122	Cl	0.613689	1.005364	-0.354514
