data_functionalizedCrystal
_audit_creation_method	'MofGen! by Chris Wilmer'
_symmetry_space_group_name_H-M	'P1'
_symmetry_Int_Tables_number	1
_symmetry_cell_setting	triclinic
loop_
_symmetry_equiv_pos_as_xyz
  x,y,z
_cell_length_a	14.519731
_cell_length_b	19.188930
_cell_length_c	12.996460
_cell_angle_alpha	89.980533
_cell_angle_beta	89.992872
_cell_angle_gamma	83.416816
loop_
_atom_site_label
_atom_site_type_symbol
_atom_site_fract_x
_atom_site_fract_y
_atom_site_fract_z
O1	O	0.115136	0.926562	-0.085900
O2	O	0.130635	0.723307	-0.085830
O3	O	-0.011385	0.830316	-0.085857
O4	O	0.257156	0.819554	-0.085872
O5	O	-0.011393	0.830305	0.085276
O6	O	0.130627	0.723296	0.085304
O7	O	0.115128	0.926551	0.085234
Cu8	Cu	0.122877	0.824923	0.100895
Cu9	Cu	0.122886	0.824936	-0.101491
O10	O	0.257148	0.819542	0.085261
C11	C	0.130129	0.697289	-0.000254
C12	C	0.128623	0.619779	-0.000227
C13	C	0.211955	0.575156	-0.000248
C14	C	0.210540	0.502327	-0.000259
C15	C	0.125787	0.474124	-0.000270
C16	C	0.042443	0.518756	-0.000243
C17	C	0.043861	0.591584	-0.000222
N18	N	0.061006	0.365913	-0.058552
N19	N	0.059665	0.296730	-0.058575
C20	C	0.121510	0.254700	-0.000333
N21	N	0.184760	0.284466	0.057920
N22	N	0.186104	0.353655	0.057938
C23	C	0.124240	0.395156	-0.000293
C24	C	0.203313	0.131108	-0.000364
C25	C	0.201894	0.058278	-0.000369
C26	C	0.033795	0.074708	-0.000364
C27	C	0.035217	0.147537	-0.000349
C28	C	0.119978	0.175732	-0.000354
C29	C	-0.045745	0.829806	-0.000290
C30	C	-0.148116	0.828295	-0.000289
C31	C	-0.231253	0.827067	-0.000291
C32	C	-0.335552	0.825533	-0.000298
C33	C	-0.418683	0.824315	-0.000304
C34	C	-0.522989	0.822781	-0.000310
C35	C	0.291508	0.820052	-0.000308
C36	C	0.393879	0.821563	-0.000316
N37	N	0.122870	0.824918	0.243242
C38	C	0.115634	0.952570	-0.000344
C39	C	0.117141	1.030080	-0.000378
N40	N	0.122886	0.824946	-0.243838
C41	C	0.122887	0.824935	0.663056
C42	C	0.122885	0.824928	0.546251
C43	C	0.122879	0.824927	0.453153
C44	C	0.122876	0.824920	0.336340
H45	H	0.269757	0.021946	-0.000380
O46	O	-0.039967	0.491479	-0.000213
C47	C	-0.206545	0.515460	-0.000268
C48	C	-0.113278	0.546443	-0.000283
H49	H	-0.265842	0.559883	-0.000347
H50	H	-0.211479	0.481772	0.071355
H51	H	-0.211356	0.481779	-0.071884
H52	H	-0.108405	0.580155	0.071284
H53	H	-0.108384	0.580091	-0.071954
H54	H	-0.024001	0.627916	-0.000205
O55	O	-0.045708	0.190917	-0.000161
C56	C	-0.141643	0.282677	0.088485
C57	C	-0.049967	0.233578	0.088410
H58	H	-0.145107	0.317191	0.160076
H59	H	-0.202501	0.250048	0.088539
H60	H	-0.145161	0.317175	0.016841
H61	H	-0.046359	0.199069	0.160042
H62	H	0.010847	0.266248	0.088302
O63	O	0.285727	0.158386	-0.000313
C64	C	0.452305	0.134405	-0.000378
C65	C	0.359038	0.103422	-0.000412
H66	H	0.511602	0.089982	-0.000480
H67	H	0.457230	0.168042	0.071265
H68	H	0.457126	0.168137	-0.071974
H69	H	0.354155	0.069658	0.071135
H70	H	0.354154	0.069825	-0.072102
H71	H	-0.035212	0.051746	-0.000437
H72	H	0.280975	0.598108	-0.000254
O73	O	0.291578	0.459071	-0.000334
C74	C	0.458456	0.450454	-0.000308
C75	C	0.366751	0.499519	-0.000242
H76	H	0.519257	0.483137	-0.000212
H77	H	0.462048	0.415991	-0.071958
H78	H	0.461948	0.415903	0.071280
H79	H	0.363198	0.534114	-0.071782
H80	H	0.363197	0.533935	0.071456
