data_functionalizedCrystal
_audit_creation_method	'MofGen! by Chris Wilmer'
_symmetry_space_group_name_H-M	'P1'
_symmetry_Int_Tables_number	1
_symmetry_cell_setting	triclinic
loop_
_symmetry_equiv_pos_as_xyz
  x,y,z
_cell_length_a	21.295419
_cell_length_b	25.639240
_cell_length_c	21.295412
_cell_angle_alpha	89.964267
_cell_angle_beta	89.976510
_cell_angle_gamma	90.047559
loop_
_atom_site_label
_atom_site_type_symbol
_atom_site_fract_x
_atom_site_fract_y
_atom_site_fract_z
Zn1	Zn	0.962339	-0.207957	-0.355889
Zn2	Zn	1.462339	0.292043	0.144111
Zn3	Zn	0.962239	-0.295391	-0.250605
Zn4	Zn	1.462239	0.204609	0.249395
Zn5	Zn	0.857064	-0.207994	-0.250634
Zn6	Zn	1.357064	0.292006	0.249366
Zn7	Zn	0.857028	-0.295386	-0.355837
Zn8	Zn	1.357028	0.204614	0.144163
O9	O	0.909668	-0.251682	-0.303241
O10	O	1.409668	0.248318	0.196759
O11	O	1.050415	-0.219542	-0.341933
O12	O	1.550415	0.280458	0.158067
O13	O	0.948261	-0.283815	-0.162520
O14	O	1.448261	0.216185	0.337480
O15	O	0.871086	-0.134824	-0.264630
O16	O	1.371086	0.365176	0.235370
O17	O	1.050342	-0.283780	-0.264581
O18	O	1.550342	0.216220	0.235419
O19	O	0.948431	-0.134797	-0.341961
O20	O	1.448431	0.365203	0.158039
O21	O	0.870990	-0.219605	-0.162541
O22	O	1.370990	0.280395	0.337459
O23	O	0.768970	-0.219600	-0.264580
O24	O	1.268970	0.280400	0.235420
O25	O	0.871024	-0.283771	-0.443933
O26	O	1.371024	0.216229	0.056067
O27	O	0.768943	-0.283807	-0.341872
O28	O	1.268943	0.216193	0.158128
O29	O	0.948396	-0.219537	-0.443972
O30	O	1.448396	0.280463	0.056028
O31	O	0.948226	-0.368556	-0.264530
O32	O	1.448226	0.131444	0.235470
O33	O	0.870927	-0.368552	-0.341844
O34	O	1.370927	0.131448	0.158156
C35	C	0.746116	-0.251707	-0.303224
C36	C	1.246116	0.248293	0.196776
C37	C	0.676148	-0.251731	-0.303231
C38	C	1.176148	0.248269	0.196769
C39	C	0.643342	-0.218337	-0.343570
C40	C	1.143342	0.281663	0.156430
C41	C	0.577599	-0.218323	-0.343573
C42	C	1.077599	0.281677	0.156427
C43	C	0.544665	-0.251712	-0.303242
C44	C	1.044665	0.248288	0.196758
C45	C	0.577479	-0.285108	-0.262895
C46	C	1.077479	0.214892	0.237105
C47	C	0.643221	-0.285117	-0.262890
C48	C	1.143221	0.214883	0.237110
N49	N	0.441388	-0.297459	-0.298318
N50	N	0.941388	0.202541	0.201682
N51	N	0.378936	-0.297448	-0.298327
N52	N	0.878936	0.202552	0.201673
C53	C	0.346591	-0.251685	-0.303256
C54	C	0.846591	0.248315	0.196744
N55	N	0.379056	-0.205931	-0.308189
N56	N	0.879056	0.294069	0.191811
N57	N	0.441513	-0.205942	-0.308183
N58	N	0.941513	0.294058	0.191817
C59	C	0.473380	-0.251705	-0.303244
C60	C	0.973380	0.248295	0.196756
C61	C	0.242499	-0.218273	-0.343600
C62	C	0.742499	0.281727	0.156400
C63	C	0.176755	-0.218258	-0.343598
C64	C	0.676755	0.281742	0.156402
C65	C	0.176637	-0.285048	-0.262924
C66	C	0.676637	0.214952	0.237076
C67	C	0.242379	-0.285058	-0.262923
C68	C	0.742379	0.214942	0.237077
C69	C	0.275306	-0.251671	-0.303264
C70	C	0.775306	0.248329	0.196736
C71	C	0.909579	-0.387525	-0.303192
C72	C	1.409579	0.112475	0.196808
C73	C	0.909598	-0.445639	-0.303192
C74	C	1.409598	0.054361	0.196808
C75	C	0.949961	-0.805949	-0.343580
C76	C	1.449961	-0.305949	0.156420
C77	C	0.949980	-0.860554	-0.343593
C78	C	1.449980	-0.360554	0.156407
O79	O	0.984192	-0.888746	-0.377881
O80	O	1.484192	-0.388746	0.122119
N81	N	0.909755	-0.887921	-0.303302
N82	N	1.409755	-0.387921	0.196698
C83	C	0.869505	-0.860682	-0.263001
C84	C	1.369505	-0.360682	0.236999
O85	O	0.835292	-0.888974	-0.228732
O86	O	1.335292	-0.388974	0.271268
C87	C	0.869483	-0.806078	-0.262992
C88	C	1.369483	-0.306078	0.237008
C89	C	0.909715	-0.778714	-0.303280
C90	C	1.409715	-0.278714	0.196720
C91	C	0.990189	-0.778584	-0.383866
C92	C	1.490189	-0.278584	0.116134
C93	C	0.990171	-0.723984	-0.383852
C94	C	1.490171	-0.223984	0.116148
C95	C	0.949925	-0.696748	-0.343552
C96	C	1.449925	-0.196748	0.156448
C97	C	0.909697	-0.724113	-0.303266
C98	C	1.409697	-0.224113	0.196734
C99	C	0.829230	-0.778840	-0.222694
C100	C	1.329230	-0.278840	0.277306
C101	C	0.829212	-0.724233	-0.222688
C102	C	1.329212	-0.224233	0.277312
C103	C	0.869444	-0.696868	-0.262977
C104	C	1.369444	-0.196868	0.237023
C105	C	0.869433	-0.642277	-0.262953
C106	C	1.369433	-0.142277	0.237047
N107	N	0.909658	-0.614909	-0.303243
N108	N	1.409658	-0.114909	0.196757
C109	C	0.949904	-0.642145	-0.343543
C110	C	1.449904	-0.142145	0.156457
C111	C	0.869551	-0.975352	-0.263024
C112	C	1.369551	-0.475352	0.236976
C113	C	0.869575	-1.029955	-0.263029
C114	C	1.369575	-0.529955	0.236971
C115	C	0.950050	-1.029823	-0.343622
C116	C	1.450050	-0.529823	0.156378
C117	C	0.950029	-0.975219	-0.343613
C118	C	1.450029	-0.475219	0.156387
C119	C	0.909776	-0.947985	-0.303314
C120	C	1.409776	-0.447985	0.196686
C121	C	0.949864	-0.527480	-0.343511
C122	C	1.449864	-0.027480	0.156489
C123	C	0.949844	-0.472875	-0.343492
C124	C	1.449844	0.027125	0.156508
C125	C	0.869368	-0.473011	-0.262901
C126	C	1.369368	0.026989	0.237099
C127	C	0.869389	-0.527612	-0.262918
C128	C	1.369389	-0.027612	0.237082
C129	C	0.909640	-0.554845	-0.303228
C130	C	1.409640	-0.054845	0.196772
O131	O	0.835237	-0.614050	-0.228684
O132	O	1.335237	-0.114050	0.271316
O133	O	0.984106	-0.613846	-0.377812
O134	O	1.484106	-0.113846	0.122188
C135	C	1.073858	-0.251657	-0.303259
C136	C	1.573858	0.248343	0.196741
C137	C	1.143826	-0.251647	-0.303267
C138	C	1.643826	0.248353	0.196733
C139	C	0.909717	-0.251650	-0.467432
C140	C	1.409717	0.248350	0.032568
C141	C	0.909738	-0.251636	-0.537400
C142	C	1.409738	0.248364	-0.037400
C143	C	0.909774	-0.115309	-0.303305
C144	C	1.409774	0.384691	0.196695
C145	C	0.909819	-0.057195	-0.303332
C146	C	1.409819	0.442805	0.196668
C147	C	0.869513	-0.218198	-0.570268
C148	C	1.369513	0.281802	-0.070268
C149	C	0.869511	-0.218188	-0.636010
C150	C	1.369511	0.281812	-0.136010
C151	C	0.909745	-0.251611	-0.668882
C152	C	1.409745	0.248389	-0.168882
C153	C	0.949972	-0.285055	-0.636007
C154	C	1.449972	0.214945	-0.136007
C155	C	0.949969	-0.285068	-0.570265
C156	C	1.449969	0.214932	-0.070265
N157	N	0.964849	-0.255592	-0.772120
N158	N	1.464849	0.244408	-0.272120
N159	N	0.964850	-0.255577	-0.834572
N160	N	1.464850	0.244423	-0.334572
C161	C	0.909756	-0.251576	-0.866957
C162	C	1.409756	0.248424	-0.366957
N163	N	0.854659	-0.247580	-0.834532
N164	N	1.354659	0.252420	-0.334532
N165	N	0.854659	-0.247592	-0.772075
N166	N	1.354659	0.252408	-0.272075
C167	C	0.909753	-0.251601	-0.740168
C168	C	1.409753	0.248399	-0.240168
C169	C	0.869526	-0.218126	-0.971111
C170	C	1.369526	0.281874	-0.471111
C171	C	0.869523	-0.218120	-1.036854
C172	C	1.369523	0.281880	-0.536854
C173	C	0.949989	-0.284984	-1.036849
C174	C	1.449989	0.215016	-0.536849
C175	C	0.949987	-0.284993	-0.971107
C176	C	1.449987	0.215007	-0.471107
C177	C	0.909756	-0.251561	-0.938241
C178	C	1.409756	0.248439	-0.438241
C179	C	0.909655	-0.251677	-0.139690
C180	C	1.409655	0.248323	0.360310
C181	C	0.909756	-0.251543	-0.069722
C182	C	1.409756	0.248457	0.430278
H183	H	0.550884	-0.191127	-0.376421
H184	H	1.050884	0.308873	0.123579
H185	H	0.982608	-0.450596	-0.376299
H186	H	1.482608	0.049404	0.123701
H187	H	0.550660	-0.312293	-0.230058
H188	H	1.050660	0.187707	0.269942
H189	H	0.836756	-0.190956	-0.662776
H190	H	1.336756	0.309044	-0.162776
H191	H	0.269090	-0.312253	-0.230077
H192	H	0.769090	0.187747	0.269923
H193	H	0.836821	-1.052230	-0.230215
H194	H	1.336821	-0.552230	0.269785
H195	H	0.269310	-0.191084	-0.376445
H196	H	0.769310	0.308916	0.123555
H197	H	0.982750	-0.312197	-1.063613
H198	H	1.482750	0.187803	-0.563613
H199	H	0.982730	-0.312269	-0.662775
H200	H	1.482730	0.187731	-0.162775
H201	H	0.982635	-0.549647	-0.376339
H202	H	1.482635	-0.049647	0.123661
H203	H	0.982727	-0.312297	-0.543505
H204	H	1.482727	0.187703	-0.043505
H205	H	0.982744	-0.312221	-0.944346
H206	H	1.482744	0.187779	-0.444346
H207	H	0.836602	-0.450827	-0.230088
H208	H	1.336602	0.049173	0.269912
H209	H	0.836762	-0.190892	-1.063614
H210	H	1.336762	0.309108	-0.563614
H211	H	0.670147	-0.191150	-0.376419
H212	H	1.170147	0.308850	0.123581
H213	H	0.669931	-0.312311	-0.230040
H214	H	1.169931	0.187689	0.269960
H215	H	1.022930	-0.701707	-0.416660
H216	H	1.522930	-0.201707	0.083340
H217	H	0.836775	-0.953180	-0.230202
H218	H	1.336775	-0.453180	0.269798
H219	H	0.836634	-0.549893	-0.230107
H220	H	1.336634	-0.049893	0.269893
H221	H	0.836752	-0.190977	-0.543512
H222	H	1.336752	0.309023	-0.043512
H223	H	0.796469	-0.801111	-0.189886
H224	H	1.296469	-0.301111	0.310114
H225	H	0.150046	-0.191062	-0.376446
H226	H	0.650046	0.308938	0.123554
H227	H	0.982820	-1.052008	-0.376437
H228	H	1.482820	-0.552008	0.123563
H229	H	0.796431	-0.702061	-0.189873
H230	H	1.296431	-0.202061	0.310127
H231	H	0.149822	-0.312234	-0.230087
H232	H	0.649822	0.187766	0.269913
H233	H	0.836767	-0.190904	-0.944350
H234	H	1.336767	0.309096	-0.444350
H235	H	1.022962	-0.800754	-0.416686
H236	H	1.522962	-0.300754	0.083314
H237	H	0.982789	-0.952942	-0.376420
H238	H	1.482789	-0.452942	0.123580
