data_functionalizedCrystal
_audit_creation_method	'MofGen! by Chris Wilmer'
_symmetry_space_group_name_H-M	'P1'
_symmetry_Int_Tables_number	1
_symmetry_cell_setting	triclinic
loop_
_symmetry_equiv_pos_as_xyz
  x,y,z
_cell_length_a	14.853558
_cell_length_b	11.792241
_cell_length_c	13.330367
_cell_angle_alpha	89.995231
_cell_angle_beta	89.992972
_cell_angle_gamma	83.912275
loop_
_atom_site_label
_atom_site_type_symbol
_atom_site_fract_x
_atom_site_fract_y
_atom_site_fract_z
O1	O	1.196951	0.148131	-0.083412
O2	O	1.696951	0.648131	0.416588
O3	O	0.934559	0.165794	-0.083416
O4	O	1.434559	0.665794	0.416584
O5	O	1.072122	-0.008248	-0.083407
O6	O	1.572122	0.491752	0.416593
O7	O	1.059387	0.322173	-0.083421
O8	O	1.559387	0.822173	0.416579
O9	O	1.072102	-0.008251	0.083440
O10	O	1.572102	0.491749	0.583440
O11	O	0.934539	0.165790	0.083431
O12	O	1.434539	0.665790	0.583431
O13	O	1.196931	0.148127	0.083436
O14	O	1.696931	0.648127	0.583436
Cu15	Cu	1.065733	0.156958	0.098668
Cu16	Cu	1.565733	0.656958	0.598668
Cu17	Cu	1.065757	0.156963	-0.098648
Cu18	Cu	1.565757	0.656963	0.401352
O19	O	1.059367	0.322169	0.083426
O20	O	1.559367	0.822169	0.583426
C21	C	0.900957	0.164994	0.000007
C22	C	1.400957	0.664994	0.500007
C23	C	0.800863	0.162601	0.000005
C24	C	1.300863	0.662601	0.500005
C25	C	1.071312	-0.050535	0.000016
C26	C	1.571312	0.449465	0.500016
C27	C	1.068918	-0.176534	0.000015
C28	C	1.568918	0.323466	0.500015
C29	C	0.753850	0.161481	-0.090947
C30	C	1.253850	0.661481	0.409053
C31	C	0.753826	0.161463	0.090956
C32	C	1.253826	0.661463	0.590956
C33	C	0.659784	0.159209	0.090958
C34	C	1.159784	0.659209	0.590958
C35	C	0.612770	0.158089	0.000006
C36	C	1.112770	0.658089	0.500006
C37	C	0.659799	0.159223	-0.090948
C38	C	1.159799	0.659223	0.409052
C39	C	0.612749	0.158064	0.181910
C40	C	1.112749	0.658064	0.681910
C41	C	0.518701	0.155808	0.181915
C42	C	1.018701	0.655808	0.681915
C43	C	0.471685	0.154696	0.090962
C44	C	0.971685	0.654696	0.590962
C45	C	0.518719	0.155832	0.000005
C46	C	1.018719	0.655832	0.500005
C47	C	0.471706	0.154712	-0.090947
C48	C	0.971706	0.654712	0.409053
C49	C	0.518738	0.155855	-0.181906
C50	C	1.018738	0.655855	0.318094
C51	C	0.612783	0.158112	-0.181901
C52	C	1.112783	0.658112	0.318099
C53	C	0.377640	0.152440	0.090957
C54	C	0.877640	0.652440	0.590957
C55	C	0.377655	0.152454	-0.090949
C56	C	0.877655	0.652454	0.409051
C57	C	1.064515	-0.407219	-0.000001
C58	C	1.564515	0.092781	0.499999
C59	C	1.066961	-0.278849	0.000008
C60	C	1.566961	0.221151	0.500008
C61	C	1.230533	0.148927	0.000010
C62	C	1.730533	0.648927	0.500010
C63	C	1.330626	0.151320	0.000005
C64	C	1.830626	0.651320	0.500005
C65	C	1.060177	0.364457	0.000001
C66	C	1.560177	0.864457	0.500001
C67	C	1.062572	0.490455	-0.000005
C68	C	1.562572	0.990455	0.499995
N69	N	1.065723	0.156954	0.237449
N70	N	1.565723	0.656954	0.737449
N71	N	1.065774	0.156958	-0.237430
N72	N	1.565774	0.656958	0.262570
C73	C	1.004841	0.233998	0.710068
C74	C	1.504841	0.733998	1.210068
C75	C	1.126697	0.079919	0.710044
C76	C	1.626697	0.579919	1.210044
C77	C	1.126687	0.079915	0.605026
C78	C	1.626687	0.579915	1.105026
C79	C	1.065753	0.156955	0.552524
C80	C	1.565753	0.656955	1.052524
C81	C	1.004830	0.233999	0.605040
C82	C	1.504830	0.733999	1.105040
C83	C	1.187614	0.002881	0.552502
C84	C	1.687614	0.502881	1.052502
C85	C	1.187607	0.002875	0.447477
C86	C	1.687607	0.502875	0.947477
C87	C	1.126669	0.079911	0.394973
C88	C	1.626669	0.579911	0.894973
C89	C	1.065743	0.156957	0.447496
C90	C	1.565743	0.656957	0.947496
C91	C	1.004810	0.233997	0.394993
C92	C	1.504810	0.733997	0.894993
C93	C	0.943879	0.311039	0.447514
C94	C	1.443879	0.811039	0.947514
C95	C	0.943892	0.311035	0.552536
C96	C	1.443892	0.811035	1.052536
C97	C	1.126656	0.079914	0.289951
C98	C	1.626656	0.579914	0.789951
C99	C	1.004800	0.233998	0.289965
C100	C	1.504800	0.733998	0.789965
H101	H	0.339382	0.151549	-0.165014
H102	H	0.839382	0.651549	0.334986
F103	F	0.662844	0.159317	-0.278697
F104	F	1.162844	0.659317	0.221303
H105	H	0.955229	0.296721	0.752833
H106	H	1.455229	0.796721	1.252833
F107	F	0.803864	0.162652	0.187748
F108	F	1.303864	0.662652	0.687748
F109	F	0.879037	0.393035	0.391626
F110	F	1.379037	0.893035	0.891626
F111	F	1.252466	-0.079101	0.608378
F112	F	1.752466	0.420899	1.108378
F113	F	1.191504	-0.002067	0.234062
F114	F	1.691504	0.497933	0.734062
F115	F	0.939940	0.315992	0.234096
F116	F	1.439940	0.815992	0.734096
F117	F	0.803904	0.162700	-0.187747
F118	F	1.303904	0.662700	0.312253
F119	F	0.662788	0.159257	0.278700
F120	F	1.162788	0.659257	0.778700
H121	H	0.480416	0.154876	0.255979
H122	H	0.980416	0.654876	0.755979
F123	F	1.252452	-0.079120	0.391588
F124	F	1.752452	0.420880	0.891588
H125	H	0.339349	0.151519	0.165015
H126	H	0.839349	0.651519	0.665015
H127	H	0.480448	0.154937	-0.255959
H128	H	0.980448	0.654937	0.244041
H129	H	0.894285	0.373761	0.595304
H130	H	1.394285	0.873761	1.095304
F131	F	1.191549	-0.002063	0.765920
F132	F	1.691549	0.497937	1.265920
