data_functionalizedCrystal
_audit_creation_method	'MofGen! by Chris Wilmer'
_symmetry_space_group_name_H-M	'P1'
_symmetry_Int_Tables_number	1
_symmetry_cell_setting	triclinic
loop_
_symmetry_equiv_pos_as_xyz
  x,y,z
_cell_length_a	10.540539
_cell_length_b	10.654550
_cell_length_c	9.130313
_cell_angle_alpha	90.000276
_cell_angle_beta	89.997616
_cell_angle_gamma	95.494789
loop_
_atom_site_label
_atom_site_type_symbol
_atom_site_fract_x
_atom_site_fract_y
_atom_site_fract_z
O1	O	0.178301	-1.667902	-0.121682
O2	O	0.195288	-1.302430	-0.121709
O3	O	0.002085	-1.493504	-0.121693
O4	O	0.371504	-1.476828	-0.121698
O5	O	0.002079	-1.493491	0.121906
O6	O	0.195282	-1.302416	0.121890
O7	O	0.178295	-1.667889	0.121916
Cu8	Cu	0.186788	-1.485152	0.144146
Cu9	Cu	0.186795	-1.485167	-0.143938
O10	O	0.371498	-1.476815	0.121901
C11	C	-0.045221	-1.492247	0.000104
C12	C	-0.186167	-1.488505	0.000095
C13	C	0.194038	-1.255625	0.000087
C14	C	0.190306	-1.116180	0.000077
C15	C	0.179545	-1.714694	0.000117
C16	C	0.183277	-1.854139	0.000118
C17	C	-0.369543	-1.345134	-0.000462
C18	C	-0.222926	-1.348927	0.000087
C19	C	-0.247852	-1.555669	0.139207
C20	C	-0.394395	-1.550905	0.139324
C21	C	-0.394908	-1.553759	-0.137693
C22	C	-0.247926	-1.555045	-0.139532
C23	C	0.418804	-1.478072	0.000101
C24	C	0.559750	-1.481813	0.000099
N25	N	0.186783	-1.485150	0.346768
C26	C	0.304061	-1.036735	0.000080
C27	C	0.300547	-0.905712	0.000105
C28	C	0.069513	-0.933594	0.000119
C29	C	0.073029	-1.064614	0.000104
N30	N	0.186790	-1.485179	-0.346561
C31	C	0.101269	-1.569786	0.423427
C32	C	0.101269	-1.569798	0.576764
C33	C	0.272308	-1.400533	0.576770
C34	C	0.272301	-1.400516	0.423436
H35	H	-0.180301	-1.296078	-0.099634
Cl36	Cl	-0.437914	-1.474245	0.299858
H37	H	0.341937	-1.331589	0.361016
Cl38	Cl	-0.006241	-1.676200	0.673131
H39	H	-0.207048	-1.505902	-0.242443
H40	H	-0.181153	-1.295697	0.099967
H41	H	-0.442400	-1.651288	0.145642
H42	H	-0.223741	-1.656809	-0.147925
Cl43	Cl	-0.006245	-1.676178	0.327052
Cl44	Cl	0.379817	-1.294146	0.673158
H45	H	-0.205238	-1.509003	0.242723
H46	H	0.399556	-1.078715	0.000069
Cl47	Cl	0.443560	-0.805843	0.000111
Cl48	Cl	-0.069990	-1.164496	0.000113
Cl49	Cl	-0.413661	-1.260007	-0.154485
H50	H	-0.399733	-1.290216	0.098732
H51	H	-0.225535	-1.658171	0.144387
Cl52	Cl	-0.077913	-0.868758	0.000144
H53	H	-0.426442	-1.508590	-0.243131
Cl54	Cl	-0.467879	-1.709410	-0.139132
