data_functionalizedCrystal
_audit_creation_method	'MofGen! by Chris Wilmer'
_symmetry_space_group_name_H-M	'P1'
_symmetry_Int_Tables_number	1
_symmetry_cell_setting	triclinic
loop_
_symmetry_equiv_pos_as_xyz
  x,y,z
_cell_length_a	18.215407
_cell_length_b	21.295417
_cell_length_c	18.215399
_cell_angle_alpha	89.965438
_cell_angle_beta	89.983176
_cell_angle_gamma	90.030955
loop_
_atom_site_label
_atom_site_type_symbol
_atom_site_fract_x
_atom_site_fract_y
_atom_site_fract_z
Zn1	Zn	1.125021	-0.250593	-0.416094
Zn2	Zn	1.375021	-0.000593	-0.166094
Zn3	Zn	1.625021	0.249407	0.083906
Zn4	Zn	1.875021	0.499407	0.333906
Zn5	Zn	1.124924	-0.355869	-0.293019
Zn6	Zn	1.374924	-0.105869	-0.043019
Zn7	Zn	1.624924	0.144131	0.206981
Zn8	Zn	1.874924	0.394131	0.456981
Zn9	Zn	1.001960	-0.250618	-0.293042
Zn10	Zn	1.251960	-0.000618	-0.043042
Zn11	Zn	1.501960	0.249382	0.206958
Zn12	Zn	1.751960	0.499382	0.456958
Zn13	Zn	1.001908	-0.355829	-0.416044
Zn14	Zn	1.251908	-0.105829	-0.166044
Zn15	Zn	1.501908	0.144171	0.083956
Zn16	Zn	1.751908	0.394171	0.333956
O17	O	1.063453	-0.303227	-0.354550
O18	O	1.313453	-0.053227	-0.104550
O19	O	1.563453	0.196773	0.145450
O20	O	1.813453	0.446773	0.395450
O21	O	1.227993	-0.264564	-0.399780
O22	O	1.477993	-0.014564	-0.149780
O23	O	1.727993	0.235436	0.100220
O24	O	1.977993	0.485436	0.350220
O25	O	1.108594	-0.341934	-0.190038
O26	O	1.358594	-0.091934	0.059962
O27	O	1.608594	0.158066	0.309962
O28	O	1.858594	0.408066	0.559962
O29	O	1.018347	-0.162525	-0.309396
O30	O	1.268347	0.087475	-0.059396
O31	O	1.518347	0.337475	0.190604
O32	O	1.768347	0.587475	0.440604
O33	O	1.227921	-0.341910	-0.309357
O34	O	1.477921	-0.091910	-0.059357
O35	O	1.727921	0.158090	0.190643
O36	O	1.977921	0.408090	0.440643
O37	O	1.108760	-0.162507	-0.399802
O38	O	1.358760	0.087493	-0.149802
O39	O	1.608760	0.337493	0.100198
O40	O	1.858760	0.587493	0.350198
O41	O	1.018253	-0.264607	-0.190054
O42	O	1.268253	-0.014607	0.059946
O43	O	1.518253	0.235393	0.309946
O44	O	1.768253	0.485393	0.559946
O45	O	0.898969	-0.264569	-0.309347
O46	O	1.148969	-0.014569	-0.059347
O47	O	1.398969	0.235431	0.190653
O48	O	1.648969	0.485431	0.440653
O49	O	1.018258	-0.341843	-0.519035
O50	O	1.268258	-0.091843	-0.269035
O51	O	1.518258	0.158157	-0.019035
O52	O	1.768258	0.408157	0.230965
O53	O	0.898930	-0.341867	-0.399716
O54	O	1.148930	-0.091867	-0.149716
O55	O	1.398930	0.158133	0.100284
O56	O	1.648930	0.408133	0.350284
O57	O	1.108709	-0.264526	-0.519072
O58	O	1.358709	-0.014526	-0.269072
O59	O	1.608709	0.235474	-0.019072
O60	O	1.858709	0.485474	0.230928
O61	O	1.108543	-0.443953	-0.309308
O62	O	1.358543	-0.193953	-0.059308
O63	O	1.608543	0.056047	0.190692
O64	O	1.858543	0.306047	0.440692
O65	O	1.018163	-0.443924	-0.399694
O66	O	1.268163	-0.193924	-0.149694
O67	O	1.518163	0.056076	0.100306
O68	O	1.768163	0.306076	0.350306
C69	C	0.872247	-0.303217	-0.354529
C70	C	1.122247	-0.053217	-0.104529
C71	C	1.372247	0.196783	0.145471
C72	C	1.622247	0.446783	0.395471
C73	C	0.790448	-0.303227	-0.354537
C74	C	1.040448	-0.053227	-0.104537
C75	C	1.290448	0.196773	0.145463
C76	C	1.540448	0.446773	0.395463
C77	C	0.602253	-0.343540	-0.401533
C78	C	0.852253	-0.093540	-0.151533
C79	C	1.102253	0.156460	0.098467
C80	C	1.352253	0.406460	0.348467
C81	C	0.525395	-0.343542	-0.401542
C82	C	0.775395	-0.093542	-0.151542
C83	C	1.025395	0.156458	0.098458
C84	C	1.275395	0.406458	0.348458
C85	C	0.525405	-0.262927	-0.307582
C86	C	0.775405	-0.012927	-0.057582
C87	C	1.025405	0.237073	0.192418
C88	C	1.275405	0.487073	0.442418
C89	C	0.602263	-0.262922	-0.307577
C90	C	0.852263	-0.012922	-0.057577
C91	C	1.102263	0.237078	0.192423
C92	C	1.352263	0.487078	0.442423
C93	C	0.640685	-0.303232	-0.354552
C94	C	0.890685	-0.053232	-0.104552
C95	C	1.140685	0.196768	0.145448
C96	C	1.390685	0.446768	0.395448
C97	C	0.486969	-0.303239	-0.354566
C98	C	0.736969	-0.053239	-0.104566
C99	C	0.986969	0.196761	0.145434
C100	C	1.236969	0.446761	0.395434
C101	C	0.403635	-0.303240	-0.354575
C102	C	0.653635	-0.053240	-0.104575
C103	C	0.903635	0.196760	0.145425
C104	C	1.153635	0.446760	0.395425
C105	C	0.724024	-0.303229	-0.354543
C106	C	0.974024	-0.053229	-0.104543
C107	C	1.224024	0.196771	0.145457
C108	C	1.474024	0.446771	0.395457
C109	C	1.063357	-0.466779	-0.354509
C110	C	1.313357	-0.216779	-0.104509
C111	C	1.563357	0.033221	0.145491
C112	C	1.813357	0.283221	0.395491
C113	C	1.063383	-0.536747	-0.354516
C114	C	1.313383	-0.286747	-0.104516
C115	C	1.563383	-0.036747	0.145484
C116	C	1.813383	0.213253	0.395484
C117	C	1.110485	-0.569608	-0.307500
C118	C	1.360485	-0.319608	-0.057500
C119	C	1.610485	-0.069608	0.192500
C120	C	1.860485	0.180392	0.442500
C121	C	1.110520	-0.635350	-0.307517
C122	C	1.360520	-0.385350	-0.057517
C123	C	1.610520	-0.135350	0.192483
C124	C	1.860520	0.114650	0.442483
C125	C	1.063439	-0.668230	-0.354542
C126	C	1.313439	-0.418230	-0.104542
C127	C	1.563439	-0.168230	0.145458
C128	C	1.813439	0.081770	0.395458
C129	C	1.016333	-0.635361	-0.401566
C130	C	1.266333	-0.385361	-0.151566
C131	C	1.516333	-0.135361	0.098434
C132	C	1.766333	0.114639	0.348434
C133	C	1.016305	-0.569620	-0.401554
C134	C	1.266305	-0.319620	-0.151554
C135	C	1.516305	-0.069620	0.098446
C136	C	1.766305	0.180380	0.348446
N137	N	0.999060	-0.771496	-0.360145
N138	N	1.249060	-0.521496	-0.110145
N139	N	1.499060	-0.271496	0.139855
N140	N	1.749060	-0.021496	0.389855
N141	N	0.999088	-0.833947	-0.360153
N142	N	1.249088	-0.583947	-0.110153
N143	N	1.499088	-0.333947	0.139847
N144	N	1.749088	-0.083947	0.389847
C145	C	1.063521	-0.866304	-0.354584
C146	C	1.313521	-0.616304	-0.104584
C147	C	1.563521	-0.366304	0.145416
C148	C	1.813521	-0.116304	0.395416
N149	N	1.127926	-0.833851	-0.348993
N150	N	1.377926	-0.583851	-0.098993
N151	N	1.627926	-0.333851	0.151007
N152	N	1.877926	-0.083851	0.401007
N153	N	1.127896	-0.771394	-0.348981
N154	N	1.377896	-0.521394	-0.098981
N155	N	1.627896	-0.271394	0.151019
N156	N	1.877896	-0.021394	0.401019
C157	C	1.063464	-0.739515	-0.354561
C158	C	1.313464	-0.489515	-0.104561
C159	C	1.563464	-0.239515	0.145439
C160	C	1.813464	0.010485	0.395439
C161	C	1.110665	-0.970451	-0.307584
C162	C	1.360665	-0.720451	-0.057584
C163	C	1.610665	-0.470451	0.192416
C164	C	1.860665	-0.220451	0.442416
C165	C	1.110701	-1.036194	-0.307605
C166	C	1.360701	-0.786194	-0.057605
C167	C	1.610701	-0.536194	0.192395
C168	C	1.860701	-0.286194	0.442395
C169	C	1.016507	-1.036203	-0.401651
C170	C	1.266507	-0.786203	-0.151651
C171	C	1.516507	-0.536203	0.098349
C172	C	1.766507	-0.286203	0.348349
C173	C	1.016478	-0.970461	-0.401633
C174	C	1.266478	-0.720461	-0.151633
C175	C	1.516478	-0.470461	0.098367
C176	C	1.766478	-0.220461	0.348367
C177	C	1.063556	-0.937589	-0.354595
C178	C	1.313556	-0.687589	-0.104595
C179	C	1.563556	-0.437589	0.145405
C180	C	1.813556	-0.187589	0.395405
C181	C	1.255406	-0.303239	-0.354571
C182	C	1.505406	-0.053239	-0.104571
C183	C	1.755406	0.196761	0.145429
C184	C	2.005406	0.446761	0.395429
C185	C	1.337205	-0.303243	-0.354581
C186	C	1.587205	-0.053243	-0.104581
C187	C	1.837205	0.196757	0.145419
C188	C	2.087205	0.446757	0.395419
C189	C	1.063488	-0.303177	-0.546503
C190	C	1.313488	-0.053177	-0.296503
C191	C	1.563488	0.196823	-0.046503
C192	C	1.813488	0.446823	0.203497
C193	C	1.063503	-0.303156	-0.628302
C194	C	1.313503	-0.053156	-0.378302
C195	C	1.563503	0.196844	-0.128302
C196	C	1.813503	0.446844	0.121698
C197	C	1.063570	-0.139037	-0.354607
C198	C	1.313570	0.110963	-0.104607
C199	C	1.563570	0.360963	0.145393
C200	C	1.813570	0.610963	0.395393
C201	C	1.063620	-0.069069	-0.354631
C202	C	1.313620	0.180931	-0.104631
C203	C	1.563620	0.430931	0.145369
C204	C	1.813620	0.680931	0.395369
C205	C	1.016502	-0.262864	-0.816505
C206	C	1.266502	-0.012864	-0.566505
C207	C	1.516502	0.237136	-0.316505
C208	C	1.766502	0.487136	-0.066505
C209	C	1.016515	-0.262852	-0.893364
C210	C	1.266515	-0.012852	-0.643364
C211	C	1.516515	0.237148	-0.393364
C212	C	1.766515	0.487148	-0.143364
C213	C	1.110592	-0.343372	-0.893336
C214	C	1.360592	-0.093372	-0.643336
C215	C	1.610592	0.156628	-0.393336
C216	C	1.860592	0.406628	-0.143336
C217	C	1.110575	-0.343387	-0.816479
C218	C	1.360575	-0.093387	-0.566479
C219	C	1.610575	0.156613	-0.316479
C220	C	1.860575	0.406613	-0.066479
C221	C	1.063531	-0.303130	-0.778065
C222	C	1.313531	-0.053130	-0.528065
C223	C	1.563531	0.196870	-0.278065
C224	C	1.813531	0.446870	-0.028065
C225	C	1.063561	-0.303102	-0.931781
C226	C	1.313561	-0.053102	-0.681781
C227	C	1.563561	0.196898	-0.431781
C228	C	1.813561	0.446898	-0.181781
C229	C	1.063575	-0.303088	-1.015115
C230	C	1.313575	-0.053088	-0.765115
C231	C	1.563575	0.196912	-0.515115
C232	C	1.813575	0.446912	-0.265115
C233	C	1.063516	-0.303144	-0.694726
C234	C	1.313516	-0.053144	-0.444726
C235	C	1.563516	0.196856	-0.194726
C236	C	1.813516	0.446856	0.055274
C237	C	1.063461	-0.303232	-0.163344
C238	C	1.313461	-0.053232	0.086656
C239	C	1.563461	0.196768	0.336656
C240	C	1.813461	0.446768	0.586656
C241	C	1.063589	-0.303076	-0.081545
C242	C	1.313589	-0.053076	0.168455
C243	C	1.563589	0.196924	0.418455
C244	C	1.813589	0.446924	0.668455
H245	H	0.494107	-0.376363	-0.439801
H246	H	0.744107	-0.126363	-0.189801
H247	H	0.994107	0.123637	0.060199
H248	H	1.244107	0.373637	0.310199
H249	H	1.148894	-0.376148	-0.924622
H250	H	1.398894	-0.126148	-0.674622
H251	H	1.648894	0.123852	-0.424622
H252	H	1.898894	0.373852	-0.174622
F253	F	0.966452	-0.220002	-0.934272
F254	F	1.216452	0.029998	-0.684272
F255	F	1.466452	0.279998	-0.434272
F256	F	1.716452	0.529998	-0.184272
H257	H	1.148821	-0.542845	-0.269202
H258	H	1.398821	-0.292845	-0.019202
H259	H	1.648821	-0.042845	0.230798
H260	H	1.898821	0.207155	0.480798
H261	H	1.148879	-0.662111	-0.269231
H262	H	1.398879	-0.412111	-0.019231
H263	H	1.648879	-0.162111	0.230769
H264	H	1.898879	0.087889	0.480769
F265	F	1.160629	-0.386248	-0.775566
F266	F	1.410629	-0.136248	-0.525566
F267	F	1.660629	0.113752	-0.275566
F268	F	1.910629	0.363752	-0.025566
F269	F	0.643167	-0.220015	-0.257574
F270	F	0.893167	0.029985	-0.007574
F271	F	1.143167	0.279985	0.242426
F272	F	1.393167	0.529985	0.492426
H273	H	0.494113	-0.230108	-0.269336
H274	H	0.744113	0.019892	-0.019336
H275	H	0.994113	0.269892	0.230664
H276	H	1.244113	0.519892	0.480664
F277	F	0.966229	-0.670354	-0.451616
F278	F	1.216229	-0.420354	-0.201616
F279	F	1.466229	-0.170354	0.048384
F280	F	1.716229	0.079646	0.298384
F281	F	0.643142	-0.386439	-0.451529
F282	F	0.893142	-0.136439	-0.201529
F283	F	1.143142	0.113561	0.048471
F284	F	1.393142	0.363561	0.298471
F285	F	1.160768	-0.935463	-0.257522
F286	F	1.410768	-0.685463	-0.007522
F287	F	1.660768	-0.435463	0.242478
F288	F	1.910768	-0.185463	0.492478
F289	F	0.966170	-0.534646	-0.451597
F290	F	1.216170	-0.284646	-0.201597
F291	F	1.466170	-0.034646	0.048403
F292	F	1.716170	0.215354	0.298403
F293	F	1.160841	-1.071167	-0.257567
F294	F	1.410841	-0.821167	-0.007567
F295	F	1.660841	-0.571167	0.242433
F296	F	1.910841	-0.321167	0.492433
F297	F	0.966404	-1.071191	-0.451703
F298	F	1.216404	-0.821191	-0.201703
F299	F	1.466404	-0.571191	0.048297
F300	F	1.716404	-0.321191	0.298297
H301	H	0.978120	-0.943704	-0.439914
H302	H	1.228120	-0.693704	-0.189914
H303	H	1.478120	-0.443704	0.060086
H304	H	1.728120	-0.193704	0.310086
H305	H	0.978196	-0.230084	-0.785231
H306	H	1.228196	0.019916	-0.535231
H307	H	1.478196	0.269916	-0.285231
H308	H	1.728196	0.519916	-0.035231
