data_functionalizedCrystal
_audit_creation_method	'MofGen! by Chris Wilmer'
_symmetry_space_group_name_H-M	'P1'
_symmetry_Int_Tables_number	1
_symmetry_cell_setting	triclinic
loop_
_symmetry_equiv_pos_as_xyz
  x,y,z
_cell_length_a	18.215407
_cell_length_b	18.050589
_cell_length_c	18.050583
_cell_angle_alpha	90.031910
_cell_angle_beta	90.014135
_cell_angle_gamma	90.022734
loop_
_atom_site_label
_atom_site_type_symbol
_atom_site_fract_x
_atom_site_fract_y
_atom_site_fract_z
Zn1	Zn	1.125028	-0.295715	0.419898
Zn2	Zn	1.124937	-0.419928	0.295717
Zn3	Zn	1.001969	-0.295744	0.295726
Zn4	Zn	1.001919	-0.419856	0.419870
O5	O	1.063463	-0.357811	0.357803
O6	O	1.228000	-0.312210	0.403433
O7	O	1.108608	-0.403497	0.191794
O8	O	1.018351	-0.191816	0.312213
O9	O	1.227934	-0.403469	0.312198
O10	O	1.108763	-0.191794	0.403441
O11	O	1.018263	-0.312260	0.191800
O12	O	0.898978	-0.312190	0.312186
O13	O	1.018268	-0.403346	0.523798
O14	O	0.898942	-0.403374	0.403394
O15	O	1.108715	-0.312140	0.523819
O16	O	1.108560	-0.523843	0.312171
O17	O	1.018179	-0.523790	0.403385
C18	C	0.872257	-0.357778	0.357788
C19	C	0.790458	-0.357782	0.357800
C20	C	0.525430	-0.310384	0.405384
C21	C	0.602289	-0.310372	0.405382
C22	C	0.602238	-0.405262	0.310237
C23	C	0.525381	-0.405277	0.310244
C24	C	0.486979	-0.357834	0.357816
C25	C	0.640695	-0.357807	0.357807
C26	C	0.724028	-0.357794	0.357804
C27	C	0.403640	-0.357847	0.357820
C28	C	1.063375	-0.550763	0.357790
C29	C	1.063404	-0.633309	0.357810
C30	C	1.014303	-0.832757	0.407395
C31	C	0.996368	-0.882206	0.339628
C32	C	1.063476	-0.784439	0.357820
C33	C	1.081448	-0.882072	0.425594
C34	C	1.063545	-0.930424	0.357835
C35	C	1.045505	-0.832800	0.290017
C36	C	1.130617	-0.832662	0.376029
C37	C	1.112707	-0.882088	0.308215
C38	C	1.063435	-0.700341	0.357812
C39	C	1.063586	-1.014521	0.357835
C40	C	1.255416	-0.357844	0.357818
C41	C	1.337215	-0.357858	0.357824
C42	C	1.063496	-0.357731	0.551508
C43	C	1.063510	-0.357698	0.634054
C44	C	1.063573	-0.164105	0.357831
C45	C	1.063619	-0.081559	0.357843
C46	C	1.063473	-0.357836	0.164851
C47	C	1.063602	-0.357661	0.082305
C48	C	1.112744	-0.308076	0.833516
C49	C	1.045624	-0.289893	0.882912
C50	C	1.063539	-0.357685	0.785185
C51	C	1.130687	-0.375821	0.882871
C52	C	1.063574	-0.357671	0.931170
C53	C	0.996383	-0.339467	0.833493
C54	C	1.081492	-0.425426	0.833448
C55	C	1.014325	-0.407269	0.882821
C56	C	1.063520	-0.357691	0.701086
C57	C	1.063585	-0.357665	1.015266
H58	H	0.633592	-0.271734	0.444117
O59	O	0.928715	-0.908208	0.321132
C60	C	0.857149	-0.980673	0.235292
C61	C	0.933804	-0.951263	0.256137
H62	H	0.861240	-1.015502	0.182751
H63	H	0.818456	-0.932063	0.225316
H64	H	0.835009	-1.016270	0.282416
H65	H	0.956011	-0.915677	0.209040
H66	H	0.972448	-0.999907	0.266139
H67	H	1.154287	-0.266097	0.811864
H68	H	1.030267	-0.811246	0.232691
O69	O	1.162268	-0.907739	0.258053
C70	C	1.199359	-0.911563	0.129976
C71	C	1.143174	-0.882477	0.186705
H72	H	1.183950	-0.891138	0.072282
H73	H	1.199366	-0.974717	0.130627
H74	H	1.256393	-0.890323	0.145038
H75	H	1.086113	-0.903662	0.171683
H76	H	1.143231	-0.819324	0.186044
O77	O	1.198276	-0.806711	0.394551
C78	C	1.293702	-0.802363	0.486932
C79	C	1.217065	-0.831789	0.466046
H80	H	1.308923	-0.822640	0.544730
H81	H	1.293165	-0.739211	0.486262
H82	H	1.335779	-0.823496	0.445235
H83	H	1.174945	-0.810712	0.507722
H84	H	1.217662	-0.894940	0.466692
O85	O	0.964525	-0.806944	0.457256
C86	C	0.837533	-0.802944	0.494397
C87	C	0.893826	-0.832213	0.437873
H88	H	0.780362	-0.823375	0.478756
H89	H	0.838275	-0.739791	0.494300
H90	H	0.852300	-0.824042	0.552021
H91	H	0.879097	-0.811171	0.380223
H92	H	0.893073	-0.895366	0.438036
O93	O	1.027629	-0.221551	0.908927
C94	C	1.065017	-0.116574	0.982347
C95	C	1.085468	-0.193975	0.952954
H96	H	1.111774	-0.094248	1.017935
H97	H	1.012941	-0.120555	1.017140
H98	H	1.055210	-0.077592	0.933673
H99	H	1.095314	-0.232999	1.001582
H100	H	1.137524	-0.189935	0.918138
H101	H	0.939595	-0.324056	0.811894
O102	O	0.488093	-0.264226	0.451494
C103	C	0.401311	-0.164016	0.461667
C104	C	0.443558	-0.216230	0.409360
H105	H	0.365283	-0.125209	0.427623
H106	H	0.441966	-0.130048	0.495653
H107	H	0.365367	-0.198179	0.500460
H108	H	0.479503	-0.182125	0.370522
H109	H	0.402864	-0.250201	0.375426
H110	H	1.096686	-0.482703	0.811706
H111	H	1.096621	-0.903716	0.482904
O112	O	0.964547	-0.457227	0.908458
C113	C	0.837576	-0.494550	0.912212
C114	C	0.893870	-0.437915	0.883141
H115	H	0.780423	-0.478965	0.891742
H116	H	0.838229	-0.494521	0.975367
H117	H	0.852415	-0.552129	0.891005
H118	H	0.879070	-0.380308	0.904293
H119	H	0.893206	-0.438008	0.819987
H120	H	1.187458	-0.391164	0.904563
H121	H	0.633515	-0.443887	0.271504
H122	H	0.494073	-0.443921	0.271508
