data_functionalizedCrystal
_audit_creation_method	'MofGen! by Chris Wilmer'
_symmetry_space_group_name_H-M	'P1'
_symmetry_Int_Tables_number	1
_symmetry_cell_setting	triclinic
loop_
_symmetry_equiv_pos_as_xyz
  x,y,z
_cell_length_a	19.077212
_cell_length_b	25.639240
_cell_length_c	19.077174
_cell_angle_alpha	92.263375
_cell_angle_beta	85.292016
_cell_angle_gamma	92.324469
loop_
_atom_site_label
_atom_site_type_symbol
_atom_site_fract_x
_atom_site_fract_y
_atom_site_fract_z
Zn1	Zn	1.093704	-0.188787	-0.441972
Zn2	Zn	1.088872	-0.272847	-0.324063
Zn3	Zn	0.971085	-0.188793	-0.319350
Zn4	Zn	0.975761	-0.279561	-0.437162
O5	O	1.032356	-0.232497	-0.380637
O6	O	1.191717	-0.197125	-0.430317
O7	O	1.069269	-0.258890	-0.224788
O8	O	0.987417	-0.115627	-0.335657
O9	O	1.188167	-0.258884	-0.343690
O10	O	1.077504	-0.115622	-0.425746
O11	O	0.982731	-0.197136	-0.221325
O12	O	0.873052	-0.203647	-0.330992
O13	O	0.995386	-0.270326	-0.536449
O14	O	0.876487	-0.270333	-0.417548
O15	O	1.082038	-0.203635	-0.539983
O16	O	1.073802	-0.346903	-0.339025
O17	O	0.990700	-0.351836	-0.422118
C18	C	0.849189	-0.237719	-0.373237
C19	C	0.770831	-0.239967	-0.370088
C20	C	0.329555	-0.256063	-0.347537
C21	C	0.403182	-0.253949	-0.350490
C22	C	0.441848	-0.220794	-0.397142
C23	C	0.406884	-0.189748	-0.440839
C24	C	0.333259	-0.191860	-0.437881
C25	C	0.662242	-0.211033	-0.410827
C26	C	0.735872	-0.208924	-0.413783
C27	C	0.732164	-0.273125	-0.323433
C28	C	0.658538	-0.275236	-0.320483
C29	C	0.623581	-0.244188	-0.364177
N30	N	0.517106	-0.218633	-0.400163
N31	N	0.548324	-0.246346	-0.361151
C32	C	1.032254	-0.368341	-0.380577
C33	C	1.032276	-0.426454	-0.380578
C34	C	1.079290	-0.786777	-0.427629
C35	C	1.079311	-0.841381	-0.427644
O36	O	1.119164	-0.869586	-0.467586
N37	N	1.032456	-0.868735	-0.380709
C38	C	0.985572	-0.841482	-0.333760
O39	O	0.945719	-0.869763	-0.293840
C40	C	0.985548	-0.786879	-0.333749
C41	C	1.032411	-0.759528	-0.380682
C42	C	1.126149	-0.759426	-0.474559
C43	C	1.126128	-0.704826	-0.474542
C44	C	1.079249	-0.677576	-0.427596
C45	C	1.032390	-0.704928	-0.380666
C46	C	0.938660	-0.759628	-0.286805
C47	C	0.938640	-0.705021	-0.286798
C48	C	0.985503	-0.677670	-0.333731
C49	C	0.985490	-0.623078	-0.333704
N50	N	1.032345	-0.595724	-0.380639
C51	C	1.079225	-0.622974	-0.427585
C52	C	0.985626	-0.956152	-0.333788
C53	C	0.985653	-1.010754	-0.333795
C54	C	1.079392	-1.010649	-0.427680
C55	C	1.079367	-0.956046	-0.427669
C56	C	1.032481	-0.928798	-0.380723
C57	C	1.079178	-0.508309	-0.427547
C58	C	1.079155	-0.453703	-0.427525
C59	C	0.985414	-0.453813	-0.333643
C60	C	0.985439	-0.508413	-0.333662
C61	C	1.032324	-0.535660	-0.380620
O62	O	0.945656	-0.594839	-0.293784
O63	O	1.119064	-0.594687	-0.467505
C64	C	1.216237	-0.227254	-0.388066
C65	C	1.294597	-0.225020	-0.391231
C66	C	1.039772	-0.237729	-0.564510
C67	C	1.042933	-0.239958	-0.642866
C68	C	1.032478	-0.096123	-0.380712
C69	C	1.032530	-0.038008	-0.380745
C70	C	0.999364	-0.208855	-0.677875
C71	C	1.002331	-0.210954	-0.751499
C72	C	1.048871	-0.244155	-0.790113
C73	C	1.092441	-0.275262	-0.755099
C74	C	1.089470	-0.273165	-0.681477
C75	C	1.062584	-0.253876	-1.010494
C76	C	1.065553	-0.255970	-1.084121
C77	C	0.975442	-0.191662	-1.080516
C78	C	0.972478	-0.189566	-1.006892
C79	C	1.016046	-0.220675	-0.971885
N80	N	1.051906	-0.246300	-0.865368
N81	N	1.013007	-0.218532	-0.896631
C82	C	1.025009	-0.227247	-0.197480
C83	C	1.021985	-0.224866	-0.119130
H84	H	0.633789	-0.185753	-0.446410
O85	O	1.104984	-0.284105	-0.976606
C86	C	1.146689	-0.313863	-1.026477
H87	H	1.151258	-0.293871	-1.079069
H88	H	1.121160	-0.354534	-1.033240
C89	C	1.214947	-0.342987	-0.936183
C90	C	1.220564	-0.318431	-1.000775
H91	H	1.260516	-0.345807	-0.920328
H92	H	1.186848	-0.322941	-0.902583
H93	H	1.193670	-0.376877	-0.941827
H94	H	1.241832	-0.284540	-0.995129
H95	H	1.248668	-0.338472	-1.034374
O96	O	1.124830	-1.037153	-0.473361
C97	C	1.086496	-1.071195	-0.517227
H98	H	1.031137	-1.056479	-0.519286
H99	H	1.083219	-1.112036	-0.495337
C100	C	1.191824	-1.091168	-0.589401
C101	C	1.123833	-1.073090	-0.591936
H102	H	1.214856	-1.092339	-0.635485
H103	H	1.217651	-1.068234	-0.559847
H104	H	1.189083	-1.125200	-0.571157
H105	H	1.126575	-1.039056	-0.610172
H106	H	1.098007	-1.096018	-0.621495
O107	O	1.137669	-0.307559	-0.792499
C108	C	1.175499	-0.334553	-0.745809
H109	H	1.144502	-0.335693	-0.692162
H110	H	1.228742	-0.313656	-0.740151
C111	C	1.224843	-0.389326	-0.840811
C112	C	1.186769	-0.390731	-0.774923
H113	H	1.231799	-0.423979	-0.858770
H114	H	1.199359	-0.371139	-0.872267
H115	H	1.269208	-0.371910	-0.836087
H116	H	1.142402	-0.408141	-0.779649
H117	H	1.212247	-0.408923	-0.743468
H118	H	1.103455	-0.283006	-1.115559
H119	H	0.939971	-0.166335	-1.109027
H120	H	1.124954	-0.298489	-0.652974
O121	O	0.959905	-0.180764	-0.785418
C122	C	0.888907	-0.193690	-0.764585
H123	H	0.885280	-0.212311	-0.711061
H124	H	0.866801	-0.222425	-0.805044
C125	C	0.850568	-0.120967	-0.825215
C126	C	0.846113	-0.143834	-0.759473
H127	H	0.824169	-0.090215	-0.822065
H128	H	0.898401	-0.112259	-0.839253
H129	H	0.832148	-0.144918	-0.858924
H130	H	0.864541	-0.119886	-0.725768
H131	H	0.798282	-0.152537	-0.745430
O132	O	1.171724	-0.785944	-0.520068
C133	C	1.215703	-0.815058	-0.481818
H134	H	1.188728	-0.822473	-0.427376
H135	H	1.267627	-0.792264	-0.476213
C136	C	1.263174	-0.858530	-0.588015
C137	C	1.230039	-0.867640	-0.521151
H138	H	1.272020	-0.890964	-0.612278
H139	H	1.233546	-0.838914	-0.613786
H140	H	1.306440	-0.839533	-0.583335
H141	H	1.186770	-0.886631	-0.525832
H142	H	1.259660	-0.887261	-0.495382
H143	H	0.298078	-0.283064	-0.309551
H144	H	0.947499	-1.033018	-0.295570
O145	O	0.437171	-0.284028	-0.307976
C146	C	0.477944	-0.251694	-0.264243
H147	H	0.455606	-0.211026	-0.259102
H148	H	0.534629	-0.248936	-0.288287
C149	C	0.503524	-0.324987	-0.197252
C150	C	0.476084	-0.275039	-0.190933
H151	H	0.502380	-0.339388	-0.152032
H152	H	0.476057	-0.346772	-0.226717
H153	H	0.550759	-0.322681	-0.217291
H154	H	0.428848	-0.277346	-0.170903
H155	H	0.503544	-0.253255	-0.161463
O156	O	0.954216	-0.176615	-0.640262
C157	C	0.960922	-0.181441	-0.567772
H158	H	1.014908	-0.196726	-0.559902
H159	H	0.918238	-0.209882	-0.545175
C160	C	0.886675	-0.108874	-0.539412
C161	C	0.952983	-0.127643	-0.529746
H162	H	0.881775	-0.075690	-0.515954
H163	H	0.882155	-0.105623	-0.588250
H164	H	0.851113	-0.132580	-0.520581
H165	H	0.988544	-0.103941	-0.548584
H166	H	0.957509	-0.130889	-0.480910
H167	H	0.947247	-0.431618	-0.295417
O168	O	0.940180	-0.929624	-0.288144
C169	C	0.978504	-0.895599	-0.244247
H170	H	1.032908	-0.886551	-0.271310
H171	H	0.984200	-0.914954	-0.192334
C172	C	0.872359	-0.855623	-0.196622
C173	C	0.939178	-0.844507	-0.229864
H174	H	0.848100	-0.824108	-0.187747
H175	H	0.846539	-0.878548	-0.226194
H176	H	0.877115	-0.871753	-0.153365
H177	H	0.934421	-0.828383	-0.273124
H178	H	0.964997	-0.821579	-0.200299
H179	H	0.934579	-0.162532	-0.975457
H180	H	0.304797	-0.166579	-0.473460
H181	H	0.627060	-0.302234	-0.282493
O182	O	0.893066	-0.678633	-0.241127
C183	C	0.851700	-0.714488	-0.199724
H184	H	0.880500	-0.752499	-0.198482
H185	H	0.799182	-0.722584	-0.223340
C186	C	0.803183	-0.644688	-0.125798
C187	C	0.838558	-0.691371	-0.124268
H188	H	0.795073	-0.630428	-0.079254
H189	H	0.831050	-0.620531	-0.153693
H190	H	0.759422	-0.651441	-0.145481
H191	H	0.882321	-0.684617	-0.104593
H192	H	0.810698	-0.715527	-0.096368
H193	H	0.760634	-0.298402	-0.287859
O194	O	1.124786	-0.534689	-0.473189
C195	C	1.166120	-0.498831	-0.514616
H196	H	1.167402	-0.459030	-0.485823
H197	H	1.142412	-0.495274	-0.567085
C198	C	1.239992	-0.567116	-0.563248
C199	C	1.241571	-0.518232	-0.527881
H200	H	1.286533	-0.579084	-0.571434
H201	H	1.212143	-0.591275	-0.535340
H202	H	1.220232	-0.564145	-0.606968
H203	H	1.261323	-0.521205	-0.484158
H204	H	1.269426	-0.494074	-0.555782
O205	O	0.444551	-0.157586	-0.486138
C206	C	0.517031	-0.162369	-0.479369
H207	H	0.526122	-0.201743	-0.456576
H208	H	0.536423	-0.129646	-0.442752
C209	C	0.546559	-0.110247	-0.580224
C210	C	0.557726	-0.158610	-0.552235
H211	H	0.571664	-0.107926	-0.625170
H212	H	0.497729	-0.107023	-0.584784
H213	H	0.562720	-0.082984	-0.549703
H214	H	0.541558	-0.185872	-0.582752
H215	H	0.606556	-0.161839	-0.547682
H216	H	0.767352	-0.181922	-0.451772
O217	O	1.124581	-0.427081	-0.473151
C218	C	1.086231	-0.397955	-0.517030
H219	H	1.031818	-0.390633	-0.489963
H220	H	1.080554	-0.420692	-0.568955
C221	C	1.192339	-0.354308	-0.564628
C222	C	1.125510	-0.345312	-0.531380
H223	H	1.216569	-0.321837	-0.573483
H224	H	1.218177	-0.373933	-0.535067
H225	H	1.187599	-0.373257	-0.607895
H226	H	1.130251	-0.326370	-0.488110
H227	H	1.099673	-0.325683	-0.560934
H228	H	0.947285	-0.530684	-0.295440
H229	H	1.164286	-0.682559	-0.512761
H230	H	0.900500	-0.781888	-0.248586
H231	H	1.117527	-0.933780	-0.465886
