data_functionalizedCrystal
_audit_creation_method	'MofGen! by Chris Wilmer'
_symmetry_space_group_name_H-M	'P1'
_symmetry_Int_Tables_number	1
_symmetry_cell_setting	triclinic
loop_
_symmetry_equiv_pos_as_xyz
  x,y,z
_cell_length_a	16.625546
_cell_length_b	14.908932
_cell_length_c	14.908308
_cell_angle_alpha	83.630060
_cell_angle_beta	93.264070
_cell_angle_gamma	86.677597
loop_
_atom_site_label
_atom_site_type_symbol
_atom_site_fract_x
_atom_site_fract_y
_atom_site_fract_z
Zn1	Zn	-0.273405	-1.354229	-0.432055
Zn2	Zn	0.226595	-0.854229	0.067945
Zn3	Zn	-0.400000	-1.362862	-0.280696
Zn4	Zn	0.100000	-0.862862	0.219304
Zn5	Zn	-0.273439	-1.211602	-0.289431
Zn6	Zn	0.226561	-0.711602	0.210569
Zn7	Zn	-0.416457	-1.202832	-0.440723
Zn8	Zn	0.083543	-0.702832	0.059277
O9	O	-0.340825	-1.282881	-0.360726
O10	O	0.159175	-0.782881	0.139274
O11	O	-0.283296	-1.482037	-0.404693
O12	O	0.216704	-0.982037	0.095307
O13	O	-0.376338	-1.350080	-0.155194
O14	O	0.123662	-0.850080	0.344806
O15	O	-0.160601	-1.230580	-0.308378
O16	O	0.339399	-0.730580	0.191622
O17	O	-0.376305	-1.488379	-0.293490
O18	O	0.123695	-0.988379	0.206510
O19	O	-0.160575	-1.335367	-0.413163
O20	O	0.339425	-0.835367	0.086837
O21	O	-0.283355	-1.238950	-0.161611
O22	O	0.216645	-0.738950	0.338389
O23	O	-0.299312	-1.083776	-0.316783
O24	O	0.200688	-0.583776	0.183217
O25	O	-0.404354	-1.215632	-0.566234
O26	O	0.095646	-0.715632	-0.066234
O27	O	-0.404387	-1.077333	-0.427938
O28	O	0.095613	-0.577333	0.072062
O29	O	-0.299254	-1.326863	-0.559865
O30	O	0.200746	-0.826863	-0.059865
O31	O	-0.515017	-1.341576	-0.301896
O32	O	-0.015017	-0.841576	0.198104
O33	O	-0.527108	-1.224003	-0.419468
O34	O	-0.027108	-0.724003	0.080532
C35	C	-0.353640	-1.047712	-0.374250
C36	C	0.146360	-0.547712	0.125750
C37	C	-0.359143	-0.947105	-0.380056
C38	C	0.140857	-0.447105	0.119944
C39	C	-0.550319	-1.282798	-0.360693
C40	C	-0.050319	-0.782798	0.139307
C41	C	-0.639938	-1.282843	-0.360705
C42	C	-0.139938	-0.782843	0.139295
C43	C	-0.353636	-1.269306	-0.596810
C44	C	0.146364	-0.769306	-0.096810
C45	C	-0.359095	-1.263521	-0.697414
C46	C	0.140905	-0.763521	-0.197414
C47	C	-0.968110	-1.282996	-0.360790
C48	C	-0.468110	-0.782996	0.139210
C49	C	-0.876803	-1.282950	-0.360769
C50	C	-0.376803	-0.782950	0.139231
C51	C	-0.804027	-1.282919	-0.360747
C52	C	-0.304027	-0.782919	0.139253
C53	C	-0.712714	-1.282875	-0.360727
C54	C	-0.212714	-0.782875	0.139273
C55	C	-0.130513	-1.282989	-0.360778
C56	C	0.369487	-0.782989	0.139222
C57	C	-0.040891	-1.283034	-0.360800
C58	C	0.459109	-0.783034	0.139200
C59	C	-0.421678	-0.801978	-0.446009
C60	C	0.078322	-0.301978	0.053991
C61	C	-0.416508	-0.896507	-0.440560
C62	C	0.083492	-0.396507	0.059440
C63	C	-0.306944	-0.903166	-0.324995
C64	C	0.193056	-0.403166	0.175005
C65	C	-0.312114	-0.808637	-0.330443
C66	C	0.187886	-0.308637	0.169557
C67	C	-0.369482	-0.758046	-0.390953
C68	C	0.130518	-0.258046	0.109047
C69	C	-0.374647	-0.663514	-0.396405
C70	C	0.125353	-0.163514	0.103595
C71	C	-0.265087	-0.670176	-0.280835
C72	C	0.234913	-0.170176	0.219165
C73	C	-0.259917	-0.764705	-0.275387
C74	C	0.240083	-0.264705	0.224613
C75	C	-0.327953	-0.518969	-0.347145
C76	C	0.172047	-0.018969	0.152855
C77	C	-0.322448	-0.619576	-0.341343
C78	C	0.177552	-0.119576	0.158657
C79	C	-0.259894	-1.368472	-0.879831
C80	C	0.240106	-0.868472	-0.379831
C81	C	-0.265021	-1.363040	-0.974358
C82	C	0.234979	-0.863040	-0.474358
C83	C	-0.374470	-1.247219	-0.980997
C84	C	0.125530	-0.747219	-0.480997
C85	C	-0.369344	-1.252652	-0.886470
C86	C	0.130656	-0.752652	-0.386470
C87	C	-0.312055	-1.313281	-0.835890
C88	C	0.187945	-0.813281	-0.335890
C89	C	-0.306933	-1.318718	-0.741361
C90	C	0.193067	-0.818718	-0.241361
C91	C	-0.416377	-1.202893	-0.748002
C92	C	0.083623	-0.702893	-0.248002
C93	C	-0.421504	-1.197461	-0.842529
C94	C	0.078496	-0.697461	-0.342529
C95	C	-0.328003	-1.296456	-0.125558
C96	C	0.171997	-0.796456	0.374442
C97	C	-0.322307	-1.302416	-0.024944
C98	C	0.177693	-0.802416	0.475056
H99	H	-0.421356	-0.622324	-0.445679
H100	H	0.078644	-0.122324	0.054321
C101	C	-0.473927	-0.944829	-0.501128
C102	C	0.026073	-0.444829	-0.001128
N103	N	-0.517178	-0.981224	-0.546750
N104	N	-0.017178	-0.481224	-0.046750
H105	H	-0.222544	-1.407980	-1.010131
H106	H	0.277456	-0.907980	-0.510131
C107	C	-0.196809	-0.820365	-0.208838
C108	C	0.303191	-0.320365	0.291162
N109	N	-0.149269	-0.862287	-0.158718
N110	N	0.350731	-0.362287	0.341282
H111	H	-0.421111	-1.197857	-1.022195
H112	H	0.078889	-0.697857	-0.522195
C113	C	-0.207668	-0.621843	-0.220268
C114	C	0.292332	-0.121843	0.279732
N115	N	-0.164421	-0.585438	-0.174652
N116	N	0.335579	-0.085438	0.325348
C117	C	-0.243912	-1.385408	-0.685725
C118	C	0.256088	-0.885408	-0.185725
N119	N	-0.196440	-1.435638	-0.643822
N120	N	0.303560	-0.935638	-0.143822
H121	H	-0.468145	-1.148096	-0.883724
H122	H	0.031855	-0.648096	-0.383724
C123	C	-0.473758	-1.142180	-0.699660
C124	C	0.026242	-0.642180	-0.199660
N125	N	-0.516977	-1.096453	-0.663247
N126	N	-0.016977	-0.596453	-0.163247
H127	H	-0.213251	-1.417844	-0.838648
H128	H	0.286749	-0.917844	-0.338648
H129	H	-0.468383	-0.760785	-0.495286
H130	H	0.031617	-0.260785	0.004714
C131	C	-0.243837	-0.958832	-0.258448
C132	C	0.256163	-0.458832	0.241552
N133	N	-0.196299	-1.000760	-0.208331
N134	N	0.303701	-0.500760	0.291669
