data_functionalizedCrystal
_audit_creation_method	'MofGen! by Chris Wilmer'
_symmetry_space_group_name_H-M	'P1'
_symmetry_Int_Tables_number	1
_symmetry_cell_setting	triclinic
loop_
_symmetry_equiv_pos_as_xyz
  x,y,z
_cell_length_a	14.519709
_cell_length_b	13.596369
_cell_length_c	14.519709
_cell_angle_alpha	90.006965
_cell_angle_beta	96.319855
_cell_angle_gamma	90.005176
loop_
_atom_site_label
_atom_site_type_symbol
_atom_site_fract_x
_atom_site_fract_y
_atom_site_fract_z
O1	O	-1.223863	0.081653	0.120893
O2	O	-0.973863	0.331653	0.370893
O3	O	-0.723863	0.581653	0.620893
O4	O	-0.473863	0.831653	0.870893
O5	O	-0.955386	0.081686	0.135130
O6	O	-0.705386	0.331686	0.385130
O7	O	-0.455386	0.581686	0.635130
O8	O	-0.205386	0.831686	0.885130
O9	O	-1.096742	0.081660	-0.006227
O10	O	-0.846742	0.331660	0.243773
O11	O	-0.596742	0.581660	0.493773
O12	O	-0.346742	0.831660	0.743773
O13	O	-1.082506	0.081680	0.262250
O14	O	-0.832506	0.331680	0.512250
O15	O	-0.582506	0.581680	0.762250
O16	O	-0.332506	0.831680	1.012250
O17	O	-1.096740	-0.081923	-0.006236
O18	O	-0.846740	0.168077	0.243764
O19	O	-0.596740	0.418077	0.493764
O20	O	-0.346740	0.668077	0.743764
O21	O	-0.955383	-0.081896	0.135121
O22	O	-0.705383	0.168104	0.385121
O23	O	-0.455383	0.418104	0.635121
O24	O	-0.205383	0.668104	0.885121
O25	O	-1.223860	-0.081929	0.120885
O26	O	-0.973860	0.168071	0.370885
O27	O	-0.723860	0.418071	0.620885
O28	O	-0.473860	0.668071	0.870885
Zn29	Zn	-1.089621	-0.107885	0.128001
Zn30	Zn	-0.839621	0.142115	0.378001
Zn31	Zn	-0.589621	0.392115	0.628001
Zn32	Zn	-0.339621	0.642115	0.878001
Zn33	Zn	-1.089624	0.107642	0.128013
Zn34	Zn	-0.839624	0.357642	0.378013
Zn35	Zn	-0.589624	0.607642	0.628013
Zn36	Zn	-0.339624	0.857642	0.878013
O37	O	-1.082504	-0.081903	0.262241
O38	O	-0.832504	0.168097	0.512241
O39	O	-0.582504	0.418097	0.762241
O40	O	-0.332504	0.668097	1.012241
C41	C	-0.921025	-0.000101	0.134462
C42	C	-0.671025	0.249899	0.384462
C43	C	-0.421025	0.499899	0.634462
C44	C	-0.171025	0.749899	0.884462
C45	C	-0.818643	-0.000089	0.132474
C46	C	-0.568643	0.249911	0.382474
C47	C	-0.318643	0.499911	0.632474
C48	C	-0.068643	0.749911	0.882474
C49	C	-1.096078	-0.000131	-0.040591
C50	C	-0.846078	0.249869	0.209409
C51	C	-0.596078	0.499869	0.459409
C52	C	-0.346078	0.749869	0.709409
C53	C	-1.094090	-0.000132	-0.142972
C54	C	-0.844090	0.249868	0.107028
C55	C	-0.594090	0.499868	0.357028
C56	C	-0.344090	0.749868	0.607028
C57	C	-0.443748	-0.000130	0.125154
C58	C	-0.193748	0.249870	0.375154
C59	C	0.056252	0.499870	0.625154
C60	C	0.306252	0.749870	0.875154
C61	C	-0.548056	-0.000118	0.127187
C62	C	-0.298056	0.249882	0.377187
C63	C	-0.048056	0.499882	0.627187
C64	C	0.201944	0.749882	0.877187
C65	C	-0.631192	-0.000108	0.128814
C66	C	-0.381192	0.249892	0.378814
C67	C	-0.131192	0.499892	0.628814
C68	C	0.118808	0.749892	0.878814
C69	C	-0.735507	-0.000098	0.130847
C70	C	-0.485507	0.249902	0.380847
C71	C	-0.235507	0.499902	0.630847
C72	C	0.014493	0.749902	0.880847
C73	C	-0.258221	-0.000137	0.121553
C74	C	-0.008221	0.249863	0.371553
C75	C	0.241779	0.499863	0.621553
C76	C	0.491779	0.749863	0.871553
C77	C	-0.360602	-0.000136	0.123541
C78	C	-0.110602	0.249864	0.373541
C79	C	0.139398	0.499864	0.623541
C80	C	0.389398	0.749864	0.873541
N81	N	-1.089627	0.254734	0.128014
N82	N	-0.839627	0.504734	0.378014
N83	N	-0.589627	0.754734	0.628014
N84	N	-0.339627	1.004734	0.878014
N85	N	-1.089626	-0.254977	0.127993
N86	N	-0.839626	-0.004977	0.377993
N87	N	-0.589626	0.245023	0.627993
N88	N	-0.339626	0.495023	0.877993
C89	C	-1.089622	0.656025	0.128004
C90	C	-0.839622	0.906025	0.378004
C91	C	-0.589622	1.156025	0.628004
C92	C	-0.339622	1.406025	0.878004
C93	C	-1.089620	0.544374	0.128010
C94	C	-0.839620	0.794374	0.378010
C95	C	-0.589620	1.044374	0.628010
C96	C	-0.339620	1.294374	0.878010
C97	C	-1.089624	0.455383	0.128009
C98	C	-0.839624	0.705383	0.378009
C99	C	-0.589624	0.955383	0.628009
C100	C	-0.339624	1.205383	0.878009
C101	C	-1.089624	0.343725	0.128015
C102	C	-0.839624	0.593725	0.378015
C103	C	-0.589624	0.843725	0.628015
C104	C	-0.339624	1.093725	0.878015
C105	C	-1.086770	-0.000105	-0.517868
C106	C	-0.836770	0.249895	-0.267868
C107	C	-0.586770	0.499895	-0.017868
C108	C	-0.336770	0.749895	0.232132
C109	C	-1.088803	-0.000113	-0.413560
C110	C	-0.838803	0.249887	-0.163560
C111	C	-0.588803	0.499887	0.086440
C112	C	-0.338803	0.749887	0.336440
C113	C	-1.090430	-0.000119	-0.330423
C114	C	-0.840430	0.249881	-0.080423
C115	C	-0.590430	0.499881	0.169577
C116	C	-0.340430	0.749881	0.419577
C117	C	-1.092463	-0.000125	-0.226109
C118	C	-0.842463	0.249875	0.023891
C119	C	-0.592463	0.499875	0.273891
C120	C	-0.342463	0.749875	0.523891
C121	C	-1.083168	-0.000109	0.296605
C122	C	-0.833168	0.249891	0.546605
C123	C	-0.583168	0.499891	0.796605
C124	C	-0.333168	0.749891	1.046605
C125	C	-1.085156	-0.000103	0.398987
C126	C	-0.835156	0.249897	0.648987
C127	C	-0.585156	0.499897	0.898987
C128	C	-0.335156	0.749897	1.148987
