data_functionalizedCrystal
_audit_creation_method	'MofGen! by Chris Wilmer'
_symmetry_space_group_name_H-M	'P1'
_symmetry_Int_Tables_number	1
_symmetry_cell_setting	triclinic
loop_
_symmetry_equiv_pos_as_xyz
  x,y,z
_cell_length_a	12.827893
_cell_length_b	12.827892
_cell_length_c	12.827885
_cell_angle_alpha	90.029786
_cell_angle_beta	90.019272
_cell_angle_gamma	90.015362
loop_
_atom_site_label
_atom_site_type_symbol
_atom_site_fract_x
_atom_site_fract_y
_atom_site_fract_z
Zn1	Zn	-1.597670	0.415983	-0.590849
Zn2	Zn	-1.264336	0.749317	-0.257515
Zn3	Zn	-0.931003	1.082650	0.075818
Zn4	Zn	-1.597564	0.590761	-0.416109
Zn5	Zn	-1.264230	0.924094	-0.082776
Zn6	Zn	-0.930897	1.257427	0.250558
Zn7	Zn	-1.422911	0.416034	-0.416122
Zn8	Zn	-1.089578	0.749367	-0.082789
Zn9	Zn	-0.756244	1.082701	0.250544
Zn10	Zn	-1.422896	0.590683	-0.590809
Zn11	Zn	-1.089563	0.924016	-0.257476
Zn12	Zn	-0.756230	1.257350	0.075858
O13	O	-1.510260	0.503365	-0.503472
O14	O	-1.176927	0.836699	-0.170139
O15	O	-0.843593	1.170032	0.163194
O16	O	-1.743892	0.439179	-0.567680
O17	O	-1.410558	0.772512	-0.234347
O18	O	-1.077225	1.105846	0.098987
O19	O	-1.574357	0.567637	-0.269875
O20	O	-1.241024	0.900970	0.063459
O21	O	-0.907691	1.234303	0.396792
O22	O	-1.446144	0.269791	-0.439322
O23	O	-1.112810	0.603125	-0.105989
O24	O	-0.779477	0.936458	0.227344
O25	O	-1.743814	0.567587	-0.439300
O26	O	-1.410480	0.900921	-0.105966
O27	O	-1.077147	1.234254	0.227367
O28	O	-1.574538	0.269754	-0.567693
O29	O	-1.241205	0.603087	-0.234360
O30	O	-0.907871	0.936421	0.098974
O31	O	-1.446041	0.439266	-0.269884
O32	O	-1.112708	0.772599	0.063449
O33	O	-0.779374	1.105932	0.396782
O34	O	-1.276673	0.439190	-0.439284
O35	O	-0.943340	0.772524	-0.105950
O36	O	-0.610006	1.105857	0.227383
O37	O	-1.446118	0.567455	-0.737050
O38	O	-1.112785	0.900788	-0.403717
O39	O	-0.779452	1.234121	-0.070384
O40	O	-1.276662	0.567504	-0.567625
O41	O	-0.943329	0.900837	-0.234292
O42	O	-0.609996	1.234171	0.099041
O43	O	-1.574524	0.439104	-0.737080
O44	O	-1.241190	0.772437	-0.403746
O45	O	-0.907857	1.105770	-0.070413
O46	O	-1.574343	0.736986	-0.439261
O47	O	-1.241010	1.070320	-0.105928
O48	O	-0.907677	1.403653	0.227406
O49	O	-1.446016	0.736929	-0.567612
O50	O	-1.112682	1.070263	-0.234279
O51	O	-0.779349	1.403596	0.099054
C52	C	-1.238750	0.503345	-0.503452
C53	C	-0.905417	0.836678	-0.170119
C54	C	-0.572084	1.170012	0.163214
C55	C	-1.122597	0.503362	-0.503469
C56	C	-0.789264	0.836695	-0.170135
C57	C	-0.455930	1.170028	0.163198
C58	C	-1.510195	0.774875	-0.503454
C59	C	-1.176861	1.108208	-0.170120
C60	C	-0.843528	1.441542	0.163213
C61	C	-1.510262	0.891028	-0.503481
C62	C	-1.176929	1.224362	-0.170147
C63	C	-0.843596	1.557695	0.163186
C64	C	-1.510331	0.503265	-0.776043
C65	C	-1.176998	0.836598	-0.442709
C66	C	-0.843665	1.169932	-0.109376
C67	C	-1.510362	0.503222	-0.892196
C68	C	-1.177028	0.836555	-0.558862
C69	C	-0.843695	1.169889	-0.225529
C70	C	-1.782830	0.503386	-0.503493
C71	C	-1.449497	0.836720	-0.170159
C72	C	-1.116164	1.170053	0.163174
C73	C	-1.898983	0.503395	-0.503502
C74	C	-1.565650	0.836728	-0.170168
C75	C	-1.232317	1.170062	0.163165
C76	C	-1.070835	0.566954	-0.566878
C77	C	-0.737501	0.900288	-0.233545
C78	C	-0.404168	1.233621	0.099789
C79	C	-0.950784	0.566973	-0.566896
C80	C	-0.617451	0.900306	-0.233563
C81	C	-0.284118	1.233640	0.099770
C82	C	-1.510354	0.230795	-0.503514
C83	C	-1.177021	0.564128	-0.170180
C84	C	-0.843688	0.897462	0.163153
C85	C	-1.510394	0.114642	-0.503531
C86	C	-1.177061	0.447975	-0.170198
C87	C	-0.843728	0.781309	0.163135
C88	C	-1.573838	0.942807	-0.440039
C89	C	-1.240505	1.276140	-0.106706
C90	C	-0.907172	1.609473	0.226628
C91	C	-1.573910	1.062857	-0.440066
C92	C	-1.240576	1.396190	-0.106732
C93	C	-0.907243	1.729524	0.226601
C94	C	-1.573907	0.439697	-0.943995
C95	C	-1.240574	0.773031	-0.610662
C96	C	-0.907241	1.106364	-0.277328
C97	C	-1.573940	0.439652	-1.064045
C98	C	-1.240607	0.772985	-0.730712
C99	C	-0.907274	1.106319	-0.397379
C100	C	-1.510249	0.503390	-0.231962
C101	C	-1.176916	0.836723	0.101371
C102	C	-0.843583	1.170056	0.434704
C103	C	-1.510422	0.503138	-0.115810
C104	C	-1.177088	0.836471	0.217524
C105	C	-0.843755	1.169805	0.550857
H106	H	-1.115396	0.621381	-0.621155
H107	H	-0.782062	0.954714	-0.287822
H108	H	-0.448729	1.288048	0.045511
Br109	Br	-0.973163	0.412651	-0.413002
Br110	Br	-0.639830	0.745985	-0.079668
Br111	Br	-0.306496	1.079318	0.253665
H112	H	-0.906270	0.621420	-0.621181
H113	H	-0.572936	0.954754	-0.287847
H114	H	-0.239603	1.288087	0.045486
Br115	Br	-1.664485	0.868569	-0.349482
Br116	Br	-1.331152	1.201903	-0.016149
Br117	Br	-0.997819	1.535236	0.317185
Br118	Br	-1.664627	1.137066	-0.349523
Br119	Br	-1.331293	1.470399	-0.016189
Br120	Br	-0.997960	1.803733	0.317144
H121	H	-1.078036	0.448927	-0.449199
H122	H	-0.744703	0.782260	-0.115866
H123	H	-0.411369	1.115594	0.217467
H124	H	-1.455975	0.557567	-0.936725
H125	H	-1.122642	0.890901	-0.603392
H126	H	-0.789309	1.224234	-0.270059
Br127	Br	-1.419657	1.040440	-0.594059
Br128	Br	-1.086323	1.373773	-0.260726
Br129	Br	-0.752990	1.707106	0.072607
H130	H	-1.455890	0.935576	-0.557819
H131	H	-1.122557	1.268909	-0.224486
H132	H	-0.789223	1.602242	0.108847
H133	H	-1.628283	0.385342	-0.899465
H134	H	-1.294950	0.718675	-0.566132
H135	H	-0.961617	1.052009	-0.232799
Br136	Br	-1.664632	0.349008	-1.138284
Br137	Br	-1.331299	0.682341	-0.804951
Br138	Br	-0.997965	1.015675	-0.471617
Br139	Br	-1.419745	0.593802	-1.041578
Br140	Br	-1.086411	0.927136	-0.708244
Br141	Br	-0.753078	1.260469	-0.374911
