data_functionalizedCrystal
_audit_creation_method	'MofGen! by Chris Wilmer'
_symmetry_space_group_name_H-M	'P1'
_symmetry_Int_Tables_number	1
_symmetry_cell_setting	triclinic
loop_
_symmetry_equiv_pos_as_xyz
  x,y,z
_cell_length_a	19.188933
_cell_length_b	19.188930
_cell_length_c	8.140239
_cell_angle_alpha	89.991371
_cell_angle_beta	89.998698
_cell_angle_gamma	83.145175
loop_
_atom_site_label
_atom_site_type_symbol
_atom_site_fract_x
_atom_site_fract_y
_atom_site_fract_z
O1	O	0.926142	0.087173	-0.136577
O2	O	1.426142	0.587173	0.363423
O3	O	0.722831	0.098906	-0.136595
O4	O	1.222831	0.598906	0.363405
O5	O	0.830354	-0.008616	-0.136553
O6	O	1.330354	0.491384	0.363447
O7	O	0.818620	0.194695	-0.136619
O8	O	1.318620	0.694695	0.363381
O9	O	0.830348	-0.008617	0.136674
O10	O	1.330348	0.491383	0.636674
O11	O	0.722825	0.098905	0.136632
O12	O	1.222825	0.598905	0.636632
O13	O	0.926136	0.087172	0.136650
O14	O	1.426136	0.587172	0.636650
Zn15	Zn	0.824480	0.093038	0.180022
Zn16	Zn	1.324480	0.593038	0.680022
Zn17	Zn	0.824488	0.093040	-0.179967
Zn18	Zn	1.324488	0.593040	0.320033
O19	O	0.818614	0.194694	0.136609
O20	O	1.318614	0.694694	0.636609
C21	C	0.696817	0.098525	0.000017
C22	C	1.196817	0.598525	0.500017
C23	C	0.619313	0.097384	0.000012
C24	C	1.119313	0.597384	0.500012
C25	C	0.066061	0.089239	-0.148904
C26	C	0.566061	0.589239	0.351096
C27	C	0.138885	0.090307	-0.148911
C28	C	0.638885	0.590307	0.351089
C29	C	0.175299	0.090844	0.000024
C30	C	0.675299	0.590844	0.500024
C31	C	0.138885	0.090295	0.148978
C32	C	0.638885	0.590295	0.648978
C33	C	0.066063	0.089219	0.148980
C34	C	0.566063	0.589219	0.648980
N35	N	0.284316	0.132262	0.110871
N36	N	0.784316	0.632262	0.610871
N37	N	0.353494	0.133285	0.110858
N38	N	0.853494	0.633285	0.610858
C39	C	0.394707	0.094082	0.000026
C40	C	0.894707	0.594082	0.500026
N41	N	0.364129	0.053826	-0.110818
N42	N	0.864129	0.553826	0.389182
N43	N	0.294944	0.052806	-0.110810
N44	N	0.794944	0.552806	0.389190
C45	C	0.254262	0.092009	0.000038
C46	C	0.754262	0.592009	0.500038
C47	C	0.510078	0.095785	-0.148925
C48	C	1.010078	0.595785	0.351075
C49	C	0.582904	0.096848	-0.148925
C50	C	1.082904	0.596848	0.351075
C51	C	0.582901	0.096843	0.148968
C52	C	1.082901	0.596843	0.648968
C53	C	0.510077	0.095772	0.148964
C54	C	1.010077	0.595772	0.648964
C55	C	0.473669	0.095246	0.000013
C56	C	0.973669	0.595246	0.500013
C57	C	0.829971	-0.034628	0.000065
C58	C	1.329971	0.465372	0.500065
C59	C	0.828830	-0.112132	0.000079
C60	C	1.328830	0.387868	0.500079
C61	C	0.891921	-0.157056	0.000092
C62	C	1.391921	0.342944	0.500092
C63	C	0.890849	-0.229880	0.000066
C64	C	1.390849	0.270120	0.500066
C65	C	0.826683	-0.257777	0.000059
C66	C	1.326683	0.242223	0.500059
C67	C	0.763584	-0.212843	0.000036
C68	C	1.263584	0.287157	0.500036
C69	C	0.764658	-0.140021	0.000046
C70	C	1.264658	0.359979	0.500046
N71	N	0.777634	-0.365782	0.093039
N72	N	1.277634	0.134218	0.593039
N73	N	0.776619	-0.434961	0.093033
N74	N	1.276619	0.065039	0.593033
C75	C	0.823445	-0.477185	0.000026
C76	C	1.323445	0.022815	0.500026
N77	N	0.871336	-0.447619	-0.092955
N78	N	1.371336	0.052381	0.407045
N79	N	0.872354	-0.378434	-0.092942
N80	N	1.372354	0.121566	0.407058
C81	C	0.825512	-0.336739	0.000047
C82	C	1.325512	0.163261	0.500047
C83	C	0.885378	-0.601073	0.000008
C84	C	1.385378	-0.101073	0.500008
C85	C	0.884304	-0.673898	-0.000029
C86	C	1.384304	-0.173898	0.499971
C87	C	0.757037	-0.656860	-0.000042
C88	C	1.257037	-0.156860	0.499958
C89	C	0.758113	-0.584037	-0.000021
C90	C	1.258113	-0.084037	0.499979
C91	C	0.822286	-0.556148	0.000011
C92	C	1.322286	-0.056148	0.500011
C93	C	0.952150	0.087553	0.000035
C94	C	1.452150	0.587553	0.500035
C95	C	1.029655	0.088694	0.000029
C96	C	1.529655	0.588694	0.500029
C97	C	0.818997	0.220705	-0.000013
C98	C	1.318997	0.720705	0.499987
C99	C	0.820137	0.298210	-0.000038
C100	C	1.320137	0.798210	0.499962
N101	N	0.824480	0.093037	0.425704
N102	N	1.324480	0.593037	0.925704
N103	N	0.824493	0.093036	-0.425649
N104	N	1.324493	0.593036	0.074351
H105	H	0.612549	0.097277	0.270234
H106	H	1.112549	0.597277	0.770234
H107	H	0.480433	0.095354	-0.270209
H108	H	0.980433	0.595354	0.229791
H109	H	0.942227	-0.266463	0.000070
H110	H	1.442227	0.233537	0.500070
F111	F	0.621650	0.097422	-0.307450
F112	F	1.121650	0.597422	0.192550
F113	F	0.688746	-0.686545	-0.000057
F114	F	1.188746	-0.186545	0.499943
H115	H	0.713280	-0.103444	0.000036
H116	H	1.213280	0.396556	0.500036
F117	F	0.027317	0.088676	-0.307432
F118	F	0.527317	0.588676	0.192568
H119	H	0.711340	-0.235562	0.000027
H120	H	1.211340	0.264438	0.500027
F121	F	0.177640	0.090863	0.307485
F122	F	0.677640	0.590863	0.807485
F123	F	0.953675	-0.571389	0.000050
F124	F	1.453675	-0.071389	0.500050
H125	H	0.036421	0.088778	0.270263
H126	H	0.536421	0.588778	0.770263
H127	H	0.935682	-0.710475	-0.000027
H128	H	1.435682	-0.210475	0.499973
F129	F	0.960219	-0.127379	0.000091
F130	F	1.460219	0.372621	0.500091
H131	H	0.480435	0.095330	0.270242
H132	H	0.980435	0.595330	0.770242
F133	F	0.690962	-0.536224	-0.000029
F134	F	1.190962	-0.036224	0.499971
H135	H	0.168532	0.090755	-0.270194
H136	H	0.668532	0.590755	0.229806
