data_functionalizedCrystal
_audit_creation_method	'MofGen! by Chris Wilmer'
_symmetry_space_group_name_H-M	'P1'
_symmetry_Int_Tables_number	1
_symmetry_cell_setting	triclinic
loop_
_symmetry_equiv_pos_as_xyz
  x,y,z
_cell_length_a	18.215407
_cell_length_b	16.120484
_cell_length_c	18.215399
_cell_angle_alpha	92.869789
_cell_angle_beta	89.980167
_cell_angle_gamma	92.926015
loop_
_atom_site_label
_atom_site_type_symbol
_atom_site_fract_x
_atom_site_fract_y
_atom_site_fract_z
Zn1	Zn	1.110213	-0.331906	-0.430960
Zn2	Zn	1.103879	-0.471328	-0.314129
Zn3	Zn	0.987144	-0.331934	-0.307908
Zn4	Zn	0.980871	-0.471282	-0.437152
O5	O	1.045527	-0.401612	-0.372537
O6	O	1.212356	-0.350409	-0.415474
O7	O	1.088368	-0.452868	-0.210321
O8	O	1.008745	-0.215264	-0.319037
O9	O	1.207703	-0.452841	-0.329639
O10	O	1.099163	-0.215244	-0.409442
O11	O	1.002604	-0.350456	-0.205751
O12	O	0.883328	-0.350411	-0.325041
O13	O	0.998054	-0.452762	-0.539313
O14	O	0.878719	-0.452789	-0.419995
O15	O	1.093081	-0.350364	-0.534764
O16	O	1.082286	-0.587988	-0.335643
O17	O	0.991913	-0.587954	-0.426027
C18	C	0.854321	-0.401598	-0.372516
C19	C	0.772522	-0.401612	-0.372525
C20	C	0.581943	-0.455004	-0.421912
C21	C	0.505085	-0.455007	-0.421921
C22	C	0.509861	-0.348236	-0.323179
C23	C	0.586719	-0.348229	-0.323174
C24	C	0.622758	-0.401619	-0.372540
C25	C	0.469041	-0.401627	-0.372554
C26	C	0.385708	-0.401630	-0.372564
C27	C	0.706097	-0.401615	-0.372531
C28	C	1.035751	-0.618221	-0.382198
C29	C	1.031637	-0.710887	-0.386356
C30	C	1.024129	-0.880549	-0.393961
C31	C	1.067056	-0.921836	-0.351125
C32	C	1.062879	-1.016241	-0.355357
C33	C	1.028305	-0.786135	-0.389730
C34	C	1.237479	-0.401627	-0.372560
C35	C	1.319277	-0.401634	-0.372569
C36	C	1.045574	-0.401555	-0.564488
C37	C	1.045594	-0.401530	-0.646286
C38	C	1.055360	-0.184158	-0.362855
C39	C	1.059551	-0.091492	-0.358729
C40	C	1.095094	-0.348162	-0.832110
C41	C	1.095104	-0.348138	-0.908967
C42	C	0.996153	-0.454770	-0.913694
C43	C	0.996140	-0.454790	-0.836837
C44	C	1.045615	-0.401487	-0.796047
C45	C	1.045637	-0.401443	-0.949761
C46	C	1.045648	-0.401417	-1.033094
C47	C	1.045603	-0.401511	-0.712709
C48	C	1.045524	-0.401610	-0.181331
C49	C	1.045657	-0.401399	-0.099523
H50	H	0.619951	-0.304751	-0.282969
H51	H	1.135393	-0.304714	-0.938326
H52	H	0.480509	-0.304769	-0.282986
O53	O	1.114575	-0.879298	-0.303594
C54	C	1.162160	-0.745051	-0.256035
C55	C	1.108307	-0.793125	-0.309885
H56	H	1.157122	-0.675371	-0.261113
H57	H	1.148522	-0.762114	-0.197418
H58	H	1.220750	-0.762086	-0.269746
H59	H	1.049699	-0.776115	-0.296241
H60	H	1.122009	-0.776057	-0.368486
O61	O	0.948169	-0.506523	-0.953431
C62	C	0.904305	-0.553718	-1.073925
C63	C	0.958697	-0.495077	-1.029016
H64	H	0.912787	-0.544472	-1.135043
H65	H	0.914188	-0.620966	-1.061862
H66	H	0.845631	-0.539087	-1.058108
H67	H	1.017392	-0.509632	-1.044807
H68	H	0.948750	-0.427847	-1.041083
O69	O	0.976558	-0.923086	-0.441433
C70	C	0.929023	-1.057339	-0.489028
C71	C	0.982919	-1.009257	-0.435226
H72	H	0.934158	-1.127017	-0.484038
H73	H	0.870408	-1.040413	-0.475298
H74	H	0.942640	-1.040172	-0.547622
H75	H	0.969369	-1.026397	-0.376613
H76	H	1.041518	-1.026186	-0.449018
H77	H	1.135377	-0.304757	-0.798901
H78	H	0.955843	-0.498213	-0.807474
H79	H	0.471857	-0.498478	-0.462126
O80	O	0.616838	-0.506885	-0.469939
C81	C	0.603983	-0.612815	-0.567855
C82	C	0.564376	-0.554092	-0.513511
H83	H	0.561585	-0.651010	-0.603087
H84	H	0.641683	-0.574629	-0.604732
H85	H	0.638010	-0.656325	-0.535935
H86	H	0.530309	-0.510571	-0.545371
H87	H	0.526720	-0.592330	-0.476634
