data_functionalizedCrystal
_audit_creation_method	'MofGen! by Chris Wilmer'
_symmetry_space_group_name_H-M	'P1'
_symmetry_Int_Tables_number	1
_symmetry_cell_setting	triclinic
loop_
_symmetry_equiv_pos_as_xyz
  x,y,z
_cell_length_a	29.839135
_cell_length_b	29.839131
_cell_length_c	19.805399
_cell_angle_alpha	89.969027
_cell_angle_beta	89.980825
_cell_angle_gamma	90.043950
loop_
_atom_site_label
_atom_site_type_symbol
_atom_site_fract_x
_atom_site_fract_y
_atom_site_fract_z
Zn1	Zn	0.686736	-0.178827	-0.382752
Zn2	Zn	1.020069	0.154506	-0.049418
Zn3	Zn	1.353403	0.487839	0.283915
Zn4	Zn	0.686663	-0.253957	-0.269559
Zn5	Zn	1.019997	0.079377	0.063774
Zn6	Zn	1.353330	0.412710	0.397107
Zn7	Zn	0.611614	-0.178845	-0.269572
Zn8	Zn	0.944947	0.154489	0.063762
Zn9	Zn	1.278281	0.487822	0.397095
Zn10	Zn	0.611567	-0.253934	-0.382702
Zn11	Zn	0.944900	0.079399	-0.049368
Zn12	Zn	1.278233	0.412732	0.283965
O13	O	0.649145	-0.216391	-0.326146
O14	O	0.982478	0.116943	0.007187
O15	O	1.315812	0.450276	0.340521
O16	O	0.749593	-0.188795	-0.367752
O17	O	1.082927	0.144538	-0.034419
O18	O	1.416260	0.477871	0.298914
O19	O	0.676697	-0.244010	-0.174844
O20	O	1.010031	0.089324	0.158489
O21	O	1.343364	0.422657	0.491822
O22	O	0.621629	-0.115975	-0.284611
O23	O	0.954963	0.217358	0.048722
O24	O	1.288296	0.550691	0.382055
O25	O	0.749540	-0.243993	-0.284590
O26	O	1.082873	0.089341	0.048743
O27	O	1.416207	0.422674	0.382076
O28	O	0.676821	-0.115962	-0.367764
O29	O	1.010155	0.217371	-0.034431
O30	O	1.343488	0.550704	0.298903
O31	O	0.621559	-0.188825	-0.174853
O32	O	0.954892	0.144508	0.158480
O33	O	1.288226	0.477841	0.491813
O34	O	0.548741	-0.188803	-0.284563
O35	O	0.882074	0.144530	0.048770
O36	O	1.215407	0.477863	0.382104
O37	O	0.621549	-0.243954	-0.477425
O38	O	0.954882	0.089379	-0.144092
O39	O	1.288215	0.422712	0.189242
O40	O	0.548706	-0.243971	-0.367679
O41	O	0.882039	0.089362	-0.034346
O42	O	1.215372	0.422695	0.298988
O43	O	0.676775	-0.188774	-0.477462
O44	O	1.010109	0.144560	-0.144128
O45	O	1.343442	0.477893	0.189205
O46	O	0.676651	-0.316821	-0.284542
O47	O	1.009985	0.016513	0.048791
O48	O	1.343318	0.349846	0.382125
O49	O	0.621478	-0.316804	-0.367667
O50	O	0.954811	0.016529	-0.034334
O51	O	1.288145	0.349862	0.299000
C52	C	0.532422	-0.216387	-0.326117
C53	C	0.865756	0.116946	0.007216
C54	C	1.199089	0.450279	0.340549
C55	C	0.482488	-0.216397	-0.326121
C56	C	0.815821	0.116937	0.007212
C57	C	1.149155	0.450270	0.340546
C58	C	0.172869	-0.187693	-0.369512
C59	C	0.506203	0.145640	-0.036179
C60	C	0.839536	0.478974	0.297154
C61	C	-0.014804	-0.187696	-0.369532
C62	C	0.318530	0.145637	-0.036198
C63	C	0.651863	0.478971	0.297135
O64	O	-0.039047	-0.163281	-0.406392
O65	O	0.294286	0.170052	-0.073059
O66	O	0.627619	0.503386	0.260274
N67	N	-0.038297	-0.216391	-0.326171
N68	N	0.295036	0.116942	0.007162
N69	N	0.628370	0.450276	0.340496
C70	C	-0.014869	-0.245085	-0.282799
C71	C	0.318464	0.088248	0.050534
C72	C	0.651797	0.421581	0.383867
O73	O	-0.039158	-0.269489	-0.245914
O74	O	0.294175	0.063844	0.087419
O75	O	0.627508	0.397178	0.420753
C76	C	0.172803	-0.245080	-0.282777
C77	C	0.506136	0.088254	0.050556
C78	C	0.839469	0.421587	0.383889
C79	C	0.196294	-0.216386	-0.326145
C80	C	0.529627	0.116947	0.007188
C81	C	0.862960	0.450281	0.340521
C82	C	0.196360	-0.159001	-0.412876
C83	C	0.529694	0.174332	-0.079543
C84	C	0.863027	0.507665	0.253790
C85	C	0.243276	-0.159003	-0.412874
C86	C	0.576609	0.174331	-0.079540
C87	C	0.909943	0.507664	0.253793
C88	C	0.266700	-0.187695	-0.369507
C89	C	0.600034	0.145638	-0.036174
C90	C	0.933367	0.478971	0.297160
C91	C	0.243209	-0.216387	-0.326143
C92	C	0.576543	0.116946	0.007191
C93	C	0.909876	0.450279	0.340524
C94	C	0.196230	-0.273771	-0.239403
C95	C	0.529563	0.059562	0.093931
C96	C	0.862896	0.392895	0.427264
C97	C	0.243151	-0.273767	-0.239400
C98	C	0.576484	0.059567	0.093934
C99	C	0.909817	0.392900	0.427267
C100	C	0.266642	-0.245073	-0.282768
C101	C	0.599975	0.088260	0.050565
C102	C	0.933308	0.421594	0.383899
C103	C	0.313549	-0.245081	-0.282773
C104	C	0.646882	0.088252	0.050560
C105	C	0.980216	0.421585	0.383893
N106	N	0.337043	-0.216386	-0.326134
N107	N	0.670376	0.116947	0.007199
N108	N	1.003709	0.450280	0.340533
C109	C	0.313618	-0.187693	-0.369501
C110	C	0.646951	0.145640	-0.036167
C111	C	0.980285	0.478973	0.297166
C112	C	-0.113400	-0.245087	-0.282815
C113	C	0.219933	0.088246	0.050518
C114	C	0.553267	0.421580	0.383852
C115	C	-0.160318	-0.245089	-0.282821
C116	C	0.173015	0.088244	0.050512
C117	C	0.506349	0.421578	0.383845
C118	C	-0.160249	-0.187699	-0.369553
C119	C	0.173084	0.145634	-0.036219
C120	C	0.506418	0.478968	0.297114
C121	C	-0.113330	-0.187700	-0.369549
C122	C	0.220003	0.145634	-0.036216
C123	C	0.553336	0.478967	0.297117
C124	C	-0.089907	-0.216392	-0.326176
C125	C	0.243427	0.116941	0.007158
C126	C	0.576760	0.450275	0.340491
C127	C	0.412144	-0.187698	-0.369492
C128	C	0.745477	0.145635	-0.036159
C129	C	1.078811	0.478968	0.297174
C130	C	0.459064	-0.187704	-0.369488
C131	C	0.792397	0.145630	-0.036154
C132	C	1.125730	0.478963	0.297179
C133	C	0.458990	-0.245092	-0.282754
C134	C	0.792324	0.088242	0.050579
C135	C	1.125657	0.421575	0.383913
C136	C	0.412075	-0.245089	-0.282761
C137	C	0.745408	0.088245	0.050573
C138	C	1.078742	0.421578	0.383906
C139	C	0.388653	-0.216388	-0.326132
C140	C	0.721986	0.116945	0.007201
C141	C	1.055320	0.450278	0.340535
O142	O	0.337822	-0.269480	-0.245927
O143	O	0.671155	0.063853	0.087407
O144	O	1.004488	0.397187	0.420740
O145	O	0.337915	-0.163286	-0.406370
O146	O	0.671248	0.170047	-0.073037
O147	O	1.004582	0.503380	0.260297
C148	C	0.125954	-0.187692	-0.369515
C149	C	0.459287	0.145642	-0.036182
C150	C	0.792621	0.478975	0.297152
C151	C	0.102463	-0.216383	-0.326151
C152	C	0.435796	0.116950	0.007183
C153	C	0.769130	0.450283	0.340516
C154	C	0.125887	-0.245076	-0.282784
C155	C	0.459221	0.088257	0.050549
C156	C	0.792554	0.421590	0.383883
C157	C	0.055545	-0.216386	-0.326157
C158	C	0.388878	0.116948	0.007176
C159	C	0.722212	0.450281	0.340510
C160	C	0.032121	-0.187693	-0.369524
C161	C	0.365454	0.145641	-0.036190
C162	C	0.698787	0.478974	0.297143
C163	C	0.055614	-0.158998	-0.412884
C164	C	0.388947	0.174336	-0.079551
C165	C	0.722281	0.507669	0.253782
C166	C	0.102530	-0.158999	-0.412882
C167	C	0.435863	0.174335	-0.079548
C168	C	0.769196	0.507668	0.253785
C169	C	0.102394	-0.273772	-0.239423
C170	C	0.435727	0.059562	0.093910
C171	C	0.769060	0.392895	0.427243
C172	C	0.055478	-0.273768	-0.239430
C173	C	0.388812	0.059565	0.093903
C174	C	0.722145	0.392898	0.427237
C175	C	0.032054	-0.245075	-0.282797
C176	C	0.365387	0.088258	0.050536
C177	C	0.698721	0.421591	0.383870
C178	C	0.649064	-0.333113	-0.326113
C179	C	0.982397	0.000220	0.007221
C180	C	1.315731	0.333553	0.340554
C181	C	0.649070	-0.383048	-0.326121
C182	C	0.982404	-0.049714	0.007213
C183	C	1.315737	0.283619	0.340546
C184	C	0.677926	-0.692687	-0.282926
C185	C	1.011259	-0.359354	0.050407
C186	C	1.344593	-0.026020	0.383741
C187	C	0.677981	-0.880360	-0.282952
C188	C	1.011315	-0.547027	0.050381
C189	C	1.344648	-0.213693	0.383714
O190	O	0.702451	-0.904621	-0.246201
O191	O	1.035784	-0.571288	0.087132
O192	O	1.369118	-0.237955	0.420466
N193	N	0.649238	-0.903833	-0.326197
N194	N	0.982571	-0.570499	0.007136
N195	N	1.315905	-0.237166	0.340469
C196	C	0.620481	-0.880384	-0.369442
C197	C	0.953814	-0.547051	-0.036108
C198	C	1.287148	-0.213718	0.297225
O199	O	0.596038	-0.904655	-0.406229
O200	O	0.929371	-0.571322	-0.072896
O201	O	1.262704	-0.237989	0.260437
C202	C	0.620428	-0.692712	-0.369418
C203	C	0.953762	-0.359379	-0.036085
C204	C	1.287095	-0.026045	0.297248
C205	C	0.649170	-0.669242	-0.326166
C206	C	0.982503	-0.335908	0.007168
C207	C	1.315837	-0.002575	0.340501
C208	C	0.706666	-0.669217	-0.239678
C209	C	1.039999	-0.335883	0.093656
C210	C	1.373333	-0.002550	0.426989
C211	C	0.706650	-0.622301	-0.239669
C212	C	1.039983	-0.288968	0.093664
C213	C	1.373317	0.044365	0.426998
C214	C	0.677894	-0.598856	-0.282909
C215	C	1.011227	-0.265523	0.050425
C216	C	1.344561	0.067811	0.383758
C217	C	0.649154	-0.622326	-0.326157
C218	C	0.982488	-0.288993	0.007176
C219	C	1.315821	0.044340	0.340510
C220	C	0.591674	-0.669265	-0.412666
C221	C	0.925007	-0.335931	-0.079332
C222	C	1.258340	-0.002598	0.254001
C223	C	0.591664	-0.622344	-0.412657
C224	C	0.924997	-0.289010	-0.079324
C225	C	1.258330	0.044323	0.254010
C226	C	0.620406	-0.598873	-0.369405
C227	C	0.953739	-0.265540	-0.036071
C228	C	1.287072	0.067793	0.297262
C229	C	0.620383	-0.551966	-0.369388
C230	C	0.953716	-0.218632	-0.036055
C231	C	1.287049	0.114701	0.297279
N232	N	0.649126	-0.528493	-0.326143
N233	N	0.982459	-0.195160	0.007190
N234	N	1.315792	0.138174	0.340523
C235	C	0.677882	-0.551938	-0.282904
C236	C	1.011215	-0.218605	0.050430
C237	C	1.344548	0.114728	0.383763
C238	C	0.620510	-0.978915	-0.369450
C239	C	0.953844	-0.645582	-0.036117
C240	C	1.287177	-0.312248	0.297217
C241	C	0.620523	-1.025833	-0.369455
C242	C	0.953856	-0.692499	-0.036122
C243	C	1.287189	-0.359166	0.297212
C244	C	0.678024	-1.025805	-0.282967
C245	C	1.011357	-0.692472	0.050367
C246	C	1.344690	-0.359139	0.383700
C247	C	0.678009	-0.978887	-0.282958
C248	C	1.011342	-0.645553	0.050375
C249	C	1.344675	-0.312220	0.383708
C250	C	0.649253	-0.955442	-0.326205
C251	C	0.982587	-0.622109	0.007128
C252	C	1.315920	-0.288776	0.340462
C253	C	0.677846	-0.453412	-0.282888
C254	C	1.011179	-0.120079	0.050445
C255	C	1.344512	0.213254	0.383779
C256	C	0.677826	-0.406493	-0.282881
C257	C	1.011159	-0.073160	0.050452
C258	C	1.344493	0.260174	0.383785
C259	C	0.620327	-0.406524	-0.369372
C260	C	0.953660	-0.073191	-0.036039
C261	C	1.286994	0.260142	0.297295
C262	C	0.620345	-0.453440	-0.369377
C263	C	0.953678	-0.120107	-0.036043
C264	C	1.287011	0.213227	0.297290
C265	C	0.649108	-0.476883	-0.326132
C266	C	0.982441	-0.143549	0.007201
C267	C	1.315775	0.189784	0.340534
O268	O	0.595929	-0.527676	-0.406126
O269	O	0.929262	-0.194342	-0.072792
O270	O	1.262596	0.138991	0.260541
O271	O	0.702328	-0.527659	-0.246132
O272	O	1.035662	-0.194326	0.087202
O273	O	1.368995	0.139008	0.420535
C274	C	0.677942	-0.739602	-0.282935
C275	C	1.011275	-0.406269	0.050398
C276	C	1.344608	-0.072936	0.383732
C277	C	0.649202	-0.763073	-0.326183
C278	C	0.982535	-0.429739	0.007150
C279	C	1.315869	-0.096406	0.340483
C280	C	0.620446	-0.739628	-0.369423
C281	C	0.953779	-0.406294	-0.036090
C282	C	1.287113	-0.072961	0.297244
C283	C	0.649214	-0.809991	-0.326188
C284	C	0.982548	-0.476657	0.007145
C285	C	1.315881	-0.143324	0.340478
C286	C	0.677970	-0.833436	-0.282949
C287	C	1.011304	-0.500102	0.050385
C288	C	1.344637	-0.166769	0.383718
C289	C	0.706713	-0.809963	-0.239704
C290	C	1.040047	-0.476630	0.093629
C291	C	1.373380	-0.143296	0.426963
C292	C	0.706698	-0.763048	-0.239695
C293	C	1.040031	-0.429714	0.093638
C294	C	1.373364	-0.096381	0.426971
C295	C	0.591703	-0.763100	-0.412668
C296	C	0.925036	-0.429767	-0.079334
C297	C	1.258369	-0.096434	0.253999
C298	C	0.591721	-0.810016	-0.412672
C299	C	0.925054	-0.476682	-0.079339
C300	C	1.258387	-0.143349	0.253994
C301	C	0.620476	-0.833461	-0.369433
C302	C	0.953810	-0.500128	-0.036099
C303	C	1.287143	-0.166794	0.297234
C304	C	0.766323	-0.216394	-0.326176
C305	C	1.099657	0.116939	0.007158
C306	C	1.432990	0.450272	0.340491
C307	C	0.816258	-0.216396	-0.326188
C308	C	1.149591	0.116937	0.007145
C309	C	1.482924	0.450271	0.340479
C310	C	0.649165	-0.216360	-0.502689
C311	C	0.982498	0.116974	-0.169356
C312	C	1.315831	0.450307	0.163978
C313	C	0.649173	-0.216346	-0.577921
C314	C	0.982506	0.116987	-0.244588
C315	C	1.315840	0.450320	0.088746
C316	C	0.649239	-0.099212	-0.326195
C317	C	0.982572	0.234121	0.007139
C318	C	1.315905	0.567454	0.340472
C319	C	0.649279	-0.049278	-0.326215
C320	C	0.982612	0.284055	0.007118
C321	C	1.315945	0.617389	0.340451
C322	C	0.620471	-0.187609	-0.613269
C323	C	0.953804	0.145724	-0.279936
C324	C	1.287137	0.479058	0.053397
C325	C	0.620477	-0.187600	-0.683958
C326	C	0.953810	0.145733	-0.350624
C327	C	1.287144	0.479066	-0.017291
C328	C	0.649188	-0.216327	-0.719297
C329	C	0.982521	0.117007	-0.385963
C330	C	1.315855	0.450340	-0.052630
C331	C	0.677892	-0.245067	-0.683943
C332	C	1.011225	0.088266	-0.350610
C333	C	1.344558	0.421599	-0.017277
C334	C	0.677883	-0.245078	-0.613256
C335	C	1.011216	0.088255	-0.279923
C336	C	1.344550	0.421589	0.053411
C337	C	0.677927	-0.245025	-0.969017
C338	C	1.011261	0.088308	-0.635683
C339	C	1.344594	0.421641	-0.302350
C340	C	0.677935	-0.245011	-1.039709
C341	C	1.011268	0.088322	-0.706376
C342	C	1.344602	0.421655	-0.373042
C343	C	0.620521	-0.187548	-1.039718
C344	C	0.953855	0.145786	-0.706385
C345	C	1.287188	0.479119	-0.373052
C346	C	0.620512	-0.187558	-0.969031
C347	C	0.953846	0.145775	-0.635698
C348	C	1.287179	0.479108	-0.302365
C349	C	0.649214	-0.216300	-0.933684
C350	C	0.982548	0.117033	-0.600351
C351	C	1.315881	0.450367	-0.267017
C352	C	0.649207	-0.216310	-0.857036
C353	C	0.982540	0.117024	-0.523702
C354	C	1.315873	0.450357	-0.190369
C355	C	0.649198	-0.216315	-0.795944
C356	C	0.982532	0.117018	-0.462610
C357	C	1.315865	0.450352	-0.129277
C358	C	0.649151	-0.216389	-0.150290
C359	C	0.982485	0.116944	0.183043
C360	C	1.315818	0.450277	0.516377
C361	C	0.649230	-0.216276	-0.075059
C362	C	0.982563	0.117057	0.258275
C363	C	1.315897	0.450391	0.591608
H364	H	-0.094207	-0.164334	-0.404862
H365	H	0.239126	0.169000	-0.071529
H366	H	0.572460	0.502333	0.261804
N367	N	0.707246	-0.274371	-0.932898
N368	N	1.040579	0.058962	-0.599565
N369	N	1.373913	0.392295	-0.266232
N370	N	0.691420	-0.303004	-0.893429
N371	N	1.024753	0.030330	-0.560096
N372	N	1.358086	0.363663	-0.226762
H373	H	0.712129	-0.323727	-0.867914
H374	H	1.045462	0.009606	-0.534580
H375	H	1.378796	0.342939	-0.201247
H376	H	0.036356	-0.297139	-0.204116
H377	H	0.369689	0.036195	0.129218
H378	H	0.703023	0.369528	0.462551
H379	H	0.392948	-0.268458	-0.247455
H380	H	0.726281	0.064875	0.085879
H381	H	1.059614	0.398208	0.419212
N382	N	-0.184188	-0.158394	-0.413850
N383	N	0.149145	0.174939	-0.080517
N384	N	0.482479	0.508273	0.252817
N385	N	-0.226078	-0.158403	-0.413843
N386	N	0.107255	0.174930	-0.080510
N387	N	0.440588	0.508263	0.252824
H388	H	-0.242988	-0.137706	-0.445123
H389	H	0.090345	0.195627	-0.111790
H390	H	0.423679	0.528960	0.221543
N391	N	0.562311	-0.693224	-0.456852
N392	N	0.895644	-0.359891	-0.123518
N393	N	1.228977	-0.026557	0.209815
N394	N	0.536644	-0.672276	-0.495455
N395	N	0.869977	-0.338943	-0.162122
N396	N	1.203310	-0.005610	0.171212
H397	H	0.515905	-0.689197	-0.526666
H398	H	0.849238	-0.355863	-0.193332
H399	H	1.182571	-0.022530	0.140001
N400	N	0.707213	-0.274412	-0.720049
N401	N	1.040547	0.058921	-0.386716
N402	N	1.373880	0.392255	-0.053382
N403	N	0.707218	-0.274399	-0.783162
N404	N	1.040551	0.058934	-0.449829
N405	N	1.373885	0.392268	-0.116495
H406	H	0.727927	-0.295124	-0.808662
H407	H	1.061261	0.038209	-0.475329
H408	H	1.394594	0.371543	-0.141995
N409	N	0.031675	-0.129694	-0.457183
N410	N	0.365008	0.203639	-0.123850
N411	N	0.698341	0.536973	0.209483
N412	N	-0.010216	-0.129702	-0.457174
N413	N	0.323118	0.203631	-0.123841
N414	N	0.656451	0.536964	0.209492
H415	H	-0.027126	-0.109007	-0.488457
H416	H	0.306208	0.224326	-0.155123
H417	H	0.639541	0.557660	0.178210
N418	N	-0.184303	-0.274409	-0.238528
N419	N	0.149030	0.058924	0.094805
N420	N	0.482363	0.392258	0.428139
N421	N	-0.163378	-0.300024	-0.199813
N422	N	0.169956	0.033309	0.133520
N423	N	0.503289	0.366643	0.466853
H424	H	-0.180316	-0.320732	-0.168527
H425	H	0.153018	0.012602	0.164806
H426	H	0.486351	0.345935	0.498139
N427	N	0.562295	-0.598389	-0.456833
N428	N	0.895629	-0.265056	-0.123500
N429	N	1.228962	0.068277	0.209834
N430	N	0.578076	-0.572173	-0.499982
N431	N	0.911409	-0.238840	-0.166649
N432	N	1.244743	0.094494	0.166685
H433	H	0.557335	-0.555255	-0.531180
H434	H	0.890668	-0.221922	-0.197847
H435	H	1.224001	0.111412	0.135486
H436	H	0.478071	-0.268454	-0.247447
H437	H	0.811404	0.064880	0.085886
H438	H	1.144738	0.398213	0.419219
H439	H	0.597150	-0.164146	-1.068507
H440	H	0.930483	0.169187	-0.735173
H441	H	1.263816	0.502521	-0.401840
H442	H	0.701268	-0.472494	-0.247676
H443	H	1.034602	-0.139161	0.085657
H444	H	1.367935	0.194173	0.418991
H445	H	0.701259	-0.268475	-0.584476
H446	H	1.034592	0.064858	-0.251143
H447	H	1.367925	0.398191	0.082190
N448	N	0.590977	-0.477419	-0.413540
N449	N	0.924310	-0.144085	-0.080207
N450	N	1.257644	0.189248	0.253126
N451	N	0.549522	-0.472229	-0.408985
N452	N	0.882856	-0.138896	-0.075651
N453	N	1.216189	0.194437	0.257682
H454	H	0.528783	-0.489162	-0.440178
H455	H	0.862116	-0.155829	-0.106845
H456	H	1.195449	0.177504	0.226488
N457	N	0.483052	-0.158391	-0.413797
N458	N	0.816385	0.174942	-0.080464
N459	N	1.149718	0.508275	0.252870
N460	N	0.462128	-0.132775	-0.452512
N461	N	0.795461	0.200558	-0.119179
N462	N	1.128794	0.533892	0.214154
H463	H	0.479067	-0.112073	-0.483805
H464	H	0.812401	0.221260	-0.150472
H465	H	1.145734	0.554593	0.182862
N466	N	0.388230	-0.158383	-0.413804
N467	N	0.721564	0.174950	-0.080471
N468	N	1.054897	0.508283	0.252863
N469	N	0.409218	-0.132773	-0.452521
N470	N	0.742551	0.200560	-0.119187
N471	N	1.075884	0.533893	0.214146
H472	H	0.392329	-0.112072	-0.483821
H473	H	0.725663	0.221261	-0.150488
H474	H	1.058996	0.554594	0.182845
H475	H	0.701316	-0.268406	-1.068480
H476	H	1.034649	0.064928	-0.735147
H477	H	1.367983	0.398261	-0.401813
H478	H	0.596913	-0.387428	-0.404575
H479	H	0.930246	-0.054095	-0.071242
H480	H	1.263579	0.279239	0.262092
N481	N	0.267261	-0.129690	-0.457179
N482	N	0.600594	0.203643	-0.123846
N483	N	0.933928	0.536976	0.209487
N484	N	0.246333	-0.104076	-0.495893
N485	N	0.579666	0.229257	-0.162560
N486	N	0.913000	0.562591	0.170773
H487	H	0.263269	-0.083372	-0.527187
H488	H	0.596603	0.249961	-0.193853
H489	H	0.929936	0.583294	0.139480
N490	N	0.591185	-0.158209	-0.932945
N491	N	0.924518	0.175124	-0.599611
N492	N	1.257851	0.508458	-0.266278
N493	N	0.565559	-0.132553	-0.964515
N494	N	0.898892	0.200781	-0.631181
N495	N	1.232225	0.534114	-0.297848
H496	H	0.544844	-0.111825	-0.939030
H497	H	0.878178	0.221509	-0.605697
H498	H	1.211511	0.554842	-0.272363
N499	N	0.591153	-1.049797	-0.413630
N500	N	0.924487	-0.716464	-0.080296
N501	N	1.257820	-0.383130	0.253037
N502	N	0.565482	-1.028853	-0.452231
N503	N	0.898815	-0.695519	-0.118897
N504	N	1.232149	-0.362186	0.214436
H505	H	0.544740	-1.045776	-0.483433
H506	H	0.878073	-0.712442	-0.150100
H507	H	1.211406	-0.379109	0.183234
H508	H	0.121652	-0.135633	-0.448196
H509	H	0.454985	0.197700	-0.114863
H510	H	0.788319	0.531034	0.218470
H511	H	0.730102	-0.743941	-0.204475
H512	H	1.063435	-0.410608	0.128858
H513	H	1.396769	-0.077275	0.462191
N514	N	0.126324	-0.303078	-0.195124
N515	N	0.459657	0.030255	0.138209
N516	N	0.792990	0.363589	0.471543
N517	N	0.152506	-0.287240	-0.152031
N518	N	0.485839	0.046093	0.181303
N519	N	0.819172	0.379427	0.514636
H520	H	0.169405	-0.307941	-0.120743
H521	H	0.502739	0.025393	0.212590
H522	H	0.836072	0.358726	0.545924
H523	H	0.701231	-0.387385	-0.247657
H524	H	1.034564	-0.054051	0.085676
H525	H	1.367898	0.279282	0.419009
H526	H	0.597093	-0.959830	-0.404667
H527	H	0.930426	-0.626496	-0.071334
H528	H	1.263760	-0.293163	0.261999
H529	H	0.177293	-0.135633	-0.448191
H530	H	0.510627	0.197700	-0.114858
H531	H	0.843960	0.531033	0.218476
H532	H	0.730126	-0.829060	-0.204495
H533	H	1.063460	-0.495727	0.128839
H534	H	1.396793	-0.162394	0.462172
N535	N	0.736013	-0.598338	-0.195484
N536	N	1.069346	-0.265004	0.137849
N537	N	1.402680	0.068329	0.471183
N538	N	0.761684	-0.619284	-0.156885
N539	N	1.095018	-0.285951	0.176448
N540	N	1.428351	0.047383	0.509781
H541	H	0.782425	-0.602363	-0.125678
H542	H	1.115758	-0.269029	0.207655
H543	H	1.449091	0.064304	0.540989
H544	H	0.730085	-0.688301	-0.204467
H545	H	1.063418	-0.354967	0.128867
H546	H	1.396751	-0.021634	0.462200
H547	H	-0.094333	-0.268453	-0.247493
H548	H	0.239000	0.064880	0.085840
H549	H	0.572334	0.398213	0.419174
N550	N	0.707369	-0.954921	-0.238772
N551	N	1.040703	-0.621588	0.094562
N552	N	1.374036	-0.288255	0.427895
N553	N	0.733038	-0.975866	-0.200167
N554	N	1.066372	-0.642532	0.133166
N555	N	1.399705	-0.309199	0.466500
H556	H	0.753776	-0.958943	-0.168958
H557	H	1.087110	-0.625609	0.164375
H558	H	1.420443	-0.292276	0.497709
H559	H	0.701438	-1.044902	-0.247759
H560	H	1.034771	-0.711569	0.085574
H561	H	1.368105	-0.378236	0.418907
H562	H	0.568312	-0.829121	-0.447893
H563	H	0.901645	-0.495788	-0.114560
H564	H	1.234978	-0.162455	0.218774
H565	H	0.177111	-0.297136	-0.204087
H566	H	0.510445	0.036197	0.129246
H567	H	0.843778	0.369530	0.462580
N568	N	0.562326	-0.739163	-0.456845
N569	N	0.895660	-0.405829	-0.123512
N570	N	1.228993	-0.072496	0.209822
N571	N	0.536668	-0.760131	-0.495451
N572	N	0.870001	-0.426797	-0.162118
N573	N	1.203335	-0.093464	0.171216
H574	H	0.515917	-0.743227	-0.526653
H575	H	0.849251	-0.409894	-0.193319
H576	H	1.182584	-0.076560	0.140014
H577	H	0.262220	-0.297131	-0.204078
H578	H	0.595553	0.036202	0.129256
H579	H	0.928886	0.369535	0.462589
H580	H	0.597093	-0.164214	-0.584501
H581	H	0.930426	0.169119	-0.251168
H582	H	1.263760	0.502453	0.082165
N583	N	0.591152	-0.158246	-0.720054
N584	N	0.924486	0.175088	-0.386721
N585	N	1.257819	0.508421	-0.053388
N586	N	0.565520	-0.132599	-0.688494
N587	N	0.898854	0.200735	-0.355161
N588	N	1.232187	0.534068	-0.021828
H589	H	0.544808	-0.111866	-0.713987
H590	H	0.878141	0.221467	-0.380653
H591	H	1.211474	0.554801	-0.047320
