data_functionalizedCrystal
_audit_creation_method	'MofGen! by Chris Wilmer'
_symmetry_space_group_name_H-M	'P1'
_symmetry_Int_Tables_number	1
_symmetry_cell_setting	triclinic
loop_
_symmetry_equiv_pos_as_xyz
  x,y,z
_cell_length_a	14.519709
_cell_length_b	10.489746
_cell_length_c	12.996460
_cell_angle_alpha	89.993562
_cell_angle_beta	90.000034
_cell_angle_gamma	84.110723
loop_
_atom_site_label
_atom_site_type_symbol
_atom_site_fract_x
_atom_site_fract_y
_atom_site_fract_z
O1	O	1.224782	0.167203	-0.085434
O2	O	1.558115	0.500537	0.247900
O3	O	1.891449	0.833870	0.581233
O4	O	0.956413	0.186893	-0.085465
O5	O	1.289746	0.520227	0.247868
O6	O	1.623079	0.853560	0.581202
O7	O	1.096702	-0.008613	-0.085441
O8	O	1.430035	0.324721	0.247892
O9	O	1.763368	0.658054	0.581226
O10	O	1.084493	0.362709	-0.085458
O11	O	1.417827	0.696043	0.247876
O12	O	1.751160	1.029376	0.581209
O13	O	1.096687	-0.008624	0.085693
O14	O	1.430020	0.324710	0.419026
O15	O	1.763353	0.658043	0.752360
O16	O	0.956398	0.186883	0.085669
O17	O	1.289731	0.520216	0.419002
O18	O	1.623065	0.853549	0.752335
O19	O	1.224767	0.167192	0.085700
O20	O	1.558101	0.500526	0.419034
O21	O	1.891434	0.833859	0.752367
Cu22	Cu	1.090581	0.177036	0.101310
Cu23	Cu	1.423915	0.510370	0.434644
Cu24	Cu	1.757248	0.843703	0.767977
Cu25	Cu	1.090599	0.177049	-0.101075
Cu26	Cu	1.423932	0.510383	0.232258
Cu27	Cu	1.757265	0.843716	0.565591
O28	O	1.084478	0.362699	0.085676
O29	O	1.417812	0.696032	0.419009
O30	O	1.751145	1.029365	0.752343
C31	C	0.922041	0.185970	0.000098
C32	C	1.255374	0.519304	0.333431
C33	C	1.588707	0.852637	0.666764
C34	C	0.819644	0.183221	0.000086
C35	C	1.152978	0.516554	0.333419
C36	C	1.486311	0.849887	0.666753
C37	C	0.444693	0.173097	0.000133
C38	C	0.778026	0.506431	0.333467
C39	C	1.111360	0.839764	0.666800
C40	C	0.549016	0.175908	0.000120
C41	C	0.882350	0.509242	0.333453
C42	C	1.215683	0.842575	0.666786
C43	C	0.632165	0.178159	0.000109
C44	C	0.965499	0.511492	0.333442
C45	C	1.298832	0.844825	0.666775
C46	C	0.736495	0.180970	0.000097
C47	C	1.069829	0.514304	0.333430
C48	C	1.403162	0.847637	0.666764
C49	C	1.095771	-0.056140	0.000126
C50	C	1.429104	0.277193	0.333459
C51	C	1.762438	0.610527	0.666792
C52	C	1.093009	-0.197740	0.000125
C53	C	1.426343	0.135593	0.333458
C54	C	1.759676	0.468926	0.666791
C55	C	1.002113	-0.349651	0.000101
C56	C	1.335446	-0.016317	0.333435
C57	C	1.668780	0.317016	0.666768
C58	C	1.047565	-0.272727	-0.084269
C59	C	1.380898	0.060606	0.249064
C60	C	1.714231	0.393940	0.582397
C61	C	1.047571	-0.272779	0.084455
C62	C	1.380905	0.060554	0.417789
C63	C	1.714238	0.393888	0.751122
C64	C	1.133587	-0.373115	-0.084339
C65	C	1.466920	-0.039782	0.248995
C66	C	1.800254	0.293551	0.582328
C67	C	1.133581	-0.373172	0.084462
C68	C	1.466914	-0.039839	0.417795
C69	C	1.800248	0.293494	0.751128
C70	C	1.179096	-0.296298	0.000070
C71	C	1.512429	0.037035	0.333404
C72	C	1.845763	0.370368	0.666737
C73	C	1.259139	0.168116	0.000135
C74	C	1.592473	0.501449	0.333468
C75	C	1.925806	0.834782	0.666802
C76	C	1.361536	0.170865	0.000140
C77	C	1.694869	0.504199	0.333473
C78	C	2.028202	0.837532	0.666807
C79	C	1.085409	0.410226	0.000107
C80	C	1.418742	0.743559	0.333441
C81	C	1.752076	1.076893	0.666774
C82	C	1.088171	0.551826	0.000101
C83	C	1.421504	0.885160	0.333435
C84	C	1.754837	1.218493	0.666768
N85	N	1.090576	0.177027	0.243657
N86	N	1.423909	0.510360	0.576991
N87	N	1.757242	0.843693	0.910324
N88	N	1.090612	0.177049	-0.243422
N89	N	1.423945	0.510382	0.089911
N90	N	1.757278	0.843716	0.423244
C91	C	1.090597	0.177051	0.663472
C92	C	1.423931	0.510384	0.996805
C93	C	1.757264	0.843717	1.330138
C94	C	1.090589	0.177048	0.546667
C95	C	1.423922	0.510382	0.880000
C96	C	1.757255	0.843715	1.213333
C97	C	1.090587	0.177040	0.453568
C98	C	1.423920	0.510373	0.786902
C99	C	1.757254	0.843706	1.120235
C100	C	1.090577	0.177035	0.336756
C101	C	1.423911	0.510369	0.670089
C102	C	1.757244	0.843702	1.003422
H103	H	0.927282	-0.373590	0.000008
H104	H	1.260616	-0.040257	0.333342
H105	H	1.593949	0.293077	0.666675
H106	H	1.169871	-0.417054	0.155804
H107	H	1.503205	-0.083721	0.489137
H108	H	1.836538	0.249613	0.822471
H109	H	1.253983	-0.272604	0.000033
H110	H	1.587316	0.060729	0.333367
H111	H	1.920649	0.394062	0.666700
H112	H	1.011220	-0.228960	0.155785
H113	H	1.344553	0.104373	0.489118
H114	H	1.677887	0.437707	0.822452
H115	H	1.011242	-0.228868	-0.155609
H116	H	1.344575	0.104465	0.177725
H117	H	1.677909	0.437798	0.511058
F118	F	1.181048	-0.430170	-0.177678
F119	F	1.514381	-0.096837	0.155655
F120	F	1.847715	0.236497	0.488988
