data_functionalizedCrystal
_audit_creation_method	'MofGen! by Chris Wilmer'
_symmetry_space_group_name_H-M	'P1'
_symmetry_Int_Tables_number	1
_symmetry_cell_setting	triclinic
loop_
_symmetry_equiv_pos_as_xyz
  x,y,z
_cell_length_a	14.044220
_cell_length_b	15.944493
_cell_length_c	13.101039
_cell_angle_alpha	93.367629
_cell_angle_beta	86.340132
_cell_angle_gamma	88.331960
loop_
_atom_site_label
_atom_site_type_symbol
_atom_site_fract_x
_atom_site_fract_y
_atom_site_fract_z
O1	O	1.262879	0.198269	-0.085081
O2	O	0.986913	0.190960	-0.085107
O3	O	1.132461	0.072903	-0.085102
O4	O	1.117331	0.316327	-0.085086
O5	O	1.122018	0.081388	0.085328
O6	O	0.976470	0.199446	0.085322
O7	O	1.252436	0.206755	0.085349
Zn8	Zn	1.112795	0.204448	0.112395
Zn9	Zn	1.126554	0.193267	-0.112153
O10	O	1.106888	0.324813	0.085343
C11	C	0.946377	0.192004	0.000104
C12	C	0.841154	0.182462	0.000093
C13	C	0.648494	0.165020	0.000112
C14	C	0.590849	0.232692	0.000121
C15	C	0.483647	0.222986	0.000131
C16	C	0.755707	0.174724	0.000101
C17	C	1.126621	0.045804	0.000109
C18	C	1.124768	-0.047584	0.000095
C19	C	1.210440	-0.276927	0.000123
C20	C	1.169389	-0.335139	-0.083912
C21	C	1.121332	-0.218561	0.000108
C22	C	1.159072	-0.326750	0.084119
C23	C	1.118020	-0.383718	0.000124
C24	C	1.080309	-0.275546	-0.083996
C25	C	1.070001	-0.267150	0.084109
C26	C	1.028886	-0.325334	0.000054
C27	C	1.123243	-0.123419	0.000097
C28	C	1.116103	-0.478859	0.000127
C29	C	1.292971	0.205711	0.000136
C30	C	1.398195	0.215253	0.000140
C31	C	1.112727	0.351911	0.000131
C32	C	1.114581	0.445299	0.000137
N33	N	1.103412	0.212078	0.265643
N34	N	1.135945	0.185631	-0.265402
C35	C	1.090645	0.222467	0.474685
C36	C	1.148708	0.175245	0.525563
C37	C	1.141604	0.181025	0.641881
C38	C	1.097747	0.216688	0.358356
H39	H	0.622009	0.297916	0.000120
C40	C	1.223076	0.114768	0.466399
C41	C	1.230123	0.108954	0.348398
C42	C	1.304491	0.048483	0.289228
C43	C	1.371812	-0.006173	0.348058
C44	C	1.364768	-0.000360	0.466066
C45	C	1.290400	0.060110	0.525236
H46	H	1.180286	0.149415	0.304842
H47	H	1.309705	0.044181	0.201871
H48	H	1.426864	-0.050937	0.304257
H49	H	1.414605	-0.040822	0.509622
H50	H	1.285185	0.064413	0.612593
C51	C	1.204043	-0.357241	0.180097
C52	C	1.243350	-0.293201	0.258003
C53	C	1.288329	-0.323690	0.353976
C54	C	1.294001	-0.418219	0.372043
C55	C	1.254693	-0.482265	0.294135
C56	C	1.209714	-0.451776	0.198162
H57	H	1.239152	-0.223220	0.244631
H58	H	1.317427	-0.276278	0.411649
H59	H	1.327297	-0.440788	0.443088
H60	H	1.258891	-0.552246	0.307507
H61	H	1.180616	-0.499187	0.140489
H62	H	1.035606	0.267235	0.518480
C63	C	0.606408	0.076908	0.000101
C64	C	0.497635	0.067202	0.000103
C65	C	0.455535	-0.020908	0.000086
C66	C	0.522209	-0.099313	0.000068
C67	C	0.630989	-0.089609	0.000066
C68	C	0.673088	-0.001499	0.000082
H69	H	0.448273	0.125244	0.000117
H70	H	0.375008	-0.028091	0.000088
H71	H	0.491044	-0.164537	0.000055
H72	H	0.680351	-0.147651	0.000052
H73	H	0.753615	0.005684	0.000081
C74	C	1.226100	-0.375219	-0.179881
C75	C	1.333067	-0.358446	-0.198335
C76	C	1.389785	-0.398521	-0.294301
C77	C	1.339535	-0.455368	-0.371813
C78	C	1.232562	-0.472143	-0.353361
C79	C	1.175845	-0.432069	-0.257395
H80	H	1.370270	-0.316362	-0.140955
H81	H	1.468973	-0.386103	-0.307960
H82	H	1.381521	-0.485034	-0.442852
H83	H	1.195359	-0.514228	-0.410741
H84	H	1.096657	-0.444487	-0.243735
C85	C	1.035399	-0.245211	-0.180086
C86	C	1.028923	-0.150659	-0.197874
C87	C	0.984018	-0.120321	-0.293963
C88	C	0.945589	-0.184536	-0.372265
C89	C	0.952064	-0.279094	-0.354480
C90	C	0.996969	-0.309432	-0.258390
H91	H	1.057371	-0.103118	-0.139908
H92	H	0.979225	-0.050323	-0.307128
H93	H	0.912347	-0.162079	-0.443396
H94	H	0.923616	-0.326635	-0.412445
H95	H	1.001762	-0.379430	-0.245225
C96	C	0.925122	-0.354012	-0.000016
C97	C	0.894318	-0.413265	-0.088117
C98	C	0.790557	-0.441945	-0.088195
C99	C	0.717600	-0.411371	-0.000172
C100	C	0.748402	-0.352114	0.087936
C101	C	0.852163	-0.323434	0.088013
H102	H	0.948327	-0.435901	-0.153283
H103	H	0.767755	-0.485811	-0.153418
H104	H	0.640789	-0.432601	-0.000229
H105	H	0.694393	-0.329478	0.153102
H106	H	0.874965	-0.279568	0.153237
C107	C	1.013328	-0.227042	0.180079
C108	C	1.044189	-0.245245	0.287505
C109	C	0.987524	-0.205135	0.383484
C110	C	0.899998	-0.146821	0.372038
C111	C	0.869132	-0.128615	0.264607
C112	C	0.925797	-0.168725	0.168628
H113	H	1.108985	-0.288415	0.295982
H114	H	1.010373	-0.218613	0.463011
H115	H	0.858051	-0.117129	0.443087
H116	H	0.804336	-0.085445	0.256130
H117	H	0.902948	-0.155247	0.089101
H118	H	1.287200	-0.255555	0.000046
