data_functionalizedCrystal
_audit_creation_method	'MofGen! by Chris Wilmer'
_symmetry_space_group_name_H-M	'P1'
_symmetry_Int_Tables_number	1
_symmetry_cell_setting	triclinic
loop_
_symmetry_equiv_pos_as_xyz
  x,y,z
_cell_length_a	27.732048
_cell_length_b	11.026607
_cell_length_c	10.065875
_cell_angle_alpha	79.268236
_cell_angle_beta	98.667963
_cell_angle_gamma	95.614336
loop_
_atom_site_label
_atom_site_type_symbol
_atom_site_fract_x
_atom_site_fract_y
_atom_site_fract_z
O1	O	-0.659402	-0.126245	-0.113310
O2	O	-0.520583	-0.148157	-0.113350
O3	O	-0.578488	0.039236	-0.113328
O4	O	-0.601498	-0.313638	-0.113332
O5	O	-0.567458	0.003360	0.113656
O6	O	-0.509554	-0.184033	0.113635
O7	O	-0.648373	-0.162120	0.113675
Zn8	Zn	-0.577213	-0.178773	0.149693
Zn9	Zn	-0.591744	-0.131505	-0.149369
O10	O	-0.590469	-0.349514	0.113653
C11	C	-0.568728	0.066430	0.000161
C12	C	-0.556074	0.200908	0.000153
C13	C	-0.497021	-0.165634	0.000137
C14	C	-0.443242	-0.164246	0.000121
C15	C	-0.671936	-0.144643	0.000185
C16	C	-0.725715	-0.146029	0.000191
C17	C	-0.113605	-0.266272	0.000180
C18	C	0.088518	-0.261134	0.000192
O19	O	0.111381	-0.354430	0.000250
N20	N	0.117641	-0.150015	0.000190
C21	C	0.096232	-0.040175	0.000195
O22	O	0.125642	0.054454	0.000208
C23	C	-0.105890	-0.045316	0.000192
C24	C	-0.135011	-0.156440	0.000180
C25	C	-0.142726	-0.377388	0.000169
C26	C	-0.193254	-0.378670	0.000158
C27	C	-0.214661	-0.268837	0.000159
C28	C	-0.185539	-0.157722	0.000169
C29	C	-0.127298	0.064522	0.000207
C30	C	-0.177831	0.063226	0.000210
C31	C	-0.206953	-0.047898	0.000197
C32	C	-0.257474	-0.049172	0.000159
N33	N	-0.286597	-0.160290	0.000161
C34	C	-0.265191	-0.270123	0.000160
C35	C	0.202348	-0.037483	0.000194
C36	C	0.252878	-0.036197	0.000192
C37	C	0.245161	-0.257157	0.000191
C38	C	0.194629	-0.258440	0.000183
C39	C	0.173225	-0.148601	0.000195
C40	C	-0.371303	-0.272807	0.000137
C41	C	-0.421836	-0.274079	0.000121
C42	C	-0.414113	-0.053121	0.000129
C43	C	-0.363586	-0.051847	0.000138
C44	C	-0.342182	-0.161701	0.000147
O45	O	-0.280369	0.044073	0.000117
O46	O	-0.294608	-0.364743	0.000178
C47	C	-0.063077	-0.264990	0.000190
C48	C	-0.033955	-0.153875	0.000201
C49	C	-0.055362	-0.044042	0.000201
C50	C	0.016575	-0.152589	0.000199
C51	C	0.037981	-0.262422	0.000199
C52	C	0.008858	-0.373541	0.000200
C53	C	-0.041670	-0.374823	0.000190
C54	C	-0.026238	0.067076	0.000200
C55	C	0.024289	0.068350	0.000209
C56	C	0.045696	-0.041483	0.000209
C57	C	-0.600229	-0.376707	0.000161
C58	C	-0.612884	-0.511184	0.000160
N59	N	-0.567299	-0.211031	0.353795
C60	C	-0.591015	0.275368	0.000161
C61	C	-0.577937	0.414358	0.000152
N62	N	-0.601661	-0.099237	-0.353471
C63	C	-0.588291	-0.142721	0.421582
C64	C	-0.580666	-0.167557	0.578746
H65	H	-0.445545	-0.364573	0.000110
N66	N	0.179270	0.081005	0.000190
H67	H	0.154393	0.098702	-0.083954
H68	H	0.162592	0.072038	0.084389
H69	H	-0.538338	0.453504	0.000132
H70	H	-0.543679	-0.287896	0.412112
H71	H	0.262598	-0.346587	0.000191
H72	H	-0.103595	0.155010	0.000218
N73	N	-0.348220	-0.391294	0.000179
H74	H	-0.374342	-0.461872	0.000179
H75	H	-0.331503	-0.382300	-0.083954
H76	H	-0.630611	0.236216	0.000181
H77	H	-0.043662	0.156517	0.000204
H78	H	-0.557044	-0.244427	0.637058
H79	H	-0.652488	0.449689	0.000069
N80	N	-0.632944	0.002597	0.569296
H81	H	-0.661246	-0.033844	0.510002
H82	H	-0.645871	0.044737	0.636211
N83	N	-0.503622	0.252753	0.000124
H84	H	-0.501715	0.344694	0.000119
H85	H	-0.482946	0.210766	0.084266
N86	N	-0.619561	-0.040865	0.344350
H87	H	-0.620570	-0.037548	0.243024
H88	H	-0.653823	-0.057906	0.369226
H89	H	-0.125303	-0.466833	0.000173
H90	H	-0.216961	-0.469158	0.000148
H91	H	0.276584	0.054295	0.000180
N92	N	0.163227	-0.378302	0.000183
H93	H	0.146176	-0.397068	0.084328
H94	H	0.138031	-0.370389	-0.084014
N95	N	-0.200914	0.181702	0.000228
H96	H	-0.194516	0.243527	-0.083910
H97	H	-0.237336	0.163931	0.000276
N98	N	-0.332173	0.068007	0.000125
H99	H	-0.353405	0.137391	0.000117
H100	H	-0.306958	0.060056	0.084279
H101	H	-0.431552	0.036303	0.000124
H102	H	-0.065377	-0.465312	0.000181
H103	H	0.047996	0.158849	0.000208
N104	N	0.031950	-0.492004	0.000191
H105	H	0.068380	-0.474317	0.000198
H106	H	0.025521	-0.553773	0.084336
