data_functionalizedCrystal
_audit_creation_method	'MofGen! by Chris Wilmer'
_symmetry_space_group_name_H-M	'P1'
_symmetry_Int_Tables_number	1
_symmetry_cell_setting	triclinic
loop_
_symmetry_equiv_pos_as_xyz
  x,y,z
_cell_length_a	10.654545
_cell_length_b	17.038272
_cell_length_c	9.130313
_cell_angle_alpha	89.995195
_cell_angle_beta	89.996934
_cell_angle_gamma	87.797317
loop_
_atom_site_label
_atom_site_type_symbol
_atom_site_fract_x
_atom_site_fract_y
_atom_site_fract_z
O1	O	1.678044	0.109861	-0.121787
O2	O	2.178044	0.609861	0.378213
O3	O	1.313537	0.120333	-0.121793
O4	O	1.813537	0.620333	0.378207
O5	O	1.493624	0.001270	-0.121778
O6	O	1.993624	0.501270	0.378222
O7	O	1.497957	0.228925	-0.121801
O8	O	1.997957	0.728925	0.378199
O9	O	1.493611	0.001266	0.121821
O10	O	1.993611	0.501266	0.621821
O11	O	1.313524	0.120330	0.121806
O12	O	1.813524	0.620330	0.621806
O13	O	1.678030	0.109858	0.121812
O14	O	2.178030	0.609858	0.621812
Cu15	Cu	1.495776	0.115093	0.144052
Cu16	Cu	1.995776	0.615093	0.644052
Cu17	Cu	1.495792	0.115097	-0.144032
Cu18	Cu	1.995792	0.615097	0.355968
O19	O	1.497943	0.228921	0.121798
O20	O	1.997943	0.728921	0.621798
C21	C	1.266661	0.119563	0.000006
C22	C	1.766661	0.619563	0.500006
C23	C	1.127004	0.117265	0.000004
C24	C	1.627004	0.617265	0.500004
C25	C	1.061392	0.116181	0.132790
C26	C	1.561392	0.616181	0.632790
C27	C	0.930170	0.114009	0.132791
C28	C	1.430170	0.614009	0.632791
C29	C	0.930185	0.114007	-0.132794
C30	C	1.430185	0.614007	0.367206
C31	C	1.061405	0.116174	-0.132793
C32	C	1.561405	0.616174	0.367207
C33	C	1.489677	-0.027882	0.000021
C34	C	1.989677	0.472118	0.500021
C35	C	1.477919	-0.114741	0.000020
C36	C	1.977919	0.385259	0.500020
C37	C	1.585864	-0.164253	0.000024
C38	C	2.085864	0.335747	0.500024
C39	C	1.574809	-0.245865	0.000010
C40	C	2.074809	0.254135	0.500010
C41	C	1.455809	-0.277964	0.000003
C42	C	1.955809	0.222036	0.500003
C43	C	1.347857	-0.228445	-0.000005
C44	C	1.847857	0.271555	0.499995
C45	C	1.358913	-0.146834	-0.000001
C46	C	1.858913	0.353166	0.499999
C47	C	1.416751	-0.523939	-0.000018
C48	C	1.916751	-0.023939	0.499982
C49	C	1.405704	-0.605556	-0.000017
C50	C	1.905704	-0.105556	0.499983
C51	C	1.632657	-0.622971	-0.000005
C52	C	2.132657	-0.122971	0.499995
C53	C	1.643703	-0.541358	0.000007
C54	C	2.143703	-0.041358	0.500007
C55	C	1.535750	-0.491847	-0.000008
C56	C	2.035750	0.008153	0.499992
C57	C	1.444507	-0.361384	-0.000007
C58	C	1.944507	0.138616	0.499993
C59	C	1.547054	-0.408428	-0.000009
C60	C	2.047054	0.091572	0.499991
C61	C	1.724907	0.110627	0.000010
C62	C	2.224907	0.610627	0.500010
C63	C	1.864563	0.112926	0.000003
C64	C	2.364563	0.612926	0.500003
C65	C	1.501891	0.258073	-0.000005
C66	C	2.001891	0.758073	0.499995
C67	C	1.513648	0.344931	-0.000014
C68	C	2.013648	0.844931	0.499986
N69	N	1.495774	0.115090	0.346674
N70	N	1.995774	0.615090	0.846674
N71	N	1.495803	0.115095	-0.346655
N72	N	1.995803	0.615095	0.153345
C73	C	1.575547	0.062391	0.423333
C74	C	2.075547	0.562391	0.923333
C75	C	1.575559	0.062391	0.576670
C76	C	2.075559	0.562391	1.076670
C77	C	1.416021	0.167796	0.576676
C78	C	1.916021	0.667796	1.076676
C79	C	1.416003	0.167792	0.423342
C80	C	1.916003	0.667792	0.923342
H81	H	1.114799	0.117069	0.240922
H82	H	1.614799	0.617069	0.740922
H83	H	1.640499	0.019477	0.360913
H84	H	2.140499	0.519477	0.860913
H85	H	0.876755	0.113126	0.240919
H86	H	1.376755	0.613126	0.740919
F87	F	1.689699	-0.298557	0.000016
F88	F	2.189699	0.201443	0.500016
H89	H	1.250964	-0.254586	-0.000020
H90	H	1.750964	0.245414	0.499980
H91	H	1.640516	0.019478	0.639081
H92	H	2.140516	0.519478	1.139081
F93	F	1.331131	0.223884	0.658281
F94	F	1.831131	0.723884	1.158281
F95	F	1.331088	0.223881	0.341750
F96	F	1.831088	0.723881	0.841750
F97	F	1.317861	-0.395553	-0.000021
F98	F	1.817861	0.104447	0.499979
H99	H	0.876758	0.113120	-0.240912
H100	H	1.376758	0.613120	0.259088
F101	F	1.747539	-0.675670	0.000009
F102	F	2.247539	-0.175670	0.500009
F103	F	1.131239	0.117323	-0.274130
F104	F	1.631239	0.617323	0.225870
H105	H	1.682766	-0.138126	0.000039
H106	H	2.182766	0.361874	0.500039
H107	H	1.308795	-0.631687	0.000001
H108	H	1.808795	-0.131687	0.500001
F109	F	1.770358	-0.507203	-0.000022
F110	F	2.270358	-0.007203	0.499978
H111	H	1.328848	-0.483636	-0.000030
H112	H	1.828848	0.016364	0.499970
H113	H	1.271012	-0.106521	-0.000004
H114	H	1.771012	0.393479	0.499996
H115	H	1.643943	-0.382290	-0.000036
H116	H	2.143943	0.117710	0.499964
