data_functionalizedCrystal
_audit_creation_method	'MofGen! by Chris Wilmer'
_symmetry_space_group_name_H-M	'P1'
_symmetry_Int_Tables_number	1
_symmetry_cell_setting	triclinic
loop_
_symmetry_equiv_pos_as_xyz
  x,y,z
_cell_length_a	10.723022
_cell_length_b	10.723022
_cell_length_c	9.798715
_cell_angle_alpha	89.998022
_cell_angle_beta	89.996609
_cell_angle_gamma	84.467226
loop_
_atom_site_label
_atom_site_type_symbol
_atom_site_fract_x
_atom_site_fract_y
_atom_site_fract_z
O1	O	1.657187	0.175015	-0.113478
O2	O	1.294035	0.191771	-0.113483
O3	O	1.483989	0.001817	-0.113475
O4	O	1.467233	0.364969	-0.113486
O5	O	1.483975	0.001816	0.113507
O6	O	1.294021	0.191770	0.113499
O7	O	1.657173	0.175015	0.113504
Zn8	Zn	1.475595	0.183392	0.149540
Zn9	Zn	1.475613	0.183393	-0.149519
O10	O	1.467219	0.364969	0.113496
C11	C	1.247528	0.190551	0.000008
C12	C	1.108974	0.186905	0.000006
C13	C	1.060413	0.077365	0.000009
C14	C	0.917210	0.073593	0.000007
C15	C	1.482763	-0.044683	0.000014
C16	C	1.479116	-0.183238	0.000009
C17	C	1.369576	-0.231798	0.000006
C18	C	1.365804	-0.375001	0.000001
C19	C	1.703680	0.176234	0.000010
C20	C	1.842234	0.179881	0.000003
C21	C	1.468445	0.411469	0.000004
C22	C	1.472092	0.550023	-0.000000
N23	N	1.475591	0.183391	0.353640
N24	N	1.475627	0.183384	-0.353619
C25	C	1.555347	0.103283	0.421420
C26	C	1.555367	0.103279	0.578582
H27	H	1.044531	0.277893	-0.000003
F28	F	1.386351	0.273028	0.429865
H29	H	1.278587	-0.167355	0.000013
H30	H	1.623612	0.034698	0.363100
F31	F	0.896871	0.302477	0.000010
F32	F	1.243213	-0.429646	-0.000013
H33	H	1.565884	-0.408174	-0.000048
H34	H	1.570105	-0.247680	0.000015
H35	H	1.623655	0.034700	0.636870
H36	H	1.124856	-0.013624	0.000005
F37	F	0.862565	-0.048999	0.000019
H38	H	1.407345	0.251976	0.588102
