data_functionalizedCrystal
_audit_creation_method	'MofGen! by Chris Wilmer'
_symmetry_space_group_name_H-M	'P1'
_symmetry_Int_Tables_number	1
_symmetry_cell_setting	triclinic
loop_
_symmetry_equiv_pos_as_xyz
  x,y,z
_cell_length_a	17.699097
_cell_length_b	16.176319
_cell_length_c	17.699083
_cell_angle_alpha	89.992304
_cell_angle_beta	83.285722
_cell_angle_gamma	89.988988
loop_
_atom_site_label
_atom_site_type_symbol
_atom_site_fract_x
_atom_site_fract_y
_atom_site_fract_z
O1	O	1.004072	-0.068817	0.095761
O2	O	0.783695	-0.068804	0.108203
O3	O	0.900110	-0.068803	-0.008207
O4	O	0.887658	-0.068817	0.212171
O5	O	0.900094	0.068690	-0.008214
O6	O	0.783679	0.068690	0.108195
O7	O	1.004056	0.068676	0.095754
Cu8	Cu	0.893867	0.081237	0.101974
Cu9	Cu	0.893885	-0.081364	0.101983
O10	O	0.887642	0.068676	0.212163
C11	C	0.755491	-0.000055	0.107752
C12	C	0.671473	-0.000050	0.106409
N13	N	0.893859	0.195602	0.101967
N14	N	0.893899	-0.195730	0.101983
C15	C	0.155764	-0.075030	0.098184
C16	C	0.234708	-0.075026	0.099440
C17	C	0.274165	-0.000076	0.100065
C18	C	0.234675	0.074876	0.099427
C19	C	0.155733	0.074871	0.098165
C20	C	0.553039	0.074898	0.104514
C21	C	0.631986	0.074897	0.105778
C22	C	0.632014	-0.075000	0.105789
C23	C	0.553072	-0.075005	0.104527
C24	C	0.513589	-0.000054	0.103885
C25	C	0.427989	-0.000059	0.102521
C26	C	0.359763	-0.000069	0.101434
C27	C	1.032261	-0.000074	0.096205
C28	C	1.116279	-0.000084	0.097547
C29	C	0.945423	0.238867	0.050442
C30	C	0.945426	0.325414	0.050441
C31	C	0.893869	0.368695	0.101970
C32	C	0.842300	0.325425	0.153498
C33	C	0.842293	0.238879	0.153494
C34	C	0.842326	0.674453	0.153512
C35	C	0.842338	0.761004	0.153513
C36	C	0.945459	0.760988	0.050459
C37	C	0.945452	0.674442	0.050455
C38	C	0.893881	0.631179	0.101980
C39	C	0.893876	0.537335	0.101979
C40	C	0.893877	0.462538	0.101975
C41	C	0.899656	-0.000057	-0.036408
C42	C	0.898317	-0.000056	-0.120426
C43	C	0.966650	-0.000059	-0.169044
C44	C	0.965388	-0.000066	-0.247987
C45	C	0.895792	-0.000065	-0.278311
C46	C	0.827454	-0.000064	-0.229687
C47	C	0.828717	-0.000063	-0.150745
C48	C	0.822359	-0.000071	-0.548050
C49	C	0.821101	-0.000070	-0.626998
C50	C	0.959030	-0.000074	-0.645292
C51	C	0.960293	-0.000073	-0.566350
C52	C	0.891955	-0.000077	-0.517733
C53	C	0.893325	-0.000070	-0.432134
C54	C	0.894422	-0.000065	-0.363909
C55	C	0.888096	-0.000073	0.240364
C56	C	0.889435	-0.000078	0.324382
H57	H	0.266853	-0.136055	0.099954
H58	H	0.773073	-0.000061	-0.111161
H59	H	0.664170	-0.136029	0.106309
C60	C	1.036846	-0.000071	-0.532994
H61	H	1.027811	-0.000062	-0.479016
H62	H	1.064984	-0.048018	-0.549683
H63	H	1.064967	0.047881	-0.549696
H64	H	1.014674	-0.000075	-0.684886
H65	H	0.764424	-0.000067	-0.651685
C66	C	0.509550	0.157336	0.104299
H67	H	0.456866	0.146604	0.103598
H68	H	0.516789	0.187789	0.148772
H69	H	0.528139	0.188472	0.060526
H70	H	0.123642	-0.136064	0.097680
H71	H	0.520949	-0.136038	0.104022
C72	C	1.002135	0.191265	-0.006242
H73	H	1.032840	0.229430	-0.036933
H74	H	1.033586	0.157487	0.020943
H75	H	0.974961	0.157521	-0.037719
H76	H	0.987413	0.360639	0.008485
C77	C	0.675390	0.157347	0.106450
H78	H	0.640572	0.201985	0.105877
H79	H	0.700336	0.160472	0.151059
H80	H	0.712035	0.160451	0.062815
H81	H	0.266808	0.135903	0.099931
H82	H	0.800336	0.639235	0.195466
H83	H	0.123585	0.135900	0.097655
H84	H	0.987437	0.639205	0.008498
C85	C	0.785590	0.373032	0.210179
H86	H	0.792983	0.430772	0.202808
H87	H	0.735094	0.358868	0.202022
H88	H	0.793718	0.358832	0.260684
H89	H	0.987450	0.796221	0.008502
C90	C	0.785609	0.808613	0.210183
H91	H	0.754886	0.770452	0.240861
H92	H	0.812765	0.842364	0.241664
H93	H	0.754167	0.842384	0.182975
C94	C	1.040552	-0.000078	-0.301467
H95	H	1.029835	-0.000092	-0.352825
H96	H	1.069095	0.047866	-0.292300
H97	H	1.069096	-0.048034	-0.292275
H98	H	0.766714	-0.000074	-0.508475
C99	C	0.785576	0.191288	0.210175
H100	H	0.754876	0.229459	0.240869
H101	H	0.754121	0.157542	0.182985
H102	H	0.812743	0.157513	0.241650
C103	C	1.043207	-0.000061	-0.135694
H104	H	1.083722	-0.000071	-0.175958
H105	H	1.046564	0.047886	-0.105285
H106	H	1.046571	-0.048014	-0.105275
C107	C	0.750900	-0.000060	-0.263042
H108	H	0.759933	-0.000052	-0.317020
H109	H	0.722773	-0.048004	-0.246341
H110	H	0.722768	0.047895	-0.246349
