data_functionalizedCrystal
_audit_creation_method	'MofGen! by Chris Wilmer'
_symmetry_space_group_name_H-M	'P1'
_symmetry_Int_Tables_number	1
_symmetry_cell_setting	triclinic
loop_
_symmetry_equiv_pos_as_xyz
  x,y,z
_cell_length_a	16.625548
_cell_length_b	12.759399
_cell_length_c	16.625539
_cell_angle_alpha	90.026183
_cell_angle_beta	89.979432
_cell_angle_gamma	89.983816
loop_
_atom_site_label
_atom_site_type_symbol
_atom_site_fract_x
_atom_site_fract_y
_atom_site_fract_z
Zn1	Zn	1.232722	0.418234	-0.455921
Zn2	Zn	1.732722	0.918234	0.044079
Zn3	Zn	1.232642	0.593936	-0.321093
Zn4	Zn	1.732642	1.093936	0.178907
Zn5	Zn	1.097883	0.418274	-0.321102
Zn6	Zn	1.597883	0.918274	0.178898
Zn7	Zn	1.097871	0.593875	-0.455883
Zn8	Zn	1.597871	1.093875	0.044117
O9	O	1.165280	0.506080	-0.388500
O10	O	1.665280	1.006080	0.111500
O11	O	1.345543	0.441550	-0.438048
O12	O	1.845543	0.941550	0.061952
O13	O	1.214738	0.570676	-0.208262
O14	O	1.714738	1.070676	0.291738
O15	O	1.115808	0.271248	-0.339005
O16	O	1.615808	0.771248	0.160995
O17	O	1.345485	0.570637	-0.338991
O18	O	1.845485	1.070637	0.161009
O19	O	1.214873	0.271219	-0.438057
O20	O	1.714873	0.771219	0.061943
O21	O	1.115731	0.441618	-0.208268
O22	O	1.615731	0.941618	0.291732
O23	O	0.985049	0.441560	-0.338968
O24	O	1.485049	0.941560	0.161032
O25	O	1.115788	0.570534	-0.568721
O26	O	1.615788	1.070534	-0.068721
O27	O	0.985040	0.570573	-0.437992
O28	O	1.485040	1.070573	0.062008
O29	O	1.214862	0.441492	-0.568749
O30	O	1.714862	0.941492	-0.068749
O31	O	1.214726	0.740949	-0.338954
O32	O	1.714726	1.240949	0.161046
O33	O	1.115710	0.740904	-0.437984
O34	O	1.615710	1.240904	0.062016
C35	C	0.955789	0.506065	-0.388477
C36	C	1.455789	1.006065	0.111523
C37	C	0.866168	0.506084	-0.388487
C38	C	1.366168	1.006084	0.111513
C39	C	1.165230	0.779047	-0.388482
C40	C	1.665230	1.279047	0.111518
C41	C	1.165283	0.895824	-0.388501
C42	C	1.665283	1.395824	0.111499
C43	C	1.165332	0.506002	-0.598809
C44	C	1.665332	1.006002	-0.098809
C45	C	1.165354	0.505968	-0.688430
C46	C	1.665354	1.005968	-0.188430
C47	C	0.537992	0.506091	-0.388521
C48	C	1.037992	1.006091	0.111479
C49	C	0.629300	0.506086	-0.388509
C50	C	1.129300	1.006086	0.111491
C51	C	0.702077	0.506088	-0.388503
C52	C	1.202077	1.006088	0.111497
C53	C	0.793391	0.506082	-0.388493
C54	C	1.293391	1.006082	0.111507
C55	C	1.375588	0.506096	-0.388523
C56	C	1.875588	1.006096	0.111477
C57	C	1.465210	0.506103	-0.388533
C58	C	1.965210	1.006103	0.111467
C59	C	1.165351	0.232047	-0.388536
C60	C	1.665351	0.732047	0.111464
C61	C	1.165382	0.115270	-0.388551
C62	C	1.665382	0.615270	0.111449
C63	C	1.216899	0.950674	-0.336995
C64	C	1.716899	1.450674	0.163005
C65	C	1.216951	1.060398	-0.337022
C66	C	1.716951	1.560398	0.162978
C67	C	1.113763	1.060412	-0.440063
C68	C	1.613763	1.560412	0.059937
C69	C	1.113716	0.950690	-0.440040
C70	C	1.613716	1.450690	0.059960
C71	C	1.165392	0.505851	-1.016606
C72	C	1.665392	1.005851	-0.516606
C73	C	1.165379	0.505887	-0.925297
C74	C	1.665379	1.005887	-0.425297
C75	C	1.165373	0.505910	-0.852521
C76	C	1.665373	1.005910	-0.352521
C77	C	1.165360	0.505945	-0.761207
C78	C	1.665360	1.005945	-0.261207
C79	C	1.165274	0.506082	-0.179009
C80	C	1.665274	1.006082	0.320991
C81	C	1.165408	0.505819	-0.089388
C82	C	1.665408	1.005819	0.410612
H83	H	1.258889	0.906005	-0.295030
H84	H	1.758889	1.406005	0.204970
H85	H	1.071778	1.105098	-0.482023
H86	H	1.571778	1.605098	0.017977
H87	H	1.071684	0.906028	-0.481986
H88	H	1.571684	1.406028	0.018014
C89	C	1.273729	1.120733	-0.280363
C90	C	1.773729	1.620733	0.219637
C91	C	1.330450	1.060378	-0.223678
C92	C	1.830450	1.560378	0.276322
C93	C	1.387233	1.120713	-0.167019
C94	C	1.887233	1.620713	0.332981
C95	C	1.387295	1.241403	-0.167045
C96	C	1.887295	1.741403	0.332955
C97	C	1.330573	1.301765	-0.223733
C98	C	1.830573	1.801765	0.276267
C99	C	1.273789	1.241430	-0.280392
C100	C	1.773789	1.741430	0.219608
H101	H	1.330406	0.971030	-0.223656
H102	H	1.830406	1.471030	0.276344
H103	H	1.429223	1.076028	-0.125055
H104	H	1.929223	1.576028	0.374945
H105	H	1.429330	1.286066	-0.125103
H106	H	1.929330	1.786066	0.374897
H107	H	1.330617	1.391113	-0.223755
H108	H	1.830617	1.891113	0.276245
H109	H	1.231799	1.286115	-0.322356
H110	H	1.731799	1.786115	0.177644
