data_functionalizedCrystal
_audit_creation_method	'MofGen! by Chris Wilmer'
_symmetry_space_group_name_H-M	'P1'
_symmetry_Int_Tables_number	1
_symmetry_cell_setting	triclinic
loop_
_symmetry_equiv_pos_as_xyz
  x,y,z
_cell_length_a	27.732064
_cell_length_b	27.731994
_cell_length_c	26.210047
_cell_angle_alpha	90.002872
_cell_angle_beta	89.991443
_cell_angle_gamma	82.634978
loop_
_atom_site_label
_atom_site_type_symbol
_atom_site_fract_x
_atom_site_fract_y
_atom_site_fract_z
O1	O	0.057385	0.640952	0.042352
O2	O	0.307385	0.890952	0.292352
O3	O	0.557385	1.140952	0.542352
O4	O	0.807385	1.390952	0.792352
O5	O	0.066158	0.500155	0.042368
O6	O	0.316158	0.750155	0.292368
O7	O	0.566158	1.000155	0.542368
O8	O	0.816158	1.250155	0.792368
O9	O	-0.008626	0.574922	0.042362
O10	O	0.241374	0.824922	0.292362
O11	O	0.491374	1.074922	0.542362
O12	O	0.741374	1.324922	0.792362
O13	O	0.132168	0.566185	0.042359
O14	O	0.382168	0.816185	0.292359
O15	O	0.632168	1.066185	0.542359
O16	O	0.882168	1.316185	0.792359
O17	O	-0.008614	0.574908	-0.042496
O18	O	0.241386	0.824908	0.207504
O19	O	0.491386	1.074908	0.457504
O20	O	0.741386	1.324908	0.707504
O21	O	0.066169	0.500141	-0.042490
O22	O	0.316169	0.750141	0.207510
O23	O	0.566169	1.000141	0.457510
O24	O	0.816169	1.250141	0.707510
O25	O	0.057396	0.640937	-0.042506
O26	O	0.307396	0.890937	0.207494
O27	O	0.557396	1.140937	0.457494
O28	O	0.807396	1.390937	0.707494
Cu29	Cu	0.061784	0.570538	-0.050246
Cu30	Cu	0.311784	0.820538	0.199754
Cu31	Cu	0.561784	1.070538	0.449754
Cu32	Cu	0.811784	1.320538	0.699754
Cu33	Cu	0.061770	0.570555	0.050108
Cu34	Cu	0.311770	0.820555	0.300108
Cu35	Cu	0.561770	1.070555	0.550108
Cu36	Cu	0.811770	1.320555	0.800108
O37	O	0.132180	0.566170	-0.042499
O38	O	0.382180	0.816170	0.207501
O39	O	0.632180	1.066170	0.457501
O40	O	0.882180	1.316170	0.707501
C41	C	0.065983	0.482140	-0.000058
C42	C	0.315983	0.732140	0.249942
C43	C	0.565983	0.982140	0.499942
C44	C	0.815983	1.232140	0.749942
C45	C	0.065441	0.428484	-0.000052
C46	C	0.315441	0.678484	0.249948
C47	C	0.565441	0.928484	0.499948
C48	C	0.815441	1.178484	0.749948
C49	C	0.062032	0.095758	-0.046328
C50	C	0.312032	0.345758	0.203672
C51	C	0.562032	0.595758	0.453672
C52	C	0.812032	0.845758	0.703672
C53	C	0.059970	-0.105901	-0.046334
C54	C	0.309970	0.144099	0.203666
C55	C	0.559970	0.394099	0.453666
C56	C	0.809970	0.644099	0.703666
O57	O	0.059688	-0.131980	-0.085672
O58	O	0.309688	0.118020	0.164328
O59	O	0.559688	0.368020	0.414328
O60	O	0.809688	0.618020	0.664328
N61	N	0.059708	-0.131108	-0.000077
N62	N	0.309708	0.118892	0.249923
N63	N	0.559708	0.368892	0.499923
N64	N	0.809708	0.618892	0.749923
C65	C	0.059958	-0.105897	0.046183
C66	C	0.309958	0.144103	0.296183
C67	C	0.559958	0.394103	0.546183
C68	C	0.809958	0.644103	0.796183
O69	O	0.059682	-0.131963	0.085527
O70	O	0.309682	0.118037	0.335527
O71	O	0.559682	0.368037	0.585527
O72	O	0.809682	0.618037	0.835527
C73	C	0.062016	0.095761	0.046189
C74	C	0.312016	0.345761	0.296189
C75	C	0.562016	0.595761	0.546189
C76	C	0.812016	0.845761	0.796189
C77	C	0.062283	0.120965	-0.000071
C78	C	0.312283	0.370965	0.249929
C79	C	0.562283	0.620965	0.499929
C80	C	0.812283	0.870965	0.749929
C81	C	0.062298	0.120961	-0.092583
C82	C	0.312298	0.370961	0.157417
C83	C	0.562298	0.620961	0.407417
C84	C	0.812298	0.870961	0.657417
C85	C	0.062816	0.171373	-0.092581
C86	C	0.312816	0.421373	0.157419
C87	C	0.562816	0.671373	0.407419
C88	C	0.812816	0.921373	0.657419
C89	C	0.063068	0.196580	-0.046324
C90	C	0.313068	0.446580	0.203676
C91	C	0.563068	0.696580	0.453676
C92	C	0.813068	0.946580	0.703676
C93	C	0.062801	0.171376	-0.000069
C94	C	0.312801	0.421376	0.249931
C95	C	0.562801	0.671376	0.499931
C96	C	0.812801	0.921376	0.749931
C97	C	0.062262	0.120972	0.092449
C98	C	0.312262	0.370972	0.342449
C99	C	0.562262	0.620972	0.592449
C100	C	0.812262	0.870972	0.842449
C101	C	0.062775	0.171390	0.092446
C102	C	0.312775	0.421390	0.342446
C103	C	0.562775	0.671390	0.592446
C104	C	0.812775	0.921390	0.842446
C105	C	0.063043	0.196593	0.046187
C106	C	0.313043	0.446593	0.296187
C107	C	0.563043	0.696593	0.546187
C108	C	0.813043	0.946593	0.796187
C109	C	0.063570	0.246995	0.046191
C110	C	0.313570	0.496995	0.296191
C111	C	0.563570	0.746995	0.546191
C112	C	0.813570	0.996995	0.796191
N113	N	0.063833	0.272202	-0.000066
N114	N	0.313833	0.522202	0.249934
N115	N	0.563833	0.772202	0.499934
N116	N	0.813833	1.022202	0.749934
C117	C	0.063581	0.246994	-0.046323
C118	C	0.313581	0.496994	0.203677
C119	C	0.563581	0.746994	0.453677
C120	C	0.813581	0.996994	0.703677
C121	C	0.058878	-0.211770	0.046177
C122	C	0.308878	0.038230	0.296177
C123	C	0.558878	0.288230	0.546177
C124	C	0.808878	0.538230	0.796177
C125	C	0.058364	-0.262184	0.046176
C126	C	0.308364	-0.012184	0.296176
C127	C	0.558364	0.237816	0.546176
C128	C	0.808364	0.487816	0.796176
C129	C	0.058376	-0.262185	-0.046341
C130	C	0.308376	-0.012185	0.203659
C131	C	0.558376	0.237815	0.453659
C132	C	0.808376	0.487815	0.703659
C133	C	0.058893	-0.211770	-0.046339
C134	C	0.308893	0.038230	0.203661
C135	C	0.558893	0.288230	0.453661
C136	C	0.808893	0.538230	0.703661
C137	C	0.059140	-0.186563	-0.000079
C138	C	0.309140	0.063437	0.249921
C139	C	0.559140	0.313437	0.499921
C140	C	0.809140	0.563437	0.749921
C141	C	0.064670	0.352861	-0.046315
C142	C	0.314670	0.602861	0.203685
C143	C	0.564670	0.852861	0.453685
C144	C	0.814670	1.102861	0.703685
C145	C	0.065190	0.403277	-0.046309
C146	C	0.315190	0.653277	0.203691
C147	C	0.565190	0.903277	0.453691
C148	C	0.815190	1.153277	0.703691
C149	C	0.065176	0.403273	0.046207
C150	C	0.315176	0.653273	0.296207
C151	C	0.565176	0.903273	0.546207
C152	C	0.815176	1.153273	0.796207
C153	C	0.064658	0.352862	0.046202
C154	C	0.314658	0.602862	0.296202
C155	C	0.564658	0.852862	0.546202
C156	C	0.814658	1.102862	0.796202
C157	C	0.064403	0.327657	-0.000064
C158	C	0.314403	0.577657	0.249936
C159	C	0.564403	0.827657	0.499936
C160	C	0.814403	1.077657	0.749936
O161	O	0.063847	0.273106	0.085509
O162	O	0.313847	0.523106	0.335509
O163	O	0.563847	0.773106	0.585509
O164	O	0.813847	1.023106	0.835509
O165	O	0.063846	0.273071	-0.085660
O166	O	0.313846	0.523071	0.164340
O167	O	0.563846	0.773071	0.414340
O168	O	0.813846	1.023071	0.664340
C169	C	0.061514	0.045346	-0.046330
C170	C	0.311514	0.295346	0.203670
C171	C	0.561514	0.545346	0.453670
C172	C	0.811514	0.795346	0.703670
C173	C	0.061247	0.020143	-0.000074
C174	C	0.311247	0.270143	0.249926
C175	C	0.561247	0.520143	0.499926
C176	C	0.811247	0.770143	0.749926
C177	C	0.061498	0.045350	0.046183
C178	C	0.311498	0.295350	0.296183
C179	C	0.561498	0.545350	0.546183
C180	C	0.811498	0.795350	0.796183
C181	C	0.060733	-0.030272	-0.000076
C182	C	0.310733	0.219728	0.249924
C183	C	0.560733	0.469728	0.499924
C184	C	0.810733	0.719728	0.749924
C185	C	0.060482	-0.055479	-0.046333
C186	C	0.310482	0.194521	0.203667
C187	C	0.560482	0.444521	0.453667
C188	C	0.810482	0.694521	0.703667
C189	C	0.060744	-0.030272	-0.092589
C190	C	0.310744	0.219728	0.157411
C191	C	0.560744	0.469728	0.407411
C192	C	0.810744	0.719728	0.657411
C193	C	0.061262	0.020139	-0.092587
C194	C	0.311262	0.270139	0.157413
C195	C	0.561262	0.520139	0.407413
C196	C	0.811262	0.770139	0.657413
C197	C	0.061236	0.020143	0.092439
C198	C	0.311236	0.270143	0.342439
C199	C	0.561236	0.520143	0.592439
C200	C	0.811236	0.770143	0.842439
C201	C	0.060718	-0.030268	0.092433
C202	C	0.310718	0.219732	0.342433
C203	C	0.560718	0.469732	0.592433
C204	C	0.810718	0.719732	0.842433
C205	C	0.060467	-0.055476	0.046176
C206	C	0.310467	0.194524	0.296176
C207	C	0.560467	0.444524	0.546176
C208	C	0.810467	0.694524	0.796176
C209	C	-0.026627	0.574730	-0.000066
C210	C	0.223373	0.824730	0.249934
C211	C	0.473373	1.074730	0.499934
C212	C	0.723373	1.324730	0.749934
C213	C	-0.080281	0.574174	-0.000061
C214	C	0.169719	0.824174	0.249939
C215	C	0.419719	1.074174	0.499939
C216	C	0.669719	1.324174	0.749939
C217	C	-0.457344	0.526206	-0.000053
C218	C	-0.207344	0.776206	0.249947
C219	C	0.042656	1.026206	0.499947
C220	C	0.292656	1.276206	0.749947
C221	C	-0.255685	0.528252	-0.000053
C222	C	-0.005685	0.778252	0.249947
C223	C	0.244315	1.028252	0.499947
C224	C	0.494315	1.278252	0.749947
O225	O	-0.224425	0.491030	-0.000028
O226	O	0.025575	0.741030	0.249972
O227	O	0.275575	0.991030	0.499972
O228	O	0.525575	1.241030	0.749972
N229	N	-0.236566	0.572588	-0.000058
N230	N	0.013434	0.822588	0.249942
N231	N	0.263434	1.072588	0.499942
N232	N	0.513434	1.322588	0.749942
C233	C	-0.267865	0.616415	-0.000060
C234	C	-0.017865	0.866415	0.249940
C235	C	0.232135	1.116415	0.499940
C236	C	0.482135	1.366415	0.749940
O237	O	-0.246976	0.654172	-0.000059
O238	O	0.003024	0.904172	0.249941
O239	O	0.253024	1.154172	0.499941
O240	O	0.503024	1.404172	0.749941
C241	C	-0.469524	0.614368	-0.000057
C242	C	-0.219524	0.864368	0.249943
C243	C	0.030476	1.114368	0.499943
C244	C	0.280476	1.364368	0.749943
C245	C	-0.488640	0.570029	-0.000057
C246	C	-0.238640	0.820029	0.249943
C247	C	0.011360	1.070029	0.499943
C248	C	0.261360	1.320029	0.749943
C249	C	-0.476461	0.481871	-0.000053
C250	C	-0.226461	0.731871	0.249947
C251	C	0.023539	0.981871	0.499947
C252	C	0.273539	1.231871	0.749947
C253	C	-0.526873	0.481360	-0.000056
C254	C	-0.276873	0.731360	0.249944
C255	C	-0.026873	0.981360	0.499944
C256	C	0.223127	1.231360	0.749944
C257	C	-0.558168	0.525184	-0.000059
C258	C	-0.308168	0.775184	0.249941
C259	C	-0.058168	1.025184	0.499941
C260	C	0.191832	1.275184	0.749941
C261	C	-0.539052	0.569518	-0.000060
C262	C	-0.289052	0.819518	0.249940
C263	C	-0.039052	1.069518	0.499940
C264	C	0.210948	1.319518	0.749940
C265	C	-0.500823	0.658194	-0.000055
C266	C	-0.250823	0.908194	0.249945
C267	C	-0.000823	1.158194	0.499945
C268	C	0.249177	1.408194	0.749945
C269	C	-0.551240	0.657679	-0.000053
C270	C	-0.301240	0.907679	0.249947
C271	C	-0.051240	1.157679	0.499947
C272	C	0.198760	1.407679	0.749947
C273	C	-0.570356	0.613340	-0.000053
C274	C	-0.320356	0.863340	0.249947
C275	C	-0.070356	1.113340	0.499947
C276	C	0.179644	1.363340	0.749947
C277	C	-0.620760	0.612831	-0.000066
C278	C	-0.370760	0.862831	0.249934
C279	C	-0.120760	1.112831	0.499934
C280	C	0.129240	1.362831	0.749934
N281	N	-0.639879	0.568495	-0.000061
N282	N	-0.389879	0.818495	0.249939
N283	N	-0.139879	1.068495	0.499939
N284	N	0.110121	1.318495	0.749939
C285	C	-0.608583	0.524672	-0.000057
C286	C	-0.358583	0.774672	0.249943
C287	C	-0.108583	1.024672	0.499943
C288	C	0.141417	1.274672	0.749943
C289	C	-0.161991	0.617486	-0.000063
C290	C	0.088009	0.867486	0.249937
C291	C	0.338009	1.117486	0.499937
C292	C	0.588009	1.367486	0.749937
C293	C	-0.111577	0.617998	-0.000064
C294	C	0.138423	0.867998	0.249936
C295	C	0.388423	1.117998	0.499936
C296	C	0.638423	1.367998	0.749936
C297	C	-0.099399	0.529835	-0.000056
C298	C	0.150601	0.779835	0.249944
C299	C	0.400601	1.029835	0.499944
C300	C	0.650601	1.279835	0.749944
C301	C	-0.149815	0.529324	-0.000058
C302	C	0.100185	0.779324	0.249942
C303	C	0.350185	1.029324	0.499942
C304	C	0.600185	1.279324	0.749942
C305	C	-0.181110	0.573151	-0.000057
C306	C	0.068890	0.823151	0.249943
C307	C	0.318890	1.073151	0.499943
C308	C	0.568890	1.323151	0.749943
C309	C	-0.714452	0.523602	-0.000064
C310	C	-0.464452	0.773602	0.249936
C311	C	-0.214452	1.023602	0.499936
C312	C	0.035548	1.273602	0.749936
C313	C	-0.764869	0.523095	-0.000069
C314	C	-0.514869	0.773095	0.249931
C315	C	-0.264869	1.023095	0.499931
C316	C	-0.014869	1.273095	0.749931
C317	C	-0.777042	0.611257	-0.000074
C318	C	-0.527042	0.861257	0.249926
C319	C	-0.277042	1.111257	0.499926
C320	C	-0.027042	1.361257	0.749926
C321	C	-0.726630	0.611764	-0.000072
C322	C	-0.476630	0.861764	0.249928
C323	C	-0.226630	1.111764	0.499928
C324	C	0.023370	1.361764	0.749928
C325	C	-0.695335	0.567933	-0.000065
C326	C	-0.445335	0.817933	0.249935
C327	C	-0.195335	1.067933	0.499935
C328	C	0.054665	1.317933	0.749935
O329	O	-0.652048	0.650033	-0.000085
O330	O	-0.402048	0.900033	0.249915
O331	O	-0.152048	1.150033	0.499915
O332	O	0.097952	1.400033	0.749915
O333	O	-0.629481	0.486920	-0.000047
O334	O	-0.379481	0.736920	0.249953
O335	O	-0.129481	0.986920	0.499953
O336	O	0.120519	1.236920	0.749953
C337	C	-0.406932	0.526717	-0.000050
C338	C	-0.156932	0.776717	0.249950
C339	C	0.093068	1.026717	0.499950
C340	C	0.343068	1.276717	0.749950
C341	C	-0.387816	0.571052	-0.000051
C342	C	-0.137816	0.821052	0.249949
C343	C	0.112184	1.071052	0.499949
C344	C	0.362184	1.321052	0.749949
C345	C	-0.419112	0.614875	-0.000054
C346	C	-0.169112	0.864875	0.249946
C347	C	0.080888	1.114875	0.499946
C348	C	0.330888	1.364875	0.749946
C349	C	-0.337402	0.571563	-0.000053
C350	C	-0.087402	0.821563	0.249947
C351	C	0.162598	1.071563	0.499947
C352	C	0.412598	1.321563	0.749947
C353	C	-0.306106	0.527740	-0.000049
C354	C	-0.056106	0.777740	0.249951
C355	C	0.193894	1.027740	0.499951
C356	C	0.443894	1.277740	0.749951
C357	C	-0.325225	0.483404	-0.000044
C358	C	-0.075225	0.733404	0.249956
C359	C	0.174775	0.983404	0.499956
C360	C	0.424775	1.233404	0.749956
C361	C	-0.375637	0.482893	-0.000047
C362	C	-0.125637	0.732893	0.249953
C363	C	0.124363	0.982893	0.499953
C364	C	0.374363	1.232893	0.749953
C365	C	-0.399993	0.659211	-0.000059
C366	C	-0.149993	0.909211	0.249941
C367	C	0.100007	1.159211	0.499941
C368	C	0.350007	1.409211	0.749941
C369	C	-0.349580	0.659718	-0.000057
C370	C	-0.099580	0.909718	0.249943
C371	C	0.150420	1.159718	0.499943
C372	C	0.400420	1.409718	0.749943
C373	C	-0.318285	0.615895	-0.000054
C374	C	-0.068285	0.865895	0.249946
C375	C	0.181715	1.115895	0.499946
C376	C	0.431715	1.365895	0.749946
C377	C	0.150181	0.566362	-0.000071
C378	C	0.400181	0.816362	0.249929
C379	C	0.650181	1.066362	0.499929
C380	C	0.900181	1.316362	0.749929
C381	C	0.203835	0.566918	-0.000072
C382	C	0.453835	0.816918	0.249928
C383	C	0.703835	1.066918	0.499928
C384	C	0.953835	1.316918	0.749928
C385	C	0.057571	0.658952	-0.000078
C386	C	0.307571	0.908952	0.249922
C387	C	0.557571	1.158952	0.499922
C388	C	0.807571	1.408952	0.749922
C389	C	0.058113	0.712608	-0.000081
C390	C	0.308113	0.962608	0.249919
C391	C	0.558113	1.212608	0.499919
C392	C	0.808113	1.462608	0.749919
N393	N	0.061793	0.570529	-0.120830
N394	N	0.311793	0.820529	0.129170
N395	N	0.561793	1.070529	0.379170
N396	N	0.811793	1.320529	0.629170
C397	C	0.028663	0.603658	-0.473347
C398	C	0.278663	0.853658	-0.223347
C399	C	0.528663	1.103658	0.026653
C400	C	0.778663	1.353658	0.276653
C401	C	0.028657	0.603669	-0.687006
C402	C	0.278657	0.853669	-0.437006
C403	C	0.528657	1.103669	-0.187006
C404	C	0.778657	1.353669	0.062994
O405	O	0.000491	0.631818	-0.714630
O406	O	0.250491	0.881818	-0.464630
O407	O	0.500491	1.131818	-0.214630
O408	O	0.750491	1.381818	0.035370
N409	N	0.061760	0.570557	-0.713724
N410	N	0.311760	0.820557	-0.463724
N411	N	0.561760	1.070557	-0.213724
N412	N	0.811760	1.320557	0.036276
C413	C	0.094864	0.537439	-0.687024
C414	C	0.344864	0.787439	-0.437024
C415	C	0.594864	1.037439	-0.187024
C416	C	0.844864	1.287439	0.062976
O417	O	0.123017	0.509272	-0.714652
O418	O	0.373017	0.759272	-0.464652
O419	O	0.623017	1.009272	-0.214652
O420	O	0.873017	1.259272	0.035348
C421	C	0.094868	0.537426	-0.473367
C422	C	0.344868	0.787426	-0.223367
C423	C	0.594868	1.037426	0.026633
C424	C	0.844868	1.287426	0.276633
C425	C	0.061767	0.570543	-0.446651
C426	C	0.311767	0.820543	-0.196651
C427	C	0.561767	1.070543	0.053349
C428	C	0.811767	1.320543	0.303349
C429	C	-0.004436	0.636772	-0.446631
C430	C	0.245564	0.886772	-0.196631
C431	C	0.495564	1.136772	0.053369
C432	C	0.745564	1.386772	0.303369
C433	C	-0.004432	0.636771	-0.393220
C434	C	0.245568	0.886771	-0.143220
C435	C	0.495568	1.136771	0.106780
C436	C	0.745568	1.386771	0.356780
C437	C	0.028671	0.603656	-0.366524
C438	C	0.278671	0.853656	-0.116524
C439	C	0.528671	1.103656	0.133476
C440	C	0.778671	1.353656	0.383476
C441	C	0.061770	0.570542	-0.393240
C442	C	0.311770	0.820542	-0.143240
C443	C	0.561770	1.070542	0.106760
C444	C	0.811770	1.320542	0.356760
C445	C	0.127970	0.504306	-0.446668
C446	C	0.377970	0.754306	-0.196668
C447	C	0.627970	1.004306	0.053332
C448	C	0.877970	1.254306	0.303332
C449	C	0.127968	0.504305	-0.393250
C450	C	0.377968	0.754305	-0.143250
C451	C	0.627968	1.004305	0.106750
C452	C	0.877968	1.254305	0.356750
C453	C	0.094866	0.537422	-0.366535
C454	C	0.344866	0.787422	-0.116535
C455	C	0.594866	1.037422	0.133465
C456	C	0.844866	1.287422	0.383465
C457	C	0.094877	0.537425	-0.313132
C458	C	0.344877	0.787425	-0.063132
C459	C	0.594877	1.037425	0.186868
C460	C	0.844877	1.287425	0.436868
N461	N	0.061775	0.570537	-0.286414
N462	N	0.311775	0.820537	-0.036414
N463	N	0.561775	1.070537	0.213586
N464	N	0.811775	1.320537	0.463586
C465	C	0.028671	0.603652	-0.313110
C466	C	0.278671	0.853652	-0.063110
C467	C	0.528671	1.103652	0.186890
C468	C	0.778671	1.353652	0.436890
C469	C	0.094860	0.537448	-0.799198
C470	C	0.344860	0.787448	-0.549198
C471	C	0.594860	1.037448	-0.299198
C472	C	0.844860	1.287448	-0.049198
C473	C	0.094860	0.537452	-0.852612
C474	C	0.344860	0.787452	-0.602612
C475	C	0.594860	1.037452	-0.352612
C476	C	0.844860	1.287452	-0.102612
C477	C	0.028652	0.603682	-0.852589
C478	C	0.278652	0.853682	-0.602589
C479	C	0.528652	1.103682	-0.352589
C480	C	0.778652	1.353682	-0.102589
C481	C	0.028655	0.603680	-0.799174
C482	C	0.278655	0.853680	-0.549174
C483	C	0.528655	1.103680	-0.299174
C484	C	0.778655	1.353680	-0.049174
C485	C	0.061758	0.570560	-0.772479
C486	C	0.311758	0.820560	-0.522479
C487	C	0.561758	1.070560	-0.272479
C488	C	0.811758	1.320560	-0.022479
C489	C	0.028682	0.603647	-0.200942
C490	C	0.278682	0.853647	0.049058
C491	C	0.528682	1.103647	0.299058
C492	C	0.778682	1.353647	0.549058
C493	C	0.028690	0.603644	-0.147526
C494	C	0.278690	0.853644	0.102474
C495	C	0.528690	1.103644	0.352474
C496	C	0.778690	1.353644	0.602474
C497	C	0.094897	0.537413	-0.147553
C498	C	0.344897	0.787413	0.102447
C499	C	0.594897	1.037413	0.352447
C500	C	0.844897	1.287413	0.602447
C501	C	0.094890	0.537418	-0.200964
C502	C	0.344890	0.787418	0.049036
C503	C	0.594890	1.037418	0.299036
C504	C	0.844890	1.287418	0.549036
C505	C	0.061779	0.570536	-0.227658
C506	C	0.311779	0.820536	0.022342
C507	C	0.561779	1.070536	0.272342
C508	C	0.811779	1.320536	0.522342
O509	O	0.123025	0.509288	-0.285475
O510	O	0.373025	0.759288	-0.035475
O511	O	0.623025	1.009288	0.214525
O512	O	0.873025	1.259288	0.464525
O513	O	0.000516	0.631807	-0.285473
O514	O	0.250516	0.881807	-0.035473
O515	O	0.500516	1.131807	0.214527
O516	O	0.750516	1.381807	0.464527
C517	C	0.028660	0.603659	-0.526758
C518	C	0.278660	0.853659	-0.276758
C519	C	0.528660	1.103659	-0.026758
C520	C	0.778660	1.353659	0.223242
C521	C	0.061759	0.570546	-0.553474
C522	C	0.311759	0.820546	-0.303474
C523	C	0.561759	1.070546	-0.053474
C524	C	0.811759	1.320546	0.196526
C525	C	0.094862	0.537430	-0.526778
C526	C	0.344862	0.787430	-0.276778
C527	C	0.594862	1.037430	-0.026778
C528	C	0.844862	1.287430	0.223222
C529	C	0.061759	0.570549	-0.606888
C530	C	0.311759	0.820549	-0.356888
C531	C	0.561759	1.070549	-0.106888
C532	C	0.811759	1.320549	0.143112
C533	C	0.028656	0.603664	-0.633584
C534	C	0.278656	0.853664	-0.383584
C535	C	0.528656	1.103664	-0.133584
C536	C	0.778656	1.353664	0.116416
C537	C	-0.004447	0.636776	-0.606866
C538	C	0.245553	0.886776	-0.356866
C539	C	0.495553	1.136776	-0.106866
C540	C	0.745553	1.386776	0.143134
C541	C	-0.004443	0.636775	-0.553454
C542	C	0.245557	0.886775	-0.303454
C543	C	0.495557	1.136775	-0.053454
C544	C	0.745557	1.386775	0.196546
C545	C	0.127965	0.504319	-0.553496
C546	C	0.377965	0.754319	-0.303496
C547	C	0.627965	1.004319	-0.053496
C548	C	0.877965	1.254319	0.196504
C549	C	0.127959	0.504323	-0.606908
C550	C	0.377959	0.754323	-0.356908
C551	C	0.627959	1.004323	-0.106908
C552	C	0.877959	1.254323	0.143092
C553	C	0.094856	0.537438	-0.633604
C554	C	0.344856	0.787438	-0.383604
C555	C	0.594856	1.037438	-0.133604
C556	C	0.844856	1.287438	0.116396
N557	N	0.061757	0.570567	0.120692
N558	N	0.311757	0.820567	0.370692
N559	N	0.561757	1.070567	0.620692
N560	N	0.811757	1.320567	0.870692
H561	H	0.060505	-0.050785	0.130106
H562	H	0.310505	0.199215	0.380106
H563	H	0.560505	0.449215	0.630106
H564	H	0.810505	0.699215	0.880106
H565	H	0.065409	0.423795	-0.083981
H566	H	0.315409	0.673795	0.166019
H567	H	0.565409	0.923795	0.416019
H568	H	0.815409	1.173795	0.666019
F569	F	-0.810358	0.657895	-0.000081
F570	F	-0.560358	0.907895	0.249919
F571	F	-0.310358	1.157895	0.499919
F572	F	-0.060358	1.407895	0.749919
H573	H	0.061439	0.040662	0.130108
H574	H	0.311439	0.290662	0.380108
H575	H	0.561439	0.540662	0.630108
H576	H	0.811439	0.790662	0.880108
H577	H	0.001700	0.630646	-0.777426
H578	H	0.251700	0.880646	-0.527426
H579	H	0.501700	1.130646	-0.277426
H580	H	0.751700	1.380646	-0.027426
H581	H	0.064467	0.332345	-0.083989
H582	H	0.314467	0.582345	0.166011
H583	H	0.564467	0.832345	0.416011
H584	H	0.814467	1.082345	0.666011
F585	F	-0.006542	0.638894	-0.119096
F586	F	0.243458	0.888894	0.130904
F587	F	0.493458	1.138894	0.380904
F588	F	0.743458	1.388894	0.630904
F589	F	0.064381	0.326036	0.095436
F590	F	0.314381	0.576036	0.345436
F591	F	0.564381	0.826036	0.595436
F592	F	0.814381	1.076036	0.845436
F593	F	-0.091238	0.665189	-0.000072
F594	F	0.158762	0.915189	0.249928
F595	F	0.408762	1.165189	0.499928
F596	F	0.658762	1.415189	0.749928
F597	F	-0.785210	0.475902	-0.000070
F598	F	-0.535210	0.725902	0.249930
F599	F	-0.285210	0.975902	0.499930
F600	F	-0.035210	1.225902	0.749930
F601	F	0.059177	-0.184951	-0.095574
F602	F	0.309177	0.065049	0.154426
F603	F	0.559177	0.315049	0.404426
F604	F	0.809177	0.565049	0.654426
F605	F	-0.006559	0.638896	-0.229343
F606	F	0.243441	0.888896	0.020657
F607	F	0.493441	1.138896	0.270657
F608	F	0.743441	1.388896	0.520657
F609	F	0.130097	0.502211	-0.881039
F610	F	0.380097	0.752211	-0.631039
F611	F	0.630097	1.002211	-0.381039
F612	F	0.880097	1.252211	-0.131039
F613	F	0.062032	0.094141	-0.141821
F614	F	0.312032	0.344141	0.108179
F615	F	0.562032	0.594141	0.358179
F616	F	0.812032	0.844141	0.608179
H617	H	-0.031400	0.663741	-0.628610
H618	H	0.218600	0.913741	-0.378610
H619	H	0.468600	1.163741	-0.128610
H620	H	0.718600	1.413741	0.121390
H621	H	-0.031398	0.663741	-0.531706
H622	H	0.218602	0.913741	-0.281706
H623	H	0.468602	1.163741	-0.031706
H624	H	0.718602	1.413741	0.218294
H625	H	0.063031	0.191889	-0.130250
H626	H	0.313031	0.441889	0.119750
H627	H	0.563031	0.691889	0.369750
H628	H	0.813031	0.941889	0.619750
H629	H	0.059079	-0.191251	0.083850
H630	H	0.309079	0.058749	0.333850
H631	H	0.559079	0.308749	0.583850
H632	H	0.809079	0.558749	0.833850
F633	F	-0.681153	0.476951	-0.000057
F634	F	-0.431153	0.726951	0.249943
F635	F	-0.181153	0.976951	0.499943
F636	F	0.068847	1.226951	0.749943
F637	F	0.058108	-0.289021	-0.095572
F638	F	0.308108	-0.039021	0.154428
F639	F	0.558108	0.210979	0.404428
F640	F	0.808108	0.460979	0.654428
H641	H	-0.187468	0.653177	-0.000063
H642	H	0.062532	0.903177	0.249937
H643	H	0.312532	1.153177	0.499937
H644	H	0.562532	1.403177	0.749937
H645	H	-0.031388	0.663736	-0.371471
H646	H	0.218612	0.913736	-0.121471
H647	H	0.468612	1.163736	0.128529
H648	H	0.718612	1.413736	0.378529
H649	H	0.058154	-0.282702	0.083845
H650	H	0.308154	-0.032702	0.333845
H651	H	0.558154	0.217298	0.583845
H652	H	0.808154	0.467298	0.833845
H653	H	-0.031395	0.663738	-0.468362
H654	H	0.218605	0.913738	-0.218362
H655	H	0.468605	1.163738	0.031638
H656	H	0.718605	1.413738	0.281638
F657	F	-0.395975	0.435702	-0.000046
F658	F	-0.145975	0.685702	0.249954
F659	F	0.104025	0.935702	0.499954
F660	F	0.354025	1.185702	0.749954
F661	F	0.061977	0.094159	0.141685
F662	F	0.311977	0.344159	0.391685
F663	F	0.561977	0.594159	0.641685
F664	F	0.811977	0.844159	0.891685
F665	F	0.163195	0.469076	-0.635336
F666	F	0.413195	0.719076	-0.385336
F667	F	0.663195	0.969076	-0.135336
F668	F	0.913195	1.219076	0.114664
F669	F	-0.706284	0.658954	-0.000088
F670	F	-0.456284	0.908954	0.249912
F671	F	-0.206284	1.158954	0.499912
F672	F	0.043716	1.408954	0.749912
H673	H	0.062977	0.191911	0.130118
H674	H	0.312977	0.441911	0.380118
H675	H	0.562977	0.691911	0.630118
H676	H	0.812977	0.941911	0.880118
F677	F	-0.006579	0.638925	-0.881011
F678	F	0.243421	0.888925	-0.631011
F679	F	0.493421	1.138925	-0.381011
F680	F	0.743421	1.388925	-0.131011
F681	F	0.065442	0.430110	0.095435
F682	F	0.315442	0.680110	0.345435
F683	F	0.565442	0.930110	0.595435
F684	F	0.815442	1.180110	0.845435
F685	F	-0.066084	0.483195	-0.000053
F686	F	0.183916	0.733195	0.249947
F687	F	0.433916	0.983195	0.499947
F688	F	0.683916	1.233195	0.749947
F689	F	0.061547	0.046956	-0.141823
F690	F	0.311547	0.296956	0.108177
F691	F	0.561547	0.546956	0.358177
F692	F	0.811547	0.796956	0.608177
H693	H	0.060542	-0.050805	-0.130253
H694	H	0.310542	0.199195	0.119747
H695	H	0.560542	0.449195	0.369747
H696	H	0.810542	0.699195	0.619747
H697	H	0.121818	0.510477	-0.777466
H698	H	0.371818	0.760477	-0.527466
H699	H	0.621818	1.010477	-0.277466
H700	H	0.871818	1.260477	-0.027466
H701	H	0.121849	0.510455	-0.222717
H702	H	0.371849	0.760455	0.027283
H703	H	0.621849	1.010455	0.277283
H704	H	0.871849	1.260455	0.527283
H705	H	0.154924	0.477339	-0.468412
H706	H	0.404924	0.727339	-0.218412
H707	H	0.654924	0.977339	0.031588
H708	H	0.904924	1.227339	0.281588
F709	F	-0.547211	0.434169	-0.000051
F710	F	-0.297211	0.684169	0.249949
F711	F	-0.047211	0.934169	0.499949
F712	F	0.202789	1.184169	0.749949
F713	F	0.163199	0.469072	-0.525091
F714	F	0.413199	0.719072	-0.275091
F715	F	0.663199	0.969072	-0.025091
F716	F	0.913199	1.219072	0.224909
H717	H	-0.450984	0.446182	-0.000048
H718	H	-0.200984	0.696182	0.249952
H719	H	0.049016	0.946182	0.499952
H720	H	0.299016	1.196182	0.749952
F721	F	0.163200	0.469051	-0.364843
F722	F	0.413200	0.719051	-0.114843
F723	F	0.663200	0.969051	0.135157
F724	F	0.913200	1.219051	0.385157
F725	F	-0.480490	0.705386	-0.000046
F726	F	-0.230490	0.955386	0.249954
F727	F	0.019510	1.205386	0.499954
F728	F	0.269510	1.455386	0.749954
F729	F	-0.170154	0.482134	-0.000058
F730	F	0.079846	0.732134	0.249942
F731	F	0.329846	0.982134	0.499942
F732	F	0.579846	1.232134	0.749942
H733	H	-0.576719	0.693369	-0.000049
H734	H	-0.326719	0.943369	0.249951
H735	H	-0.076719	1.193369	0.499951
H736	H	0.173281	1.443369	0.749951
H737	H	0.121850	0.510453	-0.125809
H738	H	0.371850	0.760453	0.124191
H739	H	0.621850	1.010453	0.374191
H740	H	0.871850	1.260453	0.624191
F741	F	-0.291909	0.436764	-0.000043
F742	F	-0.041909	0.686764	0.249957
F743	F	0.208091	0.936764	0.499957
F744	F	0.458091	1.186764	0.749957
H745	H	-0.334022	0.695827	-0.000061
H746	H	-0.084022	0.945827	0.249939
H747	H	0.165978	1.195827	0.499939
H748	H	0.415978	1.445827	0.749939
H749	H	-0.425469	0.694898	-0.000062
H750	H	-0.175469	0.944898	0.249938
H751	H	0.074531	1.194898	0.499938
H752	H	0.324531	1.444898	0.749938
