data_functionalizedCrystal
_audit_creation_method	'MofGen! by Chris Wilmer'
_symmetry_space_group_name_H-M	'P1'
_symmetry_Int_Tables_number	1
_symmetry_cell_setting	triclinic
loop_
_symmetry_equiv_pos_as_xyz
  x,y,z
_cell_length_a	18.101398
_cell_length_b	29.839131
_cell_length_c	18.101398
_cell_angle_alpha	90.007809
_cell_angle_beta	90.009734
_cell_angle_gamma	90.036686
loop_
_atom_site_label
_atom_site_type_symbol
_atom_site_fract_x
_atom_site_fract_y
_atom_site_fract_z
Zn1	Zn	1.131961	-0.179017	0.418824
Zn2	Zn	1.131866	-0.254116	0.294976
Zn3	Zn	1.008152	-0.178995	0.294985
Zn4	Zn	1.008049	-0.254114	0.418764
O5	O	1.070007	-0.216561	0.356887
O6	O	1.235581	-0.188989	0.402416
O7	O	1.115459	-0.244142	0.191344
O8	O	1.024658	-0.116130	0.311441
O9	O	1.235512	-0.244164	0.311426
O10	O	1.115620	-0.116147	0.402425
O11	O	1.024566	-0.188951	0.191351
O12	O	0.904505	-0.188949	0.311383
O13	O	1.024482	-0.244161	0.522405
O14	O	0.904429	-0.244140	0.402324
O15	O	1.115520	-0.188988	0.522449
O16	O	1.115359	-0.316983	0.311368
O17	O	1.024390	-0.316982	0.402315
C18	C	0.877596	-0.216542	0.356849
C19	C	0.795282	-0.216545	0.356850
C20	C	1.069873	-0.333283	0.356851
C21	C	1.069884	-0.383218	0.356860
C22	C	0.496191	-0.216573	0.356912
C23	C	0.527539	-0.181676	0.299974
C24	C	0.613158	-0.181769	0.299731
C25	C	0.644574	-0.216559	0.356881
C26	C	0.613447	-0.263878	0.335553
C27	C	0.527802	-0.263684	0.335157
C28	C	0.527790	-0.204563	0.435312
C29	C	0.613441	-0.203509	0.434884
C30	C	0.728433	-0.216554	0.356865
C31	C	0.412332	-0.216582	0.356926
C32	C	1.117460	-0.692849	0.309600
C33	C	1.117552	-0.880522	0.309629
O34	O	1.157897	-0.904776	0.269420
N35	N	1.070160	-0.904003	0.356943
C36	C	1.022746	-0.880562	0.404257
O37	O	0.982445	-0.904840	0.444506
C38	C	1.022659	-0.692890	0.404231
C39	C	1.070048	-0.669412	0.356909
C40	C	1.164846	-0.669371	0.262283
C41	C	1.164820	-0.622455	0.262273
C42	C	1.117408	-0.599018	0.309581
C43	C	1.070022	-0.622496	0.356899
C44	C	0.975250	-0.669450	0.451548
C45	C	0.975233	-0.622529	0.451539
C46	C	1.022622	-0.599051	0.404216
C47	C	1.022584	-0.552144	0.404198
N48	N	1.069975	-0.528663	0.356884
C49	C	1.117387	-0.552100	0.309576
C50	C	1.022795	-0.979093	0.404266
C51	C	1.022815	-1.026011	0.404271
C52	C	1.117622	-1.025967	0.309645
C53	C	1.117597	-0.979048	0.309636
C54	C	1.070186	-0.955612	0.356952
C55	C	1.117328	-0.453574	0.309559
C56	C	1.117296	-0.406655	0.309551
C57	C	1.022492	-0.406702	0.404180
C58	C	1.022522	-0.453618	0.404185
C59	C	1.069946	-0.477053	0.356872
O60	O	0.982266	-0.527860	0.444392
O61	O	1.157694	-0.527814	0.269344
C62	C	1.117486	-0.739764	0.309610
C63	C	1.070101	-0.763243	0.356928
C64	C	1.022689	-0.739805	0.404236
C65	C	1.070121	-0.810160	0.356933
C66	C	1.117533	-0.833598	0.309625
C67	C	1.164924	-0.810117	0.262311
C68	C	1.164898	-0.763201	0.262302
C69	C	0.975298	-0.763286	0.451550
C70	C	0.975327	-0.810202	0.451555
C71	C	1.022739	-0.833639	0.404247
C72	C	1.263169	-0.216579	0.356926
C73	C	1.345483	-0.216587	0.356943
C74	C	1.070000	-0.216577	0.550049
C75	C	1.069998	-0.216584	0.632363
C76	C	1.070161	-0.099382	0.356940
C77	C	1.070227	-0.049448	0.356963
C78	C	1.069992	-0.216576	0.783072
C79	C	1.012716	-0.251289	0.814398
C80	C	1.012489	-0.251183	0.900016
C81	C	1.069987	-0.216570	0.931454
C82	C	1.049121	-0.169189	0.900374
C83	C	1.048708	-0.169393	0.814729
C84	C	1.148278	-0.228830	0.814646
C85	C	1.147855	-0.229871	0.900296
C86	C	1.069985	-0.216564	1.015314
C87	C	1.069992	-0.216580	0.699212
C88	C	1.070000	-0.216558	1.164477
C89	C	1.069981	-0.216563	1.082163
H90	H	0.634205	-0.146679	0.313100
H91	H	0.506976	-0.146479	0.313196
C92	C	0.500781	-0.277442	0.257725
N93	N	0.480432	-0.287802	0.199400
H94	H	1.203487	-0.744089	0.223768
H95	H	0.936690	-0.744207	0.490075
C96	C	1.030075	-0.298642	0.928406
N97	N	1.043316	-0.334391	0.949786
C98	C	0.923119	-0.695266	0.503609
N99	N	0.883853	-0.714709	0.542827
H100	H	0.634873	-0.274243	0.278857
H101	H	1.167331	-0.262797	0.793043
C102	C	0.499781	-0.300001	0.388733
N103	N	0.478679	-0.327356	0.429084
H104	H	0.506223	-0.170660	0.454703
C105	C	0.640943	-0.299948	0.389816
N106	N	0.661658	-0.327115	0.430685
H107	H	0.506002	-0.189524	0.242218
C108	C	1.169120	-0.276979	0.927736
N109	N	1.185135	-0.312462	0.948408
C110	C	0.923076	-0.596752	0.503592
N111	N	0.883791	-0.577338	0.542797
H112	H	1.088627	-0.142638	0.794006
C113	C	1.217077	-0.835907	0.210271
N114	N	1.256358	-0.855334	0.171079
C115	C	0.640923	-0.156464	0.456608
N116	N	0.661625	-0.121028	0.472967
C117	C	0.640809	-0.192496	0.221249
N118	N	0.661636	-0.200577	0.162134
H119	H	0.634827	-0.227076	0.479581
C120	C	1.169779	-1.051757	0.257609
N121	N	1.209066	-1.071184	0.218422
H122	H	0.955037	-0.243265	0.792870
C123	C	0.970677	-1.051831	0.456322
N124	N	0.931407	-1.071278	0.495532
H125	H	0.507515	-0.229982	0.477736
C126	C	1.169426	-0.380831	0.257487
N127	N	1.208689	-0.361383	0.218273
C128	C	0.970345	-0.380912	0.456220
N129	N	0.931071	-0.361486	0.495421
H130	H	1.155947	-0.472649	0.271033
H131	H	1.203410	-0.603342	0.223741
C132	C	1.217003	-0.695144	0.210231
N133	N	1.256287	-0.714554	0.171017
C134	C	0.970389	-0.479444	0.456239
N135	N	0.931128	-0.498894	0.495453
H136	H	1.156185	-0.959935	0.271102
H137	H	0.984185	-0.960014	0.442797
C138	C	1.030096	-0.298899	0.786564
N139	N	1.043186	-0.334759	0.765591
H140	H	1.190948	-0.203546	0.794393
C141	C	0.923190	-0.836022	0.503616
N142	N	0.883927	-0.855469	0.542832
H143	H	0.954478	-0.243059	0.920499
C144	C	0.971410	-0.155392	0.787733
N145	N	0.913186	-0.144848	0.767404
C146	C	1.103733	-0.133286	0.927909
N147	N	1.144862	-0.106243	0.948658
H148	H	0.992532	-0.158642	0.921819
H149	H	1.192788	-0.206444	0.921700
