data_functionalizedCrystal
_audit_creation_method	'MofGen! by Chris Wilmer'
_symmetry_space_group_name_H-M	'P1'
_symmetry_Int_Tables_number	1
_symmetry_cell_setting	triclinic
loop_
_symmetry_equiv_pos_as_xyz
  x,y,z
_cell_length_a	21.295418
_cell_length_b	29.839131
_cell_length_c	21.295411
_cell_angle_alpha	90.028018
_cell_angle_beta	90.043738
_cell_angle_gamma	90.051038
loop_
_atom_site_label
_atom_site_type_symbol
_atom_site_fract_x
_atom_site_fract_y
_atom_site_fract_z
Zn1	Zn	0.962335	-0.178715	0.356206
Zn2	Zn	1.462335	0.321285	0.856206
Zn3	Zn	0.962229	-0.253830	0.250919
Zn4	Zn	1.462229	0.246170	0.750919
Zn5	Zn	0.857058	-0.178736	0.250916
Zn6	Zn	1.357058	0.321264	0.750916
Zn7	Zn	0.857019	-0.253839	0.356116
Zn8	Zn	1.357019	0.246161	0.856116
O9	O	0.909660	-0.216280	0.303539
O10	O	1.409660	0.283720	0.803539
O11	O	1.050410	-0.188667	0.342279
O12	O	1.550410	0.311333	0.842279
O13	O	0.948250	-0.243874	0.162829
O14	O	1.448250	0.256126	0.662829
O15	O	0.871084	-0.115866	0.264918
O16	O	1.371084	0.384134	0.764918
O17	O	1.050332	-0.243854	0.264925
O18	O	1.550332	0.256146	0.764925
O19	O	0.948431	-0.115851	0.342275
O20	O	1.448431	0.384149	0.842275
O21	O	0.870981	-0.188703	0.162827
O22	O	1.370981	0.311297	0.662827
O23	O	0.768964	-0.188711	0.264831
O24	O	1.268964	0.311289	0.764831
O25	O	0.871017	-0.243869	0.444217
O26	O	1.371017	0.256131	0.944217
O27	O	0.768935	-0.243889	0.342122
O28	O	1.268935	0.256111	0.842122
O29	O	0.948393	-0.188675	0.444283
O30	O	1.448393	0.311325	0.944283
O31	O	0.948212	-0.316699	0.264838
O32	O	1.448212	0.183301	0.764838
O33	O	0.870914	-0.316705	0.342125
O34	O	1.370914	0.183295	0.842125
C35	C	0.746109	-0.216304	0.303467
C36	C	1.246109	0.283696	0.803467
C37	C	0.676141	-0.216325	0.303451
C38	C	1.176141	0.283675	0.803451
C39	C	0.909564	-0.333003	0.303486
C40	C	1.409564	0.166997	0.803486
C41	C	0.909581	-0.382937	0.303484
C42	C	1.409581	0.117063	0.803484
C43	C	0.643275	-0.245094	0.343635
C44	C	1.143275	0.254906	0.843635
C45	C	0.577533	-0.245083	0.343664
C46	C	1.077533	0.254917	0.843664
C47	C	0.544658	-0.216307	0.303496
C48	C	1.044658	0.283693	0.803496
C49	C	0.577531	-0.187532	0.263308
C50	C	1.077531	0.312468	0.763308
C51	C	0.643272	-0.187541	0.263286
C52	C	1.143272	0.312459	0.763286
N53	N	0.441382	-0.212791	0.248439
N54	N	0.941382	0.287209	0.748439
N55	N	0.378931	-0.212785	0.248462
N56	N	0.878931	0.287215	0.748462
C57	C	0.346583	-0.216279	0.303563
C58	C	0.846583	0.283721	0.803563
N59	N	0.379046	-0.219787	0.358640
N60	N	0.879046	0.280213	0.858640
N61	N	0.441504	-0.219795	0.358616
N62	N	0.941504	0.280205	0.858616
C63	C	0.473373	-0.216294	0.303516
C64	C	0.973373	0.283706	0.803516
C65	C	0.242433	-0.245037	0.343782
C66	C	0.742433	0.254963	0.843782
C67	C	0.176689	-0.245023	0.343811
C68	C	0.676689	0.254977	0.843811
C69	C	0.176689	-0.187475	0.263450
C70	C	0.676689	0.312525	0.763450
C71	C	0.242431	-0.187487	0.263426
C72	C	0.742431	0.312513	0.763426
C73	C	0.275299	-0.216271	0.303591
C74	C	0.775299	0.283729	0.803591
C75	C	0.949926	-0.692538	0.343876
C76	C	1.449926	-0.192538	0.843876
C77	C	0.949994	-0.880211	0.343914
C78	C	1.449994	-0.380211	0.843914
O79	O	0.984203	-0.904439	0.378217
O80	O	1.484203	-0.404439	0.878217
N81	N	0.909767	-0.903722	0.303609
N82	N	1.409767	-0.403722	0.803609
C83	C	0.869517	-0.880313	0.263295
C84	C	1.369517	-0.380313	0.763295
O85	O	0.835299	-0.904617	0.229019
O86	O	1.335299	-0.404617	0.729019
C87	C	0.869446	-0.692640	0.263261
C88	C	1.369446	-0.192640	0.763261
C89	C	0.909680	-0.669131	0.303564
C90	C	1.409680	-0.169131	0.803564
C91	C	0.990156	-0.669028	0.384176
C92	C	1.490156	-0.169028	0.884176
C93	C	0.990141	-0.622113	0.384164
C94	C	1.490141	-0.122113	0.884164
C95	C	0.949896	-0.598707	0.343851
C96	C	1.449896	-0.098707	0.843851
C97	C	0.909665	-0.622216	0.303551
C98	C	1.409665	-0.122216	0.803551
C99	C	0.829194	-0.669232	0.222950
C100	C	1.329194	-0.169232	0.722950
C101	C	0.829179	-0.622311	0.222946
C102	C	1.329179	-0.122311	0.722946
C103	C	0.869413	-0.598802	0.263249
C104	C	1.369413	-0.098802	0.763249
C105	C	0.869405	-0.551894	0.263227
C106	C	1.369405	-0.051894	0.763227
N107	N	0.909632	-0.528383	0.303531
N108	N	1.409632	-0.028383	0.803531
C109	C	0.949877	-0.551789	0.343844
C110	C	1.449877	-0.051789	0.843844
C111	C	0.869558	-0.978843	0.263315
C112	C	1.369558	-0.478843	0.763315
C113	C	0.869577	-1.025761	0.263322
C114	C	1.369577	-0.525761	0.763322
C115	C	0.950053	-1.025656	0.343942
C116	C	1.450053	-0.525656	0.843942
C117	C	0.950037	-0.978737	0.343931
C118	C	1.450037	-0.478737	0.843931
C119	C	0.909785	-0.955332	0.303620
C120	C	1.409785	-0.455332	0.803620
C121	C	0.949843	-0.453263	0.343814
C122	C	1.449843	0.046737	0.843814
C123	C	0.949826	-0.406343	0.343797
C124	C	1.449826	0.093657	0.843797
C125	C	0.869348	-0.406453	0.263180
C126	C	1.369348	0.093547	0.763180
C127	C	0.869367	-0.453368	0.263195
C128	C	1.369367	0.046632	0.763195
C129	C	0.909616	-0.476772	0.303517
C130	C	1.409616	0.023228	0.803517
O131	O	0.835209	-0.527637	0.228947
O132	O	1.335209	-0.027637	0.728947
O133	O	0.984081	-0.527476	0.378125
O134	O	1.484081	-0.027476	0.878125
C135	C	0.949941	-0.739453	0.343888
C136	C	1.449941	-0.239453	0.843888
C137	C	0.909711	-0.762962	0.303588
C138	C	1.409711	-0.262962	0.803588
C139	C	0.869465	-0.739556	0.263276
C140	C	1.369465	-0.239556	0.763276
C141	C	0.909729	-0.809880	0.303596
C142	C	1.409729	-0.309880	0.803596
C143	C	0.949974	-0.833286	0.343908
C144	C	1.449974	-0.333286	0.843908
C145	C	0.990201	-0.809775	0.384213
C146	C	1.490201	-0.309775	0.884213
C147	C	0.990186	-0.762859	0.384201
C148	C	1.490186	-0.262859	0.884201
C149	C	0.829238	-0.763068	0.222971
C150	C	1.329238	-0.263068	0.722971
C151	C	0.829257	-0.809983	0.222986
C152	C	1.329257	-0.309983	0.722986
C153	C	0.869503	-0.833389	0.263298
C154	C	1.369503	-0.333389	0.763298
C155	C	1.073851	-0.216257	0.303612
C156	C	1.573851	0.283743	0.803612
C157	C	1.143819	-0.216247	0.303643
C158	C	1.643819	0.283753	0.803643
C159	C	0.909713	-0.216271	0.467729
C160	C	1.409713	0.283729	0.967729
C161	C	0.909735	-0.216267	0.537698
C162	C	1.409735	0.283733	1.037698
C163	C	0.909774	-0.099102	0.303606
C164	C	1.409774	0.400898	0.803606
C165	C	0.909822	-0.049167	0.303635
C166	C	1.409822	0.450833	0.803635
C167	C	0.909645	-0.216257	0.139988
C168	C	1.409645	0.283743	0.639988
C169	C	0.909744	-0.216135	0.070020
C170	C	1.409744	0.283865	0.570020
C171	C	0.950022	-0.187526	0.570600
C172	C	1.450022	0.312474	1.070600
C173	C	0.950022	-0.187507	0.636342
C174	C	1.450022	0.312493	1.136342
C175	C	0.909740	-0.216236	0.669180
C176	C	1.409740	0.283764	1.169180
C177	C	0.869444	-0.244978	0.636270
C178	C	1.369444	0.255022	1.136270
C179	C	0.869442	-0.244994	0.570529
C180	C	1.369442	0.255006	1.070529
N181	N	0.904879	-0.255537	0.772388
N182	N	1.404879	0.244463	1.272388
N183	N	0.904885	-0.255521	0.834839
N184	N	1.404885	0.244479	1.334839
C185	C	0.909744	-0.216190	0.867255
C186	C	1.409744	0.283810	1.367255
N187	N	0.914609	-0.176875	0.834860
N188	N	1.414609	0.323125	1.334860
N189	N	0.914606	-0.176891	0.772403
N190	N	1.414606	0.323109	1.272403
C191	C	0.909738	-0.216222	0.740466
C192	C	1.409738	0.283778	1.240466
C193	C	0.950033	-0.187426	0.971443
C194	C	1.450033	0.312574	1.471443
C195	C	0.950027	-0.187406	1.037186
C196	C	1.450027	0.312594	1.537186
C197	C	0.869453	-0.244882	1.037113
C198	C	1.369453	0.255118	1.537113
C199	C	0.869455	-0.244898	0.971371
C200	C	1.369455	0.255102	1.471371
C201	C	0.909748	-0.216171	0.938539
C202	C	1.409748	0.283829	1.438539
H203	H	0.670032	-0.268531	0.376342
H204	H	1.170032	0.231469	0.876342
Cl205	Cl	0.818949	-0.949426	0.212634
Cl206	Cl	1.318949	-0.449426	0.712634
Cl207	Cl	0.135372	-0.281191	0.394338
Cl208	Cl	0.635372	0.218809	0.894338
Cl209	Cl	1.000660	-0.151364	0.677714
Cl210	Cl	1.500660	0.348636	1.177714
H211	H	0.550769	-0.268510	0.376389
H212	H	1.050769	0.231490	0.876389
H213	H	0.836649	-0.268269	1.063849
H214	H	1.336649	0.231731	1.563849
H215	H	0.149923	-0.164043	0.230747
H216	H	0.649923	0.335957	0.730747
Cl217	Cl	0.818791	-0.281128	0.529164
Cl218	Cl	1.318791	0.218872	1.029164
H219	H	0.550760	-0.164102	0.230604
H220	H	1.050760	0.335898	0.730604
Cl221	Cl	0.818802	-0.281093	0.677551
Cl222	Cl	1.318802	0.218907	1.177551
Cl223	Cl	1.000445	-0.482678	0.394504
Cl224	Cl	1.500445	0.017322	0.894504
H225	H	1.022901	-0.602975	0.416984
H226	H	1.522901	-0.102975	0.916984
H227	H	0.269190	-0.164062	0.230700
H228	H	0.769190	0.335938	0.730700
Cl229	Cl	1.000682	-0.151310	0.930166
Cl230	Cl	1.500682	0.348690	1.430166
Cl231	Cl	0.684591	-0.151371	0.212763
Cl232	Cl	1.184591	0.348629	0.712763
Cl233	Cl	1.040756	-0.698445	0.434863
Cl234	Cl	1.540756	-0.198445	0.934863
H235	H	0.982833	-0.163999	1.063974
H236	H	1.482833	0.336001	1.563974
Cl237	Cl	0.818808	-0.281033	0.930006
Cl238	Cl	1.318808	0.218967	1.430006
Cl239	Cl	1.000411	-0.376792	0.394466
Cl240	Cl	1.500411	0.123208	0.894466
Cl241	Cl	0.283756	-0.281219	0.394277
Cl242	Cl	0.783756	0.218781	0.894277
H243	H	0.982799	-0.959599	0.376749
H244	H	1.482799	-0.459599	0.876749
H245	H	1.022948	-0.743722	0.417019
H246	H	1.522948	-0.243722	0.917019
Cl247	Cl	0.819003	-1.055310	0.212645
Cl248	Cl	1.319003	-0.555310	0.712645
Cl249	Cl	1.000646	-1.055089	0.394621
Cl250	Cl	1.500646	-0.555089	0.894621
H251	H	0.796399	-0.603256	0.190120
H252	H	1.296399	-0.103256	0.690120
Cl253	Cl	0.778608	-0.698775	0.172283
Cl254	Cl	1.278608	-0.198775	0.672283
H255	H	0.836583	-0.387388	0.230356
H256	H	1.336583	0.112612	0.730356
Cl257	Cl	0.818795	-0.482923	0.212520
Cl258	Cl	1.318795	0.017077	0.712520
Cl259	Cl	0.778674	-0.839532	0.172312
Cl260	Cl	1.278674	-0.339532	0.672312
Cl261	Cl	1.040797	-0.839209	0.434889
Cl262	Cl	1.540797	-0.339209	0.934889
Cl263	Cl	0.778636	-0.733650	0.172290
Cl264	Cl	1.278636	-0.233650	0.672290
H265	H	0.982831	-0.164134	0.543872
H266	H	1.482831	0.335866	1.043872
