data_functionalizedCrystal
_audit_creation_method	'MofGen! by Chris Wilmer'
_symmetry_space_group_name_H-M	'P1'
_symmetry_Int_Tables_number	1
_symmetry_cell_setting	triclinic
loop_
_symmetry_equiv_pos_as_xyz
  x,y,z
_cell_length_a	18.050591
_cell_length_b	15.297327
_cell_length_c	15.296720
_cell_angle_alpha	72.680778
_cell_angle_beta	80.343965
_cell_angle_gamma	99.704019
loop_
_atom_site_label
_atom_site_type_symbol
_atom_site_fract_x
_atom_site_fract_y
_atom_site_fract_z
Zn1	Zn	0.985502	-0.461333	0.589979
Zn2	Zn	0.985418	-0.589955	0.461373
Zn3	Zn	0.887310	-0.434450	0.434482
Zn4	Zn	0.835305	-0.616780	0.616795
O5	O	0.923384	-0.525630	0.525657
O6	O	1.089408	-0.478419	0.572950
O7	O	0.994133	-0.546849	0.327685
O8	O	0.922135	-0.307882	0.432632
O9	O	1.089346	-0.572917	0.478464
O10	O	0.994276	-0.327633	0.546875
O11	O	0.922053	-0.432601	0.307928
O12	O	0.776495	-0.458613	0.458635
O13	O	0.833500	-0.618637	0.743358
O14	O	0.738287	-0.592570	0.592579
O15	O	0.943849	-0.504431	0.723657
O16	O	0.943705	-0.723648	0.504467
O17	O	0.833418	-0.743356	0.618655
C18	C	0.882926	-0.767248	0.567409
C19	C	0.865681	-0.870619	0.585302
C20	C	0.730446	-0.525586	0.525600
C21	C	0.647899	-0.525594	0.525601
C22	C	1.046891	-1.120861	0.398092
C23	C	1.063094	-1.023738	0.381277
C24	C	1.013742	-0.985453	0.432282
C25	C	0.948184	-1.044301	0.500105
C26	C	0.931976	-1.141432	0.516917
C27	C	0.898828	-1.006025	0.551106
C28	C	0.833270	-1.064873	0.618930
C29	C	0.817065	-1.161994	0.635739
C30	C	0.866417	-1.200279	0.584734
C31	C	0.915036	-0.908894	0.534294
C32	C	0.800122	-0.929465	0.653119
C33	C	0.783918	-1.026588	0.669935
C34	C	0.469192	-0.452700	0.452892
C35	C	0.409424	-0.533566	0.444678
C36	C	0.496757	-0.525629	0.525648
C37	C	0.409439	-0.444793	0.533865
C38	C	0.350762	-0.525656	0.525690
C39	C	0.438076	-0.606532	0.517397
C40	C	0.438098	-0.517708	0.606614
C41	C	0.378337	-0.598638	0.598441
C42	C	0.580861	-0.525612	0.525621
C43	C	0.266658	-0.525682	0.525719
C44	C	1.117075	-0.525674	0.525715
C45	C	1.199614	-0.525693	0.525740
C46	C	0.882883	-0.567525	0.768190
C47	C	0.865624	-0.585378	0.871543
C48	C	0.964016	-0.283071	0.483763
C49	C	0.981331	-0.179707	0.465910
C50	C	0.963781	-0.483830	0.284056
C51	C	0.981227	-0.465715	0.180659
C52	C	1.046791	-0.397866	1.121848
C53	C	1.063011	-0.381093	1.024743
C54	C	1.013666	-0.432163	0.986438
C55	C	0.948098	-0.500008	1.045248
C56	C	0.931879	-0.516788	1.142363
C57	C	0.898754	-0.551085	1.006953
C58	C	0.833186	-0.618930	1.065763
C59	C	0.816970	-0.635706	1.162869
C60	C	0.866315	-0.584637	1.201174
C61	C	0.914972	-0.534305	0.909838
C62	C	0.800060	-0.653227	0.930353
C63	C	0.783840	-0.670000	1.027458
H64	H	0.968413	-0.860988	0.479071
H65	H	0.339248	-0.660383	0.659997
N66	N	1.030301	-0.886243	0.415093
N67	N	1.088836	-0.833712	0.354537
H68	H	1.100536	-0.763641	0.342396
H69	H	0.451064	-0.510959	0.675039
N70	N	0.454178	-0.692303	0.508571
N71	N	0.444797	-0.713788	0.437821
H72	H	0.456171	-0.774362	0.431583
H73	H	0.853113	-0.598289	1.280244
H74	H	1.116398	-0.325856	0.976867
N75	N	0.749719	-0.890359	0.705229
N76	N	0.774968	-0.846359	0.755125
H77	H	0.739375	-0.818734	0.791925
H78	H	0.396486	-0.376424	0.540769
N79	N	0.393190	-0.541978	0.358801
N80	N	0.369172	-0.479091	0.305933
H81	H	0.357711	-0.485025	0.245279
H82	H	1.086964	-0.356298	1.153047
N83	N	1.030236	-0.415008	0.887245
N84	N	1.034111	-0.334969	0.831375
H85	H	1.045815	-0.322845	0.761314
N86	N	0.981932	-0.464999	0.849757
N87	N	0.996407	-0.450018	0.763053
H88	H	1.043700	-0.401064	0.720618
N89	N	0.750007	-0.705034	1.222933
N90	N	0.705959	-0.750635	1.188728
H91	H	0.658669	-0.799604	1.231147
N92	N	0.716860	-0.739286	1.087539
N93	N	0.665981	-0.715899	1.136057
H94	H	0.618674	-0.764829	1.178492
H95	H	0.508403	-0.391074	0.391319
H96	H	0.763677	-1.209905	0.690955
H97	H	1.116470	-0.975827	0.326055
H98	H	1.087062	-1.152041	0.356566
H99	H	0.853229	-1.279364	0.598424
N100	N	0.716960	-1.086718	0.739211
N101	N	0.702504	-1.173435	0.754212
H102	H	0.655215	-1.215904	0.803140
N103	N	0.749659	-0.705392	0.891222
N104	N	0.764147	-0.690401	0.804516
H105	H	0.728555	-0.727240	0.776872
