data_functionalizedCrystal
_audit_creation_method	'MofGen! by Chris Wilmer'
_symmetry_space_group_name_H-M	'P1'
_symmetry_Int_Tables_number	1
_symmetry_cell_setting	triclinic
loop_
_symmetry_equiv_pos_as_xyz
  x,y,z
_cell_length_a	19.288859
_cell_length_b	15.995292
_cell_length_c	17.766277
_cell_angle_alpha	89.996830
_cell_angle_beta	89.989768
_cell_angle_gamma	83.301171
loop_
_atom_site_label
_atom_site_type_symbol
_atom_site_fract_x
_atom_site_fract_y
_atom_site_fract_z
O1	O	0.921609	0.104430	-0.062604
O2	O	1.421609	0.604430	0.437396
O3	O	0.719382	0.118526	-0.062601
O4	O	1.219382	0.618526	0.437399
O5	O	0.826044	-0.010434	-0.062604
O6	O	1.326044	0.489566	0.437396
O7	O	0.814946	0.233390	-0.062601
O8	O	1.314946	0.733390	0.437399
O9	O	0.826025	-0.010441	0.062585
O10	O	1.326025	0.489559	0.562585
O11	O	0.719363	0.118519	0.062587
O12	O	1.219363	0.618519	0.562587
O13	O	0.921590	0.104423	0.062585
O14	O	1.421590	0.604423	0.562585
Cu15	Cu	0.820475	0.111471	0.074017
Cu16	Cu	1.320475	0.611471	0.574017
Cu17	Cu	0.820497	0.111478	-0.074033
Cu18	Cu	1.320497	0.611478	0.425967
O19	O	0.814927	0.233383	0.062587
O20	O	1.314927	0.733383	0.562587
C21	C	0.693495	0.118070	-0.000007
C22	C	1.193495	0.618070	0.499993
C23	C	0.616388	0.116711	-0.000006
C24	C	1.116388	0.616711	0.499994
C25	C	0.052508	0.183186	-0.000007
C26	C	0.552508	0.683186	0.499993
C27	C	0.124957	0.184470	-0.000011
C28	C	0.624957	0.684470	0.499989
C29	C	0.169481	0.108802	-0.000010
C30	C	0.669481	0.608802	0.499990
C31	C	0.141549	0.031844	-0.000025
C32	C	0.641549	0.531844	0.499975
C33	C	0.069101	0.030562	-0.000028
C34	C	0.569101	0.530562	0.499972
C35	C	0.290608	0.052367	0.043851
C36	C	0.790608	0.552367	0.543851
C37	C	0.363055	0.053652	0.043860
C38	C	0.863055	0.553652	0.543860
C39	C	0.392936	0.112753	-0.000002
C40	C	0.892936	0.612753	0.499998
C41	C	0.350361	0.170583	-0.043862
C42	C	0.850361	0.670583	0.456138
C43	C	0.277912	0.169301	-0.043866
C44	C	0.777912	0.669301	0.456134
C45	C	0.248040	0.110184	-0.000006
C46	C	0.748040	0.610184	0.499994
C47	C	0.499418	0.191099	0.000003
C48	C	0.999418	0.691099	0.500003
C49	C	0.571869	0.192380	-0.000006
C50	C	1.071869	0.692380	0.499994
C51	C	0.588460	0.039752	-0.000012
C52	C	1.088460	0.539752	0.499988
C53	C	0.516010	0.038473	-0.000011
C54	C	1.016010	0.538473	0.499989
C55	C	0.471493	0.114149	0.000000
C56	C	0.971493	0.614149	0.500000
C57	C	0.825583	-0.041631	-0.000011
C58	C	1.325583	0.458369	0.499989
C59	C	0.824229	-0.134579	-0.000017
C60	C	1.324229	0.365421	0.499983
C61	C	0.819251	-0.472299	-0.000010
C62	C	1.319251	0.027701	0.499990
C63	C	0.896237	-0.449279	0.000269
C64	C	1.396237	0.050721	0.500269
C65	C	0.897700	-0.352609	-0.000016
C66	C	1.397700	0.147391	0.499984
C67	C	0.821721	-0.304752	-0.000013
C68	C	1.321721	0.195248	0.499987
C69	C	0.783242	-0.333703	-0.071499
C70	C	1.283242	0.166297	0.428501
C71	C	0.782315	-0.430490	-0.071556
C72	C	1.282315	0.069510	0.428444
C73	C	0.780722	-0.430349	0.070807
C74	C	1.280722	0.069651	0.570807
C75	C	0.783575	-0.333867	0.071749
C76	C	1.283575	0.166133	0.571749
C77	C	0.823113	-0.210061	-0.000017
C78	C	1.323113	0.289939	0.499983
C79	C	0.817856	-0.566989	-0.000011
C80	C	1.317856	-0.066989	0.499989
C81	C	0.947477	0.104879	-0.000011
C82	C	1.447477	0.604879	0.499989
C83	C	1.024584	0.106238	-0.000017
C84	C	1.524584	0.606238	0.499983
C85	C	0.815388	0.264581	-0.000007
C86	C	1.315388	0.764581	0.499993
C87	C	0.816743	0.357528	-0.000006
C88	C	1.316743	0.857528	0.499994
N89	N	0.820464	0.111465	0.178147
N90	N	1.320464	0.611465	0.678147
N91	N	0.820513	0.111478	-0.178164
N92	N	1.320513	0.611478	0.321836
C93	C	0.867710	0.054389	0.217533
C94	C	1.367710	0.554389	0.717533
C95	C	0.867714	0.054385	0.296335
C96	C	1.367714	0.554385	0.796335
C97	C	0.820479	0.111471	0.335748
C98	C	1.320479	0.611471	0.835748
C99	C	0.773224	0.168551	0.296352
C100	C	1.273224	0.668551	0.796352
C101	C	0.773217	0.168548	0.217552
C102	C	1.273217	0.668548	0.717552
C103	C	0.811365	0.187765	0.460586
C104	C	1.311365	0.687765	0.960586
C105	C	0.811377	0.187769	0.539385
C106	C	1.311377	0.687769	1.039385
C107	C	0.820497	0.111482	0.578794
C108	C	1.320497	0.611482	1.078794
C109	C	0.829620	0.035186	0.539394
C110	C	1.329620	0.535186	1.039394
C111	C	0.829613	0.035183	0.460594
C112	C	1.329613	0.535183	0.960594
C113	C	0.820481	0.111481	0.421193
C114	C	1.320481	0.611481	0.921193
C115	C	0.867750	0.054397	0.703626
C116	C	1.367750	0.554397	1.203626
C117	C	0.867749	0.054392	0.782429
C118	C	1.367749	0.554392	1.282429
C119	C	0.773263	0.168565	0.782445
C120	C	1.273263	0.668565	1.282445
C121	C	0.773261	0.168563	0.703643
C122	C	1.273261	0.668563	1.203643
C123	C	0.820508	0.111480	0.664238
C124	C	1.320508	0.611480	1.164238
H125	H	0.177805	-0.029765	-0.000026
H126	H	0.677805	0.470235	0.499974
C127	C	0.839637	-0.048732	0.417254
C128	C	1.339637	0.451268	0.917254
H129	H	0.845165	-0.094168	0.452003
H130	H	1.345165	0.405832	0.952003
H131	H	0.880018	-0.050503	0.386417
H132	H	1.380018	0.449497	0.886417
H133	H	0.799897	-0.053302	0.386612
H134	H	1.299897	0.446698	0.886612
H135	H	0.837047	-0.026934	0.571479
H136	H	1.337047	0.473066	1.071479
C137	C	0.038384	-0.054084	-0.000033
C138	C	0.538384	0.445916	0.499967
H139	H	0.075274	-0.098967	-0.000029
H140	H	0.575274	0.401033	0.499971
H141	H	0.010471	-0.057753	-0.043687
H142	H	0.510471	0.442247	0.456313
H143	H	0.010462	-0.057758	0.043630
H144	H	0.510462	0.442242	0.543630
H145	H	0.906219	0.007914	0.671541
H146	H	1.406219	0.507914	1.171541
C147	C	0.383217	0.235599	-0.092115
C148	C	0.883217	0.735599	0.407885
H149	H	0.347485	0.269857	-0.118231
H150	H	0.847485	0.769857	0.381769
H151	H	0.414631	0.207155	-0.127384
H152	H	0.914631	0.707155	0.372616
H153	H	0.407798	0.269907	-0.060488
H154	H	0.907798	0.769907	0.439512
H155	H	0.809978	-0.313741	-0.124701
H156	H	1.309978	0.186259	0.375299
C157	C	0.821401	-0.308905	0.143196
C158	C	1.321401	0.191095	0.643196
H159	H	0.798076	-0.326683	0.186415
H160	H	1.298076	0.173317	0.686415
H161	H	0.821260	-0.249515	0.144498
H162	H	1.321260	0.250485	0.644498
H163	H	0.868201	-0.335123	0.142758
H164	H	1.368201	0.164877	0.642758
C165	C	0.602585	0.277027	0.000008
C166	C	1.102585	0.777027	0.500008
H167	H	0.565694	0.321909	0.000021
H168	H	1.065694	0.821909	0.500021
H169	H	0.630509	0.280711	-0.043647
H170	H	1.130509	0.780711	0.456353
H171	H	0.630495	0.280687	0.043671
H172	H	1.130495	0.780687	0.543671
C173	C	0.450444	0.274334	0.000007
C174	C	0.950444	0.774334	0.500007
H175	H	0.403296	0.262551	0.000015
H176	H	0.903296	0.762551	0.500015
H177	H	0.458913	0.305905	-0.043647
H178	H	0.958913	0.805905	0.456353
H179	H	0.458903	0.305893	0.043670
H180	H	0.958903	0.805893	0.543670
H181	H	0.624710	-0.021859	-0.000017
H182	H	1.124710	0.478141	0.499983
H183	H	0.016266	0.244807	-0.000001
H184	H	0.516266	0.744807	0.499999
C185	C	0.938419	-0.327062	0.069200
C186	C	1.438419	0.172938	0.569200
H187	H	0.954216	-0.375808	0.097746
H188	H	1.454216	0.124192	0.597746
H189	H	0.908778	-0.289157	0.099450
H190	H	1.408778	0.210843	0.599450
H191	H	0.977400	-0.300476	0.053102
H192	H	1.477400	0.199524	0.553102
H193	H	0.925754	-0.478406	-0.050710
H194	H	1.425754	0.021594	0.449290
H195	H	0.493275	-0.024186	-0.000015
H196	H	0.993275	0.475814	0.499985
H197	H	0.906179	0.007907	0.185452
H198	H	1.406179	0.507907	0.685452
H199	H	0.147698	0.247132	0.000005
H200	H	0.647698	0.747132	0.500005
C201	C	0.936316	-0.487247	0.069526
C202	C	1.436316	0.012753	0.569526
H203	H	0.906462	-0.517486	0.098891
H204	H	1.406462	-0.017486	0.598891
H205	H	0.951627	-0.443337	0.098955
H206	H	1.451627	0.056663	0.598955
H207	H	0.975581	-0.524358	0.053460
H208	H	1.475581	-0.024358	0.553460
C209	C	0.813289	-0.468645	0.144005
C210	C	1.313289	0.031355	0.644005
H211	H	0.850694	-0.510580	0.132058
H212	H	1.350694	-0.010580	0.632058
H213	H	0.778889	-0.493278	0.171919
H214	H	1.278889	0.006722	0.671919
H215	H	0.830396	-0.425700	0.173187
H216	H	1.330396	0.074300	0.673187
H217	H	0.734801	0.215043	0.814534
H218	H	1.234801	0.715043	1.314534
C219	C	0.409880	-0.009954	0.092106
C220	C	0.909880	0.490046	0.592106
H221	H	0.381710	-0.045345	0.118218
H222	H	0.881710	0.454655	0.618218
H223	H	0.434987	0.019489	0.127379
H224	H	0.934987	0.519489	0.627379
H225	H	0.441825	-0.043259	0.060481
H226	H	0.941825	0.456741	0.560481
C227	C	0.708658	-0.289041	0.077592
C228	C	1.208658	0.210959	0.577592
H229	H	0.699621	-0.251823	0.036154
H230	H	1.199621	0.248177	0.536154
H231	H	0.703664	-0.257963	0.123220
H232	H	1.203664	0.242037	0.623220
H233	H	0.676467	-0.329685	0.076991
H234	H	1.176467	0.170315	0.576991
C235	C	0.818302	-0.466849	-0.143765
C236	C	1.318302	0.033151	0.356235
H237	H	0.833356	-0.422447	-0.172784
H238	H	1.333356	0.077553	0.327216
H239	H	0.786279	-0.494739	-0.172322
H240	H	1.286279	0.005261	0.327678
H241	H	0.857473	-0.505781	-0.130740
H242	H	1.357473	-0.005781	0.369260
H243	H	0.724054	-0.444124	0.071290
H244	H	1.224054	0.055876	0.571290
H245	H	0.906188	0.007906	0.328408
H246	H	1.406188	0.507906	0.828408
C247	C	0.721253	0.231331	0.339699
C248	C	1.221253	0.731331	0.839699
H249	H	0.693106	0.265315	0.304953
H250	H	1.193106	0.765315	0.804953
H251	H	0.746218	0.266119	0.370436
H252	H	1.246218	0.766119	0.870436
H253	H	0.692355	0.201277	0.370443
H254	H	1.192355	0.701277	0.870443
C255	C	0.919723	-0.008393	0.825754
C256	C	1.419723	0.491607	1.325754
H257	H	0.947863	-0.042382	0.790996
H258	H	1.447863	0.457618	1.290996
H259	H	0.894754	-0.043176	0.856504
H260	H	1.394754	0.456824	1.356504
H261	H	0.948629	0.021651	0.856482
H262	H	1.448629	0.521651	1.356482
C263	C	0.231083	0.232899	-0.092117
C264	C	0.731083	0.732899	0.407883
H265	H	0.259251	0.268279	-0.118246
H266	H	0.759251	0.768279	0.381754
H267	H	0.199136	0.266204	-0.060501
H268	H	0.699136	0.766204	0.439499
H269	H	0.205980	0.203441	-0.127388
H270	H	0.705980	0.703441	0.372612
C271	C	0.257742	-0.012642	0.092106
C272	C	0.757742	0.487358	0.592106
H273	H	0.208497	-0.005128	0.085819
H274	H	0.708497	0.494872	0.585819
H275	H	0.268806	-0.005073	0.143572
H276	H	0.768806	0.494927	0.643572
H277	H	0.275639	-0.067834	0.076683
H278	H	0.775639	0.432166	0.576683
C279	C	0.721297	0.231356	0.660317
C280	C	1.221297	0.731356	1.160317
H281	H	0.693170	0.265360	0.695073
H282	H	1.193170	0.765360	1.195073
H283	H	0.692389	0.201326	0.629586
H284	H	1.192389	0.701326	1.129586
H285	H	0.746279	0.266136	0.629569
H286	H	1.246279	0.766136	1.129569
H287	H	0.928029	-0.334317	-0.051350
H288	H	1.428029	0.165683	0.448650
H289	H	0.725869	-0.444826	-0.074793
H290	H	1.225869	0.055174	0.425207
H291	H	0.727332	-0.301623	-0.074155
H292	H	1.227332	0.198377	0.425845
H293	H	0.803953	0.249893	0.571458
H294	H	1.303953	0.749893	1.071458
H295	H	0.803926	0.249891	0.428506
H296	H	1.303926	0.749891	0.928506
H297	H	0.734743	0.215027	0.185483
H298	H	1.234743	0.715027	0.685483
