data_functionalizedCrystal
_audit_creation_method	'MofGen! by Chris Wilmer'
_symmetry_space_group_name_H-M	'P1'
_symmetry_Int_Tables_number	1
_symmetry_cell_setting	triclinic
loop_
_symmetry_equiv_pos_as_xyz
  x,y,z
_cell_length_a	16.109318
_cell_length_b	16.109304
_cell_length_c	17.766277
_cell_angle_alpha	89.996447
_cell_angle_beta	89.994221
_cell_angle_gamma	83.465600
loop_
_atom_site_label
_atom_site_type_symbol
_atom_site_fract_x
_atom_site_fract_y
_atom_site_fract_z
O1	O	1.103130	0.106937	-0.062527
O2	O	1.436463	0.440270	0.270807
O3	O	1.769796	0.773604	0.604140
O4	O	0.861070	0.120221	-0.062541
O5	O	1.194403	0.453554	0.270792
O6	O	1.527736	0.786888	0.604125
O7	O	0.988748	-0.007451	-0.062534
O8	O	1.322081	0.325882	0.270799
O9	O	1.655415	0.659215	0.604133
O10	O	0.975451	0.234609	-0.062534
O11	O	1.308785	0.567943	0.270799
O12	O	1.642118	0.901276	0.604133
O13	O	0.988726	-0.007458	0.062654
O14	O	1.322059	0.325875	0.395988
O15	O	1.655392	0.659209	0.729321
O16	O	0.861047	0.120215	0.062647
O17	O	1.194381	0.453548	0.395980
O18	O	1.527714	0.786881	0.729314
O19	O	1.103107	0.106930	0.062662
O20	O	1.436441	0.440264	0.395995
O21	O	1.769774	0.773597	0.729328
Cu22	Cu	0.982075	0.113572	0.074085
Cu23	Cu	1.315409	0.446905	0.407418
Cu24	Cu	1.648742	0.780239	0.740752
Cu25	Cu	0.982102	0.113580	-0.073965
Cu26	Cu	1.315435	0.446913	0.259368
Cu27	Cu	1.648768	0.780246	0.592702
O28	O	0.975429	0.234603	0.062654
O29	O	1.308762	0.567936	0.395988
O30	O	1.642096	0.901270	0.729321
C31	C	0.830084	0.119677	0.000051
C32	C	1.163417	0.453011	0.333384
C33	C	1.496751	0.786344	0.666717
C34	C	0.737789	0.118056	0.000045
C35	C	1.071123	0.451390	0.333378
C36	C	1.404456	0.784723	0.666712
C37	C	0.438728	0.112825	-0.068182
C38	C	0.772061	0.446158	0.265151
C39	C	1.105394	0.779492	0.598485
C40	C	0.525449	0.114342	-0.068187
C41	C	0.858782	0.447676	0.265147
C42	C	1.192116	0.781009	0.598480
C43	C	0.525443	0.114324	0.068301
C44	C	0.858777	0.447657	0.401634
C45	C	1.192110	0.780991	0.734967
C46	C	0.438725	0.112801	0.068305
C47	C	0.772058	0.446134	0.401638
C48	C	1.105391	0.779467	0.734971
C49	C	0.395368	0.112055	0.000061
C50	C	0.728702	0.445389	0.333394
C51	C	1.062035	0.778722	0.666728
C52	C	0.568809	0.115096	0.000053
C53	C	0.902142	0.448429	0.333386
C54	C	1.235475	0.781763	0.666719
C55	C	0.662836	0.116741	0.000048
C56	C	0.996169	0.450075	0.333381
C57	C	1.329502	0.783408	0.666715
C58	C	0.301336	0.110408	0.000065
C59	C	0.634669	0.443742	0.333399
C60	C	0.968002	0.777075	0.666732
C61	C	0.988198	-0.038430	0.000058
C62	C	1.321531	0.294904	0.333392
C63	C	1.654865	0.628237	0.666725
C64	C	0.986582	-0.130725	0.000053
C65	C	1.319915	0.202609	0.333386
C66	C	1.653248	0.535942	0.666720
C67	C	0.982861	-0.343059	-0.068185
C68	C	1.316194	-0.009726	0.265149
C69	C	1.649527	0.323608	0.598482
C70	C	0.981334	-0.429779	-0.068184
C71	C	1.314668	-0.096446	0.265149
C72	C	1.648001	0.236888	0.598483
C73	C	0.981314	-0.429783	0.068303
C74	C	1.314647	-0.096450	0.401637
C75	C	1.647981	0.236883	0.734970
C76	C	0.982834	-0.343064	0.068302
C77	C	1.316168	-0.009730	0.401635
C78	C	1.649501	0.323603	0.734969
C79	C	0.983612	-0.299704	0.000056
C80	C	1.316945	0.033629	0.333389
C81	C	1.650278	0.366962	0.666722
C82	C	0.980565	-0.473144	0.000058
C83	C	1.313899	-0.139811	0.333391
C84	C	1.647232	0.193523	0.666724
C85	C	0.978911	-0.567170	0.000059
C86	C	1.312244	-0.233837	0.333392
C87	C	1.645577	0.099497	0.666726
C88	C	0.985265	-0.205672	0.000054
C89	C	1.318598	0.127661	0.333388
C90	C	1.651931	0.460994	0.666721
C91	C	1.134093	0.107474	0.000068
C92	C	1.467426	0.440808	0.333401
C93	C	1.800760	0.774141	0.666734
C94	C	1.226388	0.109095	0.000069
C95	C	1.559721	0.442428	0.333402
C96	C	1.893054	0.775762	0.666735
C97	C	0.975979	0.265581	0.000060
C98	C	1.309312	0.598914	0.333394
C99	C	1.642646	0.932248	0.666727
C100	C	0.977595	0.357876	0.000060
C101	C	1.310929	0.691210	0.333394
C102	C	1.644262	1.024543	0.666727
N103	N	0.982063	0.113566	0.178215
N104	N	1.315396	0.446899	0.511549
N105	N	1.648729	0.780233	0.844882
N106	N	0.982121	0.113579	-0.178095
N107	N	1.315454	0.446912	0.155238
N108	N	1.648788	0.780246	0.488571
C109	C	1.038617	0.057060	0.217606
C110	C	1.371950	0.390394	0.550939
C111	C	1.705284	0.723727	0.884272
C112	C	1.038622	0.057056	0.296407
C113	C	1.371955	0.390390	0.629741
C114	C	1.705288	0.723723	0.963074
C115	C	0.982080	0.113573	0.335816
C116	C	1.315414	0.446906	0.669149
C117	C	1.648747	0.780239	1.002483
C118	C	0.925515	0.170083	0.296416
C119	C	1.258849	0.503416	0.629750
C120	C	1.592182	0.836749	0.963083
C121	C	0.925507	0.170079	0.217616
C122	C	1.258840	0.503413	0.550949
C123	C	1.592173	0.836746	0.884283
C124	C	0.971167	0.189294	0.460654
C125	C	1.304500	0.522627	0.793987
C126	C	1.637834	0.855961	1.127320
C127	C	0.971182	0.189298	0.539452
C128	C	1.304515	0.522632	0.872786
C129	C	1.637848	0.855965	1.206119
C130	C	0.982102	0.113583	0.578862
C131	C	1.315436	0.446916	0.912196
C132	C	1.648769	0.780249	1.245529
C133	C	0.993026	0.037859	0.539464
C134	C	1.326360	0.371192	0.872797
C135	C	1.659693	0.704526	1.206130
C136	C	0.993018	0.037856	0.460663
C137	C	1.326351	0.371189	0.793997
C138	C	1.659684	0.704522	1.127330
C139	C	0.982083	0.113582	0.421262
C140	C	1.315416	0.446915	0.754595
C141	C	1.648750	0.780249	1.087928
C142	C	1.038665	0.057068	0.703698
C143	C	1.371998	0.390401	1.037032
C144	C	1.705332	0.723735	1.370365
C145	C	1.038664	0.057063	0.782502
C146	C	1.371997	0.390397	1.115835
C147	C	1.705331	0.723730	1.449168
C148	C	0.925562	0.170097	0.782509
C149	C	1.258895	0.503430	1.115842
C150	C	1.592228	0.836763	1.449176
C151	C	0.925559	0.170094	0.703707
C152	C	1.258892	0.503428	1.037041
C153	C	1.592225	0.836761	1.370374
C154	C	0.982115	0.113581	0.664307
C155	C	1.315448	0.446914	0.997640
C156	C	1.648781	0.780248	1.330973
H157	H	0.403430	0.112217	-0.123750
H158	H	0.736763	0.445550	0.209583
H159	H	1.070097	0.778884	0.542916
Br160	Br	0.983840	-0.284218	0.160921
Br161	Br	1.317173	0.049115	0.494254
Br162	Br	1.650507	0.382449	0.827588
H163	H	0.980721	-0.465074	-0.123752
H164	H	1.314054	-0.131741	0.209581
H165	H	1.647388	0.201592	0.542915
H166	H	1.084714	0.011049	0.671617
H167	H	1.418047	0.344382	1.004950
H168	H	1.751381	0.677716	1.338284
Br169	Br	1.115366	-0.019637	0.164133
Br170	Br	1.448700	0.313697	0.497466
Br171	Br	1.782033	0.647030	0.830799
H172	H	0.403420	0.112173	0.123880
H173	H	0.736754	0.445506	0.457213
H174	H	1.070087	0.778840	0.790546
H175	H	0.560749	0.114968	-0.123757
H176	H	0.894082	0.448301	0.209576
H177	H	1.227415	0.781635	0.542910
Br178	Br	0.584288	0.115343	0.160913
Br179	Br	0.917621	0.448676	0.494246
Br180	Br	1.250955	0.782009	0.827579
Br181	Br	0.980257	-0.488633	0.160919
Br182	Br	1.313590	-0.155300	0.494252
Br183	Br	1.646923	0.178034	0.827585
H184	H	1.084676	0.011041	0.328485
H185	H	1.418010	0.344374	0.661818
H186	H	1.751343	0.677708	0.995151
Br187	Br	1.007834	-0.064906	0.407196
Br188	Br	1.341167	0.268427	0.740529
Br189	Br	1.674501	0.601761	1.073862
Br190	Br	0.983913	-0.284216	-0.160804
Br191	Br	1.317246	0.049117	0.172530
Br192	Br	1.650580	0.382451	0.505863
Br193	Br	1.007859	-0.064906	0.592938
Br194	Br	1.341192	0.268428	0.926271
Br195	Br	1.674525	0.601761	1.259605
Br196	Br	1.115415	-0.019636	0.835964
Br197	Br	1.448748	0.313697	1.169298
Br198	Br	1.782082	0.647030	1.502631
Br199	Br	0.848817	0.246789	0.835986
Br200	Br	1.182150	0.580122	1.169319
Br201	Br	1.515484	0.913456	1.502652
Br202	Br	0.848748	0.246770	0.164153
Br203	Br	1.182081	0.580104	0.497486
Br204	Br	1.515414	0.913437	0.830820
Br205	Br	0.848806	0.246786	0.650243
Br206	Br	1.182139	0.580120	0.983576
Br207	Br	1.515472	0.913453	1.316910
Br208	Br	0.956366	0.292064	0.592914
Br209	Br	1.289699	0.625398	0.926247
Br210	Br	1.623033	0.958731	1.259581
H211	H	0.962260	0.250955	0.428572
H212	H	1.295593	0.584288	0.761906
H213	H	1.628926	0.917622	1.095239
Br214	Br	0.848773	0.246778	0.349896
Br215	Br	1.182107	0.580112	0.683230
Br216	Br	1.515440	0.913445	1.016563
