data_functionalizedCrystal
_audit_creation_method	'MofGen! by Chris Wilmer'
_symmetry_space_group_name_H-M	'P1'
_symmetry_Int_Tables_number	1
_symmetry_cell_setting	triclinic
loop_
_symmetry_equiv_pos_as_xyz
  x,y,z
_cell_length_a	12.645331
_cell_length_b	29.839131
_cell_length_c	12.645323
_cell_angle_alpha	90.040367
_cell_angle_beta	90.022676
_cell_angle_gamma	90.034207
loop_
_atom_site_label
_atom_site_type_symbol
_atom_site_fract_x
_atom_site_fract_y
_atom_site_fract_z
Zn1	Zn	1.620602	-0.178862	0.599332
Zn2	Zn	1.620429	-0.253994	0.422024
Zn3	Zn	1.443317	-0.178877	0.422076
Zn4	Zn	1.443244	-0.253964	0.599240
O5	O	1.531898	-0.216424	0.510668
O6	O	1.768926	-0.188834	0.575829
O7	O	1.596893	-0.244048	0.273684
O8	O	1.466936	-0.116008	0.445650
O9	O	1.768800	-0.244033	0.445561
O10	O	1.597187	-0.115997	0.575879
O11	O	1.466769	-0.188860	0.273722
O12	O	1.294960	-0.188832	0.445561
O13	O	1.466813	-0.243983	0.747599
O14	O	1.294906	-0.243998	0.575722
O15	O	1.597117	-0.188806	0.747667
O16	O	1.596823	-0.316857	0.445472
O17	O	1.466646	-0.316835	0.575671
C18	C	1.256468	-0.216414	0.510637
C19	C	1.138638	-0.216420	0.510649
C20	C	0.971072	-0.181555	0.429217
C21	C	1.093632	-0.181645	0.428858
C22	C	1.094084	-0.263746	0.480104
C23	C	0.971485	-0.263555	0.479549
C24	C	0.971498	-0.204409	0.622941
C25	C	1.094104	-0.203352	0.622318
C26	C	1.531736	-0.333147	0.510579
C27	C	1.531764	-0.383081	0.510576
C28	C	1.599705	-0.692684	0.578575
C29	C	1.599820	-0.880357	0.578639
O30	O	1.657427	-0.904587	0.636387
N31	N	1.532078	-0.903866	0.510786
C32	C	1.464298	-0.880455	0.442917
O33	O	1.406674	-0.904757	0.385213
C34	C	1.464178	-0.692782	0.442859
C35	C	1.531932	-0.669276	0.510709
C36	C	1.667452	-0.669177	0.646420
C37	C	1.667427	-0.622262	0.646399
C38	C	1.599654	-0.598853	0.578534
C39	C	1.531907	-0.622360	0.510688
C40	C	1.396393	-0.669371	0.374997
C41	C	1.396367	-0.622450	0.374990
C42	C	1.464121	-0.598944	0.442840
C43	C	1.464108	-0.552036	0.442802
N44	N	1.531850	-0.528527	0.510655
C45	C	1.599623	-0.551935	0.578521
C46	C	1.464367	-0.978985	0.442950
C47	C	1.464398	-1.025903	0.442963
C48	C	1.599919	-1.025802	0.578687
C49	C	1.599892	-0.978884	0.578668
C50	C	1.532109	-0.955476	0.510803
C51	C	1.599565	-0.453409	0.578471
C52	C	1.599537	-0.406490	0.578442
C53	C	1.464013	-0.406595	0.442723
C54	C	1.464044	-0.453510	0.442748
C55	C	1.531824	-0.476916	0.510631
O56	O	1.406523	-0.527777	0.385092
O57	O	1.657222	-0.527625	0.636233
C58	C	1.599730	-0.739599	0.578596
C59	C	1.531983	-0.763106	0.510751
C60	C	1.464210	-0.739698	0.442885
C61	C	1.532014	-0.810024	0.510763
C62	C	1.599787	-0.833433	0.578629
C63	C	1.667528	-0.809923	0.646482
C64	C	1.667503	-0.763008	0.646461
C65	C	1.396468	-0.763207	0.375032
C66	C	1.396500	-0.810123	0.375057
C67	C	1.464273	-0.833531	0.442923
C68	C	1.808403	-0.216435	0.510699
C69	C	1.926233	-0.216440	0.510713
C70	C	1.531976	-0.216390	0.787174
C71	C	1.532009	-0.216375	0.905004
C72	C	1.532089	-0.099246	0.510781
C73	C	1.532171	-0.049312	0.510829
C74	C	1.531881	-0.216427	0.235238
C75	C	1.532053	-0.216315	0.117409
C76	C	1.449782	-0.250923	1.072525
C77	C	1.449998	-0.251094	0.949965
C78	C	1.643700	-0.229224	0.949515
C79	C	1.643249	-0.229441	1.072113
C80	C	1.503603	-0.168784	1.072232
C81	C	1.501110	-0.169069	0.949625
H82	H	1.122904	-0.189597	0.345693
H83	H	1.366714	-0.242960	1.102004
H84	H	1.468378	-0.285940	1.103322
H85	H	1.468777	-0.286331	0.920628
H86	H	1.123234	-0.290432	0.537598
H87	H	1.124732	-0.274123	0.398940
H88	H	0.940625	-0.170502	0.650714
H89	H	1.123233	-0.168526	0.645350
H90	H	1.655063	-0.959747	0.633917
H91	H	1.706640	-0.204814	0.920396
H92	H	1.124745	-0.226907	0.686288
H93	H	1.556657	-0.141920	0.919021
H94	H	1.667369	-0.264187	1.100702
H95	H	1.706624	-0.205328	1.101807
H96	H	1.668233	-0.263606	0.918805
H97	H	1.722715	-0.828991	0.701737
H98	H	1.423578	-0.157071	1.103143
H99	H	1.654714	-0.387352	0.633693
H100	H	1.418916	-0.159379	0.920532
H101	H	1.409168	-0.959930	0.387685
H102	H	0.942500	-0.229818	0.683663
H103	H	1.722674	-0.743872	0.701711
H104	H	1.408836	-0.387528	0.387464
H105	H	1.123758	-0.146552	0.448007
H106	H	1.654751	-0.472461	0.633755
H107	H	1.563525	-0.142999	1.101262
H108	H	0.941634	-0.146356	0.448161
H109	H	0.942832	-0.273757	0.397503
H110	H	0.940219	-0.189419	0.346541
H111	H	1.367174	-0.243054	0.919868
H112	H	1.341328	-0.829258	0.319796
H113	H	1.722595	-0.603125	0.701651
H114	H	0.941822	-0.290427	0.536317
H115	H	1.722641	-0.688231	0.701691
H116	H	1.409237	-1.045038	0.387702
H117	H	1.341221	-0.688503	0.319746
H118	H	1.341166	-0.603394	0.319728
H119	H	1.655104	-1.044869	0.633944
H120	H	1.408882	-0.472651	0.387491
H121	H	1.341278	-0.744152	0.319769
