data_functionalizedCrystal
_audit_creation_method	'MofGen! by Chris Wilmer'
_symmetry_space_group_name_H-M	'P1'
_symmetry_Int_Tables_number	1
_symmetry_cell_setting	triclinic
loop_
_symmetry_equiv_pos_as_xyz
  x,y,z
_cell_length_a	15.944499
_cell_length_b	14.421503
_cell_length_c	15.995350
_cell_angle_alpha	90.006523
_cell_angle_beta	96.515008
_cell_angle_gamma	90.010221
loop_
_atom_site_label
_atom_site_type_symbol
_atom_site_fract_x
_atom_site_fract_y
_atom_site_fract_z
O1	O	1.114550	0.077163	-0.107771
O2	O	1.614550	0.577163	0.392229
O3	O	0.869994	0.077152	-0.121130
O4	O	1.369994	0.577152	0.378870
O5	O	0.998957	0.077157	0.007438
O6	O	1.498957	0.577157	0.507438
O7	O	0.985587	0.077158	-0.236339
O8	O	1.485587	0.577158	0.263661
O9	O	0.998936	-0.077067	0.007419
O10	O	1.498936	0.422933	0.507419
O11	O	0.869973	-0.077072	-0.121149
O12	O	1.369973	0.422928	0.378851
O13	O	1.114529	-0.077061	-0.107790
O14	O	1.614529	0.422939	0.392210
Cu15	Cu	0.992249	-0.091148	-0.114471
Cu16	Cu	1.492249	0.408852	0.385529
Cu17	Cu	0.992274	0.091239	-0.114449
Cu18	Cu	1.492274	0.591239	0.385551
O19	O	0.985566	-0.077066	-0.236358
O20	O	1.485566	0.422934	0.263642
C21	C	0.838689	0.000039	-0.120593
C22	C	1.338689	0.500039	0.379407
C23	C	0.745440	0.000035	-0.118953
C24	C	1.245440	0.500035	0.381047
C25	C	0.453900	0.000049	-0.193648
C26	C	0.953900	0.500049	0.306352
C27	C	0.514942	0.076090	-0.154810
C28	C	1.014942	0.576090	0.345190
C29	C	0.409804	0.000056	-0.112996
C30	C	0.909804	0.500056	0.387004
C31	C	0.514907	-0.075962	-0.154807
C32	C	1.014907	0.424038	0.345193
C33	C	0.574713	0.000044	-0.115927
C34	C	1.074713	0.500044	0.384073
C35	C	0.469618	0.076161	-0.074136
C36	C	0.969618	0.576161	0.425864
C37	C	0.469576	-0.075960	-0.074144
C38	C	0.969576	0.424040	0.425856
C39	C	0.530601	0.000100	-0.035248
C40	C	1.030601	0.500100	0.464752
C41	C	0.314804	0.000064	-0.111309
C42	C	0.814804	0.500064	0.388691
C43	C	0.669712	0.000043	-0.117607
C44	C	1.169712	0.500043	0.382393
N45	N	0.992237	-0.219429	-0.114487
N46	N	1.492237	0.280571	0.385513
C47	C	0.932594	-0.469085	-0.173910
C48	C	1.432594	0.030915	0.326090
C49	C	1.008495	-0.530885	-0.190152
C50	C	1.508495	-0.030885	0.309848
C51	C	0.992258	-0.408591	-0.114467
C52	C	1.492258	0.091409	0.385533
C53	C	0.916376	-0.530885	-0.098245
C54	C	1.416376	-0.030885	0.401755
C55	C	0.992271	-0.591312	-0.114449
C56	C	1.492271	-0.091312	0.385551
C57	C	1.068197	-0.469029	-0.130746
C58	C	1.568197	0.030971	0.369254
C59	C	0.976028	-0.469025	-0.038806
C60	C	1.476028	0.030975	0.461194
C61	C	1.051984	-0.530796	-0.055016
C62	C	1.551984	-0.030796	0.444984
C63	C	0.992249	-0.303330	-0.114479
C64	C	1.492249	0.196670	0.385521
C65	C	0.992288	-0.696571	-0.114437
C66	C	1.492288	-0.196571	0.385563
C67	C	1.145834	0.000054	-0.108327
C68	C	1.645834	0.500054	0.391673
C69	C	1.239083	0.000064	-0.109967
C70	C	1.739083	0.500064	0.390033
C71	C	0.998394	0.000047	0.038623
C72	C	1.498394	0.500047	0.538623
C73	C	0.996737	0.000052	0.131573
C74	C	1.496737	0.500052	0.631573
N75	N	0.992292	0.219520	-0.114427
N76	N	1.492292	0.719520	0.385573
C77	C	0.986129	0.000046	-0.267543
C78	C	1.486129	0.500046	0.232457
C79	C	0.987786	0.000047	-0.360493
C80	C	1.487786	0.500047	0.139507
C81	C	0.990785	0.000048	0.469320
C82	C	1.490785	0.500048	0.969320
C83	C	0.898940	0.000390	0.421874
C84	C	1.398940	0.500390	0.921874
C85	C	0.900598	0.000043	0.325184
C86	C	1.400598	0.500043	0.825184
C87	C	0.993737	0.000051	0.301760
C88	C	1.493737	0.500051	0.801760
C89	C	1.039027	-0.088015	0.342832
C90	C	1.539027	0.411985	0.842832
C91	C	1.036719	-0.088089	0.439468
C92	C	1.536719	0.411911	0.939468
C93	C	1.038641	0.087292	0.439848
C94	C	1.538641	0.587292	0.939848
C95	C	1.038619	0.088456	0.342903
C96	C	1.538619	0.588456	0.842903
C97	C	0.995411	0.000049	0.207063
C98	C	1.495411	0.500049	0.707063
C99	C	0.989115	0.000044	0.564018
C100	C	1.489115	0.500044	1.064018
H101	H	0.563782	0.000140	0.031745
H102	H	1.063782	0.500140	0.531745
H103	H	0.962265	-0.441832	0.025150
H104	H	1.462265	0.058168	0.525150
N105	N	1.118890	-0.566481	0.011582
N106	N	1.618890	-0.066481	0.511582
H107	H	1.107141	-0.542982	0.068588
H108	H	1.607141	-0.042982	0.568588
H109	H	1.176127	-0.543850	-0.000850
H110	H	1.676127	-0.043850	0.499150
N111	N	0.443175	0.161416	-0.028985
N112	N	0.943175	0.661416	0.471015
H113	H	0.494607	0.200002	-0.009643
H114	H	0.994607	0.700002	0.490357
H115	H	0.414462	0.142059	0.021373
H116	H	0.914462	0.642059	0.521373
N117	N	0.442918	-0.161114	-0.028999
N118	N	0.942918	0.338886	0.471001
H119	H	0.459200	-0.218526	-0.059525
H120	H	0.959200	0.281474	0.440475
H121	H	0.379739	-0.160068	-0.027738
H122	H	0.879739	0.339932	0.472262
N123	N	0.831372	-0.566886	-0.080076
N124	N	1.331372	-0.066886	0.419924
H125	H	0.786347	-0.544440	-0.125024
H126	H	1.286347	-0.044440	0.374976
H127	H	0.818718	-0.543413	-0.023352
H128	H	1.318718	-0.043413	0.476648
H129	H	1.008622	0.154041	0.460392
H130	H	1.508622	0.654041	0.960392
H131	H	0.864997	0.063171	0.296765
H132	H	1.364997	0.563171	0.796765
N133	N	0.541490	-0.161112	-0.200019
N134	N	1.041490	0.338888	0.299981
H135	H	0.490055	-0.199458	-0.219895
H136	H	0.990055	0.300542	0.280105
H137	H	0.581570	-0.199144	-0.160351
H138	H	1.081570	0.300856	0.339649
H139	H	1.005507	0.153605	0.315658
H140	H	1.505507	0.653605	0.815658
N141	N	1.128592	0.095515	0.322574
N142	N	1.628592	0.595515	0.822574
H143	H	1.141593	0.041261	0.286246
H144	H	1.641593	0.541261	0.786246
H145	H	1.168213	0.094762	0.376517
H146	H	1.668213	0.594762	0.876517
N147	N	0.865820	-0.433195	-0.240541
N148	N	1.365820	0.066805	0.259459
H149	H	0.878198	-0.455702	-0.297666
H150	H	1.378198	0.044298	0.202334
H151	H	0.865951	-0.363171	-0.239652
H152	H	1.365951	0.136829	0.260348
H153	H	0.420566	0.000123	-0.260581
H154	H	0.920566	0.500123	0.239419
N155	N	1.126030	-0.093402	0.482210
N156	N	1.626030	0.406598	0.982210
H157	H	1.138388	-0.036954	0.518930
H158	H	1.638388	0.463046	1.018930
H159	H	1.166671	-0.095717	0.438203
H160	H	1.666671	0.404283	0.938203
H161	H	1.107453	-0.091284	0.328715
H162	H	1.607453	0.408716	0.828715
N163	N	1.026702	-0.566878	-0.274891
N164	N	1.526702	-0.066878	0.225109
H165	H	0.981599	-0.544437	-0.319764
H166	H	1.481599	-0.044437	0.180236
H167	H	1.027136	-0.636902	-0.274011
H168	H	1.527136	-0.136902	0.225989
H169	H	1.132388	-0.441973	-0.144536
H170	H	1.632388	0.058027	0.355464
N171	N	0.850316	0.084038	0.446423
N172	N	1.350316	0.584038	0.946423
H173	H	0.887348	0.122525	0.488540
H174	H	1.387348	0.622525	0.988540
H175	H	0.798673	0.062941	0.472351
H176	H	1.298673	0.562941	0.972351
H177	H	0.862385	-0.062415	0.441456
H178	H	1.362385	0.437585	0.941456
N179	N	1.128342	0.088092	0.481919
N180	N	1.628342	0.588092	0.981919
H181	H	1.128046	0.090499	0.544991
H182	H	1.628046	0.590499	1.044991
H183	H	1.158719	0.144293	0.462674
H184	H	1.658719	0.644293	0.962674
H185	H	1.007553	-0.153556	0.314439
H186	H	1.507553	0.346444	0.814439
H187	H	0.864740	-0.063197	0.297307
H188	H	1.364740	0.436803	0.797307
H189	H	1.003676	-0.153925	0.457757
H190	H	1.503676	0.346075	0.957757
N191	N	0.541558	0.161258	-0.199973
N192	N	1.041558	0.661258	0.300027
H193	H	0.513368	0.161206	-0.259797
H194	H	1.013368	0.661206	0.240203
H195	H	0.604869	0.160899	-0.200230
H196	H	1.104869	0.660899	0.299770
