data_functionalizedCrystal
_audit_creation_method	'MofGen! by Chris Wilmer'
_symmetry_space_group_name_H-M	'P1'
_symmetry_Int_Tables_number	1
_symmetry_cell_setting	triclinic
loop_
_symmetry_equiv_pos_as_xyz
  x,y,z
_cell_length_a	23.532355
_cell_length_b	23.532407
_cell_length_c	12.996460
_cell_angle_alpha	89.989202
_cell_angle_beta	90.000230
_cell_angle_gamma	82.838088
loop_
_atom_site_label
_atom_site_type_symbol
_atom_site_fract_x
_atom_site_fract_y
_atom_site_fract_z
O1	O	0.755279	0.068995	-0.085437
O2	O	0.589412	0.079029	-0.085471
O3	O	0.677347	-0.008920	-0.085434
O4	O	0.667344	0.156945	-0.085474
O5	O	0.677338	-0.008925	0.085699
O6	O	0.589403	0.079025	0.085662
O7	O	0.755270	0.068990	0.085697
Cu8	Cu	0.672336	0.074007	0.101305
Cu9	Cu	0.672346	0.074013	-0.101080
O10	O	0.667335	0.156940	0.085660
C11	C	0.568191	0.078776	0.000091
C12	C	0.504972	0.078022	0.000079
C13	C	0.112953	0.073281	0.093408
C14	C	0.053554	0.072564	0.093413
O15	O	0.022831	0.072171	0.172747
N16	N	0.023850	0.072211	0.000128
C17	C	0.053550	0.072569	-0.093167
O18	O	0.022831	0.072202	-0.172512
C19	C	0.112949	0.073283	-0.093170
C20	C	0.142649	0.073641	0.000121
C21	C	0.142653	0.073640	0.186691
C22	C	0.202048	0.074358	0.186687
C23	C	0.231744	0.074718	0.093399
C24	C	0.202044	0.074360	0.000116
C25	C	0.142648	0.073637	-0.186464
C26	C	0.202051	0.074350	-0.186459
C27	C	0.231751	0.074709	-0.093168
C28	C	0.291134	0.075439	-0.093176
N29	N	0.320838	0.075792	0.000109
C30	C	0.291143	0.075432	0.093396
C31	C	-0.071191	0.071070	-0.093153
C32	C	-0.130590	0.070361	-0.093151
C33	C	-0.130582	0.070354	0.093428
C34	C	-0.071183	0.071068	0.093425
C35	C	-0.041488	0.071423	0.000131
C36	C	0.415877	0.076941	0.093380
C37	C	0.475277	0.077662	0.093367
C38	C	0.475264	0.077665	-0.093212
C39	C	0.415869	0.076947	-0.093200
C40	C	0.386177	0.076583	0.000104
O41	O	0.321895	0.075829	-0.172470
O42	O	0.321870	0.075791	0.172728
C43	C	0.677088	-0.030139	0.000135
C44	C	0.676322	-0.093356	0.000143
C45	C	0.723557	-0.492468	0.000096
C46	C	0.722845	-0.551868	0.000088
O47	O	0.766632	-0.588620	0.000059
N48	N	0.670568	-0.574484	0.000078
C49	C	0.618998	-0.537697	0.000066
O50	O	0.574467	-0.562388	0.000055
C51	C	0.619710	-0.478298	0.000066
C52	C	0.671991	-0.455685	0.000087
C53	C	0.775834	-0.469854	0.000115
C54	C	0.776545	-0.410458	0.000125
C55	C	0.724979	-0.373676	0.000116
C56	C	0.672703	-0.396289	0.000097
C57	C	0.568141	-0.441512	0.000046
C58	C	0.568858	-0.382110	0.000046
C59	C	0.621139	-0.359497	0.000067
C60	C	0.621848	-0.300110	0.000097
N61	N	0.674126	-0.277494	0.000107
C62	C	0.725691	-0.314277	0.000116
C63	C	0.617507	-0.662439	0.000063
C64	C	0.616794	-0.721837	0.000069
C65	C	0.720642	-0.736004	0.000090
C66	C	0.721354	-0.676605	0.000091
C67	C	0.669784	-0.639823	0.000073
C68	C	0.727181	-0.189540	0.000138
C69	C	0.727888	-0.130138	0.000152
C70	C	0.624041	-0.115977	0.000126
C71	C	0.623334	-0.175373	0.000117
C72	C	0.674909	-0.212154	0.000120
O73	O	0.578084	-0.263323	0.000122
O74	O	0.770216	-0.289577	0.000113
C75	C	0.776492	0.069244	0.000131
C76	C	0.839710	0.069998	0.000137
C77	C	0.667594	0.178158	0.000088
C78	C	0.668360	0.241375	0.000073
N79	N	0.672332	0.074003	0.243652
N80	N	0.672354	0.074012	-0.243427
C81	C	0.672346	0.074013	0.663467
C82	C	0.672340	0.074012	0.546662
C83	C	0.672339	0.074008	0.453563
C84	C	0.672333	0.074006	0.336751
H85	H	0.391708	0.076650	0.169357
N86	N	0.507303	0.078049	-0.193822
H87	H	0.501787	0.042614	-0.234590
H88	H	0.492135	0.113256	-0.234544
H89	H	0.391685	0.076664	-0.169165
N90	N	0.234077	0.074730	0.287310
H91	H	0.276214	0.075237	0.273168
H92	H	0.218874	0.109912	0.328046
N93	N	0.832932	-0.386068	0.000122
H94	H	0.835547	-0.361746	0.063559
H95	H	0.865455	-0.418418	0.000081
N96	N	0.110631	0.073249	0.287318
H97	H	0.138519	0.073196	0.346400
H98	H	0.081431	0.108461	0.291682
N99	N	-0.162621	0.069983	-0.193771
H100	H	-0.134790	0.070320	-0.252864
H101	H	-0.182443	0.034374	-0.197829
N102	N	0.110629	0.073242	-0.287089
H103	H	0.090807	0.037634	-0.291233
H104	H	0.081192	0.108277	-0.291216
H105	H	0.769178	-0.219481	0.000136
N106	N	0.561878	-0.622775	0.000070
H107	H	0.559855	-0.597824	0.063512
H108	H	0.559884	-0.597842	-0.063408
N109	N	0.513239	-0.342433	0.000049
H110	H	0.511220	-0.317460	-0.063384
H111	H	0.480044	-0.365811	0.000080
N112	N	0.511752	-0.465892	0.000037
H113	H	0.479199	-0.433569	0.000029
H114	H	0.509192	-0.490221	-0.063405
H115	H	-0.047018	0.071365	-0.169129
N116	N	0.784278	-0.105748	0.000168
H117	H	0.786886	-0.081429	0.063613
H118	H	0.816802	-0.138096	0.000130
N119	N	0.234081	0.074738	-0.287083
H120	H	0.263546	0.039726	-0.291234
H121	H	0.206212	0.074424	-0.346118
N122	N	0.831456	-0.509522	0.000127
H123	H	0.864675	-0.486174	0.000140
H124	H	0.833420	-0.534479	0.063572
N125	N	0.777741	-0.652217	0.000113
H126	H	0.810297	-0.684537	0.000122
H127	H	0.780306	-0.627876	-0.063328
H128	H	0.762629	-0.765963	0.000094
H129	H	0.580762	-0.193785	0.000129
H130	H	0.574222	-0.740243	0.000070
N131	N	0.568426	-0.076299	0.000144
H132	H	0.576814	-0.035240	0.000156
H133	H	0.545624	-0.083571	-0.063299
H134	H	0.499455	0.077956	0.169339
N135	N	-0.039152	0.071456	0.194044
H136	H	-0.066983	0.071121	0.253137
H137	H	-0.009688	0.036441	0.198124
H138	H	-0.154770	0.070060	0.169389
