data_functionalizedCrystal
_audit_creation_method	'MofGen! by Chris Wilmer'
_symmetry_space_group_name_H-M	'P1'
_symmetry_Int_Tables_number	1
_symmetry_cell_setting	triclinic
loop_
_symmetry_equiv_pos_as_xyz
  x,y,z
_cell_length_a	19.805407
_cell_length_b	14.908178
_cell_length_c	19.805399
_cell_angle_alpha	86.674164
_cell_angle_beta	89.984884
_cell_angle_gamma	93.311253
loop_
_atom_site_label
_atom_site_type_symbol
_atom_site_fract_x
_atom_site_fract_y
_atom_site_fract_z
Zn1	Zn	1.019205	-0.359259	-0.367131
Zn2	Zn	1.012611	-0.510139	-0.247410
Zn3	Zn	0.906024	-0.359280	-0.253959
Zn4	Zn	0.899471	-0.510080	-0.360563
O5	O	0.959328	-0.434689	-0.307266
O6	O	1.113046	-0.379289	-0.351258
O7	O	0.998454	-0.490161	-0.153560
O8	O	0.926541	-0.233023	-0.274461
O9	O	1.108201	-0.490140	-0.263300
O10	O	1.009694	-0.233007	-0.357608
O11	O	0.920146	-0.379326	-0.158372
O12	O	0.810439	-0.379269	-0.268091
O13	O	0.915372	-0.490040	-0.456152
O14	O	0.805625	-0.490061	-0.346413
O15	O	1.003340	-0.379232	-0.460978
O16	O	0.992100	-0.636385	-0.256930
O17	O	0.908977	-0.636342	-0.340063
C18	C	0.783473	-0.434661	-0.307250
C19	C	0.708241	-0.434671	-0.307259
C20	C	0.675416	-0.377053	-0.353121
C21	C	0.604727	-0.377058	-0.353123
C22	C	0.566865	-0.434686	-0.307267
C23	C	0.599694	-0.492306	-0.261400
C24	C	0.670382	-0.492296	-0.261395
C25	C	0.314619	-0.492347	-0.261419
C26	C	0.243927	-0.492354	-0.261429
C27	C	0.248964	-0.377108	-0.353147
C28	C	0.319652	-0.377098	-0.353142
C29	C	0.352476	-0.434715	-0.307273
C30	C	0.429125	-0.434708	-0.307271
C31	C	0.490217	-0.434698	-0.307272
C32	C	0.949130	-0.669100	-0.297088
C33	C	0.944830	-0.769382	-0.292757
C34	C	1.023270	-0.957655	-0.371292
C35	C	1.019232	-1.051879	-0.367224
C36	C	0.932711	-1.052054	-0.280558
C37	C	0.936750	-0.957831	-0.284625
C38	C	0.982031	-0.910635	-0.329993
C39	C	0.986073	-0.816409	-0.334057
C40	C	0.899549	-0.816586	-0.247394
C41	C	0.895511	-0.910810	-0.243327
C42	C	1.135869	-0.434719	-0.307281
C43	C	1.211101	-0.434731	-0.307288
C44	C	0.959360	-0.434627	-0.483811
C45	C	0.959374	-0.434600	-0.559044
C46	C	0.969584	-0.199364	-0.317498
C47	C	0.973954	-0.099082	-0.321858
C48	C	0.918611	-0.376883	-0.596893
C49	C	0.918622	-0.376865	-0.667583
C50	C	0.959398	-0.434561	-0.700422
C51	C	1.000163	-0.492285	-0.662567
C52	C	1.000149	-0.492306	-0.591879
C53	C	1.000220	-0.492201	-0.947644
C54	C	1.000233	-0.492173	-1.018338
C55	C	0.918693	-0.376760	-1.023348
C56	C	0.918679	-0.376781	-0.952660
C57	C	0.959440	-0.434508	-0.914811
C58	C	0.959428	-0.434527	-0.838162
C59	C	0.959415	-0.434538	-0.777070
C60	C	0.959337	-0.434687	-0.131410
C61	C	0.959466	-0.434459	-0.056188
H62	H	0.350476	-0.330175	-0.390485
H63	H	0.222231	-0.330190	-0.390493
H64	H	0.213101	-0.539284	-0.224084
H65	H	0.885477	-0.329796	-0.925926
H66	H	0.885410	-0.329895	-0.570161
F67	F	0.559397	-0.553634	-0.212592
F68	F	1.043531	-0.553740	-0.551597
H69	H	0.341336	-0.539263	-0.224071
F70	F	1.043556	-0.553695	-0.697519
F71	F	0.855661	-0.766537	-0.203434
F72	F	1.043606	-0.553633	-0.907373
H73	H	1.022945	-0.777983	-0.370996
F74	F	0.715706	-0.315720	-0.401931
H75	H	1.060145	-0.919228	-0.408227
H76	H	0.858642	-0.949250	-0.206391
H77	H	0.697107	-0.539214	-0.224049
F78	F	0.875308	-0.315324	-1.063634
H79	H	1.033439	-0.539159	-1.045073
F80	F	1.063122	-1.101919	-0.411182
H81	H	0.895842	-1.090498	-0.243625
H82	H	0.885426	-0.329870	-0.698396
H83	H	0.578004	-0.330141	-0.390469
