data_functionalizedCrystal
_audit_creation_method	'MofGen! by Chris Wilmer'
_symmetry_space_group_name_H-M	'P1'
_symmetry_Int_Tables_number	1
_symmetry_cell_setting	triclinic
loop_
_symmetry_equiv_pos_as_xyz
  x,y,z
_cell_length_a	11.169417
_cell_length_b	13.032721
_cell_length_c	11.169409
_cell_angle_alpha	82.853997
_cell_angle_beta	90.019824
_cell_angle_gamma	97.204996
loop_
_atom_site_label
_atom_site_type_symbol
_atom_site_fract_x
_atom_site_fract_y
_atom_site_fract_z
Zn1	Zn	1.774209	-0.415926	0.739163
Zn2	Zn	2.274209	0.084074	1.239163
Zn3	Zn	1.748568	-0.590714	0.563955
Zn4	Zn	2.248568	-0.090714	1.063955
Zn5	Zn	1.573486	-0.415989	0.538507
Zn6	Zn	2.073486	0.084011	1.038507
Zn7	Zn	1.547984	-0.590629	0.764588
Zn8	Zn	2.047984	-0.090629	1.264588
O9	O	1.661062	-0.503314	0.651553
O10	O	2.161062	-0.003314	1.151553
O11	O	1.938756	-0.439121	0.715931
O12	O	2.438756	0.060879	1.215931
O13	O	1.725284	-0.567598	0.392639
O14	O	2.225284	-0.067598	0.892639
O15	O	1.621516	-0.269744	0.543834
O16	O	2.121516	0.230256	1.043834
O17	O	1.919918	-0.567537	0.587207
O18	O	2.419918	-0.067537	1.087207
O19	O	1.768986	-0.269697	0.691255
O20	O	2.268986	0.230303	1.191255
O21	O	1.596652	-0.439229	0.373942
O22	O	2.096652	0.060771	0.873942
O23	O	1.402155	-0.439147	0.568487
O24	O	1.902155	0.060853	1.068487
O25	O	1.578052	-0.567392	0.929156
O26	O	2.078052	-0.067392	1.429156
O27	O	1.383419	-0.567453	0.734588
O28	O	1.883419	-0.067453	1.234588
O29	O	1.744259	-0.439038	0.910477
O30	O	2.244259	0.060962	1.410477
O31	O	1.700556	-0.736939	0.611860
O32	O	2.200556	-0.236939	1.111860
O33	O	1.553189	-0.736877	0.759264
O34	O	2.053189	-0.236877	1.259264
C35	C	1.349239	-0.503298	0.651535
C36	C	1.849239	-0.003298	1.151535
C37	C	1.215837	-0.503317	0.651560
C38	C	1.715837	-0.003317	1.151560
C39	C	1.621355	-0.774825	0.691108
C40	C	2.121355	-0.274825	1.191108
C41	C	1.604479	-0.890979	0.708070
C42	C	2.104479	-0.390979	1.208070
C43	C	1.669934	-0.942760	0.642755
C44	C	2.169934	-0.442760	1.142755
C45	C	1.652492	-1.062811	0.660284
C46	C	2.152492	-0.562811	1.160284
C47	C	1.974102	-0.503331	0.651572
C48	C	2.474102	-0.003331	1.151572
C49	C	2.107501	-0.503338	0.651580
C50	C	2.607501	-0.003338	1.151580
C51	C	1.661171	-0.503198	0.964579
C52	C	2.161171	-0.003198	1.464579
C53	C	1.661217	-0.503149	1.097972
C54	C	2.161217	-0.003149	1.597972
C55	C	1.700956	-0.230743	0.611870
C56	C	2.200956	0.269257	1.111870
C57	C	1.717956	-0.114589	0.594959
C58	C	2.217956	0.385411	1.094959
C59	C	1.661033	-0.503355	0.339734
C60	C	2.161033	-0.003355	0.839734
C61	C	1.661262	-0.503110	0.206299
C62	C	2.161262	-0.003110	0.706299
H63	H	1.738890	-0.898217	0.573862
H64	H	2.238890	-0.398217	1.073862
H65	H	1.786917	-1.070049	0.526062
H66	H	2.286917	-0.570049	1.026062
O67	O	1.522369	-0.944225	0.790343
O68	O	2.022369	-0.444225	1.290343
C69	C	1.581574	-1.007233	0.877076
C70	C	2.081574	-0.507233	1.377076
H71	H	1.670212	-1.023437	0.837175
H72	H	2.170212	-0.523437	1.337175
H73	H	1.521600	-1.084056	0.904257
H74	H	2.021600	-0.584056	1.404257
H75	H	1.600782	-0.965159	0.959928
H76	H	2.100782	-0.465159	1.459928
O77	O	1.570244	-1.116100	0.742397
O78	O	2.070244	-0.616100	1.242397
C79	C	1.571155	-1.224101	0.741636
C80	C	2.071155	-0.724101	1.241636
H81	H	1.608369	-1.238938	0.651200
H82	H	2.108369	-0.738938	1.151200
H83	H	1.475250	-1.265721	0.755735
H84	H	1.975250	-0.765721	1.255735
H85	H	1.630579	-1.254976	0.817357
H86	H	2.130579	-0.754976	1.317357
