data_functionalizedCrystal
_audit_creation_method	'MofGen! by Chris Wilmer'
_symmetry_space_group_name_H-M	'P1'
_symmetry_Int_Tables_number	1
_symmetry_cell_setting	triclinic
loop_
_symmetry_equiv_pos_as_xyz
  x,y,z
_cell_length_a	19.288867
_cell_length_b	16.109304
_cell_length_c	15.186229
_cell_angle_alpha	90.009166
_cell_angle_beta	90.006446
_cell_angle_gamma	83.299853
loop_
_atom_site_label
_atom_site_type_symbol
_atom_site_fract_x
_atom_site_fract_y
_atom_site_fract_z
O1	O	0.921598	0.103731	0.073192
O2	O	1.254932	0.437064	0.406526
O3	O	1.588265	0.770398	0.739859
O4	O	0.719372	0.117720	0.073200
O5	O	1.052705	0.451053	0.406534
O6	O	1.386038	0.784387	0.739867
O7	O	0.826039	-0.010324	0.073197
O8	O	1.159373	0.323009	0.406530
O9	O	1.492706	0.656342	0.739863
O10	O	0.814931	0.231775	0.073196
O11	O	1.148264	0.565109	0.406529
O12	O	1.481597	0.898442	0.739863
O13	O	0.826025	-0.010345	-0.073261
O14	O	1.159358	0.322988	0.260073
O15	O	1.492692	0.656322	0.593406
O16	O	0.719357	0.117700	-0.073257
O17	O	1.052690	0.451033	0.260076
O18	O	1.386024	0.784366	0.593410
O19	O	0.921584	0.103710	-0.073265
O20	O	1.254917	0.437044	0.260068
O21	O	1.588251	0.770377	0.593402
Zn22	Zn	0.820468	0.110702	-0.096514
Zn23	Zn	1.153802	0.444035	0.236819
Zn24	Zn	1.487135	0.777368	0.570152
Zn25	Zn	0.820487	0.110729	0.096450
Zn26	Zn	1.153821	0.444062	0.429783
Zn27	Zn	1.487154	0.777395	0.763116
O28	O	0.814916	0.231755	-0.073261
O29	O	1.148250	0.565088	0.260072
O30	O	1.481583	0.898421	0.593405
C31	C	0.693487	0.117259	-0.000027
C32	C	1.026820	0.450593	0.333306
C33	C	1.360153	0.783926	0.666639
C34	C	0.616380	0.115907	-0.000024
C35	C	0.949713	0.449241	0.333309
C36	C	1.283047	0.782574	0.666642
C37	C	0.060799	0.106180	0.079800
C38	C	0.394133	0.439513	0.413133
C39	C	0.727466	0.772846	0.746466
C40	C	0.133250	0.107445	0.079803
C41	C	0.466583	0.440778	0.413136
C42	C	0.799917	0.774112	0.746469
C43	C	0.169472	0.108071	-0.000031
C44	C	0.502805	0.441404	0.333302
C45	C	0.836139	0.774737	0.666636
C46	C	0.133240	0.107409	-0.079874
C47	C	0.466573	0.440742	0.253460
C48	C	0.799907	0.774076	0.586793
C49	C	0.060792	0.106135	-0.079875
C50	C	0.394125	0.439469	0.253459
C51	C	0.727458	0.772802	0.586792
C52	C	0.278915	0.158775	-0.061194
C53	C	0.612248	0.492108	0.272139
C54	C	0.945582	0.825441	0.605473
C55	C	0.351361	0.160054	-0.061190
C56	C	0.684695	0.493387	0.272144
C57	C	1.018028	0.826720	0.605477
C58	C	0.392927	0.111996	-0.000031
C59	C	0.726260	0.445329	0.333302
C60	C	1.059594	0.778662	0.666636
C61	C	0.362037	0.062669	0.061138
C62	C	0.695370	0.396003	0.394471
C63	C	1.028703	0.729336	0.727805
C64	C	0.289588	0.061395	0.061137
C65	C	0.622922	0.394729	0.394470
C66	C	0.956255	0.728062	0.727804
C67	C	0.248030	0.109451	-0.000039
C68	C	0.581363	0.442785	0.333295
C69	C	0.914697	0.776118	0.666628
C70	C	0.507710	0.114023	0.079810
C71	C	0.841044	0.447357	0.413144
C72	C	1.174377	0.780690	0.746477
C73	C	0.580163	0.115283	0.079810
C74	C	0.913496	0.448617	0.413144
C75	C	1.246829	0.781950	0.746477
C76	C	0.580151	0.115256	-0.079869
C77	C	0.913484	0.448589	0.253465
C78	C	1.246817	0.781922	0.586798
C79	C	0.507700	0.113987	-0.079866
C80	C	0.841034	0.447320	0.253467
C81	C	1.174367	0.780654	0.586800
C82	C	0.471484	0.113375	-0.000024
C83	C	0.804817	0.446708	0.333309
C84	C	1.138151	0.780041	0.666642
C85	C	0.825582	-0.041308	-0.000030
C86	C	1.158915	0.292025	0.333303
C87	C	1.492248	0.625359	0.666637
C88	C	0.824232	-0.133598	-0.000024
C89	C	1.157565	0.199735	0.333309
C90	C	1.490898	0.533068	0.666643
C91	C	0.821120	-0.345914	0.079807
C92	C	1.154454	-0.012581	0.413140
C93	C	1.487787	0.320753	0.746473
C94	C	0.819845	-0.432630	0.079806
C95	C	1.153179	-0.099296	0.413139
C96	C	1.486512	0.234037	0.746473
C97	C	0.819833	-0.432649	-0.079870
C98	C	1.153166	-0.099316	0.253463
C99	C	1.486500	0.234017	0.586797
C100	C	0.821103	-0.345934	-0.079868
C101	C	1.154436	-0.012601	0.253465
C102	C	1.487770	0.320732	0.586799
C103	C	0.821750	-0.302569	-0.000027
C104	C	1.155084	0.030764	0.333306
C105	C	1.488417	0.364097	0.666639
C106	C	0.819205	-0.476000	-0.000030
C107	C	1.152539	-0.142667	0.333304
C108	C	1.485872	0.190666	0.666637
C109	C	0.817823	-0.570021	-0.000031
C110	C	1.151156	-0.236688	0.333302
C111	C	1.484490	0.096645	0.666635
C112	C	0.823131	-0.208542	-0.000025
C113	C	1.156465	0.124791	0.333308
C114	C	1.489798	0.458125	0.666641
C115	C	0.947469	0.104171	-0.000035
C116	C	1.280802	0.437504	0.333298
C117	C	1.614135	0.770838	0.666631
C118	C	1.024575	0.105523	-0.000033
C119	C	1.357909	0.438856	0.333301
C120	C	1.691242	0.772190	0.666634
C121	C	0.815374	0.262738	-0.000033
C122	C	1.148707	0.596072	0.333301
C123	C	1.482040	0.929405	0.666634
C124	C	0.816724	0.355029	-0.000033
C125	C	1.150057	0.688362	0.333300
C126	C	1.483391	1.021696	0.666634
N127	N	0.820460	0.110683	-0.228207
N128	N	1.153794	0.444016	0.105126
N129	N	1.487127	0.777349	0.438460
C130	C	0.778370	0.060423	-0.546157
C131	C	1.111703	0.393757	-0.212824
C132	C	1.445037	0.727090	0.120509
C133	C	0.778364	0.060411	-0.453968
C134	C	1.111697	0.393745	-0.120634
C135	C	1.445031	0.727078	0.212699
C136	C	0.862596	0.161002	-0.453914
C137	C	1.195929	0.494336	-0.120581
C138	C	1.529263	0.827669	0.212753
C139	C	0.862605	0.161009	-0.546102
C140	C	1.195939	0.494343	-0.212769
C141	C	1.529272	0.827676	0.120565
C142	C	0.820488	0.110721	-0.592221
C143	C	1.153821	0.444055	-0.258888
C144	C	1.487155	0.777388	0.074445
C145	C	0.820473	0.110702	-0.407844
C146	C	1.153806	0.444036	-0.074510
C147	C	1.487140	0.777369	0.258823
C148	C	0.820467	0.110690	-0.307887
C149	C	1.153800	0.444023	0.025446
C150	C	1.487134	0.777356	0.358779
C151	C	0.820495	0.110733	-0.692184
C152	C	1.153828	0.444066	-0.358850
C153	C	1.487162	0.777399	-0.025517
N154	N	0.820501	0.110741	0.228142
N155	N	1.153834	0.444075	0.561476
N156	N	1.487167	0.777408	0.894809
H157	H	0.162749	0.107985	0.144814
H158	H	0.496082	0.441318	0.478147
H159	H	0.829415	0.774651	0.811481
H160	H	0.264440	0.021231	0.110941
H161	H	0.597774	0.354564	0.444275
H162	H	0.931107	0.687898	0.777608
Br163	Br	0.821997	-0.287064	0.188161
Br164	Br	1.155330	0.046270	0.521495
Br165	Br	1.488663	0.379603	0.854828
H166	H	0.744068	0.019453	-0.416466
H167	H	1.077401	0.352786	-0.083133
H168	H	1.410734	0.686119	0.250200
Br169	Br	0.222512	0.223989	-0.144214
Br170	Br	0.555846	0.557322	0.189119
Br171	Br	0.889179	0.890656	0.522452
H172	H	0.821612	-0.310642	-0.144883
H173	H	1.154945	0.022692	0.188451
H174	H	1.488279	0.356025	0.521784
H175	H	0.031317	0.105678	0.144813
H176	H	0.364650	0.439011	0.478146
H177	H	0.697983	0.772345	0.811480
H178	H	0.819331	-0.467917	0.144815
H179	H	1.152664	-0.134583	0.478148
H180	H	1.485998	0.198750	0.811481
Br181	Br	0.919775	0.229270	-0.608623
Br182	Br	1.253109	0.562603	-0.275290
Br183	Br	1.586442	0.895936	0.058043
Br184	Br	0.458556	0.113188	0.188164
Br185	Br	0.791889	0.446522	0.521497
Br186	Br	1.125222	0.779855	0.854831
Br187	Br	0.818953	-0.491506	-0.188220
Br188	Br	1.152286	-0.158173	0.145113
Br189	Br	1.485620	0.175160	0.478447
H190	H	0.744076	0.019475	-0.583705
H191	H	1.077409	0.352808	-0.250371
H192	H	1.410743	0.686142	0.082962
H193	H	0.896885	0.201946	-0.416352
H194	H	1.230219	0.535280	-0.083019
H195	H	1.563552	0.868613	0.250314
H196	H	0.609656	0.115812	0.144822
H197	H	0.942989	0.449145	0.478155
H198	H	1.276322	0.782479	0.811489
Br199	Br	0.629303	0.116086	-0.188217
Br200	Br	0.962637	0.449420	0.145117
Br201	Br	1.295970	0.782753	0.478450
Br202	Br	0.418437	-0.002551	0.144151
Br203	Br	0.751771	0.330782	0.477484
Br204	Br	1.085104	0.664116	0.810818
H205	H	0.478206	0.113455	-0.144874
H206	H	0.811540	0.446789	0.188459
H207	H	1.144873	0.780122	0.521792
H208	H	0.162737	0.107917	-0.144875
H209	H	0.496070	0.441250	0.188459
H210	H	0.829404	0.774583	0.521792
Br211	Br	0.393276	0.227005	-0.144194
Br212	Br	0.726609	0.560339	0.189140
Br213	Br	1.059943	0.893672	0.522473
H214	H	0.031298	0.105604	-0.144886
H215	H	0.364632	0.438937	0.188447
H216	H	0.697965	0.772270	0.521781
