data_functionalizedCrystal
_audit_creation_method	'MofGen! by Chris Wilmer'
_symmetry_space_group_name_H-M	'P1'
_symmetry_Int_Tables_number	1
_symmetry_cell_setting	triclinic
loop_
_symmetry_equiv_pos_as_xyz
  x,y,z
_cell_length_a	16.992694
_cell_length_b	13.101039
_cell_length_c	16.992695
_cell_angle_alpha	86.408978
_cell_angle_beta	90.668223
_cell_angle_gamma	93.581737
loop_
_atom_site_label
_atom_site_type_symbol
_atom_site_fract_x
_atom_site_fract_y
_atom_site_fract_z
O1	O	1.054903	0.085087	0.162849
O2	O	1.554903	0.585087	0.662849
O3	O	0.826504	0.085117	0.161017
O4	O	1.326504	0.585117	0.661017
O5	O	0.939787	0.085094	0.047733
O6	O	1.439787	0.585094	0.547733
O7	O	0.941619	0.085110	0.276133
O8	O	1.441619	0.585110	0.776133
O9	O	0.931660	-0.085335	0.055876
O10	O	1.431660	0.414665	0.555876
O11	O	0.818377	-0.085311	0.169159
O12	O	1.318377	0.414689	0.669159
O13	O	1.046776	-0.085342	0.170992
O14	O	1.546776	0.414658	0.670992
Zn15	Zn	0.931286	-0.112386	0.171368
Zn16	Zn	1.431286	0.387614	0.671368
Zn17	Zn	0.941994	0.112161	0.160640
Zn18	Zn	1.441994	0.612161	0.660640
O19	O	0.933492	-0.085319	0.284275
O20	O	1.433492	0.414681	0.784275
C21	C	0.793081	-0.000094	0.162732
C22	C	1.293081	0.499906	0.662732
C23	C	0.705597	-0.000082	0.155703
C24	C	1.205597	0.499918	0.655703
N25	N	0.923984	-0.265633	0.178689
N26	N	1.423984	0.234367	0.678689
C27	C	0.659606	-0.000078	0.223520
C28	C	1.159606	0.499922	0.723520
C29	C	0.577404	-0.000093	0.216912
C30	C	1.077404	0.499907	0.716912
C31	C	0.541196	-0.000104	0.142485
C32	C	1.041196	0.499896	0.642485
C33	C	0.587192	-0.000111	0.074662
C34	C	1.087192	0.499889	0.574662
C35	C	0.669392	-0.000104	0.081272
C36	C	1.169392	0.499896	0.581272
C37	C	0.295880	-0.000133	0.115092
C38	C	0.795880	0.499867	0.615092
C39	C	0.213674	-0.000138	0.108488
C40	C	0.713674	0.499862	0.608488
C41	C	0.203892	-0.000121	0.250738
C42	C	0.703892	0.499879	0.750738
C43	C	0.286094	-0.000108	0.257341
C44	C	0.786094	0.499892	0.757341
C45	C	0.332083	-0.000120	0.189518
C46	C	0.832083	0.499880	0.689518
N47	N	0.457173	-0.000116	0.135728
N48	N	0.957173	0.499884	0.635728
N49	N	0.416104	-0.000116	0.196276
N50	N	0.916104	0.499884	0.696276
C51	C	0.914050	-0.474673	0.188658
C52	C	1.414050	0.025327	0.688658
C53	C	0.959233	-0.525558	0.143347
C54	C	1.459233	-0.025558	0.643347
C55	C	0.953706	-0.641876	0.148894
C56	C	1.453706	-0.141876	0.648894
C57	C	0.919576	-0.358345	0.183112
C58	C	1.419576	0.141655	0.683112
C59	C	1.080199	-0.000129	0.169276
C60	C	1.580199	0.499871	0.669276
C61	C	1.167684	-0.000134	0.176305
C62	C	1.667684	0.499866	0.676305
C63	C	0.933368	-0.000120	0.022444
C64	C	1.433368	0.499880	0.522444
C65	C	0.926339	-0.000119	-0.065040
C66	C	1.426339	0.499881	0.434960
N67	N	0.949302	0.265408	0.153313
N68	N	1.449302	0.765408	0.653313
C69	C	0.994157	-0.000129	-0.111031
C70	C	1.494157	0.499871	0.388969
C71	C	0.987549	-0.000118	-0.193232
C72	C	1.487549	0.499882	0.306768
C73	C	0.913122	-0.000105	-0.229441
C74	C	1.413122	0.499895	0.270559
C75	C	0.845299	-0.000092	-0.183445
C76	C	1.345299	0.499908	0.316555
C77	C	0.851909	-0.000095	-0.101245
C78	C	1.351909	0.499905	0.398755
C79	C	0.885728	-0.000087	-0.474756
C80	C	1.385728	0.499913	0.025244
C81	C	0.879123	-0.000087	-0.556961
C82	C	1.379123	0.499913	-0.056961
C83	C	1.021373	-0.000112	-0.566743
C84	C	1.521373	0.499888	-0.066743
C85	C	1.027976	-0.000121	-0.484542
C86	C	1.527976	0.499879	0.015458
C87	C	0.960154	-0.000102	-0.438553
C88	C	1.460154	0.499898	0.061447
N89	N	0.906365	-0.000097	-0.313464
N90	N	1.406365	0.499903	0.186536
N91	N	0.966912	-0.000103	-0.354532
N92	N	1.466912	0.499897	0.145468
C93	C	0.939912	-0.000103	0.309564
C94	C	1.439912	0.499897	0.809564
C95	C	0.946941	-0.000097	0.397048
C96	C	1.446941	0.499903	0.897048
H97	H	0.539962	-0.000088	0.272137
H98	H	1.039962	0.499912	0.772137
H99	H	0.706837	-0.000106	0.026047
H100	H	1.206837	0.499894	0.526047
N101	N	0.765024	-0.000087	-0.222496
N102	N	1.265024	0.499913	0.277504
H103	H	0.723064	-0.000080	-0.180886
H104	H	1.223064	0.499920	0.319114
H105	H	0.762194	0.063092	-0.259405
H106	H	1.262194	0.563092	0.240595
H107	H	1.042773	-0.000129	-0.230674
H108	H	1.542773	0.499871	0.269326
H109	H	1.002068	-0.481765	0.100391
H110	H	1.502068	0.018235	0.600391
N111	N	0.778764	-0.000078	-0.051637
N112	N	1.278764	0.499922	0.448363
H113	H	0.730611	-0.000070	-0.087047
H114	H	1.230611	0.499930	0.412953
H115	H	0.775392	-0.063257	-0.014302
H116	H	1.275392	0.436743	0.485698
N117	N	0.857320	-0.532667	0.245566
N118	N	1.357320	-0.032667	0.745566
H119	H	0.801731	-0.514069	0.232197
H120	H	1.301731	-0.014069	0.732197
H121	H	0.861434	-0.608724	0.241489
H122	H	1.361434	-0.108724	0.741489
N123	N	1.074432	-0.000153	-0.071979
N124	N	1.574432	0.499847	0.428021
H125	H	1.116390	-0.000156	-0.113590
H126	H	1.616390	0.499844	0.386410
H127	H	1.083287	0.063024	-0.041101
H128	H	1.583287	0.563024	0.458899
N129	N	1.108251	-0.000141	-0.445489
N130	N	1.608251	0.499859	0.054511
H131	H	1.150211	-0.000146	-0.487097
H132	H	1.650211	0.499854	0.012903
H133	H	1.117106	0.063035	-0.414610
H134	H	1.617106	0.563035	0.085390
H135	H	0.166439	-0.000113	0.305955
H136	H	0.666439	0.499887	0.805955
N137	N	1.094521	-0.000133	-0.616344
N138	N	1.594521	0.499867	-0.116344
H139	H	1.079044	-0.000130	-0.673912
H140	H	1.579044	0.499870	-0.173912
H141	H	1.129749	0.063041	-0.607128
H142	H	1.629749	0.563041	-0.107128
N143	N	0.174620	-0.000176	0.028209
N144	N	0.674620	0.499824	0.528209
H145	H	0.115568	-0.000178	0.034316
H146	H	0.615568	0.499822	0.534316
H147	H	0.194126	0.062994	-0.004726
H148	H	0.694126	0.562994	0.495274
N149	N	0.548149	-0.000118	-0.005617
N150	N	1.048149	0.499882	0.494383
H151	H	0.561589	-0.063299	-0.032540
H152	H	1.061589	0.436701	0.467460
H153	H	0.489108	-0.000079	0.000544
H154	H	0.989108	0.499921	0.500544
H155	H	0.818512	-0.000093	-0.586439
H156	H	1.318512	0.499907	-0.086439
H157	H	0.315570	-0.000087	0.317946
H158	H	0.815570	0.499913	0.817946
H159	H	0.830502	-0.000072	-0.437321
H160	H	1.330502	0.499928	0.062679
N161	N	0.345476	-0.000154	0.041944
N162	N	0.845476	0.499846	0.541944
H163	H	0.310062	-0.000160	-0.006206
H164	H	0.810062	0.499840	0.493794
H165	H	0.382804	0.063024	0.038562
H166	H	0.882804	0.563024	0.538562
H167	H	0.689081	-0.000068	0.284127
H168	H	1.189081	0.499932	0.784127
