data_functionalizedCrystal
_audit_creation_method	'MofGen! by Chris Wilmer'
_symmetry_space_group_name_H-M	'P1'
_symmetry_Int_Tables_number	1
_symmetry_cell_setting	triclinic
loop_
_symmetry_equiv_pos_as_xyz
  x,y,z
_cell_length_a	15.995292
_cell_length_b	15.995292
_cell_length_c	12.503572
_cell_angle_alpha	93.525692
_cell_angle_beta	86.481317
_cell_angle_gamma	83.468616
loop_
_atom_site_label
_atom_site_type_symbol
_atom_site_fract_x
_atom_site_fract_y
_atom_site_fract_z
O1	O	1.115824	0.102851	-0.089342
O2	O	0.872039	0.116231	-0.089337
O3	O	1.000621	-0.012351	-0.089342
O4	O	0.987242	0.231433	-0.089338
O5	O	0.990951	-0.002665	0.089301
O6	O	0.862369	0.125917	0.089305
O7	O	1.106154	0.112538	0.089300
Cu8	Cu	0.983378	0.120112	0.105614
Cu9	Cu	0.994815	0.108657	-0.105651
O10	O	0.977572	0.241120	0.089304
C11	C	0.836009	0.120529	-0.000016
C12	C	0.743056	0.118897	-0.000014
C13	C	0.405319	0.112895	-0.000026
C14	C	0.428634	0.205680	-0.000424
C15	C	0.525287	0.207466	-0.000016
C16	C	0.572874	0.115873	-0.000021
C17	C	0.538260	0.075005	0.101989
C18	C	0.441466	0.073892	0.102069
C19	C	0.452607	0.060982	-0.101080
C20	C	0.549172	0.064348	-0.102424
C21	C	0.667570	0.117551	-0.000014
C22	C	0.310624	0.111214	-0.000026
C23	C	0.995242	-0.038704	-0.000023
C24	C	0.993610	-0.131657	-0.000031
C25	C	0.987608	-0.469394	-0.000021
C26	C	1.080393	-0.446079	0.000376
C27	C	1.082179	-0.349426	-0.000031
C28	C	0.990586	-0.301839	-0.000026
C29	C	0.949709	-0.336461	-0.102035
C30	C	0.948596	-0.433256	-0.102116
C31	C	0.935704	-0.422097	0.101033
C32	C	0.939070	-0.325533	0.102378
C33	C	0.992264	-0.207143	-0.000032
C34	C	0.985927	-0.564089	-0.000022
C35	C	1.142185	0.108239	-0.000024
C36	C	1.235138	0.109871	-0.000033
C37	C	0.982952	0.267472	-0.000017
C38	C	0.984584	0.360425	-0.000016
N39	N	0.975341	0.128168	0.254206
N40	N	1.002859	0.100594	-0.254244
C41	C	0.963518	0.140026	0.473322
C42	C	1.014679	0.088738	0.526647
C43	C	1.008101	0.095336	0.648571
C44	C	0.970095	0.133429	0.351388
H45	H	0.554203	0.111343	0.177907
C46	C	1.080537	0.022734	0.464622
N47	N	1.130143	-0.026974	0.417899
H48	H	0.395670	0.245198	0.072322
H49	H	0.914780	0.188888	0.519231
H50	H	0.548264	0.239834	-0.073143
H51	H	0.426679	0.006097	0.106700
C52	C	0.843370	-0.440941	0.101978
N53	N	0.773828	-0.455143	0.102685
H54	H	0.569937	0.007810	0.105779
C55	C	0.579775	0.104454	-0.204378
N56	N	0.602833	0.134661	-0.281168
C57	C	0.396148	0.248653	-0.099251
N58	N	0.371673	0.281020	-0.173692
C59	C	0.433771	-0.031354	-0.102019
N60	N	0.419577	-0.100899	-0.102719
H61	H	1.112205	-0.470117	0.073531
C62	C	0.544787	0.262206	0.098952
N63	N	0.559473	0.303436	0.173503
H64	H	0.410514	0.110161	0.178326
H65	H	1.119904	-0.479049	-0.072370
C66	C	0.998794	-0.314940	-0.204599
N67	N	1.035770	-0.298734	-0.281848
H68	H	0.428459	0.085798	-0.178398
C69	C	0.997596	-0.475082	-0.205128
N70	N	1.034509	-0.506581	-0.282715
H71	H	1.114559	-0.326444	0.073092
C72	C	1.136914	-0.329934	-0.098997
N73	N	1.178140	-0.315255	-0.173545
C74	C	0.594173	-0.026425	-0.110746
N75	N	0.628065	-0.094799	-0.117004
H76	H	0.880799	-0.448042	-0.106734
H77	H	0.882513	-0.304785	-0.105824
C78	C	0.969330	-0.454612	0.205489
N79	N	0.994667	-0.479102	0.284160
H80	H	0.871883	-0.292215	0.108542
C81	C	0.979174	-0.294904	0.204332
N82	N	1.009375	-0.271821	0.281122
