data_functionalizedCrystal
_audit_creation_method	'MofGen! by Chris Wilmer'
_symmetry_space_group_name_H-M	'P1'
_symmetry_Int_Tables_number	1
_symmetry_cell_setting	triclinic
loop_
_symmetry_equiv_pos_as_xyz
  x,y,z
_cell_length_a	12.759401
_cell_length_b	21.295417
_cell_length_c	12.759393
_cell_angle_alpha	89.961905
_cell_angle_beta	89.979062
_cell_angle_gamma	90.032032
loop_
_atom_site_label
_atom_site_type_symbol
_atom_site_fract_x
_atom_site_fract_y
_atom_site_fract_z
Zn1	Zn	1.606151	-0.250553	-0.593965
Zn2	Zn	1.605994	-0.355835	-0.418261
Zn3	Zn	1.430450	-0.250587	-0.418300
Zn4	Zn	1.430393	-0.355791	-0.593899
O5	O	1.518247	-0.303192	-0.506106
O6	O	1.753151	-0.264523	-0.570669
O7	O	1.582665	-0.341906	-0.271245
O8	O	1.453846	-0.162493	-0.441646
O9	O	1.753035	-0.341874	-0.441580
O10	O	1.582933	-0.162468	-0.570706
O11	O	1.453694	-0.264581	-0.271274
O12	O	1.283421	-0.264538	-0.441582
O13	O	1.453750	-0.341799	-0.740929
O14	O	1.283380	-0.341831	-0.570594
O15	O	1.582879	-0.264481	-0.740977
O16	O	1.582610	-0.443919	-0.441516
O17	O	1.453597	-0.443886	-0.570556
C18	C	1.245279	-0.303184	-0.506085
C19	C	1.128503	-0.303196	-0.506101
C20	C	1.073647	-0.343504	-0.573172
C21	C	0.963923	-0.343506	-0.573193
C22	C	0.963921	-0.262891	-0.439063
C23	C	1.073643	-0.262886	-0.439048
C24	C	0.814016	-0.366094	-0.697048
C25	C	0.759156	-0.406411	-0.764110
C26	C	0.794726	-0.467844	-0.780044
C27	C	0.885153	-0.488971	-0.728901
C28	C	0.940008	-0.448657	-0.661832
C29	C	0.904440	-0.387215	-0.645918
C30	C	1.223551	-0.240305	-0.315192
C31	C	1.278407	-0.199993	-0.248116
C32	C	1.242840	-0.138559	-0.232171
C33	C	1.152409	-0.117434	-0.283295
C34	C	1.097553	-0.157746	-0.350371
C35	C	1.133128	-0.219179	-0.366317
C36	C	1.518109	-0.466743	-0.506048
C37	C	1.518146	-0.536711	-0.506058
C38	C	1.585383	-0.569574	-0.438936
C39	C	1.585432	-0.635316	-0.438960
C40	C	1.518226	-0.668194	-0.506094
C41	C	1.450985	-0.635323	-0.573230
C42	C	1.450945	-0.569582	-0.573212
N43	N	1.426319	-0.771460	-0.514097
N44	N	1.426360	-0.833912	-0.514108
C45	C	1.518344	-0.866268	-0.506155
N46	N	1.610287	-0.833814	-0.498169
N47	N	1.610245	-0.771357	-0.498153
C48	C	1.518262	-0.739479	-0.506122
C49	C	1.585640	-0.970417	-0.439054
C50	C	1.585691	-1.036160	-0.439085
C51	C	1.451233	-1.036166	-0.573350
C52	C	1.451192	-0.970423	-0.573325
C53	C	1.518393	-0.937553	-0.506171
C54	C	1.792280	-0.303200	-0.506128
C55	C	1.909057	-0.303203	-0.506137
C56	C	1.518325	-0.303131	-0.780140
C57	C	1.518359	-0.303105	-0.896916
C58	C	1.518414	-0.139001	-0.506188
C59	C	1.518485	-0.069033	-0.506222
C60	C	1.585601	-0.262839	-0.951805
C61	C	1.585619	-0.262812	-1.061529
C62	C	1.451149	-0.343322	-1.061466
C63	C	1.451127	-0.343346	-0.951744
C64	C	1.623265	-0.188542	-1.211524
C65	C	1.690524	-0.148282	-1.266417
C66	C	1.793041	-0.138629	-1.230827
C67	C	1.828321	-0.169246	-1.140347
C68	C	1.761068	-0.209511	-1.085460
C69	C	1.658536	-0.219152	-1.121048
C70	C	1.413492	-0.417617	-0.801747
C71	C	1.346243	-0.457885	-0.746858
C72	C	1.243724	-0.467545	-0.782446
C73	C	1.208448	-0.436939	-0.872929
C74	C	1.275697	-0.396670	-0.927818
C75	C	1.378215	-0.387010	-0.892223
C76	C	1.518229	-0.303206	-0.233139
C77	C	1.518399	-0.303055	-0.116363
H78	H	0.919240	-0.230073	-0.384470
N79	N	1.097875	-0.447349	-0.911330
H80	H	1.087194	-0.493352	-0.927324
H81	H	1.046675	-0.433788	-0.855377
H82	H	1.640105	-0.542812	-0.384258
N83	N	1.375944	-0.222779	-0.192974
H84	H	1.437513	-0.195750	-0.214079
H85	H	1.365411	-0.220040	-0.114657
H86	H	1.640449	-1.062916	-0.384429
N87	N	1.657935	-0.670777	-0.366548
H88	H	1.706619	-0.698009	-0.409285
H89	H	1.700431	-0.639942	-0.324014
H90	H	1.252525	-0.290328	-0.328178
N91	N	1.378500	-0.670779	-0.645644
H92	H	1.388724	-0.717413	-0.635468
H93	H	1.303467	-0.659336	-0.629223
H94	H	1.188975	-0.500341	-0.737750
H95	H	1.396192	-0.542825	-0.627872
N96	N	1.658118	-0.934957	-0.366632
H97	H	1.700727	-0.965754	-0.324118
H98	H	1.706697	-0.907629	-0.409431
H99	H	1.023924	-0.140539	-0.392006
H100	H	1.118311	-0.376325	-0.627773
N101	N	0.923505	-0.555238	-0.746069
H102	H	0.875033	-0.577571	-0.796315
H103	H	0.996613	-0.554086	-0.776379
H104	H	1.396517	-1.062934	-0.628017
H105	H	1.396437	-0.943665	-0.627977
N106	N	1.114039	-0.051174	-0.266096
H107	H	1.112948	-0.028000	-0.335177
H108	H	1.040966	-0.052340	-0.235702
N109	N	0.661629	-0.383622	-0.819266
H110	H	0.679645	-0.346428	-0.865018
H111	H	0.632314	-0.418523	-0.864105
H112	H	1.013631	-0.465858	-0.620192
H113	H	1.287509	-0.105740	-0.177544
H114	H	1.640343	-0.230071	-0.907168
N115	N	0.735555	-0.511332	-0.852366
H116	H	0.672874	-0.488628	-0.882342
H117	H	0.783154	-0.525107	-0.911275
N118	N	1.799104	-0.242534	-0.987880
H119	H	1.874259	-0.230314	-0.973663
H120	H	1.753914	-0.229927	-0.926400
H121	H	1.911804	-0.161387	-1.111383
H122	H	1.847803	-0.105848	-1.275529
H123	H	1.396414	-0.376086	-1.106120
N124	N	1.384290	-0.490905	-0.649272
H125	H	1.459440	-0.478674	-0.635050
H126	H	1.339092	-0.478307	-0.587793
N127	N	0.775652	-0.299832	-0.679863
H128	H	0.774561	-0.276664	-0.748950
H129	H	0.702578	-0.300996	-0.649470
N130	N	1.652478	-0.115250	-1.363992
H131	H	1.697591	-0.127842	-1.425541
H132	H	1.577311	-0.127476	-1.378113
N133	N	1.237656	-0.363659	-1.025414
H134	H	1.162505	-0.375887	-1.039634
H135	H	1.242261	-0.316731	-1.014973
N136	N	1.524067	-0.407192	-0.763357
H137	H	1.562787	-0.448540	-0.762210
H138	H	1.561222	-0.377014	-0.811882
H139	H	1.539785	-0.196393	-1.240504
