data_functionalizedCrystal
_audit_creation_method	'MofGen! by Chris Wilmer'
_symmetry_space_group_name_H-M	'P1'
_symmetry_Int_Tables_number	1
_symmetry_cell_setting	triclinic
loop_
_symmetry_equiv_pos_as_xyz
  x,y,z
_cell_length_a	14.044191
_cell_length_b	14.044220
_cell_length_c	12.503552
_cell_angle_alpha	93.839943
_cell_angle_beta	86.157523
_cell_angle_gamma	93.190327
loop_
_atom_site_label
_atom_site_type_symbol
_atom_site_fract_x
_atom_site_fract_y
_atom_site_fract_z
O1	O	1.282215	0.225150	-0.089273
O2	O	1.005543	0.216836	-0.089287
O3	O	1.139726	0.082658	-0.089270
O4	O	1.148032	0.359328	-0.089291
O5	O	1.129622	0.092758	0.089372
O6	O	0.995440	0.226936	0.089354
O7	O	1.272112	0.235250	0.089368
Cu8	Cu	1.132853	0.232015	0.105672
Cu9	Cu	1.144802	0.220071	-0.105591
O10	O	1.137929	0.369428	0.089351
C11	C	0.964870	0.218250	0.000032
C12	C	0.858727	0.207402	0.000027
C13	C	0.613268	0.264503	0.000034
C14	C	0.664393	0.187587	0.000038
C15	C	0.772531	0.198615	0.000032
C16	C	0.505121	0.253477	0.000040
C17	C	1.131038	0.052086	0.000051
C18	C	1.120194	-0.054057	0.000052
C19	C	1.100368	-0.248396	0.000036
C20	C	1.177283	-0.299524	0.000036
C21	C	1.166252	-0.407661	0.000027
C22	C	1.111398	-0.140249	0.000045
C23	C	1.312785	0.233836	0.000046
C24	C	1.418929	0.244683	0.000044
C25	C	1.146617	0.400000	0.000027
C26	C	1.157462	0.506143	0.000020
N27	N	1.124457	0.240416	0.254264
N28	N	1.153205	0.211663	-0.254183
C29	C	1.165552	0.199302	0.526702
C30	C	1.112113	0.252774	0.473372
C31	C	1.118983	0.245896	0.351449
C32	C	1.158683	0.206179	0.648636
H33	H	0.650710	0.338629	0.000025
H34	H	1.216460	0.148362	0.480799
H35	H	1.251420	-0.262087	-0.000032
O36	O	1.011999	-0.293203	0.000083
C37	C	1.020522	-0.392762	0.000052
H38	H	1.091175	-0.407811	0.033865
H39	H	0.958843	-0.425262	0.051919
H40	H	1.018437	-0.425719	-0.085652
H41	H	0.626954	0.113450	-0.000032
H42	H	1.061203	0.303719	0.519281
