data_functionalizedCrystal
_audit_creation_method	'MofGen! by Chris Wilmer'
_symmetry_space_group_name_H-M	'P1'
_symmetry_Int_Tables_number	1
_symmetry_cell_setting	triclinic
loop_
_symmetry_equiv_pos_as_xyz
  x,y,z
_cell_length_a	19.805407
_cell_length_b	18.101397
_cell_length_c	19.805399
_cell_angle_alpha	89.970675
_cell_angle_beta	89.980427
_cell_angle_gamma	90.020466
loop_
_atom_site_label
_atom_site_type_symbol
_atom_site_fract_x
_atom_site_fract_y
_atom_site_fract_z
Zn1	Zn	1.034764	-0.294847	-0.382711
Zn2	Zn	1.368097	0.038487	-0.049378
Zn3	Zn	1.701430	0.371820	0.283955
Zn4	Zn	1.034690	-0.418690	-0.269520
Zn5	Zn	1.368024	-0.085357	0.063814
Zn6	Zn	1.701357	0.247976	0.397147
Zn7	Zn	0.921578	-0.294867	-0.269536
Zn8	Zn	1.254912	0.038466	0.063797
Zn9	Zn	1.588245	0.371800	0.397131
Zn10	Zn	0.921554	-0.418651	-0.382667
Zn11	Zn	1.254887	-0.085318	-0.049333
Zn12	Zn	1.588220	0.248016	0.284000
O13	O	0.978146	-0.356764	-0.326108
O14	O	1.311480	-0.023430	0.007225
O15	O	1.644813	0.309903	0.340558
O16	O	1.129470	-0.311283	-0.367708
O17	O	1.462804	0.022051	-0.034375
O18	O	1.796137	0.355384	0.298958
O19	O	1.019665	-0.402290	-0.174805
O20	O	1.352999	-0.068957	0.158528
O21	O	1.686332	0.264377	0.491861
O22	O	0.936634	-0.191232	-0.284575
O23	O	1.269967	0.142102	0.048759
O24	O	1.603300	0.475435	0.382092
O25	O	1.129417	-0.402270	-0.284547
O26	O	1.462750	-0.068937	0.048786
O27	O	1.796083	0.264397	0.382120
O28	O	1.019790	-0.191217	-0.367724
O29	O	1.353124	0.142117	-0.034391
O30	O	1.686457	0.475450	0.298943
O31	O	0.936562	-0.311318	-0.174817
O32	O	1.269896	0.022016	0.158516
O33	O	1.603229	0.355349	0.491849
O34	O	0.826858	-0.311279	-0.284531
O35	O	1.160192	0.022054	0.048802
O36	O	1.493525	0.355387	0.382136
O37	O	0.936591	-0.402203	-0.477389
O38	O	1.269925	-0.068870	-0.144056
O39	O	1.603258	0.264464	0.189278
O40	O	0.826840	-0.402223	-0.367648
O41	O	1.160174	-0.068890	-0.034314
O42	O	1.493507	0.264444	0.299019
O43	O	1.019766	-0.311245	-0.477422
O44	O	1.353100	0.022089	-0.144089
O45	O	1.686433	0.355422	0.189245
O46	O	1.019641	-0.522318	-0.284503
O47	O	1.352975	-0.188985	0.048830
O48	O	1.686308	0.144349	0.382163
O49	O	0.936520	-0.522289	-0.367632
O50	O	1.269854	-0.188956	-0.034298
O51	O	1.603187	0.144378	0.299035
C52	C	0.802290	-0.356750	-0.326087
C53	C	1.135624	-0.023416	0.007247
C54	C	1.468957	0.309917	0.340580
C55	C	0.727058	-0.356761	-0.326093
C56	C	1.060392	-0.023428	0.007240
C57	C	1.393725	0.309905	0.340573
C58	C	0.691722	-0.404187	-0.369302
C59	C	1.025056	-0.070854	-0.035969
C60	C	1.358389	0.262480	0.297365
C61	C	0.621034	-0.404188	-0.369311
C62	C	0.954367	-0.070855	-0.035978
C63	C	1.287701	0.262478	0.297355
C64	C	0.585683	-0.356767	-0.326108
C65	C	0.919016	-0.023434	0.007225
C66	C	1.252349	0.309899	0.340558
C67	C	0.621024	-0.309336	-0.282898
C68	C	0.954357	0.023997	0.050435
C69	C	1.287690	0.357330	0.383769
C70	C	0.691711	-0.309332	-0.282892
C71	C	1.025044	0.024001	0.050441
C72	C	1.358377	0.357335	0.383774
C73	C	0.335950	-0.309353	-0.282920
C74	C	0.669284	0.023981	0.050413
C75	C	1.002617	0.357314	0.383746
C76	C	0.265258	-0.309362	-0.282928
C77	C	0.598592	0.023971	0.050406
C78	C	0.931925	0.357304	0.383739
C79	C	0.265274	-0.404209	-0.369339
C80	C	0.598607	-0.070876	-0.036006
C81	C	0.931940	0.262458	0.297327
C82	C	0.335961	-0.404205	-0.369334
C83	C	0.669294	-0.070871	-0.036001
C84	C	1.002627	0.262462	0.297333
C85	C	0.371295	-0.356771	-0.326126
C86	C	0.704629	-0.023438	0.007207
C87	C	1.037962	0.309895	0.340541
C88	C	0.447944	-0.356770	-0.326117
C89	C	0.781277	-0.023436	0.007216
C90	C	1.114611	0.309897	0.340549
C91	C	0.509036	-0.356772	-0.326113
C92	C	0.842369	-0.023439	0.007220
C93	C	1.175702	0.309894	0.340553
C94	C	0.978088	-0.549174	-0.326076
C95	C	1.311422	-0.215841	0.007258
C96	C	1.644755	0.117492	0.340591
C97	C	0.978126	-0.631488	-0.326084
C98	C	1.311459	-0.298155	0.007249
C99	C	1.644792	0.035178	0.340582
C100	C	0.978212	-0.930579	-0.326146
C101	C	1.311545	-0.597246	0.007187
C102	C	1.644879	-0.263913	0.340521
C103	C	1.030364	-0.899242	-0.273704
C104	C	1.363697	-0.565908	0.059630
C105	C	1.697030	-0.232575	0.392963
C106	C	1.030544	-0.813623	-0.273840
C107	C	1.363878	-0.480290	0.059494
C108	C	1.697211	-0.146956	0.392827
C109	C	0.978169	-0.782197	-0.326115
C110	C	1.311503	-0.448864	0.007219
C111	C	1.644836	-0.115530	0.340552
C112	C	0.997504	-0.813206	-0.397460
C113	C	1.330838	-0.479872	-0.064126
C114	C	1.664171	-0.146539	0.269207
C115	C	0.997908	-0.898851	-0.397174
C116	C	1.331241	-0.565517	-0.063841
C117	C	1.664575	-0.232184	0.269493
C118	C	0.906586	-0.899088	-0.307861
C119	C	1.239919	-0.565755	0.025472
C120	C	1.573253	-0.232421	0.358806
C121	C	0.906940	-0.813438	-0.306268
C122	C	1.240273	-0.480105	0.027065
C123	C	1.573606	-0.146772	0.360398
C124	C	0.978144	-0.698337	-0.326101
C125	C	1.311477	-0.365004	0.007232
C126	C	1.644811	-0.031671	0.340565
C127	C	0.978239	-1.014439	-0.326164
C128	C	1.311572	-0.681105	0.007169
C129	C	1.644906	-0.347772	0.340503
C130	C	1.154689	-0.356779	-0.326131
C131	C	1.488022	-0.023445	0.007203
C132	C	1.821356	0.309888	0.340536
C133	C	1.229921	-0.356785	-0.326140
C134	C	1.563254	-0.023452	0.007193
C135	C	1.896588	0.309882	0.340526
C136	C	0.978184	-0.356717	-0.502651
C137	C	1.311518	-0.023384	-0.169318
C138	C	1.644851	0.309950	0.164015
C139	C	0.978201	-0.356697	-0.577883
C140	C	1.311534	-0.023364	-0.244550
C141	C	1.644867	0.309969	0.088783
C142	C	0.978223	-0.163602	-0.326156
C143	C	1.311556	0.169731	0.007177
C144	C	1.644890	0.503065	0.340510
C145	C	0.978256	-0.081288	-0.326177
C146	C	1.311589	0.252046	0.007157
C147	C	1.644922	0.585379	0.340490
C148	C	1.021511	-0.309333	-0.613246
C149	C	1.354844	0.024000	-0.279912
C150	C	1.688177	0.357334	0.053421
C151	C	1.021518	-0.309311	-0.683934
C152	C	1.354851	0.024022	-0.350601
C153	C	1.688184	0.357355	-0.017268
C154	C	0.978217	-0.356659	-0.719259
C155	C	1.311551	-0.023325	-0.385926
C156	C	1.644884	0.310008	-0.052592
C157	C	0.934902	-0.404025	-0.683892
C158	C	1.268236	-0.070692	-0.350558
C159	C	1.601569	0.262642	-0.017225
C160	C	0.934893	-0.404042	-0.613204
C161	C	1.268226	-0.070709	-0.279871
C162	C	1.601559	0.262624	0.053462
C163	C	0.934941	-0.403956	-0.968965
C164	C	1.268274	-0.070623	-0.635632
C165	C	1.601607	0.262711	-0.302298
C166	C	0.934955	-0.403937	-1.039657
C167	C	1.268289	-0.070603	-0.706324
C168	C	1.601622	0.262730	-0.372990
C169	C	1.021566	-0.309225	-1.039695
C170	C	1.354899	0.024108	-0.706361
C171	C	1.688232	0.357442	-0.373028
C172	C	1.021556	-0.309242	-0.969008
C173	C	1.354889	0.024091	-0.635674
C174	C	1.688223	0.357424	-0.302341
C175	C	0.978239	-0.356606	-0.933646
C176	C	1.311572	-0.023272	-0.600313
C177	C	1.644905	0.310061	-0.266980
C178	C	0.978231	-0.356627	-0.856998
C179	C	1.311564	-0.023294	-0.523665
C180	C	1.644897	0.310039	-0.190331
C181	C	0.978228	-0.356641	-0.795906
C182	C	1.311562	-0.023308	-0.462573
C183	C	1.644895	0.310026	-0.129239
C184	C	0.978148	-0.356757	-0.150252
C185	C	1.311481	-0.023423	0.183081
C186	C	1.644814	0.309910	0.516414
C187	C	0.978263	-0.356568	-0.075021
C188	C	1.311596	-0.023235	0.258312
C189	C	1.644929	0.310099	0.591646
H190	H	0.364740	-0.442822	-0.404512
H191	H	0.698074	-0.109489	-0.071179
H192	H	1.031407	0.223844	0.262155
H193	H	0.899644	-0.442573	-0.712659
H194	H	1.232977	-0.109240	-0.379325
H195	H	1.566311	0.224093	-0.045992
C196	C	1.069139	-0.257247	-0.574395
C197	C	1.402472	0.076087	-0.241061
C198	C	1.735805	0.409420	0.092272
H199	H	1.094928	-0.229030	-0.605582
H200	H	1.428261	0.104304	-0.272249
H201	H	1.761594	0.437637	0.061085
H202	H	1.098616	-0.285579	-0.546816
H203	H	1.431950	0.047754	-0.213482
H204	H	1.765283	0.381087	0.119851
H205	H	1.043248	-0.224982	-0.546826
H206	H	1.376582	0.108351	-0.213493
H207	H	1.709915	0.441685	0.119841
H208	H	0.592235	-0.270722	-0.247724
H209	H	0.925568	0.062611	0.085609
H210	H	1.258902	0.395944	0.418943
H211	H	0.720480	-0.270709	-0.247711
H212	H	1.053814	0.062624	0.085623
H213	H	1.387147	0.395957	0.418956
C214	C	0.854089	-0.926467	-0.359452
C215	C	1.187422	-0.593134	-0.026119
C216	C	1.520756	-0.259800	0.307214
H217	H	0.810913	-0.907252	-0.348142
H218	H	1.144246	-0.573918	-0.014809
H219	H	1.477579	-0.240585	0.318524
H220	H	0.852529	-0.978912	-0.358707
H221	H	1.185863	-0.645579	-0.025374
H222	H	1.519196	-0.312245	0.307959
H223	H	0.866439	-0.910116	-0.403340
H224	H	1.199772	-0.576783	-0.070007
H225	H	1.533106	-0.243449	0.263326
H226	H	0.364711	-0.270735	-0.247733
H227	H	0.698045	0.062598	0.085601
H228	H	1.031378	0.395931	0.418934
H229	H	1.018448	-0.792660	-0.220938
H230	H	1.351781	-0.459327	0.112395
H231	H	1.685114	-0.125993	0.445728
H232	H	1.049274	-0.791699	-0.413210
H233	H	1.382607	-0.458365	-0.079877
H234	H	1.715940	-0.125032	0.253457
H235	H	0.236477	-0.270742	-0.247747
H236	H	0.569811	0.062591	0.085587
H237	H	0.903144	0.395925	0.418920
H238	H	0.236496	-0.442829	-0.404524
H239	H	0.569829	-0.109495	-0.071191
H240	H	0.903162	0.223838	0.262143
C241	C	1.069175	-0.257230	-0.722833
C242	C	1.402508	0.076103	-0.389500
C243	C	1.735841	0.409436	-0.056167
H244	H	1.062979	-0.263999	-0.769991
H245	H	1.396313	0.069335	-0.436658
H246	H	1.729646	0.402668	-0.103324
H247	H	1.114640	-0.268093	-0.711248
H248	H	1.447973	0.065240	-0.377915
H249	H	1.781307	0.398573	-0.044582
H250	H	1.059300	-0.207466	-0.711265
H251	H	1.392633	0.125867	-0.377932
H252	H	1.725966	0.459201	-0.044599
H253	H	1.018413	-0.919883	-0.220644
H254	H	1.351747	-0.586550	0.112689
H255	H	1.685080	-0.253217	0.446023
H256	H	1.083130	-0.920710	-0.285663
H257	H	1.416464	-0.587377	0.047670
H258	H	1.749797	-0.254043	0.381004
H259	H	1.056818	-0.270690	-0.940250
H260	H	1.390151	0.062643	-0.606916
H261	H	1.723484	0.395977	-0.273583
C262	C	1.102216	-0.785865	-0.290187
C263	C	1.435550	-0.452532	0.043146
C264	C	1.768883	-0.119199	0.376479
H265	H	1.131334	-0.826933	-0.296778
H266	H	1.464667	-0.493599	0.036555
H267	H	1.798001	-0.160266	0.369889
H268	H	1.118450	-0.756741	-0.253756
H269	H	1.451783	-0.423407	0.079578
H270	H	1.785117	-0.090074	0.412911
H271	H	1.101083	-0.756807	-0.330127
H272	H	1.434417	-0.423473	0.003206
H273	H	1.767750	-0.090140	0.336539
H274	H	1.050263	-0.918770	-0.412663
H275	H	1.383597	-0.585437	-0.079329
H276	H	1.716930	-0.252103	0.254004
C277	C	0.948833	-0.926856	-0.451765
C278	C	1.282166	-0.593523	-0.118432
C279	C	1.615499	-0.260190	0.214902
H280	H	0.928741	-0.885889	-0.474022
H281	H	1.262075	-0.552556	-0.140689
H282	H	1.595408	-0.219222	0.192645
H283	H	0.914626	-0.956064	-0.431283
H284	H	1.247960	-0.622730	-0.097950
H285	H	1.581293	-0.289397	0.235383
H286	H	0.972865	-0.955884	-0.483681
H287	H	1.306198	-0.622550	-0.150348
H288	H	1.639532	-0.289217	0.182985
C289	C	0.947767	-0.785701	-0.451668
C290	C	1.281100	-0.452368	-0.118335
C291	C	1.614433	-0.119035	0.214999
H292	H	0.914690	-0.754986	-0.431222
H293	H	1.248023	-0.421653	-0.097889
H294	H	1.581356	-0.088319	0.235444
H295	H	0.926280	-0.826823	-0.472301
H296	H	1.259613	-0.493490	-0.138968
H297	H	1.592946	-0.160156	0.194365
H298	H	0.971648	-0.758311	-0.484919
H299	H	1.304981	-0.424978	-0.151586
H300	H	1.638315	-0.091644	0.181748
H301	H	1.056834	-0.270657	-1.068494
H302	H	1.390168	0.062676	-0.735161
H303	H	1.723501	0.396010	-0.401828
C304	C	0.882825	-0.928338	-0.238796
C305	C	1.216158	-0.595005	0.094537
C306	C	1.549491	-0.261672	0.427870
H307	H	0.916370	-0.960033	-0.220465
H308	H	1.249703	-0.626699	0.112868
H309	H	1.583036	-0.293366	0.446201
H310	H	0.841897	-0.955044	-0.244283
H311	H	1.175231	-0.621710	0.089050
H312	H	1.508564	-0.288377	0.422384
H313	H	0.875565	-0.887979	-0.209025
H314	H	1.208899	-0.554646	0.124308
H315	H	1.542232	-0.221312	0.457641
C316	C	0.887237	-0.786065	-0.235344
C317	C	1.220570	-0.452732	0.097989
C318	C	1.553904	-0.119398	0.431322
H319	H	0.922268	-0.755720	-0.217897
H320	H	1.255601	-0.422386	0.115437
H321	H	1.588934	-0.089053	0.448770
H322	H	0.880669	-0.827253	-0.206333
H323	H	1.214002	-0.493920	0.127000
H324	H	1.547336	-0.160587	0.460333
H325	H	0.846623	-0.758316	-0.238052
H326	H	1.179956	-0.424983	0.095281
H327	H	1.513289	-0.091650	0.428615
C328	C	0.851621	-0.784552	-0.354087
C329	C	1.184954	-0.451219	-0.020753
C330	C	1.518288	-0.117886	0.312580
H331	H	0.871331	-0.752924	-0.386931
H332	H	1.204664	-0.419591	-0.053597
H333	H	1.537997	-0.086258	0.279736
H334	H	0.818965	-0.757851	-0.328831
H335	H	1.152298	-0.424518	0.004503
H336	H	1.485632	-0.091185	0.337836
H337	H	0.830448	-0.825066	-0.376015
H338	H	1.163781	-0.491733	-0.042681
H339	H	1.497115	-0.158400	0.290652
C340	C	0.887318	-0.456016	-1.078513
C341	C	1.220651	-0.122682	-0.745180
C342	C	1.553984	0.210651	-0.411847
H343	H	0.861513	-0.484221	-1.047330
H344	H	1.194846	-0.150888	-0.713997
H345	H	1.528180	0.182446	-0.380663
H346	H	0.913198	-0.488281	-1.106085
H347	H	1.246531	-0.154947	-0.772752
H348	H	1.579865	0.178386	-0.439419
H349	H	0.857845	-0.427667	-1.106090
H350	H	1.191178	-0.094334	-0.772756
H351	H	1.524511	0.239000	-0.439423
H352	H	0.899679	-0.442533	-0.940182
H353	H	1.233012	-0.109200	-0.606849
H354	H	1.566346	0.224134	-0.273516
H355	H	0.899618	-0.442604	-0.584413
H356	H	1.232951	-0.109270	-0.251080
H357	H	1.566285	0.224063	0.082254
H358	H	0.592267	-0.442808	-0.404496
H359	H	0.925600	-0.109474	-0.071162
H360	H	1.258933	0.223859	0.262171
C361	C	0.730603	-0.456350	-0.416827
C362	C	1.063936	-0.123016	-0.083494
C363	C	1.397269	0.210317	0.249840
H364	H	0.699431	-0.484589	-0.442566
H365	H	1.032765	-0.151256	-0.109233
H366	H	1.366098	0.182077	0.224100
H367	H	0.758159	-0.488579	-0.390882
H368	H	1.091493	-0.155246	-0.057549
H369	H	1.424826	0.178087	0.275784
H370	H	0.758196	-0.428055	-0.446366
H371	H	1.091529	-0.094722	-0.113032
H372	H	1.424863	0.238611	0.220301
