data_functionalizedCrystal
_audit_creation_method	'MofGen! by Chris Wilmer'
_symmetry_space_group_name_H-M	'P1'
_symmetry_Int_Tables_number	1
_symmetry_cell_setting	triclinic
loop_
_symmetry_equiv_pos_as_xyz
  x,y,z
_cell_length_a	9.065215
_cell_length_b	26.809956
_cell_length_c	9.065218
_cell_angle_alpha	90.002543
_cell_angle_beta	85.015291
_cell_angle_gamma	90.015535
loop_
_atom_site_label
_atom_site_type_symbol
_atom_site_fract_x
_atom_site_fract_y
_atom_site_fract_z
O1	O	1.960429	0.041472	0.216334
O2	O	1.531144	0.041474	0.234084
O3	O	1.754660	0.041472	0.010566
O4	O	1.736913	0.041474	0.439851
O5	O	1.754590	-0.041488	0.010565
O6	O	1.531074	-0.041486	0.234083
O7	O	1.960359	-0.041488	0.216332
Zn8	Zn	1.745705	-0.054658	0.225207
Zn9	Zn	1.745797	0.054644	0.225209
O10	O	1.736843	-0.041486	0.439850
C11	C	1.476122	-0.000006	0.232379
C12	C	1.312279	-0.000005	0.227281
N13	N	1.745653	-0.129254	0.225205
C14	C	1.836462	-0.473880	0.315933
C15	C	1.836510	-0.682758	0.315933
O16	O	1.913679	-0.709762	0.393056
N17	N	1.745832	-0.708881	0.225195
C18	C	1.655144	-0.682782	0.134443
O19	O	1.578030	-0.709794	0.057254
C20	C	1.655105	-0.473905	0.134437
C21	C	1.745777	-0.447785	0.225192
C22	C	1.927128	-0.447760	0.406679
C23	C	1.927109	-0.395543	0.406685
C24	C	1.836424	-0.369448	0.315943
C25	C	1.745758	-0.395568	0.225197
C26	C	1.564426	-0.447807	0.043679
C27	C	1.564427	-0.395584	0.043682
C28	C	1.655099	-0.369464	0.134437
C29	C	1.655055	-0.317256	0.134461
N30	N	1.745732	-0.291133	0.225199
C31	C	1.836417	-0.317229	0.315940
C32	C	1.655169	-0.792445	0.134455
C33	C	1.655176	-0.844664	0.134458
C34	C	1.836544	-0.844637	0.315946
C35	C	1.836528	-0.792417	0.315950
C36	C	1.745846	-0.766322	0.225193
C37	C	1.836370	-0.207571	0.315945
C38	C	1.836338	-0.155350	0.315947
C39	C	1.654977	-0.155382	0.134454
C40	C	1.655002	-0.207598	0.134457
C41	C	1.745710	-0.233691	0.225207
O42	O	1.577939	-0.290220	0.057366
O43	O	1.913544	-0.290207	0.393094
C44	C	1.836481	-0.526097	0.315928
C45	C	1.745815	-0.552217	0.225182
C46	C	1.655130	-0.526122	0.134440
C47	C	1.745822	-0.604436	0.225185
C48	C	1.836507	-0.630532	0.315926
C49	C	1.927184	-0.604409	0.406664
C50	C	1.927165	-0.552192	0.406669
C51	C	1.564453	-0.552245	0.043703
C52	C	1.564478	-0.604461	0.043706
C53	C	1.655163	-0.630557	0.134447
C54	C	2.015381	-0.000007	0.218038
C55	C	2.179224	-0.000005	0.223136
C56	C	1.752919	-0.000007	-0.044421
C57	C	1.747819	-0.000005	-0.208264
N58	N	1.745861	0.129240	0.225200
C59	C	1.738584	-0.000006	0.494837
C60	C	1.743683	-0.000005	0.658680
H61	H	1.910174	-0.134085	0.389857
H62	H	1.490582	-0.374341	-0.030225
C63	C	1.936139	-0.236266	0.415789
N64	N	2.011275	-0.257878	0.491002
H65	H	1.581151	-0.228867	0.060576
C66	C	1.936307	-0.873351	0.415754
N67	N	2.011453	-0.894982	0.490915
H68	H	1.581325	-0.865927	0.060574
C69	C	1.936284	-0.763689	0.415775
N70	N	2.011429	-0.742054	0.490964
H71	H	2.001016	-0.625665	0.480556
H72	H	2.000950	-0.374281	0.480580
H73	H	2.000982	-0.469001	0.480572
C74	C	1.464720	-0.633188	-0.056134
N75	N	1.389592	-0.654823	-0.131340
C76	C	1.555393	-0.763748	0.034621
N77	N	1.480234	-0.742135	-0.040569
C78	C	1.464677	-0.476528	-0.056161
N79	N	1.389541	-0.498160	-0.131367
H80	H	2.001000	-0.530929	0.480571
C81	C	1.555464	-0.126667	0.034408
N82	N	1.480603	-0.105037	-0.041039
H83	H	1.490608	-0.531003	-0.030194
