data_functionalizedCrystal
_audit_creation_method	'MofGen! by Chris Wilmer'
_symmetry_space_group_name_H-M	'P1'
_symmetry_Int_Tables_number	1
_symmetry_cell_setting	triclinic
loop_
_symmetry_equiv_pos_as_xyz
  x,y,z
_cell_length_a	16.109301
_cell_length_b	10.489741
_cell_length_c	15.186229
_cell_angle_alpha	89.996534
_cell_angle_beta	89.999362
_cell_angle_gamma	84.000327
loop_
_atom_site_label
_atom_site_type_symbol
_atom_site_fract_x
_atom_site_fract_y
_atom_site_fract_z
O1	O	1.104141	0.163947	-0.073172
O2	O	0.862205	0.184350	-0.073186
O3	O	0.988678	-0.011529	-0.073174
O4	O	0.977668	0.359826	-0.073185
O5	O	0.988670	-0.011532	0.073284
O6	O	0.862196	0.184347	0.073271
O7	O	1.104133	0.163944	0.073285
Zn8	Zn	0.983163	0.174145	0.096531
Zn9	Zn	0.983174	0.174149	-0.096433
O10	O	0.977659	0.359823	0.073272
C11	C	0.831221	0.183522	0.000041
C12	C	0.738910	0.181044	0.000035
C13	C	0.517319	0.291514	0.000042
C14	C	0.430584	0.289175	0.000048
C15	C	0.449026	0.056771	0.000051
C16	C	0.535759	0.059111	0.000052
C17	C	0.569903	0.176486	0.000043
C18	C	0.396435	0.171808	0.000048
C19	C	0.302393	0.169272	0.000054
C20	C	0.663950	0.179022	0.000038
C21	C	0.987842	-0.059050	0.000054
C22	C	0.985354	-0.200644	0.000053
C23	C	0.904883	-0.267616	0.000042
C24	C	0.942893	-0.360292	0.072255
C25	C	0.942920	-0.360264	-0.072141
C26	C	1.023397	-0.291454	0.072325
C27	C	1.023413	-0.291417	-0.072135
C28	C	1.061482	-0.384066	0.000096
C29	C	1.135117	0.164772	0.000056
C30	C	1.227427	0.167250	0.000056
C31	C	0.978495	0.407344	0.000042
C32	C	0.980983	0.548938	0.000038
N33	N	0.983162	0.174142	0.228224
N34	N	0.983183	0.174142	-0.228125
C35	C	1.039183	0.087436	0.453952
C36	C	1.039186	0.087433	0.546142
C37	C	0.927155	0.260852	0.546140
C38	C	0.927149	0.260848	0.453952
C39	C	0.983168	0.174141	0.407860
C40	C	0.983176	0.174142	0.592238
C41	C	0.983179	0.174140	0.692194
C42	C	0.983165	0.174142	0.307898
H43	H	0.387773	0.382843	0.000049
O44	O	0.415897	-0.057273	0.000206
C45	C	0.442714	-0.127417	0.076045
H46	H	0.461158	-0.058792	0.129065
H47	H	0.389857	-0.181671	0.101500
H48	H	0.498811	-0.198508	0.058897
H49	H	1.057413	-0.261117	0.133445
H50	H	1.127704	-0.434450	0.000140
H51	H	1.084798	0.016828	0.583667
H52	H	0.881546	0.331449	0.583677
O53	O	0.902183	-0.396457	-0.144950
C54	C	0.819639	-0.336595	-0.144665
H55	H	0.816189	-0.246397	-0.102389
H56	H	0.799875	-0.309691	-0.214893
H57	H	0.776109	-0.405288	-0.116486
H58	H	0.578575	-0.034565	0.000055
O59	O	0.872652	0.344907	0.409132
C60	C	0.820967	0.276573	0.355798
H61	H	0.818959	0.175985	0.383590
H62	H	0.755199	0.328588	0.354747
H63	H	0.846946	0.269888	0.285931
O64	O	0.550625	0.405415	0.000000
C65	C	0.638454	0.382820	0.000020
H66	H	0.658226	0.283278	-0.027707
H67	H	0.665526	0.457925	-0.042501
H68	H	0.662631	0.388988	0.070283
O69	O	1.093623	0.003082	0.409315
C70	C	1.143077	-0.073427	0.469770
H71	H	1.108986	-0.074876	0.535487
H72	H	1.155148	-0.175286	0.443141
H73	H	1.205085	-0.031988	0.479567
H74	H	0.908840	-0.390810	0.133302
H75	H	0.838720	-0.217005	0.000110
O76	O	1.063883	-0.254991	-0.145055
C77	C	1.021258	-0.289673	-0.221046
H78	H	0.953413	-0.299913	-0.203749
H79	H	1.023753	-0.212342	-0.273446
H80	H	1.052140	-0.384807	-0.247392
