data_functionalizedCrystal
_audit_creation_method	'MofGen! by Chris Wilmer'
_symmetry_space_group_name_H-M	'P1'
_symmetry_Int_Tables_number	1
_symmetry_cell_setting	triclinic
loop_
_symmetry_equiv_pos_as_xyz
  x,y,z
_cell_length_a	12.594516
_cell_length_b	17.638785
_cell_length_c	17.640968
_cell_angle_alpha	114.308072
_cell_angle_beta	78.772174
_cell_angle_gamma	101.217217
loop_
_atom_site_label
_atom_site_type_symbol
_atom_site_fract_x
_atom_site_fract_y
_atom_site_fract_z
Zn1	Zn	-0.596922	-1.354134	-0.720276
Zn2	Zn	-0.096922	-0.854134	-0.220276
Zn3	Zn	-0.804823	-1.326190	-0.582465
Zn4	Zn	-0.304823	-0.826190	-0.082465
Zn5	Zn	-0.596867	-1.188460	-0.554669
Zn6	Zn	-0.096867	-0.688460	-0.054669
Zn7	Zn	-0.744853	-1.216299	-0.692426
Zn8	Zn	-0.244853	-0.716299	-0.192426
O9	O	-0.685866	-1.271271	-0.637459
O10	O	-0.185866	-0.771271	-0.137459
O11	O	-0.649622	-1.465751	-0.725283
O12	O	-0.149622	-0.965751	-0.225283
O13	O	-0.802311	-1.284575	-0.463453
O14	O	-0.302311	-0.784575	0.036547
O15	O	-0.447934	-1.210481	-0.576660
O16	O	0.052066	-0.710481	-0.076660
O17	O	-0.802365	-1.445221	-0.624034
O18	O	-0.302365	-0.945221	-0.124034
O19	O	-0.447975	-1.332201	-0.698330
O20	O	0.052025	-0.832201	-0.198330
O21	O	-0.649527	-1.183386	-0.443031
O22	O	-0.149527	-0.683386	0.056969
O23	O	-0.591376	-1.076829	-0.549655
O24	O	-0.091376	-0.576829	-0.049655
O25	O	-0.700155	-1.257928	-0.811446
O26	O	-0.200155	-0.757928	-0.311446
O27	O	-0.700101	-1.097281	-0.650864
O28	O	-0.200101	-0.597281	-0.150864
O29	O	-0.591471	-1.359194	-0.831907
O30	O	-0.091471	-0.859194	-0.331907
O31	O	-0.945808	-1.311569	-0.597030
O32	O	-0.445808	-0.811569	-0.097030
O33	O	-0.901748	-1.230832	-0.677817
O34	O	-0.401748	-0.730832	-0.177817
C35	C	-0.639226	-1.057153	-0.594222
C36	C	-0.139226	-0.557153	-0.094222
C37	C	-0.619294	-0.965556	-0.575744
C38	C	-0.119294	-0.465556	-0.075744
C39	C	-0.837431	-0.717576	-0.778031
C40	C	-0.337431	-0.217576	-0.278031
C41	C	-0.818697	-0.631503	-0.760648
C42	C	-0.318697	-0.131503	-0.260648
C43	C	-0.705235	-0.610205	-0.655422
C44	C	-0.205235	-0.110205	-0.155422
C45	C	-0.723964	-0.696277	-0.672794
C46	C	-0.223964	-0.196277	-0.172794
C47	C	-0.790061	-0.749956	-0.734100
C48	C	-0.290061	-0.249956	-0.234100
C49	C	-0.676594	-0.728658	-0.628862
C50	C	-0.176594	-0.228658	-0.128862
C51	C	-0.695317	-0.814723	-0.646235
C52	C	-0.195317	-0.314723	-0.146235
C53	C	-0.761409	-0.868408	-0.707540
C54	C	-0.261409	-0.368408	-0.207540
C55	C	-0.808784	-0.836022	-0.751473
C56	C	-0.308784	-0.336022	-0.251473
C57	C	-0.610491	-0.674978	-0.567560
C58	C	-0.110491	-0.174978	-0.067560
C59	C	-0.563121	-0.707359	-0.523629
C60	C	-0.063121	-0.207359	-0.023629
C61	C	-0.581849	-0.793425	-0.540998
C62	C	-0.081849	-0.293425	-0.040998
C63	C	-0.647941	-0.847110	-0.602303
C64	C	-0.147941	-0.347110	-0.102303
C65	C	-0.534474	-0.825811	-0.497065
C66	C	-0.034474	-0.325811	0.002935
C67	C	-0.553197	-0.911877	-0.514438
C68	C	-0.053197	-0.411877	-0.014438
C69	C	-0.666664	-0.933175	-0.619676
C70	C	-0.166664	-0.433175	-0.119676
C71	C	-0.962397	-1.271215	-0.637440
C72	C	-0.462397	-0.771215	-0.137440
C73	C	-1.080709	-1.271272	-0.637475
C74	C	-0.580709	-0.771272	-0.137475
C75	C	-1.126044	-1.227347	-0.681375
C76	C	-0.626044	-0.727347	-0.181375
C77	C	-1.208858	-1.192064	-0.602126
C78	C	-0.708858	-0.692064	-0.102126
C79	C	-1.208706	-1.306632	-0.716752
C80	C	-0.708706	-0.806632	-0.216752
C81	C	-1.161965	-1.235942	-0.558178
C82	C	-0.661965	-0.735942	-0.058178
C83	C	-1.161804	-1.350555	-0.672861
C84	C	-0.661804	-0.850555	-0.172861
C85	C	-1.244604	-1.315291	-0.593566
C86	C	-0.744604	-0.815291	-0.093566
C87	C	-0.408256	-1.271353	-0.637501
C88	C	0.091744	-0.771353	-0.137501
C89	C	-0.289956	-1.271388	-0.637518
C90	C	0.210044	-0.771388	-0.137518
C91	C	-0.639130	-1.314784	-0.852415
C92	C	-0.139130	-0.814784	-0.352415
C93	C	-0.619214	-1.333326	-0.944017
C94	C	-0.119214	-0.833326	-0.444017
C95	C	-0.732681	-0.486225	-0.680864
C96	C	-0.232681	0.013775	-0.180864
C97	C	-0.752610	-0.577824	-0.699358
C98	C	-0.252610	-0.077824	-0.199358
C99	C	-0.836657	-1.130721	-1.192024
C100	C	-0.336657	-0.630721	-0.692024
C101	C	-0.817933	-1.148162	-1.278101
C102	C	-0.317933	-0.648162	-0.778101
C103	C	-0.704770	-1.253602	-1.299395
C104	C	-0.204770	-0.753602	-0.799395
C105	C	-0.723481	-1.236167	-1.213318
C106	C	-0.223481	-0.736167	-0.713318
C107	C	-0.789426	-1.174727	-1.159639
C108	C	-0.289426	-0.674727	-0.659639
C109	C	-0.676249	-1.280172	-1.180932
C110	C	-0.176249	-0.780172	-0.680932
C111	C	-0.694963	-1.262742	-1.094862
C112	C	-0.194963	-0.762742	-0.594862
C113	C	-0.760908	-1.201306	-1.041179
C114	C	-0.260908	-0.701306	-0.541179
C115	C	-0.808140	-1.157296	-1.073569
C116	C	-0.308140	-0.657296	-0.573569
C117	C	-0.610310	-1.341617	-1.234613
C118	C	-0.110310	-0.841617	-0.734613
C119	C	-0.563079	-1.385622	-1.202228
C120	C	-0.063079	-0.885622	-0.702228
C121	C	-0.581786	-1.368188	-1.116156
C122	C	-0.081786	-0.868188	-0.616156
C123	C	-0.647731	-1.306752	-1.062472
C124	C	-0.147731	-0.806752	-0.562472
C125	C	-0.534554	-1.412197	-1.083765
C126	C	-0.034554	-0.912197	-0.583765
C127	C	-0.553268	-1.394767	-0.997696
C128	C	-0.053268	-0.894767	-0.497696
C129	C	-0.666445	-1.289321	-0.976402
C130	C	-0.166445	-0.789321	-0.476402
C131	C	-0.732354	-1.227975	-0.423349
C132	C	-0.232354	-0.727975	0.076651
C133	C	-0.752005	-1.209592	-0.331780
C134	C	-0.252005	-0.709592	0.168220
H135	H	-0.891260	-0.761284	-0.827949
H136	H	-0.391260	-0.261284	-0.327949
H137	H	-0.856400	-1.112323	-1.304465
H138	H	-0.356400	-0.612323	-0.804465
H139	H	-1.229629	-1.336492	-0.783778
H140	H	-0.729629	-0.836492	-0.283778
H141	H	-0.651415	-0.566488	-0.605509
H142	H	-0.151415	-0.066488	-0.105509
H143	H	-0.651081	-1.303629	-1.343112
H144	H	-0.151081	-0.803629	-0.843112
H145	H	-1.229947	-1.125071	-0.572226
H146	H	-0.729947	-0.625071	-0.072226
H147	H	-0.720114	-1.239270	-0.932689
H148	H	-0.220114	-0.739270	-0.432689
H149	H	-0.509301	-0.663642	-0.473716
H150	H	-0.009301	-0.163642	0.026284
H151	H	-0.861809	-1.107245	-1.029856
H152	H	-0.361809	-0.607245	-0.529856
H153	H	-0.595242	-0.604899	-0.553422
H154	H	-0.095242	-0.104899	-0.053422
H155	H	-0.480649	-0.782094	-0.447156
H156	H	0.019351	-0.282094	0.052844
H157	H	-0.890327	-1.080670	-1.148311
H158	H	-0.390327	-0.580670	-0.648311
H159	H	-0.514806	-1.430599	-0.971327
H160	H	-0.014806	-0.930599	-0.471327
H161	H	-0.480871	-1.462228	-1.127484
H162	H	0.019129	-0.962228	-0.627484
H163	H	-0.595079	-1.355809	-1.304696
H164	H	-0.095079	-0.855809	-0.804696
H165	H	-0.514614	-0.938242	-0.478671
H166	H	-0.014614	-0.438242	0.021329
H167	H	-0.720493	-0.976884	-0.669593
H168	H	-0.220493	-0.476884	-0.169593
H169	H	-0.776644	-0.938489	-0.721689
H170	H	-0.276644	-0.438489	-0.221689
H171	H	-0.862613	-0.879731	-0.801390
H172	H	-0.362613	-0.379731	-0.301390
H173	H	-0.857272	-0.605144	-0.796430
H174	H	-0.357272	-0.105144	-0.296430
H175	H	-1.074771	-1.190103	-0.718416
H176	H	-0.574771	-0.690103	-0.218416
H177	H	-1.141159	-1.206006	-0.491119
H178	H	-0.641159	-0.706006	0.008881
H179	H	-1.295697	-1.352476	-0.556406
H180	H	-0.795697	-0.852476	-0.056406
H181	H	-1.140707	-1.417542	-0.702795
H182	H	-0.640707	-0.917542	-0.202795
H183	H	-0.509390	-1.435649	-1.245945
H184	H	-0.009390	-0.935649	-0.745945
H185	H	-0.776148	-1.187118	-0.971096
H186	H	-0.276148	-0.687118	-0.471096
