data_functionalizedCrystal
_audit_creation_method	'MofGen! by Chris Wilmer'
_symmetry_space_group_name_H-M	'P1'
_symmetry_Int_Tables_number	1
_symmetry_cell_setting	triclinic
loop_
_symmetry_equiv_pos_as_xyz
  x,y,z
_cell_length_a	18.050591
_cell_length_b	18.050589
_cell_length_c	19.077174
_cell_angle_alpha	92.276796
_cell_angle_beta	87.688915
_cell_angle_gamma	90.027061
loop_
_atom_site_label
_atom_site_type_symbol
_atom_site_fract_x
_atom_site_fract_y
_atom_site_fract_z
Zn1	Zn	1.152165	-0.312561	-0.397893
Zn2	Zn	1.147085	-0.431766	-0.280206
Zn3	Zn	1.022994	-0.307593	-0.280220
Zn4	Zn	1.027931	-0.436710	-0.397872
O5	O	1.087544	-0.372158	-0.339048
O6	O	1.255416	-0.328384	-0.382285
O7	O	1.126432	-0.411146	-0.181718
O8	O	1.040189	-0.204328	-0.295844
O9	O	1.251684	-0.415964	-0.295821
O10	O	1.135090	-0.207978	-0.382298
O11	O	1.035263	-0.319916	-0.181728
O12	O	0.919724	-0.324710	-0.295823
O13	O	1.048603	-0.424390	-0.496364
O14	O	0.923352	-0.419573	-0.382261
O15	O	1.139877	-0.333179	-0.496380
O16	O	1.131219	-0.536346	-0.295800
O17	O	1.043677	-0.539979	-0.382248
C18	C	0.894591	-0.372139	-0.339042
C19	C	0.812046	-0.372150	-0.339056
C20	C	0.565212	-0.423836	-0.385997
C21	C	0.611858	-0.439189	-0.321757
C22	C	0.514926	-0.372173	-0.339055
C23	C	0.615361	-0.356843	-0.403291
C24	C	0.660911	-0.372164	-0.339059
C25	C	0.560483	-0.387560	-0.274781
C26	C	0.563984	-0.305184	-0.356358
C27	C	0.610606	-0.320510	-0.292074
C28	C	0.430827	-0.372181	-0.339053
C29	C	0.745007	-0.372156	-0.339053
C30	C	1.087454	-0.565109	-0.339036
C31	C	1.087484	-0.647656	-0.339054
C32	C	1.039927	-0.849108	-0.386048
C33	C	1.019106	-0.895825	-0.321826
C34	C	1.087557	-0.798787	-0.339064
C35	C	1.108415	-0.899152	-0.403293
C36	C	1.087627	-0.944772	-0.339078
C37	C	1.066699	-0.844415	-0.274807
C38	C	1.156042	-0.847739	-0.356318
C39	C	1.135245	-0.894432	-0.292051
C40	C	1.087515	-0.714688	-0.339056
C41	C	1.087669	-1.028869	-0.339078
C42	C	1.281250	-0.372177	-0.339054
C43	C	1.363796	-0.372185	-0.339056
C44	C	1.095357	-0.379890	-0.522624
C45	C	1.098687	-0.383185	-0.600853
C46	C	1.087655	-0.178453	-0.339075
C47	C	1.087703	-0.095908	-0.339086
C48	C	1.052787	-0.337236	-0.637610
C49	C	1.055912	-0.340338	-0.711114
C50	C	1.104943	-0.389387	-0.747861
C51	C	1.150845	-0.435341	-0.711099
C52	C	1.147715	-0.432242	-0.637595
C53	C	1.119390	-0.403752	-0.967692
C54	C	1.122518	-0.406847	-1.041200
C55	C	1.027584	-0.311844	-1.041210
C56	C	1.024462	-0.308746	-0.967706
C57	C	1.070361	-0.354703	-0.930950
N58	N	1.108141	-0.392558	-0.822994
N59	N	1.067159	-0.351536	-0.855818
C60	C	1.079803	-0.364401	-0.156186
C61	C	1.076618	-0.360897	-0.077957
H62	H	0.639377	-0.343880	-0.457614
N63	N	1.006403	-0.290781	-0.750760
H64	H	0.974871	-0.259237	-0.716328
H65	H	1.037951	-0.257704	-0.781266
H66	H	1.156757	-0.441182	-0.937774
N67	N	0.986495	-0.822653	-0.438609
H68	H	0.934797	-0.840124	-0.425486
H69	H	0.987255	-0.766703	-0.438528
H70	H	0.542915	-0.248555	-0.371016
N71	N	0.942431	-0.923827	-0.302487
H72	H	0.906459	-0.907400	-0.337999
H73	H	0.943190	-0.979759	-0.302174
H74	H	0.545213	-0.467560	-0.425643
N75	N	1.043282	-0.812812	-0.202842
H76	H	1.043379	-0.756879	-0.203285
H77	H	0.991754	-0.830773	-0.189751
H78	H	1.175552	-0.914260	-0.252278
N79	N	1.232699	-0.819710	-0.375670
H80	H	1.230765	-0.789952	-0.419290
H81	H	1.251209	-0.787267	-0.335730
H82	H	0.632910	-0.495836	-0.307118
H83	H	1.162448	-0.446789	-1.071117
N84	N	0.528795	-0.404817	-0.202804
H85	H	0.497766	-0.451304	-0.206153
H86	H	0.570614	-0.412570	-0.170244
N87	N	0.636921	-0.262631	-0.239438
H88	H	0.616788	-0.274306	-0.190959
H89	H	0.692896	-0.262681	-0.240078
N90	N	0.971595	-0.255827	-0.928073
H91	H	0.942995	-0.227184	-0.962513
H92	H	0.935905	-0.284752	-0.897561
H93	H	1.126029	-0.923105	-0.457606
H94	H	1.012865	-0.297291	-0.607696
N95	N	1.203720	-0.488254	-0.750728
H96	H	1.198739	-0.483245	-0.802870
H97	H	1.256221	-0.476164	-0.737884
N98	N	0.978066	-0.262293	-1.080853
H99	H	0.987481	-0.271702	-1.132993
H100	H	0.924478	-0.273320	-1.067993
H101	H	1.185098	-0.469654	-0.607669
