data_functionalizedCrystal
_audit_creation_method	'MofGen! by Chris Wilmer'
_symmetry_space_group_name_H-M	'P1'
_symmetry_Int_Tables_number	1
_symmetry_cell_setting	triclinic
loop_
_symmetry_equiv_pos_as_xyz
  x,y,z
_cell_length_a	15.625110
_cell_length_b	19.188930
_cell_length_c	14.750779
_cell_angle_alpha	77.396187
_cell_angle_beta	120.099500
_cell_angle_gamma	83.721350
loop_
_atom_site_label
_atom_site_type_symbol
_atom_site_fract_x
_atom_site_fract_y
_atom_site_fract_z
O1	O	1.286342	0.021421	0.368010
O2	O	0.999244	0.051222	0.268051
O3	O	1.151083	-0.065859	0.320936
O4	O	1.134503	0.138502	0.315125
O5	O	1.194006	-0.098953	0.495536
O6	O	1.042167	0.018128	0.442651
O7	O	1.329265	-0.011673	0.542610
Zn8	Zn	1.192531	-0.002027	0.520352
Zn9	Zn	1.135978	0.041576	0.290309
O10	O	1.177426	0.105408	0.489725
C11	C	0.983975	0.036606	0.342563
C12	C	0.874531	0.042352	0.304459
C13	C	0.696877	0.068491	0.155585
C14	C	0.799719	0.063089	0.191401
C15	C	0.846521	0.027013	0.381746
C16	C	0.743680	0.032416	0.345946
C17	C	0.668865	0.053154	0.232864
C18	C	0.715668	0.017079	0.423225
C19	C	0.612836	0.022477	0.387427
C20	C	0.538016	0.043212	0.274351
C21	C	0.566033	0.058552	0.197067
C22	C	0.790485	-0.003664	0.536306
C23	C	0.762474	-0.019001	0.613585
C24	C	0.659639	-0.013598	0.577788
C25	C	0.584819	0.007137	0.464711
C26	C	0.631623	-0.028938	0.655072
C27	C	0.528791	-0.023540	0.619274
C28	C	0.481988	0.012535	0.428914
C29	C	1.172009	-0.108384	0.408052
C30	C	1.170400	-0.185789	0.407500
C31	C	1.259492	-0.236320	0.438524
C32	C	1.257975	-0.309046	0.437980
C33	C	1.167365	-0.331240	0.406432
C34	C	1.078260	-0.280697	0.375398
C35	C	1.079777	-0.207972	0.375932
N36	N	1.112713	-0.446149	0.441737
N37	N	1.111278	-0.515237	0.441234
C38	C	1.162788	-0.550357	0.404819
N39	N	1.215805	-0.513784	0.368943
N40	N	1.217243	-0.444692	0.369452
C41	C	1.165710	-0.410097	0.405849
C42	C	1.250240	-0.679746	0.435253
C43	C	1.248718	-0.752471	0.434702
C44	C	1.069002	-0.724123	0.372130
C45	C	1.070525	-0.651398	0.372672
C46	C	1.161148	-0.629215	0.404239
C47	C	1.344533	0.002943	0.468095
C48	C	1.453976	-0.002802	0.506193
C49	C	1.156500	0.147934	0.402607
C50	C	1.158107	0.225340	0.403152
N51	N	1.231134	-0.031786	0.677353
N52	N	1.097383	0.071329	0.133311
C53	C	0.989570	0.154410	0.945036
C54	C	1.016628	0.133561	1.054959
C55	C	1.151109	0.029919	1.101761
C56	C	1.124059	0.050757	0.991838
C57	C	1.043290	0.113003	0.913484
C58	C	1.177778	0.009350	0.960286
C59	C	1.150734	0.030189	0.850374
C60	C	1.069970	0.092435	0.772015
C61	C	1.016245	0.133842	0.803572
C62	C	1.258552	-0.052893	1.038644
C63	C	1.312272	-0.094299	1.007091
C64	C	1.285223	-0.073464	0.897176
C65	C	1.204459	-0.011218	0.818817
C66	C	1.338948	-0.114871	0.865619
C67	C	1.311903	-0.094032	0.755707
C68	C	1.177414	0.009621	0.708905
H69	H	0.454285	0.047608	0.245206
H70	H	1.355649	-0.127749	0.730019
H71	H	0.997978	-0.610255	0.347415
H72	H	0.421066	0.029431	0.336831
H73	H	1.111637	0.060304	0.645102
H74	H	0.505982	-0.036015	0.682202
H75	H	0.995225	-0.742192	0.346438
H76	H	1.330526	-0.350195	0.463240
H77	H	1.333284	-0.218264	0.464225
H78	H	1.047955	0.109403	0.682520
H79	H	0.505112	0.075448	0.104984
H80	H	0.635955	0.085386	0.063502
H81	H	0.950468	0.184525	0.739769
H82	H	0.923793	0.205093	0.881233
H83	H	1.004484	-0.298772	0.349709
H84	H	1.216874	-0.020762	1.165569
H85	H	0.972877	0.167285	1.080640
H86	H	1.280572	-0.069855	1.128140
H87	H	1.007225	-0.166828	0.350669
H88	H	1.321269	-0.793613	0.459961
H89	H	1.324030	-0.661683	0.460953
H90	H	1.378037	-0.144980	1.070900
H91	H	0.822518	0.075584	0.128462
H92	H	0.907449	0.010126	0.473818
H93	H	1.404717	-0.165549	0.929430
H94	H	0.874216	-0.008058	0.565449
H95	H	0.823401	-0.035889	0.705657
H96	H	0.692552	-0.045830	0.747144
