data_functionalizedCrystal
_audit_creation_method	'MofGen! by Chris Wilmer'
_symmetry_space_group_name_H-M	'P1'
_symmetry_Int_Tables_number	1
_symmetry_cell_setting	triclinic
loop_
_symmetry_equiv_pos_as_xyz
  x,y,z
_cell_length_a	14.519731
_cell_length_b	14.519709
_cell_length_c	7.681481
_cell_angle_alpha	95.753692
_cell_angle_beta	84.265469
_cell_angle_gamma	83.684499
loop_
_atom_site_label
_atom_site_type_symbol
_atom_site_fract_x
_atom_site_fract_y
_atom_site_fract_z
O1	O	1.215150	0.129701	0.146437
O2	O	1.548483	0.463035	0.479771
O3	O	1.881816	0.796368	0.813104
O4	O	0.946675	0.143918	0.146441
O5	O	1.280008	0.477251	0.479774
O6	O	1.613342	0.810584	0.813107
O7	O	1.088031	0.002571	0.146423
O8	O	1.421365	0.335904	0.479756
O9	O	1.754698	0.669237	0.813090
O10	O	1.073793	0.271048	0.146455
O11	O	1.407127	0.604382	0.479788
O12	O	1.740460	0.937715	0.813122
O13	O	1.105430	-0.014866	-0.146437
O14	O	1.438763	0.318467	0.186897
O15	O	1.772097	0.651800	0.520230
O16	O	0.964074	0.126481	-0.146419
O17	O	1.297407	0.459814	0.186914
O18	O	1.630740	0.793147	0.520247
O19	O	1.232548	0.112265	-0.146422
O20	O	1.565881	0.445598	0.186911
O21	O	1.899215	0.778931	0.520244
Zn22	Zn	1.101073	0.116604	-0.192919
Zn23	Zn	1.434407	0.449938	0.140415
Zn24	Zn	1.767740	0.783271	0.473748
Zn25	Zn	1.078150	0.139578	0.192937
Zn26	Zn	1.411483	0.472911	0.526270
Zn27	Zn	1.744817	0.806245	0.859604
O28	O	1.091192	0.253612	-0.146405
O29	O	1.424525	0.586945	0.186928
O30	O	1.757858	0.920278	0.520262
C31	C	0.921015	0.134533	0.000011
C32	C	1.254348	0.467866	0.333344
C33	C	1.587682	0.801200	0.666678
C34	C	0.818635	0.132537	0.000012
C35	C	1.151968	0.465870	0.333345
C36	C	1.485301	0.799204	0.666678
C37	C	1.096067	-0.040508	-0.000007
C38	C	1.429401	0.292826	0.333326
C39	C	1.762734	0.626159	0.666660
C40	C	1.094079	-0.142889	-0.000008
C41	C	1.427413	0.190444	0.333325
C42	C	1.760746	0.523778	0.666659
C43	C	0.735490	0.130916	0.000019
C44	C	1.068823	0.464249	0.333352
C45	C	1.402157	0.797582	0.666685
C46	C	0.631181	0.128889	0.000019
C47	C	0.964515	0.462222	0.333352
C48	C	1.297848	0.795556	0.666686
C49	C	0.548042	0.127281	0.000019
C50	C	0.881376	0.460614	0.333352
C51	C	1.214709	0.793947	0.666685
C52	C	0.443727	0.125254	0.000022
C53	C	0.777060	0.458588	0.333356
C54	C	1.110393	0.791921	0.666689
C55	C	1.086757	-0.517783	0.000038
C56	C	1.420090	-0.184449	0.333371
C57	C	1.753424	0.148884	0.666704
C58	C	1.088790	-0.413475	0.000024
C59	C	1.422124	-0.080142	0.333358
C60	C	1.755457	0.253191	0.666691
C61	C	1.090418	-0.330339	0.000013
C62	C	1.423751	0.002994	0.333347
C63	C	1.757085	0.336327	0.666680
C64	C	1.092452	-0.226025	0.000003
C65	C	1.425785	0.107308	0.333337
C66	C	1.759118	0.440642	0.666670
C67	C	1.258208	0.121649	0.000011
C68	C	1.591541	0.454983	0.333345
C69	C	1.924875	0.788316	0.666678
C70	C	1.360588	0.123646	0.000022
C71	C	1.693921	0.456979	0.333355
C72	C	2.027254	0.790313	0.666689
C73	C	1.083156	0.296690	0.000029
C74	C	1.416489	0.630023	0.333363
C75	C	1.749822	0.963357	0.666696
C76	C	1.085143	0.399072	0.000042
C77	C	1.418476	0.732406	0.333375
C78	C	1.751810	1.065739	0.666708
N79	N	1.116725	0.100925	-0.456255
N80	N	1.450058	0.434258	-0.122922
N81	N	1.783391	0.767591	0.210412
N82	N	1.062506	0.155250	0.456273
N83	N	1.395839	0.488584	0.789606
N84	N	1.729173	0.821917	1.122940
H85	H	1.172081	0.045477	-0.531468
H86	H	1.505415	0.378811	-0.198134
H87	H	1.838748	0.712144	0.135199
H88	H	1.007160	0.210701	-0.468523
H89	H	1.340493	0.544034	-0.135190
H90	H	1.673826	0.877367	0.198143
