data_functionalizedCrystal
_audit_creation_method	'MofGen! by Chris Wilmer'
_symmetry_space_group_name_H-M	'P1'
_symmetry_Int_Tables_number	1
_symmetry_cell_setting	triclinic
loop_
_symmetry_equiv_pos_as_xyz
  x,y,z
_cell_length_a	18.050591
_cell_length_b	18.050590
_cell_length_c	19.805399
_cell_angle_alpha	89.972574
_cell_angle_beta	89.975361
_cell_angle_gamma	90.014558
loop_
_atom_site_label
_atom_site_type_symbol
_atom_site_fract_x
_atom_site_fract_y
_atom_site_fract_z
Zn1	Zn	1.135370	-0.295756	-0.382812
Zn2	Zn	1.385370	-0.045756	-0.132812
Zn3	Zn	1.635370	0.204244	0.117188
Zn4	Zn	1.885370	0.454244	0.367188
Zn5	Zn	1.135293	-0.419948	-0.269624
Zn6	Zn	1.385293	-0.169948	-0.019624
Zn7	Zn	1.635293	0.080052	0.230376
Zn8	Zn	1.885293	0.330052	0.480376
Zn9	Zn	1.011181	-0.295768	-0.269626
Zn10	Zn	1.261181	-0.045768	-0.019626
Zn11	Zn	1.511181	0.204232	0.230374
Zn12	Zn	1.761181	0.454232	0.480374
Zn13	Zn	1.011158	-0.419900	-0.382761
Zn14	Zn	1.261158	-0.169900	-0.132761
Zn15	Zn	1.511158	0.080100	0.117239
Zn16	Zn	1.761158	0.330100	0.367239
O17	O	1.073250	-0.357843	-0.326206
O18	O	1.323250	-0.107843	-0.076206
O19	O	1.573250	0.142157	0.173794
O20	O	1.823250	0.392157	0.423794
O21	O	1.239284	-0.312245	-0.367818
O22	O	1.489284	-0.062245	-0.117818
O23	O	1.739284	0.187755	0.132182
O24	O	1.989284	0.437755	0.382182
O25	O	1.118807	-0.403500	-0.174908
O26	O	1.368807	-0.153500	0.075092
O27	O	1.618807	0.096500	0.325092
O28	O	1.868807	0.346500	0.575092
O29	O	1.027696	-0.191841	-0.284663
O30	O	1.277696	0.058159	-0.034663
O31	O	1.527696	0.308159	0.215337
O32	O	1.777696	0.558159	0.465337
O33	O	1.239228	-0.403489	-0.284659
O34	O	1.489228	-0.153489	-0.034659
O35	O	1.739228	0.096511	0.215341
O36	O	1.989228	0.346511	0.465341
O37	O	1.118937	-0.191833	-0.367820
O38	O	1.368937	0.058167	-0.117820
O39	O	1.618937	0.308167	0.132180
O40	O	1.868937	0.558167	0.382180
O41	O	1.027622	-0.312265	-0.174909
O42	O	1.277622	-0.062265	0.075091
O43	O	1.527622	0.187735	0.325091
O44	O	1.777622	0.437735	0.575091
O45	O	0.907253	-0.312219	-0.284614
O46	O	1.157253	-0.062219	-0.034614
O47	O	1.407253	0.187781	0.215386
O48	O	1.657253	0.437781	0.465386
O49	O	1.027657	-0.403407	-0.477484
O50	O	1.277657	-0.153407	-0.227484
O51	O	1.527657	0.096593	0.022516
O52	O	1.777657	0.346593	0.272516
O53	O	0.907236	-0.403418	-0.367733
O54	O	1.157236	-0.153418	-0.117733
O55	O	1.407236	0.096582	0.132267
O56	O	1.657236	0.346582	0.382267
O57	O	1.118915	-0.312199	-0.477522
O58	O	1.368915	-0.062199	-0.227522
O59	O	1.618915	0.187801	0.022478
O60	O	1.868915	0.437801	0.272478
O61	O	1.118785	-0.523866	-0.284609
O62	O	1.368785	-0.273866	-0.034609
O63	O	1.618785	-0.023866	0.215391
O64	O	1.868785	0.226134	0.465391
O65	O	1.027583	-0.523831	-0.367730
O66	O	1.277583	-0.273831	-0.117730
O67	O	1.527583	-0.023831	0.132270
O68	O	1.777583	0.226169	0.382270
C69	C	0.880298	-0.357815	-0.326168
C70	C	1.130298	-0.107815	-0.076168
C71	C	1.380298	0.142185	0.173832
C72	C	1.630298	0.392185	0.423832
C73	C	0.797752	-0.357821	-0.326168
C74	C	1.047752	-0.107821	-0.076168
C75	C	1.297752	0.142179	0.173832
C76	C	1.547752	0.392179	0.423832
C77	C	0.598289	-0.308169	-0.281072
C78	C	0.848289	-0.058169	-0.031072
C79	C	1.098289	0.191831	0.218928
C80	C	1.348289	0.441831	0.468928
C81	C	0.548880	-0.375907	-0.264415
C82	C	0.798880	-0.125907	-0.014415
C83	C	1.048880	0.124093	0.235585
C84	C	1.298880	0.374093	0.485585
C85	C	0.646622	-0.357844	-0.326199
C86	C	0.896622	-0.107844	-0.076199
C87	C	1.146622	0.142156	0.173801
C88	C	1.396622	0.392156	0.423801
C89	C	0.548950	-0.290130	-0.342855
C90	C	0.798950	-0.040130	-0.092855
C91	C	1.048950	0.209870	0.157145
C92	C	1.298950	0.459870	0.407145
C93	C	0.500637	-0.357859	-0.326227
C94	C	0.750637	-0.107859	-0.076227
C95	C	1.000637	0.142141	0.173773
C96	C	1.250637	0.392141	0.423773
C97	C	0.598300	-0.425616	-0.309509
C98	C	0.848300	-0.175616	-0.059509
C99	C	1.098300	0.074384	0.190491
C100	C	1.348300	0.324384	0.440491
C101	C	0.598374	-0.339794	-0.387978
C102	C	0.848374	-0.089794	-0.137978
C103	C	1.098374	0.160206	0.112022
C104	C	1.348374	0.410206	0.362022
C105	C	0.548987	-0.407578	-0.371344
C106	C	0.798987	-0.157578	-0.121344
C107	C	1.048987	0.092422	0.128656
C108	C	1.298987	0.342422	0.378656
C109	C	0.730720	-0.357834	-0.326181
C110	C	0.980720	-0.107834	-0.076181
C111	C	1.230720	0.142166	0.173819
C112	C	1.480720	0.392166	0.423819
C113	C	0.416541	-0.357877	-0.326245
C114	C	0.666541	-0.107877	-0.076245
C115	C	0.916541	0.142123	0.173755
C116	C	1.166541	0.392123	0.423755
C117	C	1.073193	-0.550795	-0.326179
C118	C	1.323193	-0.300795	-0.076179
C119	C	1.573193	-0.050795	0.173821
C120	C	1.823193	0.199205	0.423821
C121	C	1.073237	-0.633341	-0.326190
C122	C	1.323237	-0.383341	-0.076190
C123	C	1.573237	-0.133341	0.173810
C124	C	1.823237	0.116659	0.423810
C125	C	1.122936	-0.832784	-0.281052
C126	C	1.372936	-0.582784	-0.031052
C127	C	1.622936	-0.332784	0.218948
C128	C	1.872936	-0.082784	0.468948
C129	C	1.141075	-0.882119	-0.342828
C130	C	1.391075	-0.632119	-0.092828
C131	C	1.641075	-0.382119	0.157172
C132	C	1.891075	-0.132119	0.407172
C133	C	1.073279	-0.784471	-0.326217
C134	C	1.323279	-0.534471	-0.076217
C135	C	1.573279	-0.284471	0.173783
C136	C	1.823279	-0.034471	0.423783
C137	C	1.055215	-0.882218	-0.264468
C138	C	1.305215	-0.632218	-0.014468
C139	C	1.555215	-0.382218	0.235532
C140	C	1.805215	-0.132218	0.485532
C141	C	1.073321	-0.930456	-0.326237
C142	C	1.323321	-0.680456	-0.076237
C143	C	1.573321	-0.430456	0.173763
C144	C	1.823321	-0.180456	0.423763
C145	C	1.091454	-0.832719	-0.388026
C146	C	1.341454	-0.582719	-0.138026
C147	C	1.591454	-0.332719	0.111974
C148	C	1.841454	-0.082719	0.361974
C149	C	1.005561	-0.832813	-0.309624
C150	C	1.255561	-0.582813	-0.059624
C151	C	1.505561	-0.332813	0.190376
C152	C	1.755561	-0.082813	0.440376
C153	C	1.023676	-0.882126	-0.371443
C154	C	1.273676	-0.632126	-0.121443
C155	C	1.523676	-0.382126	0.128557
C156	C	1.773676	-0.132126	0.378557
C157	C	1.073257	-0.700373	-0.326204
C158	C	1.323257	-0.450373	-0.076204
C159	C	1.573257	-0.200373	0.173796
C160	C	1.823257	0.049627	0.423796
C161	C	1.073343	-1.014553	-0.326257
C162	C	1.323343	-0.764553	-0.076257
C163	C	1.573343	-0.514553	0.173743
C164	C	1.823343	-0.264553	0.423743
C165	C	1.266956	-0.357871	-0.326244
C166	C	1.516956	-0.107871	-0.076244
C167	C	1.766956	0.142129	0.173756
C168	C	2.016956	0.392129	0.423756
C169	C	1.349502	-0.357883	-0.326260
C170	C	1.599502	-0.107883	-0.076260
C171	C	1.849502	0.142117	0.173740
C172	C	2.099502	0.392117	0.423740
C173	C	1.073292	-0.357796	-0.502748
C174	C	1.323292	-0.107796	-0.252748
C175	C	1.573292	0.142204	-0.002748
C176	C	1.823292	0.392204	0.247252
C177	C	1.073310	-0.357776	-0.577981
C178	C	1.323310	-0.107776	-0.327981
C179	C	1.573310	0.142224	-0.077981
C180	C	1.823310	0.392224	0.172019
C181	C	1.073328	-0.164137	-0.326248
C182	C	1.323328	0.085863	-0.076248
C183	C	1.573328	0.335863	0.173752
C184	C	1.823328	0.585863	0.423752
C185	C	1.073361	-0.081591	-0.326265
C186	C	1.323361	0.168409	-0.076265
C187	C	1.573361	0.418409	0.173735
C188	C	1.823361	0.668409	0.423735
C189	C	1.120829	-0.310282	-0.613345
C190	C	1.370829	-0.060282	-0.363345
C191	C	1.620829	0.189718	-0.113345
C192	C	1.870829	0.439718	0.136655
C193	C	1.120836	-0.310260	-0.684034
C194	C	1.370836	-0.060260	-0.434034
C195	C	1.620836	0.189740	-0.184034
C196	C	1.870836	0.439740	0.065966
C197	C	1.073328	-0.357737	-0.719356
C198	C	1.323328	-0.107737	-0.469356
C199	C	1.573328	0.142263	-0.219356
C200	C	1.823328	0.392263	0.030644
C201	C	1.025804	-0.405234	-0.683986
C202	C	1.275804	-0.155234	-0.433986
C203	C	1.525804	0.094766	-0.183986
C204	C	1.775804	0.344766	0.066014
C205	C	1.025793	-0.405251	-0.613299
C206	C	1.275793	-0.155251	-0.363299
C207	C	1.525793	0.094749	-0.113299
C208	C	1.775793	0.344749	0.136701
C209	C	1.025846	-0.405165	-0.969060
C210	C	1.275846	-0.155165	-0.719060
C211	C	1.525846	0.094835	-0.469060
C212	C	1.775846	0.344835	-0.219060
C213	C	1.025862	-0.405145	-1.039752
C214	C	1.275862	-0.155145	-0.789752
C215	C	1.525862	0.094855	-0.539752
C216	C	1.775862	0.344855	-0.289752
C217	C	1.120889	-0.310174	-1.039794
C218	C	1.370889	-0.060174	-0.789794
C219	C	1.620889	0.189826	-0.539794
C220	C	1.870889	0.439826	-0.289794
C221	C	1.120878	-0.310191	-0.969107
C222	C	1.370878	-0.060191	-0.719107
C223	C	1.620878	0.189809	-0.469107
C224	C	1.870878	0.439809	-0.219107
C225	C	1.073352	-0.357684	-0.933744
C226	C	1.323352	-0.107684	-0.683744
C227	C	1.573352	0.142316	-0.433744
C228	C	1.823352	0.392316	-0.183744
C229	C	1.073343	-0.357706	-0.857095
C230	C	1.323343	-0.107706	-0.607095
C231	C	1.573343	0.142294	-0.357095
C232	C	1.823343	0.392294	-0.107095
C233	C	1.073340	-0.357720	-0.796003
C234	C	1.323340	-0.107720	-0.546003
C235	C	1.573340	0.142280	-0.296003
C236	C	1.823340	0.392280	-0.046003
C237	C	1.073252	-0.357836	-0.150350
C238	C	1.323252	-0.107836	0.099650
C239	C	1.573252	0.142164	0.349650
C240	C	1.823252	0.392164	0.599650
C241	C	1.073378	-0.357646	-0.075118
C242	C	1.323378	-0.107646	0.174882
C243	C	1.573378	0.142354	0.424882
C244	C	1.823378	0.392354	0.674882
H245	H	0.619937	-0.266207	-0.242869
H246	H	0.869937	-0.016207	0.007131
H247	H	1.119937	0.233793	0.257131
H248	H	1.369937	0.483793	0.507131
H249	H	0.987172	-0.443808	-1.068510
H250	H	1.237172	-0.193808	-0.818510
H251	H	1.487172	0.056192	-0.568510
H252	H	1.737172	0.306192	-0.318510
H253	H	0.527233	-0.232866	-0.356907
H254	H	0.777233	0.017134	-0.106907
H255	H	1.027233	0.267134	0.143093
H256	H	1.277233	0.517134	0.393093
H257	H	1.164943	-0.811117	-0.242896
H258	H	1.414943	-0.561117	0.007104
H259	H	1.664943	-0.311117	0.257104
H260	H	1.914943	-0.061117	0.507104
H261	H	1.106693	-0.811069	-0.440299
H262	H	1.356693	-0.561069	-0.190299
H263	H	1.606693	-0.311069	0.059701
H264	H	1.856693	-0.061069	0.309701
H265	H	0.987158	-0.443847	-0.940275
H266	H	1.237158	-0.193847	-0.690275
H267	H	1.487158	0.056153	-0.440275
H268	H	1.737158	0.306153	-0.190275
H269	H	0.981701	-0.903655	-0.409691
H270	H	1.231701	-0.653655	-0.159691
H271	H	1.481701	-0.403655	0.090309
H272	H	1.731701	-0.153655	0.340309
H273	H	1.198361	-0.903778	-0.356875
H274	H	1.448361	-0.653778	-0.106875
H275	H	1.698361	-0.403778	0.143125
H276	H	1.948361	-0.153778	0.393125
H277	H	1.039919	-0.903960	-0.212240
H278	H	1.289919	-0.653960	0.037760
H279	H	1.539919	-0.403960	0.287760
H280	H	1.789919	-0.153960	0.537760
H281	H	1.159585	-0.271500	-1.068596
H282	H	1.409585	-0.021500	-0.818596
H283	H	1.659585	0.228500	-0.568596
H284	H	1.909585	0.478500	-0.318596
H285	H	0.527475	-0.449641	-0.409518
H286	H	0.777475	-0.199641	-0.159518
H287	H	1.027475	0.050359	0.090482
H288	H	1.277475	0.300359	0.340482
H289	H	0.948293	-0.811138	-0.295558
H290	H	1.198293	-0.561138	-0.045558
H291	H	1.448293	-0.311138	0.204442
H292	H	1.698293	-0.061138	0.454442
H293	H	1.159567	-0.271533	-0.940351
H294	H	1.409567	-0.021533	-0.690351
H295	H	1.659567	0.228467	-0.440351
H296	H	1.909567	0.478467	-0.190351
H297	H	0.527141	-0.391185	-0.212181
H298	H	0.777141	-0.141185	0.037819
H299	H	1.027141	0.108815	0.287819
H300	H	1.277141	0.358815	0.537819
H301	H	0.619887	-0.482905	-0.295375
H302	H	0.869887	-0.232905	-0.045375
H303	H	1.119887	0.017095	0.204625
H304	H	1.369887	0.267095	0.454625
H305	H	0.620131	-0.324495	-0.440196
H306	H	0.870131	-0.074495	-0.190196
H307	H	1.120131	0.175505	0.059804
H308	H	1.370131	0.425505	0.309804
H309	H	1.159518	-0.271622	-0.584591
H310	H	1.409518	-0.021622	-0.334591
H311	H	1.659518	0.228378	-0.084591
H312	H	1.909518	0.478378	0.165409
H313	H	1.159533	-0.271587	-0.712825
H314	H	1.409533	-0.021587	-0.462825
H315	H	1.659533	0.228413	-0.212825
H316	H	1.909533	0.478413	0.037175
H317	H	0.987119	-0.443888	-0.712751
H318	H	1.237119	-0.193888	-0.462751
H319	H	1.487119	0.056112	-0.212751
H320	H	1.737119	0.306112	0.037249
H321	H	0.987091	-0.443918	-0.584506
H322	H	1.237091	-0.193918	-0.334506
H323	H	1.487091	0.056082	-0.084506
H324	H	1.737091	0.306082	0.165494
