data_functionalizedCrystal
_audit_creation_method	'MofGen! by Chris Wilmer'
_symmetry_space_group_name_H-M	'P1'
_symmetry_Int_Tables_number	1
_symmetry_cell_setting	triclinic
loop_
_symmetry_equiv_pos_as_xyz
  x,y,z
_cell_length_a	14.908571
_cell_length_b	19.121063
_cell_length_c	14.908308
_cell_angle_alpha	95.554627
_cell_angle_beta	90.175053
_cell_angle_gamma	89.303906
loop_
_atom_site_label
_atom_site_type_symbol
_atom_site_fract_x
_atom_site_fract_y
_atom_site_fract_z
Zn1	Zn	1.324072	-0.366417	-0.606393
Zn2	Zn	1.824072	0.133583	-0.106393
Zn3	Zn	1.326220	-0.477475	-0.461735
Zn4	Zn	1.826220	0.022525	0.038265
Zn5	Zn	1.183168	-0.352931	-0.446699
Zn6	Zn	1.683168	0.147069	0.053301
Zn7	Zn	1.167296	-0.476641	-0.603344
Zn8	Zn	1.667296	0.023359	-0.103344
O9	O	1.250189	-0.418366	-0.529543
O10	O	1.750189	0.081634	-0.029543
O11	O	1.449836	-0.387142	-0.594773
O12	O	1.949836	0.112858	-0.094773
O13	O	1.314785	-0.455659	-0.333644
O14	O	1.814785	0.044341	0.166356
O15	O	1.207604	-0.256469	-0.462866
O16	O	1.707604	0.243531	0.037134
O17	O	1.451414	-0.468736	-0.488493
O18	O	1.951414	0.031264	0.011507
O19	O	1.311125	-0.266377	-0.580193
O20	O	1.811125	0.233623	-0.080193
O21	O	1.209686	-0.364157	-0.322597
O22	O	1.709686	0.135843	0.177403
O23	O	1.055584	-0.363348	-0.459909
O24	O	1.555584	0.136652	0.040091
O25	O	1.180551	-0.467315	-0.729845
O26	O	1.680551	0.032685	-0.229845
O27	O	1.043922	-0.454238	-0.574995
O28	O	1.543922	0.045762	-0.074995
O29	O	1.295734	-0.386334	-0.732085
O30	O	1.795734	0.113666	-0.232085
O31	O	1.299394	-0.575616	-0.485536
O32	O	1.799394	-0.075616	0.014464
O33	O	1.182633	-0.575003	-0.589576
O34	O	1.682633	-0.075003	-0.089576
C35	C	1.017218	-0.407239	-0.515490
C36	C	1.517218	0.092761	-0.015490
C37	C	0.917550	-0.402497	-0.509501
C38	C	1.417550	0.097503	-0.009501
C39	C	1.239548	-0.600787	-0.538878
C40	C	1.739548	-0.100787	-0.038878
C41	C	1.235075	-0.678833	-0.542906
C42	C	1.735075	-0.178833	-0.042906
C43	C	0.718169	-0.488362	-0.617938
C44	C	1.218169	0.011638	-0.117938
C45	C	0.624521	-0.483909	-0.612314
C46	C	1.124521	0.016091	-0.112314
C47	C	0.636605	-0.389134	-0.492633
C48	C	1.136605	0.110866	0.007367
C49	C	0.730253	-0.393588	-0.498257
C50	C	1.230253	0.106412	0.001743
C51	C	0.771031	-0.443204	-0.560911
C52	C	1.271031	0.056796	-0.060911
C53	C	0.864680	-0.447660	-0.566530
C54	C	1.364680	0.052340	-0.066530
C55	C	0.876762	-0.352883	-0.446854
C56	C	1.376762	0.147117	0.053146
C57	C	0.783115	-0.348429	-0.441230
C58	C	1.283115	0.151571	0.058770
C59	C	1.293807	-0.715799	-0.490682
C60	C	1.793807	-0.215799	0.009318
C61	C	1.289606	-0.789131	-0.494476
C62	C	1.789606	-0.289131	0.005524
C63	C	1.226668	-0.825496	-0.550491
C64	C	1.726668	-0.325496	-0.050491
C65	C	1.167934	-0.788525	-0.602722
C66	C	1.667934	-0.288525	-0.102722
C67	C	1.172140	-0.715194	-0.598932
C68	C	1.672140	-0.215194	-0.098932
C69	C	1.210929	-1.046893	-0.564648
C70	C	1.710929	-0.546893	-0.064648
C71	C	1.206726	-1.120229	-0.568432
C72	C	1.706726	-0.620229	-0.068432
C73	C	1.328400	-1.120830	-0.460187
C74	C	1.828400	-0.620830	0.039813
C75	C	1.332596	-1.047498	-0.456398
C76	C	1.832596	-0.547498	0.043602
C77	C	1.273865	-1.010533	-0.508632
C78	C	1.773865	-0.510533	-0.008632
C79	C	1.222371	-0.900454	-0.554369
C80	C	1.722371	-0.400454	-0.054369
C81	C	1.278168	-0.935578	-0.504758
C82	C	1.778168	-0.435578	-0.004758
C83	C	1.484070	-0.429537	-0.543650
C84	C	1.984070	0.070463	-0.043650
C85	C	1.583736	-0.434297	-0.549662
C86	C	2.083736	0.065703	-0.049662
C87	C	1.236132	-0.428235	-0.764574
C88	C	1.736132	0.071765	-0.264574
C89	C	1.230142	-0.432441	-0.864731
C90	C	1.730142	0.067559	-0.364731
C91	C	1.260895	-0.235235	-0.520192
C92	C	1.760895	0.264765	-0.020192
C93	C	1.265458	-0.157195	-0.516207
C94	C	1.765458	0.342805	-0.016207
C95	C	1.338824	-0.356002	-1.055270
C96	C	1.838824	0.143998	-0.555270
C97	C	1.333199	-0.359951	-1.149376
C98	C	1.833199	0.140049	-0.649376
C99	C	1.213262	-0.444285	-1.147051
C100	C	1.713262	0.055715	-0.647051
C101	C	1.218888	-0.440335	-1.052945
C102	C	1.718888	0.059665	-0.552945
C103	C	1.281672	-0.396193	-1.007057
C104	C	1.781672	0.103807	-0.507057
C105	C	1.287301	-0.392248	-0.912950
C106	C	1.787301	0.107752	-0.412950
C107	C	1.167360	-0.476578	-0.910626
C108	C	1.667360	0.023422	-0.410626
C109	C	1.161735	-0.480527	-1.004732
C110	C	1.661735	0.019473	-0.504732
C111	C	1.264246	-0.408487	-0.295425
C112	C	1.764246	0.091513	0.204575
C113	C	1.270421	-0.404092	-0.195270
C114	C	1.770421	0.095908	0.304730
H115	H	0.751371	-0.528765	-0.668948
H116	H	1.251371	-0.028765	-0.168948
N117	N	1.391581	-0.318909	-1.198638
N118	N	1.891581	0.181091	-0.698638
N119	N	1.386554	-0.322442	-1.282661
N120	N	1.886554	0.177558	-0.782661
H121	H	1.427788	-0.293454	-1.317455
H122	H	1.927788	0.206546	-0.817455
H123	H	1.337431	-0.819226	-0.451949
H124	H	1.837431	-0.319226	0.048051
N125	N	0.741442	-0.297751	-0.377244
N126	N	1.241442	0.202249	0.122756
N127	N	0.657829	-0.293778	-0.372232
N128	N	1.157829	0.206222	0.127768
H129	H	0.628397	-0.257986	-0.327040
H130	H	1.128397	0.242014	0.172960
H131	H	1.383845	-1.017891	-0.410786
H132	H	1.883845	-0.517891	0.089214
N133	N	1.108982	-0.517631	-0.861364
N134	N	1.608982	-0.017631	-0.361364
N135	N	1.114012	-0.514101	-0.777342
N136	N	1.614012	-0.014101	-0.277342
H137	H	1.072785	-0.543094	-0.742549
H138	H	1.572785	-0.043094	-0.242549
N139	N	1.142448	-1.157375	-0.625674
N140	N	1.642448	-0.657375	-0.125674
N141	N	1.168178	-1.202170	-0.687129
N142	N	1.668178	-0.702170	-0.187129
H143	H	1.122785	-1.228404	-0.727555
H144	H	1.622785	-0.728404	-0.227555
N145	N	1.388390	-1.158579	-0.406826
N146	N	1.888390	-0.658579	0.093174
N147	N	1.387947	-1.146646	-0.322897
N148	N	1.887947	-0.646646	0.177103
H149	H	1.430318	-1.173306	-0.285207
H150	H	1.930318	-0.673306	0.214793
N151	N	1.150932	-1.009153	-0.618007
N152	N	1.650932	-0.509153	-0.118007
N153	N	1.094742	-1.041632	-0.668013
N154	N	1.594742	-0.541632	-0.168013
H155	H	1.052365	-1.014976	-0.705701
H156	H	1.552365	-0.514976	-0.205701
H157	H	1.171125	-0.930070	-0.599975
H158	H	1.671125	-0.430070	-0.099975
H159	H	1.329415	-0.905967	-0.459154
H160	H	1.829415	-0.405967	0.040846
N161	N	0.930748	-0.306742	-0.388596
N162	N	1.430748	0.193258	0.111404
N163	N	0.894323	-0.262448	-0.332662
N164	N	1.394323	0.237552	0.167338
H165	H	0.932449	-0.229863	-0.291515
H166	H	1.432449	0.270137	0.208485
H167	H	1.162146	-0.480223	-1.184428
H168	H	1.662146	0.019777	-0.684428
H169	H	1.345054	-0.686195	-0.445064
H170	H	1.845054	-0.186195	0.054936
N171	N	0.570536	-0.530039	-0.670576
N172	N	1.070536	-0.030039	-0.170576
N173	N	0.606961	-0.574331	-0.726512
N174	N	1.106961	-0.074331	-0.226512
H175	H	0.568835	-0.606912	-0.767664
H176	H	1.068835	-0.106912	-0.267664
H177	H	0.603387	-0.348735	-0.441629
H178	H	1.103387	0.151265	0.058371
H179	H	1.116692	-0.818140	-0.648335
H180	H	1.616692	-0.318140	-0.148335
N181	N	1.112146	-0.677444	-0.652290
N182	N	1.612146	-0.177444	-0.152290
N183	N	1.055957	-0.709919	-0.702302
N184	N	1.555957	-0.209919	-0.202302
H185	H	1.013586	-0.683259	-0.739993
H186	H	1.513586	-0.183259	-0.239993
H187	H	1.338424	-0.356306	-0.875590
H188	H	1.838424	0.143694	-0.375590
H189	H	0.897880	-0.488061	-0.617545
H190	H	1.397880	0.011939	-0.117545
N191	N	1.402965	-0.310918	-1.008406
N192	N	1.902965	0.189082	-0.508406
N193	N	1.453996	-0.275040	-1.051465
N194	N	1.953996	0.224960	-0.551465
H195	H	1.499297	-0.243199	-1.018370
H196	H	1.999297	0.256801	-0.518370
N197	N	1.097606	-0.525606	-1.051622
N198	N	1.597606	-0.025606	-0.551622
N199	N	1.092588	-0.529125	-1.135644
N200	N	1.592588	-0.029125	-0.635644
H201	H	1.047297	-0.560964	-1.168760
H202	H	1.547297	-0.060964	-0.668760
