data_functionalizedCrystal
_audit_creation_method	'MofGen! by Chris Wilmer'
_symmetry_space_group_name_H-M	'P1'
_symmetry_Int_Tables_number	1
_symmetry_cell_setting	triclinic
loop_
_symmetry_equiv_pos_as_xyz
  x,y,z
_cell_length_a	17.640280
_cell_length_b	11.169417
_cell_length_c	11.169409
_cell_angle_alpha	90.022423
_cell_angle_beta	78.765552
_cell_angle_gamma	101.200448
loop_
_atom_site_label
_atom_site_type_symbol
_atom_site_fract_x
_atom_site_fract_y
_atom_site_fract_z
Zn1	Zn	-0.314633	-1.931532	-0.582099
Zn2	Zn	0.185367	-1.431532	-0.082099
Zn3	Zn	-0.446836	-1.971992	-0.340867
Zn4	Zn	0.053164	-1.471992	0.159133
Zn5	Zn	-0.314676	-1.730828	-0.381413
Zn6	Zn	0.185324	-1.230828	0.118587
Zn7	Zn	-0.446768	-1.771377	-0.541526
Zn8	Zn	0.053232	-1.271377	-0.041526
O9	O	-0.380728	-1.851432	-0.461476
O10	O	0.119272	-1.351432	0.038524
O11	O	-0.332180	-2.104852	-0.550110
O12	O	0.167820	-1.604852	-0.050110
O13	O	-0.429352	-1.939964	-0.178281
O14	O	0.070648	-1.439964	0.321719
O15	O	-0.204062	-1.723550	-0.441983
O16	O	0.295938	-1.223550	0.058017
O17	O	-0.429310	-2.134578	-0.372877
O18	O	0.070690	-1.634578	0.127123
O19	O	-0.204030	-1.871006	-0.589426
O20	O	0.295970	-1.371006	-0.089426
O21	O	-0.332255	-1.762782	-0.208070
O22	O	0.167745	-1.262782	0.291930
O23	O	-0.332188	-1.568254	-0.402642
O24	O	0.167812	-1.068254	0.097358
O25	O	-0.429193	-1.792659	-0.714872
O26	O	0.070807	-1.292659	-0.214872
O27	O	-0.429235	-1.598045	-0.520276
O28	O	0.070765	-1.098045	-0.020276
O29	O	-0.332114	-1.910324	-0.744681
O30	O	0.167886	-1.410324	-0.244681
O31	O	-0.557435	-1.979282	-0.333536
O32	O	-0.057435	-1.479282	0.166464
O33	O	-0.557385	-1.831892	-0.480959
O34	O	-0.057385	-1.331892	0.019041
C35	C	-0.380709	-1.539602	-0.461456
C36	C	0.119291	-1.039602	0.038544
C37	C	-0.380720	-1.406205	-0.461471
C38	C	0.119280	-0.906205	0.038529
C39	C	-0.586090	-1.914410	-0.398471
C40	C	-0.086090	-1.414410	0.101529
C41	C	-0.673944	-1.941462	-0.371557
C42	C	-0.173944	-1.441462	0.128443
C43	C	-0.962893	-1.646414	-0.666373
C44	C	-0.462893	-1.146414	-0.166373
C45	C	-1.045445	-1.671836	-0.641045
C46	C	-0.545445	-1.171836	-0.141045
C47	C	-1.045432	-1.825409	-0.487688
C48	C	-0.545432	-1.325409	0.012312
C49	C	-0.962878	-1.800004	-0.513007
C50	C	-0.462878	-1.300004	-0.013007
C51	C	-0.921615	-1.710504	-0.602350
C52	C	-0.421615	-1.210504	-0.102350
C53	C	-0.921600	-1.864095	-0.448984
C54	C	-0.421600	-1.364095	0.051016
C55	C	-0.839053	-1.838687	-0.474297
C56	C	-0.339053	-1.338687	0.025703
C57	C	-0.797784	-1.749189	-0.563633
C58	C	-0.297784	-1.249189	-0.063633
C59	C	-0.839068	-1.685097	-0.627663
C60	C	-0.339068	-1.185097	-0.127663
C61	C	-0.962865	-1.953588	-0.359636
C62	C	-0.462865	-1.453588	0.140364
C63	C	-0.921587	-2.017678	-0.295613
C64	C	-0.421587	-1.517678	0.204387
C65	C	-0.839038	-1.992277	-0.320932
C66	C	-0.339038	-1.492277	0.179068
C67	C	-0.797769	-1.902779	-0.410268
C68	C	-0.297769	-1.402779	0.089732
C69	C	-0.797755	-2.056369	-0.256902
C70	C	-0.297755	-1.556369	0.243098
C71	C	-0.715208	-2.030962	-0.282215
C72	C	-0.215208	-1.530962	0.217785
C73	C	-0.715222	-1.877372	-0.435580
C74	C	-0.215222	-1.377372	0.064420
C75	C	-0.174565	-1.788241	-0.524754
C76	C	0.325435	-1.288241	-0.024754
C77	C	-0.086710	-1.761313	-0.551719
C78	C	0.413290	-1.261313	-0.051719
C79	C	-0.380641	-1.851502	-0.774546
C80	C	0.119359	-1.351502	-0.274546
C81	C	-0.380603	-1.851531	-0.907957
C82	C	0.119397	-1.351531	-0.407957
C83	C	-0.380741	-1.164479	-0.461489
C84	C	0.119259	-0.664479	0.038511
C85	C	-0.380730	-1.297875	-0.461475
C86	C	0.119270	-0.797875	0.038525
C87	C	-0.380759	-1.851415	-0.149642
C88	C	0.119241	-1.351415	0.350358
C89	C	-0.380573	-1.851549	-0.016300
C90	C	0.119427	-1.351549	0.483700
H91	H	-0.681624	-1.804501	-0.508341
H92	H	-0.181624	-1.304501	-0.008341
H93	H	-0.730569	-1.728495	-0.584233
H94	H	-0.230569	-1.228495	-0.084233
H95	H	-0.929294	-1.573543	-0.739134
H96	H	-0.429294	-1.073543	-0.239134
H97	H	-0.955195	-2.090545	-0.222867
H98	H	-0.455195	-1.590545	0.277133
H99	H	-1.079051	-1.619653	-0.693202
H100	H	-0.579051	-1.119653	-0.193202
N101	N	-0.842264	-2.152876	-0.160523
N102	N	-0.342264	-1.652876	0.339477
H103	H	-0.900821	-2.159238	-0.154195
H104	H	-0.400821	-1.659238	0.345805
H105	H	-0.827794	-2.234134	-0.183707
H106	H	-0.327794	-1.734134	0.316293
N107	N	-1.089940	-1.921924	-0.391317
N108	N	-0.589940	-1.421924	0.108683
H109	H	-1.148497	-1.928291	-0.384990
H110	H	-0.648497	-1.428291	0.115010
H111	H	-1.075465	-2.003177	-0.414510
H112	H	-0.575465	-1.503177	0.085490
H113	H	-0.805469	-1.612226	-0.700424
H114	H	-0.305469	-1.112226	-0.200424
N115	N	-0.670679	-2.100077	-0.213160
N116	N	-0.170679	-1.600077	0.286840
H117	H	-0.709345	-2.160631	-0.152723
H118	H	-0.209345	-1.660631	0.347277
H119	H	-0.636380	-2.145033	-0.272582
H120	H	-0.136380	-1.645033	0.227418
H121	H	-1.030080	-1.974274	-0.339033
H122	H	-0.530080	-1.474274	0.160967
