data_functionalizedCrystal
_audit_creation_method	'MofGen! by Chris Wilmer'
_symmetry_space_group_name_H-M	'P1'
_symmetry_Int_Tables_number	1
_symmetry_cell_setting	triclinic
loop_
_symmetry_equiv_pos_as_xyz
  x,y,z
_cell_length_a	6.817900
_cell_length_b	14.125465
_cell_length_c	14.125369
_cell_angle_alpha	96.221150
_cell_angle_beta	100.397648
_cell_angle_gamma	100.398878
loop_
_atom_site_label
_atom_site_type_symbol
_atom_site_fract_x
_atom_site_fract_y
_atom_site_fract_z
V1	V	-3.975802	-0.299601	-0.132288
O2	O	-3.980353	-0.294287	0.007207
O3	O	-3.912214	-0.297177	-0.263123
O4	O	-3.912227	-0.430437	-0.129880
O5	O	-3.980341	-0.160104	-0.126958
V6	V	-4.463364	-0.282961	-0.115647
O7	O	-4.228200	-0.336101	-0.168792
O8	O	-4.661164	-0.246461	-0.079143
O9	O	-4.303746	-0.285384	0.015188
O10	O	-4.576210	-0.288275	-0.255142
O11	O	-4.576223	-0.422458	-0.120977
O12	O	-4.303733	-0.152124	-0.118055
C13	C	-3.754011	-0.292354	-0.295029
C14	C	-3.783206	-0.291245	-0.401986
C15	C	-4.021785	-0.293315	-0.650121
C16	C	-3.836760	-0.289250	-0.597814
C17	C	-3.806963	-0.290360	-0.488845
C18	C	-4.051590	-0.292205	-0.759100
C19	C	-3.754026	-0.462340	-0.125063
C20	C	-3.783229	-0.569297	-0.123960
C21	C	-3.836757	-0.765126	-0.121937
C22	C	-4.021778	-0.817436	-0.125995
C23	C	-4.051564	-0.926402	-0.124870
C24	C	-3.806964	-0.656150	-0.123063
C25	C	-4.125291	-0.290205	0.047089
C26	C	-4.075333	-0.291320	0.154045
C27	C	-4.125276	-0.120217	-0.122874
C28	C	-4.075312	-0.013258	-0.123973
H29	H	-4.157801	-0.297627	-0.613066
O30	O	-3.674673	-0.284054	-0.642160
C31	C	-3.740968	-0.284096	-0.742666
H32	H	-3.890466	-0.257497	-0.755789
H33	H	-3.620933	-0.233734	-0.770649
H34	H	-3.765111	-0.361088	-0.782832
O35	O	-4.183872	-0.773096	-0.131201
C36	C	-4.117588	-0.672591	-0.131174
H37	H	-3.968088	-0.659469	-0.157773
H38	H	-4.237626	-0.644619	-0.181545
H39	H	-4.093453	-0.632415	-0.054187
O40	O	-3.674711	-0.809481	-0.116839
C41	C	-3.741000	-0.909978	-0.116824
H42	H	-3.910112	-0.932464	-0.151379
H43	H	-3.651062	-0.952334	-0.160289
H44	H	-3.715428	-0.926402	-0.038795
