data_functionalizedCrystal
_audit_creation_method	'MofGen! by Chris Wilmer'
_symmetry_space_group_name_H-M	'P1'
_symmetry_Int_Tables_number	1
_symmetry_cell_setting	triclinic
loop_
_symmetry_equiv_pos_as_xyz
  x,y,z
_cell_length_a	9.065218
_cell_length_b	9.130313
_cell_length_c	9.065218
_cell_angle_alpha	90.001985
_cell_angle_beta	94.984115
_cell_angle_gamma	90.003152
loop_
_atom_site_label
_atom_site_type_symbol
_atom_site_fract_x
_atom_site_fract_y
_atom_site_fract_z
O1	O	1.960399	0.121797	-0.216347
O2	O	1.531115	0.121798	-0.234093
O3	O	1.754630	0.121794	-0.010577
O4	O	1.736884	0.121800	-0.439862
O5	O	1.754615	-0.121805	-0.010591
O6	O	1.531099	-0.121801	-0.234106
O7	O	1.960384	-0.121802	-0.216360
Cu8	Cu	1.745740	-0.144044	-0.225234
Cu9	Cu	1.745758	0.144040	-0.225219
O10	O	1.736868	-0.121798	-0.439875
C11	C	1.476120	-0.000001	-0.232394
C12	C	1.312277	-0.000000	-0.227294
N13	N	1.745738	-0.346667	-0.225245
C14	C	1.836420	-0.423332	-0.315980
C15	C	1.836442	-0.576668	-0.315953
C16	C	1.655086	-0.576662	-0.134451
C17	C	1.655074	-0.423328	-0.134472
C18	C	1.927085	-0.346671	-0.406753
C19	C	2.017773	-0.423336	-0.497496
C20	C	2.017794	-0.576673	-0.497469
C21	C	1.927127	-0.653344	-0.406698
C22	C	2.015378	0.000000	-0.218059
C23	C	2.179221	0.000009	-0.223158
C24	C	1.752917	-0.000003	0.044403
C25	C	1.747817	0.000004	0.208245
N26	N	1.745772	0.346662	-0.225197
C27	C	1.738582	0.000002	-0.494855
C28	C	1.743681	0.000004	-0.658698
H29	H	1.927074	-0.221816	-0.406789
H30	H	1.927166	-0.778201	-0.406669
H31	H	2.091599	-0.360900	-0.571390
H32	H	2.091647	-0.639089	-0.571346
C33	C	1.555340	-0.338984	-0.034657
H34	H	1.568336	-0.236685	-0.047656
H35	H	1.454746	-0.364117	-0.060640
H36	H	1.581441	-0.364099	0.065927
H37	H	1.581267	-0.639100	-0.060552
