data_functionalizedCrystal
_audit_creation_method	'MofGen! by Chris Wilmer'
_symmetry_space_group_name_H-M	'P1'
_symmetry_Int_Tables_number	1
_symmetry_cell_setting	triclinic
loop_
_symmetry_equiv_pos_as_xyz
  x,y,z
_cell_length_a	16.109301
_cell_length_b	10.654550
_cell_length_c	14.586319
_cell_angle_alpha	89.996358
_cell_angle_beta	89.999213
_cell_angle_gamma	83.973206
loop_
_atom_site_label
_atom_site_type_symbol
_atom_site_fract_x
_atom_site_fract_y
_atom_site_fract_z
O1	O	1.104091	0.161419	-0.076182
O2	O	0.862148	0.181507	-0.076197
O3	O	0.988682	-0.011352	-0.076183
O4	O	0.977557	0.354278	-0.076195
O5	O	0.988673	-0.011354	0.076298
O6	O	0.862139	0.181504	0.076284
O7	O	1.104082	0.161416	0.076299
Cu8	Cu	0.983110	0.171460	0.090214
Cu9	Cu	0.983120	0.171463	-0.090112
O10	O	0.977548	0.354275	0.076285
C11	C	0.831164	0.180692	0.000042
C12	C	0.738854	0.178253	0.000037
C13	C	0.517228	0.287019	0.000044
C14	C	0.430494	0.284717	0.000049
C15	C	0.449008	0.055896	0.000053
C16	C	0.535741	0.058199	0.000054
C17	C	0.569848	0.173764	0.000044
C18	C	0.396382	0.169159	0.000050
C19	C	0.302341	0.166662	0.000056
C20	C	0.663895	0.176262	0.000040
C21	C	0.987861	-0.058140	0.000057
C22	C	0.985417	-0.197550	0.000055
C23	C	1.059918	-0.278046	0.000059
C24	C	1.057616	-0.409036	0.000048
C25	C	0.906306	-0.379020	0.000032
C26	C	0.908608	-0.248033	0.000037
C27	C	1.145364	-0.606070	-0.053373
C28	C	1.219869	-0.686572	-0.053353
C29	C	1.287407	-0.657317	0.000086
C30	C	1.280443	-0.547563	0.053528
C31	C	1.205937	-0.467068	0.053516
C32	C	1.138402	-0.496322	0.000056
C33	C	0.820866	-0.050997	0.053465
C34	C	0.746359	0.029500	0.053460
C35	C	0.678814	0.000249	0.000026
C36	C	0.685770	-0.109507	-0.053402
C37	C	0.760277	-0.190004	-0.053397
C38	C	0.827822	-0.160745	0.000036
C39	C	1.135066	0.162231	0.000058
C40	C	1.227376	0.164671	0.000058
C41	C	0.978369	0.401063	0.000043
C42	C	0.980813	0.540473	0.000039
N43	N	0.983108	0.171457	0.217046
N44	N	0.983128	0.171457	-0.216944
C45	C	1.039156	0.086088	0.452058
C46	C	1.039159	0.086084	0.548040
C47	C	0.927074	0.256830	0.548037
C48	C	0.927068	0.256826	0.452058
C49	C	0.983114	0.171456	0.404071
C50	C	0.983122	0.171457	0.596031
C51	C	0.983124	0.171455	0.700099
C52	C	0.983111	0.171457	0.299997
H53	H	0.387654	0.376940	0.000051
H54	H	0.421227	-0.038193	0.000067
C55	C	0.554748	0.414136	0.000041
C56	C	0.650149	0.416680	0.000037
C57	C	0.687666	0.543802	0.000037
C58	C	0.629781	0.668379	0.000040
C59	C	0.534374	0.665839	0.000044
C60	C	0.496857	0.538718	0.000044
H61	H	0.693004	0.324457	0.000035
H62	H	0.758293	0.545681	0.000034
H63	H	0.657553	0.762482	0.000040
H64	H	0.491519	0.758063	0.000046
H65	H	0.426230	0.536839	0.000047
H66	H	0.875872	-0.027152	0.096959
H67	H	1.084791	0.016573	0.412990
C68	C	1.100808	-0.007819	0.600827
C69	C	1.162461	-0.101708	0.548041
C70	C	1.224113	-0.195616	0.600829
C71	C	1.224111	-0.195636	0.706402
C72	C	1.162456	-0.101743	0.759194
C73	C	1.100805	-0.007835	0.706407
H74	H	1.162465	-0.101696	0.469884
H75	H	1.269754	-0.265122	0.561748
H76	H	1.269749	-0.265152	0.745479
H77	H	1.162453	-0.101754	0.837352
H78	H	1.055163	0.061671	0.745487
C79	C	1.198269	-0.346345	0.112293
C80	C	1.272557	-0.314162	0.171086
C81	C	1.264893	-0.193433	0.229860
C82	C	1.182942	-0.104886	0.229841
C83	C	1.108648	-0.137066	0.171045
C84	C	1.116312	-0.257795	0.112271
H85	H	1.333227	-0.379712	0.171103
H86	H	1.319890	-0.169612	0.273385
H87	H	1.177269	-0.015515	0.273349
H88	H	1.047978	-0.071516	0.171029
H89	H	1.061315	-0.281616	0.068747
C90	C	0.865418	0.350738	0.399263
C91	C	0.803801	0.444690	0.452040
C92	C	0.742152	0.538593	0.399245
C93	C	0.742121	0.538544	0.293671
C94	C	0.803741	0.444589	0.240887
C95	C	0.865390	0.350686	0.293683
H96	H	0.803821	0.444729	0.530198
H97	H	0.696537	0.608144	0.438319
H98	H	0.696485	0.608057	0.254588
H99	H	0.803720	0.444550	0.162730
H100	H	0.911005	0.281135	0.254609
H101	H	0.618142	0.065794	0.000039
C102	C	1.354736	-0.515392	0.112321
C103	C	1.390060	-0.607193	0.187669
C104	C	1.464356	-0.575017	0.246460
C105	C	1.503328	-0.451041	0.229904
C106	C	1.468005	-0.359232	0.154552
C107	C	1.393709	-0.391407	0.095761
H108	H	1.361210	-0.698975	0.199928
H109	H	1.490504	-0.642981	0.302240
H110	H	1.558327	-0.427222	0.273424
H111	H	1.496855	-0.267450	0.142293
H112	H	1.367561	-0.323444	0.039981
H113	H	1.122460	-0.236948	0.000072
C114	C	0.767934	-0.310736	-0.112172
C115	C	0.693638	-0.342921	-0.170952
C116	C	0.701296	-0.463650	-0.229726
C117	C	0.783248	-0.552194	-0.229720
C118	C	0.857549	-0.520011	-0.170938
C119	C	0.849892	-0.399282	-0.112164
H120	H	0.632967	-0.277374	-0.170959
H121	H	0.646293	-0.487474	-0.273241
H122	H	0.788917	-0.641565	-0.273228
H123	H	0.918221	-0.585558	-0.170931
H124	H	0.904895	-0.375458	-0.068649
C125	C	0.611474	-0.141695	-0.112187
C126	C	0.527697	-0.161034	-0.066238
C127	C	0.453399	-0.193221	-0.125020
C128	C	0.462877	-0.206070	-0.229751
C129	C	0.546657	-0.186731	-0.275706
C130	C	0.620955	-0.154543	-0.216924
H131	H	0.520678	-0.151523	0.011296
H132	H	0.391379	-0.207537	-0.091000
H133	H	0.407876	-0.229897	-0.273265
H134	H	0.553676	-0.196242	-0.353240
H135	H	0.682975	-0.140227	-0.250943
H136	H	1.225535	-0.775931	-0.096872
H137	H	0.578586	-0.034032	0.000057
H138	H	1.348071	-0.722871	0.000101
H139	H	0.740696	0.118862	0.096976
H140	H	1.090378	-0.629892	-0.096901
H141	H	0.881444	0.326338	0.587118
H142	H	0.843771	-0.420140	0.000019
