data_functionalizedCrystal
_audit_creation_method	'MofGen! by Chris Wilmer'
_symmetry_space_group_name_H-M	'P1'
_symmetry_Int_Tables_number	1
_symmetry_cell_setting	triclinic
loop_
_symmetry_equiv_pos_as_xyz
  x,y,z
_cell_length_a	20.919309
_cell_length_b	17.917603
_cell_length_c	17.917603
_cell_angle_alpha	60.138055
_cell_angle_beta	90.204349
_cell_angle_gamma	60.553501
loop_
_atom_site_label
_atom_site_type_symbol
_atom_site_fract_x
_atom_site_fract_y
_atom_site_fract_z
Zr1	Zr	0.676095	0.748213	-0.097077
O2	O	0.581024	0.901492	-0.222110
O3	O	0.700696	0.593851	-0.054262
O4	O	0.712700	0.734662	-0.209103
O5	O	0.564720	0.771748	0.049769
O6	O	0.821736	0.725204	-0.203945
O7	O	0.569021	0.760681	-0.067270
O8	O	0.800264	0.473319	0.073037
O9	O	0.586193	1.023633	-0.227213
O10	O	0.798050	0.650685	-0.037572
O11	O	0.713468	0.666002	0.045923
O12	O	0.727601	0.831789	-0.136382
O13	O	0.643019	0.847106	-0.052887
Zr14	Zr	0.843137	0.750779	0.097812
Zr15	Zr	0.849995	0.733129	-0.088851
Zr16	Zr	0.669237	0.765863	0.089585
Zr17	Zr	0.684338	0.943013	-0.105215
Zr18	Zr	0.834894	0.555978	0.105950
O19	O	0.818536	0.905140	0.054997
O20	O	0.828288	0.880045	-0.210414
O21	O	0.571272	0.926588	0.043300
O22	O	0.938208	0.597499	0.222845
O23	O	0.947960	0.572404	-0.042565
O24	O	0.690944	0.618947	0.211148
O25	O	0.954512	0.727244	-0.049034
O26	O	0.806532	0.764329	0.209837
O27	O	0.697496	0.773787	0.204679
O28	O	0.950211	0.738310	0.068004
O29	O	0.724420	1.011643	-0.220674
O30	O	0.794812	0.487349	0.221409
O31	O	0.933039	0.475359	0.227948
O32	O	0.938491	0.461329	0.079576
O33	O	0.580741	1.037662	-0.078841
O34	O	0.718968	1.025672	-0.072302
O35	O	0.791631	0.667203	0.137117
O36	O	0.876213	0.651886	0.053622
O37	O	0.805764	0.832989	-0.045188
O38	O	0.721182	0.848306	0.038307
C39	C	0.749306	0.505830	0.010547
C40	C	0.745806	0.423133	0.014002
C41	C	0.739413	0.271720	0.020311
C42	C	0.779817	0.227267	-0.019574
C43	C	0.776260	0.143016	-0.016064
C44	C	0.742969	0.355979	0.016802
C45	C	0.542093	0.768364	-0.009923
C46	C	0.468268	0.774767	-0.013415
C47	C	0.470357	0.683243	0.036517
C48	C	0.400988	0.689267	0.033234
C49	C	0.329531	0.786814	-0.019988
C50	C	0.327445	0.878345	-0.069922
C51	C	0.396813	0.872321	-0.066633
C52	C	0.118245	0.809731	-0.032495
C53	C	0.048875	0.815748	-0.035783
C54	C	0.122423	0.626669	0.067375
C55	C	0.191789	0.620654	0.070655
C56	C	0.189697	0.712185	0.020725
C57	C	0.258624	0.792973	-0.023348
C58	C	0.260603	0.706026	0.024090
C59	C	0.977138	0.730628	0.010657
C60	C	1.050964	0.724224	0.014150
C61	C	0.768195	0.727418	-0.233119
C62	C	0.771107	0.719926	-0.312362
C63	C	0.769926	0.993161	-0.009812
C64	C	0.773426	1.075859	-0.013267
C65	C	0.776442	0.706238	-0.457465
C66	C	0.742792	0.792749	-0.541803
C67	C	0.745760	0.785133	-0.622543
C68	C	0.773474	0.713852	-0.376716
C69	C	0.751037	0.771573	0.233854
C70	C	0.748125	0.779066	0.313097
C71	C	0.966828	0.486962	0.020837
C72	C	1.037154	0.397861	0.027784
C73	C	0.740726	0.527908	0.244033
C74	C	0.734315	0.452703	0.326732
C75	C	0.958249	0.509040	0.254323
C76	C	1.025663	0.427431	0.340514
C77	C	0.560983	0.989952	-0.253589
C78	C	0.493569	1.071560	-0.339779
C79	C	0.552404	1.012029	-0.020102
C80	C	0.482078	1.101130	-0.027050
C81	C	0.778505	0.971084	-0.243299
C82	C	0.784916	1.046289	-0.325997
C83	C	1.029380	0.355391	-0.016563
C84	C	1.095453	0.271680	-0.010054
C85	C	1.169299	0.230437	0.040809
C86	C	1.177072	0.272915	0.085157
C87	C	1.111000	0.356629	0.078642
C88	C	0.772105	0.418013	0.413177
C89	C	0.766078	0.347362	0.490888
C90	C	0.722266	0.311396	0.482150
C91	C	0.684472	0.346093	0.395695
C92	C	0.690495	0.416748	0.317986
C93	C	1.101480	0.381111	0.337406
C94	C	1.164830	0.304441	0.418384
C95	C	1.152362	0.274087	0.502468
C96	C	1.076537	0.320415	0.505573
C97	C	1.013189	0.397089	0.424596
C98	C	0.417753	1.117890	-0.336672
C99	C	0.354403	1.194584	-0.417651
C100	C	0.366872	1.224942	-0.501735
C101	C	0.442696	1.178609	-0.504840
C102	C	0.506044	1.101921	-0.423863
C103	C	0.489853	1.143608	0.017290
C104	C	0.423781	1.227338	0.010759
C105	C	0.349935	1.268584	-0.040107
C106	C	0.342162	1.226102	-0.084451
C107	C	0.408233	1.142379	-0.077925
C108	C	0.828735	1.082232	-0.317230
C109	C	0.834773	1.152884	-0.394926
C110	C	0.796989	1.187597	-0.481387
C111	C	0.753169	1.151647	-0.490152
C112	C	0.747136	1.080990	-0.412457
H113	H	0.528536	0.603810	0.079860
H114	H	0.807477	0.626459	-0.445900
H115	H	1.066397	0.295689	0.574046
N116	N	0.949736	0.399862	-0.071423
H117	H	0.954849	0.360248	-0.098527
H118	H	0.924091	0.476188	-0.121964
H119	H	0.722407	1.179921	-0.560559
N120	N	0.278677	1.358871	-0.047123
H121	H	0.230712	1.378558	-0.086070
H122	H	0.282402	1.420833	-0.075733
N123	N	0.931414	0.447031	0.427950
H124	H	0.905085	0.524965	0.394385
H125	H	0.933196	0.416081	0.493528
N126	N	0.649687	0.454219	0.224745
H127	H	0.621007	0.420727	0.231009
H128	H	0.689286	0.434235	0.194225
H129	H	0.817079	0.252484	-0.056358
H130	H	0.711451	1.051733	-0.419608
H131	H	0.401892	1.107796	-0.114030
H132	H	0.549976	1.110033	0.058715
N133	N	0.701676	0.898438	-0.557134
H134	H	0.705355	0.888966	-0.496441
H135	H	0.645231	0.942061	-0.594580
N136	N	0.404284	1.085171	-0.245994
H137	H	0.430538	1.099469	-0.212361
H138	H	0.426643	1.007963	-0.208608
H139	H	0.116531	0.884261	-0.073168
H140	H	1.226564	0.266727	0.415840
N141	N	0.587819	1.051939	-0.427211
H142	H	0.598037	1.107545	-0.462273
H143	H	0.594091	1.016033	-0.458434
H144	H	0.292670	1.232297	-0.415105
N145	N	0.690057	0.238326	0.069033
H146	H	0.694482	0.182002	0.064662
H147	H	0.634030	0.300516	0.039816
N148	N	-0.028199	0.920968	-0.093175
H149	H	-0.071824	0.910891	-0.087681
H150	H	-0.030526	0.957066	-0.158977
N151	N	1.114951	0.413835	0.246729
H152	H	1.092572	0.491054	0.209273
H153	H	1.088717	0.399459	0.213168
N154	N	1.256722	0.228427	0.140014
H155	H	1.297392	0.168948	0.137409
H156	H	1.259449	0.201706	0.205426
N157	N	0.403240	0.590552	0.087089
H158	H	0.459033	0.527843	0.121298
H159	H	0.377670	0.584792	0.044119
N160	N	0.268860	0.515441	0.128046
H161	H	0.259657	0.458373	0.159178
H162	H	0.297638	0.512959	0.175510
H163	H	1.203951	0.211652	0.568398
H164	H	0.124118	0.552150	0.108025
N165	N	0.298543	1.307655	-0.589072
H166	H	0.248624	1.332391	-0.574336
H167	H	0.298745	1.277169	-0.623744
H168	H	0.282028	1.259698	-0.125866
H169	H	1.117340	0.391198	0.114761
N170	N	0.250372	0.983554	-0.127317
H171	H	0.221565	0.986124	-0.174831
H172	H	0.259636	1.040564	-0.158388
N173	N	0.803503	1.263812	-0.565175
H174	H	0.750025	1.329900	-0.606430
H175	H	0.827884	1.231207	-0.598671
N176	N	1.087059	0.225876	-0.057891
H177	H	1.030250	0.264704	-0.091091
H178	H	1.109152	0.149495	-0.011501
H179	H	0.395107	0.946851	-0.107282
N180	N	1.240559	0.140147	0.047830
H181	H	1.224421	0.119505	0.012017
H182	H	1.268922	0.078666	0.113871
H183	H	0.318785	0.626603	0.067427
N184	N	0.456138	1.211357	-0.595534
H185	H	0.404499	1.266964	-0.646354
H186	H	0.484545	1.148706	-0.598509
H187	H	0.430126	1.261913	0.046874
N188	N	0.181549	0.898178	-0.080747
H189	H	0.152743	0.900736	-0.128254
H190	H	0.190805	0.955194	-0.111827
N191	N	0.869490	1.044802	-0.223982
H192	H	0.898165	1.078298	-0.230231
H193	H	0.907681	0.966205	-0.185826
N194	N	0.819363	0.456793	0.422615
H195	H	0.842382	0.424092	0.489175
H196	H	0.784724	0.535445	0.388600
H197	H	0.796859	0.319120	0.561276
H198	H	0.870454	1.182149	-0.387772
H199	H	0.717369	0.253863	0.545433
H200	H	0.648801	0.316799	0.388595
