data_functionalizedCrystal
_audit_creation_method	'MofGen! by Chris Wilmer'
_symmetry_space_group_name_H-M	'P1'
_symmetry_Int_Tables_number	1
_symmetry_cell_setting	triclinic
loop_
_symmetry_equiv_pos_as_xyz
  x,y,z
_cell_length_a	15.944551
_cell_length_b	15.944551
_cell_length_c	14.421503
_cell_angle_alpha	89.996660
_cell_angle_beta	89.996859
_cell_angle_gamma	96.501262
loop_
_atom_site_label
_atom_site_type_symbol
_atom_site_fract_x
_atom_site_fract_y
_atom_site_fract_z
O1	O	1.114529	-0.108320	-0.077017
O2	O	1.614529	0.391680	0.422983
O3	O	0.869980	-0.121677	-0.077040
O4	O	1.369980	0.378323	0.422960
O5	O	0.998933	0.007276	-0.077020
O6	O	1.498933	0.507276	0.422980
O7	O	0.985576	-0.237273	-0.077038
O8	O	1.485576	0.262727	0.422962
O9	O	0.998911	0.007257	0.077204
O10	O	1.498911	0.507257	0.577204
O11	O	0.869958	-0.121696	0.077183
O12	O	1.369958	0.378304	0.577183
O13	O	1.114508	-0.108340	0.077206
O14	O	1.614508	0.391660	0.577206
Cu15	Cu	0.992231	-0.115020	0.091277
Cu16	Cu	1.492231	0.384980	0.591277
Cu17	Cu	0.992256	-0.114997	-0.091110
Cu18	Cu	1.492256	0.385003	0.408890
O19	O	0.985555	-0.237293	0.077186
O20	O	1.485555	0.262707	0.577186
C21	C	0.838675	-0.121132	0.000069
C22	C	1.338675	0.378868	0.500069
C23	C	0.745429	-0.119470	0.000060
C24	C	1.245429	0.380530	0.500060
C25	C	0.530572	-0.035565	0.000084
C26	C	1.030572	0.464435	0.500084
C27	C	0.469563	-0.074518	-0.075959
C28	C	0.969563	0.425482	0.424041
C29	C	0.574703	-0.116462	0.000071
C30	C	1.074703	0.383538	0.500071
C31	C	0.469564	-0.074556	0.076093
C32	C	0.969564	0.425444	0.576093
C33	C	0.409790	-0.113551	0.000086
C34	C	0.909790	0.386449	0.500086
C35	C	0.514922	-0.155437	-0.076035
C36	C	1.014922	0.344563	0.423965
C37	C	0.514929	-0.155464	0.076086
C38	C	1.014929	0.344536	0.576086
C39	C	0.453937	-0.194476	0.000024
C40	C	0.953937	0.305524	0.500024
C41	C	0.669705	-0.118137	0.000062
C42	C	1.169705	0.381863	0.500062
C43	C	0.314789	-0.111883	0.000089
C44	C	0.814789	0.388117	0.500089
C45	C	0.998367	0.038561	0.000092
C46	C	1.498367	0.538561	0.500092
C47	C	0.996705	0.131807	0.000093
C48	C	1.496705	0.631807	0.500093
C49	C	1.145813	-0.108885	0.000096
C50	C	1.645813	0.391115	0.500096
C51	C	1.239059	-0.110547	0.000098
C52	C	1.739059	0.389453	0.500098
C53	C	0.986120	-0.268577	0.000072
C54	C	1.486120	0.231423	0.500072
C55	C	0.987782	-0.361823	0.000066
C56	C	1.487782	0.138177	0.500066
N57	N	0.992219	-0.115035	0.219558
N58	N	1.492219	0.384965	0.719558
C59	C	0.912801	0.346663	0.000072
C60	C	1.412801	0.846663	0.500072
C61	C	0.951753	0.407671	0.076117
C62	C	1.451753	0.907671	0.576117
C63	C	0.993698	0.302533	0.000085
C64	C	1.493698	0.802533	0.500085
C65	C	0.951793	0.407674	-0.075935
C66	C	1.451793	0.907674	0.424065
C67	C	0.990787	0.467445	0.000074
C68	C	1.490787	0.967445	0.500074
C69	C	1.032672	0.362312	0.076193
C70	C	1.532672	0.862312	0.576193
C71	C	1.032701	0.362308	-0.075927
C72	C	1.532701	0.862308	0.424073
C73	C	1.071711	0.423298	0.000136
C74	C	1.571711	0.923298	0.500136
C75	C	0.995372	0.207530	0.000092
C76	C	1.495372	0.707530	0.500092
C77	C	0.989119	0.562446	0.000073
C78	C	1.489119	1.062446	0.500073
N79	N	0.992275	-0.114975	-0.219392
N80	N	1.492275	0.385025	0.280608
C81	C	0.932581	-0.174636	0.469202
C82	C	1.432581	0.325364	0.969202
C83	C	1.008481	-0.190943	0.531011
C84	C	1.508481	0.309057	1.031011
C85	C	0.992240	-0.115015	0.408719
C86	C	1.492240	0.384985	0.908719
C87	C	0.916359	-0.098727	0.531005
C88	C	1.416359	0.401273	1.031005
C89	C	0.992253	-0.114997	0.591441
C90	C	1.492253	0.385003	1.091441
C91	C	1.068178	-0.131360	0.469167
C92	C	1.568178	0.368640	0.969167
C93	C	0.976007	-0.039111	0.469156
C94	C	1.476007	0.460889	0.969156
C95	C	1.051961	-0.055386	0.530936
C96	C	1.551961	0.444614	1.030936
C97	C	0.992231	-0.115027	0.303458
C98	C	1.492231	0.384973	0.803458
C99	C	0.992270	-0.114985	0.696700
C100	C	1.492270	0.385015	1.196700
H101	H	0.535052	-0.189660	0.140373
H102	H	1.035052	0.310340	0.640373
C103	C	1.162464	0.468181	0.000252
C104	C	1.662464	0.968181	0.500252
H105	H	1.171198	0.502150	-0.053771
H106	H	1.671198	1.002150	0.446229
H107	H	1.170772	0.502819	0.053797
H108	H	1.670772	1.002819	0.553797
H109	H	1.201405	0.427282	0.000801
H110	H	1.701405	0.927282	0.500801
H111	H	0.449469	-0.040333	0.140379
H112	H	0.949469	0.459667	0.640379
C113	C	1.078837	0.335302	0.163144
C114	C	1.578837	0.835302	0.663144
H115	H	1.079581	0.275809	0.162634
H116	H	1.579581	0.775809	0.662634
H117	H	1.135117	0.362231	0.163373
H118	H	1.635117	0.862231	0.663373
H119	H	1.050276	0.351190	0.217072
H120	H	1.550276	0.851190	0.717072
C121	C	0.864497	-0.242795	0.432571
C122	C	1.364497	0.257205	0.932571
H123	H	0.824820	-0.216933	0.396326
H124	H	1.324820	0.283067	0.896326
H125	H	0.890293	-0.281867	0.395421
H126	H	1.390293	0.218133	0.895421
H127	H	0.836365	-0.271625	0.483373
H128	H	1.336365	0.228375	0.983373
C129	C	0.829665	-0.080116	0.567689
C130	C	1.329665	0.419884	1.067689
H131	H	0.787342	-0.122534	0.546538
H132	H	1.287342	0.377466	1.046538
H133	H	0.830437	-0.079728	0.633552
H134	H	1.330437	0.420272	1.133552
H135	H	0.817724	-0.026607	0.545588
H136	H	1.317724	0.473393	1.045588
C137	C	1.078894	0.335114	-0.162770
C138	C	1.578894	0.835114	0.337230
H139	H	1.050076	0.350464	-0.216752
H140	H	1.550076	0.850464	0.283248
H141	H	1.135029	0.362410	-0.163312
H142	H	1.635029	0.862410	0.336688
H143	H	1.080054	0.275681	-0.161834
H144	H	1.580054	0.775681	0.338166
H145	H	0.449461	-0.040294	-0.140243
H146	H	0.949461	0.459706	0.359757
H147	H	0.534918	-0.189620	-0.140394
H148	H	1.034918	0.310380	0.359606
C149	C	0.409134	-0.285261	-0.000038
C150	C	0.909134	0.214739	0.499962
H151	H	0.424652	-0.313852	-0.054105
H152	H	0.924652	0.186148	0.445895
H153	H	0.425353	-0.314217	0.053463
H154	H	0.925353	0.185783	0.553463
H155	H	0.349749	-0.283719	0.000468
H156	H	0.849749	0.216281	0.500468
H157	H	0.845652	0.313356	0.000141
H158	H	1.345652	0.813356	0.500141
C159	C	0.905569	0.434817	-0.162785
C160	C	1.405569	0.934817	0.337215
H161	H	0.849124	0.408300	-0.162691
H162	H	1.349124	0.908300	0.337309
H163	H	0.905291	0.494361	-0.162468
H164	H	1.405291	0.994361	0.337532
H165	H	0.933767	0.418515	-0.216780
H166	H	1.433767	0.918515	0.283220
C167	C	1.154891	-0.150073	0.432635
C168	C	1.654891	0.349927	0.932635
H169	H	1.154347	-0.149997	0.366761
H170	H	1.654347	0.350003	0.866761
H171	H	1.197294	-0.107968	0.454264
H172	H	1.697294	0.392032	0.954264
H173	H	1.166518	-0.203817	0.454329
H174	H	1.666518	0.296183	0.954329
H175	H	0.917527	0.427771	0.140401
H176	H	1.417527	0.927771	0.640401
H177	H	1.102474	-0.004956	0.557872
H178	H	1.602474	0.495044	1.057872
C179	C	0.575596	0.055132	-0.000024
C180	C	1.075596	0.555132	0.499976
H181	H	0.560185	0.083744	-0.054124
H182	H	1.060185	0.583744	0.445876
H183	H	0.559434	0.084169	0.053444
H184	H	1.059434	0.584169	0.553444
H185	H	0.634959	0.053431	0.000515
H186	H	1.134959	0.553431	0.500515
C187	C	1.027042	-0.277642	0.567729
C188	C	1.527042	0.222358	1.067729
H189	H	0.984597	-0.319950	0.546599
H190	H	1.484597	0.180050	1.046599
H191	H	1.080540	-0.289622	0.545650
H192	H	1.580540	0.210378	1.045650
H193	H	1.027417	-0.276846	0.633596
H194	H	1.527417	0.223154	1.133596
C195	C	0.957410	0.047562	0.432413
C196	C	1.457410	0.547562	0.932413
H197	H	0.903440	0.059044	0.453547
H198	H	1.403440	0.559044	0.953547
H199	H	0.999241	0.090033	0.454468
H200	H	1.499241	0.590033	0.954468
H201	H	0.958053	0.047074	0.366545
H202	H	1.458053	0.547074	0.866545
