data_functionalizedCrystal
_audit_creation_method	'MofGen! by Chris Wilmer'
_symmetry_space_group_name_H-M	'P1'
_symmetry_Int_Tables_number	1
_symmetry_cell_setting	triclinic
loop_
_symmetry_equiv_pos_as_xyz
  x,y,z
_cell_length_a	35.288046
_cell_length_b	35.277630
_cell_length_c	35.277682
_cell_angle_alpha	90.002754
_cell_angle_beta	59.996631
_cell_angle_gamma	119.999926
loop_
_atom_site_label
_atom_site_type_symbol
_atom_site_fract_x
_atom_site_fract_y
_atom_site_fract_z
O1	O	0.334273	-0.260035	-0.011290
O2	O	0.256671	-0.204913	0.011213
O3	O	0.334270	-0.204912	-0.066412
O4	O	0.256674	-0.260036	0.066334
O5	O	0.271241	-0.267959	-0.066410
O6	O	0.193643	-0.267960	0.011214
O7	O	0.271244	-0.323082	-0.011289
Zn8	Zn	0.222436	-0.305531	-0.000037
Zn9	Zn	0.305479	-0.222464	-0.000039
O10	O	0.193646	-0.323083	0.066335
C11	C	0.061861	-0.027625	0.034093
C12	C	0.015934	-0.050647	0.034413
C13	C	0.061859	-0.096269	0.034096
C14	C	0.015932	-0.119187	0.034416
C15	C	-0.006762	-0.096268	0.034094
C16	C	0.084451	-0.050648	0.034415
C17	C	0.185443	0.137907	0.021662
C18	C	0.210709	0.184784	0.018146
C19	C	0.189025	0.208301	0.016381
C20	C	0.216422	0.259131	0.012561
C21	C	0.142072	0.184936	0.018134
C22	C	0.116806	0.138060	0.021655
C23	C	0.138494	0.114546	0.023419
C24	C	-0.159818	-0.138183	0.021662
C25	C	-0.203168	-0.159789	0.018148
C26	C	-0.224914	-0.204995	0.016384
C27	C	-0.271911	-0.228422	0.012566
C28	C	-0.203310	-0.228597	0.018139
C29	C	-0.159969	-0.206996	0.021662
C30	C	-0.138222	-0.161784	0.023420
C31	C	0.185435	-0.138188	0.021675
C32	C	0.210702	-0.159792	0.018157
C33	C	0.189016	-0.205000	0.016394
C34	C	0.216411	-0.228427	0.012578
C35	C	0.142067	-0.228600	0.018145
C36	C	0.116804	-0.206993	0.021661
C37	C	0.138490	-0.161788	0.023430
C38	C	0.111097	0.063718	0.027233
C39	C	0.089258	0.023203	0.030275
C40	C	0.089254	-0.119693	0.030282
C41	C	0.111091	-0.138365	0.027242
C42	C	-0.053759	-0.119692	0.030277
C43	C	-0.091222	-0.138363	0.027235
O44	O	-0.287296	-0.267953	0.011196
O45	O	-0.397500	-0.323073	-0.011314
O46	O	-0.397517	-0.323076	0.066313
O47	O	-0.287279	-0.267949	-0.066431
O48	O	-0.397516	-0.260030	0.066312
O49	O	-0.397499	-0.260026	-0.011315
O50	O	-0.287296	-0.204906	0.011195
Zn51	Zn	-0.342397	-0.222456	-0.000060
Zn52	Zn	-0.342398	-0.305523	-0.000059
O53	O	-0.287279	-0.204902	-0.066432
C54	C	0.466062	-0.095976	-0.438571
C55	C	0.511990	-0.050356	-0.461489
C56	C	0.466062	-0.095976	-0.369928
C57	C	0.511990	-0.050356	-0.392951
C58	C	0.534685	-0.027334	-0.438571
C59	C	0.443471	-0.118895	-0.392951
C60	C	0.342482	-0.207165	-0.480486
C61	C	0.317218	-0.228923	-0.502091
C62	C	0.338903	-0.205467	-0.547298
C63	C	0.311507	-0.229053	-0.570723
C64	C	0.385857	-0.160254	-0.570900
C65	C	0.411121	-0.138502	-0.549297
C66	C	0.389432	-0.161959	-0.504088
C67	C	0.687745	0.138198	-0.549759
C68	C	0.731095	0.185075	-0.571517
C69	C	0.752841	0.208592	-0.548063
C70	C	0.799838	0.259420	-0.571647
C71	C	0.731235	0.185227	-0.502850
C72	C	0.687893	0.138350	-0.481096
C73	C	0.666147	0.114838	-0.504556
C74	C	0.342482	-0.207165	-0.204395
C75	C	0.317214	-0.228921	-0.157516
C76	C	0.338899	-0.205465	-0.134000
C77	C	0.311502	-0.229051	-0.083170
C78	C	0.385848	-0.160254	-0.157364
C79	C	0.411113	-0.138500	-0.204241
C80	C	0.389428	-0.161962	-0.227755
C81	C	0.416828	-0.138368	-0.480665
C82	C	0.438666	-0.119564	-0.461994
C83	C	0.438666	-0.119564	-0.319100
C84	C	0.416828	-0.138368	-0.278585
C85	C	0.581683	0.023494	-0.462159
C86	C	0.619146	0.064009	-0.480962
C87	C	0.456630	-0.364507	-0.023614
C88	C	0.503400	-0.341114	-0.020397
C89	C	0.433935	-0.410127	-0.023936
C90	C	0.388003	-0.364509	-0.023608
C91	C	0.361398	-0.341119	-0.020386
C92	C	0.365413	-0.410129	-0.023930
C93	C	0.388007	-0.433150	-0.023613
C94	C	0.361405	-0.483152	-0.020395
C95	C	0.433932	-0.341590	-0.023931
C96	C	0.339913	-0.523548	-0.017794
C97	C	0.541186	-0.322216	-0.017798
C98	C	0.339903	-0.322222	-0.017781
C99	C	0.312950	-0.574227	-0.014531
C100	C	0.588589	-0.298507	-0.014537
C101	C	0.312937	-0.298516	-0.014514
O102	O	0.271260	0.408636	-0.011310
O103	O	0.193660	0.275892	0.011188
O104	O	0.271262	0.353507	-0.066434
O105	O	0.193658	0.331021	0.066312
O106	O	0.334288	0.353506	-0.066432
O107	O	0.256686	0.275891	0.011190
O108	O	0.334286	0.408635	-0.011307
Zn109	Zn	0.305493	0.342263	-0.000058
Zn110	Zn	0.222453	0.342264	-0.000061
O111	O	0.256685	0.331020	0.066315
O112	O	0.925440	0.408923	-0.602627
O113	O	0.815222	0.276180	-0.547506
O114	O	0.815219	0.353797	-0.547499
O115	O	0.925443	0.331306	-0.602634
O116	O	0.815221	0.353798	-0.610546
O117	O	0.815224	0.276182	-0.610553
O118	O	0.925441	0.408925	-0.665674
Zn119	Zn	0.870333	0.342553	-0.648124
Zn120	Zn	0.870331	0.342551	-0.565056
O121	O	0.925445	0.331308	-0.665681
O122	O	0.256670	-0.260040	-0.665375
O123	O	0.334270	-0.204912	-0.610254
O124	O	0.256669	-0.204915	-0.610247
O125	O	0.334271	-0.260037	-0.665382
O126	O	0.193642	-0.267961	-0.547200
O127	O	0.271242	-0.267958	-0.547207
O128	O	0.193643	-0.323086	-0.602328
Zn129	Zn	0.222436	-0.305532	-0.564757
Zn130	Zn	0.305477	-0.222466	-0.647825
O131	O	0.271244	-0.323083	-0.602334
C132	C	0.071298	-0.433159	0.293194
C133	C	0.024529	-0.483161	0.316585
C134	C	0.093993	-0.410137	0.316113
C135	C	0.139922	-0.364516	0.224551
C136	C	0.166525	-0.341124	0.174549
C137	C	0.162512	-0.341598	0.247574
C138	C	0.139921	-0.364516	0.293194
C139	C	0.166523	-0.341125	0.316586
C140	C	0.093994	-0.410136	0.247574
C141	C	0.188016	-0.322228	0.335483
C142	C	-0.013254	-0.523557	0.335482
C143	C	0.188018	-0.322226	0.134152
C144	C	0.214979	-0.298520	0.359192
C145	C	-0.060657	-0.574236	0.359190
C146	C	0.214982	-0.298517	0.083472
C147	C	-0.612037	-0.364514	0.293169
C148	C	-0.638643	-0.341123	0.316560
C149	C	-0.634631	-0.410135	0.316087
C150	C	-0.543405	-0.364512	0.224527
C151	C	-0.496629	-0.341119	0.174526
C152	C	-0.566103	-0.410133	0.247549
C153	C	-0.612036	-0.433156	0.293169
C154	C	-0.638641	-0.483159	0.316559
C155	C	-0.566104	-0.341594	0.247550
C156	C	-0.660136	-0.523556	0.335456
C157	C	-0.660139	-0.322226	0.335457
C158	C	-0.458839	-0.322220	0.134129
C159	C	-0.687102	-0.574235	0.359163
C160	C	-0.687106	-0.298519	0.359165
C161	C	-0.411430	-0.298511	0.083450
C162	C	0.139938	0.318749	0.293170
C163	C	0.166540	0.321971	0.316562
C164	C	0.094012	0.318433	0.316087
C165	C	0.139937	0.318739	0.224527
C166	C	0.166539	0.321950	0.174526
C167	C	0.094011	0.318423	0.247548
C168	C	0.071317	0.318751	0.293167
C169	C	0.024550	0.321975	0.316557
C170	C	0.162528	0.318421	0.247551
C171	C	-0.013232	0.324581	0.335452
C172	C	0.188033	0.324576	0.335460
C173	C	0.188031	0.324545	0.134130
C174	C	-0.060633	0.327849	0.359158
C175	C	0.214996	0.327842	0.359168
C176	C	0.214994	0.327800	0.083451
C177	C	0.061934	-0.027613	-0.438587
C178	C	0.084528	-0.050635	-0.461504
C179	C	-0.006698	-0.096257	-0.369945
C180	C	0.016001	-0.119175	-0.392967
C181	C	0.061934	-0.096256	-0.438586
C182	C	0.016000	-0.050637	-0.392967
C183	C	0.116265	0.137919	-0.480501
C184	C	0.141380	0.184796	-0.502105
C185	C	0.188343	0.208312	-0.547312
C186	C	0.215581	0.259142	-0.570737
C187	C	0.210188	0.184948	-0.570913
C188	C	0.185070	0.138072	-0.549311
C189	C	0.138106	0.114558	-0.504102
C190	C	0.185528	-0.138170	-0.549771
C191	C	0.210795	-0.159775	-0.571528
C192	C	0.189110	-0.204981	-0.548075
C193	C	0.216506	-0.228408	-0.571657
C194	C	0.142151	-0.228584	-0.502862
C195	C	0.116880	-0.206983	-0.481109
C196	C	0.138577	-0.161771	-0.504569
C197	C	-0.159781	-0.138177	-0.204414
C198	C	-0.203134	-0.159782	-0.157535
C199	C	-0.224883	-0.204989	-0.134020
C200	C	-0.271887	-0.228416	-0.083191
C201	C	-0.203274	-0.228589	-0.157383
C202	C	-0.159921	-0.206982	-0.204260
C203	C	-0.138180	-0.161776	-0.227773
C204	C	0.110876	0.063730	-0.480680
C205	C	0.089168	0.023215	-0.462009
C206	C	-0.053703	-0.119682	-0.319117
C207	C	-0.091172	-0.138354	-0.278603
C208	C	0.089333	-0.119679	-0.462173
C209	C	0.111173	-0.138350	-0.480976
O210	O	-0.743364	-0.724116	0.389720
O211	O	-0.665762	-0.591373	0.334597
O212	O	-0.743351	-0.668988	0.334588
O213	O	-0.665774	-0.646501	0.389729
O214	O	-0.806387	-0.668988	0.397633
O215	O	-0.728798	-0.591373	0.397642
O216	O	-0.806400	-0.724117	0.452765
Zn217	Zn	-0.777607	-0.657745	0.435213
Zn218	Zn	-0.694555	-0.657745	0.352149
O219	O	-0.728810	-0.646501	0.452774
C220	C	0.534400	0.376340	-0.438585
C221	C	0.511705	0.376658	-0.461504
C222	C	0.465779	0.376352	-0.369944
C223	C	0.443189	0.376669	-0.392968
C224	C	0.465779	0.376341	-0.438587
C225	C	0.511706	0.376669	-0.392965
C226	C	0.687454	0.363904	-0.480493
C227	C	0.730803	0.360386	-0.502097
C228	C	0.752547	0.358614	-0.547303
C229	C	0.799543	0.354791	-0.570726
C230	C	0.730942	0.360365	-0.570905
C231	C	0.687602	0.363889	-0.549304
C232	C	0.665857	0.365658	-0.504096
C233	C	0.411450	0.363896	-0.549775
C234	C	0.386339	0.360379	-0.571533
C235	C	0.339382	0.358617	-0.548080
C236	C	0.312147	0.354797	-0.571665
C237	C	0.317542	0.360379	-0.502868
C238	C	0.342658	0.363904	-0.481114
C239	C	0.389614	0.365660	-0.504573
C240	C	0.411453	0.363951	-0.204413
C241	C	0.386338	0.360439	-0.157535
C242	C	0.339382	0.358679	-0.134021
C243	C	0.312147	0.354869	-0.083192
C244	C	0.317541	0.360428	-0.157385
C245	C	0.342656	0.363938	-0.204261
C246	C	0.389616	0.365704	-0.227774
C247	C	0.618857	0.369475	-0.480675
C248	C	0.581396	0.372519	-0.462006
C249	C	0.438548	0.372544	-0.319117
C250	C	0.416843	0.369510	-0.278603
C251	C	0.438547	0.372521	-0.462175
C252	C	0.416842	0.369478	-0.480978
H253	H	0.078577	0.119040	0.023085
H254	H	0.452933	-0.428608	-0.024454
Br255	Br	0.214970	-0.076816	-0.581607
Br256	Br	0.313052	-0.239004	-0.236306
H257	H	0.075020	0.317906	0.229062
Br258	Br	0.062348	0.317575	0.378562
Br259	Br	0.224105	-0.279122	0.216771
Br260	Br	0.381590	0.377529	-0.362163
H261	H	-0.220723	-0.140562	-0.138515
H262	H	0.074991	-0.428619	0.353599
H263	H	0.328453	-0.428612	-0.024442
Br264	Br	0.760117	0.358008	-0.470064
H265	H	0.670045	0.119057	-0.568864
Br266	Br	0.313041	-0.238999	-0.419130
Br267	Br	-0.130598	-0.239011	-0.235964
H268	H	0.199491	0.317913	0.229066
Br269	Br	0.052531	0.106010	-0.419149
Br270	Br	0.111734	0.216501	-0.470075
H271	H	-0.003002	-0.156661	-0.374484
Br272	Br	0.465584	-0.279118	-0.024785
H273	H	0.074997	-0.428621	0.229092
Br274	Br	0.146129	-0.019830	-0.523979
H275	H	0.748681	0.204095	-0.608328
Br276	Br	0.274426	0.216490	0.015766
Br277	Br	-0.015662	-0.019831	-0.362158
Br278	Br	-0.534420	-0.440929	0.216755
H279	H	0.279312	0.358950	-0.483775
H280	H	-0.671592	-0.428617	0.353570
Br281	Br	-0.534446	-0.279123	0.216739
H282	H	-0.142091	-0.101373	-0.223560
Br283	Br	0.273917	0.216861	-0.632264
H284	H	0.202858	0.119052	-0.568530
H285	H	0.748652	0.358925	-0.607713
H286	H	0.449340	-0.101688	-0.223261
Br287	Br	0.658288	0.366269	-0.581337
Br288	Br	0.274522	-0.127743	-0.632882
H289	H	0.324873	0.365339	-0.444304
H290	H	0.279304	0.358992	-0.138236
Br291	Br	0.112713	-0.289937	-0.471032
H292	H	0.124419	0.204086	0.016699
H293	H	0.078645	-0.226203	-0.444299
Br294	Br	0.543621	-0.019533	-0.362131
H295	H	-0.220987	-0.265402	-0.138235
Br296	Br	0.543389	0.377552	-0.523991
Br297	Br	0.543355	0.377523	-0.362153
Br298	Br	0.415978	0.358060	-0.125828
H299	H	0.449692	0.365392	-0.223556
Br300	Br	0.475173	0.366278	-0.581608
Br301	Br	-0.130302	-0.076826	0.024042
H302	H	0.669755	0.365346	-0.443684
H303	H	0.404124	0.358944	-0.608343
Br304	Br	0.313014	0.366312	-0.235967
H305	H	-0.003060	-0.032163	0.034931
Br306	Br	-0.015722	-0.181658	0.035267
H307	H	0.248930	-0.140573	0.016730
Br308	Br	0.146048	-0.019842	0.035273
H309	H	0.203096	-0.101379	0.023113
H310	H	0.203107	0.118766	0.023099
H311	H	-0.221022	-0.265408	0.016709
Br312	Br	-0.232481	-0.127757	0.015763
H313	H	0.078573	-0.226214	0.023093
Br314	Br	-0.130656	-0.239028	0.024048
Br315	Br	0.760751	0.217137	-0.471020
H316	H	0.530983	-0.031875	-0.498974
Br317	Br	0.112636	-0.289952	0.015747
H318	H	0.278981	-0.265730	-0.138494
Br319	Br	0.253499	-0.290278	-0.470059
Br320	Br	0.381878	-0.181370	-0.362143
H321	H	0.449351	-0.101691	-0.568517
Br322	Br	0.415287	-0.128426	-0.632252
H323	H	0.670307	0.119329	-0.444285
H324	H	0.403503	-0.141154	-0.138213
