data_functionalizedCrystal
_audit_creation_method	'MofGen! by Chris Wilmer'
_symmetry_space_group_name_H-M	'P1'
_symmetry_Int_Tables_number	1
_symmetry_cell_setting	triclinic
loop_
_symmetry_equiv_pos_as_xyz
  x,y,z
_cell_length_a	14.519709
_cell_length_b	10.540539
_cell_length_c	13.596369
_cell_angle_alpha	89.996161
_cell_angle_beta	89.999184
_cell_angle_gamma	95.897182
loop_
_atom_site_label
_atom_site_type_symbol
_atom_site_fract_x
_atom_site_fract_y
_atom_site_fract_z
O1	O	-1.224765	0.166400	-0.081647
O2	O	-0.956394	0.185995	-0.081679
O3	O	-1.096702	-0.008572	-0.081661
O4	O	-1.084457	0.360966	-0.081665
O5	O	-1.096688	-0.008582	0.081922
O6	O	-0.956380	0.185985	0.081904
O7	O	-1.224751	0.166389	0.081936
Zn8	Zn	-1.090563	0.176185	0.107893
Zn9	Zn	-1.090582	0.176199	-0.107635
O10	O	-1.084442	0.360956	0.081918
C11	C	-0.922022	0.185077	0.000109
C12	C	-0.819626	0.182340	0.000096
C13	C	-1.095777	-0.055870	0.000129
C14	C	-1.093029	-0.196790	0.000123
C15	C	-0.444676	0.172265	0.000137
C16	C	-0.548999	0.175063	0.000126
C17	C	-0.632148	0.177303	0.000116
C18	C	-0.736477	0.180101	0.000106
C19	C	-0.987750	-0.379142	-0.000256
C20	C	-0.990535	-0.232553	0.000112
C21	C	-1.142346	-0.258957	0.093543
C22	C	-1.138848	-0.405466	0.093621
C23	C	-1.140949	-0.405994	-0.092403
C24	C	-1.141893	-0.259022	-0.093638
C25	C	-0.259123	0.167308	0.000144
C26	C	-0.361519	0.170044	0.000143
C27	C	-1.085368	0.408255	0.000127
C28	C	-1.088115	0.549175	0.000126
N29	N	-1.090557	0.176175	0.254984
N30	N	-1.090595	0.176199	-0.254727
C31	C	-1.090580	0.176200	0.656275
C32	C	-1.090571	0.176198	0.544624
C33	C	-1.090569	0.176189	0.455634
C34	C	-1.090559	0.176184	0.343975
H35	H	-0.951729	-0.189549	-0.066855
H36	H	-1.212560	-0.454188	0.097868
C37	C	-0.933052	-0.417229	-0.090755
N38	N	-0.891852	-0.445928	-0.158919
C39	C	-0.933277	-0.419360	0.089749
N40	N	-0.892254	-0.449642	0.157550
C41	C	-1.240959	-0.470822	-0.093244
N42	N	-1.316283	-0.519659	-0.093872
H43	H	-1.216619	-0.235563	-0.099270
H44	H	-0.951446	-0.190402	0.067182
C45	C	-1.093191	-0.203248	-0.187005
N46	N	-1.056500	-0.161242	-0.257328
H47	H	-1.102389	-0.433298	0.163446
H48	H	-1.107782	-0.437204	-0.163208
C49	C	-1.244025	-0.229772	0.098264
N50	N	-1.320608	-0.207778	0.101821
H51	H	-1.108076	-0.216013	0.163055
