data_functionalizedCrystal
_audit_creation_method	'MofGen! by Chris Wilmer'
_symmetry_space_group_name_H-M	'P1'
_symmetry_Int_Tables_number	1
_symmetry_cell_setting	triclinic
loop_
_symmetry_equiv_pos_as_xyz
  x,y,z
_cell_length_a	6.817900
_cell_length_b	7.190339
_cell_length_c	16.255661
_cell_angle_alpha	89.339845
_cell_angle_beta	103.488922
_cell_angle_gamma	60.611724
loop_
_atom_site_label
_atom_site_type_symbol
_atom_site_fract_x
_atom_site_fract_y
_atom_site_fract_z
V1	V	-4.114325	0.296814	-0.263269
O2	O	-4.010504	-0.012490	-0.258873
O3	O	-4.151482	0.586827	-0.260877
O4	O	-4.064769	0.293026	-0.378360
O5	O	-4.097817	0.283344	-0.140576
V6	V	-4.587016	0.259725	-0.248666
O7	O	-4.399343	0.378170	-0.295303
O8	O	-4.752195	0.178369	-0.216633
O9	O	-4.326653	-0.030287	-0.251059
O10	O	-4.808234	0.569029	-0.253062
O11	O	-4.720921	0.273195	-0.371359
O12	O	-4.413366	0.263513	-0.133575
C13	C	-3.906721	0.282727	-0.406432
C14	C	-3.948053	0.281549	-0.500515
C15	C	-4.017350	0.657504	-0.256575
C16	C	-4.131109	0.899055	-0.255365
C17	C	-3.854456	0.267479	-0.723362
C18	C	-4.064475	0.449075	-0.792470
C19	C	-4.023785	0.279340	-0.672768
C20	C	-3.887443	0.095665	-0.771302
C21	C	-4.096921	0.277197	-0.839156
C22	C	-4.233334	0.461099	-0.740646
C23	C	-4.056192	0.107529	-0.719462
C24	C	-4.266364	0.289177	-0.788551
C25	C	-3.981649	0.280577	-0.576917
C26	C	-4.139079	0.275977	-0.935007
C27	C	-4.234758	0.273819	-0.105499
C28	C	-4.172661	0.274987	-0.011415
H29	H	-3.680064	0.258540	-0.694900
O30	O	-4.474546	0.299889	-0.822235
C31	C	-4.471256	0.121447	-0.783593
H32	H	-4.335705	0.056662	-0.718540
H33	H	-4.651459	0.173818	-0.774885
H34	H	-4.423949	-0.010428	-0.826107
H35	H	-4.379187	0.615705	-0.726866
H36	H	-3.741633	-0.058733	-0.785225
O37	O	-4.068772	0.621160	-0.830352
C38	C	-3.851904	0.609182	-0.796939
H39	H	-3.710916	0.434634	-0.769737
H40	H	-3.804082	0.669305	-0.850049
H41	H	-3.865346	0.713918	-0.744013
O42	O	-4.051017	-0.064820	-0.681386
C43	C	-3.832361	-0.193121	-0.620793
H44	H	-3.749955	-0.090528	-0.599778
H45	H	-3.857940	-0.260405	-0.562880
H46	H	-3.712379	-0.332177	-0.650721
