data_functionalizedCrystal
_audit_creation_method	'MofGen! by Chris Wilmer'
_symmetry_space_group_name_H-M	'P1'
_symmetry_Int_Tables_number	1
_symmetry_cell_setting	triclinic
loop_
_symmetry_equiv_pos_as_xyz
  x,y,z
_cell_length_a	14.519709
_cell_length_b	26.809956
_cell_length_c	14.519709
_cell_angle_alpha	89.996594
_cell_angle_beta	83.680145
_cell_angle_gamma	90.003229
loop_
_atom_site_label
_atom_site_type_symbol
_atom_site_fract_x
_atom_site_fract_y
_atom_site_fract_z
O1	O	1.223875	0.041416	0.120878
O2	O	1.557208	0.374749	0.454212
O3	O	1.890541	0.708082	0.787545
O4	O	0.955398	0.041431	0.135115
O5	O	1.288731	0.374764	0.468448
O6	O	1.622064	0.708098	0.801781
O7	O	1.096755	0.041419	-0.006242
O8	O	1.430088	0.374752	0.327091
O9	O	1.763421	0.708085	0.660425
O10	O	1.082518	0.041428	0.262235
O11	O	1.415851	0.374762	0.595568
O12	O	1.749185	0.708095	0.928902
O13	O	1.096728	-0.041541	-0.006220
O14	O	1.430061	0.291793	0.327113
O15	O	1.763395	0.625126	0.660446
O16	O	0.955371	-0.041528	0.135136
O17	O	1.288704	0.291805	0.468470
O18	O	1.622038	0.625139	0.801803
O19	O	1.223848	-0.041544	0.120900
O20	O	1.557181	0.291790	0.454233
O21	O	1.890515	0.625123	0.787566
Zn22	Zn	1.089605	-0.054707	0.128021
Zn23	Zn	1.422939	0.278626	0.461355
Zn24	Zn	1.756272	0.611959	0.794688
Zn25	Zn	1.089641	0.054595	0.127993
Zn26	Zn	1.422974	0.387928	0.461326
Zn27	Zn	1.756307	0.721262	0.794660
O28	O	1.082491	-0.041531	0.262257
O29	O	1.415825	0.291802	0.595590
O30	O	1.749158	0.625136	0.928923
C31	C	0.921025	-0.000047	0.134462
C32	C	1.254358	0.333287	0.467795
C33	C	1.587691	0.666620	0.801129
C34	C	0.818643	-0.000041	0.132474
C35	C	1.151977	0.333292	0.465807
C36	C	1.485310	0.666626	0.799141
N37	N	1.089588	-0.129303	0.128040
N38	N	1.422921	0.204030	0.461374
N39	N	1.756255	0.537363	0.794707
C40	C	0.443748	-0.000064	0.125154
C41	C	0.777081	0.333270	0.458488
C42	C	1.110414	0.666603	0.791821
C43	C	0.548056	-0.000057	0.127187
C44	C	0.881389	0.333276	0.460520
C45	C	1.214722	0.666609	0.793854
C46	C	0.631192	-0.000052	0.128814
C47	C	0.964526	0.333281	0.462147
C48	C	1.297859	0.666615	0.795481
C49	C	0.735507	-0.000046	0.130847
C50	C	1.068840	0.333287	0.464180
C51	C	1.402173	0.666620	0.797514
C52	C	1.152225	-0.473935	0.065416
C53	C	1.485559	-0.140602	0.398749
C54	C	1.818892	0.192732	0.732082
C55	C	1.152247	-0.682813	0.065402
C56	C	1.485580	-0.349479	0.398735
C57	C	1.818914	-0.016146	0.732068
O58	O	1.205466	-0.709821	0.012162
O59	O	1.538799	-0.376488	0.345495
O60	O	1.872133	-0.043155	0.678828
N61	N	1.089645	-0.708930	0.127973
N62	N	1.422979	-0.375597	0.461306
N63	N	1.756312	-0.042264	0.794639
C64	C	1.027030	-0.682826	0.190548
C65	C	1.360363	-0.349492	0.523881
C66	C	1.693697	-0.016159	0.857214
O67	O	0.973777	-0.709833	0.243761
O68	O	1.307111	-0.376500	0.577095
O69	O	1.640444	-0.043167	0.910428
C70	C	1.027004	-0.473949	0.190556
C71	C	1.360338	-0.140616	0.523890
C72	C	1.693671	0.192718	0.857223
C73	C	1.089616	-0.447834	0.127988
C74	C	1.422950	-0.114500	0.461321
C75	C	1.756283	0.218833	0.794654
C76	C	1.214831	-0.447820	0.002851
C77	C	1.548165	-0.114487	0.336185
C78	C	1.881498	0.218847	0.669518
C79	C	1.214829	-0.395604	0.002859
C80	C	1.548162	-0.062270	0.336192
C81	C	1.881495	0.271063	0.669526
C82	C	1.152220	-0.369502	0.065431
C83	C	1.485553	-0.036169	0.398764
C84	C	1.818887	0.297164	0.732097
C85	C	1.089614	-0.395618	0.127995
C86	C	1.422947	-0.062284	0.461329
C87	C	1.756280	0.271049	0.794662
C88	C	0.964385	-0.447845	0.253126
C89	C	1.297718	-0.114512	0.586460
C90	C	1.631052	0.218822	0.919793
C91	C	0.964383	-0.395622	0.253121
C92	C	1.297716	-0.062289	0.586455
C93	C	1.631049	0.271044	0.919788
C94	C	1.026995	-0.369507	0.190553
C95	C	1.360328	-0.036174	0.523886
C96	C	1.693661	0.297159	0.857219
C97	C	1.027002	-0.317300	0.190575
C98	C	1.360335	0.016033	0.523908
C99	C	1.693669	0.349367	0.857241
N100	N	1.089604	-0.291182	0.128004
N101	N	1.422937	0.042151	0.461337
N102	N	1.756270	0.375484	0.794670
C103	C	1.152213	-0.317283	0.065432
C104	C	1.485546	0.016050	0.398765
C105	C	1.818879	0.349383	0.732098
C106	C	1.027049	-0.792489	0.190540
C107	C	1.360382	-0.459156	0.523873
C108	C	1.693716	-0.125822	0.857206
C109	C	1.027056	-0.844708	0.190539
C110	C	1.360390	-0.511375	0.523872
C111	C	1.693723	-0.178041	0.857206
C112	C	1.152273	-0.844691	0.065392
C113	C	1.485606	-0.511358	0.398725
C114	C	1.818939	-0.178025	0.732058
C115	C	1.152269	-0.792471	0.065398
C116	C	1.485602	-0.459138	0.398731
C117	C	1.818936	-0.125805	0.732064
C118	C	1.089651	-0.766371	0.127969
C119	C	1.422984	-0.433038	0.461302
C120	C	1.756317	-0.099704	0.794636
C121	C	1.152203	-0.207625	0.065453
C122	C	1.485536	0.125708	0.398786
C123	C	1.818869	0.459041	0.732119
C124	C	1.152197	-0.155405	0.065468
C125	C	1.485530	0.177929	0.398802
C126	C	1.818864	0.511262	0.732135
C127	C	1.026978	-0.155426	0.190612
C128	C	1.360311	0.177908	0.523945
C129	C	1.693645	0.511241	0.857279
C130	C	1.026986	-0.207642	0.190600
C131	C	1.360320	0.125691	0.523933
C132	C	1.693653	0.459025	0.857267
C133	C	1.089602	-0.233741	0.128013
C134	C	1.422936	0.099593	0.461346
C135	C	1.756269	0.432926	0.794679
O136	O	0.973804	-0.290259	0.243780
O137	O	1.307137	0.043074	0.577113
O138	O	1.640471	0.376407	0.910446
O139	O	1.205443	-0.290267	0.012212
O140	O	1.538777	0.043066	0.345546
O141	O	1.872110	0.376400	0.678879
C142	C	1.152228	-0.526151	0.065408
C143	C	1.485561	-0.192818	0.398742
C144	C	1.818895	0.140515	0.732075
C145	C	1.089622	-0.552266	0.127973
C146	C	1.422955	-0.218933	0.461306
C147	C	1.756288	0.114400	0.794639
C148	C	1.027013	-0.526165	0.190545
C149	C	1.360346	-0.192832	0.523878
C150	C	1.693680	0.140501	0.857211
C151	C	1.089629	-0.604485	0.127972
C152	C	1.422962	-0.271152	0.461305
C153	C	1.756296	0.062181	0.794638
C154	C	1.152238	-0.630587	0.065400
C155	C	1.485571	-0.297253	0.398733
C156	C	1.818905	0.036080	0.732067
C157	C	1.214840	-0.604469	0.002829
C158	C	1.548173	-0.271135	0.336162
C159	C	1.881506	0.062198	0.669496
C160	C	1.214837	-0.552252	0.002836
C161	C	1.548170	-0.218919	0.336170
C162	C	1.881504	0.114414	0.669503
C163	C	0.964411	-0.552283	0.253116
C164	C	1.297745	-0.218950	0.586449
C165	C	1.631078	0.114384	0.919782
C166	C	0.964420	-0.604499	0.253104
C167	C	1.297753	-0.271166	0.586437
C168	C	1.631086	0.062167	0.919770
C169	C	1.027029	-0.630601	0.190532
C170	C	1.360362	-0.297267	0.523865
C171	C	1.693695	0.036066	0.857198
C172	C	1.258221	-0.000065	0.121553
C173	C	1.591554	0.333269	0.454886
C174	C	1.924888	0.666602	0.788219
C175	C	1.360602	-0.000067	0.123541
C176	C	1.693936	0.333266	0.456874
C177	C	2.027269	0.666599	0.790207
C178	C	1.096078	-0.000061	-0.040591
C179	C	1.429411	0.333272	0.292742
C180	C	1.762744	0.666606	0.626076
C181	C	1.094089	-0.000061	-0.142972
C182	C	1.427423	0.333272	0.190361
C183	C	1.760756	0.666605	0.523694
N184	N	1.089665	0.129191	0.127967
N185	N	1.422998	0.462524	0.461300
N186	N	1.756332	0.795858	0.794634
C187	C	1.086770	-0.000048	-0.517868
C188	C	1.420103	0.333285	-0.184535
C189	C	1.753437	0.666619	0.148799
C190	C	1.088803	-0.000052	-0.413560
C191	C	1.422136	0.333282	-0.080227
C192	C	1.755469	0.666615	0.253107
C193	C	1.090430	-0.000055	-0.330423
C194	C	1.423763	0.333278	0.002910
C195	C	1.757096	0.666612	0.336243
C196	C	1.092463	-0.000058	-0.226109
C197	C	1.425796	0.333275	0.107224
C198	C	1.759129	0.666609	0.440558
C199	C	1.083168	-0.000050	0.296606
C200	C	1.416501	0.333283	0.629939
C201	C	1.749835	0.666617	0.963272
C202	C	1.085156	-0.000047	0.398987
C203	C	1.418490	0.333287	0.732320
C204	C	1.751823	0.666620	1.065653
H205	H	1.203186	-0.134143	0.014517
H206	H	1.536520	0.199190	0.347851
H207	H	1.869853	0.532523	0.681184
H208	H	1.203252	-0.771212	0.014448
H209	H	1.536586	-0.437878	0.347782
H210	H	1.869919	-0.104545	0.681115
H211	H	0.976056	-0.771242	0.241495
H212	H	1.309389	-0.437908	0.574828
H213	H	1.642723	-0.104575	0.908162
N214	N	1.219742	-0.235770	-0.002044
N215	N	1.553075	0.097563	0.331289
N216	N	1.886409	0.430896	0.664622
H217	H	1.259400	-0.211296	-0.041669
H218	H	1.592734	0.122037	0.291664
H219	H	1.926067	0.455370	0.624998
H220	H	1.260568	-0.257434	0.033357
H221	H	1.593901	0.075900	0.366690
H222	H	1.927235	0.409233	0.700024
H223	H	0.976005	-0.134166	0.241560
H224	H	1.309338	0.199167	0.574893
H225	H	1.642672	0.532501	0.908227
N226	N	1.219803	-0.872851	-0.002093
N227	N	1.553137	-0.539517	0.331240
N228	N	1.886470	-0.206184	0.664574
H229	H	1.285271	-0.863762	0.008675
H230	H	1.618604	-0.530429	0.342008
H231	H	1.951938	-0.197096	0.675341
H232	H	1.210218	-0.909883	0.007448
H233	H	1.543552	-0.576550	0.340781
H234	H	1.876885	-0.243216	0.674115
H235	H	0.913426	-0.531035	0.304068
H236	H	1.246760	-0.197702	0.637402
H237	H	1.580093	0.135631	0.970735
N238	N	0.959456	-0.235806	0.258091
N239	N	1.292789	0.097527	0.591425
N240	N	1.626123	0.430860	0.924758
H241	H	0.918566	-0.257468	0.222754
H242	H	1.251899	0.075865	0.556088
H243	H	1.585233	0.409198	0.889421
H244	H	0.994820	-0.257447	0.298989
H245	H	1.328154	0.075886	0.632322
H246	H	1.661487	0.409220	0.965655
N247	N	0.959530	-0.872872	0.258028
N248	N	1.292864	-0.539539	0.591362
N249	N	1.626197	-0.206205	0.924695
H250	H	0.919867	-0.848408	0.297660
H251	H	1.253200	-0.515075	0.630994
H252	H	1.586533	-0.181742	0.964327
H253	H	0.918709	-0.894537	0.222624
H254	H	1.252042	-0.561204	0.555958
H255	H	1.585375	-0.227870	0.889291
H256	H	0.913400	-0.469101	0.304075
H257	H	1.246734	-0.135767	0.637408
H258	H	1.580067	0.197566	0.970741
N259	N	1.282357	-0.367440	-0.064630
N260	N	1.615690	-0.034107	0.268703
N261	N	1.949023	0.299226	0.602037
H262	H	1.322012	-0.391905	-0.104267
H263	H	1.655345	-0.058572	0.229067
H264	H	1.988679	0.274761	0.562400
H265	H	1.246985	-0.345776	-0.105482
H266	H	1.580318	-0.012443	0.227851
H267	H	1.913652	0.320891	0.561185
H268	H	1.265815	-0.469067	-0.048106
H269	H	1.599148	-0.135734	0.285227
H270	H	1.932482	0.197600	0.618560
N271	N	1.282369	-0.632628	-0.064658
N272	N	1.615702	-0.299294	0.268676
N273	N	1.949036	0.034039	0.602009
H274	H	1.322036	-0.608164	-0.104298
H275	H	1.655369	-0.274831	0.229035
H276	H	1.988702	0.058503	0.562369
H277	H	1.323189	-0.654293	-0.029252
H278	H	1.656522	-0.320959	0.304081
H279	H	1.989855	0.012374	0.637415
H280	H	0.913388	-0.374374	0.304073
H281	H	1.246722	-0.041041	0.637407
H282	H	1.580055	0.292293	0.970740
N283	N	1.282369	-0.524089	-0.064649
N284	N	1.615702	-0.190756	0.268685
N285	N	1.949035	0.142578	0.602018
H286	H	1.322025	-0.548554	-0.104284
H287	H	1.655359	-0.215221	0.229050
H288	H	1.988692	0.118112	0.562383
H289	H	1.247002	-0.502423	-0.105502
H290	H	1.580335	-0.169090	0.227831
H291	H	1.913669	0.164243	0.561164
N292	N	0.896881	-0.632663	0.320590
N293	N	1.230214	-0.299330	0.653924
N294	N	1.563548	0.034003	0.987257
H295	H	0.857218	-0.608200	0.360223
H296	H	1.190551	-0.274867	0.693556
H297	H	1.523884	0.058467	1.026889
H298	H	0.856060	-0.654324	0.285178
H299	H	1.189393	-0.320991	0.618511
H300	H	1.522726	0.012342	0.951844
