data_functionalizedCrystal
_audit_creation_method	'MofGen! by Chris Wilmer'
_symmetry_space_group_name_H-M	'P1'
_symmetry_Int_Tables_number	1
_symmetry_cell_setting	triclinic
loop_
_symmetry_equiv_pos_as_xyz
  x,y,z
_cell_length_a	23.532407
_cell_length_b	13.596369
_cell_length_c	14.519709
_cell_angle_alpha	89.993066
_cell_angle_beta	83.264411
_cell_angle_gamma	90.000007
loop_
_atom_site_label
_atom_site_type_symbol
_atom_site_fract_x
_atom_site_fract_y
_atom_site_fract_z
O1	O	0.755765	-0.081671	0.111951
O2	O	0.589975	-0.081700	0.128149
O3	O	0.677266	-0.081676	-0.014241
O4	O	0.668474	-0.081695	0.254340
O5	O	0.677257	0.081907	-0.014248
O6	O	0.589966	0.081883	0.128142
O7	O	0.755756	0.081912	0.111943
Zn8	Zn	0.672860	0.107870	0.120041
Zn9	Zn	0.672871	-0.107658	0.120051
O10	O	0.668466	0.081888	0.254333
C11	C	0.568753	0.000088	0.127733
C12	C	0.505530	0.000077	0.126493
N13	N	0.672856	0.254962	0.120034
N14	N	0.672880	-0.254750	0.120051
C15	C	0.106772	0.000116	0.202977
C16	C	0.047367	0.000122	0.201825
O17	O	0.010942	0.000153	0.272727
N18	N	0.024358	0.000127	0.117175
C19	C	0.060759	0.000135	0.033671
O20	O	0.035734	0.000140	-0.038437
C21	C	0.120164	0.000136	0.034824
C22	C	0.143168	0.000121	0.119480
C23	C	0.129777	0.000103	0.287626
C24	C	0.189179	0.000095	0.288778
C25	C	0.225575	0.000100	0.205281
C26	C	0.202570	0.000114	0.120631
C27	C	0.156563	0.000151	-0.048679
C28	C	0.215971	0.000153	-0.047519
C29	C	0.238976	0.000139	0.037137
C30	C	0.298367	0.000111	0.038286
N31	N	0.321375	0.000107	0.122936
C32	C	0.284979	0.000101	0.206434
C33	C	-0.063994	0.000135	0.031256
C34	C	-0.123397	0.000127	0.030102
C35	C	-0.136786	0.000116	0.198257
C36	C	-0.077382	0.000117	0.199410
C37	C	-0.040986	0.000130	0.115906
C38	C	0.409727	0.000084	0.208846
C39	C	0.469134	0.000072	0.209990
C40	C	0.482517	0.000088	0.041836
C41	C	0.423115	0.000095	0.040691
C42	C	0.386721	0.000096	0.124204
O43	O	0.334827	0.000084	-0.032579
O44	O	0.310012	0.000109	0.278529
C45	C	0.776979	0.000122	0.112360
C46	C	0.840201	0.000127	0.113600
C47	C	0.676852	0.000116	-0.048599
C48	C	0.675624	0.000116	-0.150966
C49	C	0.672871	0.656253	0.120052
C50	C	0.672865	0.544601	0.120050
C51	C	0.672864	0.455611	0.120044
C52	C	0.672858	0.343952	0.120040
C53	C	0.671104	0.000090	-0.525808
C54	C	0.672359	0.000097	-0.421515
C55	C	0.673364	0.000104	-0.338390
C56	C	0.674619	0.000110	-0.234091
C57	C	0.668880	0.000094	0.288692
C58	C	0.670107	0.000087	0.391058
H59	H	0.487861	0.000059	0.278930
H60	H	0.137844	0.000164	-0.117615
H61	H	-0.142122	0.000123	-0.038834
H62	H	-0.034363	0.000137	-0.036747
H63	H	0.245602	0.000165	-0.115519
Cl64	Cl	0.394194	0.000117	-0.065735
Cl65	Cl	-0.182552	0.000114	0.303226
Cl66	Cl	0.363983	0.000084	0.313835
Cl67	Cl	0.528283	0.000099	-0.063127
Cl68	Cl	0.218089	0.000084	0.395209
Cl69	Cl	0.084032	0.000093	0.392610
H70	H	-0.058656	0.000111	0.268344
