data_functionalizedCrystal
_audit_creation_method	'MofGen! by Chris Wilmer'
_symmetry_space_group_name_H-M	'P1'
_symmetry_Int_Tables_number	1
_symmetry_cell_setting	triclinic
loop_
_symmetry_equiv_pos_as_xyz
  x,y,z
_cell_length_a	10.654541
_cell_length_b	15.944551
_cell_length_c	9.730217
_cell_angle_alpha	89.995798
_cell_angle_beta	89.999932
_cell_angle_gamma	83.991333
loop_
_atom_site_label
_atom_site_type_symbol
_atom_site_fract_x
_atom_site_fract_y
_atom_site_fract_z
O1	O	1.666312	0.117965	-0.114251
O2	O	1.300688	0.129208	-0.114263
O3	O	1.493484	0.001369	-0.114245
O4	O	1.473516	0.245804	-0.114270
O5	O	1.493478	0.001368	0.114335
O6	O	1.300682	0.129206	0.114317
O7	O	1.666306	0.117964	0.114329
Zn8	Zn	1.483493	0.123585	0.150615
Zn9	Zn	1.483501	0.123587	-0.150549
O10	O	1.473510	0.245802	0.114310
C11	C	1.253897	0.128382	0.000025
C12	C	1.114486	0.125914	0.000021
C13	C	1.492652	-0.029930	0.000046
C14	C	1.490167	-0.123190	0.000046
C15	C	1.084537	0.278779	-0.000012
C16	C	1.004069	0.354048	-0.000034
C17	C	0.873081	0.351724	-0.000035
C18	C	0.822560	0.274122	-0.000010
C19	C	0.903028	0.198852	0.000012
C20	C	1.034017	0.201185	0.000009
C21	C	0.932976	0.045989	0.000055
C22	C	1.063965	0.048311	0.000046
C23	C	0.882455	-0.031613	0.000080
C24	C	0.962924	-0.106885	0.000092
C25	C	1.093919	-0.104557	0.000091
C26	C	1.144433	-0.026958	0.000068
C27	C	1.364722	-0.338772	0.000023
C28	C	1.422972	-0.399453	0.112729
C29	C	1.485671	-0.293942	0.000036
C30	C	1.423006	-0.399436	-0.112633
C31	C	1.481319	-0.458880	0.000019
C32	C	1.543954	-0.353395	0.112834
C33	C	1.543971	-0.353371	-0.112629
C34	C	1.602309	-0.414034	0.000104
C35	C	1.488175	-0.198925	0.000046
C36	C	1.478825	-0.553896	0.000019
C37	C	1.713097	0.118790	0.000037
C38	C	1.852508	0.121258	0.000033
C39	C	1.474342	0.277102	0.000017
C40	C	1.476827	0.370362	0.000007
N41	N	1.483497	0.123584	0.356151
N42	N	1.483507	0.123582	-0.356086
C43	C	1.654288	0.010416	0.356159
C44	C	1.739691	-0.046165	0.428102
C45	C	1.739704	-0.046166	0.571982
C46	C	1.654302	0.010420	0.643921
C47	C	1.568898	0.067001	0.571978
C48	C	1.568897	0.066997	0.428095
C49	C	1.398103	0.180163	0.571971
C50	C	1.398094	0.180169	0.428091
C51	C	1.312700	0.236748	0.643910
C52	C	1.227301	0.293335	0.571967
C53	C	1.227292	0.293334	0.428078
C54	C	1.312691	0.236750	0.356147
H55	H	1.191193	0.280679	-0.000042
H56	H	1.702790	-0.446611	0.000171
H57	H	1.809243	-0.092242	0.630559
C58	C	1.312688	0.236742	0.197876
N59	N	1.312686	0.236731	0.078663
H60	H	1.157766	0.339399	0.630549
H61	H	1.157742	0.339406	0.369509
C62	C	0.738364	-0.034168	0.000080
N63	N	0.629834	-0.036094	0.000074
C64	C	1.353873	-0.426970	-0.241354
N65	N	1.301794	-0.447704	-0.338303
H66	H	1.159430	-0.165851	0.000114
C67	C	1.059652	0.439407	-0.000061
N68	N	1.101515	0.503699	-0.000078
H69	H	1.251088	-0.025055	0.000051
C70	C	1.353858	-0.427024	0.241445
N71	N	1.301793	-0.447787	0.338389
C72	C	0.678468	0.271569	0.000003
N73	N	0.569937	0.269646	0.000013
C74	C	0.907341	-0.192238	0.000123
N75	N	0.865471	-0.256527	0.000142
C76	C	1.833611	-0.108419	0.348958
N77	N	1.904342	-0.155314	0.289351
C78	C	1.229101	-0.294552	0.000173
N79	N	1.126954	-0.261243	0.000294
C80	C	1.654289	0.010417	0.197887
N81	N	1.654292	0.010415	0.078675
C82	C	1.612998	-0.325993	0.241704
N83	N	1.664996	-0.305351	0.338771
H84	H	1.654307	0.010409	0.761076
C85	C	1.613024	-0.325772	-0.241356
N86	N	1.665026	-0.304982	-0.338325
C87	C	1.312701	0.236735	0.802182
N88	N	1.312698	0.236725	0.921394
H89	H	0.807563	0.413015	-0.000043
