data_functionalizedCrystal
_audit_creation_method	'MofGen! by Chris Wilmer'
_symmetry_space_group_name_H-M	'P1'
_symmetry_Int_Tables_number	1
_symmetry_cell_setting	triclinic
loop_
_symmetry_equiv_pos_as_xyz
  x,y,z
_cell_length_a	27.732048
_cell_length_b	27.732048
_cell_length_c	26.210047
_cell_angle_alpha	90.003465
_cell_angle_beta	89.999521
_cell_angle_gamma	97.357345
loop_
_atom_site_label
_atom_site_type_symbol
_atom_site_fract_x
_atom_site_fract_y
_atom_site_fract_z
O1	O	0.057510	-0.640931	-0.042369
O2	O	0.557510	-0.140931	0.457631
O3	O	0.066256	-0.500138	-0.042385
O4	O	0.566256	-0.000138	0.457615
O5	O	-0.008514	-0.574907	-0.042367
O6	O	0.491486	-0.074907	0.457633
O7	O	0.132279	-0.566162	-0.042387
O8	O	0.632279	-0.066162	0.457613
O9	O	-0.008502	-0.574893	0.042491
O10	O	0.491498	-0.074893	0.542491
O11	O	0.066267	-0.500123	0.042473
O12	O	0.566267	-0.000123	0.542473
O13	O	0.057522	-0.640917	0.042489
O14	O	0.557522	-0.140917	0.542489
Cu15	Cu	0.061896	-0.570519	0.050229
Cu16	Cu	0.561896	-0.070519	0.550229
Cu17	Cu	0.061882	-0.570536	-0.050125
Cu18	Cu	0.561882	-0.070536	0.449875
O19	O	0.132291	-0.566147	0.042471
O20	O	0.632291	-0.066147	0.542471
C21	C	0.066078	-0.482124	0.000042
C22	C	0.566078	0.017876	0.500042
C23	C	0.065525	-0.428469	0.000036
C24	C	0.565525	0.071531	0.500036
C25	C	-0.026515	-0.574716	0.000064
C26	C	0.473485	-0.074716	0.500064
C27	C	-0.080170	-0.574164	0.000068
C28	C	0.419830	-0.074164	0.500068
N29	N	0.061905	-0.570510	0.120813
N30	N	0.561905	-0.070510	0.620813
C31	C	-0.418985	-0.614867	0.000046
C32	C	0.081015	-0.114867	0.500046
C33	C	-0.620645	-0.612816	0.000039
C34	C	-0.120645	-0.112816	0.500039
O35	O	-0.651900	-0.650037	0.000021
O36	O	-0.151900	-0.150037	0.500021
N37	N	-0.639768	-0.568481	0.000034
N38	N	-0.139768	-0.068481	0.500034
C39	C	-0.608474	-0.524656	0.000028
C40	C	-0.108474	-0.024656	0.500028
O41	O	-0.629367	-0.486899	0.000019
O42	O	-0.129367	0.013101	0.500019
C43	C	-0.406815	-0.526707	0.000032
C44	C	0.093185	-0.026707	0.500032
C45	C	-0.387694	-0.571045	0.000042
C46	C	0.112306	-0.071045	0.500042
C47	C	-0.399864	-0.659202	0.000056
C48	C	0.100136	-0.159202	0.500056
C49	C	-0.349452	-0.659714	0.000060
C50	C	0.150548	-0.159714	0.500060
C51	C	-0.318161	-0.615892	0.000056
C52	C	0.181839	-0.115892	0.500056
C53	C	-0.337282	-0.571557	0.000046
C54	C	0.162718	-0.071557	0.500046
C55	C	-0.375521	-0.482882	0.000022
C56	C	0.124479	0.017118	0.500022
C57	C	-0.325104	-0.483399	0.000022
C58	C	0.174896	0.016601	0.500022
C59	C	-0.305983	-0.527737	0.000032
C60	C	0.194017	-0.027737	0.500032
C61	C	-0.255580	-0.528247	0.000046
C62	C	0.244420	-0.028247	0.500046
N63	N	-0.236456	-0.572583	0.000051
N64	N	0.263544	-0.072583	0.500051
C65	C	-0.267747	-0.616405	0.000056
C66	C	0.232253	-0.116405	0.500056
C67	C	-0.714348	-0.523582	0.000027
C68	C	-0.214348	-0.023582	0.500027
C69	C	-0.764762	-0.523069	0.000027
C70	C	-0.264762	-0.023069	0.500027
C71	C	-0.776930	-0.611230	0.000037
C72	C	-0.276930	-0.111230	0.500037
C73	C	-0.726514	-0.611742	0.000041
C74	C	-0.226514	-0.111742	0.500041
C75	C	-0.695224	-0.567917	0.000032
C76	C	-0.195224	-0.067917	0.500032
C77	C	-0.161878	-0.617477	0.000066
C78	C	0.338122	-0.117477	0.500066
C79	C	-0.111461	-0.617986	0.000073
C80	C	0.388539	-0.117986	0.500073
C81	C	-0.099298	-0.529825	0.000060
C82	C	0.400702	-0.029825	0.500060
C83	C	-0.149710	-0.529316	0.000056
C84	C	0.350290	-0.029316	0.500056
C85	C	-0.180999	-0.573147	0.000057
C86	C	0.319001	-0.073147	0.500057
O87	O	-0.224296	-0.491047	0.000059
O88	O	0.275704	0.008953	0.500059
O89	O	-0.246844	-0.654156	0.000054
O90	O	0.253156	-0.154156	0.500054
C91	C	-0.469397	-0.614355	0.000042
C92	C	0.030603	-0.114355	0.500042
C93	C	-0.488518	-0.570021	0.000033
C94	C	0.011482	-0.070021	0.500033
C95	C	-0.457228	-0.526198	0.000028
C96	C	0.042772	-0.026198	0.500028
C97	C	-0.538933	-0.569508	0.000033
C98	C	-0.038933	-0.069508	0.500033
C99	C	-0.570223	-0.613330	0.000037
C100	C	-0.070223	-0.113330	0.500037
C101	C	-0.551100	-0.657665	0.000042
C102	C	-0.051100	-0.157665	0.500042
C103	C	-0.500688	-0.658177	0.000046
C104	C	-0.000688	-0.158177	0.500046
C105	C	-0.476351	-0.481863	0.000023
C106	C	0.023649	0.018137	0.500023
C107	C	-0.526764	-0.481355	0.000019
C108	C	-0.026764	0.018645	0.500019
C109	C	-0.558054	-0.525177	0.000024
C110	C	-0.058054	-0.025177	0.500024
C111	C	0.150292	-0.566338	0.000040
C112	C	0.650292	-0.066338	0.500040
C113	C	0.203947	-0.566891	0.000032
C114	C	0.703947	-0.066891	0.500032
C115	C	0.057699	-0.658931	0.000061
C116	C	0.557699	-0.158931	0.500061
C117	C	0.058252	-0.712586	0.000064
C118	C	0.558252	-0.212586	0.500064
C119	C	0.106229	-0.089654	0.000053
C120	C	0.606229	0.410346	0.500053
C121	C	0.104178	0.112006	0.000057
C122	C	0.604178	0.612006	0.500057
O123	O	0.141398	0.143262	0.000074
O124	O	0.641398	0.643262	0.500074
N125	N	0.059843	0.131130	0.000063
N126	N	0.559843	0.631130	0.500063
C127	C	0.016017	0.099835	0.000071
C128	C	0.516017	0.599835	0.500071
O129	O	-0.021740	0.120728	0.000081
O130	O	0.478260	0.620728	0.500081
C131	C	0.018068	-0.101824	0.000069
C132	C	0.518068	0.398176	0.500069
C133	C	0.062407	-0.120944	0.000059
C134	C	0.562407	0.379056	0.500059
C135	C	0.150563	-0.108775	0.000043
C136	C	0.650563	0.391225	0.500043
C137	C	0.151076	-0.159187	0.000039
C138	C	0.651076	0.340813	0.500039
C139	C	0.107253	-0.190477	0.000045
C140	C	0.607253	0.309523	0.500045
C141	C	0.062919	-0.171356	0.000055
C142	C	0.562919	0.328644	0.500055
C143	C	-0.025757	-0.133117	0.000081
C144	C	0.474243	0.366883	0.500081
C145	C	-0.025240	-0.183535	0.000082
C146	C	0.474760	0.316465	0.500082
C147	C	0.019098	-0.202655	0.000071
C148	C	0.519098	0.297345	0.500071
C149	C	0.019609	-0.253059	0.000057
C150	C	0.519609	0.246941	0.500057
N151	N	0.063944	-0.272183	0.000051
N152	N	0.563944	0.227817	0.500051
C153	C	0.107766	-0.240892	0.000045
C154	C	0.607766	0.259108	0.500045
C155	C	0.014943	0.205709	0.000070
C156	C	0.514943	0.705709	0.500070
C157	C	0.014430	0.256124	0.000070
C158	C	0.514430	0.756124	0.500070
C159	C	0.102591	0.268291	0.000057
C160	C	0.602591	0.768291	0.500057
C161	C	0.103104	0.217876	0.000054
C162	C	0.603104	0.717876	0.500054
C163	C	0.059278	0.186585	0.000065
C164	C	0.559278	0.686585	0.500065
C165	C	0.108839	-0.346761	0.000036
C166	C	0.608839	0.153239	0.500036
C167	C	0.109347	-0.397178	0.000030
C168	C	0.609347	0.102822	0.500030
C169	C	0.021186	-0.409341	0.000045
C170	C	0.521186	0.090659	0.500045
C171	C	0.020678	-0.358929	0.000049
C172	C	0.520678	0.141071	0.500049
C173	C	0.064508	-0.327639	0.000046
C174	C	0.564508	0.172361	0.500046
O175	O	-0.017592	-0.284343	0.000046
O176	O	0.482408	0.215657	0.500046
O177	O	0.145518	-0.261794	0.000047
O178	O	0.645518	0.238206	0.500047
C179	C	0.105716	-0.039242	0.000057
C180	C	0.605716	0.460758	0.500057
C181	C	0.061382	-0.020120	0.000067
C182	C	0.561382	0.479880	0.500067
C183	C	0.017560	-0.051411	0.000073
C184	C	0.517560	0.448589	0.500073
C185	C	0.060869	0.030294	0.000066
C186	C	0.560869	0.530294	0.500066
C187	C	0.104691	0.061585	0.000060
C188	C	0.604691	0.561585	0.500060
C189	C	0.149026	0.042461	0.000054
C190	C	0.649026	0.542461	0.500054
C191	C	0.149539	-0.007951	0.000050
C192	C	0.649539	0.492049	0.500050
C193	C	-0.026775	-0.032287	0.000078
C194	C	0.473225	0.467713	0.500078
C195	C	-0.027284	0.018125	0.000082
C196	C	0.472716	0.518125	0.500082
C197	C	0.016538	0.049416	0.000076
C198	C	0.516538	0.549416	0.500076
N199	N	0.061868	-0.570548	-0.120709
N200	N	0.561868	-0.070548	0.379291
C201	C	0.028781	-0.603640	0.473336
C202	C	0.528781	-0.103640	0.973336
C203	C	0.028774	-0.603651	0.686994
C204	C	0.528774	-0.103651	1.186994
O205	O	0.000614	-0.631801	0.714623
O206	O	0.500614	-0.131801	1.214623
N207	N	0.061871	-0.570538	0.713707
N208	N	0.561871	-0.070538	1.213707
C209	C	0.094970	-0.537419	0.687003
C210	C	0.594970	-0.037419	1.187003
O211	O	0.123117	-0.509251	0.714626
O212	O	0.623117	-0.009251	1.214626
C213	C	0.094974	-0.537406	0.473345
C214	C	0.594974	-0.037406	0.973345
C215	C	0.061878	-0.570524	0.446635
C216	C	0.561878	-0.070524	0.946635
C217	C	-0.004312	-0.636755	0.446625
C218	C	0.495688	-0.136755	0.946625
C219	C	-0.004308	-0.636754	0.393214
C220	C	0.495692	-0.136754	0.893214
C221	C	0.028789	-0.603638	0.366513
C222	C	0.528789	-0.103638	0.866513
C223	C	0.061882	-0.570523	0.393223
C224	C	0.561882	-0.070523	0.893223
C225	C	0.128070	-0.504284	0.446641
C226	C	0.628070	-0.004284	0.946641
C227	C	0.128067	-0.504283	0.393223
C228	C	0.628067	-0.004283	0.893223
C229	C	0.094971	-0.537401	0.366513
C230	C	0.594971	-0.037401	0.866513
C231	C	0.094983	-0.537405	0.313111
C232	C	0.594983	-0.037405	0.813111
N233	N	0.061886	-0.570518	0.286397
N234	N	0.561886	-0.070518	0.786397
C235	C	0.028789	-0.603634	0.313098
C236	C	0.528789	-0.103634	0.813098
C237	C	0.094966	-0.537428	0.799176
C238	C	0.594966	-0.037428	1.299176
C239	C	0.094965	-0.537432	0.852590
C240	C	0.594965	-0.037432	1.352590
C241	C	0.028769	-0.603664	0.852578
C242	C	0.528769	-0.103664	1.352578
C243	C	0.028773	-0.603662	0.799163
C244	C	0.528773	-0.103662	1.299163
C245	C	0.061869	-0.570541	0.772463
C246	C	0.561869	-0.070541	1.272463
C247	C	0.028800	-0.603629	0.200931
C248	C	0.528800	-0.103629	0.700931
C249	C	0.028808	-0.603626	0.147514
C250	C	0.528808	-0.103626	0.647514
C251	C	0.095002	-0.537393	0.147531
C252	C	0.595002	-0.037393	0.647531
C253	C	0.094996	-0.537397	0.200943
C254	C	0.594996	-0.037397	0.700943
C255	C	0.061891	-0.570517	0.227641
C256	C	0.561891	-0.070517	0.727641
O257	O	0.123125	-0.509267	0.285449
O258	O	0.623125	-0.009267	0.785449
O259	O	0.000639	-0.631790	0.285466
O260	O	0.500639	-0.131790	0.785466
C261	C	0.028777	-0.603641	0.526747
C262	C	0.528777	-0.103641	1.026747
C263	C	0.061871	-0.570527	0.553457
C264	C	0.561871	-0.070527	1.053457
C265	C	0.094968	-0.537410	0.526756
C266	C	0.594968	-0.037410	1.026756
C267	C	0.061870	-0.570530	0.606872
C268	C	0.561870	-0.070530	1.106872
C269	C	0.028773	-0.603646	0.633573
C270	C	0.528773	-0.103646	1.133573
C271	C	-0.004323	-0.636759	0.606859
C272	C	0.495677	-0.136759	1.106859
C273	C	-0.004320	-0.636758	0.553448
C274	C	0.495680	-0.136758	1.053448
C275	C	0.128064	-0.504298	0.553470
C276	C	0.628064	-0.004298	1.053470
C277	C	0.128058	-0.504302	0.606881
C278	C	0.628058	-0.004302	1.106881
C279	C	0.094961	-0.537418	0.633582
C280	C	0.594961	-0.037418	1.133582
H281	H	-0.095896	-0.654093	0.000082
H282	H	0.404104	-0.154093	0.500082
N283	N	0.163767	-0.468562	0.364424
N284	N	0.663767	0.031438	0.864424
H285	H	0.145442	-0.447299	0.342264
H286	H	0.645442	0.052701	0.842264
H287	H	0.184722	-0.447618	0.389484
H288	H	0.684722	0.052382	0.889484
N289	N	0.150923	0.197252	0.000050
N290	N	0.650923	0.697252	0.500050
H291	H	0.153099	0.176603	-0.031407
H292	H	0.653099	0.676603	0.468593
H293	H	0.178577	0.224754	0.000064
H294	H	0.678577	0.724754	0.500064
H295	H	-0.073812	-0.494146	0.000058
H296	H	0.426188	0.005854	0.500058
N297	N	-0.040006	-0.672485	0.475417
N298	N	0.459994	-0.172485	0.975417
H299	H	-0.074278	-0.667184	0.466120
H300	H	0.425722	-0.167184	0.966120
H301	H	-0.034619	-0.706725	0.466093
H302	H	0.465381	-0.206725	0.966093
N303	N	0.130669	-0.501709	0.770378
N304	N	0.630669	-0.001709	1.270378
H305	H	0.112348	-0.480441	0.748220
H306	H	0.612348	0.019559	1.248220
H307	H	0.151626	-0.480769	0.795440
H308	H	0.651626	0.019231	1.295440
N309	N	0.197833	-0.075030	0.000065
N310	N	0.697833	0.424970	0.500065
H311	H	0.225992	-0.094801	0.000068
H312	H	0.725992	0.405199	0.500068
H313	H	0.199556	-0.053838	-0.031385
H314	H	0.699556	0.446162	0.468615
N315	N	-0.328834	-0.707537	0.000056
N316	N	0.171166	-0.207537	0.500056
H317	H	-0.292148	-0.701219	0.000054
H318	H	0.207852	-0.201219	0.500054
H319	H	-0.340305	-0.726695	0.031513
H320	H	0.159695	-0.226695	0.531513
H321	H	-0.020747	0.180236	0.000079
H322	H	0.479253	0.680236	0.500079
N323	N	0.130662	-0.501714	0.881397
N324	N	0.630662	-0.001714	1.381397
H325	H	0.164933	-0.507019	0.872099
H326	H	0.664933	-0.007019	1.372099
H327	H	0.125284	-0.467468	0.872090
H328	H	0.625284	0.032532	1.372090
H329	H	0.155019	-0.477317	0.468381
H330	H	0.655019	0.022683	0.968381
H331	H	-0.165279	-0.493213	0.000062
H332	H	0.334721	0.006787	0.500062
N333	N	0.196293	0.076215	0.000045
N334	N	0.696293	0.576215	0.500045
H335	H	0.189235	0.111052	0.000048
H336	H	0.689235	0.611052	0.500048
H337	H	0.215636	0.070064	0.031500
H338	H	0.715636	0.570064	0.531500
H339	H	-0.542327	-0.445246	0.000016
H340	H	-0.042327	0.054754	0.500016
H341	H	-0.688875	-0.487892	0.000020
H342	H	-0.188875	0.012108	0.500020
N343	N	-0.705896	-0.659565	0.000050
N344	N	-0.205896	-0.159565	0.500050
H345	H	-0.685251	-0.661752	-0.031406
H346	H	-0.185251	-0.161752	0.468594
H347	H	-0.685274	-0.661708	0.031528
H348	H	-0.185274	-0.161708	0.531528
N349	N	0.130697	-0.501674	0.118729
N350	N	0.630697	-0.001674	0.618729
H351	H	0.151974	-0.519981	0.096564
H352	H	0.651974	-0.019981	0.596564
H353	H	0.112332	-0.480423	0.096601
H354	H	0.612332	0.019577	0.596601
N355	N	-0.006900	-0.639356	0.229722
N356	N	0.493100	-0.139356	0.729722
H357	H	-0.028183	-0.621054	0.251885
H358	H	0.471817	-0.121054	0.751885
H359	H	-0.027826	-0.660323	0.204657
H360	H	0.472174	-0.160323	0.704657
H361	H	-0.450879	-0.446177	0.000018
H362	H	0.049121	0.053823	0.500018
H363	H	0.121950	-0.510434	0.222691
H364	H	0.621950	-0.010434	0.722691
N365	N	-0.006923	-0.639381	0.770356
N366	N	0.493077	-0.139381	1.270356
H367	H	-0.027887	-0.660360	0.795381
H368	H	0.472113	-0.160360	1.295381
H369	H	-0.028168	-0.621038	0.748198
H370	H	0.471832	-0.121038	1.248198
H371	H	0.145454	-0.412743	0.000021
H372	H	0.645454	0.087257	0.500021
H373	H	-0.031269	-0.663725	0.531704
H374	H	0.468731	-0.163725	1.031704
H375	H	-0.576585	-0.693347	0.000048
H376	H	-0.076585	-0.193347	0.500048
H377	H	0.144530	-0.321291	0.000036
H378	H	0.644530	0.178709	0.500036
H379	H	0.187180	-0.174750	0.000030
H380	H	0.687180	0.325250	0.500030
H381	H	-0.031271	-0.663725	0.628608
H382	H	0.468729	-0.163725	1.128608
N383	N	-0.006926	-0.639383	0.881384
N384	N	0.493074	-0.139383	1.381384
H385	H	-0.001595	-0.673647	0.872088
H386	H	0.498405	-0.173647	1.372088
H387	H	-0.001879	-0.634313	0.919264
H388	H	0.498121	-0.134313	1.419264
H389	H	0.155013	-0.477334	0.628625
H390	H	0.655013	0.022666	1.128625
N391	N	0.163761	-0.468575	0.524675
N392	N	0.663761	0.031425	1.024675
H393	H	0.184724	-0.447601	0.549707
H394	H	0.684724	0.052399	1.049707
H395	H	0.185008	-0.486916	0.502513
H396	H	0.685008	0.013084	1.002513
N397	N	-0.006893	-0.639341	0.118702
N398	N	0.493107	-0.139341	0.618702
H399	H	0.011430	-0.660605	0.096538
H400	H	0.511430	-0.160605	0.596538
H401	H	-0.027855	-0.660285	0.143754
H402	H	0.472145	-0.160285	0.643754
N403	N	-0.195621	-0.664750	0.000067
N404	N	0.304379	-0.164750	0.500067
H405	H	-0.175851	-0.692910	0.000075
H406	H	0.324149	-0.192910	0.500075
H407	H	-0.216804	-0.666453	0.031524
H408	H	0.283196	-0.166453	0.531524
N409	N	-0.433609	-0.706471	0.000061
N410	N	0.066391	-0.206471	0.500061
H411	H	-0.413838	-0.734630	0.000067
H412	H	0.086162	-0.234630	0.500067
H413	H	-0.454788	-0.708174	0.031521
H414	H	0.045212	-0.208174	0.531521
N415	N	-0.033390	0.276746	0.000080
N416	N	0.466610	0.776746	0.500080
H417	H	-0.035577	0.297389	-0.031376
H418	H	0.464423	0.797389	0.468624
H419	H	-0.061044	0.249244	0.000105
H420	H	0.438956	0.749244	0.500105
H421	H	-0.061861	-0.117558	0.000090
H422	H	0.438139	0.382442	0.500090
H423	H	0.138273	0.293777	0.000053
H424	H	0.638273	0.793777	0.500053
N425	N	-0.810686	-0.658494	0.000043
N426	N	-0.310686	-0.158494	0.500043
H427	H	-0.831873	-0.660245	-0.031415
H428	H	-0.331873	-0.160245	0.468585
H429	H	-0.790894	-0.686635	0.000063
H430	H	-0.290894	-0.186635	0.500063
N431	N	-0.785383	-0.475247	0.000031
N432	N	-0.285383	0.024753	0.500031
H433	H	-0.757906	-0.447566	0.000028
H434	H	-0.257906	0.052434	0.500028
H435	H	-0.806036	-0.473115	-0.031426
H436	H	-0.306036	0.026885	0.468574
H437	H	-0.060929	-0.209009	0.000091
H438	H	0.439071	0.290991	0.500091
N439	N	-0.396136	-0.435060	0.000018
N440	N	0.103864	0.064940	0.500018
H441	H	-0.368657	-0.407381	0.000014
H442	H	0.131343	0.092619	0.500014
H443	H	-0.416788	-0.432927	-0.031440
H444	H	0.083212	0.067073	0.468560
N445	N	-0.040007	-0.672470	0.364407
N446	N	0.459993	-0.172470	0.864407
H447	H	-0.034677	-0.706734	0.373703
H448	H	0.465323	-0.206734	0.873703
H449	H	-0.074259	-0.667116	0.373719
H450	H	0.425741	-0.167116	0.873719
N451	N	-0.291350	-0.436132	0.000015
N452	N	0.208650	0.063868	0.500015
H453	H	-0.297461	-0.416777	-0.031445
H454	H	0.202539	0.083223	0.468555
H455	H	-0.297481	-0.416805	0.031490
H456	H	0.202519	0.083195	0.531490
N457	N	-0.480068	-0.705999	0.000058
N458	N	0.019932	-0.205999	0.500058
H459	H	-0.507546	-0.733679	0.000060
H460	H	-0.007546	-0.233679	0.500060
H461	H	-0.459416	-0.708142	-0.031399
H462	H	0.040584	-0.208142	0.468601
H463	H	-0.015426	-0.343360	0.000050
H464	H	0.484574	0.156640	0.500050
H465	H	-0.014492	-0.434827	0.000048
H466	H	0.485508	0.065173	0.500048
H467	H	-0.063392	0.033688	0.000086
H468	H	0.436608	0.533688	0.500086
H469	H	-0.062462	-0.057760	0.000085
H470	H	0.437538	0.442240	0.500085
N471	N	0.197361	-0.028571	0.000035
N472	N	0.697361	0.471429	0.500035
H473	H	0.225040	-0.001092	0.000032
H474	H	0.725040	0.498908	0.500032
H475	H	0.199504	-0.049221	0.031491
H476	H	0.699504	0.450779	0.531491
