data_functionalizedCrystal
_audit_creation_method	'MofGen! by Chris Wilmer'
_symmetry_space_group_name_H-M	'P1'
_symmetry_Int_Tables_number	1
_symmetry_cell_setting	triclinic
loop_
_symmetry_equiv_pos_as_xyz
  x,y,z
_cell_length_a	12.759401
_cell_length_b	21.395361
_cell_length_c	12.759393
_cell_angle_alpha	90.038155
_cell_angle_beta	90.020938
_cell_angle_gamma	90.032233
loop_
_atom_site_label
_atom_site_type_symbol
_atom_site_fract_x
_atom_site_fract_y
_atom_site_fract_z
Zn1	Zn	1.606150	-0.249383	0.593964
Zn2	Zn	1.605992	-0.354173	0.418261
Zn3	Zn	1.430448	-0.249416	0.418299
Zn4	Zn	1.430391	-0.354129	0.593898
O5	O	1.518245	-0.301775	0.506106
O6	O	1.753150	-0.263288	0.570668
O7	O	1.582663	-0.340309	0.271245
O8	O	1.453845	-0.161734	0.441645
O9	O	1.753033	-0.340277	0.441580
O10	O	1.582932	-0.161709	0.570706
O11	O	1.453692	-0.263345	0.271273
O12	O	1.283420	-0.263302	0.441581
O13	O	1.453748	-0.340202	0.740928
O14	O	1.283378	-0.340234	0.570593
O15	O	1.582877	-0.263245	0.740977
O16	O	1.582608	-0.441845	0.441516
O17	O	1.453595	-0.441813	0.570556
C18	C	1.245278	-0.301768	0.506085
C19	C	1.128501	-0.301779	0.506101
C20	C	1.073645	-0.341899	0.573171
C21	C	0.963921	-0.341901	0.573192
C22	C	0.963919	-0.261663	0.439063
C23	C	1.073641	-0.261658	0.439048
C24	C	1.518106	-0.464563	0.506047
C25	C	1.518143	-0.534204	0.506057
C26	C	1.585380	-0.566913	0.438935
C27	C	1.585429	-0.632349	0.438958
C28	C	1.518222	-0.665072	0.506093
C29	C	1.450981	-0.632355	0.573229
C30	C	1.450941	-0.566921	0.573211
C31	C	1.423624	-0.768788	0.514329
C32	C	1.423662	-0.834221	0.514340
C33	C	1.518345	-0.866893	0.506155
C34	C	1.612993	-0.834125	0.497937
C35	C	1.612953	-0.768691	0.497919
C36	C	1.518258	-0.736025	0.506121
C37	C	1.585640	-0.970555	0.439054
C38	C	1.585690	-1.035991	0.439085
C39	C	1.451233	-1.035997	0.573350
C40	C	1.451192	-0.970562	0.573325
C41	C	1.518394	-0.937844	0.506171
C42	C	1.792278	-0.301783	0.506127
C43	C	1.909055	-0.301787	0.506136
C44	C	1.518324	-0.301715	0.780139
C45	C	1.518357	-0.301689	0.896916
C46	C	1.518413	-0.138352	0.506187
C47	C	1.518484	-0.068711	0.506222
C48	C	1.518227	-0.301790	0.233138
C49	C	1.518397	-0.301639	0.116362
C50	C	1.585600	-0.261612	0.951805
C51	C	1.585617	-0.261585	1.061529
C52	C	1.451147	-0.341719	1.061465
C53	C	1.451125	-0.341742	0.951743
H54	H	0.919239	-0.228998	0.384469
H55	H	1.118306	-0.228984	0.384431
H56	H	1.396188	-0.540289	0.627871
H57	H	1.396437	-0.943928	0.627978
C58	C	1.715896	-0.869505	0.489211
C59	C	1.780774	-0.853489	0.573591
C60	C	1.875579	-0.886063	0.565578
H61	H	1.702528	-0.913178	0.490445
H62	H	1.749577	-0.858781	0.425304
H63	H	1.747100	-0.864217	0.637481
H64	H	1.794172	-0.809822	0.572374
H65	H	1.909260	-0.875340	0.501671
H66	H	1.862201	-0.929735	0.566809
H67	H	1.919614	-0.875197	0.622821
H68	H	1.640342	-0.228997	0.907167
H69	H	1.396412	-0.374329	1.106119
C70	C	1.658743	-0.218049	1.120933
C71	C	1.717630	-0.182991	1.049429
C72	C	1.785015	-0.142883	1.104112
H73	H	1.618710	-0.190681	1.163745
H74	H	1.704557	-0.241996	1.163711
H75	H	1.671822	-0.159046	1.006669
H76	H	1.757684	-0.210343	1.006614
H77	H	1.830830	-0.166830	1.146890
H78	H	1.744974	-0.115519	1.146922
H79	H	1.824985	-0.119096	1.055605
C80	C	1.658467	-0.531505	0.366000
C81	C	1.717383	-0.574162	0.307243
C82	C	1.784735	-0.541566	0.240059
H83	H	1.618409	-0.506019	0.320087
H84	H	1.704265	-0.505951	0.406205
H85	H	1.671591	-0.599706	0.267042
H86	H	1.757462	-0.599649	0.353129
H87	H	1.830533	-0.516011	0.280264
H88	H	1.744669	-0.516081	0.194153
H89	H	1.824724	-0.570503	0.200192
H90	H	1.640184	-0.658986	0.384300
H91	H	1.690018	-0.742012	0.491231
H92	H	1.640363	-0.943915	0.384377
C93	C	1.658915	-1.071393	0.366270
C94	C	1.762814	-1.055353	0.389258
C95	C	1.830319	-1.087932	0.322193
H96	H	1.649512	-1.115066	0.375799
H97	H	1.643639	-1.060691	0.295647
H98	H	1.778085	-1.066059	0.459863
H99	H	1.772250	-1.011686	0.379722
H100	H	1.815043	-1.077229	0.251570
H101	H	1.820907	-1.131602	0.331727
H102	H	1.900821	-1.077048	0.337774
C103	C	1.378155	-0.385190	0.891952
C104	C	1.392506	-0.376624	0.784128
C105	C	1.325296	-0.416627	0.729015
H106	H	1.393421	-0.427311	0.909784
H107	H	1.307555	-0.376007	0.909865
H108	H	1.463090	-0.385811	0.766222
H109	H	1.377233	-0.334511	0.766265
H110	H	1.254695	-0.407444	0.746929
H111	H	1.340567	-0.458746	0.746855
H112	H	1.335016	-0.410816	0.655851
H113	H	1.118309	-0.374567	0.627773
H114	H	1.396517	-1.062640	0.628017
H115	H	0.919261	-0.374570	0.627809
C116	C	1.320801	-0.869682	0.523321
C117	C	1.237877	-0.827066	0.530528
C118	C	1.143106	-0.859707	0.538816
H119	H	1.311461	-0.895243	0.463137
H120	H	1.322099	-0.895165	0.584256
H121	H	1.236577	-0.801593	0.469599
H122	H	1.247182	-0.801503	0.590711
H123	H	1.144404	-0.885191	0.599752
H124	H	1.133776	-0.885268	0.478630
H125	H	1.086832	-0.830798	0.543717
C126	C	1.320876	-0.733242	0.523049
C127	C	1.307560	-0.695715	0.434185
C128	C	1.212932	-0.662959	0.442190
H129	H	1.264427	-0.762059	0.527891
H130	H	1.322177	-0.707650	0.583913
H131	H	1.306251	-0.721305	0.373337
H132	H	1.363985	-0.666887	0.429326
H133	H	1.214232	-0.637366	0.503054
H134	H	1.156491	-0.691780	0.447034
H135	H	1.203889	-0.637489	0.381903
C136	C	1.378143	-0.667848	0.646294
C137	C	1.400978	-0.651882	0.750261
C138	C	1.333912	-0.684571	0.817604
H139	H	1.307515	-0.657197	0.630995
H140	H	1.387803	-0.711510	0.636761
H141	H	1.391309	-0.608230	0.759789
H142	H	1.471593	-0.662534	0.765593
H143	H	1.343573	-0.728232	0.808071
H144	H	1.263289	-0.673917	0.802296
H145	H	1.349403	-0.673747	0.888153
