data_functionalizedCrystal
_audit_creation_method	'MofGen! by Chris Wilmer'
_symmetry_space_group_name_H-M	'P1'
_symmetry_Int_Tables_number	1
_symmetry_cell_setting	triclinic
loop_
_symmetry_equiv_pos_as_xyz
  x,y,z
_cell_length_a	12.759401
_cell_length_b	12.759400
_cell_length_c	11.169409
_cell_angle_alpha	90.033794
_cell_angle_beta	90.020052
_cell_angle_gamma	90.013728
loop_
_atom_site_label
_atom_site_type_symbol
_atom_site_fract_x
_atom_site_fract_y
_atom_site_fract_z
Zn1	Zn	1.606271	-0.418208	0.678538
Zn2	Zn	1.606161	-0.593934	0.477850
Zn3	Zn	1.430568	-0.418266	0.477871
Zn4	Zn	1.430562	-0.593843	0.678494
O5	O	1.518390	-0.506063	0.578188
O6	O	1.753277	-0.441532	0.651925
O7	O	1.582825	-0.570694	0.309903
O8	O	1.453925	-0.271238	0.504518
O9	O	1.753196	-0.570637	0.504481
O10	O	1.583013	-0.271195	0.651947
O11	O	1.453818	-0.441632	0.309919
O12	O	1.283546	-0.441543	0.504475
O13	O	1.453913	-0.570482	0.846449
O14	O	1.283541	-0.570538	0.651871
O15	O	1.583006	-0.441444	0.846482
O16	O	1.582818	-0.740943	0.504438
O17	O	1.453806	-0.740876	0.651850
C18	C	1.245423	-0.506038	0.578172
C19	C	1.128646	-0.506053	0.578193
C20	C	1.073820	-0.438955	0.655086
C21	C	0.964095	-0.438975	0.655094
C22	C	0.964035	-0.573200	0.501311
C23	C	1.073757	-0.573174	0.501298
C24	C	1.128709	-0.371834	0.731981
C25	C	1.073882	-0.304731	0.808881
C26	C	0.964158	-0.304751	0.808889
C27	C	0.909261	-0.371874	0.731996
C28	C	1.518328	-0.779030	0.578163
C29	C	1.518397	-0.895807	0.578193
C30	C	1.585649	-0.950669	0.501520
C31	C	1.585713	-1.060393	0.501557
C32	C	1.451266	-1.060383	0.654943
C33	C	1.451208	-0.950661	0.654911
C34	C	1.652838	-0.895814	0.424802
C35	C	1.720094	-0.950676	0.348122
C36	C	1.720158	-1.060400	0.348159
C37	C	1.652967	-1.115262	0.424876
C38	C	1.792424	-0.506088	0.578206
C39	C	1.909200	-0.506099	0.578213
C40	C	1.518471	-0.505946	0.891231
C41	C	1.518505	-0.505896	1.024631
C42	C	1.518482	-0.232029	0.578240
C43	C	1.518520	-0.115253	0.578261
C44	C	1.518370	-0.506103	0.266363
C45	C	1.518540	-0.505857	0.132964
H46	H	1.118398	-0.627811	0.438685
C47	C	0.930159	-0.624184	0.297985
C48	C	0.903693	-0.646985	0.416804
H49	H	0.892901	-0.669736	0.245818
H50	H	1.003342	-0.633776	0.286978
H51	H	0.912163	-0.553578	0.280576
H52	H	0.921696	-0.717589	0.434216
H53	H	0.830493	-0.637402	0.427817
H54	H	0.919521	-0.250105	0.871496
H55	H	0.819916	-0.371862	0.731983
H56	H	1.652790	-0.806472	0.424759
C57	C	1.107735	-0.253753	1.012211
C58	C	1.134219	-0.230950	0.893398
H59	H	1.144979	-0.208197	1.064386
H60	H	1.125724	-0.324349	1.029623
H61	H	1.034540	-0.244159	1.023202
H62	H	1.207413	-0.240552	0.882404
H63	H	1.116237	-0.160337	0.875980
C64	C	1.318369	-1.049357	0.806559
C65	C	1.377409	-1.120684	0.739262
H66	H	1.272776	-1.086586	0.858617
H67	H	1.278182	-1.006634	0.754218
H68	H	1.364112	-1.006490	0.852497
H69	H	1.331666	-1.163546	0.693316
H70	H	1.417599	-1.163425	0.791609
H71	H	1.396447	-0.905992	0.717346
H72	H	1.653033	-1.204607	0.424909
C73	C	1.285922	-0.298723	0.815696
C74	C	1.249318	-0.371806	0.731970
H75	H	1.360380	-0.298706	0.815682
H76	H	1.261132	-0.316984	0.893098
H77	H	1.261089	-0.230911	0.795074
H78	H	1.274145	-0.439620	0.752596
H79	H	1.274119	-0.353551	0.654551
C80	C	1.779689	-0.782483	0.279950
C81	C	1.793948	-0.890376	0.263798
H82	H	1.825281	-0.745261	0.227885
H83	H	1.795023	-0.764432	0.360588
H84	H	1.709092	-0.764585	0.262310
H85	H	1.864544	-0.908276	0.281447
H86	H	1.778621	-0.908436	0.183142
H87	H	1.774928	-1.105066	0.285731
