data_functionalizedCrystal
_audit_creation_method	'MofGen! by Chris Wilmer'
_symmetry_space_group_name_H-M	'P1'
_symmetry_Int_Tables_number	1
_symmetry_cell_setting	triclinic
loop_
_symmetry_equiv_pos_as_xyz
  x,y,z
_cell_length_a	13.032831
_cell_length_b	12.645330
_cell_length_c	13.032268
_cell_angle_alpha	97.151313
_cell_angle_beta	90.886977
_cell_angle_gamma	82.822813
loop_
_atom_site_label
_atom_site_type_symbol
_atom_site_fract_x
_atom_site_fract_y
_atom_site_fract_z
Zn1	Zn	1.498478	-0.715929	-0.780858
Zn2	Zn	1.998478	-0.215929	-0.280858
Zn3	Zn	1.520220	-0.873876	-0.608884
Zn4	Zn	2.020220	-0.373876	-0.108884
Zn5	Zn	1.348336	-0.671644	-0.587098
Zn6	Zn	1.848336	-0.171644	-0.087098
Zn7	Zn	1.326468	-0.868144	-0.759009
Zn8	Zn	1.826468	-0.368144	-0.259009
O9	O	1.423375	-0.782398	-0.683962
O10	O	1.923375	-0.282398	-0.183962
O11	O	1.645282	-0.757814	-0.776307
O12	O	2.145282	-0.257814	-0.276307
O13	O	1.515670	-0.830915	-0.462076
O14	O	2.015670	-0.330915	0.037924
O15	O	1.368306	-0.529182	-0.612827
O16	O	1.868306	-0.029182	-0.112827
O17	O	1.661256	-0.873856	-0.649958
O18	O	2.161256	-0.373856	-0.149958
O19	O	1.478614	-0.561718	-0.755182
O20	O	1.978614	-0.061718	-0.255182
O21	O	1.389388	-0.682336	-0.446071
O22	O	1.889388	-0.182336	0.053929
O23	O	1.201515	-0.676778	-0.591641
O24	O	1.701515	-0.176778	-0.091641
O25	O	1.331034	-0.864087	-0.905824
O26	O	1.831034	-0.364087	-0.405824
O27	O	1.185448	-0.821146	-0.717943
O28	O	1.685448	-0.321146	-0.217943
O29	O	1.457409	-0.752256	-0.921877
O30	O	1.957409	-0.252256	-0.421877
O31	O	1.494465	-1.021452	-0.628771
O32	O	1.994465	-0.521452	-0.128771
O33	O	1.352116	-1.017241	-0.739067
O34	O	1.852116	-0.517241	-0.239067
C35	C	1.156164	-0.743535	-0.650057
C36	C	1.656164	-0.243535	-0.150057
C37	C	1.041847	-0.726938	-0.635577
C38	C	1.541847	-0.226938	-0.135577
C39	C	0.982971	-0.791061	-0.691519
C40	C	1.482971	-0.291061	-0.191519
C41	C	0.864818	-0.773908	-0.676555
C42	C	1.364818	-0.273908	-0.176555
C43	C	1.423302	-1.057816	-0.683938
C44	C	1.923302	-0.557816	-0.183938
C45	C	1.423360	-1.175658	-0.683974
C46	C	1.923360	-0.675658	-0.183974
C47	C	1.334105	-1.340692	-0.753648
C48	C	1.834105	-0.840692	-0.253648
C49	C	1.333733	-1.218045	-0.753341
C50	C	1.833733	-0.718045	-0.253341
C51	C	1.407793	-1.203807	-0.571873
C52	C	1.907793	-0.703807	-0.071873
C53	C	1.407248	-1.326389	-0.572295
C54	C	1.907248	-0.826389	-0.072295
C55	C	1.528779	-1.361707	-0.725584
C56	C	2.028779	-0.861707	-0.225584
C57	C	1.527810	-1.239270	-0.727870
C58	C	2.027810	-0.739270	-0.227870
C59	C	1.691630	-0.821414	-0.718000
C60	C	2.191630	-0.321414	-0.218000
C61	C	1.805944	-0.838040	-0.732505
C62	C	2.305944	-0.338040	-0.232505
C63	C	1.389357	-0.812472	-0.952210
C64	C	1.889357	-0.312472	-0.452210
C65	C	1.374860	-0.825288	-1.066522
C66	C	1.874860	-0.325288	-0.566522
C67	C	1.423474	-0.505912	-0.684012
C68	C	1.923474	-0.005912	-0.184012
C69	C	1.423516	-0.388090	-0.684033
C70	C	1.923516	0.111910	-0.184033
C71	C	1.430925	-0.775669	-1.125428
C72	C	1.930925	-0.275669	-0.625428
C73	C	1.415944	-0.788914	-1.243575
C74	C	1.915944	-0.288914	-0.743575
C75	C	1.457320	-0.752374	-0.416765
C76	C	1.957320	-0.252374	0.083235
C77	C	1.472016	-0.739288	-0.302479
C78	C	1.972016	-0.239288	0.197521
H79	H	0.827756	-0.706302	-0.617582
H80	H	1.327756	-0.206302	-0.117582
H81	H	1.315763	-0.877565	-1.103557
H82	H	1.815763	-0.377565	-0.603557
H83	H	1.531105	-0.686993	-1.265449
H84	H	2.031105	-0.186993	-0.765449
H85	H	0.843003	-0.905637	-0.791489
H86	H	1.343003	-0.405637	-0.291489
H87	H	1.020037	-0.858655	-0.750496
H88	H	1.520037	-0.358655	-0.250496
H89	H	1.004781	-0.659337	-0.576608
H90	H	1.504781	-0.159337	-0.076608
O91	O	1.616884	-1.402857	-0.658762
O92	O	2.116884	-0.902857	-0.158762
H93	H	1.671975	-1.462103	-0.706838
H94	H	2.171975	-0.962103	-0.206838
O95	O	1.344439	-1.193576	-0.862879
O96	O	1.844439	-0.693576	-0.362879
H97	H	1.349934	-1.269440	-0.916549
H98	H	1.849934	-0.769440	-0.416549
O99	O	1.543700	-1.216788	-0.837240
O100	O	2.043700	-0.716788	-0.337240
H101	H	1.617672	-1.262041	-0.867708
H102	H	2.117672	-0.762041	-0.367708
O103	O	1.344256	-1.395598	-0.863366
O104	O	1.844256	-0.895598	-0.363366
H105	H	1.413181	-1.457200	-0.869476
H106	H	1.913181	-0.957200	-0.369476
H107	H	1.490012	-0.723380	-1.088392
H108	H	1.990012	-0.223380	-0.588392
H109	H	1.356842	-0.841195	-1.280605
H110	H	1.856842	-0.341195	-0.780605
H111	H	1.330710	-1.340879	-0.538698
H112	H	1.830710	-0.840879	-0.038698
H113	H	1.596830	-1.211611	-0.681954
H114	H	2.096830	-0.711611	-0.181954
O115	O	1.230992	-1.363470	-0.716133
O116	O	1.730992	-0.863470	-0.216133
H117	H	1.230456	-1.451589	-0.720098
H118	H	1.730456	-0.951589	-0.220098
O119	O	1.230009	-1.161037	-0.715412
O120	O	1.730009	-0.661037	-0.215412
H121	H	1.179922	-1.221062	-0.697209
H122	H	1.679922	-0.721062	-0.197209
H123	H	1.470292	-1.357178	-0.517917
H124	H	1.970292	-0.857178	-0.017917
H125	H	1.471460	-1.175923	-0.517982
H126	H	1.971460	-0.675923	-0.017982
O127	O	1.307577	-1.144557	-0.526936
O128	O	1.807577	-0.644557	-0.026936
H129	H	1.268713	-1.095031	-0.584241
H130	H	1.768713	-0.595031	-0.084241
H131	H	1.545671	-1.405172	-0.806666
H132	H	2.045671	-0.905172	-0.306666
