data_functionalizedCrystal
_audit_creation_method	'MofGen! by Chris Wilmer'
_symmetry_space_group_name_H-M	'P1'
_symmetry_Int_Tables_number	1
_symmetry_cell_setting	triclinic
loop_
_symmetry_equiv_pos_as_xyz
  x,y,z
_cell_length_a	19.288862
_cell_length_b	10.654550
_cell_length_c	17.766277
_cell_angle_alpha	89.994852
_cell_angle_beta	90.026014
_cell_angle_gamma	96.189907
loop_
_atom_site_label
_atom_site_type_symbol
_atom_site_fract_x
_atom_site_fract_y
_atom_site_fract_z
O1	O	-0.922380	0.156643	-0.062883
O2	O	-0.720257	0.177778	-0.062821
O3	O	-0.825966	-0.015628	-0.062850
O4	O	-0.816671	0.350049	-0.062853
O5	O	-0.825947	-0.015638	0.062338
O6	O	-0.720239	0.177769	0.062368
O7	O	-0.922361	0.156633	0.062305
Cu8	Cu	-0.821298	0.167200	0.073767
Cu9	Cu	-0.821320	0.167211	-0.074283
O10	O	-0.816653	0.350040	0.062335
C11	C	-0.694367	0.177094	-0.000218
C12	C	-0.617250	0.175054	-0.000195
C13	C	-0.573297	0.288536	-0.000205
C14	C	-0.500837	0.286619	-0.000209
C15	C	-0.472334	0.171214	-0.000219
C16	C	-0.516297	0.057717	-0.000204
C17	C	-0.588755	0.059637	-0.000192
C18	C	-0.363484	0.080498	-0.044096
C19	C	-0.291027	0.078583	-0.044113
C20	C	-0.248849	0.165288	-0.000252
C21	C	-0.279136	0.253930	0.043616
C22	C	-0.351594	0.255850	0.043628
C23	C	-0.393766	0.169120	-0.000231
C24	C	-0.126326	0.276700	-0.000266
C25	C	-0.053865	0.274779	-0.000266
C26	C	-0.069327	0.045874	-0.000268
C27	C	-0.141786	0.047798	-0.000261
C28	C	-0.170281	0.163215	-0.000263
C29	C	-0.825274	-0.062417	-0.000257
C30	C	-0.823232	-0.201816	-0.000259
C31	C	-0.885472	-0.282635	-0.000276
C32	C	-0.883549	-0.413615	-0.000281
C33	C	-0.757142	-0.382943	-0.000248
C34	C	-0.759065	-0.251966	-0.000249
C35	C	-0.958452	-0.300344	-0.000291
C36	C	-0.956529	-0.431323	-0.000296
C37	C	0.051749	0.157321	-0.000285
C38	C	-0.025367	0.159373	-0.000274
C39	C	-0.817344	0.396828	-0.000260
C40	C	-0.819386	0.536227	-0.000263
N41	N	-0.821287	0.167191	0.177898
N42	N	-0.821336	0.167210	-0.178413
C43	C	-0.868111	0.081592	0.217271
C44	C	-0.868115	0.081586	0.296073
C45	C	-0.821302	0.167201	0.335498
C46	C	-0.774470	0.252806	0.296115
C47	C	-0.774463	0.252801	0.217315
C48	C	-0.812753	0.281622	0.460337
C49	C	-0.812765	0.281629	0.539136
C50	C	-0.821321	0.167216	0.578545
C51	C	-0.829879	0.052792	0.539145
C52	C	-0.829872	0.052787	0.460344
C53	C	-0.821305	0.167215	0.420944
C54	C	-0.868151	0.081604	0.703364
C55	C	-0.868150	0.081596	0.782167
C56	C	-0.774509	0.252827	0.782208
C57	C	-0.774506	0.252824	0.703406
C58	C	-0.821331	0.167213	0.663989
H59	H	-0.244795	0.324533	0.079332
O60	O	-0.992952	-0.487435	0.069080
H61	H	-0.991417	-0.591274	0.069024
O62	O	-0.157066	0.401179	-0.000261
H63	H	-0.189687	0.407514	0.050765
O64	O	-0.839038	-0.070550	0.417775
H65	H	-0.889967	-0.123161	0.432802
O66	O	-0.687939	-0.437046	-0.000228
H67	H	-0.658011	-0.404556	-0.051247
H68	H	-0.836846	-0.040374	0.571229
H69	H	-0.708384	-0.186167	-0.000245
H70	H	-0.987005	-0.271593	-0.052688
H71	H	-0.981683	-0.265219	0.053755
H72	H	-0.978593	-0.477435	-0.054356
O73	O	-0.918603	-0.010756	0.174755
H74	H	-0.951158	-0.070289	0.215379
H75	H	-0.906245	0.011879	0.328137
O76	O	-0.723992	0.345167	0.338637
H77	H	-0.691430	0.404692	0.298016
H78	H	-0.906276	0.011891	0.671270
H79	H	-0.018079	0.367193	-0.000270
H80	H	-0.906277	0.011885	0.814226
O81	O	-0.723952	0.345124	0.174846
H82	H	-0.731807	0.330729	0.113429
H83	H	-0.736391	0.322531	0.814307
H84	H	-0.624542	-0.032777	-0.000184
O85	O	-0.724012	0.345162	0.660931
H86	H	-0.691464	0.404704	0.701581
O87	O	-0.189200	-0.074600	-0.000256
H88	H	-0.157210	-0.155173	-0.000268
O89	O	-0.803548	0.405035	0.581631
H90	H	-0.797588	0.484592	0.540991
O91	O	-0.803529	0.405031	0.417833
H92	H	-0.797592	0.484595	0.458467
O93	O	-0.038599	-0.078607	-0.000273
H94	H	-0.005988	-0.084965	-0.051304
O95	O	-0.604033	0.413015	-0.000186
H96	H	-0.561291	0.491605	-0.000183
O97	O	-0.258362	-0.017030	-0.091415
H98	H	-0.299864	-0.077021	-0.121896
H99	H	-0.465043	0.379033	-0.000216
H100	H	-0.397820	0.009889	-0.079818
O101	O	-0.384252	0.351418	0.090971
H102	H	-0.363802	0.448110	0.072939
O103	O	-0.485561	-0.066760	-0.000214
H104	H	-0.427791	-0.049031	-0.000231
