data_functionalizedCrystal
_audit_creation_method	'MofGen! by Chris Wilmer'
_symmetry_space_group_name_H-M	'P1'
_symmetry_Int_Tables_number	1
_symmetry_cell_setting	triclinic
loop_
_symmetry_equiv_pos_as_xyz
  x,y,z
_cell_length_a	14.519709
_cell_length_b	13.448316
_cell_length_c	14.971494
_cell_angle_alpha	89.999494
_cell_angle_beta	83.648851
_cell_angle_gamma	89.997103
loop_
_atom_site_label
_atom_site_type_symbol
_atom_site_fract_x
_atom_site_fract_y
_atom_site_fract_z
O1	O	1.223807	-0.082558	0.117246
O2	O	0.955322	-0.082588	0.131054
O3	O	1.096757	-0.082570	-0.006045
O4	O	1.082372	-0.082576	0.254346
O5	O	1.096733	0.082813	-0.006042
O6	O	0.955298	0.082795	0.131058
O7	O	1.223783	0.082825	0.117250
Cu8	Cu	1.089538	0.097911	0.124154
Cu9	Cu	1.089567	-0.097674	0.124150
O10	O	1.082349	0.082807	0.254349
C11	C	0.920951	0.000100	0.130412
C12	C	0.818571	0.000088	0.128484
C13	C	1.096100	0.000120	-0.039368
C14	C	1.094168	0.000115	-0.138666
N15	N	1.089525	0.235476	0.124156
C16	C	0.443679	0.000134	0.121385
C17	C	0.547986	0.000121	0.123356
C18	C	0.631121	0.000110	0.124934
C19	C	0.735435	0.000099	0.126906
C20	C	1.258154	0.000135	0.117892
C21	C	1.360534	0.000140	0.119820
N22	N	1.089587	-0.235239	0.124140
C23	C	1.152223	0.712702	0.063458
C24	C	1.152216	0.608599	0.063464
C25	C	1.089567	0.556557	0.124149
C26	C	1.026927	0.608624	0.184838
C27	C	1.026940	0.712725	0.184836
C28	C	1.026903	0.391644	0.184838
C29	C	1.026889	0.287535	0.184839
C30	C	1.152179	0.287517	0.063466
C31	C	1.152192	0.391619	0.063463
C32	C	1.089551	0.443678	0.124152
C33	C	1.093276	-0.090037	-0.185313
C34	C	1.091454	-0.090038	-0.278613
C35	C	1.090532	0.000113	-0.325265
C36	C	1.091422	0.090272	-0.278611
C37	C	1.093237	0.090273	-0.185312
C38	C	1.087642	0.090265	-0.473077
C39	C	1.085830	0.090265	-0.566383
C40	C	1.085860	-0.090046	-0.566378
C41	C	1.087675	-0.090045	-0.473079
C42	C	1.088566	0.000114	-0.426431
C43	C	1.083005	0.000115	0.287672
C44	C	1.084937	0.000113	0.386970
H45	H	1.203235	0.755068	0.014037
H46	H	0.975920	0.566245	0.234254
H47	H	1.090732	-0.163449	-0.316590
H48	H	1.085071	0.163674	-0.604363
H49	H	1.094031	-0.163449	-0.147337
H50	H	1.088432	-0.163455	-0.435098
H51	H	0.975875	0.245168	0.234256
C52	C	0.958033	0.769990	0.251590
N53	N	0.906132	0.813121	0.301872
H54	H	1.085132	-0.163457	-0.604362
C55	C	1.088627	0.189446	-0.421767
N56	N	1.089374	0.264147	-0.383122
H57	H	0.975898	0.434027	0.234260
C58	C	1.094221	0.189447	-0.134001
N59	N	1.094960	0.264148	-0.095355
H60	H	1.203219	0.566212	0.014052
H61	H	1.203201	0.433991	0.014045
C62	C	1.221097	0.230250	-0.003280
N63	N	1.273006	0.187111	-0.053549
H64	H	1.090666	0.163675	-0.316602
