data_functionalizedCrystal
_audit_creation_method	'MofGen! by Chris Wilmer'
_symmetry_space_group_name_H-M	'P1'
_symmetry_Int_Tables_number	1
_symmetry_cell_setting	triclinic
loop_
_symmetry_equiv_pos_as_xyz
  x,y,z
_cell_length_a	6.817900
_cell_length_b	13.167930
_cell_length_c	10.943624
_cell_angle_alpha	97.842061
_cell_angle_beta	108.838799
_cell_angle_gamma	105.754568
loop_
_atom_site_label
_atom_site_type_symbol
_atom_site_fract_x
_atom_site_fract_y
_atom_site_fract_z
V1	V	-4.110252	-0.148865	-0.420386
O2	O	-4.073457	0.007183	-0.394028
O3	O	-4.083047	-0.295202	-0.435164
O4	O	-4.088295	-0.146562	-0.595676
O5	O	-4.068173	-0.142486	-0.232404
V6	V	-4.587707	-0.130201	-0.395757
O7	O	-4.384821	-0.189805	-0.474410
O8	O	-4.763335	-0.089261	-0.341732
O9	O	-4.391704	0.016136	-0.380979
O10	O	-4.741898	-0.286248	-0.422115
O11	O	-4.747182	-0.136580	-0.583738
O12	O	-4.386456	-0.132504	-0.220466
C13	C	-3.932349	-0.330876	-0.433087
C14	C	-3.991569	-0.450508	-0.446339
C15	C	-3.981751	-0.644591	-0.231066
C16	C	-4.037391	-0.756995	-0.243510
C17	C	-4.158504	-0.787723	-0.483672
C18	C	-4.102864	-0.675319	-0.471228
C19	C	-4.014484	-0.603756	-0.344920
C20	C	-3.958829	-0.491349	-0.332476
C21	C	-4.079957	-0.522080	-0.572637
C22	C	-4.135597	-0.634484	-0.585082
C23	C	-3.939042	-0.141270	-0.637835
C24	C	-4.002514	-0.140356	-0.781252
C25	C	-3.847561	-0.134199	-0.857662
C26	C	-4.033700	-0.225590	-0.974601
C27	C	-3.929497	-0.047346	-0.919860
C28	C	-4.187861	-0.231833	-0.896324
C29	C	-4.083580	-0.053508	-0.841550
C30	C	-4.269855	-0.144925	-0.958463
C31	C	-4.205745	0.051804	-0.383052
C32	C	-4.125764	0.171435	-0.369809
C33	C	-4.199051	-0.137799	-0.178301
C34	C	-4.114817	-0.138708	-0.034882
H35	H	-3.886855	-0.433083	-0.229629
C36	C	-4.334616	-0.337285	-0.881208
N37	N	-4.445141	-0.416713	-0.869819
H38	H	-4.013275	-0.298340	-1.032265
H39	H	-3.820894	0.030605	-0.931283
H40	H	-4.010734	-0.790237	-0.150798
H41	H	-4.103920	0.019246	-0.783851
H42	H	-4.230499	-0.846009	-0.586507
C43	C	-3.884522	-0.565869	-0.092128
N44	N	-3.811292	-0.506577	0.012523
H45	H	-4.207570	-0.692766	-0.687918
C46	C	-4.115967	-0.477154	-0.697886
N47	N	-4.143083	-0.443314	-0.792220
H48	H	-3.668515	-0.129786	-0.813684
H49	H	-4.449009	-0.149482	-1.002253
