data_functionalizedCrystal
_audit_creation_method	'MofGen! by Chris Wilmer'
_symmetry_space_group_name_H-M	'P1'
_symmetry_Int_Tables_number	1
_symmetry_cell_setting	triclinic
loop_
_symmetry_equiv_pos_as_xyz
  x,y,z
_cell_length_a	16.109301
_cell_length_b	10.723024
_cell_length_c	15.186229
_cell_angle_alpha	89.997422
_cell_angle_beta	89.999362
_cell_angle_gamma	83.964675
loop_
_atom_site_label
_atom_site_type_symbol
_atom_site_fract_x
_atom_site_fract_y
_atom_site_fract_z
O1	O	1.104074	0.160391	-0.073171
O2	O	0.862130	0.180351	-0.073184
O3	O	0.988683	-0.011279	-0.073174
O4	O	0.977521	0.352021	-0.073181
O5	O	0.988674	-0.011282	0.073283
O6	O	0.862121	0.180348	0.073273
O7	O	1.104066	0.160388	0.073287
Zn8	Zn	0.983092	0.170368	0.096533
Zn9	Zn	0.983103	0.170371	-0.096431
O10	O	0.977513	0.352018	0.073276
C11	C	0.831146	0.179541	0.000043
C12	C	0.738836	0.177117	0.000037
C13	C	0.517200	0.285190	0.000045
C14	C	0.430466	0.282903	0.000051
C15	C	0.449003	0.055540	0.000052
C16	C	0.535735	0.057829	0.000052
C17	C	0.569831	0.172657	0.000045
C18	C	0.396365	0.168081	0.000050
C19	C	0.302324	0.165600	0.000056
C20	C	0.663877	0.175139	0.000040
C21	C	0.987866	-0.057770	0.000054
C22	C	0.985436	-0.196292	0.000050
C23	C	1.056249	-0.272213	0.000053
C24	C	1.053739	-0.415383	0.000050
C25	C	1.135050	0.161198	0.000058
C26	C	1.227359	0.163622	0.000057
C27	C	0.978329	0.398508	0.000047
C28	C	0.980760	0.537031	0.000044
N29	N	0.983091	0.170364	0.228226
N30	N	0.983112	0.170365	-0.228123
C31	C	1.039148	0.085539	0.453953
C32	C	1.039150	0.085536	0.546143
C33	C	0.927049	0.255194	0.546143
C34	C	0.927043	0.255190	0.453955
C35	C	0.983097	0.170364	0.407862
C36	C	0.983105	0.170365	0.592240
C37	C	0.983108	0.170362	0.692196
C38	C	0.983094	0.170365	0.307900
H39	H	0.421231	-0.037950	0.000063
H40	H	1.118732	-0.231219	0.000062
H41	H	0.578589	-0.033815	0.000054
H42	H	0.881395	0.324265	0.416425
C43	C	0.554707	0.411498	0.000045
C44	C	0.650108	0.414026	0.000041
C45	C	0.687612	0.540338	0.000042
C46	C	0.629715	0.664121	0.000047
C47	C	0.534308	0.661598	0.000050
C48	C	0.496804	0.535286	0.000049
H49	H	0.692972	0.322390	0.000038
H50	H	0.758239	0.542205	0.000040
H51	H	0.657477	0.757625	0.000048
H52	H	0.491444	0.753234	0.000054
H53	H	0.426177	0.533419	0.000052
C54	C	1.135640	-0.503502	0.000053
C55	C	1.154797	-0.597111	0.076103
C56	C	1.236701	-0.685234	0.076107
C57	C	1.299448	-0.679748	0.000059
C58	C	1.280292	-0.586135	-0.075997
C59	C	1.198388	-0.498013	-0.076000
H60	H	1.108346	-0.601175	0.132403
H61	H	1.250881	-0.754532	0.132409
H62	H	1.360078	-0.744981	0.000062
H63	H	1.326743	-0.582071	-0.132296
H64	H	1.184208	-0.428715	-0.132302
C65	C	0.372573	0.406692	0.000049
C66	C	0.376850	0.500792	-0.076005
C67	C	0.318957	0.624588	-0.076005
C68	C	0.256786	0.654283	0.000050
C69	C	0.252506	0.560181	0.076110
C70	C	0.310399	0.436386	0.076110
H71	H	0.422875	0.478811	-0.132310
H72	H	0.322126	0.694248	-0.132310
H73	H	0.213931	0.745924	0.000050
H74	H	0.206481	0.582162	0.132415
H75	H	0.307230	0.366725	0.132415
C76	C	0.898855	-0.374858	0.000041
C77	C	0.879698	-0.281249	-0.076009
C78	C	0.797794	-0.193127	-0.076013
C79	C	0.735047	-0.198613	0.000035
C80	C	0.754202	-0.292225	0.076091
C81	C	0.836107	-0.380347	0.076094
H82	H	0.926148	-0.277185	-0.132309
H83	H	0.783614	-0.123829	-0.132315
H84	H	0.674416	-0.133379	0.000032
H85	H	0.707752	-0.296290	0.132390
H86	H	0.850286	-0.449645	0.132396
C87	C	1.100799	-0.007776	0.403251
C88	C	1.162450	-0.101087	0.453955
C89	C	1.224102	-0.194409	0.403257
C90	C	1.224102	-0.194420	0.301853
C91	C	1.162449	-0.101106	0.251143
C92	C	1.100798	-0.007784	0.301842
H93	H	1.162452	-0.101082	0.529025
H94	H	1.269741	-0.263486	0.440796
H95	H	1.269741	-0.263502	0.264323
H96	H	1.162448	-0.101111	0.176074
H97	H	1.055158	0.061293	0.264303
H98	H	0.922953	-0.237286	0.000041
H99	H	1.084791	0.016463	0.583668
C100	C	0.865397	0.348509	0.596845
C101	C	0.865445	0.348593	0.698248
C102	C	0.803793	0.441915	0.748947
C103	C	0.742094	0.535153	0.698242
C104	C	0.742044	0.535073	0.596834
C105	C	0.803695	0.441751	0.546135
H106	H	0.911120	0.279569	0.735787
H107	H	0.803831	0.441973	0.824016
H108	H	0.696456	0.604235	0.735773
H109	H	0.696368	0.604096	0.559294
H110	H	0.803658	0.441692	0.471065
