data_functionalizedCrystal
_audit_creation_method	'MofGen! by Chris Wilmer'
_symmetry_space_group_name_H-M	'P1'
_symmetry_Int_Tables_number	1
_symmetry_cell_setting	triclinic
loop_
_symmetry_equiv_pos_as_xyz
  x,y,z
_cell_length_a	14.395555
_cell_length_b	14.395555
_cell_length_c	14.560438
_cell_angle_alpha	60.001144
_cell_angle_beta	90.000916
_cell_angle_gamma	59.998346
loop_
_atom_site_label
_atom_site_type_symbol
_atom_site_fract_x
_atom_site_fract_y
_atom_site_fract_z
Zr1	Zr	0.894808	1.016872	-0.120545
O2	O	0.746468	1.210671	-0.267189
O3	O	0.940290	0.823071	-0.075590
O4	O	0.940273	1.016877	-0.267194
O5	O	0.746489	1.016862	0.075555
O6	O	1.093140	1.016884	-0.267198
O7	O	0.746485	1.016865	-0.075586
O8	O	1.093171	0.670200	0.075546
O9	O	0.746459	1.363546	-0.267189
O10	O	1.073761	0.902790	-0.056420
O11	O	0.959680	0.902783	0.056377
O12	O	0.959661	1.130965	-0.169212
O13	O	0.845580	1.130958	-0.056415
Zr14	Zr	1.138619	1.016879	0.120502
Zr15	Zr	1.138613	1.016883	-0.120550
Zr16	Zr	0.894814	1.016868	0.120507
Zr17	Zr	0.894793	1.260691	-0.120544
Zr18	Zr	1.138634	0.773061	0.120501
O19	O	1.093137	1.210681	0.075548
O20	O	1.093128	1.210687	-0.267197
O21	O	0.746477	1.210665	0.075556
O22	O	1.286959	0.823080	0.267147
O23	O	1.286950	0.823086	-0.075599
O24	O	0.940299	0.823065	0.267155
O25	O	1.286938	1.016889	-0.075598
O26	O	1.093154	1.016875	0.267151
O27	O	0.940287	1.016868	0.267155
O28	O	1.286942	1.016887	0.075543
O29	O	0.940252	1.363555	-0.267194
O30	O	1.093175	0.670196	0.267151
O31	O	1.286968	0.670205	0.267146
O32	O	1.286963	0.670208	0.075542
O33	O	0.746464	1.363543	-0.075585
O34	O	0.940256	1.363552	-0.075589
O35	O	1.073766	0.902786	0.169169
O36	O	1.187847	0.902794	0.056372
O37	O	1.073747	1.130968	-0.056420
O38	O	0.959666	1.130961	0.056378
C39	C	1.016732	0.711896	-0.000022
C40	C	1.016739	0.608389	-0.000022
C41	C	1.078915	0.485908	-0.061527
C42	C	0.971657	0.624031	-0.106107
C43	C	1.123977	0.471677	0.044507
C44	C	0.909366	0.562186	-0.044663
C45	C	1.061764	0.409758	0.106010
C46	C	0.954442	0.547872	0.061456
C47	C	0.711750	1.016862	-0.000014
C48	C	0.608248	1.016857	-0.000012
C49	C	0.609872	0.892446	0.061485
C50	C	0.516853	0.954639	0.106061
C51	C	0.516838	0.954670	-0.044556
C52	C	0.516593	1.079050	0.044626
C53	C	0.516592	1.079064	-0.106050
C54	C	0.423556	1.141347	-0.061500
C55	C	1.321677	1.016890	-0.000029
C56	C	1.425179	1.016894	-0.000031
C57	C	1.016706	1.016881	-0.301541
C58	C	1.016703	1.016883	-0.403874
C59	C	1.016695	1.321855	-0.000021
C60	C	1.016688	1.425363	-0.000021
C61	C	0.957145	1.135985	-0.510826
C62	C	0.957159	1.135979	-0.606975
C63	C	1.076289	0.897757	-0.489205
C64	C	1.076282	0.897765	-0.393059
C65	C	1.016721	1.016871	0.301498
C66	C	1.016724	1.016869	0.403831
C67	C	1.321696	0.711910	-0.000029
C68	C	1.425204	0.608407	-0.000032
C69	C	1.016740	0.711891	0.301497
C70	C	1.016749	0.608382	0.403830
C71	C	1.321704	0.711905	0.301490
C72	C	1.425215	0.608401	0.403821
C73	C	0.711723	1.321847	-0.301533
C74	C	0.608212	1.425351	-0.403863
C75	C	0.711731	1.321842	-0.000014
C76	C	0.608223	1.425344	-0.000011
C77	C	1.016687	1.321860	-0.301540
C78	C	1.016678	1.425369	-0.403873
C79	C	1.414284	0.559777	-0.058907
C80	C	1.511545	0.462534	-0.058913
C81	C	1.630643	0.462555	0.058839
C82	C	1.533383	0.559803	0.058838
C83	C	1.076304	0.559753	0.510782
C84	C	1.076300	0.462505	0.606931
C85	C	0.957184	0.462519	0.489161
C86	C	0.957182	0.559772	0.393015
C87	C	1.533393	0.559775	0.393019
C88	C	1.630648	0.462531	0.489174
C89	C	1.511534	0.462541	0.606926
C90	C	1.414280	0.559790	0.510774
H91	H	1.099899	0.318121	0.195661
H92	H	0.908688	0.422927	0.480369
C93	C	1.065976	0.432573	0.783369
C94	C	1.141765	0.409055	0.724494
H95	H	1.106393	0.399584	0.855945
H96	H	1.030519	0.389695	0.790696
H97	H	1.009628	0.524396	0.743399
H98	H	1.198108	0.317230	0.764460
H99	H	1.177240	0.451930	0.717171
H100	H	1.326190	0.599385	0.519577
C101	C	0.420510	1.279592	-0.291917
C102	C	0.517905	1.149986	-0.227069
H103	H	0.421326	1.323363	-0.366631
H104	H	0.419529	1.323903	-0.260366
H105	H	0.354622	1.279404	-0.292746
H106	H	0.583794	1.150174	-0.226233
H107	H	0.518897	1.105664	-0.258628
C108	C	1.255725	0.422067	0.190740
C109	C	1.246435	0.421432	0.095358
H110	H	1.331324	0.391055	0.222122
H111	H	1.237755	0.366532	0.244707
H112	H	1.204408	0.509053	0.170072
H113	H	1.297746	0.334444	0.116027
H114	H	1.264418	0.476968	0.041381
H115	H	0.908680	0.599370	0.305923
H116	H	0.689635	0.787245	0.113560
H117	H	0.517417	1.131592	0.082394
C118	C	0.985473	0.716329	-0.291420
C119	C	0.920209	0.747712	-0.227155
H120	H	0.953718	0.792683	-0.366147
H121	H	0.985719	0.650701	-0.292347
H122	H	1.061242	0.684338	-0.259356
H123	H	0.844442	0.779694	-0.259214
H124	H	0.919951	0.813363	-0.226233
C125	C	1.437169	0.708883	0.111129
C126	C	1.545383	0.613258	0.123567
H127	H	1.444577	0.741887	0.151082
H128	H	1.396779	0.670931	0.140202
H129	H	1.396768	0.778693	0.033664
H130	H	1.585781	0.543442	0.201031
H131	H	1.585789	0.651209	0.094498
H132	H	1.542301	0.599353	0.305937
H133	H	1.124803	0.599333	0.519595
H134	H	0.515932	0.902057	0.195729
H135	H	0.818612	0.599589	-0.082430
H136	H	0.343920	1.246634	-0.113502
C137	C	1.738611	0.472281	0.363117
C138	C	1.749560	0.409076	0.477299
H139	H	1.812025	0.439274	0.355787
H140	H	1.698201	0.564088	0.328060
H141	H	1.698197	0.456327	0.328073
H142	H	1.789968	0.425038	0.512342
H143	H	1.789987	0.317247	0.512370
C144	C	0.904226	1.241778	-0.415735
C145	C	0.891664	1.266917	-0.522710
H146	H	0.863795	1.322614	-0.423078
H147	H	0.982565	1.192854	-0.375792
H148	H	0.874818	1.192835	-0.375795
H149	H	0.921080	1.315852	-0.562647
H150	H	0.813309	1.315862	-0.562670
H151	H	1.502645	0.422949	0.694017
H152	H	0.901767	0.574929	0.113456
C153	C	0.611974	0.753386	-0.030849
C154	C	0.515603	0.883665	-0.095406
H155	H	0.611216	0.709548	-0.062240
H156	H	0.611507	0.710077	0.044040
H157	H	0.678558	0.752182	-0.030584
H158	H	0.449019	0.884868	-0.095665
H159	H	0.516061	0.926985	-0.170315
H160	H	1.502643	0.422945	-0.106857
H161	H	1.718732	0.422967	0.106771
C162	C	0.935031	1.339038	-0.736944
C163	C	0.891686	1.266904	-0.724537
H164	H	0.894603	1.419872	-0.809521
H165	H	1.013370	1.290107	-0.728514
H166	H	0.926496	1.356073	-0.681220
H167	H	0.900229	1.249860	-0.780257
H168	H	0.813327	1.315845	-0.732979
C169	C	1.129125	0.791959	-0.584292
C170	C	1.141764	0.766824	-0.477319
H171	H	1.169541	0.711122	-0.576947
H172	H	1.158497	0.840915	-0.624282
H173	H	1.050763	0.840868	-0.624188
H174	H	1.220125	0.717922	-0.437426
H175	H	1.112397	0.717847	-0.437313
H176	H	1.124787	0.800771	-0.305968
C177	C	1.212307	0.708837	-0.111189
C178	C	1.295373	0.613213	-0.123623
H179	H	1.138898	0.741817	-0.151140
H180	H	1.220828	0.778651	-0.140267
H181	H	1.220850	0.670882	-0.033724
H182	H	1.286835	0.651170	-0.201087
H183	H	1.286848	0.543386	-0.094549
H184	H	1.131429	0.458798	-0.113601
