data_functionalizedCrystal
_audit_creation_method	'MofGen! by Chris Wilmer'
_symmetry_space_group_name_H-M	'P1'
_symmetry_Int_Tables_number	1
_symmetry_cell_setting	triclinic
loop_
_symmetry_equiv_pos_as_xyz
  x,y,z
_cell_length_a	10.654543
_cell_length_b	9.130313
_cell_length_c	10.654550
_cell_angle_alpha	90.001126
_cell_angle_beta	95.516448
_cell_angle_gamma	90.004406
loop_
_atom_site_label
_atom_site_type_symbol
_atom_site_fract_x
_atom_site_fract_y
_atom_site_fract_z
O1	O	-1.667839	0.121641	0.176353
O2	O	-1.302359	0.121679	0.193168
O3	O	-1.493502	0.121650	0.002021
O4	O	-1.476696	0.121670	0.367500
O5	O	-1.493500	-0.121949	0.002026
O6	O	-1.302357	-0.121920	0.193173
O7	O	-1.667837	-0.121957	0.176358
Cu8	Cu	-1.485097	-0.144181	0.184766
Cu9	Cu	-1.485099	0.143903	0.184760
O10	O	-1.476694	-0.121929	0.367505
C11	C	-1.255560	-0.000116	0.191938
C12	C	-1.116116	-0.000102	0.188249
C13	C	-1.036631	-0.000098	0.300793
C14	C	-0.905609	-0.000120	0.297319
C15	C	-0.933573	-0.000144	0.068749
C16	C	-1.064591	-0.000132	0.072224
N17	N	-1.485104	-0.346804	0.184770
C18	C	-1.569764	-0.423469	0.100159
C19	C	-1.569760	-0.576805	0.100144
C20	C	-1.400433	-0.576799	0.269361
C21	C	-1.400431	-0.423465	0.269369
C22	C	-1.654436	-0.346807	0.015559
C23	C	-1.739104	-0.423472	-0.069058
C24	C	-1.739101	-0.576809	-0.069073
C25	C	-1.654429	-0.653481	0.015529
C26	C	-0.714635	-0.000152	0.177595
C27	C	-0.854077	-0.000135	0.181301
C28	C	-1.492267	-0.000148	-0.044774
C29	C	-1.488575	-0.000146	-0.184217
N30	N	-1.485102	0.346525	0.184747
C31	C	-1.601117	-0.000157	-0.263706
C32	C	-1.597641	-0.000139	-0.394726
C33	C	-1.369070	-0.000105	-0.366758
C34	C	-1.372548	-0.000112	-0.235740
C35	C	-1.477929	-0.000127	0.414301
C36	C	-1.481621	-0.000120	0.553744
H37	H	-1.129313	-0.000140	-0.019428
H38	H	-1.274605	-0.000080	-0.408724
Cl39	Cl	-1.654450	-0.154042	0.015578
H40	H	-1.808034	-0.361038	-0.137945
Cl41	Cl	-1.231055	-0.000086	-0.135803
Cl42	Cl	-0.868788	-0.000172	-0.077103
Cl43	Cl	-1.654421	-0.846249	0.015493
H44	H	-1.331498	-0.639236	0.338242
Cl45	Cl	-1.101401	-0.000069	0.446652
H46	H	-1.331492	-0.361044	0.338266
Cl47	Cl	-1.845527	-0.673186	-0.175455
Cl48	Cl	-1.746979	-0.000195	-0.198939
Cl49	Cl	-1.739129	-0.000149	-0.494650
H50	H	-0.840896	-0.000119	0.388964
