data_functionalizedCrystal
_audit_creation_method	'MofGen! by Chris Wilmer'
_symmetry_space_group_name_H-M	'P1'
_symmetry_Int_Tables_number	1
_symmetry_cell_setting	triclinic
loop_
_symmetry_equiv_pos_as_xyz
  x,y,z
_cell_length_a	23.203873
_cell_length_b	23.204288
_cell_length_c	23.204116
_cell_angle_alpha	90.003954
_cell_angle_beta	120.003236
_cell_angle_gamma	60.000205
loop_
_atom_site_label
_atom_site_type_symbol
_atom_site_fract_x
_atom_site_fract_y
_atom_site_fract_z
O1	O	-0.508292	-0.395395	-0.017140
O2	O	-0.390291	-0.311578	0.017066
O3	O	-0.508295	-0.311587	-0.100944
O4	O	-0.390288	-0.395386	0.100870
O5	O	-0.412439	-0.407433	-0.100943
O6	O	-0.294435	-0.407425	0.017067
O7	O	-0.412436	-0.491241	-0.017139
Zn8	Zn	-0.338216	-0.464551	-0.000036
Zn9	Zn	-0.464510	-0.338269	-0.000037
O10	O	-0.294432	-0.491233	0.100871
C11	C	-0.212733	-0.248593	0.035769
C12	C	-0.253191	-0.284154	0.030878
C13	C	-0.247087	-0.179236	0.036255
C14	C	-0.108373	-0.248596	0.035765
C15	C	-0.037249	-0.284161	0.030869
C16	C	-0.142886	-0.179239	0.036251
C17	C	-0.212730	-0.144236	0.035765
C18	C	-0.253185	-0.068218	0.030870
C19	C	-0.142889	-0.283438	0.036255
C20	C	-0.285870	-0.006802	0.026914
C21	C	-0.285878	-0.312882	0.026924
C22	C	0.020211	-0.312893	0.026913
C23	C	-0.326873	0.070246	0.021951
C24	C	-0.326885	-0.348925	0.021966
C25	C	0.092298	-0.348939	0.021950
C26	C	-0.621314	-0.492137	-0.024932
C27	C	-0.692441	-0.456578	-0.020040
C28	C	-0.586797	-0.561493	-0.025421
C29	C	-0.516954	-0.492131	-0.024927
C30	C	-0.476499	-0.456566	-0.020030
C31	C	-0.482596	-0.561487	-0.025416
C32	C	-0.516950	-0.596491	-0.024931
C33	C	-0.476491	-0.672509	-0.020039
C34	C	-0.586801	-0.457291	-0.025417
C35	C	-0.589997	-0.248602	-0.445841
C36	C	-0.549539	-0.284162	-0.481404
C37	C	-0.659845	-0.179248	-0.480684
C38	C	-0.589997	-0.248603	-0.341482
C39	C	-0.549538	-0.284163	-0.265463
C40	C	-0.659844	-0.179249	-0.376483
C41	C	-0.694360	-0.144249	-0.445840
C42	C	-0.765488	-0.068233	-0.481402
C43	C	-0.555640	-0.283444	-0.376484
C44	C	-0.822952	-0.006820	-0.510132
C45	C	-0.516852	-0.312891	-0.510134
C46	C	-0.516851	-0.312892	-0.204047
C47	C	-0.895043	0.070225	-0.546175
C48	C	-0.475846	-0.348932	-0.546178
C49	C	-0.475845	-0.348934	-0.126998
O50	O	0.281063	-0.491257	-0.017151
O51	O	0.113450	-0.407441	0.017051
O52	O	0.113444	-0.407452	-0.100957
O53	O	0.281070	-0.491246	0.100857
O54	O	0.113447	-0.311604	-0.100961
O55	O	0.113453	-0.311593	0.017047
O56	O	0.281066	-0.395408	-0.017154
Zn57	Zn	0.197260	-0.338282	-0.000054
Zn58	Zn	0.197256	-0.464567	-0.000049
O59	O	0.281073	-0.395397	0.100854
O60	O	-0.412428	0.298108	-0.017152
O61	O	-0.294425	0.096299	0.017049
O62	O	-0.412434	0.214294	-0.100959
O63	O	-0.294418	0.180112	0.100856
O64	O	-0.508286	0.214297	-0.100955
O65	O	-0.390276	0.096301	0.017052
O66	O	-0.508279	0.298111	-0.017148
Zn67	Zn	-0.464496	0.197206	-0.000047
Zn68	Zn	-0.338208	0.197203	-0.000052
O69	O	-0.390270	0.180115	0.100860
O70	O	-1.083822	0.298082	-0.592627
O71	O	-0.916197	0.096277	-0.508826
O72	O	-0.916202	0.214284	-0.508818
O73	O	-1.083816	0.180075	-0.592635
O74	O	-0.916205	0.214287	-0.604671
O75	O	-0.916200	0.096280	-0.604678
O76	O	-1.083824	0.298085	-0.688479
Zn77	Zn	-1.000012	0.197183	-0.661797
Zn78	Zn	-1.000009	0.197179	-0.535508
O79	O	-1.083819	0.180078	-0.688487
O80	O	-0.390283	-0.395391	-0.688484
O81	O	-0.508295	-0.311586	-0.604681
O82	O	-0.390289	-0.311580	-0.604674
O83	O	-0.508290	-0.395397	-0.688491
O84	O	-0.294435	-0.407425	-0.508823
O85	O	-0.412441	-0.407431	-0.508829
O86	O	-0.294429	-0.491236	-0.592633
Zn87	Zn	-0.338217	-0.464551	-0.535513
Zn88	Zn	-0.464508	-0.338271	-0.661801
O89	O	-0.412436	-0.491242	-0.592639
C90	C	-0.181400	-0.596471	0.310630
C91	C	-0.110272	-0.672487	0.346191
C92	C	-0.215915	-0.561472	0.345474
C93	C	-0.285765	-0.492117	0.206272
C94	C	-0.326223	-0.456556	0.130253
C95	C	-0.320121	-0.457276	0.241274
C96	C	-0.285763	-0.492118	0.310632
C97	C	-0.326220	-0.456559	0.346195
C98	C	-0.215917	-0.561471	0.241273
C99	C	0.483062	-0.492122	0.310617
C100	C	0.523523	-0.456560	0.346179
C101	C	0.517416	-0.561476	0.345461
C102	C	0.378695	-0.492125	0.206258
C103	C	0.307566	-0.456567	0.130238
C104	C	0.413208	-0.561479	0.241260
C105	C	0.483056	-0.596477	0.310618
C106	C	0.523511	-0.672493	0.346181
C107	C	0.413213	-0.457282	0.241259
C108	C	-0.285755	0.172369	0.310615
C109	C	-0.326211	0.177270	0.346178
C110	C	-0.215912	0.171889	0.345455
C111	C	-0.285754	0.172350	0.206257
C112	C	-0.326209	0.177230	0.130240
C113	C	-0.215910	0.171869	0.241255
C114	C	-0.181398	0.172370	0.310610
C115	C	-0.110275	0.177271	0.346168
C116	C	-0.320109	0.171869	0.241260
C117	C	-0.212756	-0.144276	-0.445860
C118	C	-0.253211	-0.068261	-0.481423
C119	C	-0.247115	-0.179278	-0.480702
C120	C	-0.108394	-0.248628	-0.341499
C121	C	-0.037265	-0.284186	-0.265480
C122	C	-0.142912	-0.283471	-0.376500
C123	C	-0.212760	-0.248632	-0.445858
C124	C	-0.253221	-0.284194	-0.481419
C125	C	-0.142907	-0.179274	-0.376502
C126	C	-0.285910	-0.312925	-0.510149
C127	C	-0.285896	-0.006848	-0.510155
C128	C	0.020198	-0.312913	-0.204063
C129	C	-0.326920	-0.348969	-0.546191
C130	C	-0.326900	0.070197	-0.546200
C131	C	0.092290	-0.348952	-0.127014
O132	O	0.609722	-0.903681	0.395316
O133	O	0.491717	-0.701877	0.311503
O134	O	0.609720	-0.819883	0.311503
O135	O	0.491719	-0.785675	0.395316
O136	O	0.705577	-0.819878	0.407353
O137	O	0.587574	-0.701871	0.407353
O138	O	0.705579	-0.903676	0.491166
Zn139	Zn	0.661796	-0.802773	0.464477
Zn140	Zn	0.535500	-0.802780	0.338191
O141	O	0.587576	-0.785669	0.491166
C142	C	-0.694338	0.232944	-0.445844
C143	C	-0.765463	0.228045	-0.481403
C144	C	-0.659823	0.233423	-0.480689
C145	C	-0.589981	0.232962	-0.341491
C146	C	-0.549526	0.228082	-0.265473
C147	C	-0.555624	0.233441	-0.376493
C148	C	-0.589979	0.232941	-0.445848
C149	C	-0.549521	0.228038	-0.481411
C150	C	-0.659826	0.233444	-0.376489
C151	C	-0.516834	0.224076	-0.510142
C152	C	-0.822923	0.224085	-0.510130
C153	C	-0.516841	0.224138	-0.204059
C154	C	-0.475828	0.219106	-0.546186
C155	C	-0.895010	0.219119	-0.546170
C156	C	-0.475837	0.219191	-0.127012
H157	H	-0.113993	-0.151144	0.037040
C158	C	-0.698828	0.234498	-0.338510
C159	C	-0.706783	0.174061	-0.327548
C160	C	-0.745773	0.175108	-0.289562
C161	C	-0.776809	0.236592	-0.262538
C162	C	-0.768855	0.297034	-0.273499
C163	C	-0.729865	0.295987	-0.311485
H164	H	-0.683808	0.128542	-0.347554
H165	H	-0.751661	0.130364	-0.281448
H166	H	-0.805672	0.237367	-0.234418
H167	H	-0.791830	0.342553	-0.253493
H168	H	-0.723977	0.340731	-0.319599
H169	H	-0.376322	0.171096	0.213158
C170	C	-0.323016	-0.141261	0.037310
C171	C	-0.402371	-0.130313	-0.023122
C172	C	-0.478299	-0.092335	-0.022071
C173	C	-0.474872	-0.065305	0.039412
C174	C	-0.395515	-0.076253	0.099849
C175	C	-0.319587	-0.114230	0.098798
H176	H	-0.404910	-0.150323	-0.068639
H177	H	-0.537044	-0.084232	-0.066810
H178	H	-0.531079	-0.037192	0.040190
H179	H	-0.392976	-0.056243	0.145367
H180	H	-0.260841	-0.122334	0.143537
H181	H	-0.114017	-0.340459	-0.348399
H182	H	-0.499418	0.234224	-0.348390
H183	H	-0.376327	-0.400292	0.213171
H184	H	-0.688722	-0.151148	-0.348375
H185	H	-0.303327	-0.151174	-0.537686
H186	H	-0.114022	-0.151169	-0.348404
H187	H	-0.688716	0.234205	-0.537677
C188	C	-0.103864	-0.360422	0.037317
C189	C	-0.141827	-0.398914	0.037843
C190	C	-0.102802	-0.475895	0.038905
C191	C	-0.025813	-0.514385	0.039443
C192	C	0.012154	-0.475894	0.038917
C193	C	-0.026871	-0.398912	0.037855
H194	H	-0.198822	-0.370421	0.037445
H195	H	-0.130908	-0.504389	0.039294
H196	H	0.003075	-0.571371	0.040229
H197	H	0.069149	-0.504386	0.039315
H198	H	0.001235	-0.370418	0.037466
H199	H	-0.187016	-0.589571	0.402465
H200	H	-0.426389	-0.589585	-0.026195
C201	C	-0.625804	-0.599471	-0.026481
C202	C	-0.714312	-0.569039	-0.087960
C203	C	-0.753311	-0.607021	-0.089018
C204	C	-0.703802	-0.675435	-0.028596
C205	C	-0.615289	-0.705871	0.032889
C206	C	-0.576290	-0.667889	0.033946
H207	H	-0.750967	-0.518391	-0.132692
H208	H	-0.818835	-0.584490	-0.134532
H209	H	-0.732671	-0.703552	-0.029378
H210	H	-0.578634	-0.756518	0.077621
H211	H	-0.510766	-0.690419	0.079461
C212	C	-0.176891	-0.599400	0.203302
C213	C	-0.088387	-0.626394	0.233761
C214	C	-0.049362	-0.664308	0.195787
C215	C	-0.098840	-0.675228	0.127355
C216	C	-0.187349	-0.648234	0.096892
C217	C	-0.226374	-0.610320	0.134866
H218	H	-0.051756	-0.618311	0.284422
H219	H	0.016158	-0.684291	0.218338
H220	H	-0.069952	-0.703294	0.099245
H221	H	-0.223980	-0.656317	0.046232
H222	H	-0.291895	-0.590337	0.112315
H223	H	-0.615689	-0.400307	-0.026195
H224	H	0.384368	-0.400316	0.213141
H225	H	-0.187029	0.171082	0.213149
H226	H	-0.688731	-0.151152	-0.537672
H227	H	0.573620	-0.589571	0.402449
C228	C	0.374187	-0.599448	0.203305
C229	C	0.366208	-0.610404	0.134901
C230	C	0.327193	-0.648375	0.096951
C231	C	0.296156	-0.675390	0.127405
C232	C	0.304134	-0.664434	0.195813
C233	C	0.343150	-0.626463	0.233763
H234	H	0.389184	-0.590406	0.112354
H235	H	0.321287	-0.656485	0.046311
H236	H	0.267275	-0.703498	0.099312
H237	H	0.281159	-0.684432	0.218360
H238	H	0.349056	-0.618353	0.284403
C239	C	-0.479705	-0.360422	-0.338515
C240	C	-0.441727	-0.398910	-0.376997
C241	C	-0.365791	-0.475883	-0.339026
C242	C	-0.327835	-0.514367	-0.262574
C243	C	-0.365813	-0.475878	-0.224088
C244	C	-0.441748	-0.398905	-0.262058
H245	H	-0.469825	-0.370422	-0.433596
H246	H	-0.337678	-0.504375	-0.367517
H247	H	-0.271623	-0.571347	-0.234466
H248	H	-0.337715	-0.504366	-0.167489
H249	H	-0.469862	-0.370414	-0.233568
H250	H	-0.187026	0.171109	0.402442
