data_functionalizedCrystal
_audit_creation_method	'MofGen! by Chris Wilmer'
_symmetry_space_group_name_H-M	'P1'
_symmetry_Int_Tables_number	1
_symmetry_cell_setting	triclinic
loop_
_symmetry_equiv_pos_as_xyz
  x,y,z
_cell_length_a	12.594517
_cell_length_b	19.121063
_cell_length_c	12.594509
_cell_angle_alpha	92.405810
_cell_angle_beta	89.978673
_cell_angle_gamma	92.468805
loop_
_atom_site_label
_atom_site_type_symbol
_atom_site_fract_x
_atom_site_fract_y
_atom_site_fract_z
Zn1	Zn	1.609106	-0.279596	-0.619881
Zn2	Zn	1.601367	-0.397059	-0.449473
Zn3	Zn	1.431108	-0.279626	-0.441911
Zn4	Zn	1.423466	-0.397010	-0.627400
O5	O	1.516262	-0.338323	-0.534666
O6	O	1.757025	-0.295185	-0.597293
O7	O	1.578742	-0.381514	-0.299526
O8	O	1.461157	-0.181338	-0.459208
O9	O	1.751339	-0.381485	-0.472096
O10	O	1.591931	-0.181315	-0.589961
O11	O	1.453653	-0.295237	-0.293971
O12	O	1.281149	-0.295189	-0.466499
O13	O	1.448132	-0.381402	-0.775346
O14	O	1.275534	-0.381431	-0.602777
O15	O	1.584521	-0.295138	-0.769822
O16	O	1.571331	-0.495337	-0.479386
O17	O	1.440628	-0.495301	-0.610109
C18	C	1.239722	-0.338309	-0.534634
C19	C	1.121416	-0.338319	-0.534646
C20	C	1.504339	-0.520803	-0.546407
C21	C	1.499336	-0.598868	-0.551466
C22	C	1.055190	-0.291349	-0.460657
C23	C	0.980217	-0.355414	-0.438606
C24	C	0.985587	-0.274285	-0.556717
C25	C	1.047999	-0.402419	-0.512547
C26	C	1.053378	-0.321246	-0.630701
C27	C	0.978435	-0.385356	-0.608690
C28	C	1.565089	-0.635539	-0.485838
C29	C	1.560390	-0.708890	-0.490602
C30	C	1.489932	-0.745569	-0.560988
C31	C	1.424176	-0.708893	-0.626623
C32	C	1.428881	-0.635544	-0.621864
C33	C	1.472323	-0.967038	-0.578765
C34	C	1.467620	-1.040393	-0.583517
C35	C	1.603835	-1.040385	-0.447497
C36	C	1.608530	-0.967034	-0.442740
C37	C	1.542779	-0.930365	-0.508378
C38	C	1.485124	-0.820546	-0.565857
C39	C	1.547592	-0.855389	-0.503514
C40	C	1.793882	-0.338337	-0.534699
C41	C	1.912187	-0.338343	-0.534713
C42	C	1.516337	-0.338261	-0.812283
C43	C	1.516369	-0.338235	-0.930587
C44	C	1.528260	-0.155130	-0.522903
C45	C	1.533373	-0.077064	-0.517890
C46	C	1.442211	-0.385127	-1.002843
C47	C	1.538217	-0.402288	-1.074740
C48	C	1.420442	-0.321032	-1.069487
C49	C	1.612424	-0.355429	-1.000927
C50	C	1.494585	-0.274143	-0.995667
C51	C	1.590659	-0.291280	-1.067530
C52	C	1.516251	-0.338333	-0.258126
C53	C	1.516438	-0.338162	-0.139810
H54	H	1.088788	-0.251666	-0.398014
H55	H	1.375340	-0.605687	-0.675306
C56	C	1.346668	-0.749243	-0.704045
N57	N	1.288282	-0.779633	-0.762357
H58	H	1.427755	-0.850418	-0.623164
C59	C	1.625091	-0.815040	-0.426089
N60	N	1.683460	-0.784643	-0.367768
H61	H	1.085502	-0.306771	-0.711878
H62	H	1.075422	-0.456598	-0.493817
C63	C	1.469599	-0.200985	-0.948890
N64	N	1.450768	-0.145882	-0.913654
H65	H	1.379541	-0.424844	-0.974345
H66	H	1.693597	-0.370011	-0.970908
C67	C	1.563157	-0.475467	-1.121484
N68	N	1.581935	-0.530587	-1.156689
C69	C	0.936845	-0.374940	-0.328907
N70	N	0.904179	-0.389641	-0.246280
C71	C	1.675513	-0.237665	-1.105771
N72	N	1.739428	-0.197284	-1.134577
C73	C	1.310807	-0.301412	-1.110218
N74	N	1.228227	-0.286640	-1.140892
H75	H	0.945025	-0.425134	-0.671292
C76	C	1.686012	-0.926693	-0.365282
N77	N	1.744360	-0.896308	-0.306927
C78	C	0.948368	-0.201113	-0.581905
N79	N	0.920339	-0.145998	-0.600869
C80	C	1.642596	-0.595199	-0.408405
N81	N	1.700980	-0.564817	-0.350082
H82	H	1.613932	-0.738745	-0.437161
H83	H	1.657368	-1.070249	-0.394060
H84	H	1.410257	-1.070255	-0.640852
C85	C	1.400048	-0.926711	-0.651024
N86	N	1.345627	-0.896335	-0.705473
