data_functionalizedCrystal
_audit_creation_method	'MofGen! by Chris Wilmer'
_symmetry_space_group_name_H-M	'P1'
_symmetry_Int_Tables_number	1
_symmetry_cell_setting	triclinic
loop_
_symmetry_equiv_pos_as_xyz
  x,y,z
_cell_length_a	16.109318
_cell_length_b	12.811415
_cell_length_c	14.586319
_cell_angle_alpha	84.565349
_cell_angle_beta	90.000075
_cell_angle_gamma	83.757608
loop_
_atom_site_label
_atom_site_type_symbol
_atom_site_fract_x
_atom_site_fract_y
_atom_site_fract_z
O1	O	1.103618	0.134999	-0.087386
O2	O	0.861620	0.151769	-0.088799
O3	O	0.988707	-0.009410	-0.075385
O4	O	0.976531	0.296178	-0.100801
O5	O	0.988698	-0.009412	0.077096
O6	O	0.861611	0.151767	0.063682
O7	O	1.103609	0.134996	0.065095
Cu8	Cu	0.982609	0.143382	0.078311
Cu9	Cu	0.982620	0.143384	-0.102015
O10	O	0.976522	0.296176	0.051680
C11	C	0.830638	0.151086	-0.012504
C12	C	0.738336	0.149040	-0.012341
C13	C	0.439243	0.142432	-0.094892
C14	C	0.525971	0.144348	-0.095057
C15	C	0.525980	0.144331	0.071187
C16	C	0.439254	0.142408	0.071352
C17	C	0.395887	0.141464	-0.011691
C18	C	0.569342	0.145302	-0.012021
C19	C	0.663376	0.147379	-0.012199
C20	C	0.301847	0.139384	-0.011513
C21	C	0.988020	-0.048515	0.004106
C22	C	0.985977	-0.165033	0.013791
C23	C	0.982131	-0.383968	-0.134265
C24	C	0.980211	-0.493446	-0.125170
C25	C	0.980211	-0.493470	0.041075
C26	C	0.982131	-0.383991	0.031980
C27	C	0.983092	-0.329244	-0.055693
C28	C	0.985018	-0.219764	-0.064787
C29	C	0.985011	-0.219789	0.101457
C30	C	0.983091	-0.329268	0.110552
C31	C	1.134591	0.135680	-0.011202
C32	C	1.226893	0.137726	-0.011371
C33	C	0.977209	0.335281	-0.027812
C34	C	0.979252	0.451799	-0.037503
N35	N	0.982608	0.143379	0.205143
N36	N	0.982628	0.143379	-0.228847
C37	C	1.038901	0.072033	0.446087
C38	C	1.038903	0.072030	0.542069
C39	C	0.926329	0.214728	0.530202
C40	C	0.926323	0.214725	0.434223
C41	C	0.982614	0.143378	0.392168
C42	C	0.982622	0.143379	0.584129
C43	C	0.982624	0.143377	0.688196
C44	C	0.982611	0.143379	0.288094
H45	H	0.403936	0.141662	-0.162511
F46	F	0.986045	-0.161500	-0.158095
F47	F	0.983166	-0.325701	-0.227571
F48	F	1.098810	-0.003908	0.599451
H49	H	0.880483	0.272824	0.390318
H50	H	0.403953	0.141618	0.139108
H51	H	0.880499	0.272819	0.564453
H52	H	0.561268	0.145135	-0.162808
F53	F	0.572141	0.145344	0.159561
H54	H	0.979426	-0.537997	-0.189152
F55	F	0.979167	-0.551749	0.134375
H56	H	0.982305	-0.373857	0.181933
H57	H	0.985797	-0.175222	0.165436
F58	F	1.098809	-0.003904	0.401333
