data_functionalizedCrystal
_audit_creation_method	'MofGen! by Chris Wilmer'
_symmetry_space_group_name_H-M	'P1'
_symmetry_Int_Tables_number	1
_symmetry_cell_setting	triclinic
loop_
_symmetry_equiv_pos_as_xyz
  x,y,z
_cell_length_a	14.519709
_cell_length_b	15.944551
_cell_length_c	13.596369
_cell_angle_alpha	89.993059
_cell_angle_beta	90.000291
_cell_angle_gamma	83.589442
loop_
_atom_site_label
_atom_site_type_symbol
_atom_site_fract_x
_atom_site_fract_y
_atom_site_fract_z
O1	O	1.223676	0.110109	-0.081665
O2	O	0.955176	0.123076	-0.081696
O3	O	1.096758	-0.005672	-0.081671
O4	O	1.082094	0.238856	-0.081690
O5	O	1.096744	-0.005679	0.081912
O6	O	0.955162	0.123069	0.081887
O7	O	1.223662	0.110102	0.081917
Zn8	Zn	1.089410	0.116584	0.107875
Zn9	Zn	1.089428	0.116593	-0.107653
O10	O	1.082080	0.238850	0.081893
C11	C	0.920810	0.122468	0.000092
C12	C	0.818432	0.120657	0.000081
C13	C	0.443548	0.113990	0.000126
C14	C	0.547853	0.115842	0.000113
C15	C	0.630987	0.117323	0.000102
C16	C	0.735298	0.119175	0.000091
C17	C	1.096142	-0.036970	0.000121
C18	C	1.094317	-0.130219	0.000121
C19	C	1.002196	-0.345209	0.000097
C20	C	1.044967	-0.406168	0.080758
C21	C	1.091015	-0.300950	0.000113
C22	C	1.045002	-0.406144	-0.080522
C23	C	1.087820	-0.465867	0.000101
C24	C	1.133811	-0.360680	0.080841
C25	C	1.133833	-0.360650	-0.080512
C26	C	1.176669	-0.421591	0.000169
C27	C	1.092854	-0.205945	0.000121
C28	C	1.085988	-0.560871	0.000100
C29	C	1.258028	0.110710	0.000128
C30	C	1.360406	0.112521	0.000132
C31	C	1.082696	0.270148	0.000099
C32	C	1.084521	0.363397	0.000092
N33	N	1.089404	0.116578	0.254966
N34	N	1.089442	0.116593	-0.254745
C35	C	1.089427	0.116594	0.656257
C36	C	1.089418	0.116592	0.544606
C37	C	1.089416	0.116587	0.455615
C38	C	1.089406	0.116584	0.343957
H39	H	1.007394	-0.426333	0.148942
H40	H	1.007429	-0.426273	-0.148719
H41	H	0.928471	-0.312009	0.000169
H42	H	1.171341	-0.340638	0.149108
C43	C	1.276349	-0.466252	0.000238
C44	C	1.309957	-0.525422	-0.085082
C45	C	1.409634	-0.570085	-0.085008
C46	C	1.475702	-0.555578	0.000386
C47	C	1.442095	-0.496405	0.085713
C48	C	1.342418	-0.451742	0.085638
H49	H	1.261049	-0.536164	-0.148302
H50	H	1.434513	-0.613889	-0.148173
H51	H	1.549489	-0.588640	0.000441
H52	H	1.491003	-0.485663	0.148932
H53	H	1.317540	-0.407938	0.148803
H54	H	1.171374	-0.340463	-0.148699
