data_functionalizedCrystal
_audit_creation_method	'MofGen! by Chris Wilmer'
_symmetry_space_group_name_H-M	'P1'
_symmetry_Int_Tables_number	1
_symmetry_cell_setting	triclinic
loop_
_symmetry_equiv_pos_as_xyz
  x,y,z
_cell_length_a	14.519709
_cell_length_b	10.540539
_cell_length_c	13.596369
_cell_angle_alpha	89.996161
_cell_angle_beta	90.000291
_cell_angle_gamma	84.102818
loop_
_atom_site_label
_atom_site_type_symbol
_atom_site_fract_x
_atom_site_fract_y
_atom_site_fract_z
O1	O	1.224765	0.166400	-0.081658
O2	O	0.956394	0.185995	-0.081688
O3	O	1.096702	-0.008572	-0.081671
O4	O	1.084457	0.360966	-0.081675
O5	O	1.096688	-0.008582	0.081912
O6	O	0.956380	0.185985	0.081895
O7	O	1.224751	0.166389	0.081924
Zn8	Zn	1.090563	0.176185	0.107882
Zn9	Zn	1.090582	0.176199	-0.107646
O10	O	1.084442	0.360956	0.081908
C11	C	0.922022	0.185077	0.000100
C12	C	0.819626	0.182340	0.000088
C13	C	0.444676	0.172265	0.000133
C14	C	0.548999	0.175063	0.000120
C15	C	0.632148	0.177303	0.000110
C16	C	0.736477	0.180101	0.000099
C17	C	1.095777	-0.055870	0.000118
C18	C	1.093029	-0.196790	0.000113
C19	C	0.987750	-0.379142	-0.000266
C20	C	0.990535	-0.232553	0.000102
C21	C	1.142346	-0.258957	0.093532
C22	C	1.138848	-0.405466	0.093610
C23	C	1.140949	-0.405994	-0.092414
C24	C	1.141893	-0.259022	-0.093649
C25	C	1.259123	0.167308	0.000135
C26	C	1.361519	0.170044	0.000140
C27	C	1.085368	0.408255	0.000116
C28	C	1.088115	0.549175	0.000115
N29	N	1.090557	0.176175	0.254974
N30	N	1.090595	0.176199	-0.254737
C31	C	1.090580	0.176200	0.656265
C32	C	1.090571	0.176198	0.544613
C33	C	1.090569	0.176189	0.455623
C34	C	1.090559	0.176184	0.343964
H35	H	0.947268	-0.407325	-0.067259
O36	O	1.232121	-0.233152	0.097872
C37	C	1.348468	-0.136807	0.189992
C38	C	1.246781	-0.165975	0.185215
H39	H	1.360348	-0.082468	0.260593
H40	H	1.395882	-0.229979	0.189024
H41	H	1.364438	-0.076300	0.123847
H42	H	1.230722	-0.226443	0.251347
H43	H	1.199422	-0.072754	0.186135
H44	H	0.951446	-0.190402	0.067172
H45	H	1.214980	-0.453976	-0.093034
H46	H	1.102389	-0.433298	0.163435
O47	O	0.939690	-0.414906	0.079167
C48	C	0.879300	-0.587841	0.165780
C49	C	0.933756	-0.547515	0.075789
H50	H	0.874468	-0.695053	0.163068
H51	H	0.916403	-0.563007	0.236016
H52	H	0.806651	-0.535287	0.164843
H53	H	1.006409	-0.600047	0.076631
H54	H	0.896581	-0.572324	0.005593
O55	O	1.101391	-0.443003	-0.176957
C56	C	1.026185	-0.376638	-0.329152
C57	C	1.070991	-0.334553	-0.233465
H58	H	1.001577	-0.288978	-0.374856
H59	H	1.079148	-0.440999	-0.372988
H60	H	0.964597	-0.431103	-0.310412
H61	H	1.132571	-0.280037	-0.252117
H62	H	1.017969	-0.270254	-0.189656
O63	O	1.099061	-0.209707	-0.176174
C64	C	1.114219	-0.094323	-0.327339
C65	C	1.162846	-0.150151	-0.233939
H66	H	1.165762	-0.046135	-0.374058
H67	H	1.086542	-0.174214	-0.371436
H68	H	1.054326	-0.021208	-0.305628
H69	H	1.222775	-0.223249	-0.255562
H70	H	1.190458	-0.070191	-0.189865
O71	O	1.226837	-0.463396	0.098734
C72	C	1.389323	-0.435829	0.107812
C73	C	1.289725	-0.370069	0.102028
H74	H	1.440196	-0.360405	0.110455
H75	H	1.397364	-0.497154	0.176957
H76	H	1.404143	-0.498629	0.040229
H77	H	1.274838	-0.307206	0.169561
H78	H	1.281734	-0.308822	0.032840
O79	O	1.101461	-0.207955	0.176533
C80	C	1.020239	-0.247194	0.326266
C81	C	1.066537	-0.305121	0.232322
H82	H	0.991974	-0.325721	0.371387
H83	H	1.073382	-0.200299	0.371697
H84	H	0.961025	-0.172647	0.305220
H85	H	1.125745	-0.379717	0.253279
H86	H	1.013337	-0.351934	0.186915
H87	H	1.216619	-0.235563	-0.099282
H88	H	0.951729	-0.189549	-0.066865
