data_functionalizedCrystal
_audit_creation_method	'MofGen! by Chris Wilmer'
_symmetry_space_group_name_H-M	'P1'
_symmetry_Int_Tables_number	1
_symmetry_cell_setting	triclinic
loop_
_symmetry_equiv_pos_as_xyz
  x,y,z
_cell_length_a	23.532407
_cell_length_b	27.732048
_cell_length_c	22.610064
_cell_angle_alpha	89.999096
_cell_angle_beta	89.997161
_cell_angle_gamma	82.745667
loop_
_atom_site_label
_atom_site_type_symbol
_atom_site_fract_x
_atom_site_fract_y
_atom_site_fract_z
O1	O	0.755138	0.058672	-0.049117
O2	O	1.005138	0.308672	0.200883
O3	O	1.255138	0.558672	0.450883
O4	O	1.505138	0.808672	0.700883
O5	O	0.589257	0.067162	-0.049135
O6	O	0.839257	0.317162	0.200865
O7	O	1.089257	0.567162	0.450865
O8	O	1.339257	0.817162	0.700865
O9	O	0.677349	-0.007472	-0.049114
O10	O	0.927349	0.242528	0.200886
O11	O	1.177349	0.492528	0.450886
O12	O	1.427349	0.742528	0.700886
O13	O	0.667046	0.133306	-0.049138
O14	O	0.917046	0.383306	0.200862
O15	O	1.167046	0.633306	0.450862
O16	O	1.417046	0.883306	0.700862
O17	O	0.677334	-0.007461	0.049255
O18	O	0.927334	0.242539	0.299255
O19	O	1.177334	0.492539	0.549255
O20	O	1.427334	0.742539	0.799255
O21	O	0.589241	0.067173	0.049234
O22	O	0.839241	0.317173	0.299234
O23	O	1.089241	0.567173	0.549234
O24	O	1.339241	0.817173	0.799234
O25	O	0.755123	0.058683	0.049252
O26	O	1.005123	0.308683	0.299252
O27	O	1.255123	0.558683	0.549252
O28	O	1.505123	0.808683	0.799252
Zn29	Zn	0.672179	0.062930	0.064861
Zn30	Zn	0.922179	0.312930	0.314861
Zn31	Zn	1.172179	0.562930	0.564861
Zn32	Zn	1.422179	0.812930	0.814861
Zn33	Zn	0.672200	0.062915	-0.064744
Zn34	Zn	0.922200	0.312915	0.185256
Zn35	Zn	1.172200	0.562915	0.435256
Zn36	Zn	1.422200	0.812915	0.685256
O37	O	0.667030	0.133317	0.049231
O38	O	0.917030	0.383317	0.299231
O39	O	1.167030	0.633317	0.549231
O40	O	1.417030	0.883317	0.799231
C41	C	0.568033	0.066952	0.000047
C42	C	0.818033	0.316952	0.250047
C43	C	1.068033	0.566952	0.500047
C44	C	1.318033	0.816952	0.750047
C45	C	0.504818	0.066302	0.000041
C46	C	0.754818	0.316302	0.250041
C47	C	1.004818	0.566302	0.500041
C48	C	1.254818	0.816302	0.750041
C49	C	0.105629	0.106391	0.000061
C50	C	0.355629	0.356391	0.250061
C51	C	0.605629	0.606391	0.500061
C52	C	0.855629	0.856391	0.750061
C53	C	0.046230	0.105787	0.000064
C54	C	0.296230	0.355787	0.250064
C55	C	0.546230	0.605787	0.500064
C56	C	0.796230	0.855787	0.750064
O57	O	0.009406	0.142951	0.000080
O58	O	0.259406	0.392951	0.250080
O59	O	0.509406	0.642951	0.500080
O60	O	0.759406	0.892951	0.750080
N61	N	0.023699	0.061418	0.000071
N62	N	0.273699	0.311418	0.250071
N63	N	0.523699	0.561418	0.500071
N64	N	0.773699	0.811418	0.750071
C65	C	0.060570	0.017649	0.000080
C66	C	0.310570	0.267649	0.250080
C67	C	0.560570	0.517649	0.500080
C68	C	0.810570	0.767649	0.750080
O69	O	0.035951	-0.020147	0.000086
O70	O	0.285951	0.229853	0.250086
O71	O	0.535951	0.479853	0.500086
O72	O	0.785951	0.729853	0.750086
C73	C	0.119967	0.018253	0.000080
C74	C	0.369967	0.268253	0.250080
C75	C	0.619967	0.518253	0.500080
C76	C	0.869967	0.768253	0.750080
C77	C	0.142495	0.062626	0.000068
C78	C	0.392495	0.312626	0.250068
C79	C	0.642495	0.562626	0.500068
C80	C	0.892495	0.812626	0.750068
C81	C	0.128158	0.150760	0.000049
C82	C	0.378158	0.400760	0.250049
C83	C	0.628158	0.650760	0.500049
C84	C	0.878158	0.900760	0.750049
C85	C	0.187552	0.151364	0.000044
C86	C	0.437552	0.401364	0.250044
C87	C	0.687552	0.651364	0.500044
C88	C	0.937552	0.901364	0.750044
C89	C	0.224419	0.107599	0.000051
C90	C	0.474419	0.357599	0.250051
C91	C	0.724419	0.607599	0.500051
C92	C	0.974419	0.857599	0.750051
C93	C	0.201890	0.063229	0.000063
C94	C	0.451890	0.313229	0.250063
C95	C	0.701890	0.563229	0.500063
C96	C	0.951890	0.813229	0.750063
C97	C	0.156837	-0.025515	0.000093
C98	C	0.406837	0.224485	0.250093
C99	C	0.656837	0.474485	0.500093
C100	C	0.906837	0.724485	0.750093
C101	C	0.216239	-0.024907	0.000094
C102	C	0.466239	0.225093	0.250094
C103	C	0.716239	0.475093	0.500094
C104	C	0.966239	0.725093	0.750094
C105	C	0.238766	0.019466	0.000082
C106	C	0.488766	0.269466	0.250082
C107	C	0.738766	0.519466	0.500082
C108	C	0.988766	0.769466	0.750082
C109	C	0.298151	0.020068	0.000065
C110	C	0.548151	0.270068	0.250065
C111	C	0.798151	0.520068	0.500065
C112	C	1.048151	0.770068	0.750065
N113	N	0.320683	0.064437	0.000059
N114	N	0.570683	0.314437	0.250059
N115	N	0.820683	0.564437	0.500059
N116	N	1.070683	0.814437	0.750059
C117	C	0.283817	0.108203	0.000052
C118	C	0.533817	0.358203	0.250052
C119	C	0.783817	0.608203	0.500052
C120	C	1.033817	0.858203	0.750052
C121	C	-0.064170	0.016383	0.000080
C122	C	0.185830	0.266383	0.250080
C123	C	0.435830	0.516383	0.500080
C124	C	0.685830	0.766383	0.750080
C125	C	-0.123567	0.015778	0.000075
C126	C	0.126433	0.265778	0.250075
C127	C	0.376433	0.515778	0.500075
C128	C	0.626433	0.765778	0.750075
C129	C	-0.137902	0.103917	0.000061
C130	C	0.112098	0.353917	0.250061
C131	C	0.362098	0.603917	0.500061
C132	C	0.612098	0.853917	0.750061
C133	C	-0.078505	0.104521	0.000061
C134	C	0.171495	0.354521	0.250061
C135	C	0.421495	0.604521	0.500061
C136	C	0.671495	0.854521	0.750061
C137	C	-0.041639	0.060753	0.000073
C138	C	0.208361	0.310753	0.250073
C139	C	0.458361	0.560753	0.500073
C140	C	0.708361	0.810753	0.750073
C141	C	0.408551	0.109467	0.000041
C142	C	0.658551	0.359467	0.250041
C143	C	0.908551	0.609467	0.500041
C144	C	1.158551	0.859467	0.750041
C145	C	0.467951	0.110067	0.000034
C146	C	0.717951	0.360067	0.250034
C147	C	0.967951	0.610067	0.500034
C148	C	1.217951	0.860067	0.750034
C149	C	0.482282	0.021928	0.000051
C150	C	0.732282	0.271928	0.250051
C151	C	0.982282	0.521928	0.500051
C152	C	1.232282	0.771928	0.750051
C153	C	0.422886	0.021328	0.000055
C154	C	0.672886	0.271328	0.250055
C155	C	0.922886	0.521328	0.500055
C156	C	1.172886	0.771328	0.750055
C157	C	0.386021	0.065102	0.000052
C158	C	0.636021	0.315102	0.250052
C159	C	0.886021	0.565102	0.500052
C160	C	1.136021	0.815102	0.750052
O161	O	0.335010	-0.017077	0.000052
O162	O	0.585010	0.232923	0.250052
O163	O	0.835010	0.482923	0.500052
O164	O	1.085010	0.732923	0.750052
O165	O	0.308444	0.145992	0.000053
O166	O	0.558444	0.395992	0.250053
O167	O	0.808444	0.645992	0.500053
O168	O	1.058444	0.895992	0.750053
C169	C	0.677125	-0.025473	0.000072
C170	C	0.927125	0.224527	0.250072
C171	C	1.177125	0.474527	0.500072
C172	C	1.427125	0.724527	0.750072
C173	C	0.676474	-0.079129	0.000077
C174	C	0.926474	0.170871	0.250077
C175	C	1.176474	0.420871	0.500077
C176	C	1.426474	0.670871	0.750077
C177	C	0.724431	-0.417871	0.000052
C178	C	0.974431	-0.167871	0.250052
C179	C	1.224431	0.082129	0.500052
C180	C	1.474431	0.332129	0.750052
C181	C	0.722014	-0.619534	0.000043
C182	C	0.972014	-0.369534	0.250043
C183	C	1.222014	-0.119534	0.500043
C184	C	1.472014	0.130466	0.750043
O185	O	0.765867	-0.650722	0.000022
O186	O	1.015867	-0.400722	0.250022
O187	O	1.265867	-0.150722	0.500022
O188	O	1.515867	0.099278	0.750022
N189	N	0.669779	-0.638738	0.000038
N190	N	0.919779	-0.388738	0.250038
N191	N	1.169779	-0.138738	0.500038
N192	N	1.419779	0.111262	0.750038
C193	C	0.618144	-0.607523	0.000031
C194	C	0.868144	-0.357523	0.250031
C195	C	1.118144	-0.107523	0.500031
C196	C	1.368144	0.142477	0.750031
O197	O	0.573659	-0.628484	0.000020
O198	O	0.823659	-0.378484	0.250020
O199	O	1.073659	-0.128484	0.500020
O200	O	1.323659	0.121516	0.750020
C201	C	0.620561	-0.405860	0.000035
C202	C	0.870561	-0.155860	0.250035
C203	C	1.120561	0.094140	0.500035
C204	C	1.370561	0.344140	0.750035
C205	C	0.672800	-0.386659	0.000046
C206	C	0.922800	-0.136659	0.250046
C207	C	1.172800	0.113341	0.500046
C208	C	1.422800	0.363341	0.750046
C209	C	0.776665	-0.398669	0.000062
C210	C	1.026665	-0.148669	0.250062
C211	C	1.276665	0.101331	0.500062
C212	C	1.526665	0.351331	0.750062
C213	C	0.777269	-0.348256	0.000067
C214	C	1.027269	-0.098256	0.250067
C215	C	1.277269	0.151744	0.500067
C216	C	1.527269	0.401744	0.750067
C217	C	0.725638	-0.317045	0.000062
C218	C	0.975638	-0.067045	0.250062
C219	C	1.225638	0.182955	0.500062
C220	C	1.475638	0.432955	0.750062
C221	C	0.673403	-0.336247	0.000052
C222	C	0.923403	-0.086247	0.250052
C223	C	1.173403	0.163753	0.500052
C224	C	1.423403	0.413753	0.750052
C225	C	0.568927	-0.374646	0.000024
C226	C	0.818927	-0.124646	0.250024
C227	C	1.068927	0.125354	0.500024
C228	C	1.318927	0.375354	0.750024
C229	C	0.569536	-0.324228	0.000024
C230	C	0.819536	-0.074228	0.250024
C231	C	1.069536	0.175772	0.500024
C232	C	1.319536	0.425772	0.750024
C233	C	0.621775	-0.305027	0.000035
C234	C	0.871775	-0.055027	0.250035
C235	C	1.121775	0.194973	0.500035
C236	C	1.371775	0.444973	0.750035
C237	C	0.622376	-0.254622	0.000052
C238	C	0.872376	-0.004622	0.250052
C239	C	1.122376	0.245378	0.500052
C240	C	1.372376	0.495378	0.750052
N241	N	0.674611	-0.235418	0.000057
N242	N	0.924611	0.014582	0.250057
N243	N	1.174611	0.264582	0.500057
N244	N	1.424611	0.514582	0.750057
C245	C	0.726242	-0.266630	0.000062
C246	C	0.976242	-0.016630	0.250062
C247	C	1.226242	0.233370	0.500062
C248	C	1.476242	0.483370	0.750062
C249	C	0.616879	-0.713399	0.000030
C250	C	0.866879	-0.463399	0.250030
C251	C	1.116879	-0.213399	0.500030
C252	C	1.366879	0.036601	0.750030
C253	C	0.616274	-0.763814	0.000030
C254	C	0.866274	-0.513814	0.250030
C255	C	1.116274	-0.263814	0.500030
C256	C	1.366274	-0.013814	0.750030
C257	C	0.720145	-0.775822	0.000041
C258	C	0.970145	-0.525822	0.250041
C259	C	1.220145	-0.275822	0.500041
C260	C	1.470145	-0.025822	0.750041
C261	C	0.720749	-0.725406	0.000045
C262	C	0.970749	-0.475406	0.250045
C263	C	1.220749	-0.225406	0.500045
C264	C	1.470749	0.024594	0.750045
C265	C	0.669114	-0.694195	0.000035
C266	C	0.919114	-0.444195	0.250035
C267	C	1.169114	-0.194195	0.500035
C268	C	1.419114	0.055805	0.750035
C269	C	0.727506	-0.160758	0.000074
C270	C	0.977506	0.089242	0.250074
C271	C	1.227506	0.339242	0.500074
C272	C	1.477506	0.589242	0.750074
C273	C	0.728105	-0.110341	0.000082
C274	C	0.978105	0.139659	0.250082
C275	C	1.228105	0.389659	0.500082
C276	C	1.478105	0.639659	0.750082
C277	C	0.624235	-0.098337	0.000068
C278	C	0.874235	0.151663	0.250068
C279	C	1.124235	0.401663	0.500068
C280	C	1.374235	0.651663	0.750068
C281	C	0.623635	-0.148751	0.000063
C282	C	0.873635	0.101249	0.250063
C283	C	1.123635	0.351249	0.500063
C284	C	1.373635	0.601249	0.750063
C285	C	0.675276	-0.179961	0.000064
C286	C	0.925276	0.070039	0.250064
C287	C	1.175276	0.320039	0.500064
C288	C	1.425276	0.570039	0.750064
O289	O	0.578547	-0.223406	0.000066
O290	O	0.828547	0.026594	0.250066
O291	O	1.078547	0.276594	0.500066
O292	O	1.328547	0.526594	0.750066
O293	O	0.770721	-0.245659	0.000060
O294	O	1.020721	0.004341	0.250060
O295	O	1.270721	0.254341	0.500060
O296	O	1.520721	0.504341	0.750060
C297	C	0.723827	-0.468283	0.000046
C298	C	0.973827	-0.218283	0.250046
C299	C	1.223827	0.031717	0.500046
C300	C	1.473827	0.281717	0.750046
C301	C	0.671593	-0.487485	0.000036
C302	C	0.921593	-0.237485	0.250036
C303	C	1.171593	0.012515	0.500036
C304	C	1.421593	0.262515	0.750036
C305	C	0.619962	-0.456274	0.000030
C306	C	0.869962	-0.206274	0.250030
C307	C	1.119962	0.043726	0.500030
C308	C	1.369962	0.293726	0.750030
C309	C	0.670988	-0.537900	0.000036
C310	C	0.920988	-0.287900	0.250036
C311	C	1.170988	-0.037900	0.500036
C312	C	1.420988	0.212100	0.750036
C313	C	0.722619	-0.569112	0.000041
C314	C	0.972619	-0.319112	0.250041
C315	C	1.222619	-0.069112	0.500041
C316	C	1.472619	0.180888	0.750041
C317	C	0.774855	-0.549908	0.000046
C318	C	1.024855	-0.299908	0.250046
C319	C	1.274855	-0.049908	0.500046
C320	C	1.524855	0.200092	0.750046
C321	C	0.775458	-0.499495	0.000051
C322	C	1.025458	-0.249495	0.250051
C323	C	1.275458	0.000505	0.500051
C324	C	1.525458	0.250505	0.750051
C325	C	0.567727	-0.475478	0.000025
C326	C	0.817727	-0.225478	0.250025
C327	C	1.067727	0.024522	0.500025
C328	C	1.317727	0.274522	0.750025
C329	C	0.567127	-0.525891	0.000021
C330	C	0.817127	-0.275891	0.250021
C331	C	1.067127	-0.025891	0.500021
C332	C	1.317127	0.224109	0.750021
C333	C	0.618758	-0.557103	0.000026
C334	C	0.868758	-0.307103	0.250026
C335	C	1.118758	-0.057103	0.500026
C336	C	1.368758	0.192897	0.750026
C337	C	0.776346	0.058894	0.000068
C338	C	1.026346	0.308894	0.250068
C339	C	1.276346	0.558894	0.500068
C340	C	1.526346	0.808894	0.750068
C341	C	0.839562	0.059544	0.000071
C342	C	1.089562	0.309544	0.250071
C343	C	1.339562	0.559544	0.500071
C344	C	1.589562	0.809544	0.750071
C345	C	0.667254	0.151319	0.000044
C346	C	0.917254	0.401319	0.250044
C347	C	1.167254	0.651319	0.500044
C348	C	1.417254	0.901319	0.750044
C349	C	0.667905	0.204975	0.000035
C350	C	0.917905	0.454975	0.250035
C351	C	1.167905	0.704975	0.500035
C352	C	1.417905	0.954975	0.750035
N353	N	0.672170	0.062939	0.153314
N354	N	0.922170	0.312939	0.403314
N355	N	1.172170	0.562939	0.653314
N356	N	1.422170	0.812939	0.903314
N357	N	0.672214	0.062902	-0.153197
N358	N	0.922214	0.312902	0.096803
N359	N	1.172214	0.562902	0.346803
N360	N	1.422214	0.812902	0.596803
C361	C	0.711209	0.029873	0.561964
C362	C	0.961209	0.279873	0.811964
C363	C	1.211209	0.529873	1.061964
C364	C	1.461209	0.779873	1.311964
C365	C	0.711212	0.029869	0.623884
C366	C	0.961212	0.279869	0.873884
C367	C	1.211212	0.529869	1.123884
C368	C	1.461212	0.779869	1.373884
O369	O	0.744380	0.001762	0.655911
O370	O	0.994380	0.251762	0.905911
O371	O	1.244380	0.501762	1.155911
O372	O	1.494380	0.751762	1.405911
N373	N	0.672200	0.062905	0.654851
N374	N	0.922200	0.312905	0.904851
N375	N	1.172200	0.562905	1.154851
N376	N	1.422200	0.812905	1.404851
C377	C	0.633178	0.095944	0.623894
C378	C	0.883178	0.345944	0.873894
C379	C	1.133178	0.595944	1.123894
C380	C	1.383178	0.845944	1.373894
O381	O	0.599995	0.124044	0.655919
O382	O	0.849995	0.374044	0.905919
O383	O	1.099995	0.624044	1.155919
O384	O	1.349995	0.874044	1.405919
C385	C	0.633173	0.095945	0.561975
C386	C	0.883173	0.345945	0.811975
C387	C	1.133173	0.595945	1.061975
C388	C	1.383173	0.845945	1.311975
C389	C	0.672191	0.062910	0.531012
C390	C	0.922191	0.312910	0.781012
C391	C	1.172191	0.562910	1.031012
C392	C	1.422191	0.812910	1.281012
C393	C	0.750224	-0.003160	0.531001
C394	C	1.000224	0.246840	0.781001
C395	C	1.250224	0.496840	1.031001
C396	C	1.500224	0.746840	1.281001
C397	C	0.750222	-0.003156	0.469085
C398	C	1.000222	0.246844	0.719085
C399	C	1.250222	0.496844	0.969085
C400	C	1.500222	0.746844	1.219085
C401	C	0.711204	0.029881	0.438133
C402	C	0.961204	0.279881	0.688133
C403	C	1.211204	0.529881	0.938133
C404	C	1.461204	0.779881	1.188133
C405	C	0.672189	0.062914	0.469096
C406	C	0.922189	0.312914	0.719096
C407	C	1.172189	0.562914	0.969096
C408	C	1.422189	0.812914	1.219096
C409	C	0.594149	0.128981	0.531020
C410	C	0.844149	0.378981	0.781020
C411	C	1.094149	0.628981	1.031020
C412	C	1.344149	0.878981	1.281020
C413	C	0.594146	0.128979	0.469097
C414	C	0.844146	0.378979	0.719097
C415	C	1.094146	0.628979	0.969097
C416	C	1.344146	0.878979	1.219097
C417	C	0.633165	0.095944	0.438134
C418	C	0.883165	0.345944	0.688134
C419	C	1.133165	0.595944	0.938134
C420	C	1.383165	0.845944	1.188134
C421	C	0.633169	0.095955	0.376229
C422	C	0.883169	0.345955	0.626229
C423	C	1.133169	0.595955	0.876229
C424	C	1.383169	0.845955	1.126229
N425	N	0.672182	0.062919	0.345262
N426	N	0.922182	0.312919	0.595262
N427	N	1.172182	0.562919	0.845262
N428	N	1.422182	0.812919	1.095262
C429	C	0.711199	0.029882	0.376214
C430	C	0.961199	0.279882	0.626214
C431	C	1.211199	0.529882	0.876214
C432	C	1.461199	0.779882	1.126214
C433	C	0.633191	0.095939	0.753928
C434	C	0.883191	0.345939	1.003928
C435	C	1.133191	0.595939	1.253928
C436	C	1.383191	0.845939	1.503928
C437	C	0.633198	0.095941	0.815846
C438	C	0.883198	0.345941	1.065846
C439	C	1.133198	0.595941	1.315846
C440	C	1.383198	0.845941	1.565846
C441	C	0.711232	0.029865	0.815831
C442	C	0.961232	0.279865	1.065831
C443	C	1.211232	0.529865	1.315831
C444	C	1.461232	0.779865	1.565831
C445	C	0.711227	0.029866	0.753912
C446	C	0.961227	0.279866	1.003912
C447	C	1.211227	0.529866	1.253912
C448	C	1.461227	0.779866	1.503912
C449	C	0.672203	0.062903	0.722961
C450	C	0.922203	0.312903	0.972961
C451	C	1.172203	0.562903	1.222961
C452	C	1.422203	0.812903	1.472961
C453	C	0.711192	0.029894	0.246187
C454	C	0.961192	0.279894	0.496187
C455	C	1.211192	0.529894	0.746187
C456	C	1.461192	0.779894	0.996187
C457	C	0.711187	0.029902	0.184266
C458	C	0.961187	0.279902	0.434266
C459	C	1.211187	0.529902	0.684266
C460	C	1.461187	0.779902	0.934266
C461	C	0.633152	0.095976	0.184286
C462	C	0.883152	0.345976	0.434286
C463	C	1.133152	0.595976	0.684286
C464	C	1.383152	0.845976	0.934286
C465	C	0.633158	0.095969	0.246201
C466	C	0.883158	0.345969	0.496201
C467	C	1.133158	0.595969	0.746201
C468	C	1.383158	0.845969	0.996201
C469	C	0.672180	0.062924	0.277150
C470	C	0.922180	0.312924	0.527150
C471	C	1.172180	0.562924	0.777150
C472	C	1.422180	0.812924	1.027150
O473	O	0.600016	0.124047	0.344163
O474	O	0.850016	0.374047	0.594163
O475	O	1.100016	0.624047	0.844163
O476	O	1.350016	0.874047	1.094163
O477	O	0.744372	0.001783	0.344182
O478	O	0.994372	0.251783	0.594182
O479	O	1.244372	0.501783	0.844182
O480	O	1.494372	0.751783	1.094182
H481	H	0.098146	0.186402	0.000045
H482	H	0.348146	0.436402	0.250045
H483	H	0.598146	0.686402	0.500045
H484	H	0.848146	0.936402	0.750045
F485	F	0.521528	-0.024648	0.000059
F486	F	0.771528	0.225352	0.250059
F487	F	1.021528	0.475352	0.500059
F488	F	1.271528	0.725352	0.750059
F489	F	0.752719	-0.005259	0.151315
F490	F	1.002719	0.244741	0.401315
F491	F	1.252719	0.494741	0.651315
F492	F	1.502719	0.744741	0.901315
F493	F	0.782467	-0.193967	0.000075
F494	F	1.032467	0.056033	0.250075
F495	F	1.282467	0.306033	0.500075
F496	F	1.532467	0.556033	0.750075
H497	H	0.819807	-0.332628	0.000074
H498	H	1.069807	-0.082628	0.250074
H499	H	1.319807	0.167372	0.500074
H500	H	1.569807	0.417372	0.750074
H501	H	0.138506	-0.061648	0.000104
H502	H	0.388506	0.188352	0.250104
H503	H	0.638506	0.438352	0.500104
H504	H	0.888506	0.688352	0.750104
H505	H	0.818712	-0.424077	0.000064
H506	H	1.068712	-0.174077	0.250064
H507	H	1.318712	0.075923	0.500064
H508	H	1.568712	0.325923	0.750064
H509	H	0.763286	-0.709776	0.000054
H510	H	1.013286	-0.459776	0.250054
H511	H	1.263286	-0.209776	0.500054
H512	H	1.513286	0.040224	0.750054
H513	H	0.762185	-0.801243	0.000045
H514	H	1.012185	-0.551243	0.250045
H515	H	1.262185	-0.301243	0.500045
H516	H	1.512185	-0.051243	0.750045
H517	H	0.378542	0.145112	0.000040
H518	H	0.628542	0.395112	0.250040
H519	H	0.878542	0.645112	0.500040
H520	H	1.128542	0.895112	0.750040
F521	F	-0.024939	-0.030205	0.000087
F522	F	0.225061	0.219795	0.250087
F523	F	0.475061	0.469795	0.500087
F524	F	0.725061	0.719795	0.750087
H525	H	0.781993	-0.030058	0.443879
H526	H	1.031993	0.219942	0.693879
H527	H	1.281993	0.469942	0.943879
H528	H	1.531993	0.719942	1.193879
H529	H	0.573737	-0.779443	0.000031
H530	H	0.823737	-0.529443	0.250031
H531	H	1.073737	-0.279443	0.500031
H532	H	1.323737	-0.029443	0.750031
H533	H	0.574829	-0.687991	0.000022
H534	H	0.824829	-0.437991	0.250022
H535	H	1.074829	-0.187991	0.500022
H536	H	1.324829	0.062009	0.750022
H537	H	0.742966	0.002985	0.271379
H538	H	0.992966	0.252985	0.521379
H539	H	1.242966	0.502985	0.771379
H540	H	1.492966	0.752985	1.021379
H541	H	0.742999	0.002966	0.728706
H542	H	0.992999	0.252966	0.978706
H543	H	1.242999	0.502966	1.228706
H544	H	1.492999	0.752966	1.478706
F545	F	0.552619	0.164141	0.563962
F546	F	0.802619	0.414141	0.813962
F547	F	1.052619	0.664141	1.063962
F548	F	1.302619	0.914141	1.313962
F549	F	0.591629	0.131136	0.151334
F550	F	0.841629	0.381136	0.401334
F551	F	1.091629	0.631136	0.651334
F552	F	1.341629	0.881136	0.901334
H553	H	0.246253	-0.060550	0.000104
H554	H	0.496253	0.189450	0.250104
H555	H	0.746253	0.439450	0.500104
H556	H	0.996253	0.689450	0.750104
F557	F	0.511524	-0.546320	0.000012
F558	F	0.761524	-0.296320	0.250012
F559	F	1.011524	-0.046320	0.500012
F560	F	1.261524	0.203680	0.750012
F561	F	0.513326	-0.395070	0.000010
F562	F	0.763326	-0.145070	0.250010
F563	F	1.013326	0.104930	0.500010
F564	F	1.263326	0.354930	0.750010
F565	F	0.398910	-0.025898	0.000069
F566	F	0.648910	0.224102	0.250069
F567	F	0.898910	0.474102	0.500069
F568	F	1.148910	0.724102	0.750069
H569	H	0.527488	-0.298818	0.000014
H570	H	0.777488	-0.048818	0.250014
H571	H	1.027488	0.201182	0.500014
H572	H	1.277488	0.451182	0.750014
H573	H	0.770646	-0.094710	0.000092
H574	H	1.020646	0.155290	0.250092
H575	H	1.270646	0.405290	0.500092
H576	H	1.520646	0.655290	0.750092
F577	F	0.568038	-0.169187	0.000062
F578	F	0.818038	0.080813	0.250062
F579	F	1.068038	0.330813	0.500062
F580	F	1.318038	0.580813	0.750062
H581	H	0.205889	0.187497	0.000034
H582	H	0.455889	0.437497	0.250034
H583	H	0.705889	0.687497	0.500034
H584	H	0.955889	0.937497	0.750034
F585	F	0.491923	0.157297	0.000018
F586	F	0.741923	0.407297	0.250018
F587	F	0.991923	0.657297	0.500018
F588	F	1.241923	0.907297	0.750018
H589	H	-0.060167	0.140653	0.000054
H590	H	0.189833	0.390653	0.250054
H591	H	0.439833	0.640653	0.500054
H592	H	0.689833	0.890653	0.750054
F593	F	0.752757	-0.005297	0.848785
F594	F	1.002757	0.244703	1.098785
F595	F	1.252757	0.494703	1.348785
F596	F	1.502757	0.744703	1.598785
H597	H	0.781997	-0.030065	0.556197
H598	H	1.031997	0.219935	0.806197
H599	H	1.281997	0.469935	1.056197
H600	H	1.531997	0.719935	1.306197
F601	F	0.569288	-0.065112	0.000062
F602	F	0.819288	0.184888	0.250062
F603	F	1.069288	0.434888	0.500062
F604	F	1.319288	0.684888	0.750062
F605	F	-0.177149	0.150496	0.000056
F606	F	0.072851	0.400496	0.250056
F607	F	0.322851	0.650496	0.500056
F608	F	0.572851	0.900496	0.750056
H609	H	0.816894	-0.575329	0.000053
H610	H	1.066894	-0.325329	0.250053
H611	H	1.316894	-0.075329	0.500053
H612	H	1.566894	0.174671	0.750053
F613	F	-0.147536	-0.031449	0.000075
F614	F	0.102464	0.218551	0.250075
F615	F	0.352464	0.468551	0.500075
F616	F	0.602464	0.718551	0.750075
F617	F	0.831058	-0.479066	0.000060
F618	F	1.081058	-0.229066	0.250060
F619	F	1.331058	0.020934	0.500060
F620	F	1.581058	0.270934	0.750060
H621	H	0.525681	-0.450070	0.000020
H622	H	0.775681	-0.200070	0.250020
H623	H	1.025681	0.049930	0.500020
H624	H	1.275681	0.299930	0.750020
F625	F	0.591676	0.131108	0.848793
F626	F	0.841676	0.381108	1.098793
F627	F	1.091676	0.631108	1.348793
F628	F	1.341676	0.881108	1.598793
H629	H	0.601415	0.122846	0.728730
H630	H	0.851415	0.372846	0.978730
H631	H	1.101415	0.622846	1.228730
H632	H	1.351415	0.872846	1.478730
H633	H	0.562367	0.155881	0.443900
H634	H	0.812367	0.405881	0.693900
H635	H	1.062367	0.655881	0.943900
H636	H	1.312367	0.905881	1.193900
F637	F	0.591635	0.131135	0.279154
F638	F	0.841635	0.381135	0.529154
F639	F	1.091635	0.631135	0.779154
F640	F	1.341635	0.881135	1.029154
