data_functionalizedCrystal
_audit_creation_method	'MofGen! by Chris Wilmer'
_symmetry_space_group_name_H-M	'P1'
_symmetry_Int_Tables_number	1
_symmetry_cell_setting	triclinic
loop_
_symmetry_equiv_pos_as_xyz
  x,y,z
_cell_length_a	14.395555
_cell_length_b	27.440280
_cell_length_c	14.395555
_cell_angle_alpha	60.000447
_cell_angle_beta	90.002623
_cell_angle_gamma	60.005723
loop_
_atom_site_label
_atom_site_type_symbol
_atom_site_fract_x
_atom_site_fract_y
_atom_site_fract_z
Zr1	Zr	0.895046	0.533366	-0.121843
O2	O	0.746742	0.635027	-0.270173
O3	O	0.940492	0.431704	-0.076374
O4	O	0.940519	0.533361	-0.270164
O5	O	0.746714	0.533374	0.076485
O6	O	1.093393	0.533357	-0.270156
O7	O	0.746715	0.533370	-0.076382
O8	O	1.093345	0.351512	0.076500
O9	O	0.746762	0.715220	-0.270171
O10	O	1.073983	0.473516	-0.056974
O11	O	0.959894	0.473522	0.057103
O12	O	0.959925	0.593210	-0.171060
O13	O	0.845836	0.593215	-0.056983
Zr14	Zr	1.138861	0.533366	0.121975
Zr15	Zr	1.138863	0.533360	-0.121830
Zr16	Zr	0.895044	0.533371	0.121962
Zr17	Zr	0.895078	0.661263	-0.121840
Zr18	Zr	1.138830	0.405468	0.121972
O19	O	1.093415	0.635027	0.076506
O20	O	1.093418	0.635019	-0.270154
O21	O	0.746739	0.635035	0.076488
O22	O	1.287165	0.431704	0.270305
O23	O	1.287168	0.431696	-0.076355
O24	O	0.940490	0.431712	0.270286
O25	O	1.287193	0.533357	-0.076353
O26	O	1.093389	0.533370	0.270297
O27	O	0.940515	0.533374	0.270288
O28	O	1.287192	0.533361	0.076514
O29	O	0.940563	0.715215	-0.270160
O30	O	1.093344	0.351516	0.270293
O31	O	1.287146	0.351512	0.270303
O32	O	1.287147	0.351507	0.076510
O33	O	0.746760	0.715224	-0.076378
O34	O	0.940562	0.715220	-0.076368
O35	O	1.073982	0.473522	0.171192
O36	O	1.188071	0.473516	0.057115
O37	O	1.074013	0.593210	-0.056971
O38	O	0.959924	0.593215	0.057106
C39	C	0.711976	0.533373	0.000050
C40	C	0.608470	0.533375	0.000044
C41	C	1.016914	0.373385	0.000062
C42	C	1.016901	0.319089	0.000061
C43	C	0.485692	0.598637	-0.062151
C44	C	0.454848	0.566011	-0.107226
C45	C	0.454890	0.565999	0.045111
C46	C	0.578990	0.500748	-0.045094
C47	C	0.579028	0.500746	0.107303
C48	C	0.548258	0.468072	0.062255
C49	C	1.076539	-0.017656	-0.059471
C50	C	1.076549	-0.068679	-0.059468
O51	O	1.127231	-0.095088	-0.110076
N52	N	1.016995	-0.094193	0.000077
C53	C	0.957435	-0.068685	0.059632
O54	O	0.906782	-0.095071	0.110280
C55	C	0.957432	-0.017665	0.059635
C56	C	1.016981	0.007851	0.000077
C57	C	1.136084	0.007860	-0.119023
C58	C	1.136071	0.058881	-0.119028
C59	C	1.076514	0.084387	-0.059480
C60	C	1.016969	0.058872	0.000072
C61	C	0.897881	0.007839	0.119196
C62	C	0.897884	0.058861	0.119194
C63	C	0.957432	0.084377	0.059636
C64	C	0.957399	0.135399	0.059615
N65	N	1.016954	0.160913	0.000070
C66	C	1.076511	0.135406	-0.059477
C67	C	0.957448	-0.175830	0.059623
C68	C	0.957444	-0.226845	0.059614
C69	C	1.076559	-0.226837	-0.059484
C70	C	1.076556	-0.175818	-0.059481
C71	C	1.017002	-0.150316	0.000078
C72	C	1.076480	0.242555	-0.059483
C73	C	1.076458	0.293583	-0.059486
C74	C	0.957348	0.293568	0.059616
C75	C	0.957364	0.242548	0.059615
C76	C	1.016939	0.217041	0.000063
O77	O	0.906746	0.161838	0.110201
O78	O	1.127168	0.161793	-0.110105
C79	C	1.321931	0.533358	0.000082
C80	C	1.425437	0.533356	0.000088
C81	C	1.016956	0.533358	-0.304897
C82	C	1.016957	0.533356	-0.408399
C83	C	1.016993	0.693346	0.000070
C84	C	1.017006	0.747642	0.000071
C85	C	1.079152	0.468094	-0.406783
C86	C	0.971883	0.500720	-0.499810
C87	C	1.124199	0.500732	-0.499801
C88	C	0.909625	0.565983	-0.500063
C89	C	1.062018	0.565985	-0.500040
C90	C	0.954685	0.598659	-0.593084
C91	C	1.016951	0.533373	0.305030
C92	C	1.016951	0.533375	0.408531
C93	C	1.321892	0.373378	0.000079
C94	C	1.425385	0.319080	0.000083
C95	C	1.016912	0.373392	0.305026
C96	C	1.016898	0.319099	0.408527
C97	C	1.321889	0.373385	0.305042
C98	C	1.425382	0.319089	0.408548
C99	C	0.712018	0.693346	-0.304910
C100	C	0.608525	0.747642	-0.408416
C101	C	0.712016	0.693353	0.000053
C102	C	0.608522	0.747652	0.000049
C103	C	1.016995	0.693339	-0.304894
C104	C	1.017009	0.747632	-0.408395
C105	C	1.414434	0.293580	-0.059479
C106	C	1.511667	0.242568	-0.059497
C107	C	1.619851	0.217053	0.000053
C108	C	1.630799	0.242557	0.059616
C109	C	1.533567	0.293572	0.059628
C110	C	1.076444	0.293602	0.516695
C111	C	1.076426	0.242595	0.613954
C112	C	1.016869	0.217082	0.603042
C113	C	0.957316	0.242583	0.494862
C114	C	0.957327	0.293593	0.397606
C115	C	1.533546	0.293588	0.397609
C116	C	1.630798	0.242579	0.494855
C117	C	1.619882	0.217067	0.603039
C118	C	1.511706	0.242573	0.613976
C119	C	1.414457	0.293585	0.516731
C120	C	0.500361	0.773149	-0.397477
C121	C	0.403109	0.824175	-0.494722
C122	C	0.414025	0.849689	-0.602907
C123	C	0.522201	0.824180	-0.613844
C124	C	0.619450	0.773159	-0.516599
C125	C	0.619473	0.773156	0.059601
C126	C	0.522240	0.824182	0.059592
C127	C	0.414057	0.849700	0.000039
C128	C	0.403108	0.824193	-0.059520
C129	C	0.500340	0.773171	-0.059518
C130	C	1.076578	0.773129	-0.397446
C131	C	1.076614	0.824137	-0.494687
C132	C	1.017073	0.849650	-0.602874
C133	C	0.957502	0.824148	-0.613821
C134	C	0.957474	0.773138	-0.516581
H135	H	0.460262	0.653823	-0.114828
Cl136	Cl	0.755464	0.741091	0.134471
Cl137	Cl	0.661645	0.458200	0.247292
H138	H	1.542456	0.314352	0.309529
Cl139	Cl	1.151441	0.741065	-0.261450
H140	H	0.933762	0.473140	-0.500744
H141	H	1.718871	0.221817	0.485929
H142	H	0.908938	-0.247608	0.108097
Cl143	Cl	0.661338	0.458210	-0.104106
H144	H	0.573902	0.412842	0.114857
Cl145	Cl	0.486608	0.741084	-0.261486
H146	H	1.502835	0.221794	0.702072
H147	H	0.401391	0.593596	0.083208
H148	H	0.315037	0.844935	-0.485795
H149	H	1.326388	0.314341	0.525654
H150	H	0.707520	0.752391	-0.525520
Cl151	Cl	0.536030	0.856234	0.134478
Cl152	Cl	0.486553	0.741110	-0.134382
H153	H	1.016868	0.175546	0.682244
Cl154	Cl	0.291756	0.913829	-0.725148
Cl155	Cl	1.497877	0.210514	-0.134377
H156	H	0.334893	0.891245	0.000046
Cl157	Cl	0.882469	0.325636	0.261626
Cl158	Cl	0.882451	0.210501	0.481164
H159	H	0.531075	0.844960	-0.701939
H160	H	0.401338	0.593592	-0.197916
Cl161	Cl	1.151322	0.325658	-0.134368
H162	H	0.315012	0.844977	-0.108007
H163	H	1.125122	0.844895	-0.485752
H164	H	1.017105	0.891186	-0.682044
Cl165	Cl	1.151328	0.325663	0.530443
H166	H	1.699078	0.175530	0.682212
Cl167	Cl	1.151376	0.210497	-0.134348
Cl168	Cl	0.882643	0.856236	-0.749837
H169	H	1.184565	0.079651	-0.167521
Cl170	Cl	1.278443	0.325649	-0.134357
H171	H	0.818887	0.593547	-0.499245
H172	H	1.699014	0.175513	0.000035
H173	H	0.908961	0.752384	-0.525511
H174	H	1.184587	-0.012905	-0.167513
H175	H	1.125046	-0.155046	-0.107978
H176	H	1.125056	-0.247614	-0.107969
H177	H	1.718895	0.221775	0.108099
H178	H	0.849391	-0.012928	0.167696
Cl179	Cl	0.882562	-0.143771	0.134495
H180	H	0.849385	0.079623	0.167694
H181	H	0.908860	0.221780	0.108097
H182	H	0.908854	0.314347	0.108095
Cl183	Cl	1.547354	0.325617	0.134522
H184	H	1.131659	0.412910	-0.327022
H185	H	0.902013	0.653890	-0.672713
H186	H	1.124925	0.221837	0.702029
H187	H	1.100165	0.593542	-0.499062
H188	H	1.214898	0.473138	-0.500696
