data_functionalizedCrystal
_audit_creation_method	'MofGen! by Chris Wilmer'
_symmetry_space_group_name_H-M	'P1'
_symmetry_Int_Tables_number	1
_symmetry_cell_setting	triclinic
loop_
_symmetry_equiv_pos_as_xyz
  x,y,z
_cell_length_a	15.995350
_cell_length_b	10.654550
_cell_length_c	9.130313
_cell_angle_alpha	89.997153
_cell_angle_beta	89.999925
_cell_angle_gamma	83.988653
loop_
_atom_site_label
_atom_site_type_symbol
_atom_site_fract_x
_atom_site_fract_y
_atom_site_fract_z
O1	O	-1.111925	-0.161870	0.121675
O2	O	-0.868266	-0.181859	0.121705
O3	O	-0.995697	0.010948	0.121680
O4	O	-0.984493	-0.354677	0.121700
O5	O	-0.995688	0.010948	-0.121919
O6	O	-0.868256	-0.181859	-0.121894
O7	O	-1.111915	-0.161870	-0.121924
Cu8	Cu	-0.990085	-0.171865	-0.144152
Cu9	Cu	-0.990096	-0.171865	0.143932
O10	O	-0.984483	-0.354677	-0.121899
C11	C	-0.837061	-0.181033	-0.000091
C12	C	-0.744096	-0.178555	-0.000079
C13	C	-0.994870	0.057735	-0.000119
C14	C	-0.992409	0.197146	-0.000116
C15	C	-1.143119	-0.162696	-0.000125
C16	C	-1.236084	-0.165174	-0.000127
C17	C	-0.406297	-0.169658	-0.000110
C18	C	-0.452934	-0.032344	-0.000661
C19	C	-0.549639	-0.034822	-0.000102
C20	C	-0.573883	-0.174071	-0.000096
C21	C	-0.533195	-0.241799	0.139009
C22	C	-0.436539	-0.238349	0.139115
C23	C	-0.436206	-0.241187	-0.137902
C24	C	-0.533151	-0.241154	-0.139731
C25	C	-0.668595	-0.176573	-0.000083
C26	C	-0.311585	-0.167161	-0.000114
C27	C	-0.985311	-0.401464	-0.000097
C28	C	-0.987772	-0.540875	-0.000090
N29	N	-0.990083	-0.171864	-0.346774
C30	C	-1.067438	0.277612	-0.000125
C31	C	-1.065121	0.408602	-0.000107
C32	C	-0.912737	0.378649	-0.000077
C33	C	-0.915055	0.247661	-0.000085
C34	C	-1.041305	-0.248077	-0.423423
C35	C	-1.041318	-0.248070	-0.576760
C36	C	-0.938880	-0.095634	-0.576786
C37	C	-0.938872	-0.095635	-0.423451
N38	N	-0.990105	-0.171855	0.346555
H39	H	-0.577754	0.018415	-0.099819
F40	F	-1.095813	-0.329199	-0.341822
H41	H	-0.897160	-0.033567	-0.361042
F42	F	-1.144978	0.494235	-0.000113
F43	F	-0.428299	0.039398	-0.131053
H44	H	-0.433027	0.022291	0.098541
F45	F	-0.395461	-0.373515	-0.139128
F46	F	-0.553999	-0.373885	-0.150706
H47	H	-0.577189	0.018775	0.099782
H48	H	-1.083030	-0.310128	-0.639160
H49	H	-0.417948	-0.188959	0.243095
H50	H	-0.853953	0.182141	-0.000073
H51	H	-0.897185	-0.033572	-0.639235
F52	F	-1.149764	0.223855	-0.000156
H53	H	-0.404877	-0.339163	0.145432
H54	H	-0.849758	0.419794	-0.000055
H55	H	-0.561300	-0.194758	0.242529
F56	F	-0.552453	-0.375506	0.145803
H57	H	-0.415406	-0.196296	-0.243340
H58	H	-0.560176	-0.191713	-0.242640
