data_functionalizedCrystal
_audit_creation_method	'MofGen! by Chris Wilmer'
_symmetry_space_group_name_H-M	'P1'
_symmetry_Int_Tables_number	1
_symmetry_cell_setting	triclinic
loop_
_symmetry_equiv_pos_as_xyz
  x,y,z
_cell_length_a	17.699097
_cell_length_b	17.699104
_cell_length_c	16.176319
_cell_angle_alpha	89.992259
_cell_angle_beta	89.988988
_cell_angle_gamma	83.289974
loop_
_atom_site_label
_atom_site_type_symbol
_atom_site_fract_x
_atom_site_fract_y
_atom_site_fract_z
O1	O	1.004080	0.095760	-0.068817
O2	O	1.504080	0.595760	0.431183
O3	O	0.783704	0.108202	-0.068804
O4	O	1.283704	0.608202	0.431196
O5	O	0.900110	-0.008207	-0.068803
O6	O	1.400110	0.491793	0.431197
O7	O	0.887674	0.212169	-0.068817
O8	O	1.387674	0.712169	0.431183
O9	O	0.900094	-0.008214	0.068690
O10	O	1.400094	0.491786	0.568690
O11	O	0.783688	0.108194	0.068689
O12	O	1.283688	0.608194	0.568689
O13	O	1.004064	0.095753	0.068676
O14	O	1.504064	0.595753	0.568676
Cu15	Cu	0.893874	0.101973	0.081237
Cu16	Cu	1.393874	0.601973	0.581237
Cu17	Cu	0.893893	0.101982	-0.081365
Cu18	Cu	1.393893	0.601982	0.418635
O19	O	0.887658	0.212161	0.068676
O20	O	1.387658	0.712161	0.568676
C21	C	0.755499	0.107751	-0.000055
C22	C	1.255499	0.607751	0.499945
C23	C	0.671481	0.106408	-0.000050
C24	C	1.171481	0.606408	0.499950
C25	C	0.155771	0.098183	-0.075031
C26	C	0.655771	0.598183	0.424969
C27	C	0.234715	0.099439	-0.075026
C28	C	0.734715	0.599439	0.424974
C29	C	0.274172	0.100064	-0.000076
C30	C	0.774172	0.600064	0.499924
C31	C	0.234682	0.099426	0.074876
C32	C	0.734682	0.599426	0.574876
C33	C	0.155740	0.098164	0.074871
C34	C	0.655740	0.598164	0.574871
C35	C	0.553047	0.104513	0.074898
C36	C	1.053047	0.604513	0.574898
C37	C	0.631994	0.105777	0.074897
C38	C	1.131994	0.605777	0.574897
C39	C	0.632022	0.105788	-0.075000
C40	C	1.132022	0.605788	0.425000
C41	C	0.553080	0.104526	-0.075005
C42	C	1.053080	0.604526	0.424995
C43	C	0.513597	0.103884	-0.000054
C44	C	1.013597	0.603884	0.499946
C45	C	0.427997	0.102520	-0.000059
C46	C	0.927997	0.602520	0.499941
C47	C	0.359770	0.101433	-0.000069
C48	C	0.859770	0.601433	0.499931
C49	C	0.899653	-0.036407	-0.000057
C50	C	1.399653	0.463593	0.499943
C51	C	0.898308	-0.120425	-0.000056
C52	C	1.398308	0.379575	0.499944
C53	C	1.032268	0.096204	-0.000074
C54	C	1.532268	0.596204	0.499926
C55	C	1.116286	0.097546	-0.000085
C56	C	1.616286	0.597546	0.499915
C57	C	0.959052	-0.645293	-0.000083
C58	C	1.459052	-0.145293	0.499917
C59	C	0.960311	-0.566349	-0.000076
C60	C	1.460311	-0.066349	0.499924
C61	C	0.891976	-0.517735	-0.000070
C62	C	1.391976	-0.017735	0.499930
C63	C	0.822378	-0.548068	-0.000063
C64	C	1.322378	-0.048068	0.499937
C65	C	0.821119	-0.627010	-0.000064
C66	C	1.321119	-0.127010	0.499936
C67	C	0.827451	-0.229702	-0.000056
C68	C	1.327451	0.270298	0.499944
C69	C	0.828715	-0.150754	-0.000057
C70	C	1.328715	0.349246	0.499943
C71	C	0.966642	-0.169040	-0.000068
C72	C	1.466642	0.330960	0.499932
C73	C	0.965384	-0.247983	-0.000069
C74	C	1.465384	0.252017	0.499931
C75	C	0.895786	-0.278309	-0.000058
C76	C	1.395786	0.221691	0.499942
C77	C	0.894422	-0.363909	-0.000064
C78	C	1.394422	0.136091	0.499936
C79	C	0.893340	-0.432136	-0.000070
C80	C	1.393340	0.067864	0.499930
C81	C	0.888114	0.240362	-0.000073
C82	C	1.388114	0.740362	0.499927
C83	C	0.889459	0.324379	-0.000079
C84	C	1.389459	0.824379	0.499921
N85	N	0.893866	0.101966	0.195602
N86	N	1.393866	0.601966	0.695602
N87	N	0.893907	0.101982	-0.195730
N88	N	1.393907	0.601982	0.304270
C89	C	0.945426	0.050441	0.238867
C90	C	1.445426	0.550441	0.738867
C91	C	0.945430	0.050441	0.325414
C92	C	1.445430	0.550441	0.825414
C93	C	0.893877	0.101969	0.368695
C94	C	1.393877	0.601969	0.868695
C95	C	0.842312	0.153496	0.325424
C96	C	1.342312	0.653496	0.825424
C97	C	0.842305	0.153493	0.238879
C98	C	1.342305	0.653493	0.738879
C99	C	0.842337	0.153510	0.674453
C100	C	1.342337	0.653510	1.174453
C101	C	0.842350	0.153511	0.761004
C102	C	1.342350	0.653511	1.261004
C103	C	0.945463	0.050458	0.760988
C104	C	1.445463	0.550458	1.260988
C105	C	0.945456	0.050455	0.674442
C106	C	1.445456	0.550455	1.174442
C107	C	0.893888	0.101979	0.631179
C108	C	1.393888	0.601979	1.131179
C109	C	0.893884	0.101978	0.537335
C110	C	1.393884	0.601978	1.037335
C111	C	0.893885	0.101974	0.462537
C112	C	1.393885	0.601974	0.962537
H113	H	0.664178	0.106308	-0.136029
H114	H	1.164178	0.606308	0.363971
N115	N	1.001048	-0.005118	0.372088
N116	N	1.501048	0.494882	0.872088
H117	H	1.034494	0.023783	0.407978
H118	H	1.534494	0.523783	0.907978
H119	H	0.972142	-0.038582	0.407967
H120	H	1.472142	0.461418	0.907967
N121	N	0.746055	-0.659717	-0.000062
N122	N	1.246055	-0.159717	0.499938
H123	H	0.742462	-0.692059	-0.051030
H124	H	1.242462	-0.192059	0.448970
H125	H	0.742498	-0.692030	0.050942
H126	H	1.242498	-0.192030	0.550942
H127	H	1.021029	-0.287561	-0.000078
H128	H	1.521029	0.212439	0.499922
H129	H	0.800366	0.195473	0.796242
H130	H	1.300366	0.695473	1.296242
H131	H	0.987450	0.008502	0.796221
H132	H	1.487450	0.508502	1.296221
H133	H	0.987410	0.008484	0.203633
H134	H	1.487410	0.508484	0.703633
N135	N	1.041712	-0.136332	-0.000068
N136	N	1.541712	0.363668	0.499932
H137	H	1.032144	-0.078946	-0.000060
H138	H	1.532144	0.421054	0.499940
H139	H	1.071598	-0.154135	0.050901
H140	H	1.571598	0.345865	0.550901
H141	H	0.800351	0.195464	0.639235
H142	H	1.300351	0.695464	1.139235
N143	N	1.001063	-0.005118	0.627760
N144	N	1.501063	0.494882	1.127760
H145	H	1.033726	-0.037761	0.668301
H146	H	1.533726	0.462239	1.168301
H147	H	0.972145	-0.038544	0.591868
H148	H	1.472145	0.461456	1.091868
H149	H	0.123650	0.097679	-0.136064
H150	H	0.623650	0.597679	0.363936
H151	H	1.016980	-0.541660	-0.000079
H152	H	1.516980	-0.041660	0.499921
N153	N	0.510465	0.103822	0.155732
N154	N	1.010465	0.603822	0.655732
H155	H	0.547508	0.103876	0.203212
H156	H	1.047508	0.603876	0.703212
H157	H	0.471856	0.150470	0.159246
H158	H	0.971856	0.650470	0.659246
H159	H	0.800332	0.195449	0.360669
H160	H	1.300332	0.695449	0.860669
H161	H	0.664118	0.106286	0.135934
H162	H	1.164118	0.606286	0.635934
N163	N	0.277308	0.100135	-0.155856
N164	N	0.777308	0.600135	0.344144
H165	H	0.316279	0.053758	-0.159196
H166	H	0.816279	0.553758	0.340804
H167	H	0.240287	0.099581	-0.203295
H168	H	0.740287	0.599581	0.296705
H169	H	0.770780	-0.254383	-0.000057
H170	H	1.270780	0.245617	0.499943
N171	N	0.510522	0.103853	-0.155844
N172	N	1.010522	0.603853	0.344156
H173	H	0.547515	0.104444	-0.203323
H174	H	1.047515	0.604444	0.296677
H175	H	0.483989	0.056428	-0.159103
H176	H	0.983989	0.556428	0.340897
N177	N	0.277236	0.100098	0.155718
N178	N	0.777236	0.600098	0.655718
H179	H	0.333237	0.100997	0.144350
H180	H	0.833237	0.600997	0.644350
H181	H	0.257209	0.146776	0.188442
H182	H	0.757209	0.646776	0.688442
H183	H	0.773065	-0.111173	-0.000051
H184	H	1.273065	0.388827	0.499949
H185	H	0.800318	0.195448	0.203654
H186	H	1.300318	0.695448	0.703654
H187	H	0.123592	0.097654	0.135900
H188	H	0.623592	0.597654	0.635900
N189	N	1.032757	-0.697724	-0.000096
N190	N	1.532757	-0.197724	0.499904
H191	H	1.077034	-0.666529	-0.000095
H192	H	1.577034	-0.166529	0.499905
H193	H	1.035233	-0.730883	0.050874
H194	H	1.535233	-0.230883	0.550874
H195	H	0.766739	-0.508480	-0.000053
H196	H	1.266739	-0.008480	0.499947
