data_functionalizedCrystal
_audit_creation_method	'MofGen! by Chris Wilmer'
_symmetry_space_group_name_H-M	'P1'
_symmetry_Int_Tables_number	1
_symmetry_cell_setting	triclinic
loop_
_symmetry_equiv_pos_as_xyz
  x,y,z
_cell_length_a	27.732048
_cell_length_b	26.210047
_cell_length_c	27.732046
_cell_angle_alpha	89.998169
_cell_angle_beta	97.357683
_cell_angle_gamma	90.003465
loop_
_atom_site_label
_atom_site_type_symbol
_atom_site_fract_x
_atom_site_fract_y
_atom_site_fract_z
O1	O	0.640931	0.042370	-0.057510
O2	O	0.974264	0.375703	0.275823
O3	O	1.307597	0.709037	0.609157
O4	O	0.500137	0.042387	-0.066256
O5	O	0.833471	0.375720	0.267078
O6	O	1.166804	0.709053	0.600411
O7	O	0.574907	0.042366	0.008514
O8	O	0.908241	0.375700	0.341847
O9	O	1.241574	0.709033	0.675181
O10	O	0.566161	0.042390	-0.132280
O11	O	0.899494	0.375724	0.201054
O12	O	1.232828	0.709057	0.534387
O13	O	0.574893	-0.042492	0.008502
O14	O	0.908226	0.290842	0.341836
O15	O	1.241559	0.624175	0.675169
O16	O	0.500123	-0.042472	-0.066267
O17	O	0.833456	0.290862	0.267066
O18	O	1.166790	0.624195	0.600399
O19	O	0.640916	-0.042488	-0.057522
O20	O	0.974250	0.290845	0.275812
O21	O	1.307583	0.624179	0.609145
Cu22	Cu	0.570518	-0.050228	-0.061896
Cu23	Cu	0.903852	0.283105	0.271438
Cu24	Cu	1.237185	0.616439	0.604771
Cu25	Cu	0.570535	0.050127	-0.061882
Cu26	Cu	0.903869	0.383460	0.271452
Cu27	Cu	1.237202	0.716793	0.604785
O28	O	0.566146	-0.042468	-0.132291
O29	O	0.899480	0.290866	0.201042
O30	O	1.232813	0.624199	0.534375
C31	C	0.482123	-0.000041	-0.066078
C32	C	0.815456	0.333293	0.267256
C33	C	1.148790	0.666626	0.600589
C34	C	0.428468	-0.000035	-0.065525
C35	C	0.761802	0.333299	0.267808
C36	C	1.095135	0.666632	0.601142
C37	C	0.089653	-0.000050	-0.106229
C38	C	0.422986	0.333283	0.227104
C39	C	0.756320	0.666617	0.560438
C40	C	-0.112007	-0.000055	-0.104178
C41	C	0.221327	0.333278	0.229155
C42	C	0.554660	0.666612	0.562489
O43	O	-0.143263	-0.000071	-0.141399
O44	O	0.190071	0.333263	0.191935
O45	O	0.523404	0.666596	0.525268
N46	N	-0.131130	-0.000062	-0.059843
N47	N	0.202203	0.333272	0.273491
N48	N	0.535537	0.666605	0.606824
C49	C	-0.099835	-0.000070	-0.016017
C50	C	0.233498	0.333263	0.317316
C51	C	0.566831	0.666596	0.650650
O52	O	-0.120728	-0.000081	0.021740
O53	O	0.212605	0.333252	0.355073
O54	O	0.545939	0.666585	0.688407
C55	C	0.101823	-0.000069	-0.018069
C56	C	0.435157	0.333264	0.315265
C57	C	0.768490	0.666598	0.648598
C58	C	0.120944	-0.000057	-0.062407
C59	C	0.454277	0.333276	0.270927
C60	C	0.787611	0.666609	0.604260
C61	C	0.108774	-0.000039	-0.150563
C62	C	0.442107	0.333295	0.182770
C63	C	0.775441	0.666628	0.516103
C64	C	0.159186	-0.000035	-0.151076
C65	C	0.492519	0.333299	0.182258
C66	C	0.825853	0.666632	0.515591
C67	C	0.190477	-0.000042	-0.107253
C68	C	0.523810	0.333291	0.226080
C69	C	0.857144	0.666625	0.559413
C70	C	0.171356	-0.000053	-0.062919
C71	C	0.504689	0.333280	0.270414
C72	C	0.838022	0.666613	0.603748
C73	C	0.133117	-0.000081	0.025757
C74	C	0.466451	0.333252	0.359090
C75	C	0.799784	0.666585	0.692423
C76	C	0.183535	-0.000082	0.025240
C77	C	0.516868	0.333251	0.358573
C78	C	0.850201	0.666584	0.691906
C79	C	0.202655	-0.000071	-0.019098
C80	C	0.535988	0.333263	0.314235
C81	C	0.869322	0.666596	0.647568
C82	C	0.253059	-0.000056	-0.019609
C83	C	0.586392	0.333277	0.313724
C84	C	0.919725	0.666610	0.647058
N85	N	0.272182	-0.000050	-0.063944
N86	N	0.605516	0.333284	0.269389
N87	N	0.938849	0.666617	0.602723
C88	C	0.240891	-0.000043	-0.107766
C89	C	0.574225	0.333291	0.225567
C90	C	0.907558	0.666624	0.558900
C91	C	-0.205709	-0.000070	-0.014943
C92	C	0.127624	0.333263	0.318390
C93	C	0.460957	0.666597	0.651724
C94	C	-0.256124	-0.000069	-0.014430
C95	C	0.077210	0.333264	0.318903
C96	C	0.410543	0.666597	0.652237
C97	C	-0.268292	-0.000055	-0.102591
C98	C	0.065042	0.333278	0.230742
C99	C	0.398375	0.666612	0.564076
C100	C	-0.217876	-0.000052	-0.103104
C101	C	0.115457	0.333281	0.230230
C102	C	0.448790	0.666615	0.563563
C103	C	-0.186586	-0.000063	-0.059278
C104	C	0.146748	0.333270	0.274055
C105	C	0.480081	0.666603	0.607388
C106	C	0.346760	-0.000034	-0.108839
C107	C	0.680094	0.333300	0.224494
C108	C	1.013427	0.666633	0.557828
C109	C	0.397177	-0.000028	-0.109347
C110	C	0.730511	0.333306	0.223986
C111	C	1.063844	0.666639	0.557319
C112	C	0.409341	-0.000045	-0.021186
C113	C	0.742674	0.333289	0.312147
C114	C	1.076008	0.666622	0.645480
C115	C	0.358928	-0.000048	-0.020678
C116	C	0.692262	0.333285	0.312656
C117	C	1.025595	0.666619	0.645989
C118	C	0.327639	-0.000044	-0.064508
C119	C	0.660972	0.333289	0.268825
C120	C	0.994306	0.666622	0.602159
O121	O	0.284343	-0.000046	0.017592
O122	O	0.617676	0.333287	0.350925
O123	O	0.951010	0.666620	0.684259
O124	O	0.261794	-0.000043	-0.145518
O125	O	0.595127	0.333290	0.187816
O126	O	0.928460	0.666624	0.521149
C127	C	0.039241	-0.000054	-0.105717
C128	C	0.372574	0.333279	0.227617
C129	C	0.705908	0.666613	0.560950
C130	C	0.020120	-0.000065	-0.061382
C131	C	0.353453	0.333268	0.271951
C132	C	0.686787	0.666601	0.605285
C133	C	0.051411	-0.000072	-0.017560
C134	C	0.384744	0.333261	0.315774
C135	C	0.718078	0.666594	0.649107
C136	C	-0.030294	-0.000065	-0.060869
C137	C	0.303039	0.333269	0.272464
C138	C	0.636372	0.666602	0.605798
C139	C	-0.061585	-0.000057	-0.104691
C140	C	0.271748	0.333276	0.228642
C141	C	0.605081	0.666609	0.561975
C142	C	-0.042462	-0.000051	-0.149027
C143	C	0.290871	0.333283	0.184307
C144	C	0.624205	0.666616	0.517640
C145	C	0.007950	-0.000047	-0.149539
C146	C	0.341283	0.333287	0.183795
C147	C	0.674617	0.666620	0.517128
C148	C	0.032287	-0.000079	0.026775
C149	C	0.365621	0.333254	0.360109
C150	C	0.698954	0.666588	0.693442
C151	C	-0.018125	-0.000083	0.027284
C152	C	0.315208	0.333251	0.360617
C153	C	0.648542	0.666584	0.693951
C154	C	-0.049416	-0.000075	-0.016538
C155	C	0.283917	0.333258	0.316795
C156	C	0.617251	0.666591	0.650129
N157	N	0.570510	-0.120812	-0.061905
N158	N	0.903843	0.212521	0.271428
N159	N	1.237176	0.545855	0.604762
C160	C	0.603640	-0.473335	-0.028781
C161	C	0.936973	-0.140002	0.304552
C162	C	1.270307	0.193332	0.637885
C163	C	0.603651	-0.686993	-0.028774
C164	C	0.936984	-0.353660	0.304559
C165	C	1.270317	-0.020327	0.637892
O166	O	0.631801	-0.714623	-0.000614
O167	O	0.965134	-0.381290	0.332720
O168	O	1.298467	-0.047956	0.666053
N169	N	0.570538	-0.713706	-0.061871
N170	N	0.903871	-0.380372	0.271462
N171	N	1.237205	-0.047039	0.604796
C172	C	0.537418	-0.687000	-0.094970
C173	C	0.870751	-0.353667	0.238364
C174	C	1.204085	-0.020334	0.571697
O175	O	0.509251	-0.714623	-0.123117
O176	O	0.842584	-0.381290	0.210216
O177	O	1.175917	-0.047957	0.543550
C178	C	0.537406	-0.473343	-0.094974
C179	C	0.870739	-0.140009	0.238360
C180	C	1.204072	0.193324	0.571693
C181	C	0.570524	-0.446633	-0.061878
C182	C	0.903857	-0.113300	0.271455
C183	C	1.237190	0.220034	0.604788
C184	C	0.636755	-0.446625	0.004312
C185	C	0.970089	-0.113292	0.337645
C186	C	1.303422	0.220041	0.670979
C187	C	0.636754	-0.393214	0.004308
C188	C	0.970087	-0.059880	0.337642
C189	C	1.303421	0.273453	0.670975
C190	C	0.603638	-0.366512	-0.028789
C191	C	0.936971	-0.033179	0.304545
C192	C	1.270304	0.300155	0.637878
C193	C	0.570522	-0.393222	-0.061882
C194	C	0.903856	-0.059888	0.271451
C195	C	1.237189	0.273445	0.604785
C196	C	0.504284	-0.446638	-0.128070
C197	C	0.837617	-0.113305	0.205264
C198	C	1.170950	0.220029	0.538597
C199	C	0.504283	-0.393220	-0.128067
C200	C	0.837616	-0.059887	0.205266
C201	C	1.170949	0.273446	0.538600
C202	C	0.537401	-0.366511	-0.094971
C203	C	0.870734	-0.033177	0.238362
C204	C	1.204068	0.300156	0.571695
C205	C	0.537405	-0.313108	-0.094983
C206	C	0.870738	0.020225	0.238351
C207	C	1.204071	0.353558	0.571684
N208	N	0.570518	-0.286396	-0.061886
N209	N	0.903851	0.046937	0.271447
N210	N	1.237184	0.380271	0.604780
C211	C	0.603634	-0.313098	-0.028789
C212	C	0.936967	0.020236	0.304544
C213	C	1.270301	0.353569	0.637878
C214	C	0.537428	-0.799174	-0.094966
C215	C	0.870761	-0.465840	0.238367
C216	C	1.204094	-0.132507	0.571701
C217	C	0.537431	-0.852588	-0.094966
C218	C	0.870765	-0.519254	0.238368
C219	C	1.204098	-0.185921	0.571701
C220	C	0.603664	-0.852577	-0.028770
C221	C	0.936997	-0.519244	0.304564
C222	C	1.270330	-0.185911	0.637897
C223	C	0.603662	-0.799162	-0.028773
C224	C	0.936995	-0.465829	0.304561
C225	C	1.270328	-0.132495	0.637894
C226	C	0.570540	-0.772461	-0.061869
C227	C	0.903874	-0.439128	0.271464
C228	C	1.237207	-0.105795	0.604797
C229	C	0.603629	-0.200930	-0.028800
C230	C	0.936962	0.132403	0.304533
C231	C	1.270296	0.465737	0.637867
C232	C	0.603626	-0.147514	-0.028808
C233	C	0.936960	0.185820	0.304525
C234	C	1.270293	0.519153	0.637859
C235	C	0.537393	-0.147529	-0.095002
C236	C	0.870726	0.185805	0.238331
C237	C	1.204059	0.519138	0.571665
C238	C	0.537397	-0.200940	-0.094996
C239	C	0.870730	0.132393	0.238337
C240	C	1.204064	0.465726	0.571671
C241	C	0.570517	-0.227640	-0.061891
C242	C	0.903850	0.105694	0.271443
C243	C	1.237184	0.439027	0.604776
O244	O	0.509266	-0.285446	-0.123125
O245	O	0.842599	0.047888	0.210208
O246	O	1.175933	0.381221	0.543541
O247	O	0.631790	-0.285466	-0.000639
O248	O	0.965123	0.047868	0.332694
O249	O	1.298457	0.381201	0.666028
C250	C	0.603641	-0.526746	-0.028777
C251	C	0.936975	-0.193413	0.304556
C252	C	1.270308	0.139920	0.637889
C253	C	0.570526	-0.553456	-0.061871
C254	C	0.903860	-0.220123	0.271463
C255	C	1.237193	0.113211	0.604796
C256	C	0.537410	-0.526754	-0.094968
C257	C	0.870743	-0.193421	0.238366
C258	C	1.204076	0.139913	0.571699
C259	C	0.570530	-0.606870	-0.061870
C260	C	0.903863	-0.273537	0.271463
C261	C	1.237196	0.059797	0.604796
C262	C	0.603646	-0.633572	-0.028773
C263	C	0.936980	-0.300239	0.304560
C264	C	1.270313	0.033095	0.637893
C265	C	0.636759	-0.606860	0.004323
C266	C	0.970092	-0.273526	0.337657
C267	C	1.303426	0.059807	0.670990
C268	C	0.636758	-0.553448	0.004320
C269	C	0.970091	-0.220115	0.337653
C270	C	1.303424	0.113219	0.670986
C271	C	0.504297	-0.553466	-0.128064
C272	C	0.837630	-0.220133	0.205269
C273	C	1.170964	0.113200	0.538602
C274	C	0.504301	-0.606878	-0.128058
C275	C	0.837635	-0.273545	0.205275
C276	C	1.170968	0.059789	0.538608
C277	C	0.537418	-0.633580	-0.094961
C278	C	0.870751	-0.300246	0.238372
C279	C	1.204084	0.033087	0.571705
C280	C	0.658931	-0.000060	-0.057699
C281	C	0.992264	0.333274	0.275634
C282	C	1.325597	0.666607	0.608967
C283	C	0.712585	-0.000062	-0.058252
C284	C	1.045919	0.333271	0.275081
C285	C	1.379252	0.666605	0.608414
C286	C	0.574717	-0.000065	0.026515
C287	C	0.908050	0.333269	0.359848
C288	C	1.241383	0.666602	0.693182
C289	C	0.574164	-0.000070	0.080170
C290	C	0.907497	0.333263	0.413503
C291	C	1.240831	0.666597	0.746837
N292	N	0.570548	0.120710	-0.061869
N293	N	0.903881	0.454044	0.271465
N294	N	1.237214	0.787377	0.604798
C295	C	0.614870	-0.000057	0.418985
C296	C	0.948203	0.333276	0.752319
C297	C	1.281537	0.666610	1.085652
C298	C	0.612820	-0.000055	0.620645
C299	C	0.946153	0.333279	0.953978
C300	C	1.279487	0.666612	1.287312
O301	O	0.650041	-0.000037	0.651901
O302	O	0.983374	0.333296	0.985234
O303	O	1.316708	0.666629	1.318567
N304	N	0.568485	-0.000050	0.639769
N305	N	0.901818	0.333283	0.973102
N306	N	1.235152	0.666616	1.306436
C307	C	0.524659	-0.000044	0.608474
C308	C	0.857993	0.333290	0.941808
C309	C	1.191326	0.666623	1.275141
O310	O	0.486902	-0.000035	0.629367
O311	O	0.820236	0.333299	0.962701
O312	O	1.153569	0.666632	1.296034
C313	C	0.526710	-0.000042	0.406815
C314	C	0.860043	0.333291	0.740149
C315	C	1.193376	0.666624	1.073482
C316	C	0.571047	-0.000052	0.387695
C317	C	0.904381	0.333282	0.721028
C318	C	1.237714	0.666615	1.054361
C319	C	0.659204	-0.000066	0.399864
C320	C	0.992538	0.333268	0.733197
C321	C	1.325871	0.666601	1.066531
C322	C	0.659716	-0.000069	0.349452
C323	C	0.993050	0.333264	0.682785
C324	C	1.326383	0.666598	1.016119
C325	C	0.615894	-0.000064	0.318161
C326	C	0.949227	0.333270	0.651495
C327	C	1.282560	0.666603	0.984828
C328	C	0.571559	-0.000055	0.337283
C329	C	0.904893	0.333278	0.670616
C330	C	1.238226	0.666612	1.003949
C331	C	0.482884	-0.000032	0.375522
C332	C	0.816218	0.333302	0.708855
C333	C	1.149551	0.666635	1.042188
C334	C	0.483401	-0.000030	0.325104
C335	C	0.816734	0.333303	0.658438
C336	C	1.150067	0.666637	0.991771
C337	C	0.527739	-0.000039	0.305984
C338	C	0.861072	0.333294	0.639317
C339	C	1.194405	0.666627	0.972650
C340	C	0.528249	-0.000053	0.255580
C341	C	0.861582	0.333280	0.588913
C342	C	1.194916	0.666614	0.922247
N343	N	0.572584	-0.000057	0.236456
N344	N	0.905917	0.333276	0.569790
N345	N	1.239251	0.666610	0.903123
C346	C	0.616406	-0.000062	0.267747
C347	C	0.949740	0.333271	0.601080
C348	C	1.283073	0.666604	0.934414
C349	C	0.523586	-0.000045	0.714348
C350	C	0.856919	0.333288	1.047682
C351	C	1.190253	0.666621	1.381015
C352	C	0.523073	-0.000046	0.764763
C353	C	0.856407	0.333287	1.098096
C354	C	1.189740	0.666620	1.431430
C355	C	0.611234	-0.000057	0.776930
C356	C	0.944568	0.333277	1.110264
C357	C	1.277901	0.666610	1.443597
C358	C	0.611746	-0.000059	0.726515
C359	C	0.945080	0.333274	1.059848
C360	C	1.278413	0.666608	1.393182
C361	C	0.567921	-0.000049	0.695225
C362	C	0.901254	0.333284	1.028558
C363	C	1.234588	0.666617	1.361891
C364	C	0.617478	-0.000070	0.161878
C365	C	0.950812	0.333263	0.495211
C366	C	1.284145	0.666597	0.828544
C367	C	0.617986	-0.000075	0.111461
C368	C	0.951320	0.333258	0.444794
C369	C	1.284653	0.666591	0.778127
C370	C	0.529826	-0.000063	0.099298
C371	C	0.863159	0.333271	0.432631
C372	C	1.196492	0.666604	0.765964
C373	C	0.529317	-0.000060	0.149710
C374	C	0.862651	0.333274	0.483044
C375	C	1.195984	0.666607	0.816377
C376	C	0.573148	-0.000062	0.180999
C377	C	0.906481	0.333272	0.514333
C378	C	1.239814	0.666605	0.847666
O379	O	0.491048	-0.000064	0.224296
O380	O	0.824381	0.333269	0.557629
O381	O	1.157715	0.666602	0.890963
O382	O	0.654158	-0.000060	0.246844
O383	O	0.987491	0.333273	0.580178
O384	O	1.320824	0.666607	0.913511
C385	C	0.614358	-0.000054	0.469397
C386	C	0.947691	0.333280	0.802731
C387	C	1.281025	0.666613	1.136064
C388	C	0.570024	-0.000045	0.488519
C389	C	0.903357	0.333289	0.821852
C390	C	1.236690	0.666622	1.155185
C391	C	0.526201	-0.000039	0.457228
C392	C	0.859534	0.333294	0.790561
C393	C	1.192868	0.666627	1.123895
C394	C	0.569511	-0.000046	0.538933
C395	C	0.902844	0.333287	0.872266
C396	C	1.236177	0.666621	1.205600
C397	C	0.613333	-0.000051	0.570224
C398	C	0.946667	0.333282	0.903557
C399	C	1.280000	0.666615	1.236890
C400	C	0.657668	-0.000056	0.551100
C401	C	0.991002	0.333278	0.884433
C402	C	1.324335	0.666611	1.217767
C403	C	0.658180	-0.000059	0.500688
C404	C	0.991514	0.333274	0.834021
C405	C	1.324847	0.666608	1.167355
C406	C	0.481866	-0.000035	0.476352
C407	C	0.815199	0.333298	0.809685
C408	C	1.148533	0.666631	1.143018
C409	C	0.481358	-0.000032	0.526764
C410	C	0.814691	0.333301	0.860098
C411	C	1.148024	0.666634	1.193431
C412	C	0.525180	-0.000038	0.558055
C413	C	0.858513	0.333295	0.891388
C414	C	1.191847	0.666629	1.224722
C415	C	0.566339	-0.000042	0.849708
C416	C	0.899672	0.333291	1.183041
C417	C	1.233005	0.666625	1.516374
C418	C	0.566896	-0.000052	0.796054
C419	C	0.900229	0.333281	1.129387
C420	C	1.233562	0.666615	1.462720
H421	H	-0.293778	-0.000049	-0.138273
H422	H	0.039556	0.333284	0.195060
H423	H	0.372889	0.666618	0.528394
H424	H	0.486969	-0.000048	0.780326
H425	H	0.820302	0.333286	1.113659
H426	H	1.153635	0.666619	1.446993
H427	H	-0.271687	-0.000071	0.021674
H428	H	0.061647	0.333262	0.355008
H429	H	0.394980	0.666596	0.688341
H430	H	0.446180	-0.000030	0.450879
H431	H	0.779513	0.333304	0.784212
H432	H	1.112846	0.666637	1.117546
C433	C	0.443765	-0.000050	0.027015
C434	C	0.777098	0.333283	0.360349
C435	C	1.110431	0.666617	0.693682
H436	H	0.425160	-0.000052	0.053497
H437	H	0.758493	0.333281	0.386830
H438	H	1.091826	0.666614	0.720163
H439	H	0.463684	-0.029640	0.028641
H440	H	0.797018	0.303693	0.361974
H441	H	1.130351	0.637026	0.695308
H442	H	0.463684	0.029547	0.028649
H443	H	0.797017	0.362880	0.361982
H444	H	1.130350	0.696214	0.695316
H445	H	0.477310	-0.371483	-0.155018
H446	H	0.810643	-0.038150	0.178315
H447	H	1.143976	0.295184	0.511649
H448	H	0.209010	-0.000092	0.060929
H449	H	0.542343	0.333241	0.394262
H450	H	0.875676	0.666575	0.727595
C451	C	0.467870	-0.524101	-0.164476
C452	C	0.801203	-0.190768	0.168857
C453	C	1.134537	0.142565	0.502191
H454	H	0.448155	-0.547664	-0.184187
H455	H	0.781488	-0.214331	0.149147
H456	H	1.114821	0.119002	0.482480
H457	H	0.447876	-0.503264	-0.147233
H458	H	0.781209	-0.169930	0.186100
H459	H	1.114542	0.163403	0.519434
H460	H	0.485110	-0.503267	-0.184483
H461	H	0.818443	-0.169934	0.148850
H462	H	1.151777	0.163400	0.482183
H463	H	0.663720	-0.371470	0.031259
H464	H	0.997054	-0.038137	0.364592
H465	H	1.330387	0.295197	0.697925
H466	H	0.663726	-0.531705	0.031269
H467	H	0.997059	-0.198372	0.364602
H468	H	1.330392	0.134962	0.697936
H469	H	0.494147	-0.000060	0.073812
H470	H	0.827480	0.333273	0.407145
H471	H	1.160813	0.666607	0.740478
H472	H	0.663725	-0.628609	0.031271
H473	H	0.997059	-0.295276	0.364604
H474	H	1.330392	0.038058	0.697937
H475	H	0.493214	-0.000066	0.165279
H476	H	0.826547	0.333267	0.498612
H477	H	1.159880	0.666600	0.831946
H478	H	0.694892	-0.000068	0.425337
H479	H	1.028225	0.333265	0.758670
H480	H	1.361558	0.666598	1.092003
C481	C	0.418207	-0.000017	-0.158121
C482	C	0.751540	0.333316	0.175212
C483	C	1.084874	0.666649	0.508546
H484	H	0.392348	-0.000019	-0.184145
H485	H	0.725681	0.333314	0.149188
H486	H	1.059015	0.666647	0.482521
H487	H	0.437621	0.029575	-0.160152
H488	H	0.770955	0.362909	0.173181
H489	H	1.104288	0.696242	0.506514
H490	H	0.437619	-0.029612	-0.160157
H491	H	0.770952	0.303721	0.173176
H492	H	1.104286	0.637055	0.506509
H493	H	0.487896	-0.000038	0.688875
H494	H	0.821229	0.333296	1.022209
H495	H	1.154562	0.666629	1.355542
C496	C	0.640090	-0.881953	0.007639
C497	C	0.973423	-0.548620	0.340973
C498	C	1.306756	-0.215287	0.674306
H499	H	0.659814	-0.858399	0.027352
H500	H	0.993147	-0.525066	0.360685
H501	H	1.326480	-0.191733	0.694019
H502	H	0.622850	-0.902793	0.027638
H503	H	0.956183	-0.569460	0.360971
H504	H	1.289516	-0.236126	0.694304
H505	H	0.660083	-0.902787	-0.009613
H506	H	0.993416	-0.569454	0.323720
H507	H	1.326750	-0.236120	0.657054
C508	C	0.066701	-0.000083	0.074983
C509	C	0.400035	0.333251	0.408316
C510	C	0.733368	0.666584	0.741649
H511	H	0.048087	-0.000083	0.101457
H512	H	0.381421	0.333250	0.434790
H513	H	0.714754	0.666583	0.768124
H514	H	0.086623	-0.029672	0.076618
H515	H	0.419957	0.303662	0.409951
H516	H	0.753290	0.636995	0.743284
H517	H	0.086618	0.029516	0.076619
H518	H	0.419952	0.362849	0.409952
H519	H	0.753285	0.696182	0.743286
H520	H	-0.202312	-0.000045	-0.139208
H521	H	0.131021	0.333288	0.194126
H522	H	0.464354	0.666622	0.527459
C523	C	-0.076886	-0.000042	-0.197231
C524	C	0.256447	0.333292	0.136102
C525	C	0.589781	0.666625	0.469436
H526	H	-0.058282	-0.000032	-0.223713
H527	H	0.275051	0.333301	0.109621
H528	H	0.608385	0.666635	0.442954
H529	H	-0.096807	-0.029634	-0.198864
H530	H	0.236526	0.303700	0.134469
H531	H	0.569859	0.637033	0.467802
H532	H	-0.096803	0.029554	-0.198856
H533	H	0.236530	0.362887	0.134478
H534	H	0.569863	0.696220	0.467811
C535	C	0.180212	-0.000032	-0.199848
C536	C	0.513545	0.333302	0.133485
C537	C	0.846879	0.666635	0.466819
H538	H	0.154351	-0.000034	-0.225870
H539	H	0.487684	0.333299	0.107464
H540	H	0.821017	0.666633	0.440797
H541	H	0.199629	0.029558	-0.201885
H542	H	0.532962	0.362892	0.131449
H543	H	0.866295	0.696225	0.464782
H544	H	0.199621	-0.029629	-0.201883
H545	H	0.532954	0.303704	0.131450
H546	H	0.866287	0.637038	0.464784
C547	C	0.706952	-0.000064	0.479662
C548	C	1.040286	0.333269	0.812995
C549	C	1.373619	0.666603	1.146328
H550	H	0.732974	-0.000062	0.505523
H551	H	1.066308	0.333271	0.838856
H552	H	1.399641	0.666605	1.172190
H553	H	0.708985	-0.029655	0.460248
H554	H	1.042319	0.303678	0.793582
H555	H	1.375652	0.637011	1.126915
H556	H	0.708991	0.029532	0.460249
H557	H	1.042325	0.362866	0.793583
H558	H	1.375658	0.696199	1.126916
H559	H	0.446780	-0.000021	0.391081
H560	H	0.780113	0.333312	0.724414
H561	H	1.113446	0.666646	1.057747
C562	C	0.666760	-0.000083	0.090431
C563	C	1.000093	0.333251	0.423764
C564	C	1.333427	0.666584	0.757097
H565	H	0.692784	-0.000080	0.116290
H566	H	1.026118	0.333254	0.449623
H567	H	1.359451	0.666587	0.782956
H568	H	0.668790	-0.029675	0.071018
H569	H	1.002124	0.303658	0.404352
H570	H	1.335457	0.636991	0.737685
H571	H	0.668797	0.029512	0.071017
H572	H	1.002131	0.362846	0.404350
H573	H	1.335464	0.696179	0.737683
C574	C	0.659438	-0.000055	0.811356
C575	C	0.992771	0.333279	1.144689
C576	C	1.326104	0.666612	1.478023
H577	H	0.652778	-0.000049	0.844118
H578	H	0.986112	0.333285	1.177451
H579	H	1.319445	0.666618	1.510785
H580	H	0.677637	-0.029644	0.805601
H581	H	1.010971	0.303689	1.138934
H582	H	1.344304	0.637022	1.472267
H583	H	0.677631	0.029543	0.805594
H584	H	1.010965	0.362877	1.138927
H585	H	1.344298	0.696210	1.472260
C586	C	0.028976	-0.000039	-0.198311
C587	C	0.362310	0.333294	0.135022
C588	C	0.695643	0.666628	0.468356
H589	H	0.003115	-0.000040	-0.224333
H590	H	0.336448	0.333294	0.109001
H591	H	0.669781	0.666627	0.442334
H592	H	0.048392	0.029553	-0.200345
H593	H	0.381725	0.362886	0.132988
H594	H	0.715058	0.696219	0.466322
H595	H	0.048386	-0.029635	-0.200349
H596	H	0.381720	0.303699	0.132984
H597	H	0.715053	0.637032	0.466317
H598	H	0.447712	-0.000021	0.299630
H599	H	0.781045	0.333312	0.632963
H600	H	1.114379	0.666645	0.966296
H601	H	0.693350	-0.000062	0.576586
H602	H	1.026683	0.333271	0.909919
H603	H	1.360017	0.666604	1.243253
C604	C	0.500950	-0.230322	-0.131382
C605	C	0.834283	0.103011	0.201952
C606	C	1.167617	0.436345	0.535285
H607	H	0.481220	-0.206767	-0.151086
H608	H	0.814553	0.126566	0.182248
H609	H	1.147887	0.459900	0.515581
H610	H	0.518162	-0.251174	-0.151392
H611	H	0.851496	0.082159	0.181942
H612	H	1.184829	0.415493	0.515275
H613	H	0.480966	-0.251144	-0.114104
H614	H	0.814300	0.082190	0.219230
H615	H	1.147633	0.415523	0.552563
H616	H	-0.180236	-0.000079	0.020747
H617	H	0.153097	0.333254	0.354080
H618	H	0.486430	0.666587	0.687414
H619	H	0.653169	-0.000070	0.187348
H620	H	0.986503	0.333264	0.520681
H621	H	1.319836	0.666597	0.854015
C622	C	0.467867	-0.636253	-0.164464
C623	C	0.801200	-0.302919	0.168870
C624	C	1.134533	0.030414	0.502203
H625	H	0.448142	-0.612695	-0.184170
H626	H	0.781475	-0.279362	0.149163
H627	H	1.114808	0.053971	0.482497
H628	H	0.485095	-0.657092	-0.184469
H629	H	0.818429	-0.323759	0.148864
H630	H	1.151762	0.009574	0.482197
H631	H	0.447876	-0.657086	-0.147205
H632	H	0.781209	-0.323753	0.186128
H633	H	1.114542	0.009581	0.519462
C634	C	0.708487	-0.000076	0.328423
C635	C	1.041820	0.333257	0.661756
C636	C	1.375154	0.666590	0.995090
H637	H	0.702523	-0.000080	0.293916
H638	H	1.035856	0.333253	0.627250
H639	H	1.369189	0.666586	0.960583
H640	H	0.726519	0.029513	0.339188
H641	H	1.059852	0.362846	0.672521
H642	H	1.393185	0.696180	1.005855
H643	H	0.726507	-0.029674	0.339189
H644	H	1.059840	0.303659	0.672523
H645	H	1.393173	0.636992	1.005856
C646	C	0.312349	-0.000023	-0.157051
C647	C	0.645682	0.333310	0.176283
C648	C	0.979016	0.666644	0.509616
H649	H	0.330964	-0.000010	-0.183525
H650	H	0.664297	0.333323	0.149809
H651	H	0.997630	0.666657	0.483142
H652	H	0.292426	-0.029614	-0.158696
H653	H	0.625759	0.303720	0.174638
H654	H	0.959092	0.637053	0.507971
H655	H	0.292433	0.029574	-0.158678
H656	H	0.625767	0.362907	0.174655
H657	H	0.959100	0.696241	0.507989
H658	H	0.630598	-0.222662	-0.001842
H659	H	0.963931	0.110671	0.331491
H660	H	1.297265	0.444004	0.664825
H661	H	0.343360	-0.000050	0.015426
H662	H	0.676693	0.333283	0.348759
H663	H	1.010027	0.666616	0.682093
H664	H	0.083301	-0.000035	-0.186251
H665	H	0.416635	0.333299	0.147083
H666	H	0.749968	0.666632	0.480416
H667	H	0.663723	-0.468361	0.031266
H668	H	0.997056	-0.135028	0.364599
H669	H	1.330389	0.198306	0.697932
H670	H	0.510456	-0.777437	-0.121918
H671	H	0.843789	-0.444104	0.211415
H672	H	1.177122	-0.110771	0.544748
C673	C	0.640088	-0.769786	0.007636
C674	C	0.973421	-0.436453	0.340969
C675	C	1.306754	-0.103120	0.674302
H676	H	0.659807	-0.793344	0.027347
H677	H	0.993141	-0.460010	0.360680
H678	H	1.326474	-0.126677	0.694014
H679	H	0.660078	-0.748944	-0.009612
H680	H	0.993411	-0.415611	0.323722
H681	H	1.326744	-0.082277	0.657055
H682	H	0.622847	-0.748956	0.027642
H683	H	0.956181	-0.415622	0.360976
H684	H	1.289514	-0.082289	0.694309
H685	H	-0.033688	-0.000088	0.063392
H686	H	0.299646	0.333245	0.396726
H687	H	0.632979	0.666579	0.730059
C688	C	0.640055	-0.118136	0.007601
C689	C	0.973389	0.215197	0.340934
C690	C	1.306722	0.548531	0.674267
H691	H	0.659774	-0.141692	0.027315
H692	H	0.993107	0.191641	0.360649
H693	H	1.326441	0.524975	0.693982
H694	H	0.660047	-0.097297	-0.009649
H695	H	0.993380	0.236036	0.323685
H696	H	1.326713	0.569370	0.657018
H697	H	0.622815	-0.097302	0.027605
H698	H	0.956149	0.236032	0.360938
H699	H	1.289482	0.569365	0.694271
H700	H	0.510469	-0.874331	-0.121920
H701	H	0.843802	-0.540998	0.211413
H702	H	1.177135	-0.207664	0.544747
C703	C	0.500964	-0.118150	-0.131402
C704	C	0.834297	0.215183	0.201931
C705	C	1.167631	0.548517	0.535264
H706	H	0.505705	-0.082514	-0.126657
H707	H	0.839038	0.250819	0.206676
H708	H	1.172372	0.584153	0.540009
H709	H	0.505963	-0.126899	-0.163631
H710	H	0.839296	0.206435	0.169702
H711	H	1.172630	0.539768	0.503036
H712	H	0.468744	-0.126907	-0.126366
H713	H	0.802078	0.206427	0.206968
H714	H	1.135411	0.539760	0.540301
C715	C	0.660517	-0.000064	0.705486
C716	C	0.993851	0.333269	1.038820
C717	C	1.327184	0.666602	1.372153
H718	H	0.686541	-0.000065	0.731347
H719	H	1.019874	0.333268	1.064680
H720	H	1.353207	0.666601	1.398013
H721	H	0.662548	-0.029655	0.686071
H722	H	0.995881	0.303679	1.019404
H723	H	1.329215	0.637012	1.352738
H724	H	0.662557	0.029533	0.686076
H725	H	0.995890	0.362866	1.019409
H726	H	1.329223	0.696200	1.352743
C727	C	0.432583	-0.000021	0.547791
C728	C	0.765916	0.333313	0.881124
C729	C	1.099249	0.666646	1.214458
H730	H	0.406559	-0.000012	0.521931
H731	H	0.739893	0.333321	0.855264
H732	H	1.073226	0.666654	1.188598
H733	H	0.430538	-0.029608	0.567209
H734	H	0.763871	0.303725	0.900542
H735	H	1.097205	0.637058	1.233875
H736	H	0.430558	0.029579	0.567200
H737	H	0.763891	0.362912	0.900533
H738	H	1.097224	0.696246	1.233866
H739	H	0.477316	-0.468377	-0.155019
H740	H	0.810649	-0.135044	0.178315
H741	H	1.143982	0.198289	0.511648
H742	H	0.117559	-0.000091	0.061861
H743	H	0.450892	0.333242	0.395195
H744	H	0.784225	0.666575	0.728528
