data_functionalizedCrystal
_audit_creation_method	'MofGen! by Chris Wilmer'
_symmetry_space_group_name_H-M	'P1'
_symmetry_Int_Tables_number	1
_symmetry_cell_setting	triclinic
loop_
_symmetry_equiv_pos_as_xyz
  x,y,z
_cell_length_a	17.019294
_cell_length_b	19.288864
_cell_length_c	17.766277
_cell_angle_alpha	90.023209
_cell_angle_beta	86.114664
_cell_angle_gamma	96.735399
loop_
_atom_site_label
_atom_site_type_symbol
_atom_site_fract_x
_atom_site_fract_y
_atom_site_fract_z
O1	O	0.098406	-0.921527	-0.069213
O2	O	0.598406	-0.421527	0.430787
O3	O	0.111681	-0.719290	-0.070022
O4	O	0.611681	-0.219290	0.429978
O5	O	-0.009809	-0.826050	-0.062171
O6	O	0.490191	-0.326050	0.437829
O7	O	0.219897	-0.814768	-0.077064
O8	O	0.719897	-0.314768	0.422936
O9	O	-0.009815	-0.826031	0.063018
O10	O	0.490185	-0.326031	0.563018
O11	O	0.111675	-0.719271	0.055167
O12	O	0.611675	-0.219271	0.555167
O13	O	0.098400	-0.921508	0.055976
O14	O	0.598400	-0.421508	0.555976
Cu15	Cu	0.105037	-0.820388	0.067002
Cu16	Cu	0.605037	-0.320388	0.567002
Cu17	Cu	0.105044	-0.820410	-0.081048
Cu18	Cu	0.605044	-0.320410	0.418952
O19	O	0.219891	-0.814749	0.048125
O20	O	0.719891	-0.314749	0.548125
C21	C	0.111251	-0.693403	-0.007393
C22	C	0.611251	-0.193403	0.492607
C23	C	0.109969	-0.616298	-0.007290
C24	C	0.609969	-0.116298	0.492710
C25	C	-0.039200	-0.825612	0.002328
C26	C	0.460800	-0.325612	0.502328
C27	C	-0.126766	-0.824328	0.008002
C28	C	0.373234	-0.324328	0.508002
C29	C	0.098830	-0.947395	-0.006654
C30	C	0.598830	-0.447395	0.493346
C31	C	0.100113	-1.024501	-0.006762
C32	C	0.600113	-0.524501	0.493238
C33	C	-0.167897	-0.823737	-0.057572
C34	C	0.332103	-0.323737	0.442428
C35	C	-0.250174	-0.822526	-0.052239
C36	C	0.249826	-0.322526	0.447761
C37	C	-0.291319	-0.821912	0.018670
C38	C	0.208681	-0.321912	0.518670
C39	C	-0.250182	-0.822501	0.084249
C40	C	0.249818	-0.322501	0.584249
C41	C	-0.167906	-0.823707	0.078915
C42	C	0.332094	-0.323707	0.578915
C43	C	-0.539739	-0.818265	0.038191
C44	C	-0.039739	-0.318265	0.538191
C45	C	-0.622022	-0.817062	0.043520
C46	C	-0.122022	-0.317062	0.543520
C47	C	-0.622008	-0.817085	-0.092968
C48	C	-0.122008	-0.317085	0.407032
C49	C	-0.539730	-0.818296	-0.098297
C50	C	-0.039730	-0.318296	0.401703
C51	C	-0.498600	-0.818881	-0.032717
C52	C	0.001400	-0.318881	0.467283
C53	C	-0.375420	-0.820676	0.024124
C54	C	0.124580	-0.320676	0.524124
C55	C	-0.414500	-0.820112	-0.038172
C56	C	0.085500	-0.320112	0.461828
C57	C	0.249281	-0.815186	-0.016375
C58	C	0.749281	-0.315186	0.483625
C59	C	0.336847	-0.816470	-0.022054
C60	C	0.836847	-0.316470	0.477946
N61	N	0.105031	-0.820378	0.171133
N62	N	0.605031	-0.320378	0.671133
C63	C	0.181254	-0.571728	-0.011924
C64	C	0.681254	-0.071728	0.488076
C65	C	0.180049	-0.499278	-0.011854
C66	C	0.680049	0.000722	0.488146
C67	C	0.107555	-0.471402	-0.007165
C68	C	0.607555	0.028598	0.492835
C69	C	0.036261	-0.515982	-0.002527
C70	C	0.536261	-0.015982	0.497473
C71	C	0.037468	-0.588430	-0.002589
C72	C	0.537468	-0.088430	0.497411
C73	C	0.050570	-0.363046	-0.047355
C74	C	0.550570	0.136954	0.452645
C75	C	0.049366	-0.290600	-0.047297
C76	C	0.549366	0.209400	0.452703
C77	C	0.103831	-0.247950	-0.006969
C78	C	0.603831	0.252050	0.493031
C79	C	0.159513	-0.277755	0.033291
C80	C	0.659513	0.222245	0.533291
C81	C	0.160720	-0.350203	0.033228
C82	C	0.660720	0.149797	0.533228
C83	C	0.106239	-0.392846	-0.007097
C84	C	0.606239	0.107154	0.492903
C85	C	0.173815	-0.124822	-0.011527
C86	C	0.673815	0.375178	0.488473
C87	C	0.172607	-0.052372	-0.011452
C88	C	0.672607	0.447628	0.488548
C89	C	0.028817	-0.069077	-0.002132
C90	C	0.528817	0.430923	0.497868
C91	C	0.030026	-0.141526	-0.002200
C92	C	0.530026	0.358474	0.497800
C93	C	0.102528	-0.169394	-0.006900
C94	C	0.602528	0.330606	0.493100
N95	N	0.105044	-0.820426	-0.185178
N96	N	0.605044	-0.320426	0.314822
C97	C	0.051262	-0.867666	0.213995
C98	C	0.551262	-0.367666	0.713995
C99	C	0.051258	-0.867670	0.292797
C100	C	0.551258	-0.367670	0.792797
C101	C	0.105038	-0.820392	0.328733
C102	C	0.605038	-0.320392	0.828733
C103	C	0.158812	-0.773095	0.285862
C104	C	0.658812	-0.273095	0.785862
C105	C	0.158808	-0.773088	0.207062
C106	C	0.658808	-0.273088	0.707062
C107	C	0.176913	-0.811221	0.448913
C108	C	0.676913	-0.311221	0.948913
C109	C	0.176917	-0.811233	0.527711
C110	C	0.676917	-0.311233	1.027711
C111	C	0.105047	-0.820411	0.571779
C112	C	0.605047	-0.320411	1.071779
C113	C	0.033170	-0.829591	0.537039
C114	C	0.533170	-0.329591	1.037039
C115	C	0.033167	-0.829584	0.458239
C116	C	0.533167	-0.329584	0.958239
C117	C	0.105047	-0.820395	0.414178
C118	C	0.605047	-0.320395	0.914178
C119	C	0.051269	-0.867706	0.700087
C120	C	0.551269	-0.367706	1.200087
C121	C	0.051264	-0.867705	0.778891
C122	C	0.551264	-0.367705	1.278891
C123	C	0.158825	-0.773134	0.771954
C124	C	0.658825	-0.273134	1.271954
C125	C	0.158823	-0.773131	0.693152
C126	C	0.658823	-0.273131	1.193152
C127	C	0.105046	-0.820421	0.657224
C128	C	0.605046	-0.320421	1.157224
H129	H	-0.283659	-0.822047	-0.105636
H130	H	0.216341	-0.322047	0.394364
H131	H	0.007472	-0.906171	0.184744
H132	H	0.507472	-0.406171	0.684744
N133	N	-0.497709	-0.818934	-0.170730
N134	N	0.002291	-0.318934	0.329270
N135	N	-0.514342	-0.867745	-0.215355
N136	N	-0.014342	-0.367745	0.284645
H137	H	-0.484666	-0.868199	-0.266513
H138	H	0.015334	-0.368199	0.233487
N139	N	0.250343	-0.801848	0.563178
N140	N	0.750343	-0.301848	1.063178
N141	N	0.296918	-0.747271	0.551378
N142	N	0.796918	-0.247271	1.051378
H143	H	0.348778	-0.740641	0.576423
H144	H	0.848778	-0.240641	1.076423
N145	N	-0.037797	-0.487524	0.002269
N146	N	0.462203	0.012476	0.502269
N147	N	-0.085800	-0.501178	0.058155
N148	N	0.414200	-0.001178	0.558155
H149	H	-0.138107	-0.481081	0.061547
H150	H	0.361893	0.018919	0.561547
N151	N	-0.003704	-0.916002	0.663424
N152	N	0.496296	-0.416002	1.163424
N153	N	0.021120	-0.959127	0.617818
N154	N	0.521120	-0.459127	1.117818
H155	H	-0.017723	-0.993236	0.591946
H156	H	0.482277	-0.493236	1.091946
N157	N	0.213739	-0.724775	0.163287
N158	N	0.713739	-0.224775	0.663287
N159	N	0.261749	-0.682560	0.195378
N160	N	0.761749	-0.182560	0.695378
H161	H	0.300546	-0.648438	0.164461
H162	H	0.800546	-0.148438	0.664461
H163	H	0.238100	-0.462982	-0.015625
H164	H	0.738100	0.037018	0.484375
H165	H	0.007471	-0.906179	0.327701
H166	H	0.507471	-0.406179	0.827701
H167	H	0.203863	-0.243031	0.066130
H168	H	0.703863	0.256969	0.566130
H169	H	0.007474	-0.906211	0.813790
H170	H	0.507474	-0.406211	1.313790
N171	N	-0.417439	-0.820056	0.096560
N172	N	0.082561	-0.320056	0.596560
N173	N	-0.380711	-0.820587	0.155108
N174	N	0.119289	-0.320587	0.655108
H175	H	-0.410388	-0.820147	0.206267
H176	H	0.089612	-0.320147	0.706267
N177	N	-0.125871	-0.824351	-0.130006
N178	N	0.374129	-0.324351	0.369994
N179	N	-0.072517	-0.776086	-0.148679
N180	N	0.427483	-0.276086	0.351321
H181	H	-0.042837	-0.776516	-0.199838
H182	H	0.457163	-0.276516	0.300162
N183	N	0.247875	-0.153282	-0.016324
N184	N	0.747875	0.346718	0.483676
N185	N	0.311520	-0.113475	-0.020452
N186	N	0.811520	0.386525	0.479548
H187	H	0.363827	-0.133572	-0.023839
H188	H	0.863827	0.366428	0.476161
H189	H	0.202610	-0.734636	0.801213
H190	H	0.702610	-0.234636	1.301213
H191	H	-0.020583	-0.624720	0.001184
H192	H	0.479417	-0.124720	0.501184
H193	H	0.202610	-0.734627	0.658252
H194	H	0.702610	-0.234627	1.158252
H195	H	0.235442	-0.803735	0.413038
H196	H	0.735442	-0.303735	0.913038
N197	N	0.213736	-0.724802	0.322579
N198	N	0.713736	-0.224802	0.822579
N199	N	0.213732	-0.724815	0.392935
N200	N	0.713732	-0.224815	0.892935
H201	H	0.252522	-0.690704	0.418867
H202	H	0.752522	-0.190704	0.918867
N203	N	-0.007520	-0.260173	-0.088420
N204	N	0.492480	0.239827	0.411580
N205	N	-0.079993	-0.276696	-0.072656
N206	N	0.420007	0.223304	0.427344
H207	H	-0.120172	-0.255211	-0.101700
H208	H	0.379828	0.244789	0.398300
N209	N	-0.664034	-0.816489	-0.159944
N210	N	-0.164034	-0.316489	0.340056
N211	N	-0.737494	-0.815414	-0.155176
N212	N	-0.237494	-0.315414	0.344824
H213	H	-0.767177	-0.814991	-0.202480
H214	H	-0.267177	-0.314991	0.297520
H215	H	-0.655519	-0.816558	0.101265
H216	H	-0.155519	-0.316558	0.601265
H217	H	-0.506263	-0.818756	0.091590
H218	H	-0.006263	-0.318756	0.591590
H219	H	-0.283688	-0.821996	0.141985
H220	H	0.216312	-0.321996	0.641985
H221	H	0.230658	-0.016083	-0.015221
H222	H	0.730658	0.483917	0.484779
N223	N	-0.125900	-0.824303	0.145905
N224	N	0.374100	-0.324303	0.645905
N225	N	-0.162643	-0.823751	0.209212
N226	N	0.337357	-0.323751	0.709212
H227	H	-0.132977	-0.824168	0.256527
H228	H	0.367023	-0.324168	0.756527
H229	H	-0.380996	-0.820607	-0.095905
H230	H	0.119004	-0.320607	0.404095
H231	H	-0.028022	-0.177816	0.001570
H232	H	0.471978	0.322184	0.501570
H233	H	0.240290	-0.594412	-0.015753
H234	H	0.740290	-0.094412	0.484247
N235	N	-0.040255	-0.838961	0.422764
N236	N	0.459745	-0.338961	0.922764
N237	N	-0.104422	-0.847157	0.462110
N238	N	0.395578	-0.347157	0.962110
H239	H	-0.156278	-0.853778	0.437057
H240	H	0.343722	-0.353778	0.937057
N241	N	0.217598	-0.380637	0.074353
N242	N	0.717598	0.119363	0.574353
N243	N	0.266228	-0.342557	0.110356
N244	N	0.766228	0.157443	0.610356
H245	H	0.306398	-0.364050	0.139403
H246	H	0.806398	0.135950	0.639403
H247	H	-0.030209	-0.046382	0.001638
H248	H	0.469791	0.453618	0.501638
N249	N	-0.040244	-0.838957	0.582053
N250	N	0.459756	-0.338957	1.082053
N251	N	-0.040235	-0.838949	0.652409
N252	N	0.459765	-0.338949	1.152409
H253	H	-0.092081	-0.845560	0.684205
H254	H	0.407919	-0.345560	1.184205
N255	N	-0.005082	-0.406599	-0.088548
N256	N	0.494918	0.093401	0.411452
N257	N	-0.054788	-0.379981	-0.124493
N258	N	0.445212	0.120019	0.375507
H259	H	-0.094093	-0.410739	-0.153583
H260	H	0.405907	0.089261	0.346417
