data_functionalizedCrystal
_audit_creation_method	'MofGen! by Chris Wilmer'
_symmetry_space_group_name_H-M	'P1'
_symmetry_Int_Tables_number	1
_symmetry_cell_setting	triclinic
loop_
_symmetry_equiv_pos_as_xyz
  x,y,z
_cell_length_a	6.394989
_cell_length_b	10.723024
_cell_length_c	9.198806
_cell_angle_alpha	90.003648
_cell_angle_beta	90.000201
_cell_angle_gamma	85.482790
loop_
_atom_site_label
_atom_site_type_symbol
_atom_site_fract_x
_atom_site_fract_y
_atom_site_fract_z
O1	O	-0.293022	-1.660298	-0.120873
O2	O	-0.321070	-1.297443	-0.120877
O3	O	-0.003055	-1.484021	-0.120876
O4	O	-0.611036	-1.473720	-0.120874
O5	O	-0.003054	-1.484006	0.120909
O6	O	-0.321069	-1.297428	0.120908
O7	O	-0.293021	-1.660282	0.120912
Cu8	Cu	-0.307045	-1.478854	0.142987
Cu9	Cu	-0.307046	-1.478872	-0.142952
O10	O	-0.611035	-1.473705	0.120911
C11	C	-0.319028	-1.250914	0.000015
C12	C	-0.312921	-1.112295	0.000013
C13	C	-0.295062	-1.706811	0.000017
C14	C	-0.301169	-1.845430	0.000010
N15	N	-0.307043	-1.478850	0.344101
C16	C	0.074796	-1.481977	0.000011
C17	C	0.311120	-1.475752	0.000010
N18	N	-0.307031	-1.478885	-0.344066
C19	C	-0.490865	-1.039201	0.000013
C20	C	-0.484558	-0.895931	0.000011
C21	C	-0.172929	-1.557183	0.416299
C22	C	-0.172922	-1.557202	0.583711
H23	H	-0.647879	-1.082689	0.000022
O24	O	-0.104930	-1.054697	0.000015
H25	H	-0.014823	-1.085315	0.098570
O26	O	-0.099363	-0.928619	0.000025
H27	H	-0.093005	-0.988543	-0.098514
H28	H	-0.636892	-0.833115	0.000005
O29	O	-0.020822	-1.645978	0.333994
H30	H	-0.048386	-1.743793	0.363084
H31	H	-0.058109	-1.624270	0.645797
O32	O	-0.459106	-1.390030	0.573704
H33	H	-0.561077	-1.444380	0.504328
O34	O	-0.459169	-1.390038	0.426367
H35	H	-0.370536	-1.327896	0.495741
