data_functionalizedCrystal
_audit_creation_method	'MofGen! by Chris Wilmer'
_symmetry_space_group_name_H-M	'P1'
_symmetry_Int_Tables_number	1
_symmetry_cell_setting	triclinic
loop_
_symmetry_equiv_pos_as_xyz
  x,y,z
_cell_length_a	14.519731
_cell_length_b	12.996460
_cell_length_c	14.519709
_cell_angle_alpha	90.007090
_cell_angle_beta	96.315501
_cell_angle_gamma	89.993310
loop_
_atom_site_label
_atom_site_type_symbol
_atom_site_fract_x
_atom_site_fract_y
_atom_site_fract_z
O1	O	-1.223857	0.085596	0.120986
O2	O	-0.955382	0.085592	0.135203
O3	O	-1.096738	0.085585	-0.006143
O4	O	-1.082501	0.085603	0.262332
O5	O	-1.096723	-0.085549	-0.006151
O6	O	-0.955368	-0.085542	0.135195
O7	O	-1.223842	-0.085538	0.120979
Cu8	Cu	-1.089603	-0.101166	0.128086
Cu9	Cu	-1.089621	0.101220	0.128095
O10	O	-1.082487	-0.085531	0.262325
C11	C	-0.921016	0.000025	0.134532
C12	C	-0.818635	0.000023	0.132536
N13	N	-1.089598	-0.243513	0.128079
C14	C	-0.735491	0.000025	0.130915
C15	C	-0.631182	0.000024	0.128888
C16	C	-0.548043	0.000022	0.127280
C17	C	-0.443728	0.000022	0.125253
C18	C	-1.089620	-0.663327	0.128096
C19	C	-1.089611	-0.546522	0.128094
C20	C	-1.089609	-0.453424	0.128088
C21	C	-1.089600	-0.336611	0.128085
C22	C	-0.258209	0.000026	0.121649
C23	C	-0.360589	0.000020	0.123645
C24	C	-1.096067	0.000018	-0.040507
C25	C	-1.094079	0.000017	-0.142889
N26	N	-1.089634	0.243567	0.128095
C27	C	-1.086759	0.000044	-0.517785
C28	C	-1.088792	0.000036	-0.413477
C29	C	-1.090419	0.000029	-0.330340
C30	C	-1.092452	0.000024	-0.226025
C31	C	-1.083157	0.000039	0.296688
C32	C	-1.085146	0.000046	0.399070
